AV-unprocessed.smi:33|AV-procd|sdf|210|dock10
  -GOLD-   2262015513D 1   1.00000     0.00000
 Structure written by MMmdl.
 67 72  0  0  0  0  0  0  0  0  1 V2000
  152.5341  139.1450  159.3144 O   0  0  0  0  0  0  0  0  0  0  0  0
  152.4362  139.9678  158.4018 C   0  0  0  0  0  0  0  0  0  0  0  0
  152.5125  139.6460  157.0968 O   0  0  0  0  0  0  0  0  0  0  0  0
  152.7882  138.3110  156.7072 C   0  0  0  0  0  0  0  0  0  0  0  0
  151.4903  137.4990  156.7793 C   0  0  1  0  0  0  0  0  0  0  0  0
  150.3973  138.3221  157.1854 O   0  0  0  0  0  0  0  0  0  0  0  0
  149.2025  137.8393  156.6413 C   0  0  2  0  0  0  0  0  0  0  0  0
  148.3007  137.4309  157.7640 N   0  0  0  0  0  0  0  0  0  0  0  0
  147.9276  138.1992  158.8450 C   0  0  0  0  0  0  0  0  0  0  0  0
  147.1272  137.6201  159.6981 N   0  0  0  0  0  0  0  0  0  0  0  0
  146.9442  136.3483  159.1735 C   0  0  0  0  0  0  0  0  0  0  0  0
  146.1994  135.2100  159.5845 C   0  0  0  0  0  0  0  0  0  0  0  0
  145.4471  135.1922  160.7096 N   0  0  0  0  0  0  0  0  0  0  0  0
  145.9032  134.3238  161.8038 C   0  0  0  0  0  0  0  0  0  0  0  0
  145.5929  134.5943  162.9654 O   0  0  0  0  0  0  0  0  0  0  0  0
  146.7797  133.1378  161.5170 C   0  0  0  0  0  0  0  0  0  0  0  0
  148.0503  133.0329  162.1240 C   0  0  0  0  0  0  0  0  0  0  0  0
  148.8679  131.9144  161.8703 C   0  0  0  0  0  0  0  0  0  0  0  0
  148.4127  130.8854  161.0241 C   0  0  0  0  0  0  0  0  0  0  0  0
  147.1357  130.9706  160.4377 C   0  0  0  0  0  0  0  0  0  0  0  0
  146.3181  132.0891  160.6896 C   0  0  0  0  0  0  0  0  0  0  0  0
  144.2489  136.0445  160.7356 C   0  0  0  0  0  0  0  0  0  0  0  0
  144.1939  137.0369  160.0067 O   0  0  0  0  0  0  0  0  0  0  0  0
  143.1208  135.7471  161.6828 C   0  0  0  0  0  0  0  0  0  0  0  0
  142.2071  136.7649  162.0345 C   0  0  0  0  0  0  0  0  0  0  0  0
  141.1394  136.4893  162.9105 C   0  0  0  0  0  0  0  0  0  0  0  0
  140.9676  135.1906  163.4260 C   0  0  0  0  0  0  0  0  0  0  0  0
  141.8581  134.1644  163.0574 C   0  0  0  0  0  0  0  0  0  0  0  0
  142.9262  134.4392  162.1817 C   0  0  0  0  0  0  0  0  0  0  0  0
  146.2492  134.0991  158.8053 N   0  0  0  0  0  0  0  0  0  0  0  0
  146.9847  134.1050  157.6902 C   0  0  0  0  0  0  0  0  0  0  0  0
  147.7237  135.0943  157.1833 N   0  0  0  0  0  0  0  0  0  0  0  0
  147.6781  136.2134  157.9627 C   0  0  0  0  0  0  0  0  0  0  0  0
  149.5559  136.6474  155.7403 C   0  0  1  0  0  0  0  0  0  0  0  0
  148.8038  136.5948  154.5447 O   0  0  0  0  0  0  0  0  0  0  0  0
  151.0202  136.9282  155.4434 C   0  0  1  0  0  0  0  0  0  0  0  0
  151.1448  137.8692  154.5023 F   0  0  0  0  0  0  0  0  0  0  0  0
  152.2205  141.4263  158.6268 C   0  0  0  0  0  0  0  0  0  0  0  0
  151.5440  142.1866  157.6445 C   0  0  0  0  0  0  0  0  0  0  0  0
  151.3240  143.5653  157.8304 C   0  0  0  0  0  0  0  0  0  0  0  0
  151.7776  144.2003  159.0012 C   0  0  0  0  0  0  0  0  0  0  0  0
  152.4520  143.4552  159.9861 C   0  0  0  0  0  0  0  0  0  0  0  0
  152.6732  142.0765  159.8019 C   0  0  0  0  0  0  0  0  0  0  0  0
  153.2070  138.2829  155.7002 H   0  0  0  0  0  0  0  0  0  0  0  0
  153.5289  137.8881  157.3873 H   0  0  0  0  0  0  0  0  0  0  0  0
  151.6159  136.6775  157.4839 H   0  0  0  0  0  0  0  0  0  0  0  0
  148.6806  138.6459  156.1243 H   0  0  0  0  0  0  0  0  0  0  0  0
  148.2659  139.2162  158.9798 H   0  0  0  0  0  0  0  0  0  0  0  0
  148.4098  133.8164  162.7755 H   0  0  0  0  0  0  0  0  0  0  0  0
  149.8442  131.8456  162.3266 H   0  0  0  0  0  0  0  0  0  0  0  0
  149.0398  130.0278  160.8305 H   0  0  0  0  0  0  0  0  0  0  0  0
  146.7817  130.1773  159.7959 H   0  0  0  0  0  0  0  0  0  0  0  0
  145.3372  132.1411  160.2392 H   0  0  0  0  0  0  0  0  0  0  0  0
  142.3289  137.7655  161.6455 H   0  0  0  0  0  0  0  0  0  0  0  0
  140.4515  137.2748  163.1864 H   0  0  0  0  0  0  0  0  0  0  0  0
  140.1490  134.9802  164.0985 H   0  0  0  0  0  0  0  0  0  0  0  0
  141.7217  133.1657  163.4451 H   0  0  0  0  0  0  0  0  0  0  0  0
  143.6001  133.6422  161.9019 H   0  0  0  0  0  0  0  0  0  0  0  0
  146.9781  133.1873  157.1210 H   0  0  0  0  0  0  0  0  0  0  0  0
  149.4579  135.7111  156.2910 H   0  0  0  0  0  0  0  0  0  0  0  0
  149.3372  136.1984  153.8726 H   0  0  0  0  0  0  0  0  0  0  0  0
  151.5786  136.0486  155.1216 H   0  0  0  0  0  0  0  0  0  0  0  0
  151.1862  141.7208  156.7375 H   0  0  0  0  0  0  0  0  0  0  0  0
  150.8059  144.1354  157.0734 H   0  0  0  0  0  0  0  0  0  0  0  0
  151.6083  145.2575  159.1441 H   0  0  0  0  0  0  0  0  0  0  0  0
  152.8002  143.9415  160.8855 H   0  0  0  0  0  0  0  0  0  0  0  0
  153.1931  141.5343  160.5784 H   0  0  0  0  0  0  0  0  0  0  0  0
  1  2  2  0  0  0  0
  2  3  1  0  0  0  0
  2 38  1  0  0  0  0
  3  4  1  0  0  0  0
  4  5  1  0  0  0  0
  4 44  1  0  0  0  0
  4 45  1  0  0  0  0
  5 36  1  0  0  0  0
  5  6  1  0  0  0  0
  5 46  1  0  0  0  0
  6  7  1  0  0  0  0
  7  8  1  0  0  0  0
  7 34  1  0  0  0  0
  7 47  1  0  0  0  0
  8 33  1  0  0  0  0
  8  9  1  0  0  0  0
  9 10  2  0  0  0  0
  9 48  1  0  0  0  0
 10 11  1  0  0  0  0
 11 33  2  0  0  0  0
 11 12  1  0  0  0  0
 12 13  1  0  0  0  0
 12 30  2  0  0  0  0
 13 14  1  0  0  0  0
 13 22  1  0  0  0  0
 14 15  2  0  0  0  0
 14 16  1  0  0  0  0
 16 21  1  0  0  0  0
 16 17  2  0  0  0  0
 17 18  1  0  0  0  0
 17 49  1  0  0  0  0
 18 19  2  0  0  0  0
 18 50  1  0  0  0  0
 19 20  1  0  0  0  0
 19 51  1  0  0  0  0
 20 21  2  0  0  0  0
 20 52  1  0  0  0  0
 21 53  1  0  0  0  0
 22 23  2  0  0  0  0
 22 24  1  0  0  0  0
 24 29  1  0  0  0  0
 24 25  2  0  0  0  0
 25 26  1  0  0  0  0
 25 54  1  0  0  0  0
 26 27  2  0  0  0  0
 26 55  1  0  0  0  0
 27 28  1  0  0  0  0
 27 56  1  0  0  0  0
 28 29  2  0  0  0  0
 28 57  1  0  0  0  0
 29 58  1  0  0  0  0
 30 31  1  0  0  0  0
 31 32  2  0  0  0  0
 31 59  1  0  0  0  0
 32 33  1  0  0  0  0
 34 35  1  0  0  0  0
 34 36  1  0  0  0  0
 34 60  1  0  0  0  0
 35 61  1  0  0  0  0
 36 37  1  0  0  0  0
 36 62  1  0  0  0  0
 38 43  1  0  0  0  0
 38 39  2  0  0  0  0
 39 40  1  0  0  0  0
 39 63  1  0  0  0  0
 40 41  2  0  0  0  0
 40 64  1  0  0  0  0
 41 42  1  0  0  0  0
 41 65  1  0  0  0  0
 42 43  2  0  0  0  0
 42 66  1  0  0  0  0
 43 67  1  0  0  0  0
M  END
> <s_m_source_file>
AV-unprocessed.smi

> <i_m_source_file_index>
33

> <i_lp_mmshare_version>
43012

> <i_f3d_flags>
0

> <s_epik_input>
W2NIXTFbY0hdW2NIXVtjSF1bY0hdYzFDKD1PKU9bQ0gyXVtDQEBIXTJPW0NASF0oW0NAQEhdKFtPSF0pW0NAQEhdMkYpbihbY0hdbjMpYyhjMzQpbltjSF1uYzROKEMoPU8pYzVbY0hdW2NIXVtjSF1bY0hdW2NIXTUpQyg9TyljNltjSF1bY0hdW2NIXVtjSF1bY0hdNg==

> <s_epik_cmdline>
J2VwaWtfcHl0aG9uJywgJy1waCcsICc3LjAnLCAnLXRuJywgJzgnLCAnLW1hJywgJzIwMCcsICctbWV0YWxfYmluZGluZycsICctaW1hZScsICc8aW5maWxlLm1hZT4nLCAnLW9tYWUnLCAnPG91dGZpbGUubWFlPic=

> <r_lp_tautomer_probability>
1

> <r_epik_Ionization_Penalty>
0.00067664

> <r_epik_Ionization_Penalty_Charging>
0

> <r_epik_Ionization_Penalty_Neutral>
0.00067664

> <r_epik_State_Penalty>
0.000428095

> <r_epik_Charging_Adjusted_Penalty>
0.000428095

> <i_epik_Tot_Q>
0

> <i_epik_Tot_abs_Q>
0

> <r_epik_Metal_State_Penalty>
-0

> <b_epik_Metal_Only>
0

> <s_epik_Chemistry_Notes>
This compound has an ester and may undergo hydrolysis at high or low pH. This compound contains an acetal/aminal-like group ( X-CH(R)-Y where X, Y are N, S, or O) that may be acid/base labile, releasing an aldehyde.

> <s_lp_Force_Field>
OPLS_2005

> <r_lp_Energy>
69.9903

> <b_lp_Chiralities_Consistent>
1

> <s_lp_Variant>
AV-unprocessed.smi:33-12

> <Gold.Version>
5.8.1

> <Gold.Id.Protein>
6NUR|6NUR_protein|mol2

> <Gold.PLP.Fitness>
48.3677

> <Gold.PLP.PLP>
-48.4807

> <Gold.PLP.part.hbond>
-3.1386

> <Gold.PLP.part.metal>
0.0000

> <Gold.PLP.part.buried>
-5.4520

> <Gold.PLP.part.nonpolar>
-39.4423

> <Gold.PLP.part.repulsive>
0.0199

> <Gold.PLP.ligand.clash>
0.1202

> <Gold.PLP.ligand.torsion>
4.3962

> <Gold.PLP.Chemscore.Hbond>
1.3520

> <Gold.PLP.Chemscore.CHOScore>
0.0000

> <Gold.PLP.Chemscore.Metal>
0.0000

> <Gold.Chemscore.Hbonds>
donor molecule, donor type, donor heavy atom, donor atom, acceptor molecule, acceptor atom, score
      L1  H    35    61       P1  7948  0.54
      P1  H  6934  6947       L1    10  0.62

> <Gold.PLP.Chemscore.Internal.Correction>
4.7435

> <Gold.Rescore>
     Score         DG    S(hbond)    S(metal)    S(lipo)     H(rot)  DE(clash)    DE(int)     intcor
      3.26     -19.47       1.03        0.00     145.51       2.52       2.59      13.63       ----

> <Gold.Chemscore.Fitness>
3.2563

> <Gold.Chemscore.DG>
-19.4684

> <Gold.Chemscore.ZeroCoef>
-5.4800

> <Gold.Chemscore.Hbond>
1.0259

> <Gold.Chemscore.Metal>
0.0000

> <Gold.Chemscore.Lipo>
145.5140

> <Gold.Chemscore.Internal_Hbond>
0.0000

> <Gold.Chemscore.DEClash>
2.5852

> <Gold.Chemscore.DEInternal>
13.6268

> <Gold.Chemscore.Rot>
2.5247

> <Gold.Chemscore.Internal.Correction>
   9.000000E+99

> <Gold.Chemscore.Hbonds>
donor molecule, donor type, donor heavy atom, donor atom, acceptor molecule, acceptor atom, score
      L1  H    35    61       P1  7948  0.42
      P1  H  6934  6947       L1    10  0.06

> <Gold.Chemscore.Hbond.Weighted>
-3.4265

> <Gold.Chemscore.Metal.Weighted>
-0.0000

> <Gold.Chemscore.Lipo.Weighted>
-17.0251

> <Gold.Chemscore.Internal_Hbond.Weighted>
0.0000

> <Gold.Chemscore.DEClash.Weighted>
2.5852

> <Gold.Chemscore.DEInternal.Weighted>
13.6268

> <Gold.Chemscore.Rot.Weighted>
6.4633

> <Gold.Chemscore.Internal.Correction.Weighted>
   9.000000E+99

> <Gold.Protein.RotatedTorsions>
[ 6907 6896 6895 6894 ] final  144.87 input  -60.11 | X-H torsion
[ 7974 7965 7964 7962 ] final  -30.01 input  175.53 | X-H torsion
[ 8008 7997 7996 7995 ] final -100.90 input   59.86 | X-H torsion
[ 10167 10162 10161 10158 ] final  166.67 input  -65.29 | X-H torsion
[ 10718 10713 10712 10709 ] final  -71.92 input   66.30 | X-H torsion
[ 10763 10752 10751 10750 ] final  128.07 input  -60.55 | X-H torsion
[ 11005 11000 10999 10996 ] final  103.42 input  -57.11 | X-H torsion

> <Gold.Protein.ActiveResidues>
 VAL166  LYS551  ARG553  GLY616  TRP617  ASP618  TYR619  PRO620  LYS621  CYS622 
 ASP623  PHE694  ASN695  SER759  ASP760  ASP761  ALA762  ILE779  LEU786  VAL792 
 PHE793  MET794  SER795  GLU796  ALA797  LYS798  CYS799  TRP800  GLU811  SER814 

> <Gold.Protein.RotatedAtoms>
  152.1881  133.4754  159.4993 H   0  0  0  0  0  0  0  0  0  0  0  0  # atno 6907 bound_to 6896
  150.6946  134.1747  159.4235 H   0  0  0  0  0  0  0  0  0  0  0  0  # atno 6908 bound_to 6896
  151.9661  135.0099  160.0601 H   0  0  0  0  0  0  0  0  0  0  0  0  # atno 6909 bound_to 6896
  146.1174  140.5486  142.8750 H   0  0  0  0  0  0  0  0  0  0  0  0  # atno 7974 bound_to 7965
  154.8350  140.0438  157.1503 H   0  0  0  0  0  0  0  0  0  0  0  0  # atno 8008 bound_to 7997
  154.9110  140.3013  155.5246 H   0  0  0  0  0  0  0  0  0  0  0  0  # atno 8009 bound_to 7997
  156.2989  140.2358  156.4149 H   0  0  0  0  0  0  0  0  0  0  0  0  # atno 8010 bound_to 7997
  139.4929  144.4003  151.9417 H   0  0  0  0  0  0  0  0  0  0  0  0  # atno 10167 bound_to 10162
  156.0342  130.4361  150.2515 H   0  0  0  0  0  0  0  0  0  0  0  0  # atno 10718 bound_to 10713
  153.7195  135.3255  155.3263 H   0  0  0  0  0  0  0  0  0  0  0  0  # atno 10763 bound_to 10752
  154.8360  135.4496  154.1232 H   0  0  0  0  0  0  0  0  0  0  0  0  # atno 10764 bound_to 10752
  153.2348  135.6964  153.7929 H   0  0  0  0  0  0  0  0  0  0  0  0  # atno 10765 bound_to 10752
  139.8783  134.9262  156.5206 H   0  0  0  0  0  0  0  0  0  0  0  0  # atno 11005 bound_to 11000
  144.7566  140.5322  143.6765 LP  0  0  0  0  0  0  0  0  0  0  0  0  # atno 17320 bound_to 7965
  145.5537  139.1477  143.3380 LP  0  0  0  0  0  0  0  0  0  0  0  0  # atno 17321 bound_to 7965
  140.3442  144.3166  150.5961 LP  0  0  0  0  0  0  0  0  0  0  0  0  # atno 17342 bound_to 10162
  140.5540  143.2202  151.7879 LP  0  0  0  0  0  0  0  0  0  0  0  0  # atno 17343 bound_to 10162
  157.0615  131.0091  151.3221 LP  0  0  0  0  0  0  0  0  0  0  0  0  # atno 17370 bound_to 10713
  157.5066  130.7913  149.7661 LP  0  0  0  0  0  0  0  0  0  0  0  0  # atno 17371 bound_to 10713
  140.8453  133.8173  155.9115 LP  0  0  0  0  0  0  0  0  0  0  0  0  # atno 17394 bound_to 11000
  140.9197  134.2157  157.4934 LP  0  0  0  0  0  0  0  0  0  0  0  0  # atno 17395 bound_to 11000

$$$$
