AV-unprocessed.smi:347|AV-procd|sdf|2394|dock4
  -GOLD-   2262022323D 1   1.00000     0.00000
 Structure written by MMmdl.
 45 46  0  0  0  0  0  0  0  0  2 V2000
  152.9603  143.2779  162.4088 C   0  0  0  0  0  0  0  0  0  0  0  0
  152.8265  142.5793  161.0993 C   0  0  0  0  0  0  0  0  0  0  0  0
  151.7873  142.4373  160.2232 C   0  0  0  0  0  0  0  0  0  0  0  0
  152.3509  141.6512  159.1833 C   0  0  0  0  0  0  0  0  0  0  0  0
  151.5793  141.2789  158.0533 N   0  0  0  0  0  0  0  0  0  0  0  0
  151.9495  140.4830  157.0359 C   0  0  0  0  0  0  0  0  0  0  0  0
  153.0342  139.9089  156.9405 O   0  0  0  0  0  0  0  0  0  0  0  0
  150.9792  140.3898  156.1150 N   0  0  0  0  0  0  0  0  0  0  0  0
  151.0523  139.6193  154.8752 C   0  0  0  0  0  0  0  0  0  0  0  0
  149.7651  139.6770  154.0296 C   0  0  0  0  0  0  0  0  0  0  0  0
  148.5926  138.8104  154.5539 C   0  0  0  0  0  0  0  0  0  0  0  0
  147.8433  139.4828  155.7256 C   0  0  0  0  0  0  0  0  0  0  0  0
  147.5699  138.6544  153.4113 C   0  0  0  0  0  0  0  0  0  0  0  0
  149.0520  137.4382  154.9103 N   0  3  0  0  0  0  0  0  0  0  0  0
  150.3172  137.2491  155.6756 C   0  0  0  0  0  0  0  0  0  0  0  0
  150.0950  137.4333  157.1934 C   0  0  0  0  0  0  0  0  0  0  0  0
  150.7436  135.7824  155.4693 C   0  0  0  0  0  0  0  0  0  0  0  0
  151.4508  138.1568  155.1300 C   0  0  0  0  0  0  0  0  0  0  0  0
  153.6192  141.3418  159.4035 N   0  0  0  0  0  0  0  0  0  0  0  0
  153.9303  141.9339  160.6333 O   0  0  0  0  0  0  0  0  0  0  0  0
  152.1749  144.0235  162.5337 H   0  0  0  0  0  0  0  0  0  0  0  0
  153.9221  143.7856  162.4826 H   0  0  0  0  0  0  0  0  0  0  0  0
  152.8876  142.5685  163.2331 H   0  0  0  0  0  0  0  0  0  0  0  0
  150.7872  142.8336  160.3153 H   0  0  0  0  0  0  0  0  0  0  0  0
  150.6515  141.6730  158.0093 H   0  0  0  0  0  0  0  0  0  0  0  0
  150.1190  140.8897  156.2868 H   0  0  0  0  0  0  0  0  0  0  0  0
  151.8552  140.0697  154.2883 H   0  0  0  0  0  0  0  0  0  0  0  0
  149.4391  140.7082  153.8883 H   0  0  0  0  0  0  0  0  0  0  0  0
  150.0315  139.3275  153.0307 H   0  0  0  0  0  0  0  0  0  0  0  0
  147.3776  140.4146  155.4025 H   0  0  0  0  0  0  0  0  0  0  0  0
  148.4810  139.7426  156.5637 H   0  0  0  0  0  0  0  0  0  0  0  0
  147.0488  138.8409  156.1077 H   0  0  0  0  0  0  0  0  0  0  0  0
  147.1967  139.6230  153.0758 H   0  0  0  0  0  0  0  0  0  0  0  0
  146.7077  138.0630  153.7234 H   0  0  0  0  0  0  0  0  0  0  0  0
  148.0072  138.1567  152.5446 H   0  0  0  0  0  0  0  0  0  0  0  0
  148.3040  136.9547  155.3868 H   0  0  0  0  0  0  0  0  0  0  0  0
  150.9828  137.1372  157.7533 H   0  0  0  0  0  0  0  0  0  0  0  0
  149.2691  136.8166  157.5499 H   0  0  0  0  0  0  0  0  0  0  0  0
  149.8836  138.4564  157.4857 H   0  0  0  0  0  0  0  0  0  0  0  0
  151.6826  135.5642  155.9797 H   0  0  0  0  0  0  0  0  0  0  0  0
  150.8864  135.5506  154.4129 H   0  0  0  0  0  0  0  0  0  0  0  0
  149.9936  135.0897  155.8538 H   0  0  0  0  0  0  0  0  0  0  0  0
  151.7882  137.7513  154.1747 H   0  0  0  0  0  0  0  0  0  0  0  0
  152.3230  138.1118  155.7842 H   0  0  0  0  0  0  0  0  0  0  0  0
  149.2028  136.9711  154.0275 H   0  0  0  0  0  0  0  0  0  0  0  0
  1  2  1  0  0  0  0
  1 21  1  0  0  0  0
  1 22  1  0  0  0  0
  1 23  1  0  0  0  0
  2 20  1  0  0  0  0
  2  3  2  0  0  0  0
  3  4  1  0  0  0  0
  3 24  1  0  0  0  0
  4  5  1  0  0  0  0
  4 19  2  0  0  0  0
  5  6  1  0  0  0  0
  5 25  1  0  0  0  0
  6  7  2  0  0  0  0
  6  8  1  0  0  0  0
  8  9  1  0  0  0  0
  8 26  1  0  0  0  0
  9 18  1  0  0  0  0
  9 10  1  0  0  0  0
  9 27  1  0  0  0  0
 10 11  1  0  0  0  0
 10 28  1  0  0  0  0
 10 29  1  0  0  0  0
 11 12  1  0  0  0  0
 11 13  1  0  0  0  0
 11 14  1  0  0  0  0
 12 30  1  0  0  0  0
 12 31  1  0  0  0  0
 12 32  1  0  0  0  0
 13 33  1  0  0  0  0
 13 34  1  0  0  0  0
 13 35  1  0  0  0  0
 14 15  1  0  0  0  0
 14 36  1  0  0  0  0
 14 45  1  0  0  0  0
 15 16  1  0  0  0  0
 15 17  1  0  0  0  0
 15 18  1  0  0  0  0
 16 37  1  0  0  0  0
 16 38  1  0  0  0  0
 16 39  1  0  0  0  0
 17 40  1  0  0  0  0
 17 41  1  0  0  0  0
 17 42  1  0  0  0  0
 18 43  1  0  0  0  0
 18 44  1  0  0  0  0
 19 20  1  0  0  0  0
M  CHG  1  14   1
M  END
> <s_m_source_file>
AV-unprocessed.smi

> <i_m_source_file_index>
347

> <i_lp_mmshare_version>
43012

> <i_f3d_flags>
0

> <s_epik_input>
W0NIM11jMVtjSF1jKG5vMSlbTkhdQyg9TylbTkhdW0NIXShbQ0gyXUMyKFtDSDNdKVtDSDNdKVtDSDJdQyhbTkhdMikoW0NIM10pW0NIM10=

> <s_epik_cmdline>
J2VwaWtfcHl0aG9uJywgJy1waCcsICc3LjAnLCAnLXRuJywgJzgnLCAnLW1hJywgJzIwMCcsICctbWV0YWxfYmluZGluZycsICctaW1hZScsICc8aW5maWxlLm1hZT4nLCAnLW9tYWUnLCAnPG91dGZpbGUubWFlPic=

> <r_lp_tautomer_probability>
1

> <r_epik_Ionization_Penalty>
0.000125139

> <r_epik_Ionization_Penalty_Charging>
0.000103024

> <r_epik_Ionization_Penalty_Neutral>
2.21147e-05

> <r_epik_State_Penalty>
-0

> <r_epik_Charging_Adjusted_Penalty>
0.000103024

> <i_epik_Tot_Q>
1

> <i_epik_Tot_abs_Q>
1

> <r_epik_Metal_State_Penalty>
-0

> <b_epik_Metal_Only>
0

> <s_lp_Force_Field>
OPLS_2005

> <r_lp_Energy>
23.9758

> <b_lp_Chiralities_Consistent>
1

> <s_lp_Variant>
AV-unprocessed.smi:347-1

> <Gold.Version>
5.8.1

> <Gold.Id.Protein>
6NUR|6NUR_protein|mol2

> <Gold.PLP.Fitness>
38.6513

> <Gold.PLP.PLP>
-29.6929

> <Gold.PLP.part.hbond>
-3.0000

> <Gold.PLP.part.metal>
0.0000

> <Gold.PLP.part.buried>
0.6595

> <Gold.PLP.part.nonpolar>
-27.1698

> <Gold.PLP.part.repulsive>
0.1721

> <Gold.PLP.ligand.clash>
0.0000

> <Gold.PLP.ligand.torsion>
0.0289

> <Gold.PLP.Chemscore.Hbond>
3.0000

> <Gold.PLP.Chemscore.CHOScore>
0.0000

> <Gold.PLP.Chemscore.Metal>
0.0000

> <Gold.Chemscore.Hbonds>
donor molecule, donor type, donor heavy atom, donor atom, acceptor molecule, acceptor atom, score
      L1  H    14    45       P1  7948  0.75
      P1  H  7997  8010       L1     7  0.63

> <Gold.PLP.Chemscore.Internal.Correction>
0.0162

> <Gold.Rescore>
     Score         DG    S(hbond)    S(metal)    S(lipo)     H(rot)  DE(clash)    DE(int)     intcor
     14.52     -18.51       1.91        0.00      78.74       1.00       1.59       2.40       ----

> <Gold.Chemscore.Fitness>
14.5167

> <Gold.Chemscore.DG>
-18.5127

> <Gold.Chemscore.ZeroCoef>
-5.4800

> <Gold.Chemscore.Hbond>
1.9102

> <Gold.Chemscore.Metal>
0.0000

> <Gold.Chemscore.Lipo>
78.7406

> <Gold.Chemscore.Internal_Hbond>
0.0000

> <Gold.Chemscore.DEClash>
1.5913

> <Gold.Chemscore.DEInternal>
2.4046

> <Gold.Chemscore.Rot>
1.0000

> <Gold.Chemscore.Internal.Correction>
   9.000000E+99

> <Gold.Chemscore.Hbonds>
donor molecule, donor type, donor heavy atom, donor atom, acceptor molecule, acceptor atom, score
      L1  H    14    45       P1  7948  0.37
      P1  H  7997  8010       L1     7  0.65

> <Gold.Chemscore.Hbond.Weighted>
-6.3800

> <Gold.Chemscore.Metal.Weighted>
-0.0000

> <Gold.Chemscore.Lipo.Weighted>
-9.2126

> <Gold.Chemscore.Internal_Hbond.Weighted>
0.0000

> <Gold.Chemscore.DEClash.Weighted>
1.5913

> <Gold.Chemscore.DEInternal.Weighted>
2.4046

> <Gold.Chemscore.Rot.Weighted>
2.5600

> <Gold.Chemscore.Internal.Correction.Weighted>
   9.000000E+99

> <Gold.Protein.RotatedTorsions>
[ 6907 6896 6895 6894 ] final   28.98 input  -60.11 | X-H torsion
[ 7974 7965 7964 7962 ] final -172.54 input  175.53 | X-H torsion
[ 8008 7997 7996 7995 ] final   57.73 input   59.86 | X-H torsion
[ 10167 10162 10161 10158 ] final -129.31 input  -65.29 | X-H torsion
[ 10718 10713 10712 10709 ] final -117.80 input   66.30 | X-H torsion
[ 10763 10752 10751 10750 ] final -157.57 input  -60.55 | X-H torsion
[ 11005 11000 10999 10996 ] final   26.58 input  -57.11 | X-H torsion

> <Gold.Protein.ActiveResidues>
 VAL166  LYS551  ARG553  GLY616  TRP617  ASP618  TYR619  PRO620  LYS621  CYS622 
 ASP623  PHE694  ASN695  SER759  ASP760  ASP761  ALA762  ILE779  LEU786  VAL792 
 PHE793  MET794  SER795  GLU796  ALA797  LYS798  CYS799  TRP800  GLU811  SER814 

> <Gold.Protein.RotatedAtoms>
  152.0248  134.9802  160.0571 H   0  0  0  0  0  0  0  0  0  0  0  0  # atno 6907 bound_to 6896
  152.1302  133.4398  159.4725 H   0  0  0  0  0  0  0  0  0  0  0  0  # atno 6908 bound_to 6896
  150.6855  134.2348  159.4492 H   0  0  0  0  0  0  0  0  0  0  0  0  # atno 6909 bound_to 6896
  144.7145  140.1756  143.6363 H   0  0  0  0  0  0  0  0  0  0  0  0  # atno 7974 bound_to 7965
  155.5385  140.3484  155.4441 H   0  0  0  0  0  0  0  0  0  0  0  0  # atno 8008 bound_to 7997
  156.0668  140.1353  156.9903 H   0  0  0  0  0  0  0  0  0  0  0  0  # atno 8009 bound_to 7997
  154.4507  140.0974  156.6584 H   0  0  0  0  0  0  0  0  0  0  0  0  # atno 8010 bound_to 7997
  139.9411  143.6162  152.2503 H   0  0  0  0  0  0  0  0  0  0  0  0  # atno 10167 bound_to 10162
  156.1060  130.6210  150.9210 H   0  0  0  0  0  0  0  0  0  0  0  0  # atno 10718 bound_to 10713
  154.7626  135.3122  154.8349 H   0  0  0  0  0  0  0  0  0  0  0  0  # atno 10763 bound_to 10752
  153.9106  135.6806  153.4755 H   0  0  0  0  0  0  0  0  0  0  0  0  # atno 10764 bound_to 10752
  153.1228  135.4815  154.9155 H   0  0  0  0  0  0  0  0  0  0  0  0  # atno 10765 bound_to 10752
  140.3355  134.2391  155.7696 H   0  0  0  0  0  0  0  0  0  0  0  0  # atno 11005 bound_to 11000
  145.8903  139.2372  143.1553 LP  0  0  0  0  0  0  0  0  0  0  0  0  # atno 17320 bound_to 7965
  145.9909  140.8603  143.0067 LP  0  0  0  0  0  0  0  0  0  0  0  0  # atno 17321 bound_to 7965
  139.6704  144.7661  151.1794 LP  0  0  0  0  0  0  0  0  0  0  0  0  # atno 17342 bound_to 10162
  140.7610  143.5874  150.8832 LP  0  0  0  0  0  0  0  0  0  0  0  0  # atno 17343 bound_to 10162
  157.6236  131.0927  150.8575 LP  0  0  0  0  0  0  0  0  0  0  0  0  # atno 17370 bound_to 10713
  156.8694  130.5141  149.5298 LP  0  0  0  0  0  0  0  0  0  0  0  0  # atno 17371 bound_to 10713
  141.2052  133.7865  157.0244 LP  0  0  0  0  0  0  0  0  0  0  0  0  # atno 17394 bound_to 11000
  140.0825  134.9640  157.1647 LP  0  0  0  0  0  0  0  0  0  0  0  0  # atno 17395 bound_to 11000

$$$$
