AV-unprocessed.smi:160|AV-procd|sdf|1352|dock10
  -GOLD-   2262019 53D 1   1.00000     0.00000
 Structure written by MMmdl.
 29 30  0  0  0  0  0  0  0  0  1 V2000
  138.7910  136.8264  152.8204 N   0  0  0  0  0  0  0  0  0  0  0  0
  139.8408  136.9663  153.6365 C   0  0  0  0  0  0  0  0  0  0  0  0
  139.8611  137.7931  154.5469 O   0  0  0  0  0  0  0  0  0  0  0  0
  141.0046  136.0472  153.3857 C   0  0  0  0  0  0  0  0  0  0  0  0
  140.9456  134.7259  153.7255 N   0  0  0  0  0  0  0  0  0  0  0  0
  142.1572  134.3551  153.3319 C   0  0  0  0  0  0  0  0  0  0  0  0
  142.8828  135.3399  152.7877 N   0  0  0  0  0  0  0  0  0  0  0  0
  144.2890  135.3621  152.2683 C   0  0  1  0  0  0  0  0  0  0  0  0
  144.8598  134.1090  152.4795 O   0  0  0  0  0  0  0  0  0  0  0  0
  144.5740  133.2745  151.3649 C   0  0  2  0  0  0  0  0  0  0  0  0
  145.5543  132.0924  151.3289 C   0  0  0  0  0  0  0  0  0  0  0  0
  146.8817  132.5649  151.2424 O   0  0  0  0  0  0  0  0  0  0  0  0
  144.7360  134.2400  150.1846 C   0  0  1  0  0  0  0  0  0  0  0  0
  143.8906  133.8512  149.1207 O   0  0  0  0  0  0  0  0  0  0  0  0
  144.3040  135.5965  150.7458 C   0  0  2  0  0  0  0  0  0  0  0  0
  145.2315  136.6006  150.3874 O   0  0  0  0  0  0  0  0  0  0  0  0
  142.1430  136.4757  152.8369 N   0  0  0  0  0  0  0  0  0  0  0  0
  144.7801  136.1374  152.8582 H   0  0  0  0  0  0  0  0  0  0  0  0
  143.5413  132.9240  151.4219 H   0  0  0  0  0  0  0  0  0  0  0  0
  145.7757  134.2649  149.8535 H   0  0  0  0  0  0  0  0  0  0  0  0
  143.3129  135.8878  150.3945 H   0  0  0  0  0  0  0  0  0  0  0  0
  137.9789  137.4139  152.9394 H   0  0  0  0  0  0  0  0  0  0  0  0
  138.8182  136.1305  152.0893 H   0  0  0  0  0  0  0  0  0  0  0  0
  142.5216  133.3445  153.4458 H   0  0  0  0  0  0  0  0  0  0  0  0
  145.4739  131.5123  152.2486 H   0  0  0  0  0  0  0  0  0  0  0  0
  145.3350  131.4186  150.4999 H   0  0  0  0  0  0  0  0  0  0  0  0
  147.3985  131.9255  150.7762 H   0  0  0  0  0  0  0  0  0  0  0  0
  143.0059  134.1053  149.3347 H   0  0  0  0  0  0  0  0  0  0  0  0
  144.7569  137.3996  150.2158 H   0  0  0  0  0  0  0  0  0  0  0  0
  1  2  1  0  0  0  0
  1 22  1  0  0  0  0
  1 23  1  0  0  0  0
  2  3  2  0  0  0  0
  2  4  1  0  0  0  0
  4 17  2  0  0  0  0
  4  5  1  0  0  0  0
  5  6  2  0  0  0  0
  6  7  1  0  0  0  0
  6 24  1  0  0  0  0
  7  8  1  0  0  0  0
  7 17  1  0  0  0  0
  8 18  1  0  0  0  0
  8 15  1  0  0  0  0
  8  9  1  0  0  0  0
  9 10  1  0  0  0  0
 10 19  1  0  0  0  0
 10 11  1  0  0  0  0
 10 13  1  0  0  0  0
 11 12  1  0  0  0  0
 11 25  1  0  0  0  0
 11 26  1  0  0  0  0
 12 27  1  0  0  0  0
 13 20  1  0  0  0  0
 13 14  1  0  0  0  0
 13 15  1  0  0  0  0
 14 28  1  0  0  0  0
 15 21  1  0  0  0  0
 15 16  1  0  0  0  0
 16 29  1  0  0  0  0
M  END
> <s_m_source_file>
AV-unprocessed.smi

> <i_m_source_file_index>
160

> <i_lp_mmshare_version>
43012

> <i_f3d_flags>
0

> <s_epik_input>
W05IMl1DKD1PKWMxbltjSF1uKG4xKVtDQEBIXTJPW0NASF0oW0NIMl1bT0hdKVtDQEBIXShbT0hdKVtDQEhdMltPSF0=

> <s_epik_cmdline>
J2VwaWtfcHl0aG9uJywgJy1waCcsICc3LjAnLCAnLXRuJywgJzgnLCAnLW1hJywgJzIwMCcsICctbWV0YWxfYmluZGluZycsICctaW1hZScsICc8aW5maWxlLm1hZT4nLCAnLW9tYWUnLCAnPG91dGZpbGUubWFlPic=

> <r_lp_tautomer_probability>
1

> <r_epik_Ionization_Penalty>
1.06932e-05

> <r_epik_Ionization_Penalty_Charging>
0

> <r_epik_Ionization_Penalty_Neutral>
1.06932e-05

> <r_epik_State_Penalty>
-0

> <r_epik_Charging_Adjusted_Penalty>
0

> <i_epik_Tot_Q>
0

> <i_epik_Tot_abs_Q>
0

> <r_epik_Metal_State_Penalty>
0.0142097

> <b_epik_Metal_Only>
0

> <s_epik_Chemistry_Notes>
This compound contains an acetal/aminal-like group ( X-CH(R)-Y where X, Y are N, S, or O) that may be acid/base labile, releasing an aldehyde.

> <s_lp_Force_Field>
OPLS_2005

> <r_lp_Energy>
33.6029

> <b_lp_Chiralities_Consistent>
1

> <s_lp_Variant>
AV-unprocessed.smi:160-10

> <Gold.Version>
5.8.1

> <Gold.Id.Protein>
6NUR|6NUR_protein|mol2

> <Gold.PLP.Fitness>
42.1630

> <Gold.PLP.PLP>
-27.2374

> <Gold.PLP.part.hbond>
-6.1031

> <Gold.PLP.part.metal>
0.0000

> <Gold.PLP.part.buried>
-3.5028

> <Gold.PLP.part.nonpolar>
-17.5592

> <Gold.PLP.part.repulsive>
0.5488

> <Gold.PLP.ligand.clash>
0.0000

> <Gold.PLP.ligand.torsion>
1.4870

> <Gold.PLP.Chemscore.Hbond>
4.9750

> <Gold.PLP.Chemscore.CHOScore>
0.9770

> <Gold.PLP.Chemscore.Metal>
0.0000

> <Gold.Chemscore.Hbonds>
donor molecule, donor type, donor heavy atom, donor atom, acceptor molecule, acceptor atom, score
      L1  H     1    23       P1 10187  1.00
      L1  H    12    27       P1 10747  1.00
      L1  H    14    28       P1 10186  1.00
      L1  H    16    29       P1 10171  0.99
      P1  H 11000 11005       L1     5  0.67
      L1  C     6    24       P1 10957  1.00

> <Gold.PLP.Chemscore.Internal.Correction>
0.0437

> <Gold.Rescore>
     Score         DG    S(hbond)    S(metal)    S(lipo)     H(rot)  DE(clash)    DE(int)     intcor
     12.31     -14.10       4.83        0.00      24.72       4.06       0.26       1.53       ----

> <Gold.Chemscore.Fitness>
12.3137

> <Gold.Chemscore.DG>
-14.0985

> <Gold.Chemscore.ZeroCoef>
-5.4800

> <Gold.Chemscore.Hbond>
4.8263

> <Gold.Chemscore.Metal>
0.0000

> <Gold.Chemscore.Lipo>
24.7205

> <Gold.Chemscore.Internal_Hbond>
0.0000

> <Gold.Chemscore.DEClash>
0.2566

> <Gold.Chemscore.DEInternal>
1.5283

> <Gold.Chemscore.Rot>
4.0600

> <Gold.Chemscore.Internal.Correction>
   9.000000E+99

> <Gold.Chemscore.Hbonds>
donor molecule, donor type, donor heavy atom, donor atom, acceptor molecule, acceptor atom, score
      L1  H     1    23       P1 10187  0.99
      L1  H    12    27       P1 10747  0.98
      L1  H    14    28       P1 10186  0.93
      L1  H    16    29       P1 10171  0.92
      P1  H 11000 11005       L1     5  0.45

> <Gold.Chemscore.Hbond.Weighted>
-16.1198

> <Gold.Chemscore.Metal.Weighted>
-0.0000

> <Gold.Chemscore.Lipo.Weighted>
-2.8923

> <Gold.Chemscore.Internal_Hbond.Weighted>
0.0000

> <Gold.Chemscore.DEClash.Weighted>
0.2566

> <Gold.Chemscore.DEInternal.Weighted>
1.5283

> <Gold.Chemscore.Rot.Weighted>
10.3936

> <Gold.Chemscore.Internal.Correction.Weighted>
   9.000000E+99

> <Gold.Protein.RotatedTorsions>
[ 6907 6896 6895 6894 ] final -177.65 input  -60.11 | X-H torsion
[ 7974 7965 7964 7962 ] final   10.73 input  175.53 | X-H torsion
[ 8008 7997 7996 7995 ] final  -67.99 input   59.86 | X-H torsion
[ 10167 10162 10161 10158 ] final  -90.60 input  -65.29 | X-H torsion
[ 10718 10713 10712 10709 ] final -171.84 input   66.30 | X-H torsion
[ 10763 10752 10751 10750 ] final  137.21 input  -60.55 | X-H torsion
[ 11005 11000 10999 10996 ] final    4.18 input  -57.11 | X-H torsion

> <Gold.Protein.ActiveResidues>
 VAL166  LYS551  ARG553  GLY616  TRP617  ASP618  TYR619  PRO620  LYS621  CYS622 
 ASP623  PHE694  ASN695  SER759  ASP760  ASP761  ALA762  ILE779  LEU786  VAL792 
 PHE793  MET794  SER795  GLU796  ALA797  LYS798  CYS799  TRP800  GLU811  SER814 

> <Gold.Protein.RotatedAtoms>
  151.6244  133.3336  159.3094 H   0  0  0  0  0  0  0  0  0  0  0  0  # atno 6907 bound_to 6896
  150.8089  134.7235  159.6681 H   0  0  0  0  0  0  0  0  0  0  0  0  # atno 6908 bound_to 6896
  152.4185  134.6002  160.0049 H   0  0  0  0  0  0  0  0  0  0  0  0  # atno 6909 bound_to 6896
  146.2383  139.9591  142.8461 H   0  0  0  0  0  0  0  0  0  0  0  0  # atno 7974 bound_to 7965
  154.4837  140.0882  156.7437 H   0  0  0  0  0  0  0  0  0  0  0  0  # atno 8008 bound_to 7997
  155.4405  140.3453  155.4271 H   0  0  0  0  0  0  0  0  0  0  0  0  # atno 8009 bound_to 7997
  156.1229  140.1479  156.9166 H   0  0  0  0  0  0  0  0  0  0  0  0  # atno 8010 bound_to 7997
  140.3533  143.2880  151.9701 H   0  0  0  0  0  0  0  0  0  0  0  0  # atno 10167 bound_to 10162
  156.7467  130.9363  151.3113 H   0  0  0  0  0  0  0  0  0  0  0  0  # atno 10718 bound_to 10713
  153.8694  135.3057  155.3441 H   0  0  0  0  0  0  0  0  0  0  0  0  # atno 10763 bound_to 10752
  154.7813  135.4834  153.9853 H   0  0  0  0  0  0  0  0  0  0  0  0  # atno 10764 bound_to 10752
  153.1415  135.6825  153.9115 H   0  0  0  0  0  0  0  0  0  0  0  0  # atno 10765 bound_to 10752
  140.5848  133.9979  155.8063 H   0  0  0  0  0  0  0  0  0  0  0  0  # atno 11005 bound_to 11000
  145.1788  140.9757  143.4278 LP  0  0  0  0  0  0  0  0  0  0  0  0  # atno 17320 bound_to 7965
  144.9961  139.3642  143.6190 LP  0  0  0  0  0  0  0  0  0  0  0  0  # atno 17321 bound_to 7965
  139.4823  144.6057  151.7525 LP  0  0  0  0  0  0  0  0  0  0  0  0  # atno 17342 bound_to 10162
  140.5198  144.0896  150.6019 LP  0  0  0  0  0  0  0  0  0  0  0  0  # atno 17343 bound_to 10162
  157.6795  130.9126  150.0231 LP  0  0  0  0  0  0  0  0  0  0  0  0  # atno 17370 bound_to 10713
  156.1428  130.3642  149.9556 LP  0  0  0  0  0  0  0  0  0  0  0  0  # atno 17371 bound_to 10713
  141.0973  133.9824  157.3139 LP  0  0  0  0  0  0  0  0  0  0  0  0  # atno 17394 bound_to 11000
  139.9300  135.0200  156.8369 LP  0  0  0  0  0  0  0  0  0  0  0  0  # atno 17395 bound_to 11000

$$$$
