AV-unprocessed.smi:2030|AV-procd|sdf|8227|dock6
  -GOLD-   2272010493D 1   1.00000     0.00000
 Structure written by MMmdl.
 35 36  0  0  0  0  0  0  0  0  3 V2000
  147.1586  151.0876  160.8199 C   0  0  0  0  0  0  0  0  0  0  0  0
  146.7388  150.0690  159.8581 N   0  0  0  0  0  0  0  0  0  0  0  0
  146.7841  148.7852  160.3606 N   0  0  0  0  0  0  0  0  0  0  0  0
  146.2382  147.7789  159.7509 C   0  0  0  0  0  0  0  0  0  0  0  0
  146.2951  146.4220  160.3719 C   0  0  0  0  0  0  0  0  0  0  0  0
  145.5769  145.5673  159.8392 O   0  0  0  0  0  0  0  0  0  0  0  0
  147.1037  146.2335  161.4573 N   0  5  0  0  0  0  0  0  0  0  0  0
  148.0975  145.1690  161.5950 C   0  0  0  0  0  0  0  0  0  0  0  0
  148.4018  144.5530  160.2119 C   0  0  0  0  0  0  0  0  0  0  0  0
  149.8865  144.4504  159.8757 C   0  0  0  0  0  0  0  0  0  0  0  0
  150.8149  143.8562  160.7610 C   0  0  0  0  0  0  0  0  0  0  0  0
  152.1736  143.7813  160.3921 C   0  0  0  0  0  0  0  0  0  0  0  0
  152.5814  144.3083  159.1493 C   0  0  0  0  0  0  0  0  0  0  0  0
  151.6178  144.8972  158.3057 C   0  0  0  0  0  0  0  0  0  0  0  0
  150.3250  144.9486  158.6940 N   0  3  0  0  0  0  0  0  0  0  0  0
  145.5087  147.9857  158.4361 C   0  0  0  0  0  0  0  0  0  0  0  0
  146.0380  149.2106  157.6660 C   0  0  0  0  0  0  0  0  0  0  0  0
  146.3577  150.3854  158.5941 C   0  0  0  0  0  0  0  0  0  0  0  0
  146.2806  151.5358  158.1626 O   0  0  0  0  0  0  0  0  0  0  0  0
  147.2120  152.0935  160.4017 H   0  0  0  0  0  0  0  0  0  0  0  0
  148.1475  150.8485  161.2129 H   0  0  0  0  0  0  0  0  0  0  0  0
  146.4629  151.1160  161.6593 H   0  0  0  0  0  0  0  0  0  0  0  0
  149.0306  145.5312  162.0289 H   0  0  0  0  0  0  0  0  0  0  0  0
  147.7447  144.3810  162.2606 H   0  0  0  0  0  0  0  0  0  0  0  0
  147.9698  143.5528  160.1640 H   0  0  0  0  0  0  0  0  0  0  0  0
  147.9010  145.1297  159.4330 H   0  0  0  0  0  0  0  0  0  0  0  0
  150.4840  143.4483  161.7052 H   0  0  0  0  0  0  0  0  0  0  0  0
  152.8932  143.3227  161.0542 H   0  0  0  0  0  0  0  0  0  0  0  0
  153.6171  144.2587  158.8469 H   0  0  0  0  0  0  0  0  0  0  0  0
  151.8388  145.3225  157.3377 H   0  0  0  0  0  0  0  0  0  0  0  0
  145.6136  147.1110  157.7933 H   0  0  0  0  0  0  0  0  0  0  0  0
  144.4418  148.0998  158.6308 H   0  0  0  0  0  0  0  0  0  0  0  0
  146.9591  148.9453  157.1459 H   0  0  0  0  0  0  0  0  0  0  0  0
  145.3224  149.5170  156.9024 H   0  0  0  0  0  0  0  0  0  0  0  0
  149.6430  145.3725  158.0649 H   0  0  0  0  0  0  0  0  0  0  0  0
  1  2  1  0  0  0  0
  1 20  1  0  0  0  0
  1 21  1  0  0  0  0
  1 22  1  0  0  0  0
  2 18  1  0  0  0  0
  2  3  1  0  0  0  0
  3  4  2  0  0  0  0
  4  5  1  0  0  0  0
  4 16  1  0  0  0  0
  5  6  2  0  0  0  0
  5  7  1  0  0  0  0
  7  8  1  0  0  0  0
  8  9  1  0  0  0  0
  8 23  1  0  0  0  0
  8 24  1  0  0  0  0
  9 10  1  0  0  0  0
  9 25  1  0  0  0  0
  9 26  1  0  0  0  0
 10 15  1  0  0  0  0
 10 11  2  0  0  0  0
 11 12  1  0  0  0  0
 11 27  1  0  0  0  0
 12 13  2  0  0  0  0
 12 28  1  0  0  0  0
 13 14  1  0  0  0  0
 13 29  1  0  0  0  0
 14 15  2  0  0  0  0
 14 30  1  0  0  0  0
 15 35  1  0  0  0  0
 16 17  1  0  0  0  0
 16 31  1  0  0  0  0
 16 32  1  0  0  0  0
 17 18  1  0  0  0  0
 17 33  1  0  0  0  0
 17 34  1  0  0  0  0
 18 19  2  0  0  0  0
M  CHG  1   7  -1
M  CHG  1  15   1
M  END
> <s_m_source_file>
AV-unprocessed.smi

> <i_m_source_file_index>
2030

> <i_lp_mmshare_version>
43012

> <i_f3d_flags>
0

> <s_epik_input>
Tz1DMVtDSDJdW0NIMl1DKD1OTjFbQ0gzXSlDKD1PKVtOSF1bQ0gyXVtDSDJdYzJbY0hdW2NIXVtjSF1bY0hdbjI=

> <s_epik_cmdline>
J2VwaWtfcHl0aG9uJywgJy1waCcsICc3LjAnLCAnLXRuJywgJzgnLCAnLW1hJywgJzIwMCcsICctbWV0YWxfYmluZGluZycsICctaW1hZScsICc8aW5maWxlLm1hZT4nLCAnLW9tYWUnLCAnPG91dGZpbGUubWFlPic=

> <r_epik_Ionization_Penalty>
6.31213

> <r_epik_Ionization_Penalty_Charging>
6.31213

> <r_epik_Ionization_Penalty_Neutral>
3.33061e-09

> <r_epik_State_Penalty>
7.27833

> <r_epik_Charging_Adjusted_Penalty>
13.5905

> <i_epik_Tot_Q>
0

> <i_epik_Tot_abs_Q>
2

> <r_epik_Metal_State_Penalty>
3.36613

> <b_epik_Metal_Only>
1

> <s_epik_Chemistry_Notes>
This compound has an imine and may undergo hydrolysis.

> <s_lp_Force_Field>
OPLS_2005

> <r_lp_Energy>
24.6461

> <b_lp_Chiralities_Consistent>
1

> <s_lp_Variant>
AV-unprocessed.smi:2030-4

> <Gold.Version>
5.8.1

> <Gold.Id.Protein>
6NUR|6NUR_protein|mol2

> <Gold.PLP.Fitness>
52.8312

> <Gold.PLP.PLP>
-48.8542

> <Gold.PLP.part.hbond>
-5.3821

> <Gold.PLP.part.metal>
0.0000

> <Gold.PLP.part.buried>
-10.3625

> <Gold.PLP.part.nonpolar>
-37.4708

> <Gold.PLP.part.repulsive>
0.7710

> <Gold.PLP.ligand.clash>
0.0000

> <Gold.PLP.ligand.torsion>
1.0339

> <Gold.PLP.Chemscore.Hbond>
2.0000

> <Gold.PLP.Chemscore.CHOScore>
0.0000

> <Gold.PLP.Chemscore.Metal>
0.0000

> <Gold.Chemscore.Hbonds>
donor molecule, donor type, donor heavy atom, donor atom, acceptor molecule, acceptor atom, score
      L1  H    15    35       P1  8029  2.00

> <Gold.PLP.Chemscore.Internal.Correction>
0.0447

> <Gold.Rescore>
     Score         DG    S(hbond)    S(metal)    S(lipo)     H(rot)  DE(clash)    DE(int)     intcor
     10.36     -14.59       0.38        0.00      99.50       1.49       2.42       1.81       ----

> <Gold.Chemscore.Fitness>
10.3570

> <Gold.Chemscore.DG>
-14.5906

> <Gold.Chemscore.ZeroCoef>
-5.4800

> <Gold.Chemscore.Hbond>
0.3809

> <Gold.Chemscore.Metal>
0.0000

> <Gold.Chemscore.Lipo>
99.4950

> <Gold.Chemscore.Internal_Hbond>
0.0000

> <Gold.Chemscore.DEClash>
2.4231

> <Gold.Chemscore.DEInternal>
1.8105

> <Gold.Chemscore.Rot>
1.4854

> <Gold.Chemscore.Internal.Correction>
   9.000000E+99

> <Gold.Chemscore.Hbonds>
donor molecule, donor type, donor heavy atom, donor atom, acceptor molecule, acceptor atom, score
      L1  H    15    35       P1  8029  0.29

> <Gold.Chemscore.Hbond.Weighted>
-1.2723

> <Gold.Chemscore.Metal.Weighted>
-0.0000

> <Gold.Chemscore.Lipo.Weighted>
-11.6409

> <Gold.Chemscore.Internal_Hbond.Weighted>
0.0000

> <Gold.Chemscore.DEClash.Weighted>
2.4231

> <Gold.Chemscore.DEInternal.Weighted>
1.8105

> <Gold.Chemscore.Rot.Weighted>
3.8026

> <Gold.Chemscore.Internal.Correction.Weighted>
   9.000000E+99

> <Gold.Protein.RotatedTorsions>
[ 6907 6896 6895 6894 ] final  -52.88 input  -60.11 | X-H torsion
[ 7974 7965 7964 7962 ] final  -44.13 input  175.53 | X-H torsion
[ 8008 7997 7996 7995 ] final -171.87 input   59.86 | X-H torsion
[ 10167 10162 10161 10158 ] final  106.48 input  -65.29 | X-H torsion
[ 10718 10713 10712 10709 ] final  -56.29 input   66.30 | X-H torsion
[ 10763 10752 10751 10750 ] final  145.81 input  -60.55 | X-H torsion
[ 11005 11000 10999 10996 ] final   45.25 input  -57.11 | X-H torsion

> <Gold.Protein.ActiveResidues>
 VAL166  LYS551  ARG553  GLY616  TRP617  ASP618  TYR619  PRO620  LYS621  CYS622 
 ASP623  PHE694  ASN695  SER759  ASP760  ASP761  ALA762  ILE779  LEU786  VAL792 
 PHE793  MET794  SER795  GLU796  ALA797  LYS798  CYS799  TRP800  GLU811  SER814 

> <Gold.Protein.RotatedAtoms>
  150.8478  134.7792  159.6983 H   0  0  0  0  0  0  0  0  0  0  0  0  # atno 6907 bound_to 6896
  152.4550  134.5308  159.9820 H   0  0  0  0  0  0  0  0  0  0  0  0  # atno 6908 bound_to 6896
  151.5435  133.3391  159.2975 H   0  0  0  0  0  0  0  0  0  0  0  0  # atno 6909 bound_to 6896
  145.9951  140.7137  142.9298 H   0  0  0  0  0  0  0  0  0  0  0  0  # atno 7974 bound_to 7965
  155.9372  140.1102  157.1085 H   0  0  0  0  0  0  0  0  0  0  0  0  # atno 8008 bound_to 7997
  154.4082  140.1226  156.4945 H   0  0  0  0  0  0  0  0  0  0  0  0  # atno 8009 bound_to 7997
  155.7007  140.3472  155.4934 H   0  0  0  0  0  0  0  0  0  0  0  0  # atno 8010 bound_to 7997
  139.7005  144.7095  151.1193 H   0  0  0  0  0  0  0  0  0  0  0  0  # atno 10167 bound_to 10162
  156.1300  130.4160  150.0286 H   0  0  0  0  0  0  0  0  0  0  0  0  # atno 10718 bound_to 10713
  154.0116  135.2914  155.3391 H   0  0  0  0  0  0  0  0  0  0  0  0  # atno 10763 bound_to 10752
  154.7100  135.5153  153.8655 H   0  0  0  0  0  0  0  0  0  0  0  0  # atno 10764 bound_to 10752
  153.0721  135.6651  154.0347 H   0  0  0  0  0  0  0  0  0  0  0  0  # atno 10765 bound_to 10752
  140.1477  134.4502  155.8404 H   0  0  0  0  0  0  0  0  0  0  0  0  # atno 11005 bound_to 11000
  144.6901  140.3137  143.7244 LP  0  0  0  0  0  0  0  0  0  0  0  0  # atno 17320 bound_to 7965
  145.7572  139.1812  143.2288 LP  0  0  0  0  0  0  0  0  0  0  0  0  # atno 17321 bound_to 7965
  140.7708  143.5430  150.9291 LP  0  0  0  0  0  0  0  0  0  0  0  0  # atno 17342 bound_to 10162
  139.9111  143.6719  152.3115 LP  0  0  0  0  0  0  0  0  0  0  0  0  # atno 17343 bound_to 10162
  156.8201  130.9355  151.3641 LP  0  0  0  0  0  0  0  0  0  0  0  0  # atno 17370 bound_to 10713
  157.6479  130.8859  149.9574 LP  0  0  0  0  0  0  0  0  0  0  0  0  # atno 17371 bound_to 10713
  141.2195  133.6859  156.7363 LP  0  0  0  0  0  0  0  0  0  0  0  0  # atno 17394 bound_to 11000
  140.2644  134.8442  157.3788 LP  0  0  0  0  0  0  0  0  0  0  0  0  # atno 17395 bound_to 11000

$$$$
