AV-unprocessed.smi:37|AV-procd|sdf|322|dock1
  -GOLD-   2262016143D 1   1.00000     0.00000
 Structure written by MMmdl.
 43 44  0  0  0  0  0  0  0  0  2 V2000
  147.4801  133.0152  152.9358 C   0  0  0  0  0  0  0  0  0  0  0  0
  148.9483  133.1701  153.3594 C   0  0  0  0  0  0  0  0  0  0  0  0
  149.1234  133.6586  154.7988 C   0  0  0  0  0  0  0  0  0  0  0  0
  150.2306  133.9056  155.2801 O   0  0  0  0  0  0  0  0  0  0  0  0
  147.9440  133.7624  155.4367 O   0  0  0  0  0  0  0  0  0  0  0  0
  147.8542  134.3609  156.7256 C   0  0  0  0  0  0  0  0  0  0  0  0
  148.6115  135.7010  156.7629 C   0  0  1  0  0  0  0  0  0  0  0  0
  148.1516  136.5366  155.7045 O   0  0  0  0  0  0  0  0  0  0  0  0
  148.2858  137.8712  156.0813 C   0  0  2  0  0  0  0  0  0  0  0  0
  149.7022  138.3276  155.7480 N   0  0  0  0  0  0  0  0  0  0  0  0
  150.8364  137.7607  156.3134 C   0  0  0  0  0  0  0  0  0  0  0  0
  152.0746  138.1653  155.9643 C   0  0  0  0  0  0  0  0  0  0  0  0
  153.1497  137.5957  156.5358 F   0  0  0  0  0  0  0  0  0  0  0  0
  152.2380  139.2186  154.9663 C   0  0  0  0  0  0  0  0  0  0  0  0
  153.3701  139.5849  154.6547 O   0  0  0  0  0  0  0  0  0  0  0  0
  151.1107  139.7544  154.4179 N   0  5  0  0  0  0  0  0  0  0  0  0
  149.8549  139.3474  154.7661 C   0  0  0  0  0  0  0  0  0  0  0  0
  148.8362  139.8264  154.2676 O   0  0  0  0  0  0  0  0  0  0  0  0
  147.9333  137.8807  157.5723 C   0  0  1  0  0  0  0  0  0  0  0  0
  145.9420  137.9005  157.7225 Br  0  0  0  0  0  0  0  0  0  0  0  0
  148.5021  136.5409  158.0541 C   0  0  1  0  0  0  0  0  0  0  0  0
  147.7221  135.9392  159.0803 O   0  0  0  0  0  0  0  0  0  0  0  0
  147.9713  136.1993  160.3751 C   0  0  0  0  0  0  0  0  0  0  0  0
  148.6473  137.1317  160.8099 O   0  0  0  0  0  0  0  0  0  0  0  0
  147.3068  135.1911  161.3088 C   0  0  0  0  0  0  0  0  0  0  0  0
  147.5133  135.5520  162.7859 C   0  0  0  0  0  0  0  0  0  0  0  0
  147.4137  132.6696  151.9042 H   0  0  0  0  0  0  0  0  0  0  0  0
  146.9443  133.9630  153.0005 H   0  0  0  0  0  0  0  0  0  0  0  0
  146.9597  132.2885  153.5608 H   0  0  0  0  0  0  0  0  0  0  0  0
  149.4641  132.2156  153.2532 H   0  0  0  0  0  0  0  0  0  0  0  0
  149.4486  133.8734  152.6934 H   0  0  0  0  0  0  0  0  0  0  0  0
  146.8211  134.5223  157.0353 H   0  0  0  0  0  0  0  0  0  0  0  0
  148.2911  133.6719  157.4489 H   0  0  0  0  0  0  0  0  0  0  0  0
  149.6686  135.5006  156.5830 H   0  0  0  0  0  0  0  0  0  0  0  0
  147.6408  138.5318  155.4994 H   0  0  0  0  0  0  0  0  0  0  0  0
  150.7642  136.9818  157.0539 H   0  0  0  0  0  0  0  0  0  0  0  0
  148.3063  138.7603  158.0957 H   0  0  0  0  0  0  0  0  0  0  0  0
  149.5193  136.6834  158.4200 H   0  0  0  0  0  0  0  0  0  0  0  0
  146.2413  135.1541  161.0808 H   0  0  0  0  0  0  0  0  0  0  0  0
  147.7092  134.1980  161.1075 H   0  0  0  0  0  0  0  0  0  0  0  0
  147.0118  134.8310  163.4313 H   0  0  0  0  0  0  0  0  0  0  0  0
  147.1099  136.5375  163.0191 H   0  0  0  0  0  0  0  0  0  0  0  0
  148.5718  135.5527  163.0481 H   0  0  0  0  0  0  0  0  0  0  0  0
  1  2  1  0  0  0  0
  1 27  1  0  0  0  0
  1 28  1  0  0  0  0
  1 29  1  0  0  0  0
  2  3  1  0  0  0  0
  2 30  1  0  0  0  0
  2 31  1  0  0  0  0
  3  4  2  0  0  0  0
  3  5  1  0  0  0  0
  5  6  1  0  0  0  0
  6  7  1  0  0  0  0
  6 32  1  0  0  0  0
  6 33  1  0  0  0  0
  7 21  1  0  0  0  0
  7  8  1  0  0  0  0
  7 34  1  0  0  0  0
  8  9  1  0  0  0  0
  9 10  1  0  0  0  0
  9 19  1  0  0  0  0
  9 35  1  0  0  0  0
 10 17  1  0  0  0  0
 10 11  1  0  0  0  0
 11 12  2  0  0  0  0
 11 36  1  0  0  0  0
 12 13  1  0  0  0  0
 12 14  1  0  0  0  0
 14 15  2  0  0  0  0
 14 16  1  0  0  0  0
 16 17  1  0  0  0  0
 17 18  2  0  0  0  0
 19 20  1  0  0  0  0
 19 21  1  0  0  0  0
 19 37  1  0  0  0  0
 21 22  1  0  0  0  0
 21 38  1  0  0  0  0
 22 23  1  0  0  0  0
 23 24  2  0  0  0  0
 23 25  1  0  0  0  0
 25 26  1  0  0  0  0
 25 39  1  0  0  0  0
 25 40  1  0  0  0  0
 26 41  1  0  0  0  0
 26 42  1  0  0  0  0
 26 43  1  0  0  0  0
M  CHG  1  16  -1
M  END
> <s_m_source_file>
AV-unprocessed.smi

> <i_m_source_file_index>
37

> <i_lp_mmshare_version>
43012

> <i_f3d_flags>
0

> <s_epik_input>
W0NIM11bQ0gyXUMoPU8pT1tDSDJdW0NAQEhdMU9bQ0BASF0objJbY0hdYyhGKWMoPU8pW25IXWMyPU8pW0NAQEhdKEJyKVtDQEhdMU9DKD1PKVtDSDJdW0NIM10=

> <s_epik_cmdline>
J2VwaWtfcHl0aG9uJywgJy1waCcsICc3LjAnLCAnLXRuJywgJzgnLCAnLW1hJywgJzIwMCcsICctbWV0YWxfYmluZGluZycsICctaW1hZScsICc8aW5maWxlLm1hZT4nLCAnLW9tYWUnLCAnPG91dGZpbGUubWFlPic=

> <r_epik_Ionization_Penalty>
1.08158

> <r_epik_Ionization_Penalty_Charging>
9.05154e-09

> <r_epik_Ionization_Penalty_Neutral>
1.08158

> <r_epik_State_Penalty>
1.13706

> <r_epik_Charging_Adjusted_Penalty>
1.13706

> <i_epik_Tot_Q>
-1

> <i_epik_Tot_abs_Q>
1

> <r_epik_Metal_State_Penalty>
0.00343535

> <b_epik_Metal_Only>
0

> <s_epik_Chemistry_Notes>
This compound has an ester and may undergo hydrolysis at high or low pH. This compound contains an acetal/aminal-like group ( X-CH(R)-Y where X, Y are N, S, or O) that may be acid/base labile, releasing an aldehyde.

> <s_lp_Force_Field>
OPLS_2005

> <r_lp_Energy>
33.8025

> <b_lp_Chiralities_Consistent>
1

> <s_lp_Variant>
AV-unprocessed.smi:37-20

> <Gold.Version>
5.8.1

> <Gold.Id.Protein>
6NUR|6NUR_protein|mol2

> <Gold.PLP.Fitness>
41.1802

> <Gold.PLP.PLP>
-33.2934

> <Gold.PLP.part.hbond>
-4.8144

> <Gold.PLP.part.metal>
0.0000

> <Gold.PLP.part.buried>
-3.5240

> <Gold.PLP.part.nonpolar>
-24.0935

> <Gold.PLP.part.repulsive>
0.4124

> <Gold.PLP.ligand.clash>
0.0000

> <Gold.PLP.ligand.torsion>
0.7832

> <Gold.PLP.Chemscore.Hbond>
3.0803

> <Gold.PLP.Chemscore.CHOScore>
0.0000

> <Gold.PLP.Chemscore.Metal>
0.0000

> <Gold.Chemscore.Hbonds>
donor molecule, donor type, donor heavy atom, donor atom, acceptor molecule, acceptor atom, score
      P1  H  6931  6943       L1    24  0.86
      P1  H  6934  6947       L1    24  0.06
      P1  H  7989  7998       L1    16  1.00
      P1  H  7997  8009       L1    15  1.00

> <Gold.PLP.Chemscore.Internal.Correction>
0.2123

> <Gold.Rescore>
     Score         DG    S(hbond)    S(metal)    S(lipo)     H(rot)  DE(clash)    DE(int)     intcor
     11.15     -13.90       3.54        0.00      42.50       3.27       0.00       2.74       ----

> <Gold.Chemscore.Fitness>
11.1537

> <Gold.Chemscore.DG>
-13.8987

> <Gold.Chemscore.ZeroCoef>
-5.4800

> <Gold.Chemscore.Hbond>
3.5358

> <Gold.Chemscore.Metal>
0.0000

> <Gold.Chemscore.Lipo>
42.4992

> <Gold.Chemscore.Internal_Hbond>
0.0000

> <Gold.Chemscore.DEClash>
0.0000

> <Gold.Chemscore.DEInternal>
2.7449

> <Gold.Chemscore.Rot>
3.2669

> <Gold.Chemscore.Internal.Correction>
   9.000000E+99

> <Gold.Chemscore.Hbonds>
donor molecule, donor type, donor heavy atom, donor atom, acceptor molecule, acceptor atom, score
      P1  H  6931  6943       L1    24  0.84
      P1  H  6934  6947       L1    24  0.04
      P1  H  7989  7998       L1    16  0.42
      P1  H  7997  8009       L1    15  1.00

> <Gold.Chemscore.Hbond.Weighted>
-11.8096

> <Gold.Chemscore.Metal.Weighted>
-0.0000

> <Gold.Chemscore.Lipo.Weighted>
-4.9724

> <Gold.Chemscore.Internal_Hbond.Weighted>
0.0000

> <Gold.Chemscore.DEClash.Weighted>
0.0000

> <Gold.Chemscore.DEInternal.Weighted>
2.7449

> <Gold.Chemscore.Rot.Weighted>
8.3634

> <Gold.Chemscore.Internal.Correction.Weighted>
   9.000000E+99

> <Gold.Protein.RotatedTorsions>
[ 6907 6896 6895 6894 ] final -106.76 input  -60.11 | X-H torsion
[ 7974 7965 7964 7962 ] final   -5.65 input  175.53 | X-H torsion
[ 8008 7997 7996 7995 ] final -120.68 input   59.86 | X-H torsion
[ 10167 10162 10161 10158 ] final   89.08 input  -65.29 | X-H torsion
[ 10718 10713 10712 10709 ] final  136.78 input   66.30 | X-H torsion
[ 10763 10752 10751 10750 ] final  -82.60 input  -60.55 | X-H torsion
[ 11005 11000 10999 10996 ] final  -26.87 input  -57.11 | X-H torsion

> <Gold.Protein.ActiveResidues>
 VAL166  LYS551  ARG553  GLY616  TRP617  ASP618  TYR619  PRO620  LYS621  CYS622 
 ASP623  PHE694  ASN695  SER759  ASP760  ASP761  ALA762  ILE779  LEU786  VAL792 
 PHE793  MET794  SER795  GLU796  ALA797  LYS798  CYS799  TRP800  GLU811  SER814 

> <Gold.Protein.RotatedAtoms>
  150.7406  133.9928  159.3612 H   0  0  0  0  0  0  0  0  0  0  0  0  # atno 6907 bound_to 6896
  151.7877  135.0742  160.0392 H   0  0  0  0  0  0  0  0  0  0  0  0  # atno 6908 bound_to 6896
  152.3230  133.5837  159.5793 H   0  0  0  0  0  0  0  0  0  0  0  0  # atno 6909 bound_to 6896
  146.2348  140.2053  142.8334 H   0  0  0  0  0  0  0  0  0  0  0  0  # atno 7974 bound_to 7965
  155.1358  140.0401  157.2786 H   0  0  0  0  0  0  0  0  0  0  0  0  # atno 8008 bound_to 7997
  154.6509  140.2569  155.7188 H   0  0  0  0  0  0  0  0  0  0  0  0  # atno 8009 bound_to 7997
  156.2577  140.2836  156.0943 H   0  0  0  0  0  0  0  0  0  0  0  0  # atno 8010 bound_to 7997
  139.8608  144.6545  150.9060 H   0  0  0  0  0  0  0  0  0  0  0  0  # atno 10167 bound_to 10162
  157.4431  131.1059  151.0121 H   0  0  0  0  0  0  0  0  0  0  0  0  # atno 10718 bound_to 10713
  154.5777  135.5585  153.7155 H   0  0  0  0  0  0  0  0  0  0  0  0  # atno 10763 bound_to 10752
  153.0070  135.6312  154.2025 H   0  0  0  0  0  0  0  0  0  0  0  0  # atno 10764 bound_to 10752
  154.1966  135.2880  155.2984 H   0  0  0  0  0  0  0  0  0  0  0  0  # atno 10765 bound_to 10752
  140.9068  133.7487  156.0617 H   0  0  0  0  0  0  0  0  0  0  0  0  # atno 11005 bound_to 11000
  144.9749  140.8404  143.5432 LP  0  0  0  0  0  0  0  0  0  0  0  0  # atno 17320 bound_to 7965
  145.2039  139.2238  143.5178 LP  0  0  0  0  0  0  0  0  0  0  0  0  # atno 17321 bound_to 7965
  140.7775  143.3746  151.1587 LP  0  0  0  0  0  0  0  0  0  0  0  0  # atno 17342 bound_to 10162
  139.7375  143.8975  152.3039 LP  0  0  0  0  0  0  0  0  0  0  0  0  # atno 17343 bound_to 10162
  157.0977  130.5968  149.5453 LP  0  0  0  0  0  0  0  0  0  0  0  0  # atno 17370 bound_to 10713
  155.9956  130.5024  150.7466 LP  0  0  0  0  0  0  0  0  0  0  0  0  # atno 17371 bound_to 10713
  140.8161  134.3344  157.5397 LP  0  0  0  0  0  0  0  0  0  0  0  0  # atno 17394 bound_to 11000
  139.8751  134.9282  156.3444 LP  0  0  0  0  0  0  0  0  0  0  0  0  # atno 17395 bound_to 11000

$$$$
