AV-unprocessed.smi:1406|AV-procd|sdf|5723|dock3
  -GOLD-   22720 5353D 1   1.00000     0.00000
 Structure written by MMmdl.
 41 43  0  0  0  0  0  0  0  0  2 V2000
  150.5475  138.6124  154.4559 C   0  0  0  0  0  0  0  0  0  0  0  0
  150.2414  140.0541  154.9098 C   0  0  2  0  0  0  0  0  0  0  0  0
  150.3407  140.2402  156.4331 C   0  0  0  0  0  0  0  0  0  0  0  0
  149.5800  139.6434  157.1956 O   0  0  0  0  0  0  0  0  0  0  0  0
  151.2915  141.0829  156.8656 N   0  0  0  0  0  0  0  0  0  0  0  0
  151.5168  141.4415  158.2607 C   0  0  1  0  0  0  0  0  0  0  0  0
  152.6884  140.7177  158.9174 C   0  0  0  0  0  0  0  0  0  0  0  0
  152.9906  141.6219  160.1141 C   0  0  0  0  0  0  0  0  0  0  0  0
  152.6995  143.0023  159.6635 N   0  3  2  0  0  0  0  0  0  0  0  0
  152.1575  143.8988  160.7135 C   0  0  0  0  0  0  0  0  0  0  0  0
  151.8964  145.3055  160.1428 C   0  0  0  0  0  0  0  0  0  0  0  0
  151.0602  145.2878  158.8452 C   0  0  0  0  0  0  0  0  0  0  0  0
  150.6702  143.8643  158.4174 C   0  0  0  0  0  0  0  0  0  0  0  0
  151.8941  142.9216  158.4122 C   0  0  2  0  0  0  0  0  0  0  0  0
  148.9443  140.5142  154.4276 N   0  0  0  0  0  0  0  0  0  0  0  0
  148.3623  141.7105  154.5378 C   0  0  0  0  0  0  0  0  0  0  0  0
  147.1416  141.7651  154.0242 N   0  0  0  0  0  0  0  0  0  0  0  0
  147.0208  140.4771  153.5854 C   0  0  0  0  0  0  0  0  0  0  0  0
  148.0669  139.6828  153.8120 N   0  0  0  0  0  0  0  0  0  0  0  0
  151.5458  138.3048  154.7687 H   0  0  0  0  0  0  0  0  0  0  0  0
  150.5079  138.5313  153.3694 H   0  0  0  0  0  0  0  0  0  0  0  0
  149.8364  137.8940  154.8661 H   0  0  0  0  0  0  0  0  0  0  0  0
  150.9975  140.7004  154.4613 H   0  0  0  0  0  0  0  0  0  0  0  0
  151.8776  141.5304  156.1759 H   0  0  0  0  0  0  0  0  0  0  0  0
  150.6133  141.2388  158.8403 H   0  0  0  0  0  0  0  0  0  0  0  0
  152.4485  139.6948  159.2100 H   0  0  0  0  0  0  0  0  0  0  0  0
  153.5459  140.6874  158.2432 H   0  0  0  0  0  0  0  0  0  0  0  0
  152.3313  141.3539  160.9416 H   0  0  0  0  0  0  0  0  0  0  0  0
  154.0189  141.5244  160.4629 H   0  0  0  0  0  0  0  0  0  0  0  0
  151.2343  143.4798  161.1173 H   0  0  0  0  0  0  0  0  0  0  0  0
  152.8645  143.9566  161.5417 H   0  0  0  0  0  0  0  0  0  0  0  0
  151.4005  145.9184  160.8961 H   0  0  0  0  0  0  0  0  0  0  0  0
  152.8513  145.7932  159.9428 H   0  0  0  0  0  0  0  0  0  0  0  0
  150.1621  145.8940  158.9686 H   0  0  0  0  0  0  0  0  0  0  0  0
  151.6331  145.7578  158.0448 H   0  0  0  0  0  0  0  0  0  0  0  0
  149.9078  143.4845  159.0991 H   0  0  0  0  0  0  0  0  0  0  0  0
  150.2068  143.8830  157.4302 H   0  0  0  0  0  0  0  0  0  0  0  0
  152.5665  143.2121  157.6031 H   0  0  0  0  0  0  0  0  0  0  0  0
  148.8378  142.5571  155.0109 H   0  0  0  0  0  0  0  0  0  0  0  0
  146.1323  140.1115  153.0921 H   0  0  0  0  0  0  0  0  0  0  0  0
  153.5840  143.4020  159.3840 H   0  0  0  0  0  0  0  0  0  0  0  0
  1  2  1  0  0  0  0
  1 20  1  0  0  0  0
  1 21  1  0  0  0  0
  1 22  1  0  0  0  0
  2  3  1  0  0  0  0
  2 15  1  0  0  0  0
  2 23  1  0  0  0  0
  3  4  2  0  0  0  0
  3  5  1  0  0  0  0
  5  6  1  0  0  0  0
  5 24  1  0  0  0  0
  6 14  1  0  0  0  0
  6  7  1  0  0  0  0
  6 25  1  0  0  0  0
  7  8  1  0  0  0  0
  7 26  1  0  0  0  0
  7 27  1  0  0  0  0
  8  9  1  0  0  0  0
  8 28  1  0  0  0  0
  8 29  1  0  0  0  0
  9 14  1  0  0  0  0
  9 10  1  0  0  0  0
  9 41  1  0  0  0  0
 10 11  1  0  0  0  0
 10 30  1  0  0  0  0
 10 31  1  0  0  0  0
 11 12  1  0  0  0  0
 11 32  1  0  0  0  0
 11 33  1  0  0  0  0
 12 13  1  0  0  0  0
 12 34  1  0  0  0  0
 12 35  1  0  0  0  0
 13 14  1  0  0  0  0
 13 36  1  0  0  0  0
 13 37  1  0  0  0  0
 14 38  1  0  0  0  0
 15 19  1  0  0  0  0
 15 16  1  0  0  0  0
 16 17  2  0  0  0  0
 16 39  1  0  0  0  0
 17 18  1  0  0  0  0
 18 19  2  0  0  0  0
 18 40  1  0  0  0  0
M  CHG  1   9   1
M  END
> <s_m_source_file>
AV-unprocessed.smi

> <i_m_source_file_index>
1406

> <i_lp_mmshare_version>
43012

> <i_f3d_flags>
0

> <s_epik_input>
bjFbY0hdbltjSF1uMVtDQEhdKFtDSDNdKUMoPU8pW05IXVtDQEhdKFtDSDJdW0NIMl0yKVtDQEBIXShOMjMpW0NIMl1bQ0gyXVtDSDJdW0NIMl0z

> <s_epik_cmdline>
J2VwaWtfcHl0aG9uJywgJy1waCcsICc3LjAnLCAnLXRuJywgJzgnLCAnLW1hJywgJzIwMCcsICctbWV0YWxfYmluZGluZycsICctaW1hZScsICc8aW5maWxlLm1hZT4nLCAnLW9tYWUnLCAnPG91dGZpbGUubWFlPic=

> <r_lp_tautomer_probability>
1

> <r_epik_Ionization_Penalty>
0.00197066

> <r_epik_Ionization_Penalty_Charging>
0.00196223

> <r_epik_Ionization_Penalty_Neutral>
8.43107e-06

> <r_epik_State_Penalty>
0.00133866

> <r_epik_Charging_Adjusted_Penalty>
0.00330089

> <i_epik_Tot_Q>
1

> <i_epik_Tot_abs_Q>
1

> <r_epik_Metal_State_Penalty>
-0

> <b_epik_Metal_Only>
0

> <s_lp_Force_Field>
OPLS_2005

> <r_lp_Energy>
45.2549

> <b_lp_Chiralities_Consistent>
1

> <s_lp_Variant>
AV-unprocessed.smi:1406-15

> <Gold.Version>
5.8.1

> <Gold.Id.Protein>
6NUR|6NUR_protein|mol2

> <Gold.PLP.Fitness>
45.0454

> <Gold.PLP.PLP>
-39.6655

> <Gold.PLP.part.hbond>
0.0000

> <Gold.PLP.part.metal>
0.0000

> <Gold.PLP.part.buried>
-5.6854

> <Gold.PLP.part.nonpolar>
-35.0361

> <Gold.PLP.part.repulsive>
0.8754

> <Gold.PLP.ligand.clash>
0.0000

> <Gold.PLP.ligand.torsion>
0.3479

> <Gold.PLP.Chemscore.Hbond>
0.0000

> <Gold.PLP.Chemscore.CHOScore>
1.9892

> <Gold.PLP.Chemscore.Metal>
0.0000

> <Gold.Chemscore.Hbonds>
donor molecule, donor type, donor heavy atom, donor atom, acceptor molecule, acceptor atom, score
      L1  C    16    39       P1  8028  1.00
      L1  C    18    40       P1 10175  0.95

> <Gold.PLP.Chemscore.Internal.Correction>
0.1082

> <Gold.Rescore>
     Score         DG    S(hbond)    S(metal)    S(lipo)     H(rot)  DE(clash)    DE(int)     intcor
     11.63     -12.13       0.00        0.00      98.12       1.89       0.11       0.39       ----

> <Gold.Chemscore.Fitness>
11.6318

> <Gold.Chemscore.DG>
-12.1301

> <Gold.Chemscore.ZeroCoef>
-5.4800

> <Gold.Chemscore.Hbond>
0.0000

> <Gold.Chemscore.Metal>
0.0000

> <Gold.Chemscore.Lipo>
98.1165

> <Gold.Chemscore.Internal_Hbond>
0.0000

> <Gold.Chemscore.DEClash>
0.1094

> <Gold.Chemscore.DEInternal>
0.3889

> <Gold.Chemscore.Rot>
1.8865

> <Gold.Chemscore.Internal.Correction>
   9.000000E+99

> <Gold.Chemscore.Hbond.Weighted>
-0.0000

> <Gold.Chemscore.Metal.Weighted>
-0.0000

> <Gold.Chemscore.Lipo.Weighted>
-11.4796

> <Gold.Chemscore.Internal_Hbond.Weighted>
0.0000

> <Gold.Chemscore.DEClash.Weighted>
0.1094

> <Gold.Chemscore.DEInternal.Weighted>
0.3889

> <Gold.Chemscore.Rot.Weighted>
4.8295

> <Gold.Chemscore.Internal.Correction.Weighted>
   9.000000E+99

> <Gold.Protein.RotatedTorsions>
[ 6907 6896 6895 6894 ] final   41.31 input  -60.11 | X-H torsion
[ 7974 7965 7964 7962 ] final  -14.85 input  175.53 | X-H torsion
[ 8008 7997 7996 7995 ] final  -81.10 input   59.86 | X-H torsion
[ 10167 10162 10161 10158 ] final  -39.35 input  -65.29 | X-H torsion
[ 10718 10713 10712 10709 ] final   98.48 input   66.30 | X-H torsion
[ 10763 10752 10751 10750 ] final   59.15 input  -60.55 | X-H torsion
[ 11005 11000 10999 10996 ] final -158.36 input  -57.11 | X-H torsion

> <Gold.Protein.ActiveResidues>
 VAL166  LYS551  ARG553  GLY616  TRP617  ASP618  TYR619  PRO620  LYS621  CYS622 
 ASP623  PHE694  ASN695  SER759  ASP760  ASP761  ALA762  ILE779  LEU786  VAL792 
 PHE793  MET794  SER795  GLU796  ALA797  LYS798  CYS799  TRP800  GLU811  SER814 

> <Gold.Protein.RotatedAtoms>
  152.1937  134.8649  160.0514 H   0  0  0  0  0  0  0  0  0  0  0  0  # atno 6907 bound_to 6896
  151.9529  133.3666  159.4015 H   0  0  0  0  0  0  0  0  0  0  0  0  # atno 6908 bound_to 6896
  150.6940  134.4245  159.5264 H   0  0  0  0  0  0  0  0  0  0  0  0  # atno 6909 bound_to 6896
  146.2057  140.3408  142.8408 H   0  0  0  0  0  0  0  0  0  0  0  0  # atno 7974 bound_to 7965
  154.5950  140.0653  156.9291 H   0  0  0  0  0  0  0  0  0  0  0  0  # atno 8008 bound_to 7997
  155.2230  140.3331  155.4295 H   0  0  0  0  0  0  0  0  0  0  0  0  # atno 8009 bound_to 7997
  156.2281  140.1828  156.7296 H   0  0  0  0  0  0  0  0  0  0  0  0  # atno 8010 bound_to 7997
  140.7066  143.3220  151.2770 H   0  0  0  0  0  0  0  0  0  0  0  0  # atno 10167 bound_to 10162
  157.6894  131.0641  150.4803 H   0  0  0  0  0  0  0  0  0  0  0  0  # atno 10718 bound_to 10713
  152.9887  135.5581  154.5668 H   0  0  0  0  0  0  0  0  0  0  0  0  # atno 10763 bound_to 10752
  154.5076  135.2800  155.1371 H   0  0  0  0  0  0  0  0  0  0  0  0  # atno 10764 bound_to 10752
  154.2776  135.6351  153.5387 H   0  0  0  0  0  0  0  0  0  0  0  0  # atno 10765 bound_to 10752
  140.6545  134.4415  157.5235 H   0  0  0  0  0  0  0  0  0  0  0  0  # atno 11005 bound_to 11000
  144.8787  140.7371  143.6000 LP  0  0  0  0  0  0  0  0  0  0  0  0  # atno 17320 bound_to 7965
  145.3328  139.1754  143.4528 LP  0  0  0  0  0  0  0  0  0  0  0  0  # atno 17321 bound_to 7965
  139.6676  144.0077  152.2733 LP  0  0  0  0  0  0  0  0  0  0  0  0  # atno 17342 bound_to 10162
  139.9665  144.6523  150.8030 LP  0  0  0  0  0  0  0  0  0  0  0  0  # atno 17343 bound_to 10162
  156.5136  130.4145  149.6288 LP  0  0  0  0  0  0  0  0  0  0  0  0  # atno 17370 bound_to 10713
  156.3218  130.7285  151.2198 LP  0  0  0  0  0  0  0  0  0  0  0  0  # atno 17371 bound_to 10713
  139.9034  134.8503  156.1802 LP  0  0  0  0  0  0  0  0  0  0  0  0  # atno 17394 bound_to 11000
  141.0512  133.6888  156.1775 LP  0  0  0  0  0  0  0  0  0  0  0  0  # atno 17395 bound_to 11000

$$$$
