AV-unprocessed.smi:2525|AV-procd|sdf|9929|dock4
  -GOLD-   2272013573D 1   1.00000     0.00000
 Structure written by MMmdl.
 44 45  0  0  0  0  0  0  0  0  1 V2000
  150.0172  142.2794  157.8071 C   0  0  0  0  0  0  0  0  0  0  0  0
  150.5771  141.4128  156.6664 C   0  0  0  0  0  0  0  0  0  0  0  0
  150.1368  139.9278  156.6947 C   0  0  0  0  0  0  0  0  0  0  0  0
  150.6437  139.2728  158.0025 C   0  0  0  0  0  0  0  0  0  0  0  0
  152.1615  139.3604  158.2277 C   0  0  0  0  0  0  0  0  0  0  0  0
  148.6403  139.7257  156.3106 C   0  0  2  0  0  0  0  0  0  0  0  0
  148.0188  138.5475  156.9148 N   0  0  0  0  0  0  0  0  0  0  0  0
  147.0322  138.5786  157.8231 C   0  0  0  0  0  0  0  0  0  0  0  0
  146.5696  139.6210  158.2850 O   0  0  0  0  0  0  0  0  0  0  0  0
  146.4916  137.2254  158.2919 C   0  0  0  0  0  0  0  0  0  0  0  0
  147.0481  136.8432  159.5788 N   0  0  0  0  0  0  0  0  0  0  0  0
  147.7972  135.7279  159.8955 C   0  0  0  0  0  0  0  0  0  0  0  0
  148.0284  135.8702  161.2336 C   0  0  0  0  0  0  0  0  0  0  0  0
  147.4228  137.0474  161.6690 N   0  0  0  0  0  0  0  0  0  0  0  0
  146.8375  137.6235  160.6663 N   0  0  0  0  0  0  0  0  0  0  0  0
  149.0602  139.4597  154.8536 C   0  0  2  0  0  0  0  0  0  0  0  0
  148.3056  138.4396  154.0032 C   0  0  0  0  0  0  0  0  0  0  0  0
  150.4506  139.1199  155.4099 C   0  0  1  0  0  0  0  0  0  0  0  0
  151.5413  139.6550  154.6743 O   0  0  0  0  0  0  0  0  0  0  0  0
  152.7761  139.0283  154.9729 C   0  0  0  0  0  0  0  0  0  0  0  0
  150.2759  143.3269  157.6523 H   0  0  0  0  0  0  0  0  0  0  0  0
  150.4248  141.9892  158.7749 H   0  0  0  0  0  0  0  0  0  0  0  0
  148.9308  142.2152  157.8662 H   0  0  0  0  0  0  0  0  0  0  0  0
  150.2609  141.8721  155.7296 H   0  0  0  0  0  0  0  0  0  0  0  0
  151.6633  141.4975  156.6534 H   0  0  0  0  0  0  0  0  0  0  0  0
  150.1216  139.6784  158.8689 H   0  0  0  0  0  0  0  0  0  0  0  0
  150.3972  138.2110  158.0034 H   0  0  0  0  0  0  0  0  0  0  0  0
  152.4539  138.7645  159.0925 H   0  0  0  0  0  0  0  0  0  0  0  0
  152.4867  140.3823  158.4202 H   0  0  0  0  0  0  0  0  0  0  0  0
  152.7136  138.9846  157.3661 H   0  0  0  0  0  0  0  0  0  0  0  0
  148.0324  140.6277  156.3960 H   0  0  0  0  0  0  0  0  0  0  0  0
  148.3408  137.6459  156.5942 H   0  0  0  0  0  0  0  0  0  0  0  0
  145.4055  137.2770  158.3763 H   0  0  0  0  0  0  0  0  0  0  0  0
  146.7218  136.4511  157.5580 H   0  0  0  0  0  0  0  0  0  0  0  0
  148.0806  134.9704  159.1798 H   0  0  0  0  0  0  0  0  0  0  0  0
  148.5730  135.2307  161.9126 H   0  0  0  0  0  0  0  0  0  0  0  0
  149.1064  140.4169  154.3316 H   0  0  0  0  0  0  0  0  0  0  0  0
  148.3940  137.4308  154.4072 H   0  0  0  0  0  0  0  0  0  0  0  0
  148.6858  138.4159  152.9824 H   0  0  0  0  0  0  0  0  0  0  0  0
  147.2440  138.6820  153.9496 H   0  0  0  0  0  0  0  0  0  0  0  0
  150.5660  138.0540  155.6193 H   0  0  0  0  0  0  0  0  0  0  0  0
  153.5742  139.5075  154.4057 H   0  0  0  0  0  0  0  0  0  0  0  0
  152.7631  137.9730  154.7016 H   0  0  0  0  0  0  0  0  0  0  0  0
  153.0180  139.1163  156.0327 H   0  0  0  0  0  0  0  0  0  0  0  0
  1  2  1  0  0  0  0
  1 21  1  0  0  0  0
  1 22  1  0  0  0  0
  1 23  1  0  0  0  0
  2  3  1  0  0  0  0
  2 24  1  0  0  0  0
  2 25  1  0  0  0  0
  3 18  1  0  0  0  0
  3  4  1  0  0  0  0
  3  6  1  0  0  0  0
  4  5  1  0  0  0  0
  4 26  1  0  0  0  0
  4 27  1  0  0  0  0
  5 28  1  0  0  0  0
  5 29  1  0  0  0  0
  5 30  1  0  0  0  0
  6  7  1  0  0  0  0
  6 16  1  0  0  0  0
  6 31  1  0  0  0  0
  7  8  1  0  0  0  0
  7 32  1  0  0  0  0
  8  9  2  0  0  0  0
  8 10  1  0  0  0  0
 10 11  1  0  0  0  0
 10 33  1  0  0  0  0
 10 34  1  0  0  0  0
 11 15  1  0  0  0  0
 11 12  1  0  0  0  0
 12 13  2  0  0  0  0
 12 35  1  0  0  0  0
 13 14  1  0  0  0  0
 13 36  1  0  0  0  0
 14 15  2  0  0  0  0
 16 17  1  0  0  0  0
 16 18  1  0  0  0  0
 16 37  1  0  0  0  0
 17 38  1  0  0  0  0
 17 39  1  0  0  0  0
 17 40  1  0  0  0  0
 18 19  1  0  0  0  0
 18 41  1  0  0  0  0
 19 20  1  0  0  0  0
 20 42  1  0  0  0  0
 20 43  1  0  0  0  0
 20 44  1  0  0  0  0
M  END
> <s_m_source_file>
AV-unprocessed.smi

> <i_m_source_file_index>
2525

> <i_lp_mmshare_version>
43012

> <i_f3d_flags>
0

> <s_epik_input>
W0NIM11PW0NAQEhdMVtDQEhdKFtDSDNdKVtDQEBIXShDMShbQ0gyXVtDSDNdKVtDSDJdW0NIM10pW05IXUMoPU8pW0NIMl1uMltjSF1bY0hdbm4y

> <s_epik_cmdline>
J2VwaWtfcHl0aG9uJywgJy1waCcsICc3LjAnLCAnLXRuJywgJzgnLCAnLW1hJywgJzIwMCcsICctbWV0YWxfYmluZGluZycsICctaW1hZScsICc8aW5maWxlLm1hZT4nLCAnLW9tYWUnLCAnPG91dGZpbGUubWFlPic=

> <r_lp_tautomer_probability>
1

> <r_epik_Ionization_Penalty>
1.18045e-06

> <r_epik_Ionization_Penalty_Charging>
0

> <r_epik_Ionization_Penalty_Neutral>
1.18045e-06

> <r_epik_State_Penalty>
-0

> <r_epik_Charging_Adjusted_Penalty>
0

> <i_epik_Tot_Q>
0

> <i_epik_Tot_abs_Q>
0

> <r_epik_Metal_State_Penalty>
-0

> <b_epik_Metal_Only>
0

> <s_lp_Force_Field>
OPLS_2005

> <r_lp_Energy>
27.9477

> <b_lp_Chiralities_Consistent>
1

> <s_lp_Variant>
AV-unprocessed.smi:2525-4

> <Gold.Version>
5.8.1

> <Gold.Id.Protein>
6NUR|6NUR_protein|mol2

> <Gold.PLP.Fitness>
32.2038

> <Gold.PLP.PLP>
-25.0278

> <Gold.PLP.part.hbond>
-4.9319

> <Gold.PLP.part.metal>
0.0000

> <Gold.PLP.part.buried>
-4.0484

> <Gold.PLP.part.nonpolar>
-17.8880

> <Gold.PLP.part.repulsive>
0.1035

> <Gold.PLP.ligand.clash>
0.0000

> <Gold.PLP.ligand.torsion>
0.9186

> <Gold.PLP.Chemscore.Hbond>
2.8200

> <Gold.PLP.Chemscore.CHOScore>
0.0000

> <Gold.PLP.Chemscore.Metal>
0.0000

> <Gold.Chemscore.Hbonds>
donor molecule, donor type, donor heavy atom, donor atom, acceptor molecule, acceptor atom, score
      P1  H  6931  6943       L1    14  0.99
      P1  H  6934  6947       L1    15  0.83
      P1  H  7989  7998       L1    19  1.00

> <Gold.PLP.Chemscore.Internal.Correction>
0.5532

> <Gold.Rescore>
     Score         DG    S(hbond)    S(metal)    S(lipo)     H(rot)  DE(clash)    DE(int)     intcor
     13.16     -14.12       1.95        0.00      61.67       1.98       0.00       0.96       ----

> <Gold.Chemscore.Fitness>
13.1578

> <Gold.Chemscore.DG>
-14.1230

> <Gold.Chemscore.ZeroCoef>
-5.4800

> <Gold.Chemscore.Hbond>
1.9463

> <Gold.Chemscore.Metal>
0.0000

> <Gold.Chemscore.Lipo>
61.6706

> <Gold.Chemscore.Internal_Hbond>
0.0000

> <Gold.Chemscore.DEClash>
0.0038

> <Gold.Chemscore.DEInternal>
0.9615

> <Gold.Chemscore.Rot>
1.9817

> <Gold.Chemscore.Internal.Correction>
   9.000000E+99

> <Gold.Chemscore.Hbonds>
donor molecule, donor type, donor heavy atom, donor atom, acceptor molecule, acceptor atom, score
      P1  H  6931  6943       L1    14  0.09
      P1  H  6934  6947       L1    15  0.24
      P1  H  7989  7998       L1    19  0.88

> <Gold.Chemscore.Hbond.Weighted>
-6.5007

> <Gold.Chemscore.Metal.Weighted>
-0.0000

> <Gold.Chemscore.Lipo.Weighted>
-7.2155

> <Gold.Chemscore.Internal_Hbond.Weighted>
0.0000

> <Gold.Chemscore.DEClash.Weighted>
0.0038

> <Gold.Chemscore.DEInternal.Weighted>
0.9615

> <Gold.Chemscore.Rot.Weighted>
5.0731

> <Gold.Chemscore.Internal.Correction.Weighted>
   9.000000E+99

> <Gold.Protein.RotatedTorsions>
[ 6907 6896 6895 6894 ] final -162.61 input  -60.11 | X-H torsion
[ 7974 7965 7964 7962 ] final  -16.46 input  175.53 | X-H torsion
[ 8008 7997 7996 7995 ] final  170.89 input   59.86 | X-H torsion
[ 10167 10162 10161 10158 ] final -114.30 input  -65.29 | X-H torsion
[ 10718 10713 10712 10709 ] final  113.93 input   66.30 | X-H torsion
[ 10763 10752 10751 10750 ] final   -2.31 input  -60.55 | X-H torsion
[ 11005 11000 10999 10996 ] final -118.48 input  -57.11 | X-H torsion

> <Gold.Protein.ActiveResidues>
 VAL166  LYS551  ARG553  GLY616  TRP617  ASP618  TYR619  PRO620  LYS621  CYS622 
 ASP623  PHE694  ASN695  SER759  ASP760  ASP761  ALA762  ILE779  LEU786  VAL792 
 PHE793  MET794  SER795  GLU796  ALA797  LYS798  CYS799  TRP800  GLU811  SER814 

> <Gold.Protein.RotatedAtoms>
  151.3831  133.3814  159.2712 H   0  0  0  0  0  0  0  0  0  0  0  0  # atno 6907 bound_to 6896
  150.9562  134.8957  159.7713 H   0  0  0  0  0  0  0  0  0  0  0  0  # atno 6908 bound_to 6896
  152.5132  134.3788  159.9396 H   0  0  0  0  0  0  0  0  0  0  0  0  # atno 6909 bound_to 6896
  146.1986  140.3639  142.8431 H   0  0  0  0  0  0  0  0  0  0  0  0  # atno 7974 bound_to 7965
  156.1323  140.1526  156.9046 H   0  0  0  0  0  0  0  0  0  0  0  0  # atno 8008 bound_to 7997
  154.4919  140.0849  156.7653 H   0  0  0  0  0  0  0  0  0  0  0  0  # atno 8009 bound_to 7997
  155.4232  140.3424  155.4275 H   0  0  0  0  0  0  0  0  0  0  0  0  # atno 8010 bound_to 7997
  140.1024  143.4601  152.1804 H   0  0  0  0  0  0  0  0  0  0  0  0  # atno 10167 bound_to 10162
  157.6310  131.0991  150.7113 H   0  0  0  0  0  0  0  0  0  0  0  0  # atno 10718 bound_to 10713
  153.3563  135.6988  153.6748 H   0  0  0  0  0  0  0  0  0  0  0  0  # atno 10763 bound_to 10752
  153.5454  135.3564  155.2737 H   0  0  0  0  0  0  0  0  0  0  0  0  # atno 10764 bound_to 10752
  154.8661  135.4213  154.2810 H   0  0  0  0  0  0  0  0  0  0  0  0  # atno 10765 bound_to 10752
  141.0283  134.0020  157.3181 H   0  0  0  0  0  0  0  0  0  0  0  0  # atno 11005 bound_to 11000
  144.8635  140.7172  143.6092 LP  0  0  0  0  0  0  0  0  0  0  0  0  # atno 17320 bound_to 7965
  145.3559  139.1694  143.4409 LP  0  0  0  0  0  0  0  0  0  0  0  0  # atno 17321 bound_to 7965
  139.5664  144.7437  151.4011 LP  0  0  0  0  0  0  0  0  0  0  0  0  # atno 17342 bound_to 10162
  140.6970  143.7724  150.7343 LP  0  0  0  0  0  0  0  0  0  0  0  0  # atno 17343 bound_to 10162
  156.7452  130.4751  149.5468 LP  0  0  0  0  0  0  0  0  0  0  0  0  # atno 17370 bound_to 10713
  156.1514  130.6312  151.0600 LP  0  0  0  0  0  0  0  0  0  0  0  0  # atno 17371 bound_to 10713
  139.9191  135.0199  156.7994 LP  0  0  0  0  0  0  0  0  0  0  0  0  # atno 17394 bound_to 11000
  140.6452  133.9782  155.7727 LP  0  0  0  0  0  0  0  0  0  0  0  0  # atno 17395 bound_to 11000

$$$$
