AV-unprocessed.smi:33|AV-procd|sdf|203|dock5
  -GOLD-   2262015483D 1   1.00000     0.00000
 Structure written by MMmdl.
 67 72  0  0  0  0  0  0  0  0  1 V2000
  154.5129  140.1749  159.3184 O   0  0  0  0  0  0  0  0  0  0  0  0
  153.4831  140.8524  159.3218 C   0  0  0  0  0  0  0  0  0  0  0  0
  152.5047  140.7263  158.4033 O   0  0  0  0  0  0  0  0  0  0  0  0
  152.2681  139.4709  157.7872 C   0  0  0  0  0  0  0  0  0  0  0  0
  150.9291  139.5185  157.0408 C   0  0  2  0  0  0  0  0  0  0  0  0
  150.4987  138.2122  156.6736 O   0  0  0  0  0  0  0  0  0  0  0  0
  149.5759  138.3001  155.6271 C   0  0  1  0  0  0  0  0  0  0  0  0
  148.2119  138.0916  156.2139 N   0  0  0  0  0  0  0  0  0  0  0  0
  147.0915  138.8952  156.1405 C   0  0  0  0  0  0  0  0  0  0  0  0
  146.0438  138.4593  156.7863 N   0  0  0  0  0  0  0  0  0  0  0  0
  146.4772  137.2739  157.3633 C   0  0  0  0  0  0  0  0  0  0  0  0
  145.8668  136.3012  158.1987 C   0  0  0  0  0  0  0  0  0  0  0  0
  144.5836  136.3968  158.6161 N   0  0  0  0  0  0  0  0  0  0  0  0
  144.2814  135.8872  159.9613 C   0  0  0  0  0  0  0  0  0  0  0  0
  143.1356  135.5203  160.2299 O   0  0  0  0  0  0  0  0  0  0  0  0
  145.3655  135.7724  160.9947 C   0  0  0  0  0  0  0  0  0  0  0  0
  145.6647  134.5178  161.5696 C   0  0  0  0  0  0  0  0  0  0  0  0
  146.6717  134.4075  162.5480 C   0  0  0  0  0  0  0  0  0  0  0  0
  147.3719  135.5533  162.9716 C   0  0  0  0  0  0  0  0  0  0  0  0
  147.0578  136.8117  162.4241 C   0  0  0  0  0  0  0  0  0  0  0  0
  146.0516  136.9228  161.4453 C   0  0  0  0  0  0  0  0  0  0  0  0
  143.6169  136.9906  157.6806 C   0  0  0  0  0  0  0  0  0  0  0  0
  143.8535  136.9733  156.4709 O   0  0  0  0  0  0  0  0  0  0  0  0
  142.3216  137.5667  158.1788 C   0  0  0  0  0  0  0  0  0  0  0  0
  142.2264  138.0449  159.5042 C   0  0  0  0  0  0  0  0  0  0  0  0
  141.0117  138.5714  159.9841 C   0  0  0  0  0  0  0  0  0  0  0  0
  139.8795  138.6059  159.1480 C   0  0  0  0  0  0  0  0  0  0  0  0
  139.9597  138.1052  157.8346 C   0  0  0  0  0  0  0  0  0  0  0  0
  141.1742  137.5790  157.3537 C   0  0  0  0  0  0  0  0  0  0  0  0
  146.6146  135.2401  158.5971 N   0  0  0  0  0  0  0  0  0  0  0  0
  147.8861  135.1391  158.1977 C   0  0  0  0  0  0  0  0  0  0  0  0
  148.5859  135.9686  157.4193 N   0  0  0  0  0  0  0  0  0  0  0  0
  147.8354  137.0361  157.0178 C   0  0  0  0  0  0  0  0  0  0  0  0
  149.7144  139.7094  155.0195 C   0  0  2  0  0  0  0  0  0  0  0  0
  149.8420  139.7108  153.6120 O   0  0  0  0  0  0  0  0  0  0  0  0
  150.9855  140.2198  155.6850 C   0  0  2  0  0  0  0  0  0  0  0  0
  152.0688  139.7958  155.0269 F   0  0  0  0  0  0  0  0  0  0  0  0
  153.1898  141.8982  160.3445 C   0  0  0  0  0  0  0  0  0  0  0  0
  153.6646  141.7270  161.6661 C   0  0  0  0  0  0  0  0  0  0  0  0
  153.4014  142.6953  162.6544 C   0  0  0  0  0  0  0  0  0  0  0  0
  152.6597  143.8471  162.3332 C   0  0  0  0  0  0  0  0  0  0  0  0
  152.1825  144.0297  161.0220 C   0  0  0  0  0  0  0  0  0  0  0  0
  152.4451  143.0625  160.0323 C   0  0  0  0  0  0  0  0  0  0  0  0
  153.0744  139.2656  157.0816 H   0  0  0  0  0  0  0  0  0  0  0  0
  152.2684  138.6734  158.5315 H   0  0  0  0  0  0  0  0  0  0  0  0
  150.1749  139.9979  157.6656 H   0  0  0  0  0  0  0  0  0  0  0  0
  149.7269  137.4895  154.9138 H   0  0  0  0  0  0  0  0  0  0  0  0
  147.0639  139.8216  155.5873 H   0  0  0  0  0  0  0  0  0  0  0  0
  145.1341  133.6320  161.2515 H   0  0  0  0  0  0  0  0  0  0  0  0
  146.9065  133.4431  162.9737 H   0  0  0  0  0  0  0  0  0  0  0  0
  148.1450  135.4678  163.7210 H   0  0  0  0  0  0  0  0  0  0  0  0
  147.5875  137.6927  162.7552 H   0  0  0  0  0  0  0  0  0  0  0  0
  145.8151  137.8944  161.0353 H   0  0  0  0  0  0  0  0  0  0  0  0
  143.0888  138.0233  160.1550 H   0  0  0  0  0  0  0  0  0  0  0  0
  140.9489  138.9480  160.9944 H   0  0  0  0  0  0  0  0  0  0  0  0
  138.9483  139.0098  159.5166 H   0  0  0  0  0  0  0  0  0  0  0  0
  139.0892  138.1234  157.1957 H   0  0  0  0  0  0  0  0  0  0  0  0
  141.2220  137.1924  156.3458 H   0  0  0  0  0  0  0  0  0  0  0  0
  148.4196  134.2699  158.5533 H   0  0  0  0  0  0  0  0  0  0  0  0
  148.8680  140.3348  155.3041 H   0  0  0  0  0  0  0  0  0  0  0  0
  149.0757  139.2994  153.2417 H   0  0  0  0  0  0  0  0  0  0  0  0
  151.0359  141.3067  155.7549 H   0  0  0  0  0  0  0  0  0  0  0  0
  154.2356  140.8505  161.9370 H   0  0  0  0  0  0  0  0  0  0  0  0
  153.7689  142.5532  163.6599 H   0  0  0  0  0  0  0  0  0  0  0  0
  152.4572  144.5890  163.0915 H   0  0  0  0  0  0  0  0  0  0  0  0
  151.6129  144.9135  160.7743 H   0  0  0  0  0  0  0  0  0  0  0  0
  152.0634  143.2334  159.0362 H   0  0  0  0  0  0  0  0  0  0  0  0
  1  2  2  0  0  0  0
  2  3  1  0  0  0  0
  2 38  1  0  0  0  0
  3  4  1  0  0  0  0
  4  5  1  0  0  0  0
  4 44  1  0  0  0  0
  4 45  1  0  0  0  0
  5 36  1  0  0  0  0
  5  6  1  0  0  0  0
  5 46  1  0  0  0  0
  6  7  1  0  0  0  0
  7  8  1  0  0  0  0
  7 34  1  0  0  0  0
  7 47  1  0  0  0  0
  8 33  1  0  0  0  0
  8  9  1  0  0  0  0
  9 10  2  0  0  0  0
  9 48  1  0  0  0  0
 10 11  1  0  0  0  0
 11 33  2  0  0  0  0
 11 12  1  0  0  0  0
 12 13  1  0  0  0  0
 12 30  2  0  0  0  0
 13 14  1  0  0  0  0
 13 22  1  0  0  0  0
 14 15  2  0  0  0  0
 14 16  1  0  0  0  0
 16 21  1  0  0  0  0
 16 17  2  0  0  0  0
 17 18  1  0  0  0  0
 17 49  1  0  0  0  0
 18 19  2  0  0  0  0
 18 50  1  0  0  0  0
 19 20  1  0  0  0  0
 19 51  1  0  0  0  0
 20 21  2  0  0  0  0
 20 52  1  0  0  0  0
 21 53  1  0  0  0  0
 22 23  2  0  0  0  0
 22 24  1  0  0  0  0
 24 29  1  0  0  0  0
 24 25  2  0  0  0  0
 25 26  1  0  0  0  0
 25 54  1  0  0  0  0
 26 27  2  0  0  0  0
 26 55  1  0  0  0  0
 27 28  1  0  0  0  0
 27 56  1  0  0  0  0
 28 29  2  0  0  0  0
 28 57  1  0  0  0  0
 29 58  1  0  0  0  0
 30 31  1  0  0  0  0
 31 32  2  0  0  0  0
 31 59  1  0  0  0  0
 32 33  1  0  0  0  0
 34 35  1  0  0  0  0
 34 36  1  0  0  0  0
 34 60  1  0  0  0  0
 35 61  1  0  0  0  0
 36 37  1  0  0  0  0
 36 62  1  0  0  0  0
 38 43  1  0  0  0  0
 38 39  2  0  0  0  0
 39 40  1  0  0  0  0
 39 63  1  0  0  0  0
 40 41  2  0  0  0  0
 40 64  1  0  0  0  0
 41 42  1  0  0  0  0
 41 65  1  0  0  0  0
 42 43  2  0  0  0  0
 42 66  1  0  0  0  0
 43 67  1  0  0  0  0
M  END
> <s_m_source_file>
AV-unprocessed.smi

> <i_m_source_file_index>
33

> <i_lp_mmshare_version>
43012

> <i_f3d_flags>
0

> <s_epik_input>
W2NIXTFbY0hdW2NIXVtjSF1bY0hdYzFDKD1PKU9bQ0gyXVtDQEBIXTJPW0NASF0oW0NAQEhdKFtPSF0pW0NAQEhdMkYpbihbY0hdbjMpYyhjMzQpbltjSF1uYzROKEMoPU8pYzVbY0hdW2NIXVtjSF1bY0hdW2NIXTUpQyg9TyljNltjSF1bY0hdW2NIXVtjSF1bY0hdNg==

> <s_epik_cmdline>
J2VwaWtfcHl0aG9uJywgJy1waCcsICc3LjAnLCAnLXRuJywgJzgnLCAnLW1hJywgJzIwMCcsICctbWV0YWxfYmluZGluZycsICctaW1hZScsICc8aW5maWxlLm1hZT4nLCAnLW9tYWUnLCAnPG91dGZpbGUubWFlPic=

> <r_lp_tautomer_probability>
1

> <r_epik_Ionization_Penalty>
0.00067664

> <r_epik_Ionization_Penalty_Charging>
0

> <r_epik_Ionization_Penalty_Neutral>
0.00067664

> <r_epik_State_Penalty>
0.000428095

> <r_epik_Charging_Adjusted_Penalty>
0.000428095

> <i_epik_Tot_Q>
0

> <i_epik_Tot_abs_Q>
0

> <r_epik_Metal_State_Penalty>
-0

> <b_epik_Metal_Only>
0

> <s_epik_Chemistry_Notes>
This compound has an ester and may undergo hydrolysis at high or low pH. This compound contains an acetal/aminal-like group ( X-CH(R)-Y where X, Y are N, S, or O) that may be acid/base labile, releasing an aldehyde.

> <s_lp_Force_Field>
OPLS_2005

> <r_lp_Energy>
70.8142

> <b_lp_Chiralities_Consistent>
1

> <s_lp_Variant>
AV-unprocessed.smi:33-5

> <Gold.Version>
5.8.1

> <Gold.Id.Protein>
6NUR|6NUR_protein|mol2

> <Gold.PLP.Fitness>
57.5231

> <Gold.PLP.PLP>
-55.5541

> <Gold.PLP.part.hbond>
-2.8285

> <Gold.PLP.part.metal>
0.0000

> <Gold.PLP.part.buried>
-3.7882

> <Gold.PLP.part.nonpolar>
-47.5962

> <Gold.PLP.part.repulsive>
0.0000

> <Gold.PLP.ligand.clash>
0.0000

> <Gold.PLP.ligand.torsion>
3.4517

> <Gold.PLP.Chemscore.Hbond>
1.5721

> <Gold.PLP.Chemscore.CHOScore>
0.0000

> <Gold.PLP.Chemscore.Metal>
0.0000

> <Gold.Chemscore.Hbonds>
donor molecule, donor type, donor heavy atom, donor atom, acceptor molecule, acceptor atom, score
      P1  H  7989  7998       L1    35  0.58
      P1  H  7997  8008       L1     1  0.86

> <Gold.PLP.Chemscore.Internal.Correction>
4.1560

> <Gold.Rescore>
     Score         DG    S(hbond)    S(metal)    S(lipo)     H(rot)  DE(clash)    DE(int)     intcor
      5.65     -18.08       0.84        0.00     138.84       2.52       0.87      11.55       ----

> <Gold.Chemscore.Fitness>
5.6536

> <Gold.Chemscore.DG>
-18.0762

> <Gold.Chemscore.ZeroCoef>
-5.4800

> <Gold.Chemscore.Hbond>
0.8428

> <Gold.Chemscore.Metal>
0.0000

> <Gold.Chemscore.Lipo>
138.8414

> <Gold.Chemscore.Internal_Hbond>
0.0000

> <Gold.Chemscore.DEClash>
0.8728

> <Gold.Chemscore.DEInternal>
11.5498

> <Gold.Chemscore.Rot>
2.5247

> <Gold.Chemscore.Internal.Correction>
   9.000000E+99

> <Gold.Chemscore.Hbonds>
donor molecule, donor type, donor heavy atom, donor atom, acceptor molecule, acceptor atom, score
      P1  H  7989  7998       L1    35  0.13
      P1  H  7997  8008       L1     1  0.40

> <Gold.Chemscore.Hbond.Weighted>
-2.8151

> <Gold.Chemscore.Metal.Weighted>
-0.0000

> <Gold.Chemscore.Lipo.Weighted>
-16.2444

> <Gold.Chemscore.Internal_Hbond.Weighted>
0.0000

> <Gold.Chemscore.DEClash.Weighted>
0.8728

> <Gold.Chemscore.DEInternal.Weighted>
11.5498

> <Gold.Chemscore.Rot.Weighted>
6.4633

> <Gold.Chemscore.Internal.Correction.Weighted>
   9.000000E+99

> <Gold.Protein.RotatedTorsions>
[ 6907 6896 6895 6894 ] final -125.09 input  -60.11 | X-H torsion
[ 7974 7965 7964 7962 ] final  -16.01 input  175.53 | X-H torsion
[ 8008 7997 7996 7995 ] final -116.75 input   59.86 | X-H torsion
[ 10167 10162 10161 10158 ] final   78.25 input  -65.29 | X-H torsion
[ 10718 10713 10712 10709 ] final -148.40 input   66.30 | X-H torsion
[ 10763 10752 10751 10750 ] final  111.78 input  -60.55 | X-H torsion
[ 11005 11000 10999 10996 ] final -167.70 input  -57.11 | X-H torsion

> <Gold.Protein.ActiveResidues>
 VAL166  LYS551  ARG553  GLY616  TRP617  ASP618  TYR619  PRO620  LYS621  CYS622 
 ASP623  PHE694  ASN695  SER759  ASP760  ASP761  ALA762  ILE779  LEU786  VAL792 
 PHE793  MET794  SER795  GLU796  ALA797  LYS798  CYS799  TRP800  GLU811  SER814 

> <Gold.Protein.RotatedAtoms>
  150.8833  133.7342  159.2925 H   0  0  0  0  0  0  0  0  0  0  0  0  # atno 6907 bound_to 6896
  151.4917  135.1056  159.9815 H   0  0  0  0  0  0  0  0  0  0  0  0  # atno 6908 bound_to 6896
  152.4774  133.8124  159.7066 H   0  0  0  0  0  0  0  0  0  0  0  0  # atno 6909 bound_to 6896
  146.2007  140.3575  142.8424 H   0  0  0  0  0  0  0  0  0  0  0  0  # atno 7974 bound_to 7965
  155.0728  140.0393  157.2614 H   0  0  0  0  0  0  0  0  0  0  0  0  # atno 8008 bound_to 7997
  154.6969  140.2665  155.6733 H   0  0  0  0  0  0  0  0  0  0  0  0  # atno 8009 bound_to 7997
  156.2747  140.2748  156.1566 H   0  0  0  0  0  0  0  0  0  0  0  0  # atno 8010 bound_to 7997
  139.9730  144.5881  150.7969 H   0  0  0  0  0  0  0  0  0  0  0  0  # atno 10167 bound_to 10162
  156.4197  130.8023  151.2245 H   0  0  0  0  0  0  0  0  0  0  0  0  # atno 10718 bound_to 10713
  153.4683  135.3706  155.2377 H   0  0  0  0  0  0  0  0  0  0  0  0  # atno 10763 bound_to 10752
  154.8757  135.3925  154.3842 H   0  0  0  0  0  0  0  0  0  0  0  0  # atno 10764 bound_to 10752
  153.4427  135.7084  153.6223 H   0  0  0  0  0  0  0  0  0  0  0  0  # atno 10765 bound_to 10752
  140.5503  134.5435  157.5121 H   0  0  0  0  0  0  0  0  0  0  0  0  # atno 11005 bound_to 11000
  144.8677  140.7228  143.6067 LP  0  0  0  0  0  0  0  0  0  0  0  0  # atno 17320 bound_to 7965
  145.3494  139.1710  143.4443 LP  0  0  0  0  0  0  0  0  0  0  0  0  # atno 17321 bound_to 7965
  140.7515  143.2974  151.3168 LP  0  0  0  0  0  0  0  0  0  0  0  0  # atno 17342 bound_to 10162
  139.6467  144.0438  152.2596 LP  0  0  0  0  0  0  0  0  0  0  0  0  # atno 17343 bound_to 10162
  157.7508  131.0232  150.3823 LP  0  0  0  0  0  0  0  0  0  0  0  0  # atno 17370 bound_to 10713
  156.4138  130.3939  149.6873 LP  0  0  0  0  0  0  0  0  0  0  0  0  # atno 17371 bound_to 10713
  139.9458  134.7704  156.0565 LP  0  0  0  0  0  0  0  0  0  0  0  0  # atno 17394 bound_to 11000
  141.1175  133.6623  156.3131 LP  0  0  0  0  0  0  0  0  0  0  0  0  # atno 17395 bound_to 11000

$$$$
