AV-unprocessed.smi:21|AV-procd|sdf|131|dock7
  -GOLD-   2262015323D 1   1.00000     0.00000
 Structure written by MMmdl.
 62 65  0  0  0  0  0  0  0  0  2 V2000
  148.0640  127.0484  151.9284 C   0  0  0  0  0  0  0  0  0  0  0  0
  148.1304  128.3433  152.5049 O   0  0  0  0  0  0  0  0  0  0  0  0
  146.8670  128.8586  152.9047 C   0  0  1  0  0  0  0  0  0  0  0  0
  147.0875  130.1359  153.7051 C   0  0  0  0  0  0  0  0  0  0  0  0
  147.3097  131.2099  152.6334 C   0  0  2  0  0  0  0  0  0  0  0  0
  147.0113  132.6522  153.1177 C   0  0  0  0  0  0  0  0  0  0  0  0
  148.0592  133.1959  153.9813 N   0  0  0  0  0  0  0  0  0  0  0  0
  149.2931  132.4244  154.1292 C   0  0  0  0  0  0  0  0  0  0  0  0
  148.0456  134.5048  154.3765 C   0  0  0  0  0  0  0  0  0  0  0  0
  146.8820  135.1994  154.2467 N   0  0  0  0  0  0  0  0  0  0  0  0
  146.7926  136.4760  154.6260 C   0  0  0  0  0  0  0  0  0  0  0  0
  147.7349  137.2529  155.1568 N   0  0  0  0  0  0  0  0  0  0  0  0
  148.9119  136.5791  155.2867 C   0  0  0  0  0  0  0  0  0  0  0  0
  149.1573  135.2204  154.9256 C   0  0  0  0  0  0  0  0  0  0  0  0
  150.4839  134.9076  155.2120 N   0  0  0  0  0  0  0  0  0  0  0  0
  150.9837  136.0029  155.7125 C   0  0  0  0  0  0  0  0  0  0  0  0
  150.1109  137.0625  155.7810 N   0  0  0  0  0  0  0  0  0  0  0  0
  150.3931  138.3870  156.3081 C   0  0  0  0  0  0  0  0  0  0  0  0
  151.3244  139.2514  155.4182 C   0  0  2  0  0  0  0  0  0  0  0  0
  152.6288  138.4535  155.1721 C   0  0  0  0  0  0  0  0  0  0  0  0
  153.6414  139.2588  154.6051 O   0  0  0  0  0  0  0  0  0  0  0  0
  151.6034  140.6606  156.0254 C   0  0  1  0  0  0  0  0  0  0  0  0
  150.4109  141.6038  156.0655 C   0  0  0  0  0  0  0  0  0  0  0  0
  150.8634  142.6561  157.0665 C   0  0  0  0  0  0  0  0  0  0  0  0
  151.5727  141.9234  158.0532 O   0  0  0  0  0  0  0  0  0  0  0  0
  152.0203  140.6868  157.5051 C   0  0  0  0  0  0  0  0  0  0  0  0
  146.5432  130.7514  151.4385 N   0  3  2  0  0  0  0  0  0  0  0  0
  145.4762  131.6405  150.9210 C   0  0  0  0  0  0  0  0  0  0  0  0
  146.0754  129.3690  151.6961 C   0  0  0  0  0  0  0  0  0  0  0  0
  146.3139  128.1211  153.4890 H   0  0  0  0  0  0  0  0  0  0  0  0
  148.3549  131.1509  152.3291 H   0  0  0  0  0  0  0  0  0  0  0  0
  149.0635  126.7311  151.6317 H   0  0  0  0  0  0  0  0  0  0  0  0
  147.4310  127.0297  151.0414 H   0  0  0  0  0  0  0  0  0  0  0  0
  147.6819  126.3201  152.6445 H   0  0  0  0  0  0  0  0  0  0  0  0
  146.1879  130.3622  154.2792 H   0  0  0  0  0  0  0  0  0  0  0  0
  147.9187  130.0582  154.4069 H   0  0  0  0  0  0  0  0  0  0  0  0
  146.8508  133.3329  152.2843 H   0  0  0  0  0  0  0  0  0  0  0  0
  146.0710  132.6599  153.6694 H   0  0  0  0  0  0  0  0  0  0  0  0
  149.6135  132.4062  155.1716 H   0  0  0  0  0  0  0  0  0  0  0  0
  150.0940  132.8560  153.5278 H   0  0  0  0  0  0  0  0  0  0  0  0
  149.1590  131.3907  153.8106 H   0  0  0  0  0  0  0  0  0  0  0  0
  145.8276  136.9403  154.4850 H   0  0  0  0  0  0  0  0  0  0  0  0
  152.0103  136.0703  156.0424 H   0  0  0  0  0  0  0  0  0  0  0  0
  149.4531  138.9110  156.4839 H   0  0  0  0  0  0  0  0  0  0  0  0
  150.8429  138.2373  157.2902 H   0  0  0  0  0  0  0  0  0  0  0  0
  150.8340  139.3782  154.4518 H   0  0  0  0  0  0  0  0  0  0  0  0
  152.9898  138.0005  156.0961 H   0  0  0  0  0  0  0  0  0  0  0  0
  152.4596  137.6373  154.4692 H   0  0  0  0  0  0  0  0  0  0  0  0
  153.8487  138.9217  153.7468 H   0  0  0  0  0  0  0  0  0  0  0  0
  152.3879  141.1459  155.4422 H   0  0  0  0  0  0  0  0  0  0  0  0
  150.1698  142.0363  155.0941 H   0  0  0  0  0  0  0  0  0  0  0  0
  149.5269  141.0885  156.4440 H   0  0  0  0  0  0  0  0  0  0  0  0
  151.5437  143.3659  156.5940 H   0  0  0  0  0  0  0  0  0  0  0  0
  150.0324  143.2137  157.4991 H   0  0  0  0  0  0  0  0  0  0  0  0
  151.5443  139.8808  158.0642 H   0  0  0  0  0  0  0  0  0  0  0  0
  153.0986  140.5967  157.6296 H   0  0  0  0  0  0  0  0  0  0  0  0
  144.7066  131.8200  151.6727 H   0  0  0  0  0  0  0  0  0  0  0  0
  144.9976  131.1839  150.0543 H   0  0  0  0  0  0  0  0  0  0  0  0
  145.8832  132.5979  150.5959 H   0  0  0  0  0  0  0  0  0  0  0  0
  146.1784  128.7435  150.8099 H   0  0  0  0  0  0  0  0  0  0  0  0
  145.0159  129.3878  151.9579 H   0  0  0  0  0  0  0  0  0  0  0  0
  147.2279  130.6817  150.6989 H   0  0  0  0  0  0  0  0  0  0  0  0
  1  2  1  0  0  0  0
  1 32  1  0  0  0  0
  1 33  1  0  0  0  0
  1 34  1  0  0  0  0
  2  3  1  0  0  0  0
  3 30  1  0  0  0  0
  3 29  1  0  0  0  0
  3  4  1  0  0  0  0
  4  5  1  0  0  0  0
  4 35  1  0  0  0  0
  4 36  1  0  0  0  0
  5 31  1  0  0  0  0
  5  6  1  0  0  0  0
  5 27  1  0  0  0  0
  6  7  1  0  0  0  0
  6 37  1  0  0  0  0
  6 38  1  0  0  0  0
  7  8  1  0  0  0  0
  7  9  1  0  0  0  0
  8 39  1  0  0  0  0
  8 40  1  0  0  0  0
  8 41  1  0  0  0  0
  9 14  1  0  0  0  0
  9 10  2  0  0  0  0
 10 11  1  0  0  0  0
 11 12  2  0  0  0  0
 11 42  1  0  0  0  0
 12 13  1  0  0  0  0
 13 17  1  0  0  0  0
 13 14  2  0  0  0  0
 14 15  1  0  0  0  0
 15 16  2  0  0  0  0
 16 17  1  0  0  0  0
 16 43  1  0  0  0  0
 17 18  1  0  0  0  0
 18 19  1  0  0  0  0
 18 44  1  0  0  0  0
 18 45  1  0  0  0  0
 19 20  1  0  0  0  0
 19 22  1  0  0  0  0
 19 46  1  0  0  0  0
 20 21  1  0  0  0  0
 20 47  1  0  0  0  0
 20 48  1  0  0  0  0
 21 49  1  0  0  0  0
 22 26  1  0  0  0  0
 22 23  1  0  0  0  0
 22 50  1  0  0  0  0
 23 24  1  0  0  0  0
 23 51  1  0  0  0  0
 23 52  1  0  0  0  0
 24 25  1  0  0  0  0
 24 53  1  0  0  0  0
 24 54  1  0  0  0  0
 25 26  1  0  0  0  0
 26 55  1  0  0  0  0
 26 56  1  0  0  0  0
 27 28  1  0  0  0  0
 27 29  1  0  0  0  0
 27 62  1  0  0  0  0
 28 57  1  0  0  0  0
 28 58  1  0  0  0  0
 28 59  1  0  0  0  0
 29 60  1  0  0  0  0
 29 61  1  0  0  0  0
M  CHG  1  27   1
M  END
> <s_m_source_file>
AV-unprocessed.smi

> <i_m_source_file_index>
21

> <i_lp_mmshare_version>
43012

> <i_f3d_flags>
0

> <s_epik_input>
W0NIM11PW0NASF0xW0NIMl1bQ0BIXShOKFtDSDNdKVtDSDJdMSlbQ0gyXU4oW0NIM10pYyhuW2NIXW4yKWMoYzIzKW5bY0hdbjNbQ0gyXVtDQEhdKFtDSDJdW09IXSlbQ0BASF00W0NIMl1bQ0gyXU9bQ0gyXTQ=

> <s_epik_cmdline>
J2VwaWtfcHl0aG9uJywgJy1waCcsICc3LjAnLCAnLXRuJywgJzgnLCAnLW1hJywgJzIwMCcsICctbWV0YWxfYmluZGluZycsICctaW1hZScsICc8aW5maWxlLm1hZT4nLCAnLW9tYWUnLCAnPG91dGZpbGUubWFlPic=

> <r_lp_tautomer_probability>
1

> <r_epik_Ionization_Penalty>
0.0157465

> <r_epik_Ionization_Penalty_Charging>
0.015354

> <r_epik_Ionization_Penalty_Neutral>
0.000392529

> <r_epik_State_Penalty>
0.0120612

> <r_epik_Charging_Adjusted_Penalty>
0.0274152

> <i_epik_Tot_Q>
1

> <i_epik_Tot_abs_Q>
1

> <r_epik_Metal_State_Penalty>
0.0121253

> <b_epik_Metal_Only>
0

> <s_lp_Force_Field>
OPLS_2005

> <r_lp_Energy>
62.3844

> <b_lp_Chiralities_Consistent>
1

> <s_lp_Variant>
AV-unprocessed.smi:21-11

> <Gold.Version>
5.8.1

> <Gold.Id.Protein>
6NUR|6NUR_protein|mol2

> <Gold.PLP.Fitness>
47.9693

> <Gold.PLP.PLP>
-42.7800

> <Gold.PLP.part.hbond>
-2.0000

> <Gold.PLP.part.metal>
0.0000

> <Gold.PLP.part.buried>
-5.0456

> <Gold.PLP.part.nonpolar>
-36.1575

> <Gold.PLP.part.repulsive>
0.4376

> <Gold.PLP.ligand.clash>
0.0000

> <Gold.PLP.ligand.torsion>
0.6974

> <Gold.PLP.Chemscore.Hbond>
1.9280

> <Gold.PLP.Chemscore.CHOScore>
0.0000

> <Gold.PLP.Chemscore.Metal>
0.0000

> <Gold.Chemscore.Hbonds>
donor molecule, donor type, donor heavy atom, donor atom, acceptor molecule, acceptor atom, score
      L1  H    27    62       P1 10747  0.93
      P1  H  7997  8008       L1    21  1.00

> <Gold.PLP.Chemscore.Internal.Correction>
0.8001

> <Gold.Rescore>
     Score         DG    S(hbond)    S(metal)    S(lipo)     H(rot)  DE(clash)    DE(int)     intcor
     12.84     -15.44       1.84        0.00      99.79       3.08       0.06       2.54       ----

> <Gold.Chemscore.Fitness>
12.8380

> <Gold.Chemscore.DG>
-15.4433

> <Gold.Chemscore.ZeroCoef>
-5.4800

> <Gold.Chemscore.Hbond>
1.8448

> <Gold.Chemscore.Metal>
0.0000

> <Gold.Chemscore.Lipo>
99.7943

> <Gold.Chemscore.Internal_Hbond>
0.0000

> <Gold.Chemscore.DEClash>
0.0640

> <Gold.Chemscore.DEInternal>
2.5414

> <Gold.Chemscore.Rot>
3.0758

> <Gold.Chemscore.Internal.Correction>
   9.000000E+99

> <Gold.Chemscore.Hbonds>
donor molecule, donor type, donor heavy atom, donor atom, acceptor molecule, acceptor atom, score
      L1  H    27    62       P1 10747  0.90
      P1  H  7997  8008       L1    21  0.90

> <Gold.Chemscore.Hbond.Weighted>
-6.1616

> <Gold.Chemscore.Metal.Weighted>
-0.0000

> <Gold.Chemscore.Lipo.Weighted>
-11.6759

> <Gold.Chemscore.Internal_Hbond.Weighted>
0.0000

> <Gold.Chemscore.DEClash.Weighted>
0.0640

> <Gold.Chemscore.DEInternal.Weighted>
2.5414

> <Gold.Chemscore.Rot.Weighted>
7.8741

> <Gold.Chemscore.Internal.Correction.Weighted>
   9.000000E+99

> <Gold.Protein.RotatedTorsions>
[ 6907 6896 6895 6894 ] final  148.30 input  -60.11 | X-H torsion
[ 7974 7965 7964 7962 ] final  -73.88 input  175.53 | X-H torsion
[ 8008 7997 7996 7995 ] final   -6.78 input   59.86 | X-H torsion
[ 10167 10162 10161 10158 ] final   74.65 input  -65.29 | X-H torsion
[ 10718 10713 10712 10709 ] final  -16.71 input   66.30 | X-H torsion
[ 10763 10752 10751 10750 ] final  -24.26 input  -60.55 | X-H torsion
[ 11005 11000 10999 10996 ] final -107.30 input  -57.11 | X-H torsion

> <Gold.Protein.ActiveResidues>
 VAL166  LYS551  ARG553  GLY616  TRP617  ASP618  TYR619  PRO620  LYS621  CYS622 
 ASP623  PHE694  ASN695  SER759  ASP760  ASP761  ALA762  ILE779  LEU786  VAL792 
 PHE793  MET794  SER795  GLU796  ALA797  LYS798  CYS799  TRP800  GLU811  SER814 

> <Gold.Protein.RotatedAtoms>
  152.1434  133.4477  159.4777 H   0  0  0  0  0  0  0  0  0  0  0  0  # atno 6907 bound_to 6896
  150.6888  134.2278  159.4431 H   0  0  0  0  0  0  0  0  0  0  0  0  # atno 6908 bound_to 6896
  152.0170  134.9844  160.0620 H   0  0  0  0  0  0  0  0  0  0  0  0  # atno 6909 bound_to 6896
  145.6464  140.9295  143.1008 H   0  0  0  0  0  0  0  0  0  0  0  0  # atno 7974 bound_to 7965
  154.5904  140.2424  155.7929 H   0  0  0  0  0  0  0  0  0  0  0  0  # atno 8008 bound_to 7997
  156.2243  140.2987  155.9982 H   0  0  0  0  0  0  0  0  0  0  0  0  # atno 8009 bound_to 7997
  155.2384  140.0406  157.2962 H   0  0  0  0  0  0  0  0  0  0  0  0  # atno 8010 bound_to 7997
  140.0115  144.5610  150.7655 H   0  0  0  0  0  0  0  0  0  0  0  0  # atno 10167 bound_to 10162
  156.5837  130.4781  149.6309 H   0  0  0  0  0  0  0  0  0  0  0  0  # atno 10718 bound_to 10713
  153.6809  135.6967  153.5118 H   0  0  0  0  0  0  0  0  0  0  0  0  # atno 10763 bound_to 10752
  153.2485  135.4282  155.0772 H   0  0  0  0  0  0  0  0  0  0  0  0  # atno 10764 bound_to 10752
  154.8400  135.3525  154.6353 H   0  0  0  0  0  0  0  0  0  0  0  0  # atno 10765 bound_to 10752
  141.0961  133.8969  157.1959 H   0  0  0  0  0  0  0  0  0  0  0  0  # atno 11005 bound_to 11000
  144.7138  139.8271  143.7405 LP  0  0  0  0  0  0  0  0  0  0  0  0  # atno 17320 bound_to 7965
  146.1239  139.4262  143.0211 LP  0  0  0  0  0  0  0  0  0  0  0  0  # atno 17321 bound_to 7965
  140.7379  143.2772  151.3706 LP  0  0  0  0  0  0  0  0  0  0  0  0  # atno 17342 bound_to 10162
  139.6202  144.0922  152.2384 LP  0  0  0  0  0  0  0  0  0  0  0  0  # atno 17343 bound_to 10162
  156.2609  130.6962  151.1730 LP  0  0  0  0  0  0  0  0  0  0  0  0  # atno 17370 bound_to 10713
  157.7320  131.0603  150.5648 LP  0  0  0  0  0  0  0  0  0  0  0  0  # atno 17371 bound_to 10713
  139.9798  135.0102  156.9721 LP  0  0  0  0  0  0  0  0  0  0  0  0  # atno 17394 bound_to 11000
  140.5137  134.0977  155.7276 LP  0  0  0  0  0  0  0  0  0  0  0  0  # atno 17395 bound_to 11000

$$$$
