AV-unprocessed.smi:3261|AV-procd|sdf|12480|dock4
  -GOLD-   2272018383D 1   1.00000     0.00000
 Structure written by MMmdl.
 31 32  0  0  0  0  0  0  0  0  2 V2000
  147.2390  133.5573  153.5771 O   0  0  0  0  0  0  0  0  0  0  0  0
  147.6623  132.7262  152.7771 C   0  0  0  0  0  0  0  0  0  0  0  0
  147.0865  132.4368  151.5929 N   0  0  0  0  0  0  0  0  0  0  0  0
  145.8861  132.9514  151.0305 C   0  0  0  0  0  0  0  0  0  0  0  0
  145.1270  132.0826  150.2154 C   0  0  0  0  0  0  0  0  0  0  0  0
  143.9198  132.5378  149.6468 C   0  0  0  0  0  0  0  0  0  0  0  0
  143.4939  133.7953  149.8918 N   0  3  0  0  0  0  0  0  0  0  0  0
  144.1770  134.6580  150.6741 C   0  0  0  0  0  0  0  0  0  0  0  0
  145.3911  134.2594  151.2696 C   0  0  0  0  0  0  0  0  0  0  0  0
  148.7924  132.0394  153.0248 N   0  0  0  0  0  0  0  0  0  0  0  0
  149.6587  132.1099  154.2027 C   0  0  2  0  0  0  0  0  0  0  0  0
  150.4085  130.7819  154.4174 C   0  0  0  0  0  0  0  0  0  0  0  0
  151.0092  130.7779  155.8290 C   0  0  0  0  0  0  0  0  0  0  0  0
  149.8855  131.7906  156.8648 S   0  0  0  0  0  0  0  0  0  0  0  0
  149.0690  130.9124  157.7161 O   0  0  0  0  0  0  0  0  0  0  0  0
  150.6469  132.9096  157.4400 O   0  0  0  0  0  0  0  0  0  0  0  0
  148.8571  132.4068  155.4802 C   0  0  0  0  0  0  0  0  0  0  0  0
  147.5961  131.7933  151.0052 H   0  0  0  0  0  0  0  0  0  0  0  0
  145.4659  131.0751  150.0214 H   0  0  0  0  0  0  0  0  0  0  0  0
  143.2861  131.9376  149.0100 H   0  0  0  0  0  0  0  0  0  0  0  0
  143.7325  135.6339  150.8048 H   0  0  0  0  0  0  0  0  0  0  0  0
  145.9070  134.9617  151.9057 H   0  0  0  0  0  0  0  0  0  0  0  0
  149.0960  131.4055  152.2992 H   0  0  0  0  0  0  0  0  0  0  0  0
  150.4123  132.8882  154.0700 H   0  0  0  0  0  0  0  0  0  0  0  0
  149.7034  129.9533  154.3370 H   0  0  0  0  0  0  0  0  0  0  0  0
  151.1746  130.6209  153.6583 H   0  0  0  0  0  0  0  0  0  0  0  0
  151.1069  129.7755  156.2464 H   0  0  0  0  0  0  0  0  0  0  0  0
  151.9903  131.2534  155.8339 H   0  0  0  0  0  0  0  0  0  0  0  0
  148.6386  133.4655  155.6190 H   0  0  0  0  0  0  0  0  0  0  0  0
  147.9177  131.8524  155.4937 H   0  0  0  0  0  0  0  0  0  0  0  0
  142.6168  134.1050  149.4726 H   0  0  0  0  0  0  0  0  0  0  0  0
  1  2  2  0  0  0  0
  2  3  1  0  0  0  0
  2 10  1  0  0  0  0
  3  4  1  0  0  0  0
  3 18  1  0  0  0  0
  4  9  1  0  0  0  0
  4  5  2  0  0  0  0
  5  6  1  0  0  0  0
  5 19  1  0  0  0  0
  6  7  2  0  0  0  0
  6 20  1  0  0  0  0
  7  8  1  0  0  0  0
  7 31  1  0  0  0  0
  8  9  2  0  0  0  0
  8 21  1  0  0  0  0
  9 22  1  0  0  0  0
 10 11  1  0  0  0  0
 10 23  1  0  0  0  0
 11 17  1  0  0  0  0
 11 12  1  0  0  0  0
 11 24  1  0  0  0  0
 12 13  1  0  0  0  0
 12 25  1  0  0  0  0
 12 26  1  0  0  0  0
 13 14  1  0  0  0  0
 13 27  1  0  0  0  0
 13 28  1  0  0  0  0
 14 15  2  0  0  0  0
 14 16  2  0  0  0  0
 14 17  1  0  0  0  0
 17 29  1  0  0  0  0
 17 30  1  0  0  0  0
M  CHG  1   7   1
M  END
> <s_m_source_file>
AV-unprocessed.smi

> <i_m_source_file_index>
3261

> <i_lp_mmshare_version>
43012

> <i_f3d_flags>
0

> <s_epik_input>
Tz1TMSg9TylbQ0gyXVtDSDJdW0NASF0oW0NIMl0xKVtOSF1DKD1PKVtOSF1jMltjSF1bY0hdbltjSF1bY0hdMg==

> <s_epik_cmdline>
J2VwaWtfcHl0aG9uJywgJy1waCcsICc3LjAnLCAnLXRuJywgJzgnLCAnLW1hJywgJzIwMCcsICctbWV0YWxfYmluZGluZycsICctaW1hZScsICc8aW5maWxlLm1hZT4nLCAnLW9tYWUnLCAnPG91dGZpbGUubWFlPic=

> <r_epik_Ionization_Penalty>
1.10375

> <r_epik_Ionization_Penalty_Charging>
1.10372

> <r_epik_Ionization_Penalty_Neutral>
2.06752e-05

> <r_epik_State_Penalty>
1.16109

> <r_epik_Charging_Adjusted_Penalty>
2.26482

> <i_epik_Tot_Q>
1

> <i_epik_Tot_abs_Q>
1

> <r_epik_Metal_State_Penalty>
1.24883

> <b_epik_Metal_Only>
0

> <s_lp_Force_Field>
OPLS_2005

> <r_lp_Energy>
25.5271

> <b_lp_Chiralities_Consistent>
1

> <s_lp_Variant>
AV-unprocessed.smi:3261-3

> <Gold.Version>
5.8.1

> <Gold.Id.Protein>
6NUR|6NUR_protein|mol2

> <Gold.PLP.Fitness>
42.7789

> <Gold.PLP.PLP>
-29.2919

> <Gold.PLP.part.hbond>
-4.0000

> <Gold.PLP.part.metal>
0.0000

> <Gold.PLP.part.buried>
-5.0236

> <Gold.PLP.part.nonpolar>
-20.0080

> <Gold.PLP.part.repulsive>
0.1853

> <Gold.PLP.ligand.clash>
0.0000

> <Gold.PLP.ligand.torsion>
0.5768

> <Gold.PLP.Chemscore.Hbond>
4.8800

> <Gold.PLP.Chemscore.CHOScore>
0.0000

> <Gold.PLP.Chemscore.Metal>
0.0000

> <Gold.Chemscore.Hbonds>
donor molecule, donor type, donor heavy atom, donor atom, acceptor molecule, acceptor atom, score
      L1  H     3    18       P1 10747  1.00
      L1  H     7    31       P1 10186  2.00
      L1  H    10    23       P1 10747  0.87
      P1  H  6896  6908       L1    16  1.00

> <Gold.PLP.Chemscore.Internal.Correction>
0.0005

> <Gold.Rescore>
     Score         DG    S(hbond)    S(metal)    S(lipo)     H(rot)  DE(clash)    DE(int)     intcor
     17.53     -20.48       3.13        0.00      60.64       1.00       0.08       2.86       ----

> <Gold.Chemscore.Fitness>
17.5348

> <Gold.Chemscore.DG>
-20.4787

> <Gold.Chemscore.ZeroCoef>
-5.4800

> <Gold.Chemscore.Hbond>
3.1328

> <Gold.Chemscore.Metal>
0.0000

> <Gold.Chemscore.Lipo>
60.6431

> <Gold.Chemscore.Internal_Hbond>
0.0000

> <Gold.Chemscore.DEClash>
0.0849

> <Gold.Chemscore.DEInternal>
2.8591

> <Gold.Chemscore.Rot>
1.0000

> <Gold.Chemscore.Internal.Correction>
   9.000000E+99

> <Gold.Chemscore.Hbonds>
donor molecule, donor type, donor heavy atom, donor atom, acceptor molecule, acceptor atom, score
      L1  H     3    18       P1 10747  1.00
      L1  H     7    31       P1 10186  0.96
      L1  H    10    23       P1 10747  0.44
      P1  H  6896  6908       L1    16  0.99

> <Gold.Chemscore.Hbond.Weighted>
-10.4634

> <Gold.Chemscore.Metal.Weighted>
-0.0000

> <Gold.Chemscore.Lipo.Weighted>
-7.0952

> <Gold.Chemscore.Internal_Hbond.Weighted>
0.0000

> <Gold.Chemscore.DEClash.Weighted>
0.0849

> <Gold.Chemscore.DEInternal.Weighted>
2.8591

> <Gold.Chemscore.Rot.Weighted>
2.5600

> <Gold.Chemscore.Internal.Correction.Weighted>
   9.000000E+99

> <Gold.Protein.RotatedTorsions>
[ 6907 6896 6895 6894 ] final   97.99 input  -60.11 | X-H torsion
[ 7974 7965 7964 7962 ] final   42.81 input  175.53 | X-H torsion
[ 8008 7997 7996 7995 ] final  159.79 input   59.86 | X-H torsion
[ 10167 10162 10161 10158 ] final -113.09 input  -65.29 | X-H torsion
[ 10718 10713 10712 10709 ] final -115.77 input   66.30 | X-H torsion
[ 10763 10752 10751 10750 ] final  143.72 input  -60.55 | X-H torsion
[ 11005 11000 10999 10996 ] final -165.37 input  -57.11 | X-H torsion

> <Gold.Protein.ActiveResidues>
 VAL166  LYS551  ARG553  GLY616  TRP617  ASP618  TYR619  PRO620  LYS621  CYS622 
 ASP623  PHE694  ASN695  SER759  ASP760  ASP761  ALA762  ILE779  LEU786  VAL792 
 PHE793  MET794  SER795  GLU796  ALA797  LYS798  CYS799  TRP800  GLU811  SER814 

> <Gold.Protein.RotatedAtoms>
  152.5416  134.0650  159.8168 H   0  0  0  0  0  0  0  0  0  0  0  0  # atno 6907 bound_to 6896
  151.0772  133.5411  159.2630 H   0  0  0  0  0  0  0  0  0  0  0  0  # atno 6908 bound_to 6896
  151.2252  135.0542  159.9019 H   0  0  0  0  0  0  0  0  0  0  0  0  # atno 6909 bound_to 6896
  146.0709  139.5258  142.9598 H   0  0  0  0  0  0  0  0  0  0  0  0  # atno 7974 bound_to 7965
  156.2215  140.1822  156.7464 H   0  0  0  0  0  0  0  0  0  0  0  0  # atno 8008 bound_to 7997
  154.5874  140.0656  156.9218 H   0  0  0  0  0  0  0  0  0  0  0  0  # atno 8009 bound_to 7997
  155.2396  140.3321  155.4296 H   0  0  0  0  0  0  0  0  0  0  0  0  # atno 8010 bound_to 7997
  140.1156  143.4489  152.1724 H   0  0  0  0  0  0  0  0  0  0  0  0  # atno 10167 bound_to 10162
  156.0918  130.6099  150.8949 H   0  0  0  0  0  0  0  0  0  0  0  0  # atno 10718 bound_to 10713
  153.9770  135.2945  155.3423 H   0  0  0  0  0  0  0  0  0  0  0  0  # atno 10763 bound_to 10752
  154.7290  135.5076  153.8936 H   0  0  0  0  0  0  0  0  0  0  0  0  # atno 10764 bound_to 10752
  153.0872  135.6697  154.0038 H   0  0  0  0  0  0  0  0  0  0  0  0  # atno 10765 bound_to 10752
  140.5765  134.5185  157.5171 H   0  0  0  0  0  0  0  0  0  0  0  0  # atno 11005 bound_to 11000
  145.6393  141.0287  143.1820 LP  0  0  0  0  0  0  0  0  0  0  0  0  # atno 17320 bound_to 7965
  144.7231  139.7964  143.7375 LP  0  0  0  0  0  0  0  0  0  0  0  0  # atno 17321 bound_to 7965
  139.5596  144.7396  151.4194 LP  0  0  0  0  0  0  0  0  0  0  0  0  # atno 17342 bound_to 10162
  140.6901  143.7882  150.7243 LP  0  0  0  0  0  0  0  0  0  0  0  0  # atno 17343 bound_to 10162
  157.6069  131.0938  150.8864 LP  0  0  0  0  0  0  0  0  0  0  0  0  # atno 17370 bound_to 10713
  156.9011  130.5247  149.5283 LP  0  0  0  0  0  0  0  0  0  0  0  0  # atno 17371 bound_to 10713
  139.9337  134.7915  156.0861 LP  0  0  0  0  0  0  0  0  0  0  0  0  # atno 17394 bound_to 11000
  141.1023  133.6672  156.2783 LP  0  0  0  0  0  0  0  0  0  0  0  0  # atno 17395 bound_to 11000

$$$$
