AV-unprocessed.smi:1385|AV-procd|sdf|5629|dock7
  -GOLD-   22720 5243D 1   1.00000     0.00000
 Structure written by MMmdl.
 39 40  0  0  0  0  0  0  0  0  2 V2000
  150.5484  142.3858  157.3557 C   0  0  0  0  0  0  0  0  0  0  0  0
  150.3083  141.4309  156.2368 C   0  0  0  0  0  0  0  0  0  0  0  0
  151.2791  140.6748  155.7102 N   0  0  0  0  0  0  0  0  0  0  0  0
  150.8158  139.8648  154.6826 N   0  0  0  0  0  0  0  0  0  0  0  0
  149.5040  140.0327  154.4664 C   0  0  0  0  0  0  0  0  0  0  0  0
  148.7711  139.3289  153.4743 N   0  0  0  0  0  0  0  0  0  0  0  0
  147.5969  138.6866  153.6056 C   0  0  0  0  0  0  0  0  0  0  0  0
  146.9455  138.5977  154.6468 O   0  0  0  0  0  0  0  0  0  0  0  0
  147.2076  138.1408  152.4439 N   0  0  0  0  0  0  0  0  0  0  0  0
  145.9711  137.3906  152.2435 C   0  0  2  0  0  0  0  0  0  0  0  0
  145.6987  136.4494  153.4309 C   0  0  0  0  0  0  0  0  0  0  0  0
  144.4474  135.5924  153.1803 C   0  0  0  0  0  0  0  0  0  0  0  0
  144.5747  134.8139  151.9192 N   0  3  1  0  0  0  0  0  0  0  0  0
  143.4488  133.8689  151.7013 C   0  0  0  0  0  0  0  0  0  0  0  0
  143.7708  132.7780  150.6745 C   0  0  0  0  0  0  0  0  0  0  0  0
  142.9306  132.6539  149.6448 N   0  0  0  0  0  0  0  0  0  0  0  0
  144.7674  132.0678  150.7970 O   0  0  0  0  0  0  0  0  0  0  0  0
  144.8033  135.7024  150.7509 C   0  0  0  0  0  0  0  0  0  0  0  0
  146.0592  136.5691  150.9472 C   0  0  0  0  0  0  0  0  0  0  0  0
  148.7211  141.2059  155.5115 S   0  0  0  0  0  0  0  0  0  0  0  0
  151.5744  142.7543  157.3293 H   0  0  0  0  0  0  0  0  0  0  0  0
  150.3775  141.8893  158.3111 H   0  0  0  0  0  0  0  0  0  0  0  0
  149.8716  143.2365  157.2760 H   0  0  0  0  0  0  0  0  0  0  0  0
  149.1910  139.3151  152.5567 H   0  0  0  0  0  0  0  0  0  0  0  0
  147.8056  138.2602  151.6392 H   0  0  0  0  0  0  0  0  0  0  0  0
  145.1402  138.0925  152.1469 H   0  0  0  0  0  0  0  0  0  0  0  0
  146.5581  135.7973  153.5951 H   0  0  0  0  0  0  0  0  0  0  0  0
  145.5685  137.0251  154.3481 H   0  0  0  0  0  0  0  0  0  0  0  0
  144.3010  134.9201  154.0260 H   0  0  0  0  0  0  0  0  0  0  0  0
  143.5627  136.2292  153.1284 H   0  0  0  0  0  0  0  0  0  0  0  0
  143.1434  133.4248  152.6504 H   0  0  0  0  0  0  0  0  0  0  0  0
  142.5838  134.4111  151.3165 H   0  0  0  0  0  0  0  0  0  0  0  0
  143.0917  131.9499  148.9388 H   0  0  0  0  0  0  0  0  0  0  0  0
  142.1298  133.2660  149.5753 H   0  0  0  0  0  0  0  0  0  0  0  0
  144.9227  135.1014  149.8487 H   0  0  0  0  0  0  0  0  0  0  0  0
  143.9281  136.3359  150.5973 H   0  0  0  0  0  0  0  0  0  0  0  0
  146.1846  137.2334  150.0912 H   0  0  0  0  0  0  0  0  0  0  0  0
  146.9414  135.9272  150.9723 H   0  0  0  0  0  0  0  0  0  0  0  0
  145.4034  134.2427  152.0082 H   0  0  0  0  0  0  0  0  0  0  0  0
  1  2  1  0  0  0  0
  1 21  1  0  0  0  0
  1 22  1  0  0  0  0
  1 23  1  0  0  0  0
  2 20  1  0  0  0  0
  2  3  2  0  0  0  0
  3  4  1  0  0  0  0
  4  5  2  0  0  0  0
  5  6  1  0  0  0  0
  5 20  1  0  0  0  0
  6  7  1  0  0  0  0
  6 24  1  0  0  0  0
  7  8  2  0  0  0  0
  7  9  1  0  0  0  0
  9 10  1  0  0  0  0
  9 25  1  0  0  0  0
 10 19  1  0  0  0  0
 10 11  1  0  0  0  0
 10 26  1  0  0  0  0
 11 12  1  0  0  0  0
 11 27  1  0  0  0  0
 11 28  1  0  0  0  0
 12 13  1  0  0  0  0
 12 29  1  0  0  0  0
 12 30  1  0  0  0  0
 13 14  1  0  0  0  0
 13 18  1  0  0  0  0
 13 39  1  0  0  0  0
 14 15  1  0  0  0  0
 14 31  1  0  0  0  0
 14 32  1  0  0  0  0
 15 16  1  0  0  0  0
 15 17  2  0  0  0  0
 16 33  1  0  0  0  0
 16 34  1  0  0  0  0
 18 19  1  0  0  0  0
 18 35  1  0  0  0  0
 18 36  1  0  0  0  0
 19 37  1  0  0  0  0
 19 38  1  0  0  0  0
M  CHG  1  13   1
M  END
> <s_m_source_file>
AV-unprocessed.smi

> <i_m_source_file_index>
1385

> <i_lp_mmshare_version>
43012

> <i_f3d_flags>
0

> <s_epik_input>
W0NIM11jMW5uYyhzMSlbTkhdQyg9TylbTkhdW0NIXTJbQ0gyXVtDSDJdTihbQ0gyXVtDSDJdMilbQ0gyXUMoPU8pW05IMl0=

> <s_epik_cmdline>
J2VwaWtfcHl0aG9uJywgJy1waCcsICc3LjAnLCAnLXRuJywgJzgnLCAnLW1hJywgJzIwMCcsICctbWV0YWxfYmluZGluZycsICctaW1hZScsICc8aW5maWxlLm1hZT4nLCAnLW9tYWUnLCAnPG91dGZpbGUubWFlPic=

> <r_lp_tautomer_probability>
1

> <r_epik_Ionization_Penalty>
0.866317

> <r_epik_Ionization_Penalty_Charging>
0.862349

> <r_epik_Ionization_Penalty_Neutral>
0.00396799

> <r_epik_State_Penalty>
0.898939

> <r_epik_Charging_Adjusted_Penalty>
1.76129

> <i_epik_Tot_Q>
1

> <i_epik_Tot_abs_Q>
1

> <r_epik_Metal_State_Penalty>
1.25402

> <b_epik_Metal_Only>
0

> <s_lp_Force_Field>
OPLS_2005

> <r_lp_Energy>
10.5623

> <b_lp_Chiralities_Consistent>
1

> <s_lp_Variant>
AV-unprocessed.smi:1385-2

> <Gold.Version>
5.8.1

> <Gold.Id.Protein>
6NUR|6NUR_protein|mol2

> <Gold.PLP.Fitness>
38.6321

> <Gold.PLP.PLP>
-32.8548

> <Gold.PLP.part.hbond>
-5.7979

> <Gold.PLP.part.metal>
0.0000

> <Gold.PLP.part.buried>
-4.1080

> <Gold.PLP.part.nonpolar>
-23.7130

> <Gold.PLP.part.repulsive>
0.6139

> <Gold.PLP.ligand.clash>
0.0000

> <Gold.PLP.ligand.torsion>
0.7956

> <Gold.PLP.Chemscore.Hbond>
2.4500

> <Gold.PLP.Chemscore.CHOScore>
0.0000

> <Gold.PLP.Chemscore.Metal>
0.0000

> <Gold.Chemscore.Hbonds>
donor molecule, donor type, donor heavy atom, donor atom, acceptor molecule, acceptor atom, score
      L1  H     6    24       P1  7957  1.00
      L1  H    16    34       P1 10186  1.00
      P1  H  7989  7998       L1     4  0.55

> <Gold.PLP.Chemscore.Internal.Correction>
0.0184

> <Gold.Rescore>
     Score         DG    S(hbond)    S(metal)    S(lipo)     H(rot)  DE(clash)    DE(int)     intcor
     11.59     -14.40       2.62        0.00      46.47       2.07       0.82       1.99       ----

> <Gold.Chemscore.Fitness>
11.5913

> <Gold.Chemscore.DG>
-14.3953

> <Gold.Chemscore.ZeroCoef>
-5.4800

> <Gold.Chemscore.Hbond>
2.6244

> <Gold.Chemscore.Metal>
0.0000

> <Gold.Chemscore.Lipo>
46.4650

> <Gold.Chemscore.Internal_Hbond>
0.0000

> <Gold.Chemscore.DEClash>
0.8165

> <Gold.Chemscore.DEInternal>
1.9875

> <Gold.Chemscore.Rot>
2.0650

> <Gold.Chemscore.Internal.Correction>
   9.000000E+99

> <Gold.Chemscore.Hbonds>
donor molecule, donor type, donor heavy atom, donor atom, acceptor molecule, acceptor atom, score
      L1  H     6    24       P1  7957  0.96
      L1  H     9    25       P1  7948  0.01
      L1  H    16    34       P1 10186  0.99
      P1  H  7989  7998       L1     4  0.02

> <Gold.Chemscore.Hbond.Weighted>
-8.7653

> <Gold.Chemscore.Metal.Weighted>
-0.0000

> <Gold.Chemscore.Lipo.Weighted>
-5.4364

> <Gold.Chemscore.Internal_Hbond.Weighted>
0.0000

> <Gold.Chemscore.DEClash.Weighted>
0.8165

> <Gold.Chemscore.DEInternal.Weighted>
1.9875

> <Gold.Chemscore.Rot.Weighted>
5.2864

> <Gold.Chemscore.Internal.Correction.Weighted>
   9.000000E+99

> <Gold.Protein.RotatedTorsions>
[ 6907 6896 6895 6894 ] final   38.57 input  -60.11 | X-H torsion
[ 7974 7965 7964 7962 ] final   16.00 input  175.53 | X-H torsion
[ 8008 7997 7996 7995 ] final  165.72 input   59.86 | X-H torsion
[ 10167 10162 10161 10158 ] final  122.08 input  -65.29 | X-H torsion
[ 10718 10713 10712 10709 ] final  119.28 input   66.30 | X-H torsion
[ 10763 10752 10751 10750 ] final  115.81 input  -60.55 | X-H torsion
[ 11005 11000 10999 10996 ] final  -10.68 input  -57.11 | X-H torsion

> <Gold.Protein.ActiveResidues>
 VAL166  LYS551  ARG553  GLY616  TRP617  ASP618  TYR619  PRO620  LYS621  CYS622 
 ASP623  PHE694  ASN695  SER759  ASP760  ASP761  ALA762  ILE779  LEU786  VAL792 
 PHE793  MET794  SER795  GLU796  ALA797  LYS798  CYS799  TRP800  GLU811  SER814 

> <Gold.Protein.RotatedAtoms>
  152.1582  134.8933  160.0543 H   0  0  0  0  0  0  0  0  0  0  0  0  # atno 6907 bound_to 6896
  151.9939  133.3796  159.4163 H   0  0  0  0  0  0  0  0  0  0  0  0  # atno 6908 bound_to 6896
  150.6884  134.3829  159.5086 H   0  0  0  0  0  0  0  0  0  0  0  0  # atno 6909 bound_to 6896
  146.2262  139.8812  142.8570 H   0  0  0  0  0  0  0  0  0  0  0  0  # atno 7974 bound_to 7965
  156.1778  140.1662  156.8331 H   0  0  0  0  0  0  0  0  0  0  0  0  # atno 8008 bound_to 7997
  154.5326  140.0753  156.8404 H   0  0  0  0  0  0  0  0  0  0  0  0  # atno 8009 bound_to 7997
  155.3376  140.3383  155.4241 H   0  0  0  0  0  0  0  0  0  0  0  0  # atno 8010 bound_to 7997
  139.5880  144.7014  151.3360 H   0  0  0  0  0  0  0  0  0  0  0  0  # atno 10167 bound_to 10162
  157.5972  131.1056  150.7875 H   0  0  0  0  0  0  0  0  0  0  0  0  # atno 10718 bound_to 10713
  153.5277  135.3584  155.2661 H   0  0  0  0  0  0  0  0  0  0  0  0  # atno 10763 bound_to 10752
  154.8729  135.4061  154.3187 H   0  0  0  0  0  0  0  0  0  0  0  0  # atno 10764 bound_to 10752
  153.3869  135.7070  153.6591 H   0  0  0  0  0  0  0  0  0  0  0  0  # atno 10765 bound_to 10752
  140.7473  133.8621  155.9016 H   0  0  0  0  0  0  0  0  0  0  0  0  # atno 11005 bound_to 11000
  145.2510  141.0044  143.3881 LP  0  0  0  0  0  0  0  0  0  0  0  0  # atno 17320 bound_to 7965
  144.9374  139.4228  143.6465 LP  0  0  0  0  0  0  0  0  0  0  0  0  # atno 17321 bound_to 7965
  140.7148  143.7294  150.7635 LP  0  0  0  0  0  0  0  0  0  0  0  0  # atno 17342 bound_to 10162
  140.0843  143.4938  152.2513 LP  0  0  0  0  0  0  0  0  0  0  0  0  # atno 17343 bound_to 10162
  156.8282  130.5007  149.5334 LP  0  0  0  0  0  0  0  0  0  0  0  0  # atno 17370 bound_to 10713
  156.1037  130.5988  150.9936 LP  0  0  0  0  0  0  0  0  0  0  0  0  # atno 17371 bound_to 10713
  140.9783  134.1439  157.4517 LP  0  0  0  0  0  0  0  0  0  0  0  0  # atno 17394 bound_to 11000
  139.8794  135.0002  156.5996 LP  0  0  0  0  0  0  0  0  0  0  0  0  # atno 17395 bound_to 11000

$$$$
