AV-unprocessed.smi:1560|AV-procd|sdf|6277|dock5
  -GOLD-   22720 6473D 1   1.00000     0.00000
 Structure written by MMmdl.
 48 49  0  0  0  0  0  0  0  0  2 V2000
  147.6536  138.0625  154.5064 C   0  0  0  0  0  0  0  0  0  0  0  0
  147.1988  136.9600  155.4794 C   0  0  0  0  0  0  0  0  0  0  0  0
  148.0682  135.6641  155.4872 C   0  0  1  0  0  0  0  0  0  0  0  0
  149.5519  136.1083  155.5857 C   0  0  0  0  0  0  0  0  0  0  0  0
  147.7193  134.7949  156.7368 C   0  0  0  0  0  0  0  0  0  0  0  0
  147.6470  135.5632  157.9787 N   0  0  0  0  0  0  0  0  0  0  0  0
  148.6799  135.8449  158.7873 C   0  0  0  0  0  0  0  0  0  0  0  0
  149.8411  135.5168  158.5409 O   0  0  0  0  0  0  0  0  0  0  0  0
  148.3466  136.6156  160.0713 C   0  0  0  0  0  0  0  0  0  0  0  0
  147.3106  135.9455  160.8700 N   0  0  0  0  0  0  0  0  0  0  0  0
  147.4719  134.6252  161.2660 C   0  0  0  0  0  0  0  0  0  0  0  0
  146.5534  133.9485  161.9956 C   0  0  0  0  0  0  0  0  0  0  0  0
  145.3142  134.5979  162.4098 C   0  0  0  0  0  0  0  0  0  0  0  0
  144.4237  134.0695  163.0718 O   0  0  0  0  0  0  0  0  0  0  0  0
  145.1878  135.9249  161.9902 N   0  0  0  0  0  0  0  0  0  0  0  0
  146.1298  136.6281  161.2378 C   0  0  0  0  0  0  0  0  0  0  0  0
  145.9173  137.7972  160.9165 O   0  0  0  0  0  0  0  0  0  0  0  0
  147.8375  134.8848  154.2160 N   0  3  0  0  0  0  0  0  0  0  0  0
  148.4847  133.5441  154.1411 C   0  0  0  0  0  0  0  0  0  0  0  0
  148.3345  132.9509  152.7298 C   0  0  0  0  0  0  0  0  0  0  0  0
  146.9593  132.8721  152.3823 O   0  0  0  0  0  0  0  0  0  0  0  0
  146.3477  134.1540  152.3634 C   0  0  0  0  0  0  0  0  0  0  0  0
  146.4203  134.7771  153.7666 C   0  0  0  0  0  0  0  0  0  0  0  0
  144.3447  136.4147  162.2524 H   0  0  0  0  0  0  0  0  0  0  0  0
  146.9903  138.9251  154.5751 H   0  0  0  0  0  0  0  0  0  0  0  0
  147.6379  137.7251  153.4702 H   0  0  0  0  0  0  0  0  0  0  0  0
  148.6604  138.4126  154.7324 H   0  0  0  0  0  0  0  0  0  0  0  0
  147.1866  137.3989  156.4770 H   0  0  0  0  0  0  0  0  0  0  0  0
  146.1553  136.7187  155.2785 H   0  0  0  0  0  0  0  0  0  0  0  0
  149.6977  136.8588  156.3636 H   0  0  0  0  0  0  0  0  0  0  0  0
  149.9088  136.5422  154.6514 H   0  0  0  0  0  0  0  0  0  0  0  0
  150.2126  135.2779  155.8364 H   0  0  0  0  0  0  0  0  0  0  0  0
  146.7843  134.2532  156.5914 H   0  0  0  0  0  0  0  0  0  0  0  0
  148.4814  134.0324  156.8938 H   0  0  0  0  0  0  0  0  0  0  0  0
  146.7310  135.8813  158.2616 H   0  0  0  0  0  0  0  0  0  0  0  0
  149.2664  136.7266  160.6474 H   0  0  0  0  0  0  0  0  0  0  0  0
  148.0290  137.6334  159.8345 H   0  0  0  0  0  0  0  0  0  0  0  0
  148.3729  134.1015  160.9790 H   0  0  0  0  0  0  0  0  0  0  0  0
  146.7362  132.9206  162.2732 H   0  0  0  0  0  0  0  0  0  0  0  0
  149.5491  133.5968  154.3621 H   0  0  0  0  0  0  0  0  0  0  0  0
  148.0365  132.8679  154.8695 H   0  0  0  0  0  0  0  0  0  0  0  0
  148.8737  133.5520  151.9957 H   0  0  0  0  0  0  0  0  0  0  0  0
  148.7637  131.9493  152.6965 H   0  0  0  0  0  0  0  0  0  0  0  0
  146.8319  134.7950  151.6247 H   0  0  0  0  0  0  0  0  0  0  0  0
  145.3079  134.0425  152.0555 H   0  0  0  0  0  0  0  0  0  0  0  0
  145.8482  134.1587  154.4583 H   0  0  0  0  0  0  0  0  0  0  0  0
  145.9348  135.7502  153.7294 H   0  0  0  0  0  0  0  0  0  0  0  0
  148.2972  135.4339  153.5035 H   0  0  0  0  0  0  0  0  0  0  0  0
  1  2  1  0  0  0  0
  1 25  1  0  0  0  0
  1 26  1  0  0  0  0
  1 27  1  0  0  0  0
  2  3  1  0  0  0  0
  2 28  1  0  0  0  0
  2 29  1  0  0  0  0
  3  4  1  0  0  0  0
  3  5  1  0  0  0  0
  3 18  1  0  0  0  0
  4 30  1  0  0  0  0
  4 31  1  0  0  0  0
  4 32  1  0  0  0  0
  5  6  1  0  0  0  0
  5 33  1  0  0  0  0
  5 34  1  0  0  0  0
  6  7  1  0  0  0  0
  6 35  1  0  0  0  0
  7  8  2  0  0  0  0
  7  9  1  0  0  0  0
  9 10  1  0  0  0  0
  9 36  1  0  0  0  0
  9 37  1  0  0  0  0
 10 16  1  0  0  0  0
 10 11  1  0  0  0  0
 11 12  2  0  0  0  0
 11 38  1  0  0  0  0
 12 13  1  0  0  0  0
 12 39  1  0  0  0  0
 13 14  2  0  0  0  0
 13 15  1  0  0  0  0
 15 24  1  0  0  0  0
 15 16  1  0  0  0  0
 16 17  2  0  0  0  0
 18 23  1  0  0  0  0
 18 19  1  0  0  0  0
 18 48  1  0  0  0  0
 19 20  1  0  0  0  0
 19 40  1  0  0  0  0
 19 41  1  0  0  0  0
 20 21  1  0  0  0  0
 20 42  1  0  0  0  0
 20 43  1  0  0  0  0
 21 22  1  0  0  0  0
 22 23  1  0  0  0  0
 22 44  1  0  0  0  0
 22 45  1  0  0  0  0
 23 46  1  0  0  0  0
 23 47  1  0  0  0  0
M  CHG  1  18   1
M  END
> <s_m_source_file>
AV-unprocessed.smi

> <i_m_source_file_index>
1560

> <i_lp_mmshare_version>
43012

> <i_f3d_flags>
0

> <s_epik_input>
W0NIMl0xW0NIMl1PW0NIMl1bQ0gyXU4xW0NAQF0oW0NIM10pKFtDSDJdW0NIM10pW0NIMl1bTkhdQyg9TylbQ0gyXW4yW2NIXVtjSF1jKD1PKVtuSF1jMj1P

> <s_epik_cmdline>
J2VwaWtfcHl0aG9uJywgJy1waCcsICc3LjAnLCAnLXRuJywgJzgnLCAnLW1hJywgJzIwMCcsICctbWV0YWxfYmluZGluZycsICctaW1hZScsICc8aW5maWxlLm1hZT4nLCAnLW9tYWUnLCAnPG91dGZpbGUubWFlPic=

> <r_lp_tautomer_probability>
0.999537

> <r_epik_Ionization_Penalty>
0.523885

> <r_epik_Ionization_Penalty_Charging>
0.523885

> <r_epik_Ionization_Penalty_Neutral>
8.70177e-08

> <r_epik_State_Penalty>
0.572334

> <r_epik_Charging_Adjusted_Penalty>
1.09622

> <i_epik_Tot_Q>
1

> <i_epik_Tot_abs_Q>
1

> <r_epik_Metal_State_Penalty>
0.938906

> <b_epik_Metal_Only>
0

> <s_lp_Force_Field>
OPLS_2005

> <r_lp_Energy>
27.5913

> <b_lp_Chiralities_Consistent>
1

> <s_lp_Variant>
AV-unprocessed.smi:1560-3

> <Gold.Version>
5.8.1

> <Gold.Id.Protein>
6NUR|6NUR_protein|mol2

> <Gold.PLP.Fitness>
40.5836

> <Gold.PLP.PLP>
-29.8431

> <Gold.PLP.part.hbond>
-3.6917

> <Gold.PLP.part.metal>
0.0000

> <Gold.PLP.part.buried>
-4.3437

> <Gold.PLP.part.nonpolar>
-21.2160

> <Gold.PLP.part.repulsive>
0.2950

> <Gold.PLP.ligand.clash>
0.0000

> <Gold.PLP.ligand.torsion>
0.7446

> <Gold.PLP.Chemscore.Hbond>
4.0000

> <Gold.PLP.Chemscore.CHOScore>
0.0000

> <Gold.PLP.Chemscore.Metal>
0.0000

> <Gold.Chemscore.Hbonds>
donor molecule, donor type, donor heavy atom, donor atom, acceptor molecule, acceptor atom, score
      L1  H    18    48       P1  7948  2.00
      P1  H  6896  6908       L1     8  1.00
      P1  H  6934  6947       L1    17  1.00

> <Gold.PLP.Chemscore.Internal.Correction>
0.2296

> <Gold.Rescore>
     Score         DG    S(hbond)    S(metal)    S(lipo)     H(rot)  DE(clash)    DE(int)     intcor
     13.50     -14.29       2.86        0.00      49.69       2.56       0.00       0.79       ----

> <Gold.Chemscore.Fitness>
13.4952

> <Gold.Chemscore.DG>
-14.2855

> <Gold.Chemscore.ZeroCoef>
-5.4800

> <Gold.Chemscore.Hbond>
2.8606

> <Gold.Chemscore.Metal>
0.0000

> <Gold.Chemscore.Lipo>
49.6877

> <Gold.Chemscore.Internal_Hbond>
0.0000

> <Gold.Chemscore.DEClash>
0.0000

> <Gold.Chemscore.DEInternal>
0.7903

> <Gold.Chemscore.Rot>
2.5634

> <Gold.Chemscore.Internal.Correction>
   9.000000E+99

> <Gold.Chemscore.Hbonds>
donor molecule, donor type, donor heavy atom, donor atom, acceptor molecule, acceptor atom, score
      L1  H    18    48       P1  7948  0.99
      P1  H  6896  6908       L1     8  0.97
      P1  H  6934  6947       L1    17  0.97

> <Gold.Chemscore.Hbond.Weighted>
-9.5545

> <Gold.Chemscore.Metal.Weighted>
-0.0000

> <Gold.Chemscore.Lipo.Weighted>
-5.8135

> <Gold.Chemscore.Internal_Hbond.Weighted>
0.0000

> <Gold.Chemscore.DEClash.Weighted>
0.0000

> <Gold.Chemscore.DEInternal.Weighted>
0.7903

> <Gold.Chemscore.Rot.Weighted>
6.5624

> <Gold.Chemscore.Internal.Correction.Weighted>
   9.000000E+99

> <Gold.Protein.RotatedTorsions>
[ 6907 6896 6895 6894 ] final  175.12 input  -60.11 | X-H torsion
[ 7974 7965 7964 7962 ] final   87.66 input  175.53 | X-H torsion
[ 8008 7997 7996 7995 ] final  -31.92 input   59.86 | X-H torsion
[ 10167 10162 10161 10158 ] final  -40.82 input  -65.29 | X-H torsion
[ 10718 10713 10712 10709 ] final   81.66 input   66.30 | X-H torsion
[ 10763 10752 10751 10750 ] final  -43.91 input  -60.55 | X-H torsion
[ 11005 11000 10999 10996 ] final   52.00 input  -57.11 | X-H torsion

> <Gold.Protein.ActiveResidues>
 VAL166  LYS551  ARG553  GLY616  TRP617  ASP618  TYR619  PRO620  LYS621  CYS622 
 ASP623  PHE694  ASN695  SER759  ASP760  ASP761  ALA762  ILE779  LEU786  VAL792 
 PHE793  MET794  SER795  GLU796  ALA797  LYS798  CYS799  TRP800  GLU811  SER814 

> <Gold.Protein.RotatedAtoms>
  151.7413  133.3322  159.3366 H   0  0  0  0  0  0  0  0  0  0  0  0  # atno 6907 bound_to 6896
  150.7572  134.6276  159.6178 H   0  0  0  0  0  0  0  0  0  0  0  0  # atno 6908 bound_to 6896
  152.3529  134.6983  160.0282 H   0  0  0  0  0  0  0  0  0  0  0  0  # atno 6909 bound_to 6896
  145.5560  139.2299  143.2486 H   0  0  0  0  0  0  0  0  0  0  0  0  # atno 7974 bound_to 7965
  154.4197  140.1751  156.1644 H   0  0  0  0  0  0  0  0  0  0  0  0  # atno 8008 bound_to 7997
  155.9811  140.3377  155.6640 H   0  0  0  0  0  0  0  0  0  0  0  0  # atno 8009 bound_to 7997
  155.6498  140.0689  157.2581 H   0  0  0  0  0  0  0  0  0  0  0  0  # atno 8010 bound_to 7997
  140.7022  143.3130  151.2979 H   0  0  0  0  0  0  0  0  0  0  0  0  # atno 10167 bound_to 10162
  157.6838  131.0014  150.2260 H   0  0  0  0  0  0  0  0  0  0  0  0  # atno 10718 bound_to 10713
  154.0033  135.6690  153.4760 H   0  0  0  0  0  0  0  0  0  0  0  0  # atno 10763 bound_to 10752
  153.0652  135.5005  154.8181 H   0  0  0  0  0  0  0  0  0  0  0  0  # atno 10764 bound_to 10752
  154.7039  135.3084  154.9262 H   0  0  0  0  0  0  0  0  0  0  0  0  # atno 10765 bound_to 10752
  140.0886  134.5241  155.8875 H   0  0  0  0  0  0  0  0  0  0  0  0  # atno 11005 bound_to 11000
  146.1884  140.6384  142.9157 LP  0  0  0  0  0  0  0  0  0  0  0  0  # atno 17320 bound_to 7965
  144.7506  140.5180  143.6805 LP  0  0  0  0  0  0  0  0  0  0  0  0  # atno 17321 bound_to 7965
  139.6560  144.0276  152.2660 LP  0  0  0  0  0  0  0  0  0  0  0  0  # atno 17342 bound_to 10162
  139.9828  144.6416  150.7885 LP  0  0  0  0  0  0  0  0  0  0  0  0  # atno 17343 bound_to 10162
  156.2902  130.3744  149.7849 LP  0  0  0  0  0  0  0  0  0  0  0  0  # atno 17370 bound_to 10713
  156.5511  130.8342  151.3300 LP  0  0  0  0  0  0  0  0  0  0  0  0  # atno 17371 bound_to 10713
  141.2070  133.6660  156.6281 LP  0  0  0  0  0  0  0  0  0  0  0  0  # atno 17394 bound_to 11000
  140.3385  134.7869  157.4380 LP  0  0  0  0  0  0  0  0  0  0  0  0  # atno 17395 bound_to 11000

$$$$
