AV-unprocessed.smi:517|AV-procd|sdf|2788|dock4
  -GOLD-   2262023263D 1   1.00000     0.00000
 Structure written by MMmdl.
 35 36  0  0  0  0  0  0  0  0  1 V2000
  153.9213  136.9159  159.7445 C   0  0  0  0  0  0  0  0  0  0  0  0
  153.7838  137.4242  158.3077 C   0  0  0  0  0  0  0  0  0  0  0  0
  154.1824  138.7828  158.2694 O   0  0  0  0  0  0  0  0  0  0  0  0
  153.4110  139.6128  159.1220 C   0  0  0  0  0  0  0  0  0  0  0  0
  151.9766  139.7041  158.5817 C   0  0  0  0  0  0  0  0  0  0  0  0
  151.6859  141.0152  158.0180 N   0  0  0  0  0  0  0  0  0  0  0  0
  151.1607  141.3134  156.8016 C   0  0  0  0  0  0  0  0  0  0  0  0
  150.7977  140.2496  155.8016 C   0  0  2  0  0  0  0  0  0  0  0  0
  152.0255  139.4459  155.3524 C   0  0  0  0  0  0  0  0  0  0  0  0
  150.1762  140.7830  154.6495 O   0  0  0  0  0  0  0  0  0  0  0  0
  151.0196  142.6150  156.5392 N   0  0  0  0  0  0  0  0  0  0  0  0
  151.4726  143.2133  157.6979 C   0  0  0  0  0  0  0  0  0  0  0  0
  151.5678  144.5787  158.0499 C   0  0  0  0  0  0  0  0  0  0  0  0
  152.0668  144.9570  159.3135 C   0  0  0  0  0  0  0  0  0  0  0  0
  152.4783  143.9777  160.2406 C   0  0  0  0  0  0  0  0  0  0  0  0
  152.3953  142.6119  159.9081 C   0  0  0  0  0  0  0  0  0  0  0  0
  151.8955  142.2396  158.6457 C   0  0  0  0  0  0  0  0  0  0  0  0
  153.6133  135.8732  159.8210 H   0  0  0  0  0  0  0  0  0  0  0  0
  153.3023  137.4996  160.4263 H   0  0  0  0  0  0  0  0  0  0  0  0
  154.9539  136.9865  160.0867 H   0  0  0  0  0  0  0  0  0  0  0  0
  154.4073  136.8279  157.6398 H   0  0  0  0  0  0  0  0  0  0  0  0
  152.7500  137.3260  157.9736 H   0  0  0  0  0  0  0  0  0  0  0  0
  153.4002  139.1999  160.1317 H   0  0  0  0  0  0  0  0  0  0  0  0
  153.8563  140.6071  159.1804 H   0  0  0  0  0  0  0  0  0  0  0  0
  151.8249  138.9526  157.8062 H   0  0  0  0  0  0  0  0  0  0  0  0
  151.2545  139.4761  159.3654 H   0  0  0  0  0  0  0  0  0  0  0  0
  150.0703  139.5712  156.2461 H   0  0  0  0  0  0  0  0  0  0  0  0
  152.5131  138.9675  156.2021 H   0  0  0  0  0  0  0  0  0  0  0  0
  152.7620  140.0859  154.8650 H   0  0  0  0  0  0  0  0  0  0  0  0
  151.7472  138.6613  154.6482 H   0  0  0  0  0  0  0  0  0  0  0  0
  150.0960  141.7182  154.7596 H   0  0  0  0  0  0  0  0  0  0  0  0
  151.2549  145.3361  157.3467 H   0  0  0  0  0  0  0  0  0  0  0  0
  152.1331  146.0033  159.5733 H   0  0  0  0  0  0  0  0  0  0  0  0
  152.8571  144.2752  161.2074 H   0  0  0  0  0  0  0  0  0  0  0  0
  152.7068  141.8592  160.6169 H   0  0  0  0  0  0  0  0  0  0  0  0
  1  2  1  0  0  0  0
  1 18  1  0  0  0  0
  1 19  1  0  0  0  0
  1 20  1  0  0  0  0
  2  3  1  0  0  0  0
  2 21  1  0  0  0  0
  2 22  1  0  0  0  0
  3  4  1  0  0  0  0
  4  5  1  0  0  0  0
  4 23  1  0  0  0  0
  4 24  1  0  0  0  0
  5  6  1  0  0  0  0
  5 25  1  0  0  0  0
  5 26  1  0  0  0  0
  6 17  1  0  0  0  0
  6  7  1  0  0  0  0
  7  8  1  0  0  0  0
  7 11  2  0  0  0  0
  8  9  1  0  0  0  0
  8 10  1  0  0  0  0
  8 27  1  0  0  0  0
  9 28  1  0  0  0  0
  9 29  1  0  0  0  0
  9 30  1  0  0  0  0
 10 31  1  0  0  0  0
 11 12  1  0  0  0  0
 12 17  2  0  0  0  0
 12 13  1  0  0  0  0
 13 14  2  0  0  0  0
 13 32  1  0  0  0  0
 14 15  1  0  0  0  0
 14 33  1  0  0  0  0
 15 16  2  0  0  0  0
 15 34  1  0  0  0  0
 16 17  1  0  0  0  0
 16 35  1  0  0  0  0
M  END
> <s_m_source_file>
AV-unprocessed.smi

> <i_m_source_file_index>
517

> <i_lp_mmshare_version>
43012

> <i_f3d_flags>
0

> <s_epik_input>
W0NIM11bQ0gyXU9bQ0gyXVtDSDJdbihjKG4xKVtDQEhdKFtDSDNdKVtPSF0pYyhjMTIpW2NIXVtjSF1bY0hdW2NIXTI=

> <s_epik_cmdline>
J2VwaWtfcHl0aG9uJywgJy1waCcsICc3LjAnLCAnLXRuJywgJzgnLCAnLW1hJywgJzIwMCcsICctbWV0YWxfYmluZGluZycsICctaW1hZScsICc8aW5maWxlLm1hZT4nLCAnLW9tYWUnLCAnPG91dGZpbGUubWFlPic=

> <r_epik_Ionization_Penalty>
0.0517997

> <r_epik_Ionization_Penalty_Charging>
0

> <r_epik_Ionization_Penalty_Neutral>
0.0517997

> <r_epik_State_Penalty>
0.0443961

> <r_epik_Charging_Adjusted_Penalty>
0.0443961

> <i_epik_Tot_Q>
0

> <i_epik_Tot_abs_Q>
0

> <r_epik_Metal_State_Penalty>
4.60999e-05

> <b_epik_Metal_Only>
0

> <s_lp_Force_Field>
OPLS_2005

> <r_lp_Energy>
5.78947

> <b_lp_Chiralities_Consistent>
1

> <s_lp_Variant>
AV-unprocessed.smi:517-1

> <Gold.Version>
5.8.1

> <Gold.Id.Protein>
6NUR|6NUR_protein|mol2

> <Gold.PLP.Fitness>
42.7047

> <Gold.PLP.PLP>
-38.8630

> <Gold.PLP.part.hbond>
-2.0000

> <Gold.PLP.part.metal>
0.0000

> <Gold.PLP.part.buried>
-4.0622

> <Gold.PLP.part.nonpolar>
-32.5620

> <Gold.PLP.part.repulsive>
0.2583

> <Gold.PLP.ligand.clash>
0.0000

> <Gold.PLP.ligand.torsion>
0.4753

> <Gold.PLP.Chemscore.Hbond>
1.5880

> <Gold.PLP.Chemscore.CHOScore>
0.0000

> <Gold.PLP.Chemscore.Metal>
0.0000

> <Gold.Chemscore.Hbonds>
donor molecule, donor type, donor heavy atom, donor atom, acceptor molecule, acceptor atom, score
      P1  H  7989  7998       L1    10  0.55
      P1  H  7997  8010       L1     3  1.00

> <Gold.PLP.Chemscore.Internal.Correction>
0.0283

> <Gold.Rescore>
     Score         DG    S(hbond)    S(metal)    S(lipo)     H(rot)  DE(clash)    DE(int)     intcor
     15.16     -15.93       1.40        0.00      95.31       2.11       0.20       0.57       ----

> <Gold.Chemscore.Fitness>
15.1579

> <Gold.Chemscore.DG>
-15.9328

> <Gold.Chemscore.ZeroCoef>
-5.4800

> <Gold.Chemscore.Hbond>
1.4046

> <Gold.Chemscore.Metal>
0.0000

> <Gold.Chemscore.Lipo>
95.3070

> <Gold.Chemscore.Internal_Hbond>
0.0000

> <Gold.Chemscore.DEClash>
0.2049

> <Gold.Chemscore.DEInternal>
0.5700

> <Gold.Chemscore.Rot>
2.1052

> <Gold.Chemscore.Internal.Correction>
   9.000000E+99

> <Gold.Chemscore.Hbonds>
donor molecule, donor type, donor heavy atom, donor atom, acceptor molecule, acceptor atom, score
      P1  H  7989  7998       L1    10  0.02
      P1  H  7997  8010       L1     3  0.30

> <Gold.Chemscore.Hbond.Weighted>
-4.6914

> <Gold.Chemscore.Metal.Weighted>
-0.0000

> <Gold.Chemscore.Lipo.Weighted>
-11.1509

> <Gold.Chemscore.Internal_Hbond.Weighted>
0.0000

> <Gold.Chemscore.DEClash.Weighted>
0.2049

> <Gold.Chemscore.DEInternal.Weighted>
0.5700

> <Gold.Chemscore.Rot.Weighted>
5.3894

> <Gold.Chemscore.Internal.Correction.Weighted>
   9.000000E+99

> <Gold.Protein.RotatedTorsions>
[ 6907 6896 6895 6894 ] final -115.46 input  -60.11 | X-H torsion
[ 7974 7965 7964 7962 ] final -162.10 input  175.53 | X-H torsion
[ 8008 7997 7996 7995 ] final    3.08 input   59.86 | X-H torsion
[ 10167 10162 10161 10158 ] final   65.85 input  -65.29 | X-H torsion
[ 10718 10713 10712 10709 ] final -140.43 input   66.30 | X-H torsion
[ 10763 10752 10751 10750 ] final  111.65 input  -60.55 | X-H torsion
[ 11005 11000 10999 10996 ] final   -8.43 input  -57.11 | X-H torsion

> <Gold.Protein.ActiveResidues>
 VAL166  LYS551  ARG553  GLY616  TRP617  ASP618  TYR619  PRO620  LYS621  CYS622 
 ASP623  PHE694  ASN695  SER759  ASP760  ASP761  ALA762  ILE779  LEU786  VAL792 
 PHE793  MET794  SER795  GLU796  ALA797  LYS798  CYS799  TRP800  GLU811  SER814 

> <Gold.Protein.RotatedAtoms>
  150.7980  133.8655  159.3243 H   0  0  0  0  0  0  0  0  0  0  0  0  # atno 6907 bound_to 6896
  151.6475  135.1004  160.0163 H   0  0  0  0  0  0  0  0  0  0  0  0  # atno 6908 bound_to 6896
  152.4064  133.6856  159.6395 H   0  0  0  0  0  0  0  0  0  0  0  0  # atno 6909 bound_to 6896
  144.7369  140.3302  143.6154 H   0  0  0  0  0  0  0  0  0  0  0  0  # atno 7974 bound_to 7965
  154.6994  140.2670  155.6735 H   0  0  0  0  0  0  0  0  0  0  0  0  # atno 8008 bound_to 7997
  156.2759  140.2775  156.1522 H   0  0  0  0  0  0  0  0  0  0  0  0  # atno 8009 bound_to 7997
  155.0786  140.0372  157.2622 H   0  0  0  0  0  0  0  0  0  0  0  0  # atno 8010 bound_to 7997
  140.1068  144.4854  150.7003 H   0  0  0  0  0  0  0  0  0  0  0  0  # atno 10167 bound_to 10162
  156.3222  130.7540  151.1641 H   0  0  0  0  0  0  0  0  0  0  0  0  # atno 10718 bound_to 10713
  153.4664  135.3710  155.2367 H   0  0  0  0  0  0  0  0  0  0  0  0  # atno 10763 bound_to 10752
  154.8757  135.3921  154.3863 H   0  0  0  0  0  0  0  0  0  0  0  0  # atno 10764 bound_to 10752
  153.4445  135.7084  153.6212 H   0  0  0  0  0  0  0  0  0  0  0  0  # atno 10765 bound_to 10752
  140.7234  133.8809  155.8838 H   0  0  0  0  0  0  0  0  0  0  0  0  # atno 11005 bound_to 11000
  145.7479  139.1784  143.2338 LP  0  0  0  0  0  0  0  0  0  0  0  0  # atno 17320 bound_to 7965
  146.1083  140.7459  142.9515 LP  0  0  0  0  0  0  0  0  0  0  0  0  # atno 17321 bound_to 7965
  140.6948  143.2397  151.5032 LP  0  0  0  0  0  0  0  0  0  0  0  0  # atno 17342 bound_to 10162
  139.5641  144.2085  152.1737 LP  0  0  0  0  0  0  0  0  0  0  0  0  # atno 17343 bound_to 10162
  157.7414  131.0504  150.5099 LP  0  0  0  0  0  0  0  0  0  0  0  0  # atno 17370 bound_to 10713
  156.5253  130.4172  149.6229 LP  0  0  0  0  0  0  0  0  0  0  0  0  # atno 17371 bound_to 10713
  140.9984  134.1184  157.4341 LP  0  0  0  0  0  0  0  0  0  0  0  0  # atno 17394 bound_to 11000
  139.8843  135.0061  156.6358 LP  0  0  0  0  0  0  0  0  0  0  0  0  # atno 17395 bound_to 11000

$$$$
