AV-unprocessed.smi:460|AV-procd|sdf|2628|dock4
  -GOLD-   2262023 33D 1   1.00000     0.00000
 Structure written by MMmdl.
 47 49  0  0  0  0  0  0  0  0  2 V2000
  153.2914  137.8368  156.5989 C   0  0  0  0  0  0  0  0  0  0  0  0
  152.5749  138.2249  155.2957 C   0  0  0  0  0  0  0  0  0  0  0  0
  151.1569  137.6332  155.1478 C   0  0  2  0  0  0  0  0  0  0  0  0
  151.2092  136.5759  154.2146 O   0  0  0  0  0  0  0  0  0  0  0  0
  150.1359  138.6592  154.7543 C   0  0  0  0  0  0  0  0  0  0  0  0
  149.2666  138.5578  153.7075 N   0  3  0  0  0  0  0  0  0  0  0  0
  148.4620  139.6945  153.6446 C   0  0  0  0  0  0  0  0  0  0  0  0
  147.4559  140.0493  152.7517 C   0  0  0  0  0  0  0  0  0  0  0  0
  146.8272  141.2928  152.9688 C   0  0  0  0  0  0  0  0  0  0  0  0
  147.2053  142.1291  154.0393 C   0  0  0  0  0  0  0  0  0  0  0  0
  148.2258  141.7569  154.9391 C   0  0  0  0  0  0  0  0  0  0  0  0
  148.8411  140.5242  154.7190 C   0  0  0  0  0  0  0  0  0  0  0  0
  149.8588  139.8360  155.3910 N   0  0  0  0  0  0  0  0  0  0  0  0
  150.4423  140.4347  156.6020 C   0  0  0  0  0  0  0  0  0  0  0  0
  151.1840  141.7469  156.3132 C   0  0  0  0  0  0  0  0  0  0  0  0
  151.0567  142.5985  157.4423 O   0  0  0  0  0  0  0  0  0  0  0  0
  151.8193  142.3309  158.5583 C   0  0  0  0  0  0  0  0  0  0  0  0
  152.4110  141.0694  158.8165 C   0  0  0  0  0  0  0  0  0  0  0  0
  153.1688  140.8631  159.9834 C   0  0  0  0  0  0  0  0  0  0  0  0
  153.3413  141.9113  160.9032 C   0  0  0  0  0  0  0  0  0  0  0  0
  152.7587  143.1677  160.6556 C   0  0  0  0  0  0  0  0  0  0  0  0
  151.9951  143.3877  159.4813 C   0  0  0  0  0  0  0  0  0  0  0  0
  151.4087  144.5959  159.1655 O   0  0  0  0  0  0  0  0  0  0  0  0
  151.6632  145.7105  160.0067 C   0  0  0  0  0  0  0  0  0  0  0  0
  154.3177  138.2043  156.5978 H   0  0  0  0  0  0  0  0  0  0  0  0
  153.3292  136.7566  156.7275 H   0  0  0  0  0  0  0  0  0  0  0  0
  152.7963  138.2559  157.4744 H   0  0  0  0  0  0  0  0  0  0  0  0
  152.5322  139.3130  155.2301 H   0  0  0  0  0  0  0  0  0  0  0  0
  153.1845  137.8968  154.4527 H   0  0  0  0  0  0  0  0  0  0  0  0
  150.8683  137.1980  156.1034 H   0  0  0  0  0  0  0  0  0  0  0  0
  151.0993  136.9363  153.3478 H   0  0  0  0  0  0  0  0  0  0  0  0
  147.1662  139.4102  151.9305 H   0  0  0  0  0  0  0  0  0  0  0  0
  146.0403  141.6119  152.3009 H   0  0  0  0  0  0  0  0  0  0  0  0
  146.7022  143.0758  154.1735 H   0  0  0  0  0  0  0  0  0  0  0  0
  148.5075  142.4076  155.7534 H   0  0  0  0  0  0  0  0  0  0  0  0
  149.6513  140.5921  157.3351 H   0  0  0  0  0  0  0  0  0  0  0  0
  151.1209  139.7052  157.0452 H   0  0  0  0  0  0  0  0  0  0  0  0
  152.2340  141.5453  156.0962 H   0  0  0  0  0  0  0  0  0  0  0  0
  150.7428  142.2237  155.4366 H   0  0  0  0  0  0  0  0  0  0  0  0
  152.2921  140.2408  158.1354 H   0  0  0  0  0  0  0  0  0  0  0  0
  153.6158  139.8984  160.1738 H   0  0  0  0  0  0  0  0  0  0  0  0
  153.9225  141.7523  161.7996 H   0  0  0  0  0  0  0  0  0  0  0  0
  152.9164  143.9501  161.3822 H   0  0  0  0  0  0  0  0  0  0  0  0
  151.1020  146.5699  159.6405 H   0  0  0  0  0  0  0  0  0  0  0  0
  152.7201  145.9804  160.0028 H   0  0  0  0  0  0  0  0  0  0  0  0
  151.3410  145.5194  161.0311 H   0  0  0  0  0  0  0  0  0  0  0  0
  149.2385  137.7668  153.0772 H   0  0  0  0  0  0  0  0  0  0  0  0
  1  2  1  0  0  0  0
  1 25  1  0  0  0  0
  1 26  1  0  0  0  0
  1 27  1  0  0  0  0
  2  3  1  0  0  0  0
  2 28  1  0  0  0  0
  2 29  1  0  0  0  0
  3  4  1  0  0  0  0
  3  5  1  0  0  0  0
  3 30  1  0  0  0  0
  4 31  1  0  0  0  0
  5 13  1  0  0  0  0
  5  6  2  0  0  0  0
  6  7  1  0  0  0  0
  6 47  1  0  0  0  0
  7 12  2  0  0  0  0
  7  8  1  0  0  0  0
  8  9  2  0  0  0  0
  8 32  1  0  0  0  0
  9 10  1  0  0  0  0
  9 33  1  0  0  0  0
 10 11  2  0  0  0  0
 10 34  1  0  0  0  0
 11 12  1  0  0  0  0
 11 35  1  0  0  0  0
 12 13  1  0  0  0  0
 13 14  1  0  0  0  0
 14 15  1  0  0  0  0
 14 36  1  0  0  0  0
 14 37  1  0  0  0  0
 15 16  1  0  0  0  0
 15 38  1  0  0  0  0
 15 39  1  0  0  0  0
 16 17  1  0  0  0  0
 17 22  1  0  0  0  0
 17 18  2  0  0  0  0
 18 19  1  0  0  0  0
 18 40  1  0  0  0  0
 19 20  2  0  0  0  0
 19 41  1  0  0  0  0
 20 21  1  0  0  0  0
 20 42  1  0  0  0  0
 21 22  2  0  0  0  0
 21 43  1  0  0  0  0
 22 23  1  0  0  0  0
 23 24  1  0  0  0  0
 24 44  1  0  0  0  0
 24 45  1  0  0  0  0
 24 46  1  0  0  0  0
M  CHG  1   6   1
M  END
> <s_m_source_file>
AV-unprocessed.smi

> <i_m_source_file_index>
460

> <i_lp_mmshare_version>
43012

> <i_f3d_flags>
0

> <s_epik_input>
W2NIXTFbY0hdW2NIXVtjSF1jKGMxMiluKGMobjIpW0NAQEhdKFtPSF0pW0NIMl1bQ0gzXSlbQ0gyXVtDSDJdT2MzW2NIXVtjSF1bY0hdW2NIXWMzT1tDSDNd

> <s_epik_cmdline>
J2VwaWtfcHl0aG9uJywgJy1waCcsICc3LjAnLCAnLXRuJywgJzgnLCAnLW1hJywgJzIwMCcsICctbWV0YWxfYmluZGluZycsICctaW1hZScsICc8aW5maWxlLm1hZT4nLCAnLW9tYWUnLCAnPG91dGZpbGUubWFlPic=

> <r_lp_tautomer_probability>
1

> <r_epik_Ionization_Penalty>
1.48085

> <r_epik_Ionization_Penalty_Charging>
1.48083

> <r_epik_Ionization_Penalty_Neutral>
1.80167e-05

> <r_epik_State_Penalty>
1.56944

> <r_epik_Charging_Adjusted_Penalty>
3.05027

> <i_epik_Tot_Q>
1

> <i_epik_Tot_abs_Q>
1

> <r_epik_Metal_State_Penalty>
5.61877

> <b_epik_Metal_Only>
0

> <s_lp_Force_Field>
OPLS_2005

> <r_lp_Energy>
23.3046

> <b_lp_Chiralities_Consistent>
1

> <s_lp_Variant>
AV-unprocessed.smi:460-3

> <Gold.Version>
5.8.1

> <Gold.Id.Protein>
6NUR|6NUR_protein|mol2

> <Gold.PLP.Fitness>
59.0435

> <Gold.PLP.PLP>
-51.0273

> <Gold.PLP.part.hbond>
-4.4428

> <Gold.PLP.part.metal>
0.0000

> <Gold.PLP.part.buried>
-1.0907

> <Gold.PLP.part.nonpolar>
-46.6518

> <Gold.PLP.part.repulsive>
0.2257

> <Gold.PLP.ligand.clash>
0.0000

> <Gold.PLP.ligand.torsion>
1.3222

> <Gold.PLP.Chemscore.Hbond>
3.5280

> <Gold.PLP.Chemscore.CHOScore>
0.0000

> <Gold.PLP.Chemscore.Metal>
0.0000

> <Gold.Chemscore.Hbonds>
donor molecule, donor type, donor heavy atom, donor atom, acceptor molecule, acceptor atom, score
      L1  H     4    31       P1  7949  0.51
      L1  H     6    47       P1  7948  2.00
      P1  H 10752 10763       L1     4  1.00

> <Gold.PLP.Chemscore.Internal.Correction>
0.0767

> <Gold.Rescore>
     Score         DG    S(hbond)    S(metal)    S(lipo)     H(rot)  DE(clash)    DE(int)     intcor
     20.72     -23.15       2.11        0.00     144.19       2.45       1.01       1.42       ----

> <Gold.Chemscore.Fitness>
20.7187

> <Gold.Chemscore.DG>
-23.1470

> <Gold.Chemscore.ZeroCoef>
-5.4800

> <Gold.Chemscore.Hbond>
2.1126

> <Gold.Chemscore.Metal>
0.0000

> <Gold.Chemscore.Lipo>
144.1888

> <Gold.Chemscore.Internal_Hbond>
0.0000

> <Gold.Chemscore.DEClash>
1.0113

> <Gold.Chemscore.DEInternal>
1.4169

> <Gold.Chemscore.Rot>
2.4450

> <Gold.Chemscore.Internal.Correction>
   9.000000E+99

> <Gold.Chemscore.Hbonds>
donor molecule, donor type, donor heavy atom, donor atom, acceptor molecule, acceptor atom, score
      L1  H     4    31       P1  7949  0.20
      L1  H     6    47       P1  7948  0.97
      P1  H 10752 10763       L1     4  0.34

> <Gold.Chemscore.Hbond.Weighted>
-7.0561

> <Gold.Chemscore.Metal.Weighted>
-0.0000

> <Gold.Chemscore.Lipo.Weighted>
-16.8701

> <Gold.Chemscore.Internal_Hbond.Weighted>
0.0000

> <Gold.Chemscore.DEClash.Weighted>
1.0113

> <Gold.Chemscore.DEInternal.Weighted>
1.4169

> <Gold.Chemscore.Rot.Weighted>
6.2593

> <Gold.Chemscore.Internal.Correction.Weighted>
   9.000000E+99

> <Gold.Protein.RotatedTorsions>
[ 6907 6896 6895 6894 ] final  124.63 input  -60.11 | X-H torsion
[ 7974 7965 7964 7962 ] final  116.55 input  175.53 | X-H torsion
[ 8008 7997 7996 7995 ] final -111.86 input   59.86 | X-H torsion
[ 10167 10162 10161 10158 ] final  120.49 input  -65.29 | X-H torsion
[ 10718 10713 10712 10709 ] final   69.42 input   66.30 | X-H torsion
[ 10763 10752 10751 10750 ] final   31.04 input  -60.55 | X-H torsion
[ 11005 11000 10999 10996 ] final  141.63 input  -57.11 | X-H torsion

> <Gold.Protein.ActiveResidues>
 VAL166  LYS551  ARG553  GLY616  TRP617  ASP618  TYR619  PRO620  LYS621  CYS622 
 ASP623  PHE694  ASN695  SER759  ASP760  ASP761  ALA762  ILE779  LEU786  VAL792 
 PHE793  MET794  SER795  GLU796  ALA797  LYS798  CYS799  TRP800  GLU811  SER814 

> <Gold.Protein.RotatedAtoms>
  152.4062  133.6892  159.6357 H   0  0  0  0  0  0  0  0  0  0  0  0  # atno 6907 bound_to 6896
  150.7947  133.8705  159.3266 H   0  0  0  0  0  0  0  0  0  0  0  0  # atno 6908 bound_to 6896
  151.6459  135.1009  160.0202 H   0  0  0  0  0  0  0  0  0  0  0  0  # atno 6909 bound_to 6896
  145.1783  139.3064  143.4431 H   0  0  0  0  0  0  0  0  0  0  0  0  # atno 7974 bound_to 7965
  154.9963  140.0394  157.2341 H   0  0  0  0  0  0  0  0  0  0  0  0  # atno 8008 bound_to 7997
  154.7583  140.2780  155.6212 H   0  0  0  0  0  0  0  0  0  0  0  0  # atno 8009 bound_to 7997
  156.2899  140.2633  156.2355 H   0  0  0  0  0  0  0  0  0  0  0  0  # atno 8010 bound_to 7997
  139.5979  144.7047  151.3133 H   0  0  0  0  0  0  0  0  0  0  0  0  # atno 10167 bound_to 10162
  157.6345  130.9425  150.0511 H   0  0  0  0  0  0  0  0  0  0  0  0  # atno 10718 bound_to 10713
  153.0338  135.6449  154.1138 H   0  0  0  0  0  0  0  0  0  0  0  0  # atno 10763 bound_to 10752
  154.0856  135.2870  155.3283 H   0  0  0  0  0  0  0  0  0  0  0  0  # atno 10764 bound_to 10752
  154.6500  135.5429  153.7954 H   0  0  0  0  0  0  0  0  0  0  0  0  # atno 10765 bound_to 10752
  140.0415  134.9302  157.0852 H   0  0  0  0  0  0  0  0  0  0  0  0  # atno 11005 bound_to 11000
  146.3457  140.1953  142.8589 LP  0  0  0  0  0  0  0  0  0  0  0  0  # atno 17320 bound_to 7965
  145.0163  140.8756  143.5194 LP  0  0  0  0  0  0  0  0  0  0  0  0  # atno 17321 bound_to 7965
  140.7226  143.7093  150.7782 LP  0  0  0  0  0  0  0  0  0  0  0  0  # atno 17342 bound_to 10162
  140.0663  143.5105  152.2602 LP  0  0  0  0  0  0  0  0  0  0  0  0  # atno 17343 bound_to 10162
  156.1573  130.3643  149.9351 LP  0  0  0  0  0  0  0  0  0  0  0  0  # atno 17370 bound_to 10713
  156.7357  130.9060  151.3629 LP  0  0  0  0  0  0  0  0  0  0  0  0  # atno 17371 bound_to 10713
  140.4061  134.2031  155.7163 LP  0  0  0  0  0  0  0  0  0  0  0  0  # atno 17394 bound_to 11000
  141.1885  133.8257  157.0990 LP  0  0  0  0  0  0  0  0  0  0  0  0  # atno 17395 bound_to 11000

$$$$
