AV-unprocessed.smi:36|AV-procd|sdf|285|dock4
  -GOLD-   2262016 63D 1   1.00000     0.00000
 Structure written by MMmdl.
 64 67  0  0  0  0  0  0  0  0  1 V2000
  145.9429  133.5880  162.8163 C   0  0  0  0  0  0  0  0  0  0  0  0
  147.1677  133.5800  161.8868 C   0  0  0  0  0  0  0  0  0  0  0  0
  147.7334  135.0040  161.7545 C   0  0  0  0  0  0  0  0  0  0  0  0
  148.2480  132.6442  162.4547 C   0  0  0  0  0  0  0  0  0  0  0  0
  146.6498  132.9528  160.1578 Si  0  0  0  0  0  0  0  0  0  0  0  0
  146.3280  131.0796  160.1784 C   0  0  0  0  0  0  0  0  0  0  0  0
  145.0965  133.8572  159.5397 C   0  0  0  0  0  0  0  0  0  0  0  0
  147.9193  133.2814  159.0859 O   0  0  0  0  0  0  0  0  0  0  0  0
  147.8593  133.0671  157.6896 C   0  0  0  0  0  0  0  0  0  0  0  0
  149.2772  132.8286  157.1353 C   0  0  2  0  0  0  0  0  0  0  0  0
  150.1070  133.8936  157.6114 O   0  0  0  0  0  0  0  0  0  0  0  0
  150.7207  134.5296  156.5364 C   0  0  2  0  0  0  0  0  0  0  0  0
  150.8918  135.9774  156.8578 N   0  0  0  0  0  0  0  0  0  0  0  0
  150.8271  136.5778  158.0956 C   0  0  0  0  0  0  0  0  0  0  0  0
  151.0012  137.8724  158.1005 N   0  0  0  0  0  0  0  0  0  0  0  0
  151.1931  138.1909  156.7622 C   0  0  0  0  0  0  0  0  0  0  0  0
  151.4273  139.4052  156.0650 C   0  0  0  0  0  0  0  0  0  0  0  0
  151.4983  140.5758  156.7421 N   0  0  0  0  0  0  0  0  0  0  0  0
  152.3275  140.9013  157.8896 C   0  0  0  0  0  0  0  0  0  0  0  0
  153.1401  140.1043  158.3594 O   0  0  0  0  0  0  0  0  0  0  0  0
  152.1965  142.2989  158.4216 C   0  0  0  0  0  0  0  0  0  0  0  0
  151.5742  143.2978  157.6393 C   0  0  0  0  0  0  0  0  0  0  0  0
  151.4586  144.6149  158.1245 C   0  0  0  0  0  0  0  0  0  0  0  0
  151.9719  144.9470  159.3922 C   0  0  0  0  0  0  0  0  0  0  0  0
  152.6043  143.9615  160.1732 C   0  0  0  0  0  0  0  0  0  0  0  0
  152.7200  142.6435  159.6894 C   0  0  0  0  0  0  0  0  0  0  0  0
  151.5694  139.3334  154.7152 N   0  0  0  0  0  0  0  0  0  0  0  0
  151.4849  138.1543  154.0916 C   0  0  0  0  0  0  0  0  0  0  0  0
  151.2700  136.9467  154.6169 N   0  0  0  0  0  0  0  0  0  0  0  0
  151.1274  137.0092  155.9720 C   0  0  0  0  0  0  0  0  0  0  0  0
  149.8054  134.3178  155.3411 C   0  0  0  0  0  0  0  0  0  0  0  0
  149.3955  132.8836  155.5964 C   0  0  2  0  0  0  0  0  0  0  0  0
  148.2182  132.5435  154.8910 O   0  0  0  0  0  0  0  0  0  0  0  0
  146.2043  133.9477  163.8120 H   0  0  0  0  0  0  0  0  0  0  0  0
  145.5236  132.5878  162.9289 H   0  0  0  0  0  0  0  0  0  0  0  0
  145.1542  134.2343  162.4303 H   0  0  0  0  0  0  0  0  0  0  0  0
  146.9872  135.6940  161.3597 H   0  0  0  0  0  0  0  0  0  0  0  0
  148.5918  135.0280  161.0823 H   0  0  0  0  0  0  0  0  0  0  0  0
  148.0603  135.3926  162.7196 H   0  0  0  0  0  0  0  0  0  0  0  0
  148.5850  132.9777  163.4368 H   0  0  0  0  0  0  0  0  0  0  0  0
  149.1211  132.6043  161.8022 H   0  0  0  0  0  0  0  0  0  0  0  0
  147.8746  131.6260  162.5653 H   0  0  0  0  0  0  0  0  0  0  0  0
  145.5178  130.8202  160.8595 H   0  0  0  0  0  0  0  0  0  0  0  0
  147.2099  130.5242  160.4964 H   0  0  0  0  0  0  0  0  0  0  0  0
  146.0502  130.7113  159.1912 H   0  0  0  0  0  0  0  0  0  0  0  0
  144.2457  133.6890  160.1995 H   0  0  0  0  0  0  0  0  0  0  0  0
  144.8053  133.5197  158.5453 H   0  0  0  0  0  0  0  0  0  0  0  0
  145.2556  134.9336  159.4815 H   0  0  0  0  0  0  0  0  0  0  0  0
  147.2191  132.2063  157.4947 H   0  0  0  0  0  0  0  0  0  0  0  0
  147.3894  133.9262  157.2117 H   0  0  0  0  0  0  0  0  0  0  0  0
  149.6619  131.8749  157.4961 H   0  0  0  0  0  0  0  0  0  0  0  0
  151.7274  134.1372  156.3844 H   0  0  0  0  0  0  0  0  0  0  0  0
  150.6450  136.0207  159.0031 H   0  0  0  0  0  0  0  0  0  0  0  0
  150.8940  141.3140  156.4118 H   0  0  0  0  0  0  0  0  0  0  0  0
  151.1758  143.0594  156.6635 H   0  0  0  0  0  0  0  0  0  0  0  0
  150.9767  145.3711  157.5223 H   0  0  0  0  0  0  0  0  0  0  0  0
  151.8837  145.9573  159.7635 H   0  0  0  0  0  0  0  0  0  0  0  0
  153.0042  144.2168  161.1434 H   0  0  0  0  0  0  0  0  0  0  0  0
  153.2170  141.9047  160.3011 H   0  0  0  0  0  0  0  0  0  0  0  0
  151.6058  138.1829  153.0186 H   0  0  0  0  0  0  0  0  0  0  0  0
  148.9497  134.9921  155.3980 H   0  0  0  0  0  0  0  0  0  0  0  0
  150.3330  134.4716  154.3995 H   0  0  0  0  0  0  0  0  0  0  0  0
  150.1996  132.2207  155.2730 H   0  0  0  0  0  0  0  0  0  0  0  0
  148.1787  131.6030  154.8071 H   0  0  0  0  0  0  0  0  0  0  0  0
  1  2  1  0  0  0  0
  1 34  1  0  0  0  0
  1 35  1  0  0  0  0
  1 36  1  0  0  0  0
  2  3  1  0  0  0  0
  2  4  1  0  0  0  0
  2  5  1  0  0  0  0
  3 37  1  0  0  0  0
  3 38  1  0  0  0  0
  3 39  1  0  0  0  0
  4 40  1  0  0  0  0
  4 41  1  0  0  0  0
  4 42  1  0  0  0  0
  5  6  1  0  0  0  0
  5  7  1  0  0  0  0
  5  8  1  0  0  0  0
  6 43  1  0  0  0  0
  6 44  1  0  0  0  0
  6 45  1  0  0  0  0
  7 46  1  0  0  0  0
  7 47  1  0  0  0  0
  7 48  1  0  0  0  0
  8  9  1  0  0  0  0
  9 10  1  0  0  0  0
  9 49  1  0  0  0  0
  9 50  1  0  0  0  0
 10 32  1  0  0  0  0
 10 11  1  0  0  0  0
 10 51  1  0  0  0  0
 11 12  1  0  0  0  0
 12 13  1  0  0  0  0
 12 31  1  0  0  0  0
 12 52  1  0  0  0  0
 13 30  1  0  0  0  0
 13 14  1  0  0  0  0
 14 15  2  0  0  0  0
 14 53  1  0  0  0  0
 15 16  1  0  0  0  0
 16 30  2  0  0  0  0
 16 17  1  0  0  0  0
 17 18  1  0  0  0  0
 17 27  2  0  0  0  0
 18 19  1  0  0  0  0
 18 54  1  0  0  0  0
 19 20  2  0  0  0  0
 19 21  1  0  0  0  0
 21 26  1  0  0  0  0
 21 22  2  0  0  0  0
 22 23  1  0  0  0  0
 22 55  1  0  0  0  0
 23 24  2  0  0  0  0
 23 56  1  0  0  0  0
 24 25  1  0  0  0  0
 24 57  1  0  0  0  0
 25 26  2  0  0  0  0
 25 58  1  0  0  0  0
 26 59  1  0  0  0  0
 27 28  1  0  0  0  0
 28 29  2  0  0  0  0
 28 60  1  0  0  0  0
 29 30  1  0  0  0  0
 31 32  1  0  0  0  0
 31 61  1  0  0  0  0
 31 62  1  0  0  0  0
 32 33  1  0  0  0  0
 32 63  1  0  0  0  0
 33 64  1  0  0  0  0
M  END
> <s_m_source_file>
AV-unprocessed.smi

> <i_m_source_file_index>
36

> <i_lp_mmshare_version>
43012

> <i_f3d_flags>
0

> <s_epik_input>
W0NIM11DKFtDSDNdKShbQ0gzXSlbU2ldKFtDSDNdKShbQ0gzXSlPW0NIMl1bQ0BASF0xT1tDQEhdKFtDSDJdW0NASF0xW09IXSluKFtjSF1uMiljKGMyMyluW2NIXW5jM1tOSF1DKD1PKWM0W2NIXVtjSF1bY0hdW2NIXVtjSF00

> <s_epik_cmdline>
J2VwaWtfcHl0aG9uJywgJy1waCcsICc3LjAnLCAnLXRuJywgJzgnLCAnLW1hJywgJzIwMCcsICctbWV0YWxfYmluZGluZycsICctaW1hZScsICc8aW5maWxlLm1hZT4nLCAnLW9tYWUnLCAnPG91dGZpbGUubWFlPic=

> <r_lp_tautomer_probability>
1

> <r_epik_Ionization_Penalty>
0.00150433

> <r_epik_Ionization_Penalty_Charging>
0

> <r_epik_Ionization_Penalty_Neutral>
0.00150433

> <r_epik_State_Penalty>
0.00724046

> <r_epik_Charging_Adjusted_Penalty>
0.00724046

> <i_epik_Tot_Q>
0

> <i_epik_Tot_abs_Q>
0

> <r_epik_Metal_State_Penalty>
0.323355

> <b_epik_Metal_Only>
0

> <s_epik_Chemistry_Notes>
This compound contains an acetal/aminal-like group ( X-CH(R)-Y where X, Y are N, S, or O) that may be acid/base labile, releasing an aldehyde.

> <s_lp_Force_Field>
OPLS_2005

> <r_lp_Energy>
39.4689

> <b_lp_Chiralities_Consistent>
1

> <s_lp_Variant>
AV-unprocessed.smi:36-7

> <Gold.Version>
5.8.1

> <Gold.Id.Protein>
6NUR|6NUR_protein|mol2

> <Gold.PLP.Fitness>
59.3891

> <Gold.PLP.PLP>
-49.6792

> <Gold.PLP.part.hbond>
-4.0000

> <Gold.PLP.part.metal>
0.0000

> <Gold.PLP.part.buried>
-7.5891

> <Gold.PLP.part.nonpolar>
-38.7877

> <Gold.PLP.part.repulsive>
0.3492

> <Gold.PLP.ligand.clash>
0.0000

> <Gold.PLP.ligand.torsion>
1.5784

> <Gold.PLP.Chemscore.Hbond>
3.8800

> <Gold.PLP.Chemscore.CHOScore>
0.3506

> <Gold.PLP.Chemscore.Metal>
0.0000

> <Gold.Chemscore.Hbonds>
donor molecule, donor type, donor heavy atom, donor atom, acceptor molecule, acceptor atom, score
      P1  H  6896  6908       L1    11  0.88
      P1  H  7989  7998       L1    27  1.00
      P1  H  7997  8009       L1    20  1.00
      P1  H 10752 10764       L1    29  0.68
      L1  C    28    60       P1  7949  0.48

> <Gold.PLP.Chemscore.Internal.Correction>
0.1747

> <Gold.Rescore>
     Score         DG    S(hbond)    S(metal)    S(lipo)     H(rot)  DE(clash)    DE(int)     intcor
     19.25     -22.30       2.98        0.00     117.76       2.70       0.43       2.62       ----

> <Gold.Chemscore.Fitness>
19.2474

> <Gold.Chemscore.DG>
-22.2976

> <Gold.Chemscore.ZeroCoef>
-5.4800

> <Gold.Chemscore.Hbond>
2.9826

> <Gold.Chemscore.Metal>
0.0000

> <Gold.Chemscore.Lipo>
117.7614

> <Gold.Chemscore.Internal_Hbond>
0.0000

> <Gold.Chemscore.DEClash>
0.4312

> <Gold.Chemscore.DEInternal>
2.6190

> <Gold.Chemscore.Rot>
2.7041

> <Gold.Chemscore.Internal.Correction>
   9.000000E+99

> <Gold.Chemscore.Hbonds>
donor molecule, donor type, donor heavy atom, donor atom, acceptor molecule, acceptor atom, score
      P1  H  6896  6908       L1    11  0.81
      P1  H  7989  7998       L1    27  0.84
      P1  H  7997  8009       L1    20  0.32
      P1  H 10752 10764       L1    29  0.30

> <Gold.Chemscore.Hbond.Weighted>
-9.9620

> <Gold.Chemscore.Metal.Weighted>
-0.0000

> <Gold.Chemscore.Lipo.Weighted>
-13.7781

> <Gold.Chemscore.Internal_Hbond.Weighted>
0.0000

> <Gold.Chemscore.DEClash.Weighted>
0.4312

> <Gold.Chemscore.DEInternal.Weighted>
2.6190

> <Gold.Chemscore.Rot.Weighted>
6.9225

> <Gold.Chemscore.Internal.Correction.Weighted>
   9.000000E+99

> <Gold.Protein.RotatedTorsions>
[ 6907 6896 6895 6894 ] final  108.33 input  -60.11 | X-H torsion
[ 7974 7965 7964 7962 ] final   93.52 input  175.53 | X-H torsion
[ 8008 7997 7996 7995 ] final  159.18 input   59.86 | X-H torsion
[ 10167 10162 10161 10158 ] final  -89.70 input  -65.29 | X-H torsion
[ 10718 10713 10712 10709 ] final -155.91 input   66.30 | X-H torsion
[ 10763 10752 10751 10750 ] final  -84.94 input  -60.55 | X-H torsion
[ 11005 11000 10999 10996 ] final   64.94 input  -57.11 | X-H torsion

> <Gold.Protein.ActiveResidues>
 VAL166  LYS551  ARG553  GLY616  TRP617  ASP618  TYR619  PRO620  LYS621  CYS622 
 ASP623  PHE694  ASN695  SER759  ASP760  ASP761  ALA762  ILE779  LEU786  VAL792 
 PHE793  MET794  SER795  GLU796  ALA797  LYS798  CYS799  TRP800  GLU811  SER814 

> <Gold.Protein.RotatedAtoms>
  152.5117  133.9105  159.7485 H   0  0  0  0  0  0  0  0  0  0  0  0  # atno 6907 bound_to 6896
  150.9499  133.6552  159.2781 H   0  0  0  0  0  0  0  0  0  0  0  0  # atno 6908 bound_to 6896
  151.3834  135.0949  159.9556 H   0  0  0  0  0  0  0  0  0  0  0  0  # atno 6909 bound_to 6896
  145.4778  139.2279  143.2899 H   0  0  0  0  0  0  0  0  0  0  0  0  # atno 7974 bound_to 7965
  156.2256  140.1838  156.7372 H   0  0  0  0  0  0  0  0  0  0  0  0  # atno 8008 bound_to 7997
  154.5935  140.0647  156.9299 H   0  0  0  0  0  0  0  0  0  0  0  0  # atno 8009 bound_to 7997
  155.2295  140.3313  155.4307 H   0  0  0  0  0  0  0  0  0  0  0  0  # atno 8010 bound_to 7997
  140.3622  143.2836  151.9600 H   0  0  0  0  0  0  0  0  0  0  0  0  # atno 10167 bound_to 10162
  156.5193  130.8470  151.2676 H   0  0  0  0  0  0  0  0  0  0  0  0  # atno 10718 bound_to 10713
  154.6054  135.5502  153.7417 H   0  0  0  0  0  0  0  0  0  0  0  0  # atno 10763 bound_to 10752
  153.0172  135.6376  154.1655 H   0  0  0  0  0  0  0  0  0  0  0  0  # atno 10764 bound_to 10752
  154.1594  135.2898  155.3093 H   0  0  0  0  0  0  0  0  0  0  0  0  # atno 10765 bound_to 10752
  139.9926  134.6567  156.0064 H   0  0  0  0  0  0  0  0  0  0  0  0  # atno 11005 bound_to 11000
  146.2359  140.5561  142.8955 LP  0  0  0  0  0  0  0  0  0  0  0  0  # atno 17320 bound_to 7965
  144.7907  140.6026  143.6543 LP  0  0  0  0  0  0  0  0  0  0  0  0  # atno 17321 bound_to 7965
  139.4813  144.5982  151.7652 LP  0  0  0  0  0  0  0  0  0  0  0  0  # atno 17342 bound_to 10162
  140.5115  144.1017  150.5996 LP  0  0  0  0  0  0  0  0  0  0  0  0  # atno 17343 bound_to 10162
  157.7439  130.9923  150.2631 LP  0  0  0  0  0  0  0  0  0  0  0  0  # atno 17370 bound_to 10713
  156.3165  130.3779  149.7614 LP  0  0  0  0  0  0  0  0  0  0  0  0  # atno 17371 bound_to 10713
  141.1578  133.6541  156.4220 LP  0  0  0  0  0  0  0  0  0  0  0  0  # atno 17394 bound_to 11000
  140.4879  134.6603  157.5198 LP  0  0  0  0  0  0  0  0  0  0  0  0  # atno 17395 bound_to 11000

$$$$
