AV-unprocessed.smi:1690|AV-procd|sdf|6773|dock1
  -GOLD-   22720 7533D 1   1.00000     0.00000
 Structure written by MMmdl.
 37 38  0  0  0  0  0  0  0  0  1 V2000
  153.5863  141.0740  160.6389 C   0  0  0  0  0  0  0  0  0  0  0  0
  153.4130  142.5140  161.1430 C   0  0  0  0  0  0  0  0  0  0  0  0
  152.7795  142.5913  162.5399 C   0  0  0  0  0  0  0  0  0  0  0  0
  152.6939  143.3752  160.1532 C   0  0  0  0  0  0  0  0  0  0  0  0
  152.4551  143.0106  158.8899 N   0  0  0  0  0  0  0  0  0  0  0  0
  151.7496  143.9803  158.1695 C   0  0  0  0  0  0  0  0  0  0  0  0
  151.3768  143.7258  156.7370 C   0  0  0  0  0  0  0  0  0  0  0  0
  150.7316  142.3459  156.5883 C   0  0  0  0  0  0  0  0  0  0  0  0
  151.3042  141.3478  157.0255 O   0  0  0  0  0  0  0  0  0  0  0  0
  149.5366  142.3058  155.9777 N   0  0  0  0  0  0  0  0  0  0  0  0
  148.7568  141.0990  155.7196 C   0  0  0  0  0  0  0  0  0  0  0  0
  149.5230  140.1482  154.7792 C   0  0  0  0  0  0  0  0  0  0  0  0
  148.5474  139.7775  153.6603 C   0  0  0  0  0  0  0  0  0  0  0  0
  147.6115  140.9778  153.5587 C   0  0  0  0  0  0  0  0  0  0  0  0
  147.4316  141.4317  155.0073 C   0  0  0  0  0  0  0  0  0  0  0  0
  151.4698  145.1033  158.9082 C   0  0  0  0  0  0  0  0  0  0  0  0
  152.0688  144.9749  160.5391 S   0  0  0  0  0  0  0  0  0  0  0  0
  154.1132  141.0537  159.6843 H   0  0  0  0  0  0  0  0  0  0  0  0
  152.6224  140.5840  160.4982 H   0  0  0  0  0  0  0  0  0  0  0  0
  154.1617  140.4766  161.3465 H   0  0  0  0  0  0  0  0  0  0  0  0
  154.4172  142.9290  161.2380 H   0  0  0  0  0  0  0  0  0  0  0  0
  152.7503  143.6200  162.9006 H   0  0  0  0  0  0  0  0  0  0  0  0
  153.3471  142.0040  163.2619 H   0  0  0  0  0  0  0  0  0  0  0  0
  151.7574  142.2113  162.5336 H   0  0  0  0  0  0  0  0  0  0  0  0
  150.6843  144.4900  156.3814 H   0  0  0  0  0  0  0  0  0  0  0  0
  152.2531  143.7797  156.0898 H   0  0  0  0  0  0  0  0  0  0  0  0
  149.1444  143.1783  155.6537 H   0  0  0  0  0  0  0  0  0  0  0  0
  148.5469  140.5866  156.6605 H   0  0  0  0  0  0  0  0  0  0  0  0
  150.3898  140.6496  154.3448 H   0  0  0  0  0  0  0  0  0  0  0  0
  149.8932  139.2655  155.3015 H   0  0  0  0  0  0  0  0  0  0  0  0
  149.0525  139.5564  152.7197 H   0  0  0  0  0  0  0  0  0  0  0  0
  147.9772  138.8931  153.9478 H   0  0  0  0  0  0  0  0  0  0  0  0
  148.0901  141.7701  152.9815 H   0  0  0  0  0  0  0  0  0  0  0  0
  146.6657  140.7348  153.0736 H   0  0  0  0  0  0  0  0  0  0  0  0
  146.6255  140.8565  155.4650 H   0  0  0  0  0  0  0  0  0  0  0  0
  147.1514  142.4837  155.0765 H   0  0  0  0  0  0  0  0  0  0  0  0
  150.9423  145.9919  158.5943 H   0  0  0  0  0  0  0  0  0  0  0  0
  1  2  1  0  0  0  0
  1 18  1  0  0  0  0
  1 19  1  0  0  0  0
  1 20  1  0  0  0  0
  2  3  1  0  0  0  0
  2  4  1  0  0  0  0
  2 21  1  0  0  0  0
  3 22  1  0  0  0  0
  3 23  1  0  0  0  0
  3 24  1  0  0  0  0
  4 17  1  0  0  0  0
  4  5  2  0  0  0  0
  5  6  1  0  0  0  0
  6  7  1  0  0  0  0
  6 16  2  0  0  0  0
  7  8  1  0  0  0  0
  7 25  1  0  0  0  0
  7 26  1  0  0  0  0
  8  9  2  0  0  0  0
  8 10  1  0  0  0  0
 10 11  1  0  0  0  0
 10 27  1  0  0  0  0
 11 15  1  0  0  0  0
 11 12  1  0  0  0  0
 11 28  1  0  0  0  0
 12 13  1  0  0  0  0
 12 29  1  0  0  0  0
 12 30  1  0  0  0  0
 13 14  1  0  0  0  0
 13 31  1  0  0  0  0
 13 32  1  0  0  0  0
 14 15  1  0  0  0  0
 14 33  1  0  0  0  0
 14 34  1  0  0  0  0
 15 35  1  0  0  0  0
 15 36  1  0  0  0  0
 16 17  1  0  0  0  0
 16 37  1  0  0  0  0
M  END
> <s_m_source_file>
AV-unprocessed.smi

> <i_m_source_file_index>
1690

> <i_lp_mmshare_version>
43012

> <i_f3d_flags>
0

> <s_epik_input>
W0NIM11bQ0hdKFtDSDNdKWMxbmMoW2NIXXMxKVtDSDJdQyg9TylbTkhdW0NIXTJbQ0gyXVtDSDJdW0NIMl1bQ0gyXTI=

> <s_epik_cmdline>
J2VwaWtfcHl0aG9uJywgJy1waCcsICc3LjAnLCAnLXRuJywgJzgnLCAnLW1hJywgJzIwMCcsICctbWV0YWxfYmluZGluZycsICctaW1hZScsICc8aW5maWxlLm1hZT4nLCAnLW9tYWUnLCAnPG91dGZpbGUubWFlPic=

> <r_lp_tautomer_probability>
1

> <r_epik_Ionization_Penalty>
4.81312e-05

> <r_epik_Ionization_Penalty_Charging>
0

> <r_epik_Ionization_Penalty_Neutral>
4.81312e-05

> <r_epik_State_Penalty>
-0

> <r_epik_Charging_Adjusted_Penalty>
0

> <i_epik_Tot_Q>
0

> <i_epik_Tot_abs_Q>
0

> <r_epik_Metal_State_Penalty>
-0

> <b_epik_Metal_Only>
0

> <s_lp_Force_Field>
OPLS_2005

> <r_lp_Energy>
9.48899

> <b_lp_Chiralities_Consistent>
1

> <s_lp_Variant>
AV-unprocessed.smi:1690-1

> <Gold.Version>
5.8.1

> <Gold.Id.Protein>
6NUR|6NUR_protein|mol2

> <Gold.PLP.Fitness>
42.7610

> <Gold.PLP.PLP>
-40.8169

> <Gold.PLP.part.hbond>
-0.9317

> <Gold.PLP.part.metal>
0.0000

> <Gold.PLP.part.buried>
0.1960

> <Gold.PLP.part.nonpolar>
-40.6472

> <Gold.PLP.part.repulsive>
0.1590

> <Gold.PLP.ligand.clash>
0.0000

> <Gold.PLP.ligand.torsion>
0.5787

> <Gold.PLP.Chemscore.Hbond>
1.0000

> <Gold.PLP.Chemscore.CHOScore>
0.0000

> <Gold.PLP.Chemscore.Metal>
0.0000

> <Gold.Chemscore.Hbonds>
donor molecule, donor type, donor heavy atom, donor atom, acceptor molecule, acceptor atom, score
      L1  H    10    27       P1  8028  1.00

> <Gold.PLP.Chemscore.Internal.Correction>
0.1015

> <Gold.Rescore>
     Score         DG    S(hbond)    S(metal)    S(lipo)     H(rot)  DE(clash)    DE(int)     intcor
     16.15     -19.43       1.00        0.00     120.29       1.35       0.51       2.76       ----

> <Gold.Chemscore.Fitness>
16.1509

> <Gold.Chemscore.DG>
-19.4251

> <Gold.Chemscore.ZeroCoef>
-5.4800

> <Gold.Chemscore.Hbond>
0.9955

> <Gold.Chemscore.Metal>
0.0000

> <Gold.Chemscore.Lipo>
120.2850

> <Gold.Chemscore.Internal_Hbond>
0.0000

> <Gold.Chemscore.DEClash>
0.5135

> <Gold.Chemscore.DEInternal>
2.7607

> <Gold.Chemscore.Rot>
1.3489

> <Gold.Chemscore.Internal.Correction>
   9.000000E+99

> <Gold.Chemscore.Hbonds>
donor molecule, donor type, donor heavy atom, donor atom, acceptor molecule, acceptor atom, score
      L1  H    10    27       P1  8028  0.95

> <Gold.Chemscore.Hbond.Weighted>
-3.3249

> <Gold.Chemscore.Metal.Weighted>
-0.0000

> <Gold.Chemscore.Lipo.Weighted>
-14.0733

> <Gold.Chemscore.Internal_Hbond.Weighted>
0.0000

> <Gold.Chemscore.DEClash.Weighted>
0.5135

> <Gold.Chemscore.DEInternal.Weighted>
2.7607

> <Gold.Chemscore.Rot.Weighted>
3.4532

> <Gold.Chemscore.Internal.Correction.Weighted>
   9.000000E+99

> <Gold.Protein.RotatedTorsions>
[ 6907 6896 6895 6894 ] final -133.90 input  -60.11 | X-H torsion
[ 7974 7965 7964 7962 ] final    9.13 input  175.53 | X-H torsion
[ 8008 7997 7996 7995 ] final   41.77 input   59.86 | X-H torsion
[ 10167 10162 10161 10158 ] final   72.78 input  -65.29 | X-H torsion
[ 10718 10713 10712 10709 ] final   85.09 input   66.30 | X-H torsion
[ 10763 10752 10751 10750 ] final  133.50 input  -60.55 | X-H torsion
[ 11005 11000 10999 10996 ] final   71.90 input  -57.11 | X-H torsion

> <Gold.Protein.ActiveResidues>
 VAL166  LYS551  ARG553  GLY616  TRP617  ASP618  TYR619  PRO620  LYS621  CYS622 
 ASP623  PHE694  ASN695  SER759  ASP760  ASP761  ALA762  ILE779  LEU786  VAL792 
 PHE793  MET794  SER795  GLU796  ALA797  LYS798  CYS799  TRP800  GLU811  SER814 

> <Gold.Protein.RotatedAtoms>
  150.9795  133.6260  159.2724 H   0  0  0  0  0  0  0  0  0  0  0  0  # atno 6907 bound_to 6896
  151.3520  135.0885  159.9416 H   0  0  0  0  0  0  0  0  0  0  0  0  # atno 6908 bound_to 6896
  152.5211  133.9386  159.7670 H   0  0  0  0  0  0  0  0  0  0  0  0  # atno 6909 bound_to 6896
  146.2407  139.9829  142.8434 H   0  0  0  0  0  0  0  0  0  0  0  0  # atno 7974 bound_to 7965
  155.2752  140.3368  155.4262 H   0  0  0  0  0  0  0  0  0  0  0  0  # atno 8008 bound_to 7997
  156.2115  140.1772  156.7726 H   0  0  0  0  0  0  0  0  0  0  0  0  # atno 8009 bound_to 7997
  154.5693  140.0673  156.8924 H   0  0  0  0  0  0  0  0  0  0  0  0  # atno 8010 bound_to 7997
  140.0316  144.5461  150.7502 H   0  0  0  0  0  0  0  0  0  0  0  0  # atno 10167 bound_to 10162
  157.6909  131.0160  150.2770 H   0  0  0  0  0  0  0  0  0  0  0  0  # atno 10718 bound_to 10713
  153.8082  135.3132  155.3398 H   0  0  0  0  0  0  0  0  0  0  0  0  # atno 10763 bound_to 10752
  154.8062  135.4696  154.0401 H   0  0  0  0  0  0  0  0  0  0  0  0  # atno 10764 bound_to 10752
  153.1771  135.6887  153.8617 H   0  0  0  0  0  0  0  0  0  0  0  0  # atno 10765 bound_to 10752
  139.9519  134.7212  156.0843 H   0  0  0  0  0  0  0  0  0  0  0  0  # atno 11005 bound_to 11000
  145.1574  140.9655  143.4397 LP  0  0  0  0  0  0  0  0  0  0  0  0  # atno 17320 bound_to 7965
  145.0148  139.3477  143.6102 LP  0  0  0  0  0  0  0  0  0  0  0  0  # atno 17321 bound_to 7965
  140.7299  143.2678  151.3987 LP  0  0  0  0  0  0  0  0  0  0  0  0  # atno 17342 bound_to 10162
  139.6072  144.1172  152.2261 LP  0  0  0  0  0  0  0  0  0  0  0  0  # atno 17343 bound_to 10162
  156.3323  130.3802  149.7480 LP  0  0  0  0  0  0  0  0  0  0  0  0  # atno 17370 bound_to 10713
  156.5016  130.8131  151.3135 LP  0  0  0  0  0  0  0  0  0  0  0  0  # atno 17371 bound_to 10713
  141.1183  133.6621  156.3150 LP  0  0  0  0  0  0  0  0  0  0  0  0  # atno 17394 bound_to 11000
  140.5700  134.5850  157.5455 LP  0  0  0  0  0  0  0  0  0  0  0  0  # atno 17395 bound_to 11000

$$$$
