AV-unprocessed.smi:1934|AV-procd|sdf|7826|dock4
  -GOLD-   22720 9573D 1   1.00000     0.00000
 Structure written by MMmdl.
 46 47  0  0  0  0  0  0  0  0  2 V2000
  151.6578  141.8977  157.5784 C   0  0  0  0  0  0  0  0  0  0  0  0
  151.3630  140.9085  156.4896 C   0  0  0  0  0  0  0  0  0  0  0  0
  150.1338  140.7087  155.7969 C   0  0  0  0  0  0  0  0  0  0  0  0
  150.4377  139.6943  154.9307 C   0  0  0  0  0  0  0  0  0  0  0  0
  149.6388  139.0852  154.0145 N   0  0  0  0  0  0  0  0  0  0  0  0
  148.3304  139.2852  153.7785 C   0  0  0  0  0  0  0  0  0  0  0  0
  147.6114  140.0918  154.3687 O   0  0  0  0  0  0  0  0  0  0  0  0
  147.8824  138.4768  152.8072 N   0  0  0  0  0  0  0  0  0  0  0  0
  146.5065  138.4370  152.3252 C   0  0  0  0  0  0  0  0  0  0  0  0
  145.7149  137.2829  152.9714 C   0  0  0  0  0  0  0  0  0  0  0  0
  146.2211  135.9468  152.5674 N   0  3  2  0  0  0  0  0  0  0  0  0
  145.5479  135.4442  151.3415 C   0  0  0  0  0  0  0  0  0  0  0  0
  146.1762  134.1261  150.8626 C   0  0  0  0  0  0  0  0  0  0  0  0
  146.1443  133.0683  151.9726 C   0  0  0  0  0  0  0  0  0  0  0  0
  146.8218  133.6094  153.2424 C   0  0  2  0  0  0  0  0  0  0  0  0
  146.7815  132.5797  154.3805 C   0  0  0  0  0  0  0  0  0  0  0  0
  146.1750  134.9438  153.6659 C   0  0  0  0  0  0  0  0  0  0  0  0
  151.7569  139.3389  155.1069 N   0  0  0  0  0  0  0  0  0  0  0  0
  152.5372  138.3213  154.4294 C   0  0  0  0  0  0  0  0  0  0  0  0
  152.3240  140.0902  156.0754 N   0  0  0  0  0  0  0  0  0  0  0  0
  150.7869  142.5173  157.7935 H   0  0  0  0  0  0  0  0  0  0  0  0
  152.4749  142.5619  157.2957 H   0  0  0  0  0  0  0  0  0  0  0  0
  151.9408  141.3923  158.5021 H   0  0  0  0  0  0  0  0  0  0  0  0
  149.1997  141.2331  155.9301 H   0  0  0  0  0  0  0  0  0  0  0  0
  150.0902  138.3765  153.4552 H   0  0  0  0  0  0  0  0  0  0  0  0
  148.5388  137.8452  152.3711 H   0  0  0  0  0  0  0  0  0  0  0  0
  146.0170  139.3932  152.5183 H   0  0  0  0  0  0  0  0  0  0  0  0
  146.5495  138.3231  151.2428 H   0  0  0  0  0  0  0  0  0  0  0  0
  145.7220  137.3687  154.0593 H   0  0  0  0  0  0  0  0  0  0  0  0
  144.6714  137.3695  152.6648 H   0  0  0  0  0  0  0  0  0  0  0  0
  144.4840  135.3049  151.5400 H   0  0  0  0  0  0  0  0  0  0  0  0
  145.6278  136.1848  150.5449 H   0  0  0  0  0  0  0  0  0  0  0  0
  145.6459  133.7589  149.9833 H   0  0  0  0  0  0  0  0  0  0  0  0
  147.2068  134.3019  150.5512 H   0  0  0  0  0  0  0  0  0  0  0  0
  145.1104  132.7950  152.1889 H   0  0  0  0  0  0  0  0  0  0  0  0
  146.6433  132.1598  151.6334 H   0  0  0  0  0  0  0  0  0  0  0  0
  147.8709  133.8012  153.0104 H   0  0  0  0  0  0  0  0  0  0  0  0
  145.7561  132.3502  154.6725 H   0  0  0  0  0  0  0  0  0  0  0  0
  147.3042  132.9491  155.2633 H   0  0  0  0  0  0  0  0  0  0  0  0
  147.2591  131.6458  154.0824 H   0  0  0  0  0  0  0  0  0  0  0  0
  146.6984  135.3244  154.5422 H   0  0  0  0  0  0  0  0  0  0  0  0
  145.1379  134.7819  153.9655 H   0  0  0  0  0  0  0  0  0  0  0  0
  152.3797  138.3901  153.3528 H   0  0  0  0  0  0  0  0  0  0  0  0
  152.2268  137.3346  154.7737 H   0  0  0  0  0  0  0  0  0  0  0  0
  153.6002  138.4520  154.6373 H   0  0  0  0  0  0  0  0  0  0  0  0
  147.1929  136.0713  152.3215 H   0  0  0  0  0  0  0  0  0  0  0  0
  1  2  1  0  0  0  0
  1 21  1  0  0  0  0
  1 22  1  0  0  0  0
  1 23  1  0  0  0  0
  2 20  2  0  0  0  0
  2  3  1  0  0  0  0
  3  4  2  0  0  0  0
  3 24  1  0  0  0  0
  4  5  1  0  0  0  0
  4 18  1  0  0  0  0
  5  6  1  0  0  0  0
  5 25  1  0  0  0  0
  6  7  2  0  0  0  0
  6  8  1  0  0  0  0
  8  9  1  0  0  0  0
  8 26  1  0  0  0  0
  9 10  1  0  0  0  0
  9 27  1  0  0  0  0
  9 28  1  0  0  0  0
 10 11  1  0  0  0  0
 10 29  1  0  0  0  0
 10 30  1  0  0  0  0
 11 17  1  0  0  0  0
 11 12  1  0  0  0  0
 11 46  1  0  0  0  0
 12 13  1  0  0  0  0
 12 31  1  0  0  0  0
 12 32  1  0  0  0  0
 13 14  1  0  0  0  0
 13 33  1  0  0  0  0
 13 34  1  0  0  0  0
 14 15  1  0  0  0  0
 14 35  1  0  0  0  0
 14 36  1  0  0  0  0
 15 16  1  0  0  0  0
 15 17  1  0  0  0  0
 15 37  1  0  0  0  0
 16 38  1  0  0  0  0
 16 39  1  0  0  0  0
 16 40  1  0  0  0  0
 17 41  1  0  0  0  0
 17 42  1  0  0  0  0
 18 19  1  0  0  0  0
 18 20  1  0  0  0  0
 19 43  1  0  0  0  0
 19 44  1  0  0  0  0
 19 45  1  0  0  0  0
M  CHG  1  11   1
M  END
> <s_m_source_file>
AV-unprocessed.smi

> <i_m_source_file_index>
1934

> <i_lp_mmshare_version>
43012

> <i_f3d_flags>
0

> <s_epik_input>
W0NIM11jMVtjSF1jKG4objEpW0NIM10pW05IXUMoPU8pW05IXVtDSDJdW0NIMl1OMltDSDJdW0NIMl1bQ0gyXVtDQEBIXShbQ0gzXSlbQ0gyXTI=

> <s_epik_cmdline>
J2VwaWtfcHl0aG9uJywgJy1waCcsICc3LjAnLCAnLXRuJywgJzgnLCAnLW1hJywgJzIwMCcsICctbWV0YWxfYmluZGluZycsICctaW1hZScsICc8aW5maWxlLm1hZT4nLCAnLW9tYWUnLCAnPG91dGZpbGUubWFlPic=

> <r_lp_tautomer_probability>
1

> <r_epik_Ionization_Penalty>
0.00202955

> <r_epik_Ionization_Penalty_Charging>
0.00195276

> <r_epik_Ionization_Penalty_Neutral>
7.67968e-05

> <r_epik_State_Penalty>
0.00133177

> <r_epik_Charging_Adjusted_Penalty>
0.00328452

> <i_epik_Tot_Q>
1

> <i_epik_Tot_abs_Q>
1

> <r_epik_Metal_State_Penalty>
-0

> <b_epik_Metal_Only>
0

> <s_lp_Force_Field>
OPLS_2005

> <r_lp_Energy>
17.6546

> <b_lp_Chiralities_Consistent>
1

> <s_lp_Variant>
AV-unprocessed.smi:1934-4

> <Gold.Version>
5.8.1

> <Gold.Id.Protein>
6NUR|6NUR_protein|mol2

> <Gold.PLP.Fitness>
45.9546

> <Gold.PLP.PLP>
-35.1698

> <Gold.PLP.part.hbond>
-5.0000

> <Gold.PLP.part.metal>
0.0000

> <Gold.PLP.part.buried>
-2.9461

> <Gold.PLP.part.nonpolar>
-27.0591

> <Gold.PLP.part.repulsive>
0.2573

> <Gold.PLP.ligand.clash>
0.0000

> <Gold.PLP.ligand.torsion>
0.6065

> <Gold.PLP.Chemscore.Hbond>
3.9913

> <Gold.PLP.Chemscore.CHOScore>
0.0000

> <Gold.PLP.Chemscore.Metal>
0.0000

> <Gold.Chemscore.Hbonds>
donor molecule, donor type, donor heavy atom, donor atom, acceptor molecule, acceptor atom, score
      L1  H     8    26       P1  7948  1.00
      L1  H    11    46       P1  7948  2.00
      P1  H  7997  8009       L1    20  1.00

> <Gold.PLP.Chemscore.Internal.Correction>
0.0240

> <Gold.Rescore>
     Score         DG    S(hbond)    S(metal)    S(lipo)     H(rot)  DE(clash)    DE(int)     intcor
     17.66     -19.39       2.97        0.00      66.49       1.48       0.05       1.68       ----

> <Gold.Chemscore.Fitness>
17.6587

> <Gold.Chemscore.DG>
-19.3881

> <Gold.Chemscore.ZeroCoef>
-5.4800

> <Gold.Chemscore.Hbond>
2.9723

> <Gold.Chemscore.Metal>
0.0000

> <Gold.Chemscore.Lipo>
66.4871

> <Gold.Chemscore.Internal_Hbond>
0.0000

> <Gold.Chemscore.DEClash>
0.0528

> <Gold.Chemscore.DEInternal>
1.6766

> <Gold.Chemscore.Rot>
1.4838

> <Gold.Chemscore.Internal.Correction>
   9.000000E+99

> <Gold.Chemscore.Hbonds>
donor molecule, donor type, donor heavy atom, donor atom, acceptor molecule, acceptor atom, score
      L1  H     8    26       P1  7948  0.95
      L1  H    11    46       P1  7948  1.00
      P1  H  7997  8009       L1    20  0.92

> <Gold.Chemscore.Hbond.Weighted>
-9.9276

> <Gold.Chemscore.Metal.Weighted>
-0.0000

> <Gold.Chemscore.Lipo.Weighted>
-7.7790

> <Gold.Chemscore.Internal_Hbond.Weighted>
0.0000

> <Gold.Chemscore.DEClash.Weighted>
0.0528

> <Gold.Chemscore.DEInternal.Weighted>
1.6766

> <Gold.Chemscore.Rot.Weighted>
3.7985

> <Gold.Chemscore.Internal.Correction.Weighted>
   9.000000E+99

> <Gold.Protein.RotatedTorsions>
[ 6907 6896 6895 6894 ] final -103.15 input  -60.11 | X-H torsion
[ 7974 7965 7964 7962 ] final   26.04 input  175.53 | X-H torsion
[ 8008 7997 7996 7995 ] final -163.35 input   59.86 | X-H torsion
[ 10167 10162 10161 10158 ] final   22.59 input  -65.29 | X-H torsion
[ 10718 10713 10712 10709 ] final   16.84 input   66.30 | X-H torsion
[ 10763 10752 10751 10750 ] final  107.45 input  -60.55 | X-H torsion
[ 11005 11000 10999 10996 ] final -107.84 input  -57.11 | X-H torsion

> <Gold.Protein.ActiveResidues>
 VAL166  LYS551  ARG553  GLY616  TRP617  ASP618  TYR619  PRO620  LYS621  CYS622 
 ASP623  PHE694  ASN695  SER759  ASP760  ASP761  ALA762  ILE779  LEU786  VAL792 
 PHE793  MET794  SER795  GLU796  ALA797  LYS798  CYS799  TRP800  GLU811  SER814 

> <Gold.Protein.RotatedAtoms>
  150.7227  134.0474  159.3786 H   0  0  0  0  0  0  0  0  0  0  0  0  # atno 6907 bound_to 6896
  151.8449  135.0575  160.0461 H   0  0  0  0  0  0  0  0  0  0  0  0  # atno 6908 bound_to 6896
  152.2834  133.5456  159.5548 H   0  0  0  0  0  0  0  0  0  0  0  0  # atno 6909 bound_to 6896
  146.1858  139.7383  142.8867 H   0  0  0  0  0  0  0  0  0  0  0  0  # atno 7974 bound_to 7965
  155.8200  140.0918  157.1854 H   0  0  0  0  0  0  0  0  0  0  0  0  # atno 8008 bound_to 7997
  154.3979  140.1438  156.3549 H   0  0  0  0  0  0  0  0  0  0  0  0  # atno 8009 bound_to 7997
  155.8276  140.3444  155.5555 H   0  0  0  0  0  0  0  0  0  0  0  0  # atno 8010 bound_to 7997
  140.5337  143.9798  150.6479 H   0  0  0  0  0  0  0  0  0  0  0  0  # atno 10167 bound_to 10162
  157.0735  130.6358  149.5811 H   0  0  0  0  0  0  0  0  0  0  0  0  # atno 10718 bound_to 10713
  153.4069  135.3844  155.2024 H   0  0  0  0  0  0  0  0  0  0  0  0  # atno 10763 bound_to 10752
  154.8734  135.3785  154.4549 H   0  0  0  0  0  0  0  0  0  0  0  0  # atno 10764 bound_to 10752
  153.5053  135.7088  153.5872 H   0  0  0  0  0  0  0  0  0  0  0  0  # atno 10765 bound_to 10752
  141.0933  133.9016  157.2023 H   0  0  0  0  0  0  0  0  0  0  0  0  # atno 11005 bound_to 11000
  145.3942  141.0376  143.3107 LP  0  0  0  0  0  0  0  0  0  0  0  0  # atno 17320 bound_to 7965
  144.8395  139.5495  143.6907 LP  0  0  0  0  0  0  0  0  0  0  0  0  # atno 17321 bound_to 7965
  140.3180  143.3155  152.0813 LP  0  0  0  0  0  0  0  0  0  0  0  0  # atno 17342 bound_to 10162
  139.4963  144.6593  151.6502 LP  0  0  0  0  0  0  0  0  0  0  0  0  # atno 17343 bound_to 10162
  155.9943  130.5007  150.7416 LP  0  0  0  0  0  0  0  0  0  0  0  0  # atno 17370 bound_to 10713
  157.4858  131.0906  151.0484 LP  0  0  0  0  0  0  0  0  0  0  0  0  # atno 17371 bound_to 10713
  139.9764  135.0112  156.9641 LP  0  0  0  0  0  0  0  0  0  0  0  0  # atno 17394 bound_to 11000
  140.5200  134.0917  155.7290 LP  0  0  0  0  0  0  0  0  0  0  0  0  # atno 17395 bound_to 11000

$$$$
