AV-unprocessed.smi:2093|AV-procd|sdf|8548|dock4
  -GOLD-   2272011273D 1   1.00000     0.00000
 Structure written by MMmdl.
 30 31  0  0  0  0  0  0  0  0  2 V2000
  153.9044  140.7266  161.0143 C   0  0  0  0  0  0  0  0  0  0  0  0
  152.8770  141.2699  160.0044 C   0  0  2  0  0  0  0  0  0  0  0  0
  153.1228  140.6850  158.6877 N   0  0  0  0  0  0  0  0  0  0  0  0
  152.2014  140.1537  157.8712 C   0  0  0  0  0  0  0  0  0  0  0  0
  151.0183  140.1172  158.2177 O   0  0  0  0  0  0  0  0  0  0  0  0
  152.7084  139.6966  156.7035 N   0  5  0  0  0  0  0  0  0  0  0  0
  151.9314  138.9968  155.8609 C   0  0  0  0  0  0  0  0  0  0  0  0
  151.2652  139.5604  154.8468 N   0  0  0  0  0  0  0  0  0  0  0  0
  150.5137  138.6498  154.1020 C   0  0  0  0  0  0  0  0  0  0  0  0
  150.6021  137.3640  154.5652 C   0  0  0  0  0  0  0  0  0  0  0  0
  151.6381  137.2580  155.9598 S   0  0  0  0  0  0  0  0  0  0  0  0
  152.9270  142.8063  159.8911 C   0  0  2  0  0  0  0  0  0  0  0  0
  152.2446  143.5537  161.0375 C   0  0  0  0  0  0  0  0  0  0  0  0
  151.9456  144.8901  160.3983 C   0  0  0  0  0  0  0  0  0  0  0  0
  151.5690  144.4845  158.9762 C   0  0  0  0  0  0  0  0  0  0  0  0
  152.2297  143.2463  158.7272 O   0  0  0  0  0  0  0  0  0  0  0  0
  153.7174  141.1094  162.0175 H   0  0  0  0  0  0  0  0  0  0  0  0
  154.9205  141.0060  160.7342 H   0  0  0  0  0  0  0  0  0  0  0  0
  153.8640  139.6385  161.0736 H   0  0  0  0  0  0  0  0  0  0  0  0
  151.8765  140.9866  160.3362 H   0  0  0  0  0  0  0  0  0  0  0  0
  154.0770  140.6961  158.3584 H   0  0  0  0  0  0  0  0  0  0  0  0
  149.9433  139.0058  153.2572 H   0  0  0  0  0  0  0  0  0  0  0  0
  150.1238  136.4784  154.1757 H   0  0  0  0  0  0  0  0  0  0  0  0
  153.9608  143.1467  159.8080 H   0  0  0  0  0  0  0  0  0  0  0  0
  151.3144  143.0590  161.3205 H   0  0  0  0  0  0  0  0  0  0  0  0
  152.8721  143.6393  161.9250 H   0  0  0  0  0  0  0  0  0  0  0  0
  151.1559  145.4433  160.9074 H   0  0  0  0  0  0  0  0  0  0  0  0
  152.8447  145.5080  160.3875 H   0  0  0  0  0  0  0  0  0  0  0  0
  150.4934  144.3239  158.8945 H   0  0  0  0  0  0  0  0  0  0  0  0
  151.8552  145.2401  158.2442 H   0  0  0  0  0  0  0  0  0  0  0  0
  1  2  1  0  0  0  0
  1 17  1  0  0  0  0
  1 18  1  0  0  0  0
  1 19  1  0  0  0  0
  2  3  1  0  0  0  0
  2 12  1  0  0  0  0
  2 20  1  0  0  0  0
  3  4  1  0  0  0  0
  3 21  1  0  0  0  0
  4  5  2  0  0  0  0
  4  6  1  0  0  0  0
  6  7  1  0  0  0  0
  7 11  1  0  0  0  0
  7  8  2  0  0  0  0
  8  9  1  0  0  0  0
  9 10  2  0  0  0  0
  9 22  1  0  0  0  0
 10 11  1  0  0  0  0
 10 23  1  0  0  0  0
 12 16  1  0  0  0  0
 12 13  1  0  0  0  0
 12 24  1  0  0  0  0
 13 14  1  0  0  0  0
 13 25  1  0  0  0  0
 13 26  1  0  0  0  0
 14 15  1  0  0  0  0
 14 27  1  0  0  0  0
 14 28  1  0  0  0  0
 15 16  1  0  0  0  0
 15 29  1  0  0  0  0
 15 30  1  0  0  0  0
M  CHG  1   6  -1
M  END
> <s_m_source_file>
AV-unprocessed.smi

> <i_m_source_file_index>
2093

> <i_lp_mmshare_version>
43012

> <i_f3d_flags>
0

> <s_epik_input>
TzFbQ0gyXVtDSDJdW0NIMl1bQ0BIXTFbQ0BIXShbQ0gzXSlbTkhdQyg9TylbTkhdYzJuW2NIXVtjSF1zMg==

> <s_epik_cmdline>
J2VwaWtfcHl0aG9uJywgJy1waCcsICc3LjAnLCAnLXRuJywgJzgnLCAnLW1hJywgJzIwMCcsICctbWV0YWxfYmluZGluZycsICctaW1hZScsICc8aW5maWxlLm1hZT4nLCAnLW9tYWUnLCAnPG91dGZpbGUubWFlPic=

> <r_lp_tautomer_probability>
0.999

> <r_epik_Ionization_Penalty>
8.26346

> <r_epik_Ionization_Penalty_Charging>
6.6559

> <r_epik_Ionization_Penalty_Neutral>
1.60756

> <r_epik_State_Penalty>
6.65607

> <r_epik_Charging_Adjusted_Penalty>
13.312

> <i_epik_Tot_Q>
-1

> <i_epik_Tot_abs_Q>
1

> <r_epik_Metal_State_Penalty>
2.5789

> <b_epik_Metal_Only>
1

> <s_lp_Force_Field>
OPLS_2005

> <r_lp_Energy>
13.8271

> <b_lp_Chiralities_Consistent>
1

> <s_lp_Variant>
AV-unprocessed.smi:2093-5

> <Gold.Version>
5.8.1

> <Gold.Id.Protein>
6NUR|6NUR_protein|mol2

> <Gold.PLP.Fitness>
48.1731

> <Gold.PLP.PLP>
-35.6604

> <Gold.PLP.part.hbond>
-2.0000

> <Gold.PLP.part.metal>
0.0000

> <Gold.PLP.part.buried>
-5.2995

> <Gold.PLP.part.nonpolar>
-29.5256

> <Gold.PLP.part.repulsive>
0.3286

> <Gold.PLP.ligand.clash>
0.0000

> <Gold.PLP.ligand.torsion>
1.2305

> <Gold.PLP.Chemscore.Hbond>
3.0000

> <Gold.PLP.Chemscore.CHOScore>
1.9673

> <Gold.PLP.Chemscore.Metal>
0.0000

> <Gold.Chemscore.Hbonds>
donor molecule, donor type, donor heavy atom, donor atom, acceptor molecule, acceptor atom, score
      P1  H  7989  7998       L1     8  1.00
      P1  H  7997  8010       L1     6  2.00
      L1  C     9    22       P1  7957  1.00
      L1  C    10    23       P1  7948  0.84

> <Gold.PLP.Chemscore.Internal.Correction>
0.0719

> <Gold.Rescore>
     Score         DG    S(hbond)    S(metal)    S(lipo)     H(rot)  DE(clash)    DE(int)     intcor
     16.58     -17.47       1.58        0.00      85.38       1.28       0.00       0.88       ----

> <Gold.Chemscore.Fitness>
16.5805

> <Gold.Chemscore.DG>
-17.4652

> <Gold.Chemscore.ZeroCoef>
-5.4800

> <Gold.Chemscore.Hbond>
1.5770

> <Gold.Chemscore.Metal>
0.0000

> <Gold.Chemscore.Lipo>
85.3765

> <Gold.Chemscore.Internal_Hbond>
0.0000

> <Gold.Chemscore.DEClash>
0.0015

> <Gold.Chemscore.DEInternal>
0.8832

> <Gold.Chemscore.Rot>
1.2778

> <Gold.Chemscore.Internal.Correction>
   9.000000E+99

> <Gold.Chemscore.Hbonds>
donor molecule, donor type, donor heavy atom, donor atom, acceptor molecule, acceptor atom, score
      P1  H  7989  7998       L1     8  0.26
      P1  H  7997  8010       L1     6  0.60

> <Gold.Chemscore.Hbond.Weighted>
-5.2672

> <Gold.Chemscore.Metal.Weighted>
-0.0000

> <Gold.Chemscore.Lipo.Weighted>
-9.9890

> <Gold.Chemscore.Internal_Hbond.Weighted>
0.0000

> <Gold.Chemscore.DEClash.Weighted>
0.0015

> <Gold.Chemscore.DEInternal.Weighted>
0.8832

> <Gold.Chemscore.Rot.Weighted>
3.2711

> <Gold.Chemscore.Internal.Correction.Weighted>
   9.000000E+99

> <Gold.Protein.RotatedTorsions>
[ 6907 6896 6895 6894 ] final  -58.86 input  -60.11 | X-H torsion
[ 7974 7965 7964 7962 ] final -163.50 input  175.53 | X-H torsion
[ 8008 7997 7996 7995 ] final   55.25 input   59.86 | X-H torsion
[ 10167 10162 10161 10158 ] final  -20.99 input  -65.29 | X-H torsion
[ 10718 10713 10712 10709 ] final  -21.64 input   66.30 | X-H torsion
[ 10763 10752 10751 10750 ] final  157.82 input  -60.55 | X-H torsion
[ 11005 11000 10999 10996 ] final -140.01 input  -57.11 | X-H torsion

> <Gold.Protein.ActiveResidues>
 VAL166  LYS551  ARG553  GLY616  TRP617  ASP618  TYR619  PRO620  LYS621  CYS622 
 ASP623  PHE694  ASN695  SER759  ASP760  ASP761  ALA762  ILE779  LEU786  VAL792 
 PHE793  MET794  SER795  GLU796  ALA797  LYS798  CYS799  TRP800  GLU811  SER814 

> <Gold.Protein.RotatedAtoms>
  150.7974  134.7044  159.6567 H   0  0  0  0  0  0  0  0  0  0  0  0  # atno 6907 bound_to 6896
  152.4088  134.6157  160.0047 H   0  0  0  0  0  0  0  0  0  0  0  0  # atno 6908 bound_to 6896
  151.6406  133.3289  159.3165 H   0  0  0  0  0  0  0  0  0  0  0  0  # atno 6909 bound_to 6896
  144.7324  140.3098  143.6190 H   0  0  0  0  0  0  0  0  0  0  0  0  # atno 7974 bound_to 7965
  155.4980  140.3473  155.4366 H   0  0  0  0  0  0  0  0  0  0  0  0  # atno 8008 bound_to 7997
  156.0932  140.1416  156.9592 H   0  0  0  0  0  0  0  0  0  0  0  0  # atno 8009 bound_to 7997
  154.4648  140.0921  156.6967 H   0  0  0  0  0  0  0  0  0  0  0  0  # atno 8010 bound_to 7997
  140.7279  143.4670  151.0300 H   0  0  0  0  0  0  0  0  0  0  0  0  # atno 10167 bound_to 10162
  156.5154  130.4620  149.6625 H   0  0  0  0  0  0  0  0  0  0  0  0  # atno 10718 bound_to 10713
  154.2064  135.2788  155.2973 H   0  0  0  0  0  0  0  0  0  0  0  0  # atno 10763 bound_to 10752
  154.5814  135.5588  153.7192 H   0  0  0  0  0  0  0  0  0  0  0  0  # atno 10764 bound_to 10752
  153.0075  135.6345  154.2202 H   0  0  0  0  0  0  0  0  0  0  0  0  # atno 10765 bound_to 10752
  140.8464  134.2339  157.4783 H   0  0  0  0  0  0  0  0  0  0  0  0  # atno 11005 bound_to 11000
  145.7677  139.1846  143.2230 LP  0  0  0  0  0  0  0  0  0  0  0  0  # atno 17320 bound_to 7965
  146.0936  140.7627  142.9583 LP  0  0  0  0  0  0  0  0  0  0  0  0  # atno 17321 bound_to 7965
  139.8358  143.7629  152.3180 LP  0  0  0  0  0  0  0  0  0  0  0  0  # atno 17342 bound_to 10162
  139.7761  144.7460  151.0155 LP  0  0  0  0  0  0  0  0  0  0  0  0  # atno 17343 bound_to 10162
  156.3200  130.7275  151.2185 LP  0  0  0  0  0  0  0  0  0  0  0  0  # atno 17370 bound_to 10713
  157.7444  131.0458  150.4862 LP  0  0  0  0  0  0  0  0  0  0  0  0  # atno 17371 bound_to 10713
  139.8703  134.9661  156.4552 LP  0  0  0  0  0  0  0  0  0  0  0  0  # atno 17394 bound_to 11000
  140.8838  133.7898  155.9496 LP  0  0  0  0  0  0  0  0  0  0  0  0  # atno 17395 bound_to 11000

$$$$
