AV-unprocessed.smi:2718|AV-procd|sdf|10491|dock7
  -GOLD-   2272014533D 1   1.00000     0.00000
 Structure written by MMmdl.
 47 48  0  0  0  0  0  0  0  0  1 V2000
  152.6202  139.2935  155.4488 C   0  0  0  0  0  0  0  0  0  0  0  0
  151.3113  138.7879  154.8757 C   0  0  0  0  0  0  0  0  0  0  0  0
  151.3397  137.3425  154.4099 C   0  0  0  0  0  0  0  0  0  0  0  0
  150.2223  139.5769  154.7971 C   0  0  0  0  0  0  0  0  0  0  0  0
  148.8867  139.1966  154.2496 C   0  0  1  0  0  0  0  0  0  0  0  0
  147.6756  138.8803  155.1191 C   0  0  1  0  0  0  0  0  0  0  0  0
  147.7513  139.0044  156.6081 C   0  0  0  0  0  0  0  0  0  0  0  0
  147.6033  140.0779  157.1925 O   0  0  0  0  0  0  0  0  0  0  0  0
  147.9121  137.8384  157.2517 N   0  0  0  0  0  0  0  0  0  0  0  0
  147.9869  137.6833  158.7003 C   0  0  0  0  0  0  0  0  0  0  0  0
  147.6357  136.2526  159.1594 C   0  0  1  0  0  0  0  0  0  0  0  0
  148.5685  135.1828  158.5644 C   0  0  0  0  0  0  0  0  0  0  0  0
  147.5904  136.1641  160.6594 C   0  0  0  0  0  0  0  0  0  0  0  0
  147.7851  137.2134  161.4699 N   0  0  0  0  0  0  0  0  0  0  0  0
  147.6461  136.7264  162.7538 N   0  0  0  0  0  0  0  0  0  0  0  0
  147.3756  135.4322  162.5930 C   0  0  0  0  0  0  0  0  0  0  0  0
  147.3229  135.0167  161.3187 N   0  0  0  0  0  0  0  0  0  0  0  0
  147.0459  133.6855  160.8168 C   0  0  0  0  0  0  0  0  0  0  0  0
  147.6987  140.1436  154.2612 C   0  0  0  0  0  0  0  0  0  0  0  0
  147.8292  141.5475  154.8488 C   0  0  0  0  0  0  0  0  0  0  0  0
  146.7906  140.1961  153.0449 C   0  0  0  0  0  0  0  0  0  0  0  0
  153.4121  139.2202  154.7030 H   0  0  0  0  0  0  0  0  0  0  0  0
  152.9082  138.6981  156.3152 H   0  0  0  0  0  0  0  0  0  0  0  0
  152.5458  140.3349  155.7632 H   0  0  0  0  0  0  0  0  0  0  0  0
  151.6156  136.6880  155.2374 H   0  0  0  0  0  0  0  0  0  0  0  0
  152.0777  137.2187  153.6173 H   0  0  0  0  0  0  0  0  0  0  0  0
  150.3763  137.0064  154.0276 H   0  0  0  0  0  0  0  0  0  0  0  0
  150.3091  140.5925  155.1534 H   0  0  0  0  0  0  0  0  0  0  0  0
  149.0000  138.5770  153.3619 H   0  0  0  0  0  0  0  0  0  0  0  0
  147.0118  138.0903  154.7732 H   0  0  0  0  0  0  0  0  0  0  0  0
  148.0011  136.9989  156.6972 H   0  0  0  0  0  0  0  0  0  0  0  0
  148.9965  137.9446  159.0189 H   0  0  0  0  0  0  0  0  0  0  0  0
  147.3208  138.4056  159.1759 H   0  0  0  0  0  0  0  0  0  0  0  0
  146.6384  136.0303  158.7811 H   0  0  0  0  0  0  0  0  0  0  0  0
  148.2679  134.1842  158.8828 H   0  0  0  0  0  0  0  0  0  0  0  0
  149.6011  135.3357  158.8802 H   0  0  0  0  0  0  0  0  0  0  0  0
  148.5500  135.1949  157.4746 H   0  0  0  0  0  0  0  0  0  0  0  0
  147.2080  134.7697  163.4296 H   0  0  0  0  0  0  0  0  0  0  0  0
  146.8587  133.0026  161.6458 H   0  0  0  0  0  0  0  0  0  0  0  0
  147.9003  133.3218  160.2453 H   0  0  0  0  0  0  0  0  0  0  0  0
  146.1658  133.7103  160.1734 H   0  0  0  0  0  0  0  0  0  0  0  0
  146.8512  141.9198  155.1550 H   0  0  0  0  0  0  0  0  0  0  0  0
  148.2403  142.2308  154.1053 H   0  0  0  0  0  0  0  0  0  0  0  0
  148.4836  141.5688  155.7200 H   0  0  0  0  0  0  0  0  0  0  0  0
  145.8023  140.5620  153.3244 H   0  0  0  0  0  0  0  0  0  0  0  0
  146.6760  139.2058  152.6032 H   0  0  0  0  0  0  0  0  0  0  0  0
  147.2077  140.8602  152.2873 H   0  0  0  0  0  0  0  0  0  0  0  0
  1  2  1  0  0  0  0
  1 22  1  0  0  0  0
  1 23  1  0  0  0  0
  1 24  1  0  0  0  0
  2  3  1  0  0  0  0
  2  4  2  0  0  0  0
  3 25  1  0  0  0  0
  3 26  1  0  0  0  0
  3 27  1  0  0  0  0
  4  5  1  0  0  0  0
  4 28  1  0  0  0  0
  5 19  1  0  0  0  0
  5  6  1  0  0  0  0
  5 29  1  0  0  0  0
  6  7  1  0  0  0  0
  6 19  1  0  0  0  0
  6 30  1  0  0  0  0
  7  8  2  0  0  0  0
  7  9  1  0  0  0  0
  9 10  1  0  0  0  0
  9 31  1  0  0  0  0
 10 11  1  0  0  0  0
 10 32  1  0  0  0  0
 10 33  1  0  0  0  0
 11 12  1  0  0  0  0
 11 13  1  0  0  0  0
 11 34  1  0  0  0  0
 12 35  1  0  0  0  0
 12 36  1  0  0  0  0
 12 37  1  0  0  0  0
 13 17  1  0  0  0  0
 13 14  2  0  0  0  0
 14 15  1  0  0  0  0
 15 16  2  0  0  0  0
 16 17  1  0  0  0  0
 16 38  1  0  0  0  0
 17 18  1  0  0  0  0
 18 39  1  0  0  0  0
 18 40  1  0  0  0  0
 18 41  1  0  0  0  0
 19 20  1  0  0  0  0
 19 21  1  0  0  0  0
 20 42  1  0  0  0  0
 20 43  1  0  0  0  0
 20 44  1  0  0  0  0
 21 45  1  0  0  0  0
 21 46  1  0  0  0  0
 21 47  1  0  0  0  0
M  END
> <s_m_source_file>
AV-unprocessed.smi

> <i_m_source_file_index>
2718

> <i_lp_mmshare_version>
43012

> <i_f3d_flags>
0

> <s_epik_input>
W0NIM11DKFtDSDNdKT1bQ0hdW0NAQEhdKEMxKFtDSDNdKVtDSDNdKVtDQEhdMUMoPU8pW05IXVtDSDJdW0NASF0oW0NIM10pYzJubltjSF1uMltDSDNd

> <s_epik_cmdline>
J2VwaWtfcHl0aG9uJywgJy1waCcsICc3LjAnLCAnLXRuJywgJzgnLCAnLW1hJywgJzIwMCcsICctbWV0YWxfYmluZGluZycsICctaW1hZScsICc8aW5maWxlLm1hZT4nLCAnLW9tYWUnLCAnPG91dGZpbGUubWFlPic=

> <r_lp_tautomer_probability>
1

> <r_epik_Ionization_Penalty>
0.000449586

> <r_epik_Ionization_Penalty_Charging>
0

> <r_epik_Ionization_Penalty_Neutral>
0.000449586

> <r_epik_State_Penalty>
0.000243372

> <r_epik_Charging_Adjusted_Penalty>
0.000243372

> <i_epik_Tot_Q>
0

> <i_epik_Tot_abs_Q>
0

> <r_epik_Metal_State_Penalty>
-0

> <b_epik_Metal_Only>
0

> <s_lp_Force_Field>
OPLS_2005

> <r_lp_Energy>
17.9129

> <b_lp_Chiralities_Consistent>
1

> <s_lp_Variant>
AV-unprocessed.smi:2718-6

> <Gold.Version>
5.8.1

> <Gold.Id.Protein>
6NUR|6NUR_protein|mol2

> <Gold.PLP.Fitness>
36.5185

> <Gold.PLP.PLP>
-33.4048

> <Gold.PLP.part.hbond>
-2.7145

> <Gold.PLP.part.metal>
0.0000

> <Gold.PLP.part.buried>
-1.8588

> <Gold.PLP.part.nonpolar>
-30.3255

> <Gold.PLP.part.repulsive>
0.0325

> <Gold.PLP.ligand.clash>
0.0000

> <Gold.PLP.ligand.torsion>
0.7512

> <Gold.PLP.Chemscore.Hbond>
1.4360

> <Gold.PLP.Chemscore.CHOScore>
0.0000

> <Gold.PLP.Chemscore.Metal>
0.0000

> <Gold.Chemscore.Hbonds>
donor molecule, donor type, donor heavy atom, donor atom, acceptor molecule, acceptor atom, score
      P1  H  6931  6943       L1    14  0.65
      P1  H  6934  6947       L1    14  0.74

> <Gold.PLP.Chemscore.Internal.Correction>
0.3081

> <Gold.Rescore>
     Score         DG    S(hbond)    S(metal)    S(lipo)     H(rot)  DE(clash)    DE(int)     intcor
     10.06     -12.30       1.08        0.00      70.18       1.95       0.11       2.14       ----

> <Gold.Chemscore.Fitness>
10.0579

> <Gold.Chemscore.DG>
-12.3049

> <Gold.Chemscore.ZeroCoef>
-5.4800

> <Gold.Chemscore.Hbond>
1.0822

> <Gold.Chemscore.Metal>
0.0000

> <Gold.Chemscore.Lipo>
70.1786

> <Gold.Chemscore.Internal_Hbond>
0.0000

> <Gold.Chemscore.DEClash>
0.1085

> <Gold.Chemscore.DEInternal>
2.1385

> <Gold.Chemscore.Rot>
1.9533

> <Gold.Chemscore.Internal.Correction>
   9.000000E+99

> <Gold.Chemscore.Hbonds>
donor molecule, donor type, donor heavy atom, donor atom, acceptor molecule, acceptor atom, score
      P1  H  6931  6943       L1    14  0.05
      P1  H  6934  6947       L1    14  0.71

> <Gold.Chemscore.Hbond.Weighted>
-3.6145

> <Gold.Chemscore.Metal.Weighted>
-0.0000

> <Gold.Chemscore.Lipo.Weighted>
-8.2109

> <Gold.Chemscore.Internal_Hbond.Weighted>
0.0000

> <Gold.Chemscore.DEClash.Weighted>
0.1085

> <Gold.Chemscore.DEInternal.Weighted>
2.1385

> <Gold.Chemscore.Rot.Weighted>
5.0005

> <Gold.Chemscore.Internal.Correction.Weighted>
   9.000000E+99

> <Gold.Protein.RotatedTorsions>
[ 6907 6896 6895 6894 ] final -168.85 input  -60.11 | X-H torsion
[ 7974 7965 7964 7962 ] final  -94.69 input  175.53 | X-H torsion
[ 8008 7997 7996 7995 ] final  139.89 input   59.86 | X-H torsion
[ 10167 10162 10161 10158 ] final  150.32 input  -65.29 | X-H torsion
[ 10718 10713 10712 10709 ] final   85.57 input   66.30 | X-H torsion
[ 10763 10752 10751 10750 ] final  124.16 input  -60.55 | X-H torsion
[ 11005 11000 10999 10996 ] final   74.15 input  -57.11 | X-H torsion

> <Gold.Protein.ActiveResidues>
 VAL166  LYS551  ARG553  GLY616  TRP617  ASP618  TYR619  PRO620  LYS621  CYS622 
 ASP623  PHE694  ASN695  SER759  ASP760  ASP761  ALA762  ILE779  LEU786  VAL792 
 PHE793  MET794  SER795  GLU796  ALA797  LYS798  CYS799  TRP800  GLU811  SER814 

> <Gold.Protein.RotatedAtoms>
  151.4822  133.3544  159.2839 H   0  0  0  0  0  0  0  0  0  0  0  0  # atno 6907 bound_to 6896
  150.8889  134.8293  159.7290 H   0  0  0  0  0  0  0  0  0  0  0  0  # atno 6908 bound_to 6896
  152.4811  134.4730  159.9693 H   0  0  0  0  0  0  0  0  0  0  0  0  # atno 6909 bound_to 6896
  145.3699  140.9504  143.2453 H   0  0  0  0  0  0  0  0  0  0  0  0  # atno 7974 bound_to 7965
  156.2985  140.2355  156.4312 H   0  0  0  0  0  0  0  0  0  0  0  0  # atno 8008 bound_to 7997
  154.8268  140.0435  157.1470 H   0  0  0  0  0  0  0  0  0  0  0  0  # atno 8009 bound_to 7997
  154.9252  140.3009  155.5199 H   0  0  0  0  0  0  0  0  0  0  0  0  # atno 8010 bound_to 7997
  139.4851  144.5531  151.7365 H   0  0  0  0  0  0  0  0  0  0  0  0  # atno 10167 bound_to 10162
  157.6916  131.0180  150.2842 H   0  0  0  0  0  0  0  0  0  0  0  0  # atno 10718 bound_to 10713
  153.6569  135.3353  155.3116 H   0  0  0  0  0  0  0  0  0  0  0  0  # atno 10763 bound_to 10752
  154.8524  135.4354  154.1845 H   0  0  0  0  0  0  0  0  0  0  0  0  # atno 10764 bound_to 10752
  153.2802  135.7008  153.7468 H   0  0  0  0  0  0  0  0  0  0  0  0  # atno 10765 bound_to 10752
  139.9405  134.7408  156.1113 H   0  0  0  0  0  0  0  0  0  0  0  0  # atno 11005 bound_to 11000
  144.8584  139.5215  143.6824 LP  0  0  0  0  0  0  0  0  0  0  0  0  # atno 17320 bound_to 7965
  146.2890  139.7084  142.9175 LP  0  0  0  0  0  0  0  0  0  0  0  0  # atno 17321 bound_to 7965
  140.5089  144.1056  150.5990 LP  0  0  0  0  0  0  0  0  0  0  0  0  # atno 17342 bound_to 10162
  140.3975  143.2721  151.9988 LP  0  0  0  0  0  0  0  0  0  0  0  0  # atno 17343 bound_to 10162
  156.3384  130.3811  149.7430 LP  0  0  0  0  0  0  0  0  0  0  0  0  # atno 17370 bound_to 10713
  156.4947  130.8101  151.3109 LP  0  0  0  0  0  0  0  0  0  0  0  0  # atno 17371 bound_to 10713
  141.1037  133.6668  156.2814 LP  0  0  0  0  0  0  0  0  0  0  0  0  # atno 17394 bound_to 11000
  140.5964  134.5599  157.5509 LP  0  0  0  0  0  0  0  0  0  0  0  0  # atno 17395 bound_to 11000

$$$$
