AV-unprocessed.smi:41|AV-procd|sdf|386|dock6
  -GOLD-   2262016243D 1   1.00000     0.00000
 Structure written by MMmdl.
 26 27  0  0  0  0  0  0  0  0  1 V2000
  150.3464  139.2177  153.7064 N   0  0  0  0  0  0  0  0  0  0  0  0
  150.5663  139.8760  154.8537 C   0  0  0  0  0  0  0  0  0  0  0  0
  151.5122  139.4478  155.6669 N   0  0  0  0  0  0  0  0  0  0  0  0
  151.8094  140.0527  156.8603 C   0  0  0  0  0  0  0  0  0  0  0  0
  152.6891  139.5935  157.5877 O   0  0  0  0  0  0  0  0  0  0  0  0
  151.0723  141.2130  157.2090 N   0  0  0  0  0  0  0  0  0  0  0  0
  151.2807  141.8707  158.4963 C   0  0  1  0  0  0  0  0  0  0  0  0
  152.7650  142.0999  158.8591 C   0  0  0  0  0  0  0  0  0  0  0  0
  152.8062  143.4947  159.9985 S   0  0  0  0  0  0  0  0  0  0  0  0
  151.0567  143.8005  159.6581 C   0  0  1  0  0  0  0  0  0  0  0  0
  150.7059  145.2910  159.5189 C   0  0  0  0  0  0  0  0  0  0  0  0
  149.3135  145.5097  159.6250 O   0  0  0  0  0  0  0  0  0  0  0  0
  150.6433  143.1077  158.4929 O   0  0  0  0  0  0  0  0  0  0  0  0
  150.0527  141.6496  156.3719 C   0  0  0  0  0  0  0  0  0  0  0  0
  149.7747  141.0328  155.2035 C   0  0  0  0  0  0  0  0  0  0  0  0
  148.7905  141.4764  154.4024 F   0  0  0  0  0  0  0  0  0  0  0  0
  150.8174  141.2862  159.2931 H   0  0  0  0  0  0  0  0  0  0  0  0
  150.4900  143.3851  160.4930 H   0  0  0  0  0  0  0  0  0  0  0  0
  149.6205  139.5316  153.0783 H   0  0  0  0  0  0  0  0  0  0  0  0
  150.9054  138.4097  153.4737 H   0  0  0  0  0  0  0  0  0  0  0  0
  153.1875  141.2000  159.3059 H   0  0  0  0  0  0  0  0  0  0  0  0
  153.3629  142.3632  157.9893 H   0  0  0  0  0  0  0  0  0  0  0  0
  151.2300  145.8832  160.2698 H   0  0  0  0  0  0  0  0  0  0  0  0
  151.0273  145.6557  158.5429 H   0  0  0  0  0  0  0  0  0  0  0  0
  148.9487  145.5520  158.7544 H   0  0  0  0  0  0  0  0  0  0  0  0
  149.4423  142.4964  156.6484 H   0  0  0  0  0  0  0  0  0  0  0  0
  1  2  1  0  0  0  0
  1 19  1  0  0  0  0
  1 20  1  0  0  0  0
  2 15  1  0  0  0  0
  2  3  2  0  0  0  0
  3  4  1  0  0  0  0
  4  5  2  0  0  0  0
  4  6  1  0  0  0  0
  6  7  1  0  0  0  0
  6 14  1  0  0  0  0
  7 17  1  0  0  0  0
  7 13  1  0  0  0  0
  7  8  1  0  0  0  0
  8  9  1  0  0  0  0
  8 21  1  0  0  0  0
  8 22  1  0  0  0  0
  9 10  1  0  0  0  0
 10 18  1  0  0  0  0
 10 11  1  0  0  0  0
 10 13  1  0  0  0  0
 11 12  1  0  0  0  0
 11 23  1  0  0  0  0
 11 24  1  0  0  0  0
 12 25  1  0  0  0  0
 14 15  2  0  0  0  0
 14 26  1  0  0  0  0
 15 16  1  0  0  0  0
M  END
> <s_m_source_file>
AV-unprocessed.smi

> <i_m_source_file_index>
41

> <i_lp_mmshare_version>
43012

> <i_f3d_flags>
0

> <s_epik_input>
W05IMl1jMW5jKD1PKW4oW2NIXWMxRilbQ0BASF0yW0NIMl1TW0NAQEhdKE8yKVtDSDJdW09IXQ==

> <s_epik_cmdline>
J2VwaWtfcHl0aG9uJywgJy1waCcsICc3LjAnLCAnLXRuJywgJzgnLCAnLW1hJywgJzIwMCcsICctbWV0YWxfYmluZGluZycsICctaW1hZScsICc8aW5maWxlLm1hZT4nLCAnLW9tYWUnLCAnPG91dGZpbGUubWFlPic=

> <r_lp_tautomer_probability>
1

> <r_epik_Ionization_Penalty>
0.000101883

> <r_epik_Ionization_Penalty_Charging>
1.48607e-08

> <r_epik_Ionization_Penalty_Neutral>
0.000101868

> <r_epik_State_Penalty>
-0

> <r_epik_Charging_Adjusted_Penalty>
1.48607e-08

> <i_epik_Tot_Q>
0

> <i_epik_Tot_abs_Q>
0

> <r_epik_Metal_State_Penalty>
-0

> <b_epik_Metal_Only>
0

> <s_epik_Chemistry_Notes>
This compound contains an acetal/aminal-like group ( X-CH(R)-Y where X, Y are N, S, or O) that may be acid/base labile, releasing an aldehyde.

> <s_lp_Force_Field>
OPLS_2005

> <r_lp_Energy>
14.0891

> <b_lp_Chiralities_Consistent>
1

> <s_lp_Variant>
AV-unprocessed.smi:41-4

> <Gold.Version>
5.8.1

> <Gold.Id.Protein>
6NUR|6NUR_protein|mol2

> <Gold.PLP.Fitness>
42.1239

> <Gold.PLP.PLP>
-31.9547

> <Gold.PLP.part.hbond>
-4.0000

> <Gold.PLP.part.metal>
0.0000

> <Gold.PLP.part.buried>
-1.2214

> <Gold.PLP.part.nonpolar>
-26.0236

> <Gold.PLP.part.repulsive>
1.0700

> <Gold.PLP.ligand.clash>
0.0000

> <Gold.PLP.ligand.torsion>
0.4747

> <Gold.PLP.Chemscore.Hbond>
2.6978

> <Gold.PLP.Chemscore.CHOScore>
0.9929

> <Gold.PLP.Chemscore.Metal>
0.0000

> <Gold.Chemscore.Hbonds>
donor molecule, donor type, donor heavy atom, donor atom, acceptor molecule, acceptor atom, score
      L1  H     1    19       P1  7957  0.66
      L1  H    12    25       P1  8029  1.00
      P1  H  7997  8008       L1     5  1.00
      L1  C    14    26       P1  8028  1.00

> <Gold.PLP.Chemscore.Internal.Correction>
0.0464

> <Gold.Rescore>
     Score         DG    S(hbond)    S(metal)    S(lipo)     H(rot)  DE(clash)    DE(int)     intcor
     11.89     -13.94       2.24        0.00      56.44       2.19       0.55       1.51       ----

> <Gold.Chemscore.Fitness>
11.8873

> <Gold.Chemscore.DG>
-13.9407

> <Gold.Chemscore.ZeroCoef>
-5.4800

> <Gold.Chemscore.Hbond>
2.2370

> <Gold.Chemscore.Metal>
0.0000

> <Gold.Chemscore.Lipo>
56.4362

> <Gold.Chemscore.Internal_Hbond>
0.0000

> <Gold.Chemscore.DEClash>
0.5481

> <Gold.Chemscore.DEInternal>
1.5053

> <Gold.Chemscore.Rot>
2.1929

> <Gold.Chemscore.Internal.Correction>
   9.000000E+99

> <Gold.Chemscore.Hbonds>
donor molecule, donor type, donor heavy atom, donor atom, acceptor molecule, acceptor atom, score
      L1  H     1    19       P1  7957  0.64
      L1  H    12    25       P1  8029  1.00
      P1  H  7997  8008       L1     5  0.79

> <Gold.Chemscore.Hbond.Weighted>
-7.4714

> <Gold.Chemscore.Metal.Weighted>
-0.0000

> <Gold.Chemscore.Lipo.Weighted>
-6.6030

> <Gold.Chemscore.Internal_Hbond.Weighted>
0.0000

> <Gold.Chemscore.DEClash.Weighted>
0.5481

> <Gold.Chemscore.DEInternal.Weighted>
1.5053

> <Gold.Chemscore.Rot.Weighted>
5.6137

> <Gold.Chemscore.Internal.Correction.Weighted>
   9.000000E+99

> <Gold.Protein.RotatedTorsions>
[ 6907 6896 6895 6894 ] final   12.07 input  -60.11 | X-H torsion
[ 7974 7965 7964 7962 ] final  162.05 input  175.53 | X-H torsion
[ 8008 7997 7996 7995 ] final  -80.53 input   59.86 | X-H torsion
[ 10167 10162 10161 10158 ] final  -82.55 input  -65.29 | X-H torsion
[ 10718 10713 10712 10709 ] final   59.83 input   66.30 | X-H torsion
[ 10763 10752 10751 10750 ] final  164.21 input  -60.55 | X-H torsion
[ 11005 11000 10999 10996 ] final   76.14 input  -57.11 | X-H torsion

> <Gold.Protein.ActiveResidues>
 VAL166  LYS551  ARG553  GLY616  TRP617  ASP618  TYR619  PRO620  LYS621  CYS622 
 ASP623  PHE694  ASN695  SER759  ASP760  ASP761  ALA762  ILE779  LEU786  VAL792 
 PHE793  MET794  SER795  GLU796  ALA797  LYS798  CYS799  TRP800  GLU811  SER814 

> <Gold.Protein.RotatedAtoms>
  151.7644  135.0802  160.0350 H   0  0  0  0  0  0  0  0  0  0  0  0  # atno 6907 bound_to 6896
  152.3331  133.5976  159.5832 H   0  0  0  0  0  0  0  0  0  0  0  0  # atno 6908 bound_to 6896
  150.7434  133.9753  159.3601 H   0  0  0  0  0  0  0  0  0  0  0  0  # atno 6909 bound_to 6896
  144.7655  139.7985  143.6316 H   0  0  0  0  0  0  0  0  0  0  0  0  # atno 7974 bound_to 7965
  154.5892  140.0661  156.9215 H   0  0  0  0  0  0  0  0  0  0  0  0  # atno 8008 bound_to 7997
  155.2324  140.3338  155.4283 H   0  0  0  0  0  0  0  0  0  0  0  0  # atno 8009 bound_to 7997
  156.2244  140.1813  156.7383 H   0  0  0  0  0  0  0  0  0  0  0  0  # atno 8010 bound_to 7997
  140.4309  143.2549  151.8760 H   0  0  0  0  0  0  0  0  0  0  0  0  # atno 10167 bound_to 10162
  157.5706  130.8904  149.9261 H   0  0  0  0  0  0  0  0  0  0  0  0  # atno 10718 bound_to 10713
  154.3054  135.2758  155.2591 H   0  0  0  0  0  0  0  0  0  0  0  0  # atno 10763 bound_to 10752
  154.5010  135.5808  153.6534 H   0  0  0  0  0  0  0  0  0  0  0  0  # atno 10764 bound_to 10752
  152.9895  135.6158  154.3227 H   0  0  0  0  0  0  0  0  0  0  0  0  # atno 10765 bound_to 10752
  139.9312  134.7576  156.1358 H   0  0  0  0  0  0  0  0  0  0  0  0  # atno 11005 bound_to 11000
  146.1759  139.4929  142.9897 LP  0  0  0  0  0  0  0  0  0  0  0  0  # atno 17320 bound_to 7965
  145.6482  141.0269  143.1774 LP  0  0  0  0  0  0  0  0  0  0  0  0  # atno 17321 bound_to 7965
  139.4785  144.5335  151.8632 LP  0  0  0  0  0  0  0  0  0  0  0  0  # atno 17342 bound_to 10162
  140.4428  144.1963  150.5892 LP  0  0  0  0  0  0  0  0  0  0  0  0  # atno 17343 bound_to 10162
  156.0752  130.3680  150.0693 LP  0  0  0  0  0  0  0  0  0  0  0  0  # atno 17370 bound_to 10713
  156.8846  130.9568  151.3595 LP  0  0  0  0  0  0  0  0  0  0  0  0  # atno 17371 bound_to 10713
  141.0901  133.6718  156.2521 LP  0  0  0  0  0  0  0  0  0  0  0  0  # atno 17394 bound_to 11000
  140.6198  134.5373  157.5546 LP  0  0  0  0  0  0  0  0  0  0  0  0  # atno 17395 bound_to 11000

$$$$
