AV-unprocessed.smi:224|AV-procd|sdf|1713|dock5
  -GOLD-   2262020183D 1   1.00000     0.00000
 Structure written by MMmdl.
 56 59  0  0  0  0  0  0  0  0  2 V2000
  145.2287  132.0340  149.3262 C   0  0  0  0  0  0  0  0  0  0  0  0
  145.5743  132.2798  150.8006 C   0  0  2  0  0  0  0  0  0  0  0  0
  146.4122  131.2253  151.2296 O   0  0  0  0  0  0  0  0  0  0  0  0
  144.3101  132.3254  151.6827 C   0  0  0  0  0  0  0  0  0  0  0  0
  144.4145  133.3036  152.7974 N   0  3  1  0  0  0  0  0  0  0  0  0
  145.7917  133.4574  153.3395 C   0  0  0  0  0  0  0  0  0  0  0  0
  145.7935  134.3662  154.5818 C   0  0  0  0  0  0  0  0  0  0  0  0
  145.1433  135.6450  154.3020 N   0  0  0  0  0  0  0  0  0  0  0  0
  145.8934  136.7002  153.8825 C   0  0  0  0  0  0  0  0  0  0  0  0
  145.4235  137.5051  152.8918 N   0  0  0  0  0  0  0  0  0  0  0  0
  146.1368  138.5530  152.4713 C   0  0  0  0  0  0  0  0  0  0  0  0
  147.3304  138.9711  152.8932 N   0  0  0  0  0  0  0  0  0  0  0  0
  147.8164  138.1656  153.8796 C   0  0  0  0  0  0  0  0  0  0  0  0
  147.1711  137.0199  154.4276 C   0  0  0  0  0  0  0  0  0  0  0  0
  147.9827  136.4461  155.3999 N   0  0  0  0  0  0  0  0  0  0  0  0
  149.0376  137.2134  155.4331 C   0  0  0  0  0  0  0  0  0  0  0  0
  149.0196  138.2727  154.5550 N   0  0  0  0  0  0  0  0  0  0  0  0
  150.0619  139.2725  154.3789 C   0  0  0  0  0  0  0  0  0  0  0  0
  149.7043  140.6486  154.9865 C   0  0  2  0  0  0  0  0  0  0  0  0
  149.3386  141.5326  153.9403 O   0  0  0  0  0  0  0  0  0  0  0  0
  150.8306  141.2887  155.7927 C   0  0  0  0  0  0  0  0  0  0  0  0
  150.0799  142.0758  156.8574 C   0  0  0  0  0  0  0  0  0  0  0  0
  149.0149  141.2029  157.1923 O   0  0  0  0  0  0  0  0  0  0  0  0
  148.5432  140.5848  155.9993 C   0  0  0  0  0  0  0  0  0  0  0  0
  143.7893  135.5232  153.7640 C   0  0  0  0  0  0  0  0  0  0  0  0
  143.7456  134.6099  152.5180 C   0  0  1  0  0  0  0  0  0  0  0  0
  144.2873  135.3184  151.2574 C   0  0  0  0  0  0  0  0  0  0  0  0
  144.5982  132.8320  148.9336 H   0  0  0  0  0  0  0  0  0  0  0  0
  144.6948  131.0923  149.1933 H   0  0  0  0  0  0  0  0  0  0  0  0
  146.1290  131.9949  148.7121 H   0  0  0  0  0  0  0  0  0  0  0  0
  146.1330  133.2125  150.8675 H   0  0  0  0  0  0  0  0  0  0  0  0
  147.2015  131.2285  150.7107 H   0  0  0  0  0  0  0  0  0  0  0  0
  143.4353  132.5661  151.0766 H   0  0  0  0  0  0  0  0  0  0  0  0
  144.1366  131.3263  152.0864 H   0  0  0  0  0  0  0  0  0  0  0  0
  146.2035  132.4882  153.6169 H   0  0  0  0  0  0  0  0  0  0  0  0
  146.4493  133.8620  152.5696 H   0  0  0  0  0  0  0  0  0  0  0  0
  145.2427  133.8798  155.3878 H   0  0  0  0  0  0  0  0  0  0  0  0
  146.8074  134.5083  154.9581 H   0  0  0  0  0  0  0  0  0  0  0  0
  145.6869  139.1407  151.6846 H   0  0  0  0  0  0  0  0  0  0  0  0
  149.8641  137.0274  156.1039 H   0  0  0  0  0  0  0  0  0  0  0  0
  150.9809  138.8910  154.8259 H   0  0  0  0  0  0  0  0  0  0  0  0
  150.2620  139.3735  153.3115 H   0  0  0  0  0  0  0  0  0  0  0  0
  148.5094  141.9291  154.1603 H   0  0  0  0  0  0  0  0  0  0  0  0
  151.4255  140.5195  156.2859 H   0  0  0  0  0  0  0  0  0  0  0  0
  151.5081  141.9021  155.1971 H   0  0  0  0  0  0  0  0  0  0  0  0
  150.6969  142.3104  157.7249 H   0  0  0  0  0  0  0  0  0  0  0  0
  149.6814  143.0071  156.4520 H   0  0  0  0  0  0  0  0  0  0  0  0
  147.6553  141.1091  155.6419 H   0  0  0  0  0  0  0  0  0  0  0  0
  148.2461  139.5602  156.2255 H   0  0  0  0  0  0  0  0  0  0  0  0
  143.1640  135.0946  154.5478 H   0  0  0  0  0  0  0  0  0  0  0  0
  143.3458  136.4884  153.5263 H   0  0  0  0  0  0  0  0  0  0  0  0
  142.6933  134.3937  152.3285 H   0  0  0  0  0  0  0  0  0  0  0  0
  143.7852  136.2748  151.1083 H   0  0  0  0  0  0  0  0  0  0  0  0
  144.1186  134.7280  150.3571 H   0  0  0  0  0  0  0  0  0  0  0  0
  145.3554  135.5212  151.3228 H   0  0  0  0  0  0  0  0  0  0  0  0
  143.8739  132.9028  153.5501 H   0  0  0  0  0  0  0  0  0  0  0  0
  1  2  1  0  0  0  0
  1 28  1  0  0  0  0
  1 29  1  0  0  0  0
  1 30  1  0  0  0  0
  2  3  1  0  0  0  0
  2  4  1  0  0  0  0
  2 31  1  0  0  0  0
  3 32  1  0  0  0  0
  4  5  1  0  0  0  0
  4 33  1  0  0  0  0
  4 34  1  0  0  0  0
  5 26  1  0  0  0  0
  5  6  1  0  0  0  0
  5 56  1  0  0  0  0
  6  7  1  0  0  0  0
  6 35  1  0  0  0  0
  6 36  1  0  0  0  0
  7  8  1  0  0  0  0
  7 37  1  0  0  0  0
  7 38  1  0  0  0  0
  8  9  1  0  0  0  0
  8 25  1  0  0  0  0
  9 14  1  0  0  0  0
  9 10  2  0  0  0  0
 10 11  1  0  0  0  0
 11 12  2  0  0  0  0
 11 39  1  0  0  0  0
 12 13  1  0  0  0  0
 13 17  1  0  0  0  0
 13 14  2  0  0  0  0
 14 15  1  0  0  0  0
 15 16  2  0  0  0  0
 16 17  1  0  0  0  0
 16 40  1  0  0  0  0
 17 18  1  0  0  0  0
 18 19  1  0  0  0  0
 18 41  1  0  0  0  0
 18 42  1  0  0  0  0
 19 24  1  0  0  0  0
 19 20  1  0  0  0  0
 19 21  1  0  0  0  0
 20 43  1  0  0  0  0
 21 22  1  0  0  0  0
 21 44  1  0  0  0  0
 21 45  1  0  0  0  0
 22 23  1  0  0  0  0
 22 46  1  0  0  0  0
 22 47  1  0  0  0  0
 23 24  1  0  0  0  0
 24 48  1  0  0  0  0
 24 49  1  0  0  0  0
 25 26  1  0  0  0  0
 25 50  1  0  0  0  0
 25 51  1  0  0  0  0
 26 27  1  0  0  0  0
 26 52  1  0  0  0  0
 27 53  1  0  0  0  0
 27 54  1  0  0  0  0
 27 55  1  0  0  0  0
M  CHG  1   5   1
M  END
> <s_m_source_file>
AV-unprocessed.smi

> <i_m_source_file_index>
224

> <i_lp_mmshare_version>
43012

> <i_f3d_flags>
0

> <s_epik_input>
W0NIM11bQ0BIXShbT0hdKVtDSDJdTjFbQ0gyXVtDSDJdTihbQ0gyXVtDQEhdMVtDSDNdKWMobltjSF1uMiljKGMyMyluW2NIXW4zW0NIMl1bQ0BAXTQoW09IXSlbQ0gyXVtDSDJdT1tDSDJdNA==

> <s_epik_cmdline>
J2VwaWtfcHl0aG9uJywgJy1waCcsICc3LjAnLCAnLXRuJywgJzgnLCAnLW1hJywgJzIwMCcsICctbWV0YWxfYmluZGluZycsICctaW1hZScsICc8aW5maWxlLm1hZT4nLCAnLW9tYWUnLCAnPG91dGZpbGUubWFlPic=

> <r_lp_tautomer_probability>
1

> <r_epik_Ionization_Penalty>
0.00516958

> <r_epik_Ionization_Penalty_Charging>
0.00509693

> <r_epik_Ionization_Penalty_Neutral>
7.26542e-05

> <r_epik_State_Penalty>
-0

> <r_epik_Charging_Adjusted_Penalty>
0.00509693

> <i_epik_Tot_Q>
1

> <i_epik_Tot_abs_Q>
1

> <r_epik_Metal_State_Penalty>
-0

> <b_epik_Metal_Only>
0

> <s_lp_Force_Field>
OPLS_2005

> <r_lp_Energy>
51.1284

> <b_lp_Chiralities_Consistent>
1

> <s_lp_Variant>
AV-unprocessed.smi:224-7

> <Gold.Version>
5.8.1

> <Gold.Id.Protein>
6NUR|6NUR_protein|mol2

> <Gold.PLP.Fitness>
43.5543

> <Gold.PLP.PLP>
-33.5955

> <Gold.PLP.part.hbond>
-4.3375

> <Gold.PLP.part.metal>
0.0000

> <Gold.PLP.part.buried>
-3.4592

> <Gold.PLP.part.nonpolar>
-27.4327

> <Gold.PLP.part.repulsive>
1.0788

> <Gold.PLP.ligand.clash>
0.0000

> <Gold.PLP.ligand.torsion>
2.3689

> <Gold.PLP.Chemscore.Hbond>
3.5730

> <Gold.PLP.Chemscore.CHOScore>
1.1983

> <Gold.PLP.Chemscore.Metal>
0.0000

> <Gold.Chemscore.Hbonds>
donor molecule, donor type, donor heavy atom, donor atom, acceptor molecule, acceptor atom, score
      L1  H     3    32       P1 10747  1.00
      L1  H     5    56       P1 10957  1.85
      P1  H  8011  8017       L1    20  0.69
      L1  C    11    39       P1 10171  0.71
      L1  C    11    39       P1 10175  0.68

> <Gold.PLP.Chemscore.Internal.Correction>
0.3827

> <Gold.Rescore>
     Score         DG    S(hbond)    S(metal)    S(lipo)     H(rot)  DE(clash)    DE(int)     intcor
     10.68     -14.23       2.35        0.00      73.81       3.02       0.35       3.20       ----

> <Gold.Chemscore.Fitness>
10.6763

> <Gold.Chemscore.DG>
-14.2256

> <Gold.Chemscore.ZeroCoef>
-5.4800

> <Gold.Chemscore.Hbond>
2.3498

> <Gold.Chemscore.Metal>
0.0000

> <Gold.Chemscore.Lipo>
73.8150

> <Gold.Chemscore.Internal_Hbond>
0.0000

> <Gold.Chemscore.DEClash>
0.3476

> <Gold.Chemscore.DEInternal>
3.2017

> <Gold.Chemscore.Rot>
3.0231

> <Gold.Chemscore.Internal.Correction>
   9.000000E+99

> <Gold.Chemscore.Hbonds>
donor molecule, donor type, donor heavy atom, donor atom, acceptor molecule, acceptor atom, score
      L1  H     3    32       P1 10747  0.99
      L1  H     5    56       P1 10957  0.69
      P1  H  8011  8017       L1    20  0.24

> <Gold.Chemscore.Hbond.Weighted>
-7.8484

> <Gold.Chemscore.Metal.Weighted>
-0.0000

> <Gold.Chemscore.Lipo.Weighted>
-8.6364

> <Gold.Chemscore.Internal_Hbond.Weighted>
0.0000

> <Gold.Chemscore.DEClash.Weighted>
0.3476

> <Gold.Chemscore.DEInternal.Weighted>
3.2017

> <Gold.Chemscore.Rot.Weighted>
7.7391

> <Gold.Chemscore.Internal.Correction.Weighted>
   9.000000E+99

> <Gold.Protein.RotatedTorsions>
[ 6907 6896 6895 6894 ] final  -60.03 input  -60.11 | X-H torsion
[ 7974 7965 7964 7962 ] final -178.53 input  175.53 | X-H torsion
[ 8008 7997 7996 7995 ] final  154.84 input   59.86 | X-H torsion
[ 10167 10162 10161 10158 ] final   60.10 input  -65.29 | X-H torsion
[ 10718 10713 10712 10709 ] final  -60.31 input   66.30 | X-H torsion
[ 10763 10752 10751 10750 ] final  -50.96 input  -60.55 | X-H torsion
[ 11005 11000 10999 10996 ] final -104.08 input  -57.11 | X-H torsion

> <Gold.Protein.ActiveResidues>
 VAL166  LYS551  ARG553  GLY616  TRP617  ASP618  TYR619  PRO620  LYS621  CYS622 
 ASP623  PHE694  ASN695  SER759  ASP760  ASP761  ALA762  ILE779  LEU786  VAL792 
 PHE793  MET794  SER795  GLU796  ALA797  LYS798  CYS799  TRP800  GLU811  SER814 

> <Gold.Protein.RotatedAtoms>
  150.7886  134.6891  159.6486 H   0  0  0  0  0  0  0  0  0  0  0  0  # atno 6907 bound_to 6896
  152.3987  134.6318  160.0087 H   0  0  0  0  0  0  0  0  0  0  0  0  # atno 6908 bound_to 6896
  151.6596  133.3280  159.3207 H   0  0  0  0  0  0  0  0  0  0  0  0  # atno 6909 bound_to 6896
  144.7131  140.0854  143.6424 H   0  0  0  0  0  0  0  0  0  0  0  0  # atno 7974 bound_to 7965
  156.2510  140.1956  156.6708 H   0  0  0  0  0  0  0  0  0  0  0  0  # atno 8008 bound_to 7997
  154.6394  140.0585  156.9853 H   0  0  0  0  0  0  0  0  0  0  0  0  # atno 8009 bound_to 7997
  155.1586  140.3258  155.4418 H   0  0  0  0  0  0  0  0  0  0  0  0  # atno 8010 bound_to 7997
  140.1692  144.4293  150.6670 H   0  0  0  0  0  0  0  0  0  0  0  0  # atno 10167 bound_to 10162
  156.1000  130.4187  150.0836 H   0  0  0  0  0  0  0  0  0  0  0  0  # atno 10718 bound_to 10713
  154.1189  135.6538  153.4899 H   0  0  0  0  0  0  0  0  0  0  0  0  # atno 10763 bound_to 10752
  153.0232  135.5265  154.7117 H   0  0  0  0  0  0  0  0  0  0  0  0  # atno 10764 bound_to 10752
  154.6318  135.2977  155.0177 H   0  0  0  0  0  0  0  0  0  0  0  0  # atno 10765 bound_to 10752
  141.1117  133.8693  157.1566 H   0  0  0  0  0  0  0  0  0  0  0  0  # atno 11005 bound_to 11000
  145.9666  139.2839  143.1124 LP  0  0  0  0  0  0  0  0  0  0  0  0  # atno 17320 bound_to 7965
  145.9163  140.9146  143.0428 LP  0  0  0  0  0  0  0  0  0  0  0  0  # atno 17321 bound_to 7965
  140.6593  143.2247  151.5894 LP  0  0  0  0  0  0  0  0  0  0  0  0  # atno 17342 bound_to 10162
  139.5345  144.2819  152.1222 LP  0  0  0  0  0  0  0  0  0  0  0  0  # atno 17343 bound_to 10162
  156.8825  130.9561  151.3598 LP  0  0  0  0  0  0  0  0  0  0  0  0  # atno 17370 bound_to 10713
  157.6168  130.8624  149.9042 LP  0  0  0  0  0  0  0  0  0  0  0  0  # atno 17371 bound_to 10713
  140.0014  135.0026  157.0198 LP  0  0  0  0  0  0  0  0  0  0  0  0  # atno 17394 bound_to 11000
  140.4758  134.1340  155.7209 LP  0  0  0  0  0  0  0  0  0  0  0  0  # atno 17395 bound_to 11000

$$$$
