AV-unprocessed.smi:838|AV-procd|sdf|3909|dock4
  -GOLD-   22720 1373D 1   1.00000     0.00000
 Structure written by MMmdl.
 46 47  0  0  0  0  0  0  0  0  2 V2000
  151.7454  141.2298  158.1401 C   0  0  0  0  0  0  0  0  0  0  0  0
  151.8740  140.3959  156.8633 C   0  0  0  0  0  0  0  0  0  0  0  0
  152.7877  139.5740  156.7987 O   0  0  0  0  0  0  0  0  0  0  0  0
  150.9892  140.5850  155.8549 N   0  0  0  0  0  0  0  0  0  0  0  0
  149.8295  141.4809  155.8952 C   0  0  0  0  0  0  0  0  0  0  0  0
  148.5420  140.6372  155.8595 C   0  0  0  0  0  0  0  0  0  0  0  0
  148.5132  139.7334  154.6779 N   0  3  0  0  0  0  0  0  0  0  0  0
  147.2696  138.9253  154.6224 C   0  0  0  0  0  0  0  0  0  0  0  0
  146.6920  138.8291  153.1970 C   0  0  0  0  0  0  0  0  0  0  0  0
  146.8700  137.4943  152.6372 N   0  0  0  0  0  0  0  0  0  0  0  0
  145.8798  136.6149  152.4267 C   0  0  0  0  0  0  0  0  0  0  0  0
  144.7002  136.8535  152.6872 O   0  0  0  0  0  0  0  0  0  0  0  0
  146.3481  135.4701  151.8987 N   0  0  0  0  0  0  0  0  0  0  0  0
  145.6223  134.3004  151.5358 C   0  0  0  0  0  0  0  0  0  0  0  0
  144.3739  134.3494  151.0065 N   0  0  0  0  0  0  0  0  0  0  0  0
  143.7405  133.2020  150.6889 C   0  0  0  0  0  0  0  0  0  0  0  0
  144.3119  131.9320  150.8778 C   0  0  0  0  0  0  0  0  0  0  0  0
  145.6049  131.8632  151.4238 C   0  0  0  0  0  0  0  0  0  0  0  0
  146.2754  133.0587  151.7598 C   0  0  0  0  0  0  0  0  0  0  0  0
  147.6743  132.9852  152.3506 C   0  0  0  0  0  0  0  0  0  0  0  0
  149.7537  138.9185  154.5501 C   0  0  0  0  0  0  0  0  0  0  0  0
  151.0147  139.7997  154.6175 C   0  0  0  0  0  0  0  0  0  0  0  0
  150.7850  141.0516  158.6244 H   0  0  0  0  0  0  0  0  0  0  0  0
  151.8411  142.2932  157.9194 H   0  0  0  0  0  0  0  0  0  0  0  0
  152.5296  140.9667  158.8508 H   0  0  0  0  0  0  0  0  0  0  0  0
  149.8115  142.1375  156.7637 H   0  0  0  0  0  0  0  0  0  0  0  0
  149.8644  142.1438  155.0294 H   0  0  0  0  0  0  0  0  0  0  0  0
  148.4636  140.0424  156.7712 H   0  0  0  0  0  0  0  0  0  0  0  0
  147.6754  141.2989  155.8357 H   0  0  0  0  0  0  0  0  0  0  0  0
  147.4601  137.9351  155.0395 H   0  0  0  0  0  0  0  0  0  0  0  0
  146.5142  139.3866  155.2607 H   0  0  0  0  0  0  0  0  0  0  0  0
  145.6244  139.0500  153.2126 H   0  0  0  0  0  0  0  0  0  0  0  0
  147.1506  139.5588  152.5290 H   0  0  0  0  0  0  0  0  0  0  0  0
  147.8119  137.2190  152.3990 H   0  0  0  0  0  0  0  0  0  0  0  0
  147.3430  135.4266  151.7349 H   0  0  0  0  0  0  0  0  0  0  0  0
  142.7488  133.3003  150.2727 H   0  0  0  0  0  0  0  0  0  0  0  0
  143.7724  131.0354  150.6109 H   0  0  0  0  0  0  0  0  0  0  0  0
  146.0731  130.9028  151.5823 H   0  0  0  0  0  0  0  0  0  0  0  0
  148.0187  131.9536  152.4295 H   0  0  0  0  0  0  0  0  0  0  0  0
  147.6895  133.4210  153.3500 H   0  0  0  0  0  0  0  0  0  0  0  0
  148.3830  133.5271  151.7237 H   0  0  0  0  0  0  0  0  0  0  0  0
  149.7825  138.1747  155.3480 H   0  0  0  0  0  0  0  0  0  0  0  0
  149.7527  138.3713  153.6082 H   0  0  0  0  0  0  0  0  0  0  0  0
  151.0434  140.4792  153.7643 H   0  0  0  0  0  0  0  0  0  0  0  0
  151.9049  139.1755  154.5285 H   0  0  0  0  0  0  0  0  0  0  0  0
  148.4904  140.3428  153.8728 H   0  0  0  0  0  0  0  0  0  0  0  0
  1  2  1  0  0  0  0
  1 23  1  0  0  0  0
  1 24  1  0  0  0  0
  1 25  1  0  0  0  0
  2  3  2  0  0  0  0
  2  4  1  0  0  0  0
  4 22  1  0  0  0  0
  4  5  1  0  0  0  0
  5  6  1  0  0  0  0
  5 26  1  0  0  0  0
  5 27  1  0  0  0  0
  6  7  1  0  0  0  0
  6 28  1  0  0  0  0
  6 29  1  0  0  0  0
  7  8  1  0  0  0  0
  7 21  1  0  0  0  0
  7 46  1  0  0  0  0
  8  9  1  0  0  0  0
  8 30  1  0  0  0  0
  8 31  1  0  0  0  0
  9 10  1  0  0  0  0
  9 32  1  0  0  0  0
  9 33  1  0  0  0  0
 10 11  1  0  0  0  0
 10 34  1  0  0  0  0
 11 12  2  0  0  0  0
 11 13  1  0  0  0  0
 13 14  1  0  0  0  0
 13 35  1  0  0  0  0
 14 19  1  0  0  0  0
 14 15  2  0  0  0  0
 15 16  1  0  0  0  0
 16 17  2  0  0  0  0
 16 36  1  0  0  0  0
 17 18  1  0  0  0  0
 17 37  1  0  0  0  0
 18 19  2  0  0  0  0
 18 38  1  0  0  0  0
 19 20  1  0  0  0  0
 20 39  1  0  0  0  0
 20 40  1  0  0  0  0
 20 41  1  0  0  0  0
 21 22  1  0  0  0  0
 21 42  1  0  0  0  0
 21 43  1  0  0  0  0
 22 44  1  0  0  0  0
 22 45  1  0  0  0  0
M  CHG  1   7   1
M  END
> <s_m_source_file>
AV-unprocessed.smi

> <i_m_source_file_index>
838

> <i_lp_mmshare_version>
43012

> <i_f3d_flags>
0

> <s_epik_input>
W0NIM11DKD1PKU4xW0NIMl1bQ0gyXU4oW0NIMl1bQ0gyXTEpW0NIMl1bQ0gyXVtOSF1DKD1PKVtOSF1jMm5bY0hdW2NIXVtjSF1jMltDSDNd

> <s_epik_cmdline>
J2VwaWtfcHl0aG9uJywgJy1waCcsICc3LjAnLCAnLXRuJywgJzgnLCAnLW1hJywgJzIwMCcsICctbWV0YWxfYmluZGluZycsICctaW1hZScsICc8aW5maWxlLm1hZT4nLCAnLW9tYWUnLCAnPG91dGZpbGUubWFlPic=

> <r_epik_Ionization_Penalty>
0.630076

> <r_epik_Ionization_Penalty_Charging>
0.630034

> <r_epik_Ionization_Penalty_Neutral>
4.2229e-05

> <r_epik_State_Penalty>
0.646805

> <r_epik_Charging_Adjusted_Penalty>
1.27684

> <i_epik_Tot_Q>
1

> <i_epik_Tot_abs_Q>
1

> <r_epik_Metal_State_Penalty>
0.64681

> <b_epik_Metal_Only>
0

> <s_lp_Force_Field>
OPLS_2005

> <r_lp_Energy>
41.2384

> <b_lp_Chiralities_Consistent>
1

> <s_lp_Variant>
AV-unprocessed.smi:838-2

> <Gold.Version>
5.8.1

> <Gold.Id.Protein>
6NUR|6NUR_protein|mol2

> <Gold.PLP.Fitness>
44.4492

> <Gold.PLP.PLP>
-34.7564

> <Gold.PLP.part.hbond>
-2.9256

> <Gold.PLP.part.metal>
0.0000

> <Gold.PLP.part.buried>
-1.9584

> <Gold.PLP.part.nonpolar>
-31.2769

> <Gold.PLP.part.repulsive>
0.5050

> <Gold.PLP.ligand.clash>
0.0000

> <Gold.PLP.ligand.torsion>
1.1732

> <Gold.PLP.Chemscore.Hbond>
2.9920

> <Gold.PLP.Chemscore.CHOScore>
1.0000

> <Gold.PLP.Chemscore.Metal>
0.0000

> <Gold.Chemscore.Hbonds>
donor molecule, donor type, donor heavy atom, donor atom, acceptor molecule, acceptor atom, score
      L1  H    10    34       P1  7948  1.00
      L1  H    13    35       P1  7948  0.99
      P1  H  7997  8008       L1     3  1.00
      L1  C    16    36       P1 10186  1.00

> <Gold.PLP.Chemscore.Internal.Correction>
0.0631

> <Gold.Rescore>
     Score         DG    S(hbond)    S(metal)    S(lipo)     H(rot)  DE(clash)    DE(int)     intcor
     17.43     -20.06       2.91        0.00      76.10       1.58       1.32       1.32       ----

> <Gold.Chemscore.Fitness>
17.4255

> <Gold.Chemscore.DG>
-20.0641

> <Gold.Chemscore.ZeroCoef>
-5.4800

> <Gold.Chemscore.Hbond>
2.9109

> <Gold.Chemscore.Metal>
0.0000

> <Gold.Chemscore.Lipo>
76.0984

> <Gold.Chemscore.Internal_Hbond>
0.0000

> <Gold.Chemscore.DEClash>
1.3197

> <Gold.Chemscore.DEInternal>
1.3189

> <Gold.Chemscore.Rot>
1.5788

> <Gold.Chemscore.Internal.Correction>
   9.000000E+99

> <Gold.Chemscore.Hbonds>
donor molecule, donor type, donor heavy atom, donor atom, acceptor molecule, acceptor atom, score
      L1  H    10    34       P1  7948  0.97
      L1  H    13    35       P1  7948  0.93
      P1  H  7997  8008       L1     3  0.98

> <Gold.Chemscore.Hbond.Weighted>
-9.7223

> <Gold.Chemscore.Metal.Weighted>
-0.0000

> <Gold.Chemscore.Lipo.Weighted>
-8.9035

> <Gold.Chemscore.Internal_Hbond.Weighted>
0.0000

> <Gold.Chemscore.DEClash.Weighted>
1.3197

> <Gold.Chemscore.DEInternal.Weighted>
1.3189

> <Gold.Chemscore.Rot.Weighted>
4.0416

> <Gold.Chemscore.Internal.Correction.Weighted>
   9.000000E+99

> <Gold.Protein.RotatedTorsions>
[ 6907 6896 6895 6894 ] final  134.64 input  -60.11 | X-H torsion
[ 7974 7965 7964 7962 ] final  -21.51 input  175.53 | X-H torsion
[ 8008 7997 7996 7995 ] final  -65.09 input   59.86 | X-H torsion
[ 10167 10162 10161 10158 ] final  -55.20 input  -65.29 | X-H torsion
[ 10718 10713 10712 10709 ] final  140.16 input   66.30 | X-H torsion
[ 10763 10752 10751 10750 ] final  132.75 input  -60.55 | X-H torsion
[ 11005 11000 10999 10996 ] final  -19.46 input  -57.11 | X-H torsion

> <Gold.Protein.ActiveResidues>
 VAL166  LYS551  ARG553  GLY616  TRP617  ASP618  TYR619  PRO620  LYS621  CYS622 
 ASP623  PHE694  ASN695  SER759  ASP760  ASP761  ALA762  ILE779  LEU786  VAL792 
 PHE793  MET794  SER795  GLU796  ALA797  LYS798  CYS799  TRP800  GLU811  SER814 

> <Gold.Protein.RotatedAtoms>
  152.3091  133.5734  159.5668 H   0  0  0  0  0  0  0  0  0  0  0  0  # atno 6907 bound_to 6896
  150.7314  134.0179  159.3700 H   0  0  0  0  0  0  0  0  0  0  0  0  # atno 6908 bound_to 6896
  151.8073  135.0692  160.0459 H   0  0  0  0  0  0  0  0  0  0  0  0  # atno 6909 bound_to 6896
  146.1729  140.4351  142.8525 H   0  0  0  0  0  0  0  0  0  0  0  0  # atno 7974 bound_to 7965
  154.4651  140.0940  156.6997 H   0  0  0  0  0  0  0  0  0  0  0  0  # atno 8008 bound_to 7997
  155.4883  140.3470  155.4332 H   0  0  0  0  0  0  0  0  0  0  0  0  # atno 8009 bound_to 7997
  156.0941  140.1405  156.9543 H   0  0  0  0  0  0  0  0  0  0  0  0  # atno 8010 bound_to 7997
  140.6388  143.2496  151.5045 H   0  0  0  0  0  0  0  0  0  0  0  0  # atno 10167 bound_to 10162
  157.4063  131.1023  151.0500 H   0  0  0  0  0  0  0  0  0  0  0  0  # atno 10718 bound_to 10713
  153.7959  135.3148  155.3384 H   0  0  0  0  0  0  0  0  0  0  0  0  # atno 10763 bound_to 10752
  154.8108  135.4668  154.0514 H   0  0  0  0  0  0  0  0  0  0  0  0  # atno 10764 bound_to 10752
  153.1846  135.6899  153.8519 H   0  0  0  0  0  0  0  0  0  0  0  0  # atno 10765 bound_to 10752
  140.8369  133.7955  155.9818 H   0  0  0  0  0  0  0  0  0  0  0  0  # atno 11005 bound_to 11000
  144.8190  140.6518  143.6365 LP  0  0  0  0  0  0  0  0  0  0  0  0  # atno 17320 bound_to 7965
  145.4292  139.1552  143.4032 LP  0  0  0  0  0  0  0  0  0  0  0  0  # atno 17321 bound_to 7965
  139.5598  144.2186  152.1672 LP  0  0  0  0  0  0  0  0  0  0  0  0  # atno 17342 bound_to 10162
  140.1450  144.5167  150.6721 LP  0  0  0  0  0  0  0  0  0  0  0  0  # atno 17343 bound_to 10162
  157.1480  130.6172  149.5574 LP  0  0  0  0  0  0  0  0  0  0  0  0  # atno 17370 bound_to 10713
  155.9837  130.4858  150.6948 LP  0  0  0  0  0  0  0  0  0  0  0  0  # atno 17371 bound_to 10713
  140.8938  134.2463  157.5080 LP  0  0  0  0  0  0  0  0  0  0  0  0  # atno 17394 bound_to 11000
  139.8704  134.9674  156.4596 LP  0  0  0  0  0  0  0  0  0  0  0  0  # atno 17395 bound_to 11000

$$$$
