AV-unprocessed.smi:694|AV-procd|sdf|3381|dock4
  -GOLD-   22720 0363D 1   1.00000     0.00000
 Structure written by MMmdl.
 42 43  0  0  0  0  0  0  0  0  1 V2000
  151.2606  143.7376  157.7437 C   0  0  0  0  0  0  0  0  0  0  0  0
  151.5987  142.3212  157.6464 N   0  0  0  0  0  0  0  0  0  0  0  0
  152.5414  141.7327  158.5895 C   0  0  0  0  0  0  0  0  0  0  0  0
  150.9622  141.5107  156.6787 C   0  0  0  0  0  0  0  0  0  0  0  0
  151.6309  140.4176  156.0746 C   0  0  0  0  0  0  0  0  0  0  0  0
  150.9528  139.6420  155.1158 C   0  0  0  0  0  0  0  0  0  0  0  0
  149.6283  139.9712  154.7711 C   0  0  0  0  0  0  0  0  0  0  0  0
  148.9698  139.1563  153.8105 N   0  0  0  0  0  0  0  0  0  0  0  0
  147.7220  139.2684  153.3243 C   0  0  0  0  0  0  0  0  0  0  0  0
  146.9202  140.1555  153.6142 O   0  0  0  0  0  0  0  0  0  0  0  0
  147.4533  138.2829  152.4558 N   0  0  0  0  0  0  0  0  0  0  0  0
  146.1867  138.0946  151.7548 C   0  0  0  0  0  0  0  0  0  0  0  0
  145.6176  136.6776  151.9767 C   0  0  1  0  0  0  0  0  0  0  0  0
  144.1391  136.6111  152.3842 C   0  0  0  0  0  0  0  0  0  0  0  0
  143.6683  135.1967  152.0126 C   0  0  0  0  0  0  0  0  0  0  0  0
  144.7735  134.5827  151.1383 C   0  0  0  0  0  0  0  0  0  0  0  0
  145.7083  135.7382  150.7654 C   0  0  1  0  0  0  0  0  0  0  0  0
  145.2222  136.3591  149.5895 O   0  0  0  0  0  0  0  0  0  0  0  0
  149.0359  141.0726  155.4327 C   0  0  0  0  0  0  0  0  0  0  0  0
  149.6829  141.8179  156.3531 N   0  0  0  0  0  0  0  0  0  0  0  0
  150.2078  143.8636  157.9978 H   0  0  0  0  0  0  0  0  0  0  0  0
  151.4520  144.2440  156.7971 H   0  0  0  0  0  0  0  0  0  0  0  0
  151.8520  144.2358  158.5118 H   0  0  0  0  0  0  0  0  0  0  0  0
  153.4050  141.3244  158.0640 H   0  0  0  0  0  0  0  0  0  0  0  0
  152.0666  140.9325  159.1578 H   0  0  0  0  0  0  0  0  0  0  0  0
  152.9058  142.4731  159.3016 H   0  0  0  0  0  0  0  0  0  0  0  0
  152.6485  140.1595  156.3251 H   0  0  0  0  0  0  0  0  0  0  0  0
  151.4504  138.8042  154.6493 H   0  0  0  0  0  0  0  0  0  0  0  0
  149.5315  138.4148  153.4187 H   0  0  0  0  0  0  0  0  0  0  0  0
  148.1761  137.6021  152.2743 H   0  0  0  0  0  0  0  0  0  0  0  0
  145.4651  138.8572  152.0521 H   0  0  0  0  0  0  0  0  0  0  0  0
  146.3708  138.2488  150.6914 H   0  0  0  0  0  0  0  0  0  0  0  0
  146.1932  136.2126  152.7794 H   0  0  0  0  0  0  0  0  0  0  0  0
  143.9927  136.8298  153.4422 H   0  0  0  0  0  0  0  0  0  0  0  0
  143.5639  137.3438  151.8167 H   0  0  0  0  0  0  0  0  0  0  0  0
  143.5045  134.5884  152.9027 H   0  0  0  0  0  0  0  0  0  0  0  0
  142.7226  135.2431  151.4717 H   0  0  0  0  0  0  0  0  0  0  0  0
  145.3278  133.8527  151.7298 H   0  0  0  0  0  0  0  0  0  0  0  0
  144.3785  134.0558  150.2685 H   0  0  0  0  0  0  0  0  0  0  0  0
  146.7285  135.3964  150.5875 H   0  0  0  0  0  0  0  0  0  0  0  0
  144.9899  137.2519  149.7939 H   0  0  0  0  0  0  0  0  0  0  0  0
  148.0155  141.3724  155.2535 H   0  0  0  0  0  0  0  0  0  0  0  0
  1  2  1  0  0  0  0
  1 21  1  0  0  0  0
  1 22  1  0  0  0  0
  1 23  1  0  0  0  0
  2  3  1  0  0  0  0
  2  4  1  0  0  0  0
  3 24  1  0  0  0  0
  3 25  1  0  0  0  0
  3 26  1  0  0  0  0
  4 20  1  0  0  0  0
  4  5  2  0  0  0  0
  5  6  1  0  0  0  0
  5 27  1  0  0  0  0
  6  7  2  0  0  0  0
  6 28  1  0  0  0  0
  7  8  1  0  0  0  0
  7 19  1  0  0  0  0
  8  9  1  0  0  0  0
  8 29  1  0  0  0  0
  9 10  2  0  0  0  0
  9 11  1  0  0  0  0
 11 12  1  0  0  0  0
 11 30  1  0  0  0  0
 12 13  1  0  0  0  0
 12 31  1  0  0  0  0
 12 32  1  0  0  0  0
 13 17  1  0  0  0  0
 13 14  1  0  0  0  0
 13 33  1  0  0  0  0
 14 15  1  0  0  0  0
 14 34  1  0  0  0  0
 14 35  1  0  0  0  0
 15 16  1  0  0  0  0
 15 36  1  0  0  0  0
 15 37  1  0  0  0  0
 16 17  1  0  0  0  0
 16 38  1  0  0  0  0
 16 39  1  0  0  0  0
 17 18  1  0  0  0  0
 17 40  1  0  0  0  0
 18 41  1  0  0  0  0
 19 20  2  0  0  0  0
 19 42  1  0  0  0  0
M  END
> <s_m_source_file>
AV-unprocessed.smi

> <i_m_source_file_index>
694

> <i_lp_mmshare_version>
43012

> <i_f3d_flags>
0

> <s_epik_input>
W0NIM11OKFtDSDNdKWMxW2NIXVtjSF1jKFtjSF1uMSlbTkhdQyg9TylbTkhdW0NIMl1bQ0BASF0yW0NIMl1bQ0gyXVtDSDJdW0NASF0yW09IXQ==

> <s_epik_cmdline>
J2VwaWtfcHl0aG9uJywgJy1waCcsICc3LjAnLCAnLXRuJywgJzgnLCAnLW1hJywgJzIwMCcsICctbWV0YWxfYmluZGluZycsICctaW1hZScsICc8aW5maWxlLm1hZT4nLCAnLW9tYWUnLCAnPG91dGZpbGUubWFlPic=

> <r_lp_tautomer_probability>
1

> <r_epik_Ionization_Penalty>
0.60335

> <r_epik_Ionization_Penalty_Charging>
0

> <r_epik_Ionization_Penalty_Neutral>
0.60335

> <r_epik_State_Penalty>
0.616805

> <r_epik_Charging_Adjusted_Penalty>
0.616805

> <i_epik_Tot_Q>
0

> <i_epik_Tot_abs_Q>
0

> <r_epik_Metal_State_Penalty>
0.301709

> <b_epik_Metal_Only>
0

> <s_lp_Force_Field>
OPLS_2005

> <r_lp_Energy>
27.6446

> <b_lp_Chiralities_Consistent>
1

> <s_lp_Variant>
AV-unprocessed.smi:694-6

> <Gold.Version>
5.8.1

> <Gold.Id.Protein>
6NUR|6NUR_protein|mol2

> <Gold.PLP.Fitness>
43.5122

> <Gold.PLP.PLP>
-39.8075

> <Gold.PLP.part.hbond>
-4.9156

> <Gold.PLP.part.metal>
0.0000

> <Gold.PLP.part.buried>
-3.1086

> <Gold.PLP.part.nonpolar>
-33.2234

> <Gold.PLP.part.repulsive>
0.9353

> <Gold.PLP.ligand.clash>
0.0000

> <Gold.PLP.ligand.torsion>
1.1548

> <Gold.PLP.Chemscore.Hbond>
2.0000

> <Gold.PLP.Chemscore.CHOScore>
0.0000

> <Gold.PLP.Chemscore.Metal>
0.0000

> <Gold.Chemscore.Hbonds>
donor molecule, donor type, donor heavy atom, donor atom, acceptor molecule, acceptor atom, score
      L1  H    11    30       P1  7948  1.00
      L1  H    18    41       P1 10171  1.00

> <Gold.PLP.Chemscore.Internal.Correction>
0.0142

> <Gold.Rescore>
     Score         DG    S(hbond)    S(metal)    S(lipo)     H(rot)  DE(clash)    DE(int)     intcor
     14.82     -16.81       2.00        0.00      77.61       1.73       0.02       1.97       ----

> <Gold.Chemscore.Fitness>
14.8179

> <Gold.Chemscore.DG>
-16.8096

> <Gold.Chemscore.ZeroCoef>
-5.4800

> <Gold.Chemscore.Hbond>
1.9961

> <Gold.Chemscore.Metal>
0.0000

> <Gold.Chemscore.Lipo>
77.6148

> <Gold.Chemscore.Internal_Hbond>
0.0000

> <Gold.Chemscore.DEClash>
0.0239

> <Gold.Chemscore.DEInternal>
1.9679

> <Gold.Chemscore.Rot>
1.7259

> <Gold.Chemscore.Internal.Correction>
   9.000000E+99

> <Gold.Chemscore.Hbonds>
donor molecule, donor type, donor heavy atom, donor atom, acceptor molecule, acceptor atom, score
      L1  H    11    30       P1  7948  0.99
      L1  H    18    41       P1 10171  0.95

> <Gold.Chemscore.Hbond.Weighted>
-6.6670

> <Gold.Chemscore.Metal.Weighted>
-0.0000

> <Gold.Chemscore.Lipo.Weighted>
-9.0809

> <Gold.Chemscore.Internal_Hbond.Weighted>
0.0000

> <Gold.Chemscore.DEClash.Weighted>
0.0239

> <Gold.Chemscore.DEInternal.Weighted>
1.9679

> <Gold.Chemscore.Rot.Weighted>
4.4184

> <Gold.Chemscore.Internal.Correction.Weighted>
   9.000000E+99

> <Gold.Protein.RotatedTorsions>
[ 6907 6896 6895 6894 ] final  122.46 input  -60.11 | X-H torsion
[ 7974 7965 7964 7962 ] final   70.88 input  175.53 | X-H torsion
[ 8008 7997 7996 7995 ] final  162.81 input   59.86 | X-H torsion
[ 10167 10162 10161 10158 ] final -153.06 input  -65.29 | X-H torsion
[ 10718 10713 10712 10709 ] final  171.93 input   66.30 | X-H torsion
[ 10763 10752 10751 10750 ] final  123.82 input  -60.55 | X-H torsion
[ 11005 11000 10999 10996 ] final  147.11 input  -57.11 | X-H torsion

> <Gold.Protein.ActiveResidues>
 VAL166  LYS551  ARG553  GLY616  TRP617  ASP618  TYR619  PRO620  LYS621  CYS622 
 ASP623  PHE694  ASN695  SER759  ASP760  ASP761  ALA762  ILE779  LEU786  VAL792 
 PHE793  MET794  SER795  GLU796  ALA797  LYS798  CYS799  TRP800  GLU811  SER814 

> <Gold.Protein.RotatedAtoms>
  152.4241  133.7165  159.6508 H   0  0  0  0  0  0  0  0  0  0  0  0  # atno 6907 bound_to 6896
  150.8117  133.8399  159.3185 H   0  0  0  0  0  0  0  0  0  0  0  0  # atno 6908 bound_to 6896
  151.6107  135.1042  160.0132 H   0  0  0  0  0  0  0  0  0  0  0  0  # atno 6909 bound_to 6896
  145.7727  139.2851  143.1311 H   0  0  0  0  0  0  0  0  0  0  0  0  # atno 7974 bound_to 7965
  156.2004  140.1740  156.7912 H   0  0  0  0  0  0  0  0  0  0  0  0  # atno 8008 bound_to 7997
  154.5584  140.0704  156.8811 H   0  0  0  0  0  0  0  0  0  0  0  0  # atno 8009 bound_to 7997
  155.2895  140.3354  155.4255 H   0  0  0  0  0  0  0  0  0  0  0  0  # atno 8010 bound_to 7997
  139.7128  143.9080  152.2475 H   0  0  0  0  0  0  0  0  0  0  0  0  # atno 10167 bound_to 10162
  156.9863  131.0134  151.2868 H   0  0  0  0  0  0  0  0  0  0  0  0  # atno 10718 bound_to 10713
  153.6515  135.3362  155.3101 H   0  0  0  0  0  0  0  0  0  0  0  0  # atno 10763 bound_to 10752
  154.8536  135.4342  154.1899 H   0  0  0  0  0  0  0  0  0  0  0  0  # atno 10764 bound_to 10752
  153.2843  135.7011  153.7430 H   0  0  0  0  0  0  0  0  0  0  0  0  # atno 10765 bound_to 10752
  140.0849  134.9075  157.1559 H   0  0  0  0  0  0  0  0  0  0  0  0  # atno 11005 bound_to 11000
  146.0153  140.8398  142.9950 LP  0  0  0  0  0  0  0  0  0  0  0  0  # atno 17320 bound_to 7965
  144.6810  140.2550  143.7326 LP  0  0  0  0  0  0  0  0  0  0  0  0  # atno 17321 bound_to 7965
  139.8955  144.6942  150.8723 LP  0  0  0  0  0  0  0  0  0  0  0  0  # atno 17342 bound_to 10162
  140.7737  143.3554  151.1932 LP  0  0  0  0  0  0  0  0  0  0  0  0  # atno 17343 bound_to 10162
  157.5490  130.8170  149.8122 LP  0  0  0  0  0  0  0  0  0  0  0  0  # atno 17370 bound_to 10713
  156.0224  130.3791  150.1921 LP  0  0  0  0  0  0  0  0  0  0  0  0  # atno 17371 bound_to 10713
  140.3435  134.2677  155.7208 LP  0  0  0  0  0  0  0  0  0  0  0  0  # atno 17394 bound_to 11000
  141.2059  133.7848  157.0207 LP  0  0  0  0  0  0  0  0  0  0  0  0  # atno 17395 bound_to 11000

$$$$
