AV-unprocessed.smi:2461|AV-procd|sdf|9716|dock3
  -GOLD-   2272013353D 1   1.00000     0.00000
 Structure written by MMmdl.
 36 37  0  0  0  0  0  0  0  0  1 V2000
  152.4115  143.7155  161.9271 C   0  0  0  0  0  0  0  0  0  0  0  0
  152.4749  143.3063  160.4487 C   0  0  0  0  0  0  0  0  0  0  0  0
  151.7672  144.2837  159.5161 C   0  0  0  0  0  0  0  0  0  0  0  0
  152.2246  144.1271  158.0635 C   0  0  0  0  0  0  0  0  0  0  0  0
  151.1925  143.7327  157.1115 N   0  0  0  0  0  0  0  0  0  0  0  0
  150.9922  142.4837  156.6683 C   0  0  0  0  0  0  0  0  0  0  0  0
  151.6974  141.5272  156.9902 O   0  0  0  0  0  0  0  0  0  0  0  0
  149.9274  142.4236  155.8497 N   0  0  0  0  0  0  0  0  0  0  0  0
  149.3841  141.2816  155.2044 C   0  0  0  0  0  0  0  0  0  0  0  0
  150.2604  140.1824  155.0631 C   0  0  0  0  0  0  0  0  0  0  0  0
  149.7625  139.0307  154.4198 C   0  0  0  0  0  0  0  0  0  0  0  0
  150.5899  137.9397  154.2522 O   0  0  0  0  0  0  0  0  0  0  0  0
  151.9801  138.1050  154.5075 C   0  0  0  0  0  0  0  0  0  0  0  0
  148.4887  138.9769  153.9611 N   0  0  0  0  0  0  0  0  0  0  0  0
  147.7377  140.0631  154.1466 C   0  0  0  0  0  0  0  0  0  0  0  0
  148.1142  141.1994  154.7360 N   0  0  0  0  0  0  0  0  0  0  0  0
  150.3269  144.6711  159.8126 C   0  0  0  0  0  0  0  0  0  0  0  0
  151.4273  145.6710  160.0296 C   0  0  0  0  0  0  0  0  0  0  0  0
  152.9049  142.9719  162.5531 H   0  0  0  0  0  0  0  0  0  0  0  0
  151.3797  143.8018  162.2683 H   0  0  0  0  0  0  0  0  0  0  0  0
  152.9033  144.6715  162.1048 H   0  0  0  0  0  0  0  0  0  0  0  0
  153.5129  143.1949  160.1341 H   0  0  0  0  0  0  0  0  0  0  0  0
  152.0199  142.3211  160.3406 H   0  0  0  0  0  0  0  0  0  0  0  0
  152.6307  145.0798  157.7236 H   0  0  0  0  0  0  0  0  0  0  0  0
  153.0549  143.4225  157.9969 H   0  0  0  0  0  0  0  0  0  0  0  0
  150.5682  144.4589  156.7918 H   0  0  0  0  0  0  0  0  0  0  0  0
  149.4353  143.2898  155.6880 H   0  0  0  0  0  0  0  0  0  0  0  0
  151.2774  140.2183  155.4259 H   0  0  0  0  0  0  0  0  0  0  0  0
  152.4918  137.1567  154.3436 H   0  0  0  0  0  0  0  0  0  0  0  0
  152.1635  138.4049  155.5403 H   0  0  0  0  0  0  0  0  0  0  0  0
  152.4247  138.8411  153.8362 H   0  0  0  0  0  0  0  0  0  0  0  0
  146.7217  140.0187  153.7828 H   0  0  0  0  0  0  0  0  0  0  0  0
  149.6528  144.8554  158.9788 H   0  0  0  0  0  0  0  0  0  0  0  0
  149.8568  144.2447  160.6963 H   0  0  0  0  0  0  0  0  0  0  0  0
  151.6888  145.9104  161.0582 H   0  0  0  0  0  0  0  0  0  0  0  0
  151.4854  146.5044  159.3322 H   0  0  0  0  0  0  0  0  0  0  0  0
  1  2  1  0  0  0  0
  1 19  1  0  0  0  0
  1 20  1  0  0  0  0
  1 21  1  0  0  0  0
  2  3  1  0  0  0  0
  2 22  1  0  0  0  0
  2 23  1  0  0  0  0
  3 18  1  0  0  0  0
  3  4  1  0  0  0  0
  3 17  1  0  0  0  0
  4  5  1  0  0  0  0
  4 24  1  0  0  0  0
  4 25  1  0  0  0  0
  5  6  1  0  0  0  0
  5 26  1  0  0  0  0
  6  7  2  0  0  0  0
  6  8  1  0  0  0  0
  8  9  1  0  0  0  0
  8 27  1  0  0  0  0
  9 16  1  0  0  0  0
  9 10  2  0  0  0  0
 10 11  1  0  0  0  0
 10 28  1  0  0  0  0
 11 12  1  0  0  0  0
 11 14  2  0  0  0  0
 12 13  1  0  0  0  0
 13 29  1  0  0  0  0
 13 30  1  0  0  0  0
 13 31  1  0  0  0  0
 14 15  1  0  0  0  0
 15 16  2  0  0  0  0
 15 32  1  0  0  0  0
 17 18  1  0  0  0  0
 17 33  1  0  0  0  0
 17 34  1  0  0  0  0
 18 35  1  0  0  0  0
 18 36  1  0  0  0  0
M  END
> <s_m_source_file>
AV-unprocessed.smi

> <i_m_source_file_index>
2461

> <i_lp_mmshare_version>
43012

> <i_f3d_flags>
0

> <s_epik_input>
W0NIM11bQ0gyXUMxKFtDSDJdW0NIMl0xKVtDSDJdW05IXUMoPU8pW05IXWMyW2NIXWMoT1tDSDNdKW5bY0hdbjI=

> <s_epik_cmdline>
J2VwaWtfcHl0aG9uJywgJy1waCcsICc3LjAnLCAnLXRuJywgJzgnLCAnLW1hJywgJzIwMCcsICctbWV0YWxfYmluZGluZycsICctaW1hZScsICc8aW5maWxlLm1hZT4nLCAnLW9tYWUnLCAnPG91dGZpbGUubWFlPic=

> <r_lp_tautomer_probability>
1

> <r_epik_Ionization_Penalty>
2.7206e-05

> <r_epik_Ionization_Penalty_Charging>
0

> <r_epik_Ionization_Penalty_Neutral>
2.7206e-05

> <r_epik_State_Penalty>
-0

> <r_epik_Charging_Adjusted_Penalty>
0

> <i_epik_Tot_Q>
0

> <i_epik_Tot_abs_Q>
0

> <r_epik_Metal_State_Penalty>
-0

> <b_epik_Metal_Only>
0

> <s_lp_Force_Field>
OPLS_2005

> <r_lp_Energy>
17.684

> <b_lp_Chiralities_Consistent>
1

> <s_lp_Variant>
AV-unprocessed.smi:2461-1

> <Gold.Version>
5.8.1

> <Gold.Id.Protein>
6NUR|6NUR_protein|mol2

> <Gold.PLP.Fitness>
45.3096

> <Gold.PLP.PLP>
-41.7165

> <Gold.PLP.part.hbond>
-2.0000

> <Gold.PLP.part.metal>
0.0000

> <Gold.PLP.part.buried>
-4.9586

> <Gold.PLP.part.nonpolar>
-35.0662

> <Gold.PLP.part.repulsive>
0.7385

> <Gold.PLP.ligand.clash>
0.0000

> <Gold.PLP.ligand.torsion>
1.6156

> <Gold.PLP.Chemscore.Hbond>
1.8640

> <Gold.PLP.Chemscore.CHOScore>
0.0000

> <Gold.PLP.Chemscore.Metal>
0.0000

> <Gold.Chemscore.Hbonds>
donor molecule, donor type, donor heavy atom, donor atom, acceptor molecule, acceptor atom, score
      L1  H     5    26       P1  8028  0.85
      L1  H     8    27       P1  8028  1.00

> <Gold.PLP.Chemscore.Internal.Correction>
1.2323

> <Gold.Rescore>
     Score         DG    S(hbond)    S(metal)    S(lipo)     H(rot)  DE(clash)    DE(int)     intcor
     14.14     -17.09       1.95        0.00      84.42       1.87       0.05       2.89       ----

> <Gold.Chemscore.Fitness>
14.1443

> <Gold.Chemscore.DG>
-17.0873

> <Gold.Chemscore.ZeroCoef>
-5.4800

> <Gold.Chemscore.Hbond>
1.9485

> <Gold.Chemscore.Metal>
0.0000

> <Gold.Chemscore.Lipo>
84.4220

> <Gold.Chemscore.Internal_Hbond>
0.0000

> <Gold.Chemscore.DEClash>
0.0527

> <Gold.Chemscore.DEInternal>
2.8903

> <Gold.Chemscore.Rot>
1.8664

> <Gold.Chemscore.Internal.Correction>
   9.000000E+99

> <Gold.Chemscore.Hbonds>
donor molecule, donor type, donor heavy atom, donor atom, acceptor molecule, acceptor atom, score
      L1  H     5    26       P1  8028  0.77
      L1  H     8    27       P1  8028  0.93

> <Gold.Chemscore.Hbond.Weighted>
-6.5080

> <Gold.Chemscore.Metal.Weighted>
-0.0000

> <Gold.Chemscore.Lipo.Weighted>
-9.8774

> <Gold.Chemscore.Internal_Hbond.Weighted>
0.0000

> <Gold.Chemscore.DEClash.Weighted>
0.0527

> <Gold.Chemscore.DEInternal.Weighted>
2.8903

> <Gold.Chemscore.Rot.Weighted>
4.7781

> <Gold.Chemscore.Internal.Correction.Weighted>
   9.000000E+99

> <Gold.Protein.RotatedTorsions>
[ 6907 6896 6895 6894 ] final  140.48 input  -60.11 | X-H torsion
[ 7974 7965 7964 7962 ] final  127.80 input  175.53 | X-H torsion
[ 8008 7997 7996 7995 ] final   20.75 input   59.86 | X-H torsion
[ 10167 10162 10161 10158 ] final  -70.52 input  -65.29 | X-H torsion
[ 10718 10713 10712 10709 ] final -122.30 input   66.30 | X-H torsion
[ 10763 10752 10751 10750 ] final    0.57 input  -60.55 | X-H torsion
[ 11005 11000 10999 10996 ] final  103.00 input  -57.11 | X-H torsion

> <Gold.Protein.ActiveResidues>
 VAL166  LYS551  ARG553  GLY616  TRP617  ASP618  TYR619  PRO620  LYS621  CYS622 
 ASP623  PHE694  ASN695  SER759  ASP760  ASP761  ALA762  ILE779  LEU786  VAL792 
 PHE793  MET794  SER795  GLU796  ALA797  LYS798  CYS799  TRP800  GLU811  SER814 

> <Gold.Protein.RotatedAtoms>
  152.2425  133.5147  159.5277 H   0  0  0  0  0  0  0  0  0  0  0  0  # atno 6907 bound_to 6896
  150.7068  134.1070  159.3995 H   0  0  0  0  0  0  0  0  0  0  0  0  # atno 6908 bound_to 6896
  151.8991  135.0386  160.0555 H   0  0  0  0  0  0  0  0  0  0  0  0  # atno 6909 bound_to 6896
  145.0466  139.3918  143.5075 H   0  0  0  0  0  0  0  0  0  0  0  0  # atno 7974 bound_to 7965
  154.9403  140.3052  155.5124 H   0  0  0  0  0  0  0  0  0  0  0  0  # atno 8008 bound_to 7997
  156.2996  140.2337  156.4409 H   0  0  0  0  0  0  0  0  0  0  0  0  # atno 8009 bound_to 7997
  154.8152  140.0426  157.1360 H   0  0  0  0  0  0  0  0  0  0  0  0  # atno 8010 bound_to 7997
  140.5346  143.2319  151.7201 H   0  0  0  0  0  0  0  0  0  0  0  0  # atno 10167 bound_to 10162
  156.1407  130.6464  150.9766 H   0  0  0  0  0  0  0  0  0  0  0  0  # atno 10718 bound_to 10713
  153.3190  135.6968  153.7048 H   0  0  0  0  0  0  0  0  0  0  0  0  # atno 10763 bound_to 10752
  153.5895  135.3482  155.2906 H   0  0  0  0  0  0  0  0  0  0  0  0  # atno 10764 bound_to 10752
  154.8593  135.4314  154.2349 H   0  0  0  0  0  0  0  0  0  0  0  0  # atno 10765 bound_to 10752
  139.8781  134.9246  156.5143 H   0  0  0  0  0  0  0  0  0  0  0  0  # atno 11005 bound_to 11000
  146.3514  140.0095  142.8668 LP  0  0  0  0  0  0  0  0  0  0  0  0  # atno 17320 bound_to 7965
  145.1580  140.9658  143.4394 LP  0  0  0  0  0  0  0  0  0  0  0  0  # atno 17321 bound_to 7965
  139.4966  144.4063  152.0128 LP  0  0  0  0  0  0  0  0  0  0  0  0  # atno 17342 bound_to 10162
  140.3167  144.3475  150.6020 LP  0  0  0  0  0  0  0  0  0  0  0  0  # atno 17343 bound_to 10162
  157.6573  131.0887  150.7918 LP  0  0  0  0  0  0  0  0  0  0  0  0  # atno 17370 bound_to 10713
  156.7994  130.4916  149.5372 LP  0  0  0  0  0  0  0  0  0  0  0  0  # atno 17371 bound_to 10713
  140.8497  133.8141  155.9156 LP  0  0  0  0  0  0  0  0  0  0  0  0  # atno 17394 bound_to 11000
  140.9156  134.2206  157.4959 LP  0  0  0  0  0  0  0  0  0  0  0  0  # atno 17395 bound_to 11000

$$$$
