AV-unprocessed.smi:2634|AV-procd|sdf|10254|dock5
  -GOLD-   2272014263D 1   1.00000     0.00000
 Structure written by MMmdl.
 27 28  0  0  0  0  0  0  0  0  2 V2000
  150.0789  142.2701  155.8784 N   0  0  0  0  0  0  0  0  0  0  0  0
  150.8751  142.1507  157.0191 C   0  0  0  0  0  0  0  0  0  0  0  0
  151.2242  143.1494  157.8650 N   0  3  0  0  0  0  0  0  0  0  0  0
  150.8367  144.4628  157.7277 N   0  0  0  0  0  0  0  0  0  0  0  0
  152.0319  142.6777  158.8967 C   0  0  0  0  0  0  0  0  0  0  0  0
  152.6297  143.3093  159.9839 C   0  0  0  0  0  0  0  0  0  0  0  0
  153.3977  142.4946  160.8409 C   0  0  0  0  0  0  0  0  0  0  0  0
  153.5491  141.1127  160.6031 C   0  0  0  0  0  0  0  0  0  0  0  0
  152.9398  140.4815  159.4982 C   0  0  0  0  0  0  0  0  0  0  0  0
  152.1790  141.2877  158.6518 C   0  0  0  0  0  0  0  0  0  0  0  0
  151.4460  141.0047  157.4805 N   0  0  0  0  0  0  0  0  0  0  0  0
  151.4091  139.6323  156.9607 C   0  0  0  0  0  0  0  0  0  0  0  0
  152.0300  139.5356  155.5604 C   0  0  0  0  0  0  0  0  0  0  0  0
  151.0303  139.7318  154.5853 O   0  0  0  0  0  0  0  0  0  0  0  0
  149.6850  143.1573  155.5993 H   0  0  0  0  0  0  0  0  0  0  0  0
  150.4912  144.7697  158.6260 H   0  0  0  0  0  0  0  0  0  0  0  0
  150.0617  144.4821  157.0799 H   0  0  0  0  0  0  0  0  0  0  0  0
  152.5156  144.3677  160.1678 H   0  0  0  0  0  0  0  0  0  0  0  0
  153.8813  142.9390  161.6988 H   0  0  0  0  0  0  0  0  0  0  0  0
  154.1468  140.5233  161.2834 H   0  0  0  0  0  0  0  0  0  0  0  0
  153.0659  139.4223  159.3282 H   0  0  0  0  0  0  0  0  0  0  0  0
  151.9187  138.9760  157.6674 H   0  0  0  0  0  0  0  0  0  0  0  0
  150.3664  139.3136  156.9361 H   0  0  0  0  0  0  0  0  0  0  0  0
  152.8068  140.2900  155.4305 H   0  0  0  0  0  0  0  0  0  0  0  0
  152.4910  138.5599  155.4040 H   0  0  0  0  0  0  0  0  0  0  0  0
  150.1842  139.6708  155.0026 H   0  0  0  0  0  0  0  0  0  0  0  0
  149.8596  141.4711  155.3007 H   0  0  0  0  0  0  0  0  0  0  0  0
  1  2  1  0  0  0  0
  1 15  1  0  0  0  0
  1 27  1  0  0  0  0
  2 11  1  0  0  0  0
  2  3  2  0  0  0  0
  3  4  1  0  0  0  0
  3  5  1  0  0  0  0
  4 16  1  0  0  0  0
  4 17  1  0  0  0  0
  5 10  2  0  0  0  0
  5  6  1  0  0  0  0
  6  7  2  0  0  0  0
  6 18  1  0  0  0  0
  7  8  1  0  0  0  0
  7 19  1  0  0  0  0
  8  9  2  0  0  0  0
  8 20  1  0  0  0  0
  9 10  1  0  0  0  0
  9 21  1  0  0  0  0
 10 11  1  0  0  0  0
 11 12  1  0  0  0  0
 12 13  1  0  0  0  0
 12 22  1  0  0  0  0
 12 23  1  0  0  0  0
 13 14  1  0  0  0  0
 13 24  1  0  0  0  0
 13 25  1  0  0  0  0
 14 26  1  0  0  0  0
M  CHG  1   3   1
M  END
> <s_m_source_file>
AV-unprocessed.smi

> <i_m_source_file_index>
2634

> <i_lp_mmshare_version>
43012

> <i_f3d_flags>
0

> <s_epik_input>
W05IMl1uMS9jKD1OXFtIXSluKFtDSDJdW0NIMl1bT0hdKWMoYzEyKVtjSF1bY0hdW2NIXVtjSF0y

> <s_epik_cmdline>
J2VwaWtfcHl0aG9uJywgJy1waCcsICc3LjAnLCAnLXRuJywgJzgnLCAnLW1hJywgJzIwMCcsICctbWV0YWxfYmluZGluZycsICctaW1hZScsICc8aW5maWxlLm1hZT4nLCAnLW9tYWUnLCAnPG91dGZpbGUubWFlPic=

> <r_lp_tautomer_probability>
1

> <r_epik_Ionization_Penalty>
1.24644e-06

> <r_epik_Ionization_Penalty_Charging>
0

> <r_epik_Ionization_Penalty_Neutral>
1.24644e-06

> <r_epik_State_Penalty>
-0

> <r_epik_Charging_Adjusted_Penalty>
0

> <i_epik_Tot_Q>
1

> <i_epik_Tot_abs_Q>
1

> <r_epik_Metal_State_Penalty>
-0

> <b_epik_Metal_Only>
0

> <s_lp_Force_Field>
OPLS_2005

> <r_lp_Energy>
25.9386

> <b_lp_Chiralities_Consistent>
1

> <s_lp_Variant>
AV-unprocessed.smi:2634-1

> <Gold.Version>
5.8.1

> <Gold.Id.Protein>
6NUR|6NUR_protein|mol2

> <Gold.PLP.Fitness>
45.9024

> <Gold.PLP.PLP>
-34.2959

> <Gold.PLP.part.hbond>
-3.0699

> <Gold.PLP.part.metal>
0.0000

> <Gold.PLP.part.buried>
-5.3573

> <Gold.PLP.part.nonpolar>
-26.6802

> <Gold.PLP.part.repulsive>
0.1429

> <Gold.PLP.ligand.clash>
0.0000

> <Gold.PLP.ligand.torsion>
0.1968

> <Gold.PLP.Chemscore.Hbond>
4.0000

> <Gold.PLP.Chemscore.CHOScore>
0.0000

> <Gold.PLP.Chemscore.Metal>
0.0000

> <Gold.Chemscore.Hbonds>
donor molecule, donor type, donor heavy atom, donor atom, acceptor molecule, acceptor atom, score
      L1  H     1    15       P1  8028  2.00
      L1  H     4    17       P1  8028  1.00
      P1  H  7989  7998       L1    14  1.00

> <Gold.PLP.Chemscore.Internal.Correction>
0.0002

> <Gold.Rescore>
     Score         DG    S(hbond)    S(metal)    S(lipo)     H(rot)  DE(clash)    DE(int)     intcor
     17.77     -18.04       2.74        0.00      72.14       1.96       0.00       0.27       ----

> <Gold.Chemscore.Fitness>
17.7717

> <Gold.Chemscore.DG>
-18.0433

> <Gold.Chemscore.ZeroCoef>
-5.4800

> <Gold.Chemscore.Hbond>
2.7400

> <Gold.Chemscore.Metal>
0.0000

> <Gold.Chemscore.Lipo>
72.1377

> <Gold.Chemscore.Internal_Hbond>
0.0000

> <Gold.Chemscore.DEClash>
0.0038

> <Gold.Chemscore.DEInternal>
0.2678

> <Gold.Chemscore.Rot>
1.9643

> <Gold.Chemscore.Internal.Correction>
   9.000000E+99

> <Gold.Chemscore.Hbonds>
donor molecule, donor type, donor heavy atom, donor atom, acceptor molecule, acceptor atom, score
      L1  H     1    15       P1  8028  1.00
      L1  H     4    17       P1  8028  0.55
      P1  H  7989  7998       L1    14  0.60

> <Gold.Chemscore.Hbond.Weighted>
-9.1517

> <Gold.Chemscore.Metal.Weighted>
-0.0000

> <Gold.Chemscore.Lipo.Weighted>
-8.4401

> <Gold.Chemscore.Internal_Hbond.Weighted>
0.0000

> <Gold.Chemscore.DEClash.Weighted>
0.0038

> <Gold.Chemscore.DEInternal.Weighted>
0.2678

> <Gold.Chemscore.Rot.Weighted>
5.0285

> <Gold.Chemscore.Internal.Correction.Weighted>
   9.000000E+99

> <Gold.Protein.RotatedTorsions>
[ 6907 6896 6895 6894 ] final  143.21 input  -60.11 | X-H torsion
[ 7974 7965 7964 7962 ] final  -13.20 input  175.53 | X-H torsion
[ 8008 7997 7996 7995 ] final -133.83 input   59.86 | X-H torsion
[ 10167 10162 10161 10158 ] final  -88.11 input  -65.29 | X-H torsion
[ 10718 10713 10712 10709 ] final  125.42 input   66.30 | X-H torsion
[ 10763 10752 10751 10750 ] final  -56.82 input  -60.55 | X-H torsion
[ 11005 11000 10999 10996 ] final   81.02 input  -57.11 | X-H torsion

> <Gold.Protein.ActiveResidues>
 VAL166  LYS551  ARG553  GLY616  TRP617  ASP618  TYR619  PRO620  LYS621  CYS622 
 ASP623  PHE694  ASN695  SER759  ASP760  ASP761  ALA762  ILE779  LEU786  VAL792 
 PHE793  MET794  SER795  GLU796  ALA797  LYS798  CYS799  TRP800  GLU811  SER814 

> <Gold.Protein.RotatedAtoms>
  152.2091  133.4898  159.5100 H   0  0  0  0  0  0  0  0  0  0  0  0  # atno 6907 bound_to 6896
  150.6986  134.1490  159.4142 H   0  0  0  0  0  0  0  0  0  0  0  0  # atno 6908 bound_to 6896
  151.9409  135.0213  160.0586 H   0  0  0  0  0  0  0  0  0  0  0  0  # atno 6909 bound_to 6896
  146.2123  140.3168  142.8387 H   0  0  0  0  0  0  0  0  0  0  0  0  # atno 7974 bound_to 7965
  155.3520  140.0478  157.3046 H   0  0  0  0  0  0  0  0  0  0  0  0  # atno 8008 bound_to 7997
  154.5222  140.2229  155.8919 H   0  0  0  0  0  0  0  0  0  0  0  0  # atno 8009 bound_to 7997
  156.1702  140.3097  155.8966 H   0  0  0  0  0  0  0  0  0  0  0  0  # atno 8010 bound_to 7997
  140.3779  143.2762  151.9420 H   0  0  0  0  0  0  0  0  0  0  0  0  # atno 10167 bound_to 10162
  157.5504  131.1094  150.8711 H   0  0  0  0  0  0  0  0  0  0  0  0  # atno 10718 bound_to 10713
  154.2126  135.6392  153.5120 H   0  0  0  0  0  0  0  0  0  0  0  0  # atno 10763 bound_to 10752
  152.9986  135.5477  154.6199 H   0  0  0  0  0  0  0  0  0  0  0  0  # atno 10764 bound_to 10752
  154.5639  135.2911  155.0866 H   0  0  0  0  0  0  0  0  0  0  0  0  # atno 10765 bound_to 10752
  139.9113  134.7965  156.1986 H   0  0  0  0  0  0  0  0  0  0  0  0  # atno 11005 bound_to 11000
  144.8949  140.7570  143.5903 LP  0  0  0  0  0  0  0  0  0  0  0  0  # atno 17320 bound_to 7965
  145.3092  139.1824  143.4648 LP  0  0  0  0  0  0  0  0  0  0  0  0  # atno 17321 bound_to 7965
  139.4798  144.5846  151.7875 LP  0  0  0  0  0  0  0  0  0  0  0  0  # atno 17342 bound_to 10162
  140.4967  144.1230  150.5962 LP  0  0  0  0  0  0  0  0  0  0  0  0  # atno 17343 bound_to 10162
  156.9238  130.5324  149.5279 LP  0  0  0  0  0  0  0  0  0  0  0  0  # atno 17370 bound_to 10713
  156.0572  130.5631  150.9116 LP  0  0  0  0  0  0  0  0  0  0  0  0  # atno 17371 bound_to 10713
  141.0539  133.6875  156.1823 LP  0  0  0  0  0  0  0  0  0  0  0  0  # atno 17394 bound_to 11000
  140.6768  134.4810  157.5588 LP  0  0  0  0  0  0  0  0  0  0  0  0  # atno 17395 bound_to 11000

$$$$
