AV-unprocessed.smi:1846|AV-procd|sdf|7514|dock8
  -GOLD-   22720 9223D 1   1.00000     0.00000
 Structure written by MMmdl.
 37 38  0  0  0  0  0  0  0  0  1 V2000
  150.9251  145.0794  159.2608 C   0  0  0  0  0  0  0  0  0  0  0  0
  152.3670  144.5727  159.1105 C   0  0  0  0  0  0  0  0  0  0  0  0
  152.4200  143.1106  158.9665 N   0  0  0  0  0  0  0  0  0  0  0  0
  153.2150  142.4259  159.9956 C   0  0  0  0  0  0  0  0  0  0  0  0
  152.7039  142.7396  161.4103 C   0  0  0  0  0  0  0  0  0  0  0  0
  151.7664  142.4805  157.9572 C   0  0  0  0  0  0  0  0  0  0  0  0
  151.1223  143.1063  157.1119 O   0  0  0  0  0  0  0  0  0  0  0  0
  151.8073  140.9400  157.8806 C   0  0  0  0  0  0  0  0  0  0  0  0
  151.1776  140.4185  156.6189 C   0  0  0  0  0  0  0  0  0  0  0  0
  151.6719  139.4382  155.7932 C   0  0  0  0  0  0  0  0  0  0  0  0
  150.6174  139.1300  154.4411 S   0  0  0  0  0  0  0  0  0  0  0  0
  149.5255  140.3763  155.0522 C   0  0  0  0  0  0  0  0  0  0  0  0
  148.2937  140.7868  154.4617 N   0  0  0  0  0  0  0  0  0  0  0  0
  147.7527  142.1262  154.6697 C   0  0  0  0  0  0  0  0  0  0  0  0
  146.4573  142.1267  153.8643 C   0  0  0  0  0  0  0  0  0  0  0  0
  146.4381  140.7898  153.3190 N   0  0  0  0  0  0  0  0  0  0  0  0
  147.4892  140.0471  153.6729 C   0  0  0  0  0  0  0  0  0  0  0  0
  147.6583  138.8824  153.3173 O   0  0  0  0  0  0  0  0  0  0  0  0
  149.9609  140.9501  156.1787 N   0  0  0  0  0  0  0  0  0  0  0  0
  150.9074  146.1627  159.3801 H   0  0  0  0  0  0  0  0  0  0  0  0
  150.4443  144.6415  160.1359 H   0  0  0  0  0  0  0  0  0  0  0  0
  150.3200  144.8344  158.3877 H   0  0  0  0  0  0  0  0  0  0  0  0
  152.8412  145.0545  158.2539 H   0  0  0  0  0  0  0  0  0  0  0  0
  152.9534  144.8900  159.9739 H   0  0  0  0  0  0  0  0  0  0  0  0
  153.1787  141.3477  159.8320 H   0  0  0  0  0  0  0  0  0  0  0  0
  154.2718  142.6798  159.9123 H   0  0  0  0  0  0  0  0  0  0  0  0
  153.3057  142.2253  162.1599 H   0  0  0  0  0  0  0  0  0  0  0  0
  151.6715  142.4124  161.5356 H   0  0  0  0  0  0  0  0  0  0  0  0
  152.7409  143.8055  161.6326 H   0  0  0  0  0  0  0  0  0  0  0  0
  152.8348  140.5843  157.9407 H   0  0  0  0  0  0  0  0  0  0  0  0
  151.2879  140.5382  158.7511 H   0  0  0  0  0  0  0  0  0  0  0  0
  152.5864  138.8746  155.9030 H   0  0  0  0  0  0  0  0  0  0  0  0
  147.5632  142.3055  155.7291 H   0  0  0  0  0  0  0  0  0  0  0  0
  148.4483  142.8841  154.3069 H   0  0  0  0  0  0  0  0  0  0  0  0
  145.5832  142.2982  154.4934 H   0  0  0  0  0  0  0  0  0  0  0  0
  146.4717  142.8677  153.0642 H   0  0  0  0  0  0  0  0  0  0  0  0
  145.6901  140.4576  152.7273 H   0  0  0  0  0  0  0  0  0  0  0  0
  1  2  1  0  0  0  0
  1 20  1  0  0  0  0
  1 21  1  0  0  0  0
  1 22  1  0  0  0  0
  2  3  1  0  0  0  0
  2 23  1  0  0  0  0
  2 24  1  0  0  0  0
  3  4  1  0  0  0  0
  3  6  1  0  0  0  0
  4  5  1  0  0  0  0
  4 25  1  0  0  0  0
  4 26  1  0  0  0  0
  5 27  1  0  0  0  0
  5 28  1  0  0  0  0
  5 29  1  0  0  0  0
  6  7  2  0  0  0  0
  6  8  1  0  0  0  0
  8  9  1  0  0  0  0
  8 30  1  0  0  0  0
  8 31  1  0  0  0  0
  9 19  1  0  0  0  0
  9 10  2  0  0  0  0
 10 11  1  0  0  0  0
 10 32  1  0  0  0  0
 11 12  1  0  0  0  0
 12 13  1  0  0  0  0
 12 19  2  0  0  0  0
 13 17  1  0  0  0  0
 13 14  1  0  0  0  0
 14 15  1  0  0  0  0
 14 33  1  0  0  0  0
 14 34  1  0  0  0  0
 15 16  1  0  0  0  0
 15 35  1  0  0  0  0
 15 36  1  0  0  0  0
 16 17  1  0  0  0  0
 16 37  1  0  0  0  0
 17 18  2  0  0  0  0
M  END
> <s_m_source_file>
AV-unprocessed.smi

> <i_m_source_file_index>
1846

> <i_lp_mmshare_version>
43012

> <i_f3d_flags>
0

> <s_epik_input>
W0NIM11bQ0gyXU4oW0NIMl1bQ0gzXSlDKD1PKVtDSDJdYzFbY0hdc2MobjEpTjJbQ0gyXVtDSDJdW05IXUMyPU8=

> <s_epik_cmdline>
J2VwaWtfcHl0aG9uJywgJy1waCcsICc3LjAnLCAnLXRuJywgJzgnLCAnLW1hJywgJzIwMCcsICctbWV0YWxfYmluZGluZycsICctaW1hZScsICc8aW5maWxlLm1hZT4nLCAnLW9tYWUnLCAnPG91dGZpbGUubWFlPic=

> <r_lp_tautomer_probability>
1

> <r_epik_Ionization_Penalty>
0.000125664

> <r_epik_Ionization_Penalty_Charging>
0

> <r_epik_Ionization_Penalty_Neutral>
0.000125664

> <r_epik_State_Penalty>
-0

> <r_epik_Charging_Adjusted_Penalty>
0

> <i_epik_Tot_Q>
0

> <i_epik_Tot_abs_Q>
0

> <r_epik_Metal_State_Penalty>
-0

> <b_epik_Metal_Only>
0

> <s_lp_Force_Field>
OPLS_2005

> <r_lp_Energy>
40.7708

> <b_lp_Chiralities_Consistent>
1

> <s_lp_Variant>
AV-unprocessed.smi:1846-1

> <Gold.Version>
5.8.1

> <Gold.Id.Protein>
6NUR|6NUR_protein|mol2

> <Gold.PLP.Fitness>
46.2235

> <Gold.PLP.PLP>
-44.6145

> <Gold.PLP.part.hbond>
-1.0000

> <Gold.PLP.part.metal>
0.0000

> <Gold.PLP.part.buried>
-3.8276

> <Gold.PLP.part.nonpolar>
-40.7890

> <Gold.PLP.part.repulsive>
1.0186

> <Gold.PLP.ligand.clash>
0.0000

> <Gold.PLP.ligand.torsion>
0.5512

> <Gold.PLP.Chemscore.Hbond>
0.8960

> <Gold.PLP.Chemscore.CHOScore>
0.0000

> <Gold.PLP.Chemscore.Metal>
0.0000

> <Gold.Chemscore.Hbonds>
donor molecule, donor type, donor heavy atom, donor atom, acceptor molecule, acceptor atom, score
      L1  H    16    37       P1 10175  0.88

> <Gold.PLP.Chemscore.Internal.Correction>
0.0236

> <Gold.Rescore>
     Score         DG    S(hbond)    S(metal)    S(lipo)     H(rot)  DE(clash)    DE(int)     intcor
     12.33     -14.21       0.97        0.00      83.30       1.66       0.00       1.88       ----

> <Gold.Chemscore.Fitness>
12.3325

> <Gold.Chemscore.DG>
-14.2132

> <Gold.Chemscore.ZeroCoef>
-5.4800

> <Gold.Chemscore.Hbond>
0.9677

> <Gold.Chemscore.Metal>
0.0000

> <Gold.Chemscore.Lipo>
83.2970

> <Gold.Chemscore.Internal_Hbond>
0.0000

> <Gold.Chemscore.DEClash>
0.0004

> <Gold.Chemscore.DEInternal>
1.8802

> <Gold.Chemscore.Rot>
1.6581

> <Gold.Chemscore.Internal.Correction>
   9.000000E+99

> <Gold.Chemscore.Hbonds>
donor molecule, donor type, donor heavy atom, donor atom, acceptor molecule, acceptor atom, score
      L1  H    16    37       P1 10175  0.57

> <Gold.Chemscore.Hbond.Weighted>
-3.2321

> <Gold.Chemscore.Metal.Weighted>
-0.0000

> <Gold.Chemscore.Lipo.Weighted>
-9.7457

> <Gold.Chemscore.Internal_Hbond.Weighted>
0.0000

> <Gold.Chemscore.DEClash.Weighted>
0.0004

> <Gold.Chemscore.DEInternal.Weighted>
1.8802

> <Gold.Chemscore.Rot.Weighted>
4.2447

> <Gold.Chemscore.Internal.Correction.Weighted>
   9.000000E+99

> <Gold.Protein.RotatedTorsions>
[ 6907 6896 6895 6894 ] final   73.18 input  -60.11 | X-H torsion
[ 7974 7965 7964 7962 ] final -114.36 input  175.53 | X-H torsion
[ 8008 7997 7996 7995 ] final  141.61 input   59.86 | X-H torsion
[ 10167 10162 10161 10158 ] final -154.19 input  -65.29 | X-H torsion
[ 10718 10713 10712 10709 ] final -160.89 input   66.30 | X-H torsion
[ 10763 10752 10751 10750 ] final  -44.76 input  -60.55 | X-H torsion
[ 11005 11000 10999 10996 ] final -133.56 input  -57.11 | X-H torsion

> <Gold.Protein.ActiveResidues>
 VAL166  LYS551  ARG553  GLY616  TRP617  ASP618  TYR619  PRO620  LYS621  CYS622 
 ASP623  PHE694  ASN695  SER759  ASP760  ASP761  ALA762  ILE779  LEU786  VAL792 
 PHE793  MET794  SER795  GLU796  ALA797  LYS798  CYS799  TRP800  GLU811  SER814 

> <Gold.Protein.RotatedAtoms>
  152.4909  134.4459  159.9558 H   0  0  0  0  0  0  0  0  0  0  0  0  # atno 6907 bound_to 6896
  151.4447  133.3628  159.2794 H   0  0  0  0  0  0  0  0  0  0  0  0  # atno 6908 bound_to 6896
  150.9063  134.8502  159.7455 H   0  0  0  0  0  0  0  0  0  0  0  0  # atno 6909 bound_to 6896
  145.1211  140.8669  143.3813 H   0  0  0  0  0  0  0  0  0  0  0  0  # atno 7974 bound_to 7965
  156.2963  140.2310  156.4593 H   0  0  0  0  0  0  0  0  0  0  0  0  # atno 8008 bound_to 7997
  154.8032  140.0447  157.1309 H   0  0  0  0  0  0  0  0  0  0  0  0  # atno 8009 bound_to 7997
  154.9509  140.3042  155.5079 H   0  0  0  0  0  0  0  0  0  0  0  0  # atno 8010 bound_to 7997
  139.7034  143.9226  152.2438 H   0  0  0  0  0  0  0  0  0  0  0  0  # atno 10167 bound_to 10162
  156.5886  130.8760  151.2884 H   0  0  0  0  0  0  0  0  0  0  0  0  # atno 10718 bound_to 10713
  154.0173  135.6674  153.4770 H   0  0  0  0  0  0  0  0  0  0  0  0  # atno 10763 bound_to 10752
  153.0595  135.5036  154.8056 H   0  0  0  0  0  0  0  0  0  0  0  0  # atno 10764 bound_to 10752
  154.6959  135.3070  154.9377 H   0  0  0  0  0  0  0  0  0  0  0  0  # atno 10765 bound_to 10752
  140.9070  134.1617  157.4418 H   0  0  0  0  0  0  0  0  0  0  0  0  # atno 11005 bound_to 11000
  145.0740  139.3010  143.5817 LP  0  0  0  0  0  0  0  0  0  0  0  0  # atno 17320 bound_to 7965
  146.3521  140.0224  142.8657 LP  0  0  0  0  0  0  0  0  0  0  0  0  # atno 17321 bound_to 7965
  139.9075  144.6876  150.8598 LP  0  0  0  0  0  0  0  0  0  0  0  0  # atno 17342 bound_to 10162
  140.7715  143.3468  151.2095 LP  0  0  0  0  0  0  0  0  0  0  0  0  # atno 17343 bound_to 10162
  157.7309  130.9692  150.1856 LP  0  0  0  0  0  0  0  0  0  0  0  0  # atno 17370 bound_to 10713
  156.2570  130.3706  149.8171 LP  0  0  0  0  0  0  0  0  0  0  0  0  # atno 17371 bound_to 10713
  139.8751  134.9921  156.5579 LP  0  0  0  0  0  0  0  0  0  0  0  0  # atno 17394 bound_to 11000
  140.8158  133.8392  155.8851 LP  0  0  0  0  0  0  0  0  0  0  0  0  # atno 17395 bound_to 11000

$$$$
