AV-unprocessed.smi:2008|AV-procd|sdf|8141|dock4
  -GOLD-   2272010373D 1   1.00000     0.00000
 Structure written by MMmdl.
 46 47  0  0  0  0  0  0  0  0  2 V2000
  152.3768  140.6929  159.4318 C   0  0  0  0  0  0  0  0  0  0  0  0
  152.9189  140.3230  158.1687 O   0  0  0  0  0  0  0  0  0  0  0  0
  152.0510  140.1366  157.1125 C   0  0  0  0  0  0  0  0  0  0  0  0
  150.7357  140.6284  157.2258 C   0  0  0  0  0  0  0  0  0  0  0  0
  149.8423  140.4399  156.1538 C   0  0  0  0  0  0  0  0  0  0  0  0
  150.2974  139.7698  154.9929 C   0  0  0  0  0  0  0  0  0  0  0  0
  149.4960  139.4990  153.8500 N   0  0  0  0  0  0  0  0  0  0  0  0
  148.2095  139.1138  153.7931 C   0  0  0  0  0  0  0  0  0  0  0  0
  147.4663  138.9539  154.7608 O   0  0  0  0  0  0  0  0  0  0  0  0
  147.8130  138.9290  152.5257 N   0  0  0  0  0  0  0  0  0  0  0  0
  146.4742  138.5080  152.1291 C   0  0  0  0  0  0  0  0  0  0  0  0
  145.9606  137.3577  153.0181 C   0  0  0  0  0  0  0  0  0  0  0  0
  146.1153  136.0270  152.3648 N   0  3  2  0  0  0  0  0  0  0  0  0
  145.0885  135.8420  151.2985 C   0  0  0  0  0  0  0  0  0  0  0  0
  145.2952  134.5408  150.5134 C   0  0  0  0  0  0  0  0  0  0  0  0
  145.2680  133.3419  151.4603 C   0  0  0  0  0  0  0  0  0  0  0  0
  146.3285  133.5347  152.5464 C   0  0  0  0  0  0  0  0  0  0  0  0
  146.1520  134.8654  153.3137 C   0  0  1  0  0  0  0  0  0  0  0  0
  147.2850  134.9699  154.3575 C   0  0  0  0  0  0  0  0  0  0  0  0
  151.6303  139.3087  154.9841 C   0  0  0  0  0  0  0  0  0  0  0  0
  152.4912  139.4847  156.0083 N   0  0  0  0  0  0  0  0  0  0  0  0
  153.1859  140.7986  160.1542 H   0  0  0  0  0  0  0  0  0  0  0  0
  151.6918  139.9335  159.8114 H   0  0  0  0  0  0  0  0  0  0  0  0
  151.8559  141.6498  159.3766 H   0  0  0  0  0  0  0  0  0  0  0  0
  150.4150  141.1373  158.1228 H   0  0  0  0  0  0  0  0  0  0  0  0
  148.8311  140.8010  156.2540 H   0  0  0  0  0  0  0  0  0  0  0  0
  149.9510  139.6533  152.9621 H   0  0  0  0  0  0  0  0  0  0  0  0
  148.4821  139.0902  151.7868 H   0  0  0  0  0  0  0  0  0  0  0  0
  145.8089  139.3710  152.1526 H   0  0  0  0  0  0  0  0  0  0  0  0
  146.5167  138.1803  151.0900 H   0  0  0  0  0  0  0  0  0  0  0  0
  146.5168  137.4171  153.9493 H   0  0  0  0  0  0  0  0  0  0  0  0
  144.9150  137.5078  153.2917 H   0  0  0  0  0  0  0  0  0  0  0  0
  144.0942  135.8445  151.7485 H   0  0  0  0  0  0  0  0  0  0  0  0
  145.1113  136.6738  150.5959 H   0  0  0  0  0  0  0  0  0  0  0  0
  144.5176  134.4342  149.7565 H   0  0  0  0  0  0  0  0  0  0  0  0
  146.2463  134.5752  149.9802 H   0  0  0  0  0  0  0  0  0  0  0  0
  144.2809  133.2451  151.9144 H   0  0  0  0  0  0  0  0  0  0  0  0
  145.4536  132.4195  150.9093 H   0  0  0  0  0  0  0  0  0  0  0  0
  146.2862  132.6938  153.2399 H   0  0  0  0  0  0  0  0  0  0  0  0
  147.3188  133.5030  152.0892 H   0  0  0  0  0  0  0  0  0  0  0  0
  145.1984  134.8318  153.8432 H   0  0  0  0  0  0  0  0  0  0  0  0
  147.3964  134.0326  154.9035 H   0  0  0  0  0  0  0  0  0  0  0  0
  147.0970  135.7304  155.1137 H   0  0  0  0  0  0  0  0  0  0  0  0
  148.2434  135.1865  153.8848 H   0  0  0  0  0  0  0  0  0  0  0  0
  152.0220  138.7819  154.1261 H   0  0  0  0  0  0  0  0  0  0  0  0
  147.0158  136.0363  151.9075 H   0  0  0  0  0  0  0  0  0  0  0  0
  1  2  1  0  0  0  0
  1 22  1  0  0  0  0
  1 23  1  0  0  0  0
  1 24  1  0  0  0  0
  2  3  1  0  0  0  0
  3 21  1  0  0  0  0
  3  4  2  0  0  0  0
  4  5  1  0  0  0  0
  4 25  1  0  0  0  0
  5  6  2  0  0  0  0
  5 26  1  0  0  0  0
  6  7  1  0  0  0  0
  6 20  1  0  0  0  0
  7  8  1  0  0  0  0
  7 27  1  0  0  0  0
  8  9  2  0  0  0  0
  8 10  1  0  0  0  0
 10 11  1  0  0  0  0
 10 28  1  0  0  0  0
 11 12  1  0  0  0  0
 11 29  1  0  0  0  0
 11 30  1  0  0  0  0
 12 13  1  0  0  0  0
 12 31  1  0  0  0  0
 12 32  1  0  0  0  0
 13 18  1  0  0  0  0
 13 14  1  0  0  0  0
 13 46  1  0  0  0  0
 14 15  1  0  0  0  0
 14 33  1  0  0  0  0
 14 34  1  0  0  0  0
 15 16  1  0  0  0  0
 15 35  1  0  0  0  0
 15 36  1  0  0  0  0
 16 17  1  0  0  0  0
 16 37  1  0  0  0  0
 16 38  1  0  0  0  0
 17 18  1  0  0  0  0
 17 39  1  0  0  0  0
 17 40  1  0  0  0  0
 18 19  1  0  0  0  0
 18 41  1  0  0  0  0
 19 42  1  0  0  0  0
 19 43  1  0  0  0  0
 19 44  1  0  0  0  0
 20 21  2  0  0  0  0
 20 45  1  0  0  0  0
M  CHG  1  13   1
M  END
> <s_m_source_file>
AV-unprocessed.smi

> <i_m_source_file_index>
2008

> <i_lp_mmshare_version>
43012

> <i_f3d_flags>
0

> <s_epik_input>
W0NIM11PYzFbY0hdW2NIXWMoW2NIXW4xKVtOSF1DKD1PKVtOSF1bQ0gyXVtDSDJdTjJbQ0gyXVtDSDJdW0NIMl1bQ0gyXVtDQEhdMltDSDNd

> <s_epik_cmdline>
J2VwaWtfcHl0aG9uJywgJy1waCcsICc3LjAnLCAnLXRuJywgJzgnLCAnLW1hJywgJzIwMCcsICctbWV0YWxfYmluZGluZycsICctaW1hZScsICc8aW5maWxlLm1hZT4nLCAnLW9tYWUnLCAnPG91dGZpbGUubWFlPic=

> <r_lp_tautomer_probability>
1

> <r_epik_Ionization_Penalty>
0.00219526

> <r_epik_Ionization_Penalty_Charging>
0.00211816

> <r_epik_Ionization_Penalty_Neutral>
7.71003e-05

> <r_epik_State_Penalty>
0.00145254

> <r_epik_Charging_Adjusted_Penalty>
0.0035707

> <i_epik_Tot_Q>
1

> <i_epik_Tot_abs_Q>
1

> <r_epik_Metal_State_Penalty>
-0

> <b_epik_Metal_Only>
0

> <s_lp_Force_Field>
OPLS_2005

> <r_lp_Energy>
23.4607

> <b_lp_Chiralities_Consistent>
1

> <s_lp_Variant>
AV-unprocessed.smi:2008-1

> <Gold.Version>
5.8.1

> <Gold.Id.Protein>
6NUR|6NUR_protein|mol2

> <Gold.PLP.Fitness>
46.7922

> <Gold.PLP.PLP>
-34.2188

> <Gold.PLP.part.hbond>
-5.9615

> <Gold.PLP.part.metal>
0.0000

> <Gold.PLP.part.buried>
-0.9954

> <Gold.PLP.part.nonpolar>
-26.7544

> <Gold.PLP.part.repulsive>
0.2854

> <Gold.PLP.ligand.clash>
0.0000

> <Gold.PLP.ligand.torsion>
1.0682

> <Gold.PLP.Chemscore.Hbond>
4.8800

> <Gold.PLP.Chemscore.CHOScore>
0.0000

> <Gold.PLP.Chemscore.Metal>
0.0000

> <Gold.Chemscore.Hbonds>
donor molecule, donor type, donor heavy atom, donor atom, acceptor molecule, acceptor atom, score
      L1  H     7    27       P1  7957  0.86
      L1  H    10    28       P1  7957  0.99
      L1  H    13    46       P1  7948  2.00
      P1  H  7997  8008       L1    21  0.91

> <Gold.PLP.Chemscore.Internal.Correction>
0.0698

> <Gold.Rescore>
     Score         DG    S(hbond)    S(metal)    S(lipo)     H(rot)  DE(clash)    DE(int)     intcor
     18.05     -20.62       3.41        0.00      69.59       1.71       0.25       2.32       ----

> <Gold.Chemscore.Fitness>
18.0520

> <Gold.Chemscore.DG>
-20.6220

> <Gold.Chemscore.ZeroCoef>
-5.4800

> <Gold.Chemscore.Hbond>
3.4069

> <Gold.Chemscore.Metal>
0.0000

> <Gold.Chemscore.Lipo>
69.5922

> <Gold.Chemscore.Internal_Hbond>
0.0000

> <Gold.Chemscore.DEClash>
0.2533

> <Gold.Chemscore.DEInternal>
2.3167

> <Gold.Chemscore.Rot>
1.7107

> <Gold.Chemscore.Internal.Correction>
   9.000000E+99

> <Gold.Chemscore.Hbonds>
donor molecule, donor type, donor heavy atom, donor atom, acceptor molecule, acceptor atom, score
      L1  H     7    27       P1  7957  0.85
      L1  H    10    28       P1  7957  0.86
      L1  H    13    46       P1  7948  0.98
      P1  H  7997  8008       L1    21  0.19

> <Gold.Chemscore.Hbond.Weighted>
-11.3792

> <Gold.Chemscore.Metal.Weighted>
-0.0000

> <Gold.Chemscore.Lipo.Weighted>
-8.1423

> <Gold.Chemscore.Internal_Hbond.Weighted>
0.0000

> <Gold.Chemscore.DEClash.Weighted>
0.2533

> <Gold.Chemscore.DEInternal.Weighted>
2.3167

> <Gold.Chemscore.Rot.Weighted>
4.3794

> <Gold.Chemscore.Internal.Correction.Weighted>
   9.000000E+99

> <Gold.Protein.RotatedTorsions>
[ 6907 6896 6895 6894 ] final -135.80 input  -60.11 | X-H torsion
[ 7974 7965 7964 7962 ] final    6.47 input  175.53 | X-H torsion
[ 8008 7997 7996 7995 ] final  -19.63 input   59.86 | X-H torsion
[ 10167 10162 10161 10158 ] final -119.67 input  -65.29 | X-H torsion
[ 10718 10713 10712 10709 ] final -112.92 input   66.30 | X-H torsion
[ 10763 10752 10751 10750 ] final   49.60 input  -60.55 | X-H torsion
[ 11005 11000 10999 10996 ] final -130.24 input  -57.11 | X-H torsion

> <Gold.Protein.ActiveResidues>
 VAL166  LYS551  ARG553  GLY616  TRP617  ASP618  TYR619  PRO620  LYS621  CYS622 
 ASP623  PHE694  ASN695  SER759  ASP760  ASP761  ALA762  ILE779  LEU786  VAL792 
 PHE793  MET794  SER795  GLU796  ALA797  LYS798  CYS799  TRP800  GLU811  SER814 

> <Gold.Protein.RotatedAtoms>
  151.0023  133.6044  159.2693 H   0  0  0  0  0  0  0  0  0  0  0  0  # atno 6907 bound_to 6896
  151.3226  135.0821  159.9320 H   0  0  0  0  0  0  0  0  0  0  0  0  # atno 6908 bound_to 6896
  152.5277  133.9668  159.7797 H   0  0  0  0  0  0  0  0  0  0  0  0  # atno 6909 bound_to 6896
  146.2434  140.0229  142.8396 H   0  0  0  0  0  0  0  0  0  0  0  0  # atno 7974 bound_to 7965
  154.4824  140.2084  155.9733 H   0  0  0  0  0  0  0  0  0  0  0  0  # atno 8008 bound_to 7997
  156.1185  140.3217  155.8143 H   0  0  0  0  0  0  0  0  0  0  0  0  # atno 8009 bound_to 7997
  155.4510  140.0517  157.2992 H   0  0  0  0  0  0  0  0  0  0  0  0  # atno 8010 bound_to 7997
  140.0441  143.5124  152.2115 H   0  0  0  0  0  0  0  0  0  0  0  0  # atno 10167 bound_to 10162
  156.0735  130.5946  150.8573 H   0  0  0  0  0  0  0  0  0  0  0  0  # atno 10718 bound_to 10713
  152.9786  135.5906  154.4116 H   0  0  0  0  0  0  0  0  0  0  0  0  # atno 10763 bound_to 10752
  154.3751  135.2767  155.2246 H   0  0  0  0  0  0  0  0  0  0  0  0  # atno 10764 bound_to 10752
  154.4184  135.6065  153.6050 H   0  0  0  0  0  0  0  0  0  0  0  0  # atno 10765 bound_to 10752
  140.9363  134.1253  157.4191 H   0  0  0  0  0  0  0  0  0  0  0  0  # atno 11005 bound_to 11000
  145.1224  140.9470  143.4592 LP  0  0  0  0  0  0  0  0  0  0  0  0  # atno 17320 bound_to 7965
  145.0468  139.3215  143.5949 LP  0  0  0  0  0  0  0  0  0  0  0  0  # atno 17321 bound_to 7965
  139.5995  144.7578  151.3206 LP  0  0  0  0  0  0  0  0  0  0  0  0  # atno 17342 bound_to 10162
  140.7247  143.7038  150.7823 LP  0  0  0  0  0  0  0  0  0  0  0  0  # atno 17343 bound_to 10162
  157.5818  131.0946  150.9258 LP  0  0  0  0  0  0  0  0  0  0  0  0  # atno 17370 bound_to 10713
  156.9452  130.5399  149.5281 LP  0  0  0  0  0  0  0  0  0  0  0  0  # atno 17371 bound_to 10713
  139.8808  135.0022  156.6111 LP  0  0  0  0  0  0  0  0  0  0  0  0  # atno 17394 bound_to 11000
  140.7795  133.8671  155.8556 LP  0  0  0  0  0  0  0  0  0  0  0  0  # atno 17395 bound_to 11000

$$$$
