AV-unprocessed.smi:61|AV-procd|sdf|596|dock1
  -GOLD-   2262016493D 1   1.00000     0.00000
 Structure written by MMmdl.
 29 30  0  0  0  0  0  0  0  0  2 V2000
  147.0110  138.2030  152.3123 N   0  0  0  0  0  0  0  0  0  0  0  0
  147.4221  139.2867  153.0510 C   0  0  0  0  0  0  0  0  0  0  0  0
  146.5598  140.2953  153.2452 N   0  3  0  0  0  0  0  0  0  0  0  0
  146.9439  141.3722  153.9738 C   0  0  0  0  0  0  0  0  0  0  0  0
  148.2378  141.4327  154.5228 C   0  0  0  0  0  0  0  0  0  0  0  0
  149.0869  140.3403  154.2751 C   0  0  0  0  0  0  0  0  0  0  0  0
  150.3889  140.3401  154.7979 N   0  0  0  0  0  0  0  0  0  0  0  0
  150.5332  141.0200  156.0821 C   0  0  0  0  0  0  0  0  0  0  0  0
  151.5248  140.1947  156.9162 C   0  0  0  0  0  0  0  0  0  0  0  0
  152.1799  139.2556  155.9062 C   0  0  0  0  0  0  0  0  0  0  0  0
  151.0471  139.0427  154.9018 C   0  0  2  0  0  0  0  0  0  0  0  0
  151.4537  138.4453  153.5391 C   0  0  0  0  0  0  0  0  0  0  0  0
  151.5570  137.0372  153.5962 O   0  0  0  0  0  0  0  0  0  0  0  0
  148.6660  139.2834  153.5430 N   0  0  0  0  0  0  0  0  0  0  0  0
  147.6382  137.4282  152.1498 H   0  0  0  0  0  0  0  0  0  0  0  0
  146.0654  138.1480  151.9626 H   0  0  0  0  0  0  0  0  0  0  0  0
  146.2032  142.1492  154.0940 H   0  0  0  0  0  0  0  0  0  0  0  0
  148.5641  142.2817  155.1061 H   0  0  0  0  0  0  0  0  0  0  0  0
  150.9359  142.0158  155.8953 H   0  0  0  0  0  0  0  0  0  0  0  0
  149.5847  141.1429  156.6071 H   0  0  0  0  0  0  0  0  0  0  0  0
  152.2480  140.8142  157.4473 H   0  0  0  0  0  0  0  0  0  0  0  0
  150.9788  139.6099  157.6579 H   0  0  0  0  0  0  0  0  0  0  0  0
  153.0313  139.7539  155.4407 H   0  0  0  0  0  0  0  0  0  0  0  0
  152.5319  138.3261  156.3542 H   0  0  0  0  0  0  0  0  0  0  0  0
  150.3409  138.3482  155.3598 H   0  0  0  0  0  0  0  0  0  0  0  0
  150.7041  138.6993  152.7893 H   0  0  0  0  0  0  0  0  0  0  0  0
  152.3995  138.8631  153.1927 H   0  0  0  0  0  0  0  0  0  0  0  0
  151.2596  136.6790  152.7737 H   0  0  0  0  0  0  0  0  0  0  0  0
  145.6182  140.2638  152.8537 H   0  0  0  0  0  0  0  0  0  0  0  0
  1  2  1  0  0  0  0
  1 15  1  0  0  0  0
  1 16  1  0  0  0  0
  2 14  1  0  0  0  0
  2  3  2  0  0  0  0
  3  4  1  0  0  0  0
  3 29  1  0  0  0  0
  4  5  2  0  0  0  0
  4 17  1  0  0  0  0
  5  6  1  0  0  0  0
  5 18  1  0  0  0  0
  6  7  1  0  0  0  0
  6 14  2  0  0  0  0
  7 11  1  0  0  0  0
  7  8  1  0  0  0  0
  8  9  1  0  0  0  0
  8 19  1  0  0  0  0
  8 20  1  0  0  0  0
  9 10  1  0  0  0  0
  9 21  1  0  0  0  0
  9 22  1  0  0  0  0
 10 11  1  0  0  0  0
 10 23  1  0  0  0  0
 10 24  1  0  0  0  0
 11 12  1  0  0  0  0
 11 25  1  0  0  0  0
 12 13  1  0  0  0  0
 12 26  1  0  0  0  0
 12 27  1  0  0  0  0
 13 28  1  0  0  0  0
M  CHG  1   3   1
M  END
> <s_m_source_file>
AV-unprocessed.smi

> <i_m_source_file_index>
61

> <i_lp_mmshare_version>
43012

> <i_f3d_flags>
0

> <s_epik_input>
W05IMl1jMW5bY0hdW2NIXWMobjEpTjJbQ0gyXVtDSDJdW0NIMl1bQ0BIXTJbQ0gyXVtPSF0=

> <s_epik_cmdline>
J2VwaWtfcHl0aG9uJywgJy1waCcsICc3LjAnLCAnLXRuJywgJzgnLCAnLW1hJywgJzIwMCcsICctbWV0YWxfYmluZGluZycsICctaW1hZScsICc8aW5maWxlLm1hZT4nLCAnLW9tYWUnLCAnPG91dGZpbGUubWFlPic=

> <r_lp_tautomer_probability>
0.575011

> <r_epik_Ionization_Penalty>
0.303659

> <r_epik_Ionization_Penalty_Charging>
0.303655

> <r_epik_Ionization_Penalty_Neutral>
4.42648e-06

> <r_epik_State_Penalty>
0.524608

> <r_epik_Charging_Adjusted_Penalty>
0.828263

> <i_epik_Tot_Q>
1

> <i_epik_Tot_abs_Q>
1

> <r_epik_Metal_State_Penalty>
0.785265

> <b_epik_Metal_Only>
0

> <s_lp_Force_Field>
OPLS_2005

> <r_lp_Energy>
35.3764

> <b_lp_Chiralities_Consistent>
1

> <s_lp_Variant>
AV-unprocessed.smi:61-2

> <Gold.Version>
5.8.1

> <Gold.Id.Protein>
6NUR|6NUR_protein|mol2

> <Gold.PLP.Fitness>
46.8239

> <Gold.PLP.PLP>
-28.1865

> <Gold.PLP.part.hbond>
-5.1598

> <Gold.PLP.part.metal>
0.0000

> <Gold.PLP.part.buried>
-4.2966

> <Gold.PLP.part.nonpolar>
-20.6514

> <Gold.PLP.part.repulsive>
1.9987

> <Gold.PLP.ligand.clash>
0.0000

> <Gold.PLP.ligand.torsion>
0.8976

> <Gold.PLP.Chemscore.Hbond>
6.7920

> <Gold.PLP.Chemscore.CHOScore>
0.0000

> <Gold.PLP.Chemscore.Metal>
0.0000

> <Gold.Chemscore.Hbonds>
donor molecule, donor type, donor heavy atom, donor atom, acceptor molecule, acceptor atom, score
      L1  H     1    15       P1  7948  2.00
      L1  H     3    29       P1 10175  2.00
      L1  H    13    28       P1  7949  0.83
      P1  H  7989  7998       L1     7  0.55
      P1  H 10752 10763       L1    13  0.60

> <Gold.PLP.Chemscore.Internal.Correction>
0.0566

> <Gold.Rescore>
     Score         DG    S(hbond)    S(metal)    S(lipo)     H(rot)  DE(clash)    DE(int)     intcor
     12.48     -16.08       2.97        0.00      49.22       1.98       1.71       1.89       ----

> <Gold.Chemscore.Fitness>
12.4840

> <Gold.Chemscore.DG>
-16.0805

> <Gold.Chemscore.ZeroCoef>
-5.4800

> <Gold.Chemscore.Hbond>
2.9702

> <Gold.Chemscore.Metal>
0.0000

> <Gold.Chemscore.Lipo>
49.2198

> <Gold.Chemscore.Internal_Hbond>
0.0000

> <Gold.Chemscore.DEClash>
1.7080

> <Gold.Chemscore.DEInternal>
1.8885

> <Gold.Chemscore.Rot>
1.9838

> <Gold.Chemscore.Internal.Correction>
   9.000000E+99

> <Gold.Chemscore.Hbonds>
donor molecule, donor type, donor heavy atom, donor atom, acceptor molecule, acceptor atom, score
      L1  H     1    15       P1  7948  1.00
      L1  H     3    29       P1 10175  0.91
      L1  H    13    28       P1  7949  0.56
      P1  H  7989  7998       L1     7  0.02
      P1  H 10752 10763       L1    13  0.36

> <Gold.Chemscore.Hbond.Weighted>
-9.9204

> <Gold.Chemscore.Metal.Weighted>
-0.0000

> <Gold.Chemscore.Lipo.Weighted>
-5.7587

> <Gold.Chemscore.Internal_Hbond.Weighted>
0.0000

> <Gold.Chemscore.DEClash.Weighted>
1.7080

> <Gold.Chemscore.DEInternal.Weighted>
1.8885

> <Gold.Chemscore.Rot.Weighted>
5.0786

> <Gold.Chemscore.Internal.Correction.Weighted>
   9.000000E+99

> <Gold.Protein.RotatedTorsions>
[ 6907 6896 6895 6894 ] final -177.17 input  -60.11 | X-H torsion
[ 7974 7965 7964 7962 ] final -134.38 input  175.53 | X-H torsion
[ 8008 7997 7996 7995 ] final  -58.46 input   59.86 | X-H torsion
[ 10167 10162 10161 10158 ] final  -29.51 input  -65.29 | X-H torsion
[ 10718 10713 10712 10709 ] final  -73.91 input   66.30 | X-H torsion
[ 10763 10752 10751 10750 ] final   53.31 input  -60.55 | X-H torsion
[ 11005 11000 10999 10996 ] final   84.44 input  -57.11 | X-H torsion

> <Gold.Protein.ActiveResidues>
 VAL166  LYS551  ARG553  GLY616  TRP617  ASP618  TYR619  PRO620  LYS621  CYS622 
 ASP623  PHE694  ASN695  SER759  ASP760  ASP761  ALA762  ILE779  LEU786  VAL792 
 PHE793  MET794  SER795  GLU796  ALA797  LYS798  CYS799  TRP800  GLU811  SER814 

> <Gold.Protein.RotatedAtoms>
  151.6167  133.3342  159.3078 H   0  0  0  0  0  0  0  0  0  0  0  0  # atno 6907 bound_to 6896
  150.8127  134.7295  159.6714 H   0  0  0  0  0  0  0  0  0  0  0  0  # atno 6908 bound_to 6896
  152.4224  134.5936  160.0032 H   0  0  0  0  0  0  0  0  0  0  0  0  # atno 6909 bound_to 6896
  144.9108  140.6893  143.5026 H   0  0  0  0  0  0  0  0  0  0  0  0  # atno 7974 bound_to 7965
  154.4310  140.1083  156.5961 H   0  0  0  0  0  0  0  0  0  0  0  0  # atno 8008 bound_to 7997
  155.5961  140.3492  155.4561 H   0  0  0  0  0  0  0  0  0  0  0  0  # atno 8009 bound_to 7997
  156.0210  140.1239  157.0347 H   0  0  0  0  0  0  0  0  0  0  0  0  # atno 8010 bound_to 7997
  140.7259  143.3922  151.1409 H   0  0  0  0  0  0  0  0  0  0  0  0  # atno 10167 bound_to 10162
  156.0262  130.4405  150.2813 H   0  0  0  0  0  0  0  0  0  0  0  0  # atno 10718 bound_to 10713
  152.9794  135.5783  154.4721 H   0  0  0  0  0  0  0  0  0  0  0  0  # atno 10763 bound_to 10752
  154.4282  135.2773  155.1932 H   0  0  0  0  0  0  0  0  0  0  0  0  # atno 10764 bound_to 10752
  154.3652  135.6180  153.5765 H   0  0  0  0  0  0  0  0  0  0  0  0  # atno 10765 bound_to 10752
  139.9000  134.8216  156.2445 H   0  0  0  0  0  0  0  0  0  0  0  0  # atno 11005 bound_to 11000
  145.3457  139.1720  143.4462 LP  0  0  0  0  0  0  0  0  0  0  0  0  # atno 17320 bound_to 7965
  146.3157  140.3503  142.8655 LP  0  0  0  0  0  0  0  0  0  0  0  0  # atno 17321 bound_to 7965
  139.7529  143.8751  152.3081 LP  0  0  0  0  0  0  0  0  0  0  0  0  # atno 17342 bound_to 10162
  139.8611  144.7117  150.9099 LP  0  0  0  0  0  0  0  0  0  0  0  0  # atno 17343 bound_to 10162
  157.0916  131.0171  151.3119 LP  0  0  0  0  0  0  0  0  0  0  0  0  # atno 17370 bound_to 10713
  157.4849  130.7787  149.7450 LP  0  0  0  0  0  0  0  0  0  0  0  0  # atno 17371 bound_to 10713
  141.0263  133.7013  156.1354 LP  0  0  0  0  0  0  0  0  0  0  0  0  # atno 17394 bound_to 11000
  140.7160  134.4409  157.5578 LP  0  0  0  0  0  0  0  0  0  0  0  0  # atno 17395 bound_to 11000

$$$$
