AV-unprocessed.smi:2124|AV-procd|sdf|8662|dock6
  -GOLD-   2272011413D 1   1.00000     0.00000
 Structure written by MMmdl.
 47 49  0  0  0  0  0  0  0  0  1 V2000
  151.2747  143.0678  157.2475 C   0  0  0  0  0  0  0  0  0  0  0  0
  150.7715  141.9418  156.3708 C   0  0  0  0  0  0  0  0  0  0  0  0
  149.6363  142.2655  155.6459 N   0  0  0  0  0  0  0  0  0  0  0  0
  149.0926  141.2931  154.8252 C   0  0  0  0  0  0  0  0  0  0  0  0
  147.8447  141.7268  154.0756 C   0  0  0  0  0  0  0  0  0  0  0  0
  149.6579  140.0632  154.7248 C   0  0  0  0  0  0  0  0  0  0  0  0
  149.0991  138.9579  153.8306 C   0  0  0  0  0  0  0  0  0  0  0  0
  147.6895  138.4688  154.1727 C   0  0  0  0  0  0  0  0  0  0  0  0
  147.0325  139.0221  155.0546 O   0  0  0  0  0  0  0  0  0  0  0  0
  147.2378  137.4268  153.4586 N   0  0  0  0  0  0  0  0  0  0  0  0
  145.9184  136.8112  153.5896 C   0  0  2  0  0  0  0  0  0  0  0  0
  145.7056  136.3972  155.0571 C   0  0  0  0  0  0  0  0  0  0  0  0
  145.8070  135.6198  152.6060 C   0  0  2  0  0  0  0  0  0  0  0  0
  145.6957  136.0472  151.1200 C   0  0  0  0  0  0  0  0  0  0  0  0
  144.4366  135.3109  150.6308 C   0  0  1  0  0  0  0  0  0  0  0  0
  144.7133  133.7978  150.5703 C   0  0  0  0  0  0  0  0  0  0  0  0
  144.7520  133.4023  152.0581 C   0  0  0  0  0  0  0  0  0  0  0  0
  144.5353  134.7494  152.7745 C   0  0  2  0  0  0  0  0  0  0  0  0
  143.5283  135.4232  151.8475 C   0  0  0  0  0  0  0  0  0  0  0  0
  150.8826  139.7823  155.5101 C   0  0  0  0  0  0  0  0  0  0  0  0
  151.4545  138.6950  155.4413 O   0  0  0  0  0  0  0  0  0  0  0  0
  151.3852  140.7981  156.3394 N   0  0  0  0  0  0  0  0  0  0  0  0
  149.1846  143.1676  155.6906 H   0  0  0  0  0  0  0  0  0  0  0  0
  152.1587  142.7610  157.8080 H   0  0  0  0  0  0  0  0  0  0  0  0
  150.5061  143.3669  157.9610 H   0  0  0  0  0  0  0  0  0  0  0  0
  151.5406  143.9331  156.6395 H   0  0  0  0  0  0  0  0  0  0  0  0
  146.9895  141.1231  154.3795 H   0  0  0  0  0  0  0  0  0  0  0  0
  147.9846  141.6114  153.0007 H   0  0  0  0  0  0  0  0  0  0  0  0
  147.6014  142.7722  154.2697 H   0  0  0  0  0  0  0  0  0  0  0  0
  149.7608  138.0931  153.8739 H   0  0  0  0  0  0  0  0  0  0  0  0
  149.1318  139.2781  152.7879 H   0  0  0  0  0  0  0  0  0  0  0  0
  147.8487  137.0394  152.7543 H   0  0  0  0  0  0  0  0  0  0  0  0
  145.1567  137.5469  153.3260 H   0  0  0  0  0  0  0  0  0  0  0  0
  144.7053  136.0015  155.2271 H   0  0  0  0  0  0  0  0  0  0  0  0
  145.8267  137.2495  155.7264 H   0  0  0  0  0  0  0  0  0  0  0  0
  146.4222  135.6338  155.3615 H   0  0  0  0  0  0  0  0  0  0  0  0
  146.6928  134.9957  152.7363 H   0  0  0  0  0  0  0  0  0  0  0  0
  145.5506  137.1239  151.0207 H   0  0  0  0  0  0  0  0  0  0  0  0
  146.5831  135.7808  150.5445 H   0  0  0  0  0  0  0  0  0  0  0  0
  144.0234  135.7184  149.7077 H   0  0  0  0  0  0  0  0  0  0  0  0
  143.9079  133.2733  150.0544 H   0  0  0  0  0  0  0  0  0  0  0  0
  145.6469  133.5702  150.0545 H   0  0  0  0  0  0  0  0  0  0  0  0
  143.9427  132.7086  152.2892 H   0  0  0  0  0  0  0  0  0  0  0  0
  145.6903  132.9231  152.3396 H   0  0  0  0  0  0  0  0  0  0  0  0
  144.1953  134.6283  153.8020 H   0  0  0  0  0  0  0  0  0  0  0  0
  143.2991  136.4535  152.1242 H   0  0  0  0  0  0  0  0  0  0  0  0
  142.5953  134.8660  151.7434 H   0  0  0  0  0  0  0  0  0  0  0  0
  1 24  1  0  0  0  0
  1 25  1  0  0  0  0
  1 26  1  0  0  0  0
  1  2  1  0  0  0  0
  2  3  1  0  0  0  0
  2 22  2  0  0  0  0
  3  4  1  0  0  0  0
  3 23  1  0  0  0  0
  4  6  2  0  0  0  0
  4  5  1  0  0  0  0
  5 27  1  0  0  0  0
  5 28  1  0  0  0  0
  5 29  1  0  0  0  0
  6 20  1  0  0  0  0
  6  7  1  0  0  0  0
  7  8  1  0  0  0  0
  7 30  1  0  0  0  0
  7 31  1  0  0  0  0
  8  9  2  0  0  0  0
  8 10  1  0  0  0  0
 10 11  1  0  0  0  0
 10 32  1  0  0  0  0
 11 12  1  0  0  0  0
 11 13  1  0  0  0  0
 11 33  1  0  0  0  0
 12 34  1  0  0  0  0
 12 35  1  0  0  0  0
 12 36  1  0  0  0  0
 13 18  1  0  0  0  0
 13 14  1  0  0  0  0
 13 37  1  0  0  0  0
 14 15  1  0  0  0  0
 14 38  1  0  0  0  0
 14 39  1  0  0  0  0
 15 19  1  0  0  0  0
 15 16  1  0  0  0  0
 15 40  1  0  0  0  0
 16 17  1  0  0  0  0
 16 41  1  0  0  0  0
 16 42  1  0  0  0  0
 17 18  1  0  0  0  0
 17 43  1  0  0  0  0
 17 44  1  0  0  0  0
 18 19  1  0  0  0  0
 18 45  1  0  0  0  0
 19 46  1  0  0  0  0
 19 47  1  0  0  0  0
 20 21  2  0  0  0  0
 20 22  1  0  0  0  0
M  END
> <s_m_source_file>
AV-unprocessed.smi

> <i_m_source_file_index>
2124

> <i_lp_mmshare_version>
43012

> <i_f3d_flags>
0

> <s_epik_input>
W0NIM11jMW5jKFtDSDNdKWMoYyg9TylbbkhdMSlbQ0gyXUMoPU8pW05IXVtDQEhdKFtDSDNdKVtDQEhdKFtDSDJdW0NASF0yMylbQ0BIXShbQ0gyXTMpW0NIMl1bQ0gyXTI=

> <s_epik_cmdline>
J2VwaWtfcHl0aG9uJywgJy1waCcsICc3LjAnLCAnLXRuJywgJzgnLCAnLW1hJywgJzIwMCcsICctbWV0YWxfYmluZGluZycsICctaW1hZScsICc8aW5maWxlLm1hZT4nLCAnLW9tYWUnLCAnPG91dGZpbGUubWFlPic=

> <r_lp_tautomer_probability>
0.156392

> <r_epik_Ionization_Penalty>
0.0139374

> <r_epik_Ionization_Penalty_Charging>
0.0138122

> <r_epik_Ionization_Penalty_Neutral>
0.000125146

> <r_epik_State_Penalty>
1.15342

> <r_epik_Charging_Adjusted_Penalty>
1.16723

> <i_epik_Tot_Q>
0

> <i_epik_Tot_abs_Q>
0

> <r_epik_Metal_State_Penalty>
1.3173

> <b_epik_Metal_Only>
0

> <s_lp_Force_Field>
OPLS_2005

> <r_lp_Energy>
56.0301

> <b_lp_Chiralities_Consistent>
1

> <s_lp_Variant>
AV-unprocessed.smi:2124-13

> <Gold.Version>
5.8.1

> <Gold.Id.Protein>
6NUR|6NUR_protein|mol2

> <Gold.PLP.Fitness>
41.8235

> <Gold.PLP.PLP>
-36.1278

> <Gold.PLP.part.hbond>
-2.0000

> <Gold.PLP.part.metal>
0.0000

> <Gold.PLP.part.buried>
-5.0284

> <Gold.PLP.part.nonpolar>
-30.5382

> <Gold.PLP.part.repulsive>
0.2593

> <Gold.PLP.ligand.clash>
0.0000

> <Gold.PLP.ligand.torsion>
0.1624

> <Gold.PLP.Chemscore.Hbond>
2.0000

> <Gold.PLP.Chemscore.CHOScore>
0.0000

> <Gold.PLP.Chemscore.Metal>
0.0000

> <Gold.Chemscore.Hbonds>
donor molecule, donor type, donor heavy atom, donor atom, acceptor molecule, acceptor atom, score
      L1  H     3    23       P1  8028  1.00
      L1  H    10    32       P1  7948  1.00

> <Gold.PLP.Chemscore.Internal.Correction>
0.0205

> <Gold.Rescore>
     Score         DG    S(hbond)    S(metal)    S(lipo)     H(rot)  DE(clash)    DE(int)     intcor
     15.73     -17.10       1.99        0.00      78.70       1.65       0.04       1.33       ----

> <Gold.Chemscore.Fitness>
15.7305

> <Gold.Chemscore.DG>
-17.1024

> <Gold.Chemscore.ZeroCoef>
-5.4800

> <Gold.Chemscore.Hbond>
1.9900

> <Gold.Chemscore.Metal>
0.0000

> <Gold.Chemscore.Lipo>
78.7033

> <Gold.Chemscore.Internal_Hbond>
0.0000

> <Gold.Chemscore.DEClash>
0.0375

> <Gold.Chemscore.DEInternal>
1.3343

> <Gold.Chemscore.Rot>
1.6534

> <Gold.Chemscore.Internal.Correction>
   9.000000E+99

> <Gold.Chemscore.Hbonds>
donor molecule, donor type, donor heavy atom, donor atom, acceptor molecule, acceptor atom, score
      L1  H     3    23       P1  8028  0.97
      L1  H    10    32       P1  7948  0.99

> <Gold.Chemscore.Hbond.Weighted>
-6.6467

> <Gold.Chemscore.Metal.Weighted>
-0.0000

> <Gold.Chemscore.Lipo.Weighted>
-9.2083

> <Gold.Chemscore.Internal_Hbond.Weighted>
0.0000

> <Gold.Chemscore.DEClash.Weighted>
0.0375

> <Gold.Chemscore.DEInternal.Weighted>
1.3343

> <Gold.Chemscore.Rot.Weighted>
4.2326

> <Gold.Chemscore.Internal.Correction.Weighted>
   9.000000E+99

> <Gold.Protein.RotatedTorsions>
[ 6907 6896 6895 6894 ] final -135.76 input  -60.11 | X-H torsion
[ 7974 7965 7964 7962 ] final -113.94 input  175.53 | X-H torsion
[ 8008 7997 7996 7995 ] final  -37.93 input   59.86 | X-H torsion
[ 10167 10162 10161 10158 ] final   90.56 input  -65.29 | X-H torsion
[ 10718 10713 10712 10709 ] final    7.53 input   66.30 | X-H torsion
[ 10763 10752 10751 10750 ] final  -93.67 input  -60.55 | X-H torsion
[ 11005 11000 10999 10996 ] final -112.66 input  -57.11 | X-H torsion

> <Gold.Protein.ActiveResidues>
 VAL166  LYS551  ARG553  GLY616  TRP617  ASP618  TYR619  PRO620  LYS621  CYS622 
 ASP623  PHE694  ASN695  SER759  ASP760  ASP761  ALA762  ILE779  LEU786  VAL792 
 PHE793  MET794  SER795  GLU796  ALA797  LYS798  CYS799  TRP800  GLU811  SER814 

> <Gold.Protein.RotatedAtoms>
  151.0017  133.6049  159.2693 H   0  0  0  0  0  0  0  0  0  0  0  0  # atno 6907 bound_to 6896
  151.3233  135.0823  159.9323 H   0  0  0  0  0  0  0  0  0  0  0  0  # atno 6908 bound_to 6896
  152.5275  133.9660  159.7794 H   0  0  0  0  0  0  0  0  0  0  0  0  # atno 6909 bound_to 6896
  145.1260  140.8697  143.3785 H   0  0  0  0  0  0  0  0  0  0  0  0  # atno 7974 bound_to 7965
  154.4045  140.1591  156.2617 H   0  0  0  0  0  0  0  0  0  0  0  0  # atno 8008 bound_to 7997
  155.9031  140.3432  155.6019 H   0  0  0  0  0  0  0  0  0  0  0  0  # atno 8009 bound_to 7997
  155.7425  140.0794  157.2230 H   0  0  0  0  0  0  0  0  0  0  0  0  # atno 8010 bound_to 7997
  139.8461  144.6617  150.9225 H   0  0  0  0  0  0  0  0  0  0  0  0  # atno 10167 bound_to 10162
  156.9383  130.5852  149.5651 H   0  0  0  0  0  0  0  0  0  0  0  0  # atno 10718 bound_to 10713
  154.6981  135.5186  153.8488 H   0  0  0  0  0  0  0  0  0  0  0  0  # atno 10763 bound_to 10752
  153.0683  135.6592  154.0314 H   0  0  0  0  0  0  0  0  0  0  0  0  # atno 10764 bound_to 10752
  154.0177  135.2996  155.3364 H   0  0  0  0  0  0  0  0  0  0  0  0  # atno 10765 bound_to 10752
  141.0661  133.9456  157.2575 H   0  0  0  0  0  0  0  0  0  0  0  0  # atno 11005 bound_to 11000
  145.0687  139.3048  143.5843 LP  0  0  0  0  0  0  0  0  0  0  0  0  # atno 17320 bound_to 7965
  146.3517  140.0154  142.8663 LP  0  0  0  0  0  0  0  0  0  0  0  0  # atno 17321 bound_to 7965
  140.7793  143.3869  151.1378 LP  0  0  0  0  0  0  0  0  0  0  0  0  # atno 17342 bound_to 10162
  139.7511  143.8777  152.3077 LP  0  0  0  0  0  0  0  0  0  0  0  0  # atno 17343 bound_to 10162
  156.0416  130.5497  150.8783 LP  0  0  0  0  0  0  0  0  0  0  0  0  # atno 17370 bound_to 10713
  157.5801  131.0946  150.9284 LP  0  0  0  0  0  0  0  0  0  0  0  0  # atno 17371 bound_to 10713
  139.9478  135.0181  156.8904 LP  0  0  0  0  0  0  0  0  0  0  0  0  # atno 17394 bound_to 11000
  140.5769  134.0389  155.7450 LP  0  0  0  0  0  0  0  0  0  0  0  0  # atno 17395 bound_to 11000

$$$$
