AV-unprocessed.smi:2106|AV-procd|sdf|8596|dock6
  -GOLD-   2272011333D 1   1.00000     0.00000
 Structure written by MMmdl.
 48 49  0  0  0  0  0  0  0  0  2 V2000
  154.7532  140.7179  160.8598 C   0  0  0  0  0  0  0  0  0  0  0  0
  153.5686  141.3902  160.2311 C   0  0  0  0  0  0  0  0  0  0  0  0
  153.0472  142.6865  160.4993 C   0  0  0  0  0  0  0  0  0  0  0  0
  151.9759  142.8004  159.6590 C   0  0  0  0  0  0  0  0  0  0  0  0
  151.0187  143.9307  159.4694 C   0  0  0  0  0  0  0  0  0  0  0  0
  151.8974  141.6167  158.9462 N   0  0  0  0  0  0  0  0  0  0  0  0
  150.9480  141.2263  157.9160 C   0  0  0  0  0  0  0  0  0  0  0  0
  151.4563  140.0162  157.1308 C   0  0  0  0  0  0  0  0  0  0  0  0
  152.5194  140.0838  156.5139 O   0  0  0  0  0  0  0  0  0  0  0  0
  150.6907  138.9143  157.1642 N   0  0  0  0  0  0  0  0  0  0  0  0
  151.0181  137.6467  156.5217 C   0  0  0  0  0  0  0  0  0  0  0  0
  150.6914  137.6665  155.0151 C   0  0  0  0  0  0  0  0  0  0  0  0
  150.0060  136.4308  154.5599 N   0  3  1  0  0  0  0  0  0  0  0  0
  150.9355  135.2800  154.4621 C   0  0  0  0  0  0  0  0  0  0  0  0
  150.2039  134.0316  153.9337 C   0  0  1  0  0  0  0  0  0  0  0  0
  151.1142  132.7991  153.8983 C   0  0  0  0  0  0  0  0  0  0  0  0
  149.1034  133.7428  154.7883 O   0  0  0  0  0  0  0  0  0  0  0  0
  148.1495  134.7980  154.8277 C   0  0  1  0  0  0  0  0  0  0  0  0
  146.9719  134.3445  155.6979 C   0  0  0  0  0  0  0  0  0  0  0  0
  148.8241  136.0677  155.3807 C   0  0  0  0  0  0  0  0  0  0  0  0
  152.8760  140.7544  159.3004 N   0  0  0  0  0  0  0  0  0  0  0  0
  155.1957  141.3445  161.6345 H   0  0  0  0  0  0  0  0  0  0  0  0
  155.5260  140.5113  160.1193 H   0  0  0  0  0  0  0  0  0  0  0  0
  154.4697  139.7715  161.3210 H   0  0  0  0  0  0  0  0  0  0  0  0
  153.4064  143.4230  161.2027 H   0  0  0  0  0  0  0  0  0  0  0  0
  151.2777  144.7712  160.1134 H   0  0  0  0  0  0  0  0  0  0  0  0
  150.0013  143.6240  159.7125 H   0  0  0  0  0  0  0  0  0  0  0  0
  151.0309  144.2836  158.4384 H   0  0  0  0  0  0  0  0  0  0  0  0
  149.9844  141.0021  158.3769 H   0  0  0  0  0  0  0  0  0  0  0  0
  150.7849  142.0667  157.2406 H   0  0  0  0  0  0  0  0  0  0  0  0
  149.8360  138.9494  157.7017 H   0  0  0  0  0  0  0  0  0  0  0  0
  152.0708  137.4270  156.7009 H   0  0  0  0  0  0  0  0  0  0  0  0
  150.4471  136.8602  157.0158 H   0  0  0  0  0  0  0  0  0  0  0  0
  150.0442  138.5231  154.8199 H   0  0  0  0  0  0  0  0  0  0  0  0
  151.5924  137.8191  154.4193 H   0  0  0  0  0  0  0  0  0  0  0  0
  151.7620  135.5299  153.7956 H   0  0  0  0  0  0  0  0  0  0  0  0
  151.3658  135.0770  155.4444 H   0  0  0  0  0  0  0  0  0  0  0  0
  149.8353  134.2203  152.9238 H   0  0  0  0  0  0  0  0  0  0  0  0
  151.9754  132.9646  153.2507 H   0  0  0  0  0  0  0  0  0  0  0  0
  150.5769  131.9291  153.5200 H   0  0  0  0  0  0  0  0  0  0  0  0
  151.4860  132.5533  154.8936 H   0  0  0  0  0  0  0  0  0  0  0  0
  147.7810  134.9871  153.8177 H   0  0  0  0  0  0  0  0  0  0  0  0
  146.2046  135.1169  155.7539 H   0  0  0  0  0  0  0  0  0  0  0  0
  147.2949  134.1197  156.7148 H   0  0  0  0  0  0  0  0  0  0  0  0
  146.5088  133.4461  155.2893 H   0  0  0  0  0  0  0  0  0  0  0  0
  149.1346  135.9087  156.4148 H   0  0  0  0  0  0  0  0  0  0  0  0
  148.0993  136.8809  155.3865 H   0  0  0  0  0  0  0  0  0  0  0  0
  149.6742  136.6097  153.6228 H   0  0  0  0  0  0  0  0  0  0  0  0
  1  2  1  0  0  0  0
  1 22  1  0  0  0  0
  1 23  1  0  0  0  0
  1 24  1  0  0  0  0
  2 21  2  0  0  0  0
  2  3  1  0  0  0  0
  3  4  2  0  0  0  0
  3 25  1  0  0  0  0
  4  5  1  0  0  0  0
  4  6  1  0  0  0  0
  5 26  1  0  0  0  0
  5 27  1  0  0  0  0
  5 28  1  0  0  0  0
  6  7  1  0  0  0  0
  6 21  1  0  0  0  0
  7  8  1  0  0  0  0
  7 29  1  0  0  0  0
  7 30  1  0  0  0  0
  8  9  2  0  0  0  0
  8 10  1  0  0  0  0
 10 11  1  0  0  0  0
 10 31  1  0  0  0  0
 11 12  1  0  0  0  0
 11 32  1  0  0  0  0
 11 33  1  0  0  0  0
 12 13  1  0  0  0  0
 12 34  1  0  0  0  0
 12 35  1  0  0  0  0
 13 20  1  0  0  0  0
 13 14  1  0  0  0  0
 13 48  1  0  0  0  0
 14 15  1  0  0  0  0
 14 36  1  0  0  0  0
 14 37  1  0  0  0  0
 15 16  1  0  0  0  0
 15 17  1  0  0  0  0
 15 38  1  0  0  0  0
 16 39  1  0  0  0  0
 16 40  1  0  0  0  0
 16 41  1  0  0  0  0
 17 18  1  0  0  0  0
 18 19  1  0  0  0  0
 18 20  1  0  0  0  0
 18 42  1  0  0  0  0
 19 43  1  0  0  0  0
 19 44  1  0  0  0  0
 19 45  1  0  0  0  0
 20 46  1  0  0  0  0
 20 47  1  0  0  0  0
M  CHG  1  13   1
M  END
> <s_m_source_file>
AV-unprocessed.smi

> <i_m_source_file_index>
2106

> <i_lp_mmshare_version>
43012

> <i_f3d_flags>
0

> <s_epik_input>
W0NIM11jMVtjSF1jKFtDSDNdKW4objEpW0NIMl1DKD1PKVtOSF1bQ0gyXVtDSDJdTjJbQ0gyXVtDQEBIXShbQ0gzXSlPW0NAQEhdKFtDSDNdKVtDSDJdMg==

> <s_epik_cmdline>
J2VwaWtfcHl0aG9uJywgJy1waCcsICc3LjAnLCAnLXRuJywgJzgnLCAnLW1hJywgJzIwMCcsICctbWV0YWxfYmluZGluZycsICctaW1hZScsICc8aW5maWxlLm1hZT4nLCAnLW9tYWUnLCAnPG91dGZpbGUubWFlPic=

> <r_lp_tautomer_probability>
1

> <r_epik_Ionization_Penalty>
0.748586

> <r_epik_Ionization_Penalty_Charging>
0.748396

> <r_epik_Ionization_Penalty_Neutral>
0.000189656

> <r_epik_State_Penalty>
0.775162

> <r_epik_Charging_Adjusted_Penalty>
1.52356

> <i_epik_Tot_Q>
1

> <i_epik_Tot_abs_Q>
1

> <r_epik_Metal_State_Penalty>
0.775295

> <b_epik_Metal_Only>
0

> <s_lp_Force_Field>
OPLS_2005

> <r_lp_Energy>
12.4658

> <b_lp_Chiralities_Consistent>
1

> <s_lp_Variant>
AV-unprocessed.smi:2106-4

> <Gold.Version>
5.8.1

> <Gold.Id.Protein>
6NUR|6NUR_protein|mol2

> <Gold.PLP.Fitness>
44.4459

> <Gold.PLP.PLP>
-36.8886

> <Gold.PLP.part.hbond>
-2.0000

> <Gold.PLP.part.metal>
0.0000

> <Gold.PLP.part.buried>
-4.8209

> <Gold.PLP.part.nonpolar>
-30.9031

> <Gold.PLP.part.repulsive>
0.1013

> <Gold.PLP.ligand.clash>
0.0000

> <Gold.PLP.ligand.torsion>
0.7333

> <Gold.PLP.Chemscore.Hbond>
3.0000

> <Gold.PLP.Chemscore.CHOScore>
0.0000

> <Gold.PLP.Chemscore.Metal>
0.0000

> <Gold.Chemscore.Hbonds>
donor molecule, donor type, donor heavy atom, donor atom, acceptor molecule, acceptor atom, score
      L1  H    13    48       P1  7948  2.00
      P1  H  7997  8008       L1     9  1.00

> <Gold.PLP.Chemscore.Internal.Correction>
0.0240

> <Gold.Rescore>
     Score         DG    S(hbond)    S(metal)    S(lipo)     H(rot)  DE(clash)    DE(int)     intcor
     16.06     -18.14       1.94        0.00      90.77       1.73       0.01       2.07       ----

> <Gold.Chemscore.Fitness>
16.0632

> <Gold.Chemscore.DG>
-18.1444

> <Gold.Chemscore.ZeroCoef>
-5.4800

> <Gold.Chemscore.Hbond>
1.9394

> <Gold.Chemscore.Metal>
0.0000

> <Gold.Chemscore.Lipo>
90.7663

> <Gold.Chemscore.Internal_Hbond>
0.0000

> <Gold.Chemscore.DEClash>
0.0120

> <Gold.Chemscore.DEInternal>
2.0692

> <Gold.Chemscore.Rot>
1.7316

> <Gold.Chemscore.Internal.Correction>
   9.000000E+99

> <Gold.Chemscore.Hbonds>
donor molecule, donor type, donor heavy atom, donor atom, acceptor molecule, acceptor atom, score
      L1  H    13    48       P1  7948  0.55
      P1  H  7997  8008       L1     9  0.99

> <Gold.Chemscore.Hbond.Weighted>
-6.4778

> <Gold.Chemscore.Metal.Weighted>
-0.0000

> <Gold.Chemscore.Lipo.Weighted>
-10.6197

> <Gold.Chemscore.Internal_Hbond.Weighted>
0.0000

> <Gold.Chemscore.DEClash.Weighted>
0.0120

> <Gold.Chemscore.DEInternal.Weighted>
2.0692

> <Gold.Chemscore.Rot.Weighted>
4.4330

> <Gold.Chemscore.Internal.Correction.Weighted>
   9.000000E+99

> <Gold.Protein.RotatedTorsions>
[ 6907 6896 6895 6894 ] final  156.63 input  -60.11 | X-H torsion
[ 7974 7965 7964 7962 ] final -169.91 input  175.53 | X-H torsion
[ 8008 7997 7996 7995 ] final  -45.27 input   59.86 | X-H torsion
[ 10167 10162 10161 10158 ] final  -98.09 input  -65.29 | X-H torsion
[ 10718 10713 10712 10709 ] final -140.88 input   66.30 | X-H torsion
[ 10763 10752 10751 10750 ] final -176.27 input  -60.55 | X-H torsion
[ 11005 11000 10999 10996 ] final   31.02 input  -57.11 | X-H torsion

> <Gold.Protein.ActiveResidues>
 VAL166  LYS551  ARG553  GLY616  TRP617  ASP618  TYR619  PRO620  LYS621  CYS622 
 ASP623  PHE694  ASN695  SER759  ASP760  ASP761  ALA762  ILE779  LEU786  VAL792 
 PHE793  MET794  SER795  GLU796  ALA797  LYS798  CYS799  TRP800  GLU811  SER814 

> <Gold.Protein.RotatedAtoms>
  152.0269  133.3921  159.4280 H   0  0  0  0  0  0  0  0  0  0  0  0  # atno 6907 bound_to 6896
  150.6885  134.3564  159.4940 H   0  0  0  0  0  0  0  0  0  0  0  0  # atno 6908 bound_to 6896
  152.1345  134.9109  160.0607 H   0  0  0  0  0  0  0  0  0  0  0  0  # atno 6909 bound_to 6896
  144.7178  140.2151  143.6323 H   0  0  0  0  0  0  0  0  0  0  0  0  # atno 7974 bound_to 7965
  154.4000  140.1401  156.3819 H   0  0  0  0  0  0  0  0  0  0  0  0  # atno 8008 bound_to 7997
  155.7995  140.3476  155.5374 H   0  0  0  0  0  0  0  0  0  0  0  0  # atno 8009 bound_to 7997
  155.8497  140.0939  157.1673 H   0  0  0  0  0  0  0  0  0  0  0  0  # atno 8010 bound_to 7997
  140.2766  143.3309  152.0483 H   0  0  0  0  0  0  0  0  0  0  0  0  # atno 10167 bound_to 10162
  156.3275  130.7568  151.1679 H   0  0  0  0  0  0  0  0  0  0  0  0  # atno 10718 bound_to 10713
  154.5744  135.2830  155.0796 H   0  0  0  0  0  0  0  0  0  0  0  0  # atno 10763 bound_to 10752
  154.2156  135.6400  153.5132 H   0  0  0  0  0  0  0  0  0  0  0  0  # atno 10764 bound_to 10752
  153.0067  135.5502  154.6377 H   0  0  0  0  0  0  0  0  0  0  0  0  # atno 10765 bound_to 10752
  140.2883  134.2894  155.7782 H   0  0  0  0  0  0  0  0  0  0  0  0  # atno 11005 bound_to 11000
  145.8554  139.2196  143.1748 LP  0  0  0  0  0  0  0  0  0  0  0  0  # atno 17320 bound_to 7965
  146.0223  140.8337  142.9917 LP  0  0  0  0  0  0  0  0  0  0  0  0  # atno 17321 bound_to 7965
  139.4974  144.6620  151.6442 LP  0  0  0  0  0  0  0  0  0  0  0  0  # atno 17342 bound_to 10162
  140.5846  143.9886  150.6288 LP  0  0  0  0  0  0  0  0  0  0  0  0  # atno 17343 bound_to 10162
  157.7424  131.0490  150.5026 LP  0  0  0  0  0  0  0  0  0  0  0  0  # atno 17370 bound_to 10713
  156.5188  130.4157  149.6262 LP  0  0  0  0  0  0  0  0  0  0  0  0  # atno 17371 bound_to 10713
  141.2151  133.7569  156.9585 LP  0  0  0  0  0  0  0  0  0  0  0  0  # atno 17394 bound_to 11000
  140.1219  134.9411  157.2216 LP  0  0  0  0  0  0  0  0  0  0  0  0  # atno 17395 bound_to 11000

$$$$
