AV-unprocessed.smi:45|AV-procd|sdf|418|dock3
  -GOLD-   2262016293D 1   1.00000     0.00000
 Structure written by MMmdl.
 60 63  0  0  0  0  0  0  0  0  3 V2000
  151.3107  142.0500  158.1755 C   0  0  0  0  0  0  0  0  0  0  0  0
  150.4962  141.8752  157.0255 O   0  0  0  0  0  0  0  0  0  0  0  0
  149.9477  140.6302  156.7959 C   0  0  0  0  0  0  0  0  0  0  0  0
  150.0188  139.5540  157.7170 C   0  0  0  0  0  0  0  0  0  0  0  0
  149.4326  138.3104  157.4116 C   0  0  0  0  0  0  0  0  0  0  0  0
  148.7656  138.1213  156.1852 C   0  0  0  0  0  0  0  0  0  0  0  0
  148.1345  136.7831  155.8578 C   0  0  0  0  0  0  0  0  0  0  0  0
  149.0879  135.6841  155.8770 N   0  0  0  0  0  0  0  0  0  0  0  0
  148.9417  134.5732  155.0297 C   0  0  0  0  0  0  0  0  0  0  0  0
  147.8883  134.5572  154.1688 N   0  3  0  0  0  0  0  0  0  0  0  0
  147.7024  133.5298  153.3237 C   0  0  0  0  0  0  0  0  0  0  0  0
  146.6123  133.5710  152.4556 N   0  0  0  0  0  0  0  0  0  0  0  0
  145.8766  134.8079  152.2166 C   0  0  0  0  0  0  0  0  0  0  0  0
  145.3857  134.7325  150.7718 C   0  0  0  0  0  0  0  0  0  0  0  0
  145.2311  133.2347  150.5431 C   0  0  0  0  0  0  0  0  0  0  0  0
  146.3802  132.6268  151.3610 C   0  0  2  0  0  0  0  0  0  0  0  0
  146.0683  131.1952  151.8462 C   0  0  0  0  0  0  0  0  0  0  0  0
  147.2554  130.5609  152.2718 O   0  0  0  0  0  0  0  0  0  0  0  0
  148.5357  132.4832  153.2843 N   0  0  0  0  0  0  0  0  0  0  0  0
  149.5937  132.4503  154.1161 C   0  0  0  0  0  0  0  0  0  0  0  0
  149.8579  133.4898  155.0301 C   0  0  0  0  0  0  0  0  0  0  0  0
  151.0317  133.4045  155.9713 C   0  0  0  0  0  0  0  0  0  0  0  0
  151.7846  134.3802  156.0637 O   0  0  0  0  0  0  0  0  0  0  0  0
  151.0912  132.1941  156.5928 N   0  5  0  0  0  0  0  0  0  0  0  0
  152.3120  131.6266  157.1667 C   0  0  0  0  0  0  0  0  0  0  0  0
  153.1661  130.9299  156.1141 C   0  0  0  0  0  0  0  0  0  0  0  0
  154.4629  131.2596  156.0688 N   0  0  0  0  0  0  0  0  0  0  0  0
  155.2261  130.6230  155.1543 C   0  0  0  0  0  0  0  0  0  0  0  0
  154.6879  129.6553  154.2822 C   0  0  0  0  0  0  0  0  0  0  0  0
  153.3105  129.3905  154.4201 C   0  0  0  0  0  0  0  0  0  0  0  0
  152.5518  130.0288  155.3373 N   0  0  0  0  0  0  0  0  0  0  0  0
  148.6926  139.1845  155.2644 C   0  0  0  0  0  0  0  0  0  0  0  0
  149.2794  140.4287  155.5675 C   0  0  0  0  0  0  0  0  0  0  0  0
  149.1708  141.7123  154.4164 Cl  0  0  0  0  0  0  0  0  0  0  0  0
  147.2820  132.6150  150.7467 H   0  0  0  0  0  0  0  0  0  0  0  0
  151.6561  143.0829  158.2160 H   0  0  0  0  0  0  0  0  0  0  0  0
  152.1926  141.4091  158.1417 H   0  0  0  0  0  0  0  0  0  0  0  0
  150.7538  141.8528  159.0925 H   0  0  0  0  0  0  0  0  0  0  0  0
  150.5195  139.6565  158.6677 H   0  0  0  0  0  0  0  0  0  0  0  0
  149.4968  137.4999  158.1229 H   0  0  0  0  0  0  0  0  0  0  0  0
  147.3441  136.5854  156.5830 H   0  0  0  0  0  0  0  0  0  0  0  0
  147.6631  136.8349  154.8755 H   0  0  0  0  0  0  0  0  0  0  0  0
  149.9028  135.7542  156.4709 H   0  0  0  0  0  0  0  0  0  0  0  0
  145.0346  134.8516  152.9083 H   0  0  0  0  0  0  0  0  0  0  0  0
  146.4917  135.6949  152.3736 H   0  0  0  0  0  0  0  0  0  0  0  0
  144.4630  135.2892  150.6058 H   0  0  0  0  0  0  0  0  0  0  0  0
  146.1474  135.1306  150.0999 H   0  0  0  0  0  0  0  0  0  0  0  0
  144.2670  132.9082  150.9363 H   0  0  0  0  0  0  0  0  0  0  0  0
  145.2720  132.9601  149.4886 H   0  0  0  0  0  0  0  0  0  0  0  0
  145.3735  131.1947  152.6849 H   0  0  0  0  0  0  0  0  0  0  0  0
  145.6089  130.6055  151.0520 H   0  0  0  0  0  0  0  0  0  0  0  0
  147.9715  130.8738  151.7401 H   0  0  0  0  0  0  0  0  0  0  0  0
  150.2258  131.5761  154.0523 H   0  0  0  0  0  0  0  0  0  0  0  0
  152.9187  132.4044  157.6324 H   0  0  0  0  0  0  0  0  0  0  0  0
  152.1002  130.9229  157.9739 H   0  0  0  0  0  0  0  0  0  0  0  0
  156.2726  130.8869  155.1184 H   0  0  0  0  0  0  0  0  0  0  0  0
  155.2962  129.1452  153.5504 H   0  0  0  0  0  0  0  0  0  0  0  0
  152.8156  128.6643  153.7923 H   0  0  0  0  0  0  0  0  0  0  0  0
  148.1867  139.0485  154.3197 H   0  0  0  0  0  0  0  0  0  0  0  0
  147.2387  135.3424  154.1723 H   0  0  0  0  0  0  0  0  0  0  0  0
  1  2  1  0  0  0  0
  1 36  1  0  0  0  0
  1 37  1  0  0  0  0
  1 38  1  0  0  0  0
  2  3  1  0  0  0  0
  3 33  1  0  0  0  0
  3  4  2  0  0  0  0
  4  5  1  0  0  0  0
  4 39  1  0  0  0  0
  5  6  2  0  0  0  0
  5 40  1  0  0  0  0
  6  7  1  0  0  0  0
  6 32  1  0  0  0  0
  7  8  1  0  0  0  0
  7 41  1  0  0  0  0
  7 42  1  0  0  0  0
  8  9  1  0  0  0  0
  8 43  1  0  0  0  0
  9 21  1  0  0  0  0
  9 10  2  0  0  0  0
 10 11  1  0  0  0  0
 10 60  1  0  0  0  0
 11 12  1  0  0  0  0
 11 19  2  0  0  0  0
 12 16  1  0  0  0  0
 12 13  1  0  0  0  0
 13 14  1  0  0  0  0
 13 44  1  0  0  0  0
 13 45  1  0  0  0  0
 14 15  1  0  0  0  0
 14 46  1  0  0  0  0
 14 47  1  0  0  0  0
 15 16  1  0  0  0  0
 15 48  1  0  0  0  0
 15 49  1  0  0  0  0
 16 35  1  0  0  0  0
 16 17  1  0  0  0  0
 17 18  1  0  0  0  0
 17 50  1  0  0  0  0
 17 51  1  0  0  0  0
 18 52  1  0  0  0  0
 19 20  1  0  0  0  0
 20 21  2  0  0  0  0
 20 53  1  0  0  0  0
 21 22  1  0  0  0  0
 22 23  2  0  0  0  0
 22 24  1  0  0  0  0
 24 25  1  0  0  0  0
 25 26  1  0  0  0  0
 25 54  1  0  0  0  0
 25 55  1  0  0  0  0
 26 31  1  0  0  0  0
 26 27  2  0  0  0  0
 27 28  1  0  0  0  0
 28 29  2  0  0  0  0
 28 56  1  0  0  0  0
 29 30  1  0  0  0  0
 29 57  1  0  0  0  0
 30 31  2  0  0  0  0
 30 58  1  0  0  0  0
 32 33  2  0  0  0  0
 32 59  1  0  0  0  0
 33 34  1  0  0  0  0
M  CHG  1  10   1
M  CHG  1  24  -1
M  END
> <s_m_source_file>
AV-unprocessed.smi

> <i_m_source_file_index>
45

> <i_lp_mmshare_version>
43012

> <i_f3d_flags>
0

> <s_epik_input>
W0NIM11PYzFbY0hdW2NIXWMoW2NIXWMxQ2wpW0NIMl1bTkhdYzJuYyhOM1tDSDJdW0NIMl1bQ0gyXVtDQEhdM1tDSDJdW09IXSluW2NIXWMyQyg9TylbTkhdW0NIMl1jNG5bY0hdW2NIXVtjSF1uNA==

> <s_epik_cmdline>
J2VwaWtfcHl0aG9uJywgJy1waCcsICc3LjAnLCAnLXRuJywgJzgnLCAnLW1hJywgJzIwMCcsICctbWV0YWxfYmluZGluZycsICctaW1hZScsICc8aW5maWxlLm1hZT4nLCAnLW9tYWUnLCAnPG91dGZpbGUubWFlPic=

> <r_lp_tautomer_probability>
0.424989

> <r_epik_Ionization_Penalty>
7.51351

> <r_epik_Ionization_Penalty_Charging>
7.51312

> <r_epik_Ionization_Penalty_Neutral>
0.00038389

> <r_epik_State_Penalty>
8.64696

> <r_epik_Charging_Adjusted_Penalty>
16.1601

> <i_epik_Tot_Q>
0

> <i_epik_Tot_abs_Q>
2

> <r_epik_Metal_State_Penalty>
4.61083

> <b_epik_Metal_Only>
1

> <s_epik_Chemistry_Notes>
This compound contains an electron-poor aromatic ring that is susceptible to covalent hydrolysis at low pH, typically resulting in measured values for nitrogen ring protonation that are around two units higher than predicted values.

> <s_lp_Force_Field>
OPLS_2005

> <r_lp_Energy>
41.8384

> <b_lp_Chiralities_Consistent>
1

> <s_lp_Variant>
AV-unprocessed.smi:45-12

> <Gold.Version>
5.8.1

> <Gold.Id.Protein>
6NUR|6NUR_protein|mol2

> <Gold.PLP.Fitness>
51.4379

> <Gold.PLP.PLP>
-44.5642

> <Gold.PLP.part.hbond>
-2.9531

> <Gold.PLP.part.metal>
0.0000

> <Gold.PLP.part.buried>
-3.0152

> <Gold.PLP.part.nonpolar>
-37.6664

> <Gold.PLP.part.repulsive>
0.2623

> <Gold.PLP.ligand.clash>
0.0000

> <Gold.PLP.ligand.torsion>
1.6440

> <Gold.PLP.Chemscore.Hbond>
1.6289

> <Gold.PLP.Chemscore.CHOScore>
1.0000

> <Gold.PLP.Chemscore.Metal>
0.0000

> <Gold.Chemscore.Hbonds>
donor molecule, donor type, donor heavy atom, donor atom, acceptor molecule, acceptor atom, score
      L1  H    18    52       P1 10747  1.00
      P1  H 10752 10763       L1    23  0.64
      L1  C    30    58       P1 10737  0.88

> <Gold.PLP.Chemscore.Internal.Correction>
2.2748

> <Gold.Rescore>
     Score         DG    S(hbond)    S(metal)    S(lipo)     H(rot)  DE(clash)    DE(int)     intcor
      9.94     -14.46       1.51        0.00      97.08       2.90       0.07       4.45       ----

> <Gold.Chemscore.Fitness>
9.9412

> <Gold.Chemscore.DG>
-14.4595

> <Gold.Chemscore.ZeroCoef>
-5.4800

> <Gold.Chemscore.Hbond>
1.5096

> <Gold.Chemscore.Metal>
0.0000

> <Gold.Chemscore.Lipo>
97.0807

> <Gold.Chemscore.Internal_Hbond>
0.0000

> <Gold.Chemscore.DEClash>
0.0689

> <Gold.Chemscore.DEInternal>
4.4493

> <Gold.Chemscore.Rot>
2.8988

> <Gold.Chemscore.Internal.Correction>
   9.000000E+99

> <Gold.Chemscore.Hbonds>
donor molecule, donor type, donor heavy atom, donor atom, acceptor molecule, acceptor atom, score
      L1  H    18    52       P1 10747  0.97
      P1  H 10752 10763       L1    23  0.62

> <Gold.Chemscore.Hbond.Weighted>
-5.0419

> <Gold.Chemscore.Metal.Weighted>
-0.0000

> <Gold.Chemscore.Lipo.Weighted>
-11.3584

> <Gold.Chemscore.Internal_Hbond.Weighted>
0.0000

> <Gold.Chemscore.DEClash.Weighted>
0.0689

> <Gold.Chemscore.DEInternal.Weighted>
4.4493

> <Gold.Chemscore.Rot.Weighted>
7.4209

> <Gold.Chemscore.Internal.Correction.Weighted>
   9.000000E+99

> <Gold.Protein.RotatedTorsions>
[ 6907 6896 6895 6894 ] final  140.98 input  -60.11 | X-H torsion
[ 7974 7965 7964 7962 ] final    9.09 input  175.53 | X-H torsion
[ 8008 7997 7996 7995 ] final -175.14 input   59.86 | X-H torsion
[ 10167 10162 10161 10158 ] final  -35.15 input  -65.29 | X-H torsion
[ 10718 10713 10712 10709 ] final -154.70 input   66.30 | X-H torsion
[ 10763 10752 10751 10750 ] final   92.43 input  -60.55 | X-H torsion
[ 11005 11000 10999 10996 ] final  -85.39 input  -57.11 | X-H torsion

> <Gold.Protein.ActiveResidues>
 VAL166  LYS551  ARG553  GLY616  TRP617  ASP618  TYR619  PRO620  LYS621  CYS622 
 ASP623  PHE694  ASN695  SER759  ASP760  ASP761  ALA762  ILE779  LEU786  VAL792 
 PHE793  MET794  SER795  GLU796  ALA797  LYS798  CYS799  TRP800  GLU811  SER814 

> <Gold.Protein.RotatedAtoms>
  152.2366  133.5101  159.5245 H   0  0  0  0  0  0  0  0  0  0  0  0  # atno 6907 bound_to 6896
  150.7052  134.1146  159.4021 H   0  0  0  0  0  0  0  0  0  0  0  0  # atno 6908 bound_to 6896
  151.9067  135.0356  160.0561 H   0  0  0  0  0  0  0  0  0  0  0  0  # atno 6909 bound_to 6896
  146.2408  139.9836  142.8433 H   0  0  0  0  0  0  0  0  0  0  0  0  # atno 7974 bound_to 7965
  155.9789  140.1177  157.0745 H   0  0  0  0  0  0  0  0  0  0  0  0  # atno 8008 bound_to 7997
  154.4177  140.1148  156.5475 H   0  0  0  0  0  0  0  0  0  0  0  0  # atno 8009 bound_to 7997
  155.6498  140.3473  155.4746 H   0  0  0  0  0  0  0  0  0  0  0  0  # atno 8010 bound_to 7997
  140.7171  143.3497  151.2181 H   0  0  0  0  0  0  0  0  0  0  0  0  # atno 10167 bound_to 10162
  156.5028  130.8399  151.2616 H   0  0  0  0  0  0  0  0  0  0  0  0  # atno 10718 bound_to 10713
  153.2191  135.4362  155.0468 H   0  0  0  0  0  0  0  0  0  0  0  0  # atno 10763 bound_to 10752
  154.8240  135.3352  154.6954 H   0  0  0  0  0  0  0  0  0  0  0  0  # atno 10764 bound_to 10752
  153.7387  135.7006  153.5028 H   0  0  0  0  0  0  0  0  0  0  0  0  # atno 10765 bound_to 10752
  141.1641  133.7397  156.9008 H   0  0  0  0  0  0  0  0  0  0  0  0  # atno 11005 bound_to 11000
  145.1569  140.9652  143.4400 LP  0  0  0  0  0  0  0  0  0  0  0  0  # atno 17320 bound_to 7965
  145.0152  139.3473  143.6100 LP  0  0  0  0  0  0  0  0  0  0  0  0  # atno 17321 bound_to 7965
  139.7025  143.9509  152.2912 LP  0  0  0  0  0  0  0  0  0  0  0  0  # atno 17342 bound_to 10162
  139.9207  144.6801  150.8464 LP  0  0  0  0  0  0  0  0  0  0  0  0  # atno 17343 bound_to 10162
  157.7461  130.9976  150.2821 LP  0  0  0  0  0  0  0  0  0  0  0  0  # atno 17370 bound_to 10713
  156.3316  130.3801  149.7486 LP  0  0  0  0  0  0  0  0  0  0  0  0  # atno 17371 bound_to 10713
  140.1584  134.9183  157.2683 LP  0  0  0  0  0  0  0  0  0  0  0  0  # atno 17394 bound_to 11000
  140.2641  134.3537  155.7396 LP  0  0  0  0  0  0  0  0  0  0  0  0  # atno 17395 bound_to 11000

$$$$
