AV-unprocessed.smi:3155|AV-procd|sdf|12025|dock9
  -GOLD-   2272017443D 1   1.00000     0.00000
 Structure written by MMmdl.
 38 39  0  0  0  0  0  0  0  0  2 V2000
  147.7593  142.0669  154.5980 C   0  0  0  0  0  0  0  0  0  0  0  0
  149.1598  141.4314  154.5603 C   0  0  2  0  0  0  0  0  0  0  0  0
  149.1196  139.8965  154.7512 C   0  0  0  0  0  0  0  0  0  0  0  0
  150.4223  139.2700  154.6164 N   0  0  0  0  0  0  0  0  0  0  0  0
  150.7180  137.9700  154.2631 C   0  0  0  0  0  0  0  0  0  0  0  0
  152.0776  137.8447  154.2794 C   0  0  0  0  0  0  0  0  0  0  0  0
  152.5319  139.1354  154.6692 C   0  0  0  0  0  0  0  0  0  0  0  0
  151.5383  139.9853  154.8741 N   0  0  0  0  0  0  0  0  0  0  0  0
  150.0125  142.0778  155.5828 N   0  3  0  0  0  0  0  0  0  0  0  0
  149.9209  141.5113  156.9468 C   0  0  0  0  0  0  0  0  0  0  0  0
  150.4700  142.4722  158.0116 C   0  0  0  0  0  0  0  0  0  0  0  0
  149.8984  143.5439  158.2180 O   0  0  0  0  0  0  0  0  0  0  0  0
  151.5759  142.1067  158.6921 N   0  0  0  0  0  0  0  0  0  0  0  0
  152.1833  142.9191  159.7447 C   0  0  0  0  0  0  0  0  0  0  0  0
  153.2201  142.0177  160.4151 C   0  0  0  0  0  0  0  0  0  0  0  0
  153.5979  141.0165  159.3321 C   0  0  0  0  0  0  0  0  0  0  0  0
  152.3241  140.8647  158.5003 C   0  0  0  0  0  0  0  0  0  0  0  0
  147.1248  141.6948  153.7932 H   0  0  0  0  0  0  0  0  0  0  0  0
  147.8173  143.1501  154.4845 H   0  0  0  0  0  0  0  0  0  0  0  0
  147.2559  141.8580  155.5426 H   0  0  0  0  0  0  0  0  0  0  0  0
  149.5900  141.6542  153.5826 H   0  0  0  0  0  0  0  0  0  0  0  0
  148.7301  139.6347  155.7351 H   0  0  0  0  0  0  0  0  0  0  0  0
  148.4474  139.4454  154.0200 H   0  0  0  0  0  0  0  0  0  0  0  0
  149.9466  137.2509  154.0291 H   0  0  0  0  0  0  0  0  0  0  0  0
  152.6599  136.9645  154.0509 H   0  0  0  0  0  0  0  0  0  0  0  0
  153.5470  139.4767  154.8098 H   0  0  0  0  0  0  0  0  0  0  0  0
  150.9733  141.9787  155.2871 H   0  0  0  0  0  0  0  0  0  0  0  0
  148.8800  141.2851  157.1760 H   0  0  0  0  0  0  0  0  0  0  0  0
  150.4833  140.5778  156.9888 H   0  0  0  0  0  0  0  0  0  0  0  0
  152.6654  143.7864  159.2912 H   0  0  0  0  0  0  0  0  0  0  0  0
  151.4468  143.2785  160.4654 H   0  0  0  0  0  0  0  0  0  0  0  0
  154.0776  142.5712  160.7989 H   0  0  0  0  0  0  0  0  0  0  0  0
  152.7600  141.4921  161.2530 H   0  0  0  0  0  0  0  0  0  0  0  0
  154.3921  141.4335  158.7113 H   0  0  0  0  0  0  0  0  0  0  0  0
  153.9538  140.0689  159.7376 H   0  0  0  0  0  0  0  0  0  0  0  0
  151.7290  140.0278  158.8682 H   0  0  0  0  0  0  0  0  0  0  0  0
  152.5615  140.6815  157.4516 H   0  0  0  0  0  0  0  0  0  0  0  0
  149.7948  143.0635  155.6207 H   0  0  0  0  0  0  0  0  0  0  0  0
  1  2  1  0  0  0  0
  1 18  1  0  0  0  0
  1 19  1  0  0  0  0
  1 20  1  0  0  0  0
  2  3  1  0  0  0  0
  2  9  1  0  0  0  0
  2 21  1  0  0  0  0
  3  4  1  0  0  0  0
  3 22  1  0  0  0  0
  3 23  1  0  0  0  0
  4  8  1  0  0  0  0
  4  5  1  0  0  0  0
  5  6  2  0  0  0  0
  5 24  1  0  0  0  0
  6  7  1  0  0  0  0
  6 25  1  0  0  0  0
  7  8  2  0  0  0  0
  7 26  1  0  0  0  0
  9 10  1  0  0  0  0
  9 27  1  0  0  0  0
  9 38  1  0  0  0  0
 10 11  1  0  0  0  0
 10 28  1  0  0  0  0
 10 29  1  0  0  0  0
 11 12  2  0  0  0  0
 11 13  1  0  0  0  0
 13 17  1  0  0  0  0
 13 14  1  0  0  0  0
 14 15  1  0  0  0  0
 14 30  1  0  0  0  0
 14 31  1  0  0  0  0
 15 16  1  0  0  0  0
 15 32  1  0  0  0  0
 15 33  1  0  0  0  0
 16 17  1  0  0  0  0
 16 34  1  0  0  0  0
 16 35  1  0  0  0  0
 17 36  1  0  0  0  0
 17 37  1  0  0  0  0
M  CHG  1   9   1
M  END
> <s_m_source_file>
AV-unprocessed.smi

> <i_m_source_file_index>
3155

> <i_lp_mmshare_version>
43012

> <i_f3d_flags>
0

> <s_epik_input>
bjFbY0hdW2NIXVtjSF1uMVtDSDJdW0NAQEhdKFtDSDNdKVtOSF1bQ0gyXUMoPU8pTjJbQ0gyXVtDSDJdW0NIMl1bQ0gyXTI=

> <s_epik_cmdline>
J2VwaWtfcHl0aG9uJywgJy1waCcsICc3LjAnLCAnLXRuJywgJzgnLCAnLW1hJywgJzIwMCcsICctbWV0YWxfYmluZGluZycsICctaW1hZScsICc8aW5maWxlLm1hZT4nLCAnLW9tYWUnLCAnPG91dGZpbGUubWFlPic=

> <r_lp_tautomer_probability>
1

> <r_epik_Ionization_Penalty>
0.120138

> <r_epik_Ionization_Penalty_Charging>
0.120135

> <r_epik_Ionization_Penalty_Neutral>
3.43791e-06

> <r_epik_State_Penalty>
0.109683

> <r_epik_Charging_Adjusted_Penalty>
0.229818

> <i_epik_Tot_Q>
1

> <i_epik_Tot_abs_Q>
1

> <r_epik_Metal_State_Penalty>
0.109693

> <b_epik_Metal_Only>
0

> <s_lp_Force_Field>
OPLS_2005

> <r_lp_Energy>
27.5308

> <b_lp_Chiralities_Consistent>
1

> <s_lp_Variant>
AV-unprocessed.smi:3155-1

> <Gold.Version>
5.8.1

> <Gold.Id.Protein>
6NUR|6NUR_protein|mol2

> <Gold.PLP.Fitness>
49.0738

> <Gold.PLP.PLP>
-38.4731

> <Gold.PLP.part.hbond>
-2.0000

> <Gold.PLP.part.metal>
0.0000

> <Gold.PLP.part.buried>
-2.2132

> <Gold.PLP.part.nonpolar>
-35.1249

> <Gold.PLP.part.repulsive>
1.0031

> <Gold.PLP.ligand.clash>
0.0000

> <Gold.PLP.ligand.torsion>
0.7115

> <Gold.PLP.Chemscore.Hbond>
3.0000

> <Gold.PLP.Chemscore.CHOScore>
1.0000

> <Gold.PLP.Chemscore.Metal>
0.0000

> <Gold.Chemscore.Hbonds>
donor molecule, donor type, donor heavy atom, donor atom, acceptor molecule, acceptor atom, score
      L1  H     9    38       P1  8028  2.00
      P1  H  7989  7998       L1     8  0.95
      L1  C     5    24       P1  7948  0.93

> <Gold.PLP.Chemscore.Internal.Correction>
0.0236

> <Gold.Rescore>
     Score         DG    S(hbond)    S(metal)    S(lipo)     H(rot)  DE(clash)    DE(int)     intcor
     15.76     -16.70       1.67        0.00      88.30       1.84       0.23       0.71       ----

> <Gold.Chemscore.Fitness>
15.7550

> <Gold.Chemscore.DG>
-16.6954

> <Gold.Chemscore.ZeroCoef>
-5.4800

> <Gold.Chemscore.Hbond>
1.6725

> <Gold.Chemscore.Metal>
0.0000

> <Gold.Chemscore.Lipo>
88.2988

> <Gold.Chemscore.Internal_Hbond>
0.0000

> <Gold.Chemscore.DEClash>
0.2262

> <Gold.Chemscore.DEInternal>
0.7142

> <Gold.Chemscore.Rot>
1.8366

> <Gold.Chemscore.Internal.Correction>
   9.000000E+99

> <Gold.Chemscore.Hbonds>
donor molecule, donor type, donor heavy atom, donor atom, acceptor molecule, acceptor atom, score
      L1  H     9    38       P1  8028  1.00
      P1  H  7989  7998       L1     8  0.06

> <Gold.Chemscore.Hbond.Weighted>
-5.5861

> <Gold.Chemscore.Metal.Weighted>
-0.0000

> <Gold.Chemscore.Lipo.Weighted>
-10.3310

> <Gold.Chemscore.Internal_Hbond.Weighted>
0.0000

> <Gold.Chemscore.DEClash.Weighted>
0.2262

> <Gold.Chemscore.DEInternal.Weighted>
0.7142

> <Gold.Chemscore.Rot.Weighted>
4.7017

> <Gold.Chemscore.Internal.Correction.Weighted>
   9.000000E+99

> <Gold.Protein.RotatedTorsions>
[ 6907 6896 6895 6894 ] final  161.56 input  -60.11 | X-H torsion
[ 7974 7965 7964 7962 ] final  117.33 input  175.53 | X-H torsion
[ 8008 7997 7996 7995 ] final  156.33 input   59.86 | X-H torsion
[ 10167 10162 10161 10158 ] final -173.88 input  -65.29 | X-H torsion
[ 10718 10713 10712 10709 ] final  -13.25 input   66.30 | X-H torsion
[ 10763 10752 10751 10750 ] final -159.41 input  -60.55 | X-H torsion
[ 11005 11000 10999 10996 ] final   46.32 input  -57.11 | X-H torsion

> <Gold.Protein.ActiveResidues>
 VAL166  LYS551  ARG553  GLY616  TRP617  ASP618  TYR619  PRO620  LYS621  CYS622 
 ASP623  PHE694  ASN695  SER759  ASP760  ASP761  ALA762  ILE779  LEU786  VAL792 
 PHE793  MET794  SER795  GLU796  ALA797  LYS798  CYS799  TRP800  GLU811  SER814 

> <Gold.Protein.RotatedAtoms>
  151.9538  133.3674  159.4009 H   0  0  0  0  0  0  0  0  0  0  0  0  # atno 6907 bound_to 6896
  150.6976  134.4313  159.5259 H   0  0  0  0  0  0  0  0  0  0  0  0  # atno 6908 bound_to 6896
  152.1990  134.8605  160.0560 H   0  0  0  0  0  0  0  0  0  0  0  0  # atno 6909 bound_to 6896
  145.1687  139.3114  143.4479 H   0  0  0  0  0  0  0  0  0  0  0  0  # atno 7974 bound_to 7965
  156.2428  140.1915  156.6939 H   0  0  0  0  0  0  0  0  0  0  0  0  # atno 8008 bound_to 7997
  154.6231  140.0606  156.9666 H   0  0  0  0  0  0  0  0  0  0  0  0  # atno 8009 bound_to 7997
  155.1830  140.3278  155.4374 H   0  0  0  0  0  0  0  0  0  0  0  0  # atno 8010 bound_to 7997
  139.5664  144.1746  152.1318 H   0  0  0  0  0  0  0  0  0  0  0  0  # atno 10167 bound_to 10162
  156.6330  130.4907  149.6122 H   0  0  0  0  0  0  0  0  0  0  0  0  # atno 10718 bound_to 10713
  154.7477  135.3084  154.8614 H   0  0  0  0  0  0  0  0  0  0  0  0  # atno 10763 bound_to 10752
  153.9411  135.6774  153.4748 H   0  0  0  0  0  0  0  0  0  0  0  0  # atno 10764 bound_to 10752
  153.1073  135.4883  154.8901 H   0  0  0  0  0  0  0  0  0  0  0  0  # atno 10765 bound_to 10752
  140.1380  134.4620  155.8471 H   0  0  0  0  0  0  0  0  0  0  0  0  # atno 11005 bound_to 11000
  146.3472  140.1824  142.8589 LP  0  0  0  0  0  0  0  0  0  0  0  0  # atno 17320 bound_to 7965
  145.0255  140.8829  143.5141 LP  0  0  0  0  0  0  0  0  0  0  0  0  # atno 17321 bound_to 7965
  140.1269  144.5323  150.6827 LP  0  0  0  0  0  0  0  0  0  0  0  0  # atno 17342 bound_to 10162
  140.6947  143.2397  151.5033 LP  0  0  0  0  0  0  0  0  0  0  0  0  # atno 17343 bound_to 10162
  156.2220  130.6742  151.1377 LP  0  0  0  0  0  0  0  0  0  0  0  0  # atno 17370 bound_to 10713
  157.7194  131.0690  150.6196 LP  0  0  0  0  0  0  0  0  0  0  0  0  # atno 17371 bound_to 10713
  141.2181  133.6821  156.7193 LP  0  0  0  0  0  0  0  0  0  0  0  0  # atno 17394 bound_to 11000
  140.2758  134.8356  157.3889 LP  0  0  0  0  0  0  0  0  0  0  0  0  # atno 17395 bound_to 11000

$$$$
