AV-unprocessed.smi:623|AV-procd|sdf|3093|dock1
  -GOLD-   22720 0 13D 1   1.00000     0.00000
 Structure written by MMmdl.
 45 47  0  0  0  0  0  0  0  0  1 V2000
  150.4972  138.7504  154.0849 C   0  0  0  0  0  0  0  0  0  0  0  0
  150.2819  139.6457  155.3384 C   0  0  0  0  0  0  0  0  0  0  0  0
  151.6191  139.5658  156.1280 C   0  0  0  0  0  0  0  0  0  0  0  0
  149.8176  141.0814  155.0204 C   0  0  2  0  0  0  0  0  0  0  0  0
  149.5798  141.7025  156.4157 C   0  0  0  0  0  0  0  0  0  0  0  0
  149.0307  140.5089  157.2245 C   0  0  0  0  0  0  0  0  0  0  0  0
  148.9997  139.3686  156.1738 C   0  0  2  0  0  0  0  0  0  0  0  0
  148.9056  137.9725  156.8206 C   0  0  0  0  0  0  0  0  0  0  0  0
  147.8222  139.7390  155.2191 C   0  0  2  0  0  0  0  0  0  0  0  0
  147.3783  138.6170  154.3969 N   0  0  0  0  0  0  0  0  0  0  0  0
  146.1778  138.0160  154.4163 C   0  0  0  0  0  0  0  0  0  0  0  0
  145.2507  138.3855  155.1354 O   0  0  0  0  0  0  0  0  0  0  0  0
  145.9835  136.7916  153.5050 C   0  0  0  0  0  0  0  0  0  0  0  0
  144.6229  136.2276  153.5374 N   0  0  0  0  0  0  0  0  0  0  0  0
  143.5415  137.0036  153.1437 C   0  0  0  0  0  0  0  0  0  0  0  0
  142.2586  136.5739  153.1912 C   0  0  0  0  0  0  0  0  0  0  0  0
  141.9465  135.2333  153.6743 C   0  0  0  0  0  0  0  0  0  0  0  0
  140.8178  134.7547  153.7577 O   0  0  0  0  0  0  0  0  0  0  0  0
  143.0604  134.4833  154.0601 N   0  0  0  0  0  0  0  0  0  0  0  0
  144.3851  134.9200  154.0146 C   0  0  0  0  0  0  0  0  0  0  0  0
  145.2925  134.1816  154.3945 O   0  0  0  0  0  0  0  0  0  0  0  0
  148.4253  140.8852  154.3773 C   0  0  0  0  0  0  0  0  0  0  0  0
  142.8932  133.5485  154.4035 H   0  0  0  0  0  0  0  0  0  0  0  0
  151.3894  139.0616  153.5408 H   0  0  0  0  0  0  0  0  0  0  0  0
  149.6908  138.7634  153.3575 H   0  0  0  0  0  0  0  0  0  0  0  0
  150.6461  137.7090  154.3708 H   0  0  0  0  0  0  0  0  0  0  0  0
  151.6477  140.1385  157.0522 H   0  0  0  0  0  0  0  0  0  0  0  0
  152.4472  139.9287  155.5182 H   0  0  0  0  0  0  0  0  0  0  0  0
  151.8482  138.5341  156.3960 H   0  0  0  0  0  0  0  0  0  0  0  0
  150.5019  141.6605  154.3999 H   0  0  0  0  0  0  0  0  0  0  0  0
  150.5044  142.0836  156.8496 H   0  0  0  0  0  0  0  0  0  0  0  0
  148.8756  142.5348  156.3831 H   0  0  0  0  0  0  0  0  0  0  0  0
  149.6834  140.2715  158.0648 H   0  0  0  0  0  0  0  0  0  0  0  0
  148.0482  140.7189  157.6494 H   0  0  0  0  0  0  0  0  0  0  0  0
  147.9670  137.8589  157.3633 H   0  0  0  0  0  0  0  0  0  0  0  0
  149.7174  137.8089  157.5295 H   0  0  0  0  0  0  0  0  0  0  0  0
  148.9566  137.1760  156.0781 H   0  0  0  0  0  0  0  0  0  0  0  0
  146.9729  140.1175  155.7903 H   0  0  0  0  0  0  0  0  0  0  0  0
  148.0678  138.2354  153.7657 H   0  0  0  0  0  0  0  0  0  0  0  0
  146.2308  137.0864  152.4841 H   0  0  0  0  0  0  0  0  0  0  0  0
  146.7261  136.0368  153.7697 H   0  0  0  0  0  0  0  0  0  0  0  0
  143.7265  138.0072  152.7877 H   0  0  0  0  0  0  0  0  0  0  0  0
  141.4585  137.2267  152.8736 H   0  0  0  0  0  0  0  0  0  0  0  0
  147.8169  141.7890  154.4280 H   0  0  0  0  0  0  0  0  0  0  0  0
  148.5073  140.6256  153.3215 H   0  0  0  0  0  0  0  0  0  0  0  0
  1  2  1  0  0  0  0
  1 24  1  0  0  0  0
  1 25  1  0  0  0  0
  1 26  1  0  0  0  0
  2  7  1  0  0  0  0
  2  3  1  0  0  0  0
  2  4  1  0  0  0  0
  3 27  1  0  0  0  0
  3 28  1  0  0  0  0
  3 29  1  0  0  0  0
  4 22  1  0  0  0  0
  4  5  1  0  0  0  0
  4 30  1  0  0  0  0
  5  6  1  0  0  0  0
  5 31  1  0  0  0  0
  5 32  1  0  0  0  0
  6  7  1  0  0  0  0
  6 33  1  0  0  0  0
  6 34  1  0  0  0  0
  7  8  1  0  0  0  0
  7  9  1  0  0  0  0
  8 35  1  0  0  0  0
  8 36  1  0  0  0  0
  8 37  1  0  0  0  0
  9 10  1  0  0  0  0
  9 22  1  0  0  0  0
  9 38  1  0  0  0  0
 10 11  1  0  0  0  0
 10 39  1  0  0  0  0
 11 12  2  0  0  0  0
 11 13  1  0  0  0  0
 13 14  1  0  0  0  0
 13 40  1  0  0  0  0
 13 41  1  0  0  0  0
 14 20  1  0  0  0  0
 14 15  1  0  0  0  0
 15 16  2  0  0  0  0
 15 42  1  0  0  0  0
 16 17  1  0  0  0  0
 16 43  1  0  0  0  0
 17 18  2  0  0  0  0
 17 19  1  0  0  0  0
 19 23  1  0  0  0  0
 19 20  1  0  0  0  0
 20 21  2  0  0  0  0
 22 44  1  0  0  0  0
 22 45  1  0  0  0  0
M  END
> <s_m_source_file>
AV-unprocessed.smi

> <i_m_source_file_index>
623

> <i_lp_mmshare_version>
43012

> <i_f3d_flags>
0

> <s_epik_input>
W0NIM11bQ0BdMTJDKFtDSDNdKShbQ0gzXSlbQ0BIXShbQ0gyXVtDSDJdMSlbQ0gyXVtDQEBIXTJbTkhdQyg9TylbQ0gyXW4zW2NIXVtjSF1jKD1PKVtuSF1jMz1P

> <s_epik_cmdline>
J2VwaWtfcHl0aG9uJywgJy1waCcsICc3LjAnLCAnLXRuJywgJzgnLCAnLW1hJywgJzIwMCcsICctbWV0YWxfYmluZGluZycsICctaW1hZScsICc8aW5maWxlLm1hZT4nLCAnLW9tYWUnLCAnPG91dGZpbGUubWFlPic=

> <r_lp_tautomer_probability>
0.999537

> <r_epik_Ionization_Penalty>
0.00303563

> <r_epik_Ionization_Penalty_Charging>
0.00303561

> <r_epik_Ionization_Penalty_Neutral>
2.03238e-08

> <r_epik_State_Penalty>
0.00213308

> <r_epik_Charging_Adjusted_Penalty>
0.00516869

> <i_epik_Tot_Q>
0

> <i_epik_Tot_abs_Q>
0

> <r_epik_Metal_State_Penalty>
0.361714

> <b_epik_Metal_Only>
0

> <s_lp_Force_Field>
OPLS_2005

> <r_lp_Energy>
55.1954

> <b_lp_Chiralities_Consistent>
1

> <s_lp_Variant>
AV-unprocessed.smi:623-3

> <Gold.Version>
5.8.1

> <Gold.Id.Protein>
6NUR|6NUR_protein|mol2

> <Gold.PLP.Fitness>
36.0884

> <Gold.PLP.PLP>
-27.2187

> <Gold.PLP.part.hbond>
-2.9752

> <Gold.PLP.part.metal>
0.0000

> <Gold.PLP.part.buried>
-4.7128

> <Gold.PLP.part.nonpolar>
-19.9583

> <Gold.PLP.part.repulsive>
0.3586

> <Gold.PLP.ligand.clash>
0.0000

> <Gold.PLP.ligand.torsion>
0.0598

> <Gold.PLP.Chemscore.Hbond>
1.9913

> <Gold.PLP.Chemscore.CHOScore>
1.0000

> <Gold.PLP.Chemscore.Metal>
0.0000

> <Gold.Chemscore.Hbonds>
donor molecule, donor type, donor heavy atom, donor atom, acceptor molecule, acceptor atom, score
      L1  H    19    23       P1 10957  1.00
      P1  H 11000 11005       L1    18  0.89
      L1  C    15    42       P1 10175  1.00

> <Gold.PLP.Chemscore.Internal.Correction>
0.0155

> <Gold.Rescore>
     Score         DG    S(hbond)    S(metal)    S(lipo)     H(rot)  DE(clash)    DE(int)     intcor
     14.33     -14.71       1.89        0.00      61.45       1.66       0.16       0.23       ----

> <Gold.Chemscore.Fitness>
14.3254

> <Gold.Chemscore.DG>
-14.7127

> <Gold.Chemscore.ZeroCoef>
-5.4800

> <Gold.Chemscore.Hbond>
1.8877

> <Gold.Chemscore.Metal>
0.0000

> <Gold.Chemscore.Lipo>
61.4471

> <Gold.Chemscore.Internal_Hbond>
0.0000

> <Gold.Chemscore.DEClash>
0.1568

> <Gold.Chemscore.DEInternal>
0.2304

> <Gold.Chemscore.Rot>
1.6647

> <Gold.Chemscore.Internal.Correction>
   9.000000E+99

> <Gold.Chemscore.Hbonds>
donor molecule, donor type, donor heavy atom, donor atom, acceptor molecule, acceptor atom, score
      L1  H    19    23       P1 10957  1.00
      P1  H 11000 11005       L1    18  0.65

> <Gold.Chemscore.Hbond.Weighted>
-6.3050

> <Gold.Chemscore.Metal.Weighted>
-0.0000

> <Gold.Chemscore.Lipo.Weighted>
-7.1893

> <Gold.Chemscore.Internal_Hbond.Weighted>
0.0000

> <Gold.Chemscore.DEClash.Weighted>
0.1568

> <Gold.Chemscore.DEInternal.Weighted>
0.2304

> <Gold.Chemscore.Rot.Weighted>
4.2617

> <Gold.Chemscore.Internal.Correction.Weighted>
   9.000000E+99

> <Gold.Protein.RotatedTorsions>
[ 6907 6896 6895 6894 ] final   68.88 input  -60.11 | X-H torsion
[ 7974 7965 7964 7962 ] final    2.24 input  175.53 | X-H torsion
[ 8008 7997 7996 7995 ] final  -96.86 input   59.86 | X-H torsion
[ 10167 10162 10161 10158 ] final -142.71 input  -65.29 | X-H torsion
[ 10718 10713 10712 10709 ] final -162.61 input   66.30 | X-H torsion
[ 10763 10752 10751 10750 ] final   54.20 input  -60.55 | X-H torsion
[ 11005 11000 10999 10996 ] final   16.31 input  -57.11 | X-H torsion

> <Gold.Protein.ActiveResidues>
 VAL166  LYS551  ARG553  GLY616  TRP617  ASP618  TYR619  PRO620  LYS621  CYS622 
 ASP623  PHE694  ASN695  SER759  ASP760  ASP761  ALA762  ILE779  LEU786  VAL792 
 PHE793  MET794  SER795  GLU796  ALA797  LYS798  CYS799  TRP800  GLU811  SER814 

> <Gold.Protein.RotatedAtoms>
  152.4649  134.5098  159.9749 H   0  0  0  0  0  0  0  0  0  0  0  0  # atno 6907 bound_to 6896
  151.5138  133.3474  159.2897 H   0  0  0  0  0  0  0  0  0  0  0  0  # atno 6908 bound_to 6896
  150.8629  134.8014  159.7159 H   0  0  0  0  0  0  0  0  0  0  0  0  # atno 6909 bound_to 6896
  146.2443  140.0866  142.8354 H   0  0  0  0  0  0  0  0  0  0  0  0  # atno 7974 bound_to 7965
  154.7801  140.0468  157.1120 H   0  0  0  0  0  0  0  0  0  0  0  0  # atno 8008 bound_to 7997
  154.9715  140.3090  155.4966 H   0  0  0  0  0  0  0  0  0  0  0  0  # atno 8009 bound_to 7997
  156.2935  140.2252  156.4808 H   0  0  0  0  0  0  0  0  0  0  0  0  # atno 8010 bound_to 7997
  139.8062  143.7765  152.2661 H   0  0  0  0  0  0  0  0  0  0  0  0  # atno 10167 bound_to 10162
  156.6130  130.8858  151.2940 H   0  0  0  0  0  0  0  0  0  0  0  0  # atno 10718 bound_to 10713
  152.9802  135.5753  154.4865 H   0  0  0  0  0  0  0  0  0  0  0  0  # atno 10763 bound_to 10752
  154.4406  135.2776  155.1852 H   0  0  0  0  0  0  0  0  0  0  0  0  # atno 10764 bound_to 10752
  154.3522  135.6207  153.5702 H   0  0  0  0  0  0  0  0  0  0  0  0  # atno 10765 bound_to 10752
  140.4486  134.1248  155.7699 H   0  0  0  0  0  0  0  0  0  0  0  0  # atno 11005 bound_to 11000
  145.0686  140.9139  143.4895 LP  0  0  0  0  0  0  0  0  0  0  0  0  # atno 17320 bound_to 7965
  145.0996  139.2832  143.5693 LP  0  0  0  0  0  0  0  0  0  0  0  0  # atno 17321 bound_to 7965
  139.7900  144.7413  150.9968 LP  0  0  0  0  0  0  0  0  0  0  0  0  # atno 17342 bound_to 10162
  140.7819  143.4452  151.0493 LP  0  0  0  0  0  0  0  0  0  0  0  0  # atno 17343 bound_to 10162
  157.7249  130.9609  150.1592 LP  0  0  0  0  0  0  0  0  0  0  0  0  # atno 17370 bound_to 10713
  156.2374  130.3687  149.8375 LP  0  0  0  0  0  0  0  0  0  0  0  0  # atno 17371 bound_to 10713
  141.1674  133.8676  157.1674 LP  0  0  0  0  0  0  0  0  0  0  0  0  # atno 17394 bound_to 11000
  140.0022  135.0023  157.0214 LP  0  0  0  0  0  0  0  0  0  0  0  0  # atno 17395 bound_to 11000

$$$$
