AV-unprocessed.smi:149|AV-procd|sdf|1237|dock3
  -GOLD-   2262018453D 1   1.00000     0.00000
 Structure written by MMmdl.
 60 64  0  0  0  0  0  0  0  0  2 V2000
  150.0220  123.0747  153.0486 C   0  0  0  0  0  0  0  0  0  0  0  0
  149.1625  124.1984  152.4379 C   0  0  1  0  0  0  0  0  0  0  0  0
  149.2178  125.4525  153.3293 C   0  0  0  0  0  0  0  0  0  0  0  0
  149.3038  126.5988  152.4403 N   0  0  0  0  0  0  0  0  0  0  0  0
  148.8657  127.8220  152.8399 C   0  0  0  0  0  0  0  0  0  0  0  0
  149.5560  128.4782  153.8104 N   0  0  0  0  0  0  0  0  0  0  0  0
  149.1636  129.6860  154.2246 C   0  0  0  0  0  0  0  0  0  0  0  0
  148.1185  130.4072  153.8178 N   0  0  0  0  0  0  0  0  0  0  0  0
  147.4061  129.7508  152.8582 C   0  0  0  0  0  0  0  0  0  0  0  0
  147.7089  128.4696  152.3129 C   0  0  0  0  0  0  0  0  0  0  0  0
  146.7609  128.1380  151.3519 N   0  0  0  0  0  0  0  0  0  0  0  0
  145.9592  129.1666  151.3188 C   0  0  0  0  0  0  0  0  0  0  0  0
  146.2526  130.1702  152.2157 N   0  0  0  0  0  0  0  0  0  0  0  0
  145.5671  131.4250  152.3796 C   0  0  0  0  0  0  0  0  0  0  0  0
  144.3918  131.7887  151.4608 C   0  0  0  0  0  0  0  0  0  0  0  0
  145.3058  132.7477  150.6669 C   0  0  0  0  0  0  0  0  0  0  0  0
  145.9376  132.1134  149.4128 C   0  0  0  0  0  0  0  0  0  0  0  0
  145.0598  132.1629  148.3061 O   0  0  0  0  0  0  0  0  0  0  0  0
  144.6873  134.0915  150.2332 C   0  0  0  0  0  0  0  0  0  0  0  0
  143.6008  133.9290  149.3435 O   0  0  0  0  0  0  0  0  0  0  0  0
  146.1978  132.7510  151.9283 C   0  0  0  0  0  0  0  0  0  0  0  0
  149.1636  126.1632  151.0633 C   0  0  0  0  0  0  0  0  0  0  0  0
  149.6149  124.6967  151.0442 C   0  0  2  0  0  0  0  0  0  0  0  0
  149.0354  123.9844  149.8652 N   0  3  0  0  0  0  0  0  0  0  0  0
  147.5494  124.0301  149.8560 C   0  0  0  0  0  0  0  0  0  0  0  0
  146.9792  123.2244  148.6776 C   0  0  0  0  0  0  0  0  0  0  0  0
  147.5043  123.7329  147.4600 O   0  0  0  0  0  0  0  0  0  0  0  0
  148.9174  123.6002  147.4056 C   0  0  0  0  0  0  0  0  0  0  0  0
  149.5646  124.4082  148.5438 C   0  0  0  0  0  0  0  0  0  0  0  0
  151.0676  123.3757  153.1221 H   0  0  0  0  0  0  0  0  0  0  0  0
  149.9903  122.1526  152.4726 H   0  0  0  0  0  0  0  0  0  0  0  0
  149.6797  122.8333  154.0554 H   0  0  0  0  0  0  0  0  0  0  0  0
  148.1210  123.8780  152.3807 H   0  0  0  0  0  0  0  0  0  0  0  0
  148.3397  125.5061  153.9745 H   0  0  0  0  0  0  0  0  0  0  0  0
  150.1035  125.4455  153.9658 H   0  0  0  0  0  0  0  0  0  0  0  0
  149.7734  130.1392  154.9922 H   0  0  0  0  0  0  0  0  0  0  0  0
  145.1250  129.2086  150.6349 H   0  0  0  0  0  0  0  0  0  0  0  0
  145.2744  131.4652  153.4296 H   0  0  0  0  0  0  0  0  0  0  0  0
  143.9926  130.9640  150.8698 H   0  0  0  0  0  0  0  0  0  0  0  0
  143.5903  132.2905  152.0047 H   0  0  0  0  0  0  0  0  0  0  0  0
  146.8580  132.6239  149.1299 H   0  0  0  0  0  0  0  0  0  0  0  0
  146.2130  131.0741  149.5957 H   0  0  0  0  0  0  0  0  0  0  0  0
  145.1323  133.0148  147.9032 H   0  0  0  0  0  0  0  0  0  0  0  0
  144.3227  134.6521  151.0944 H   0  0  0  0  0  0  0  0  0  0  0  0
  145.4305  134.7196  149.7411 H   0  0  0  0  0  0  0  0  0  0  0  0
  142.8061  134.1759  149.7914 H   0  0  0  0  0  0  0  0  0  0  0  0
  145.9681  133.5637  152.6191 H   0  0  0  0  0  0  0  0  0  0  0  0
  147.2673  132.7249  151.7232 H   0  0  0  0  0  0  0  0  0  0  0  0
  148.1181  126.2506  150.7631 H   0  0  0  0  0  0  0  0  0  0  0  0
  149.7672  126.7808  150.3972 H   0  0  0  0  0  0  0  0  0  0  0  0
  150.7049  124.6587  150.9965 H   0  0  0  0  0  0  0  0  0  0  0  0
  147.1474  123.6267  150.7853 H   0  0  0  0  0  0  0  0  0  0  0  0
  147.2170  125.0673  149.7894 H   0  0  0  0  0  0  0  0  0  0  0  0
  147.2135  122.1633  148.7785 H   0  0  0  0  0  0  0  0  0  0  0  0
  145.8926  123.3098  148.6554 H   0  0  0  0  0  0  0  0  0  0  0  0
  149.1983  122.5475  147.4676 H   0  0  0  0  0  0  0  0  0  0  0  0
  149.2686  123.9649  146.4402 H   0  0  0  0  0  0  0  0  0  0  0  0
  149.3830  125.4744  148.3987 H   0  0  0  0  0  0  0  0  0  0  0  0
  150.6397  124.2424  148.4965 H   0  0  0  0  0  0  0  0  0  0  0  0
  149.2947  123.0135  149.9680 H   0  0  0  0  0  0  0  0  0  0  0  0
  1  2  1  0  0  0  0
  1 30  1  0  0  0  0
  1 31  1  0  0  0  0
  1 32  1  0  0  0  0
  2 23  1  0  0  0  0
  2  3  1  0  0  0  0
  2 33  1  0  0  0  0
  3  4  1  0  0  0  0
  3 34  1  0  0  0  0
  3 35  1  0  0  0  0
  4  5  1  0  0  0  0
  4 22  1  0  0  0  0
  5 10  1  0  0  0  0
  5  6  2  0  0  0  0
  6  7  1  0  0  0  0
  7  8  2  0  0  0  0
  7 36  1  0  0  0  0
  8  9  1  0  0  0  0
  9 13  1  0  0  0  0
  9 10  2  0  0  0  0
 10 11  1  0  0  0  0
 11 12  2  0  0  0  0
 12 13  1  0  0  0  0
 12 37  1  0  0  0  0
 13 14  1  0  0  0  0
 14 21  1  0  0  0  0
 14 15  1  0  0  0  0
 14 38  1  0  0  0  0
 15 16  1  0  0  0  0
 15 39  1  0  0  0  0
 15 40  1  0  0  0  0
 16 17  1  0  0  0  0
 16 19  1  0  0  0  0
 16 21  1  0  0  0  0
 17 18  1  0  0  0  0
 17 41  1  0  0  0  0
 17 42  1  0  0  0  0
 18 43  1  0  0  0  0
 19 20  1  0  0  0  0
 19 44  1  0  0  0  0
 19 45  1  0  0  0  0
 20 46  1  0  0  0  0
 21 47  1  0  0  0  0
 21 48  1  0  0  0  0
 22 23  1  0  0  0  0
 22 49  1  0  0  0  0
 22 50  1  0  0  0  0
 23 24  1  0  0  0  0
 23 51  1  0  0  0  0
 24 29  1  0  0  0  0
 24 25  1  0  0  0  0
 24 60  1  0  0  0  0
 25 26  1  0  0  0  0
 25 52  1  0  0  0  0
 25 53  1  0  0  0  0
 26 27  1  0  0  0  0
 26 54  1  0  0  0  0
 26 55  1  0  0  0  0
 27 28  1  0  0  0  0
 28 29  1  0  0  0  0
 28 56  1  0  0  0  0
 28 57  1  0  0  0  0
 29 58  1  0  0  0  0
 29 59  1  0  0  0  0
M  CHG  1  24   1
M  END
> <s_m_source_file>
AV-unprocessed.smi

> <i_m_source_file_index>
149

> <i_lp_mmshare_version>
43012

> <i_f3d_flags>
0

> <s_epik_input>
W0NIMl0xW0NIMl1PW0NIMl1bQ0gyXU4xW0NAQEhdMltDSDJdTihbQ0gyXVtDQEhdMltDSDNdKWMobltjSF1uMyljKGMzNCluW2NIXW40W0NIXShbQ0gyXTUpW0NIMl1DNShbQ0gyXVtPSF0pW0NIMl1bT0hd

> <s_epik_cmdline>
J2VwaWtfcHl0aG9uJywgJy1waCcsICc3LjAnLCAnLXRuJywgJzgnLCAnLW1hJywgJzIwMCcsICctbWV0YWxfYmluZGluZycsICctaW1hZScsICc8aW5maWxlLm1hZT4nLCAnLW9tYWUnLCAnPG91dGZpbGUubWFlPic=

> <r_lp_tautomer_probability>
1

> <r_epik_Ionization_Penalty>
0.404847

> <r_epik_Ionization_Penalty_Charging>
0.404623

> <r_epik_Ionization_Penalty_Neutral>
0.000224096

> <r_epik_State_Penalty>
0.238803

> <r_epik_Charging_Adjusted_Penalty>
0.643425

> <i_epik_Tot_Q>
1

> <i_epik_Tot_abs_Q>
1

> <r_epik_Metal_State_Penalty>
0.239083

> <b_epik_Metal_Only>
0

> <s_lp_Force_Field>
OPLS_2005

> <r_lp_Energy>
71.3702

> <b_lp_Chiralities_Consistent>
1

> <s_lp_Variant>
AV-unprocessed.smi:149-4

> <Gold.Version>
5.8.1

> <Gold.Id.Protein>
6NUR|6NUR_protein|mol2

> <Gold.PLP.Fitness>
50.7847

> <Gold.PLP.PLP>
-47.8055

> <Gold.PLP.part.hbond>
-4.9467

> <Gold.PLP.part.metal>
0.0000

> <Gold.PLP.part.buried>
-2.7036

> <Gold.PLP.part.nonpolar>
-38.8857

> <Gold.PLP.part.repulsive>
0.6968

> <Gold.PLP.ligand.clash>
0.0000

> <Gold.PLP.ligand.torsion>
1.2965

> <Gold.PLP.Chemscore.Hbond>
1.5917

> <Gold.PLP.Chemscore.CHOScore>
0.0000

> <Gold.PLP.Chemscore.Metal>
0.0000

> <Gold.Chemscore.Hbonds>
donor molecule, donor type, donor heavy atom, donor atom, acceptor molecule, acceptor atom, score
      L1  H    18    43       P1  7921  0.78
      L1  H    20    46       P1 10186  0.86

> <Gold.PLP.Chemscore.Internal.Correction>
0.7971

> <Gold.Rescore>
     Score         DG    S(hbond)    S(metal)    S(lipo)     H(rot)  DE(clash)    DE(int)     intcor
     10.97     -12.58       1.15        0.00      95.65       3.09       0.27       1.35       ----

> <Gold.Chemscore.Fitness>
10.9665

> <Gold.Chemscore.DG>
-12.5835

> <Gold.Chemscore.ZeroCoef>
-5.4800

> <Gold.Chemscore.Hbond>
1.1456

> <Gold.Chemscore.Metal>
0.0000

> <Gold.Chemscore.Lipo>
95.6474

> <Gold.Chemscore.Internal_Hbond>
0.0000

> <Gold.Chemscore.DEClash>
0.2714

> <Gold.Chemscore.DEInternal>
1.3456

> <Gold.Chemscore.Rot>
3.0912

> <Gold.Chemscore.Internal.Correction>
   9.000000E+99

> <Gold.Chemscore.Hbonds>
donor molecule, donor type, donor heavy atom, donor atom, acceptor molecule, acceptor atom, score
      L1  H    18    43       P1  7921  0.10
      L1  H    20    46       P1 10186  0.84

> <Gold.Chemscore.Hbond.Weighted>
-3.8262

> <Gold.Chemscore.Metal.Weighted>
-0.0000

> <Gold.Chemscore.Lipo.Weighted>
-11.1907

> <Gold.Chemscore.Internal_Hbond.Weighted>
0.0000

> <Gold.Chemscore.DEClash.Weighted>
0.2714

> <Gold.Chemscore.DEInternal.Weighted>
1.3456

> <Gold.Chemscore.Rot.Weighted>
7.9135

> <Gold.Chemscore.Internal.Correction.Weighted>
   9.000000E+99

> <Gold.Protein.RotatedTorsions>
[ 6907 6896 6895 6894 ] final  160.24 input  -60.11 | X-H torsion
[ 7974 7965 7964 7962 ] final  -81.82 input  175.53 | X-H torsion
[ 8008 7997 7996 7995 ] final  111.82 input   59.86 | X-H torsion
[ 10167 10162 10161 10158 ] final  139.33 input  -65.29 | X-H torsion
[ 10718 10713 10712 10709 ] final  138.49 input   66.30 | X-H torsion
[ 10763 10752 10751 10750 ] final   81.91 input  -60.55 | X-H torsion
[ 11005 11000 10999 10996 ] final   21.22 input  -57.11 | X-H torsion

> <Gold.Protein.ActiveResidues>
 VAL166  LYS551  ARG553  GLY616  TRP617  ASP618  TYR619  PRO620  LYS621  CYS622 
 ASP623  PHE694  ASN695  SER759  ASP760  ASP761  ALA762  ILE779  LEU786  VAL792 
 PHE793  MET794  SER795  GLU796  ALA797  LYS798  CYS799  TRP800  GLU811  SER814 

> <Gold.Protein.RotatedAtoms>
  151.9736  133.3734  159.4080 H   0  0  0  0  0  0  0  0  0  0  0  0  # atno 6907 bound_to 6896
  150.6945  134.4113  159.5172 H   0  0  0  0  0  0  0  0  0  0  0  0  # atno 6908 bound_to 6896
  152.1821  134.8745  160.0576 H   0  0  0  0  0  0  0  0  0  0  0  0  # atno 6909 bound_to 6896
  145.5416  140.9509  143.1548 H   0  0  0  0  0  0  0  0  0  0  0  0  # atno 7974 bound_to 7965
  156.2150  140.3012  155.9819 H   0  0  0  0  0  0  0  0  0  0  0  0  # atno 8008 bound_to 7997
  155.2628  140.0430  157.3016 H   0  0  0  0  0  0  0  0  0  0  0  0  # atno 8009 bound_to 7997
  154.5755  140.2360  155.8138 H   0  0  0  0  0  0  0  0  0  0  0  0  # atno 8010 bound_to 7997
  139.5082  144.6301  151.5839 H   0  0  0  0  0  0  0  0  0  0  0  0  # atno 10167 bound_to 10162
  157.4247  131.1042  151.0315 H   0  0  0  0  0  0  0  0  0  0  0  0  # atno 10718 bound_to 10713
  153.1157  135.4748  154.9111 H   0  0  0  0  0  0  0  0  0  0  0  0  # atno 10763 bound_to 10752
  154.7526  135.3110  154.8532 H   0  0  0  0  0  0  0  0  0  0  0  0  # atno 10764 bound_to 10752
  153.9110  135.6865  153.4804 H   0  0  0  0  0  0  0  0  0  0  0  0  # atno 10765 bound_to 10752
  140.3940  134.1789  155.7663 H   0  0  0  0  0  0  0  0  0  0  0  0  # atno 11005 bound_to 11000
  144.7574  139.7040  143.7248 LP  0  0  0  0  0  0  0  0  0  0  0  0  # atno 17320 bound_to 7965
  146.1977  139.5253  142.9763 LP  0  0  0  0  0  0  0  0  0  0  0  0  # atno 17321 bound_to 7965
  140.6031  143.9574  150.6400 LP  0  0  0  0  0  0  0  0  0  0  0  0  # atno 17342 bound_to 10162
  140.2792  143.3401  152.1167 LP  0  0  0  0  0  0  0  0  0  0  0  0  # atno 17343 bound_to 10162
  157.1233  130.6071  149.5510 LP  0  0  0  0  0  0  0  0  0  0  0  0  # atno 17370 bound_to 10713
  155.9892  130.4939  150.7205 LP  0  0  0  0  0  0  0  0  0  0  0  0  # atno 17371 bound_to 10713
  141.1881  133.8268  157.1008 LP  0  0  0  0  0  0  0  0  0  0  0  0  # atno 17394 bound_to 11000
  140.0385  134.9866  157.0917 LP  0  0  0  0  0  0  0  0  0  0  0  0  # atno 17395 bound_to 11000

$$$$
