AV-unprocessed.smi:1419|AV-procd|sdf|5783|dock8
  -GOLD-   22720 5433D 1   1.00000     0.00000
 Structure written by MMmdl.
 41 42  0  0  0  0  0  0  0  0  1 V2000
  147.5224  133.5748  155.5434 C   0  0  0  0  0  0  0  0  0  0  0  0
  148.5672  133.7656  154.4317 C   0  0  1  0  0  0  0  0  0  0  0  0
  149.4779  132.5338  154.2370 C   0  0  0  0  0  0  0  0  0  0  0  0
  150.3115  132.2650  155.3930 N   0  0  0  0  0  0  0  0  0  0  0  0
  151.1702  131.1894  155.5792 C   0  0  0  0  0  0  0  0  0  0  0  0
  151.7459  131.3567  156.8185 C   0  0  0  0  0  0  0  0  0  0  0  0
  151.2629  132.5235  157.4063 N   0  0  0  0  0  0  0  0  0  0  0  0
  150.4205  133.0080  156.5027 C   0  0  0  0  0  0  0  0  0  0  0  0
  147.8817  134.0825  153.1830 N   0  0  0  0  0  0  0  0  0  0  0  0
  147.0788  133.2522  152.4958 C   0  0  0  0  0  0  0  0  0  0  0  0
  146.8644  132.0953  152.8601 O   0  0  0  0  0  0  0  0  0  0  0  0
  146.5394  133.7896  151.3736 N   0  0  0  0  0  0  0  0  0  0  0  0
  146.2226  135.2052  151.1386 C   0  0  0  0  0  0  0  0  0  0  0  0
  144.6900  135.3844  151.1453 C   0  0  2  0  0  0  0  0  0  0  0  0
  144.0480  135.2240  152.5357 C   0  0  0  0  0  0  0  0  0  0  0  0
  144.0976  134.4996  150.1888 O   0  0  0  0  0  0  0  0  0  0  0  0
  144.4487  133.1189  150.3173 C   0  0  1  0  0  0  0  0  0  0  0  0
  143.7792  132.3531  149.1712 C   0  0  0  0  0  0  0  0  0  0  0  0
  145.9830  132.9714  150.2946 C   0  0  0  0  0  0  0  0  0  0  0  0
  147.9941  133.4266  156.5151 H   0  0  0  0  0  0  0  0  0  0  0  0
  146.8870  132.7108  155.3458 H   0  0  0  0  0  0  0  0  0  0  0  0
  146.8771  134.4497  155.6289 H   0  0  0  0  0  0  0  0  0  0  0  0
  149.1887  134.6182  154.7121 H   0  0  0  0  0  0  0  0  0  0  0  0
  148.8770  131.6469  154.0298 H   0  0  0  0  0  0  0  0  0  0  0  0
  150.1323  132.6739  153.3755 H   0  0  0  0  0  0  0  0  0  0  0  0
  151.2944  130.4140  154.8376 H   0  0  0  0  0  0  0  0  0  0  0  0
  152.4654  130.7326  157.3276 H   0  0  0  0  0  0  0  0  0  0  0  0
  149.8674  133.9238  156.6520 H   0  0  0  0  0  0  0  0  0  0  0  0
  148.0149  135.0139  152.8168 H   0  0  0  0  0  0  0  0  0  0  0  0
  146.6811  135.8910  151.8511 H   0  0  0  0  0  0  0  0  0  0  0  0
  146.6207  135.4960  150.1652 H   0  0  0  0  0  0  0  0  0  0  0  0
  144.4692  136.3962  150.8045 H   0  0  0  0  0  0  0  0  0  0  0  0
  144.4465  135.9617  153.2325 H   0  0  0  0  0  0  0  0  0  0  0  0
  144.2290  134.2404  152.9681 H   0  0  0  0  0  0  0  0  0  0  0  0
  142.9689  135.3693  152.4828 H   0  0  0  0  0  0  0  0  0  0  0  0
  144.0581  132.7308  151.2585 H   0  0  0  0  0  0  0  0  0  0  0  0
  143.9999  131.2872  149.2297 H   0  0  0  0  0  0  0  0  0  0  0  0
  144.1233  132.7140  148.2016 H   0  0  0  0  0  0  0  0  0  0  0  0
  142.6956  132.4707  149.2045 H   0  0  0  0  0  0  0  0  0  0  0  0
  146.3846  133.3097  149.3381 H   0  0  0  0  0  0  0  0  0  0  0  0
  146.2607  131.9197  150.3795 H   0  0  0  0  0  0  0  0  0  0  0  0
  1  2  1  0  0  0  0
  1 20  1  0  0  0  0
  1 21  1  0  0  0  0
  1 22  1  0  0  0  0
  2  3  1  0  0  0  0
  2  9  1  0  0  0  0
  2 23  1  0  0  0  0
  3  4  1  0  0  0  0
  3 24  1  0  0  0  0
  3 25  1  0  0  0  0
  4  8  1  0  0  0  0
  4  5  1  0  0  0  0
  5  6  2  0  0  0  0
  5 26  1  0  0  0  0
  6  7  1  0  0  0  0
  6 27  1  0  0  0  0
  7  8  2  0  0  0  0
  8 28  1  0  0  0  0
  9 10  1  0  0  0  0
  9 29  1  0  0  0  0
 10 11  2  0  0  0  0
 10 12  1  0  0  0  0
 12 19  1  0  0  0  0
 12 13  1  0  0  0  0
 13 14  1  0  0  0  0
 13 30  1  0  0  0  0
 13 31  1  0  0  0  0
 14 15  1  0  0  0  0
 14 16  1  0  0  0  0
 14 32  1  0  0  0  0
 15 33  1  0  0  0  0
 15 34  1  0  0  0  0
 15 35  1  0  0  0  0
 16 17  1  0  0  0  0
 17 18  1  0  0  0  0
 17 19  1  0  0  0  0
 17 36  1  0  0  0  0
 18 37  1  0  0  0  0
 18 38  1  0  0  0  0
 18 39  1  0  0  0  0
 19 40  1  0  0  0  0
 19 41  1  0  0  0  0
M  END
> <s_m_source_file>
AV-unprocessed.smi

> <i_m_source_file_index>
1419

> <i_lp_mmshare_version>
43012

> <i_f3d_flags>
0

> <s_epik_input>
W2NIXTFuW2NIXVtjSF1uMVtDSDJdW0NAQEhdKFtDSDNdKVtOSF1DKD1PKU4yW0NIMl1bQ0BASF0oW0NIM10pT1tDQEBIXShbQ0gzXSlbQ0gyXTI=

> <s_epik_cmdline>
J2VwaWtfcHl0aG9uJywgJy1waCcsICc3LjAnLCAnLXRuJywgJzgnLCAnLW1hJywgJzIwMCcsICctbWV0YWxfYmluZGluZycsICctaW1hZScsICc8aW5maWxlLm1hZT4nLCAnLW9tYWUnLCAnPG91dGZpbGUubWFlPic=

> <r_lp_tautomer_probability>
1

> <r_epik_Ionization_Penalty>
0.625124

> <r_epik_Ionization_Penalty_Charging>
0.625093

> <r_epik_Ionization_Penalty_Neutral>
3.17415e-05

> <r_epik_State_Penalty>
0.641455

> <r_epik_Charging_Adjusted_Penalty>
1.26655

> <i_epik_Tot_Q>
0

> <i_epik_Tot_abs_Q>
0

> <r_epik_Metal_State_Penalty>
0.307717

> <b_epik_Metal_Only>
0

> <s_lp_Force_Field>
OPLS_2005

> <r_lp_Energy>
30.8813

> <b_lp_Chiralities_Consistent>
1

> <s_lp_Variant>
AV-unprocessed.smi:1419-10

> <Gold.Version>
5.8.1

> <Gold.Id.Protein>
6NUR|6NUR_protein|mol2

> <Gold.PLP.Fitness>
37.8216

> <Gold.PLP.PLP>
-32.4431

> <Gold.PLP.part.hbond>
-2.0000

> <Gold.PLP.part.metal>
0.0000

> <Gold.PLP.part.buried>
-2.5344

> <Gold.PLP.part.nonpolar>
-27.8247

> <Gold.PLP.part.repulsive>
0.3541

> <Gold.PLP.ligand.clash>
0.0000

> <Gold.PLP.ligand.torsion>
0.3232

> <Gold.PLP.Chemscore.Hbond>
1.9920

> <Gold.PLP.Chemscore.CHOScore>
0.0000

> <Gold.PLP.Chemscore.Metal>
0.0000

> <Gold.Chemscore.Hbonds>
donor molecule, donor type, donor heavy atom, donor atom, acceptor molecule, acceptor atom, score
      L1  H     9    29       P1  7948  1.00
      P1  H  6896  6907       L1     7  1.00

> <Gold.PLP.Chemscore.Internal.Correction>
0.0488

> <Gold.Rescore>
     Score         DG    S(hbond)    S(metal)    S(lipo)     H(rot)  DE(clash)    DE(int)     intcor
     13.58     -15.39       1.88        0.00      65.57       1.58       0.52       1.29       ----

> <Gold.Chemscore.Fitness>
13.5758

> <Gold.Chemscore.DG>
-15.3854

> <Gold.Chemscore.ZeroCoef>
-5.4800

> <Gold.Chemscore.Hbond>
1.8773

> <Gold.Chemscore.Metal>
0.0000

> <Gold.Chemscore.Lipo>
65.5730

> <Gold.Chemscore.Internal_Hbond>
0.0000

> <Gold.Chemscore.DEClash>
0.5162

> <Gold.Chemscore.DEInternal>
1.2934

> <Gold.Chemscore.Rot>
1.5769

> <Gold.Chemscore.Internal.Correction>
   9.000000E+99

> <Gold.Chemscore.Hbonds>
donor molecule, donor type, donor heavy atom, donor atom, acceptor molecule, acceptor atom, score
      L1  H     9    29       P1  7948  0.89
      P1  H  6896  6907       L1     7  0.93

> <Gold.Chemscore.Hbond.Weighted>
-6.2703

> <Gold.Chemscore.Metal.Weighted>
-0.0000

> <Gold.Chemscore.Lipo.Weighted>
-7.6720

> <Gold.Chemscore.Internal_Hbond.Weighted>
0.0000

> <Gold.Chemscore.DEClash.Weighted>
0.5162

> <Gold.Chemscore.DEInternal.Weighted>
1.2934

> <Gold.Chemscore.Rot.Weighted>
4.0369

> <Gold.Chemscore.Internal.Correction.Weighted>
   9.000000E+99

> <Gold.Protein.RotatedTorsions>
[ 6907 6896 6895 6894 ] final -172.27 input  -60.11 | X-H torsion
[ 7974 7965 7964 7962 ] final -159.95 input  175.53 | X-H torsion
[ 8008 7997 7996 7995 ] final  155.39 input   59.86 | X-H torsion
[ 10167 10162 10161 10158 ] final   52.44 input  -65.29 | X-H torsion
[ 10718 10713 10712 10709 ] final  -81.83 input   66.30 | X-H torsion
[ 10763 10752 10751 10750 ] final  -35.80 input  -60.55 | X-H torsion
[ 11005 11000 10999 10996 ] final  -85.94 input  -57.11 | X-H torsion

> <Gold.Protein.ActiveResidues>
 VAL166  LYS551  ARG553  GLY616  TRP617  ASP618  TYR619  PRO620  LYS621  CYS622 
 ASP623  PHE694  ASN695  SER759  ASP760  ASP761  ALA762  ILE779  LEU786  VAL792 
 PHE793  MET794  SER795  GLU796  ALA797  LYS798  CYS799  TRP800  GLU811  SER814 

> <Gold.Protein.RotatedAtoms>
  151.5373  133.3438  159.2928 H   0  0  0  0  0  0  0  0  0  0  0  0  # atno 6907 bound_to 6896
  150.8557  134.7897  159.7054 H   0  0  0  0  0  0  0  0  0  0  0  0  # atno 6908 bound_to 6896
  152.4591  134.5233  159.9841 H   0  0  0  0  0  0  0  0  0  0  0  0  # atno 6909 bound_to 6896
  144.7445  140.3612  143.6096 H   0  0  0  0  0  0  0  0  0  0  0  0  # atno 7974 bound_to 7965
  156.2480  140.1940  156.6794 H   0  0  0  0  0  0  0  0  0  0  0  0  # atno 8008 bound_to 7997
  154.6333  140.0593  156.9784 H   0  0  0  0  0  0  0  0  0  0  0  0  # atno 8009 bound_to 7997
  155.1677  140.3265  155.4401 H   0  0  0  0  0  0  0  0  0  0  0  0  # atno 8010 bound_to 7997
  140.2513  144.3476  150.6347 H   0  0  0  0  0  0  0  0  0  0  0  0  # atno 10167 bound_to 10162
  156.0043  130.4616  150.4013 H   0  0  0  0  0  0  0  0  0  0  0  0  # atno 10718 bound_to 10713
  153.8692  135.6832  153.4776 H   0  0  0  0  0  0  0  0  0  0  0  0  # atno 10763 bound_to 10752
  153.1297  135.4703  154.9327 H   0  0  0  0  0  0  0  0  0  0  0  0  # atno 10764 bound_to 10752
  154.7722  135.3242  154.8116 H   0  0  0  0  0  0  0  0  0  0  0  0  # atno 10765 bound_to 10752
  141.1636  133.7427  156.9089 H   0  0  0  0  0  0  0  0  0  0  0  0  # atno 11005 bound_to 11000
  145.7175  139.1701  143.2503 LP  0  0  0  0  0  0  0  0  0  0  0  0  # atno 17320 bound_to 7965
  146.1301  140.7196  142.9416 LP  0  0  0  0  0  0  0  0  0  0  0  0  # atno 17321 bound_to 7965
  140.6038  143.2167  151.7020 LP  0  0  0  0  0  0  0  0  0  0  0  0  # atno 17342 bound_to 10162
  139.5045  144.3751  152.0432 LP  0  0  0  0  0  0  0  0  0  0  0  0  # atno 17343 bound_to 10162
  157.2081  131.0454  151.2614 LP  0  0  0  0  0  0  0  0  0  0  0  0  # atno 17370 bound_to 10713
  157.3914  130.7284  149.6700 LP  0  0  0  0  0  0  0  0  0  0  0  0  # atno 17371 bound_to 10713
  140.1530  134.9217  157.2618 LP  0  0  0  0  0  0  0  0  0  0  0  0  # atno 17394 bound_to 11000
  140.2700  134.3471  155.7377 LP  0  0  0  0  0  0  0  0  0  0  0  0  # atno 17395 bound_to 11000

$$$$
