AV-unprocessed.smi:148|AV-procd|sdf|1219|dock8
  -GOLD-   2262018403D 1   1.00000     0.00000
 Structure written by MMmdl.
 63 67  0  0  0  0  0  0  0  0  1 V2000
  148.4287  134.0943  153.2220 O   0  0  0  0  0  0  0  0  0  0  0  0
  149.2705  133.5912  154.2406 C   0  0  0  0  0  0  0  0  0  0  0  0
  149.9387  134.7218  155.0697 C   0  0  1  0  0  0  0  0  0  0  0  0
  149.1096  136.0399  155.1858 C   0  0  0  0  0  0  0  0  0  0  0  0
  149.6104  137.0227  156.1322 N   0  0  0  0  0  0  0  0  0  0  0  0
  149.1450  137.2463  157.4084 C   0  0  0  0  0  0  0  0  0  0  0  0
  149.7510  138.2001  158.0616 N   0  0  0  0  0  0  0  0  0  0  0  0
  150.7106  138.6640  157.1695 C   0  0  0  0  0  0  0  0  0  0  0  0
  151.6953  139.6915  157.2097 C   0  0  0  0  0  0  0  0  0  0  0  0
  151.8952  140.5304  158.2515 N   0  0  0  0  0  0  0  0  0  0  0  0
  151.4395  141.8761  157.9055 C   0  0  0  0  0  0  0  0  0  0  0  0
  151.4135  142.7899  159.1368 C   0  0  0  0  0  0  0  0  0  0  0  0
  152.7896  142.8120  159.8094 C   0  0  0  0  0  0  0  0  0  0  0  0
  153.2241  141.3832  160.1631 C   0  0  0  0  0  0  0  0  0  0  0  0
  153.2056  140.4491  158.9240 C   0  0  1  0  0  0  0  0  0  0  0  0
  153.6313  138.9815  159.2492 C   0  0  2  0  0  0  0  0  0  0  0  0
  152.6688  138.1771  160.1457 C   0  0  0  0  0  0  0  0  0  0  0  0
  153.5382  137.1872  160.9382 C   0  0  0  0  0  0  0  0  0  0  0  0
  154.9690  137.3661  160.4225 C   0  0  0  0  0  0  0  0  0  0  0  0
  155.0071  138.8046  159.9085 C   0  0  1  0  0  0  0  0  0  0  0  0
  156.0656  138.9951  158.9925 O   0  0  0  0  0  0  0  0  0  0  0  0
  152.4934  139.8520  156.1257 N   0  0  0  0  0  0  0  0  0  0  0  0
  152.3274  139.0721  155.0533 C   0  0  0  0  0  0  0  0  0  0  0  0
  151.4416  138.0918  154.8621 N   0  0  0  0  0  0  0  0  0  0  0  0
  150.6476  137.9209  155.9580 C   0  0  0  0  0  0  0  0  0  0  0  0
  150.4569  134.2550  156.4634 C   0  0  1  0  0  0  0  0  0  0  0  0
  149.4105  133.6472  157.3901 C   0  0  0  0  0  0  0  0  0  0  0  0
  149.3173  132.2006  156.9134 C   0  0  0  0  0  0  0  0  0  0  0  0
  150.5890  131.8991  156.3493 O   0  0  0  0  0  0  0  0  0  0  0  0
  151.4148  133.0584  156.3736 C   0  0  0  0  0  0  0  0  0  0  0  0
  148.7270  134.9594  152.9852 H   0  0  0  0  0  0  0  0  0  0  0  0
  148.6772  132.9440  154.8851 H   0  0  0  0  0  0  0  0  0  0  0  0
  150.0189  132.9349  153.7976 H   0  0  0  0  0  0  0  0  0  0  0  0
  150.8227  134.9948  154.4913 H   0  0  0  0  0  0  0  0  0  0  0  0
  149.0274  136.5392  154.2203 H   0  0  0  0  0  0  0  0  0  0  0  0
  148.0854  135.7968  155.4719 H   0  0  0  0  0  0  0  0  0  0  0  0
  148.3254  136.6860  157.8347 H   0  0  0  0  0  0  0  0  0  0  0  0
  152.1011  142.2979  157.1473 H   0  0  0  0  0  0  0  0  0  0  0  0
  150.4415  141.8315  157.4660 H   0  0  0  0  0  0  0  0  0  0  0  0
  151.1190  143.7992  158.8481 H   0  0  0  0  0  0  0  0  0  0  0  0
  150.6621  142.4345  159.8434 H   0  0  0  0  0  0  0  0  0  0  0  0
  153.5217  143.2659  159.1402 H   0  0  0  0  0  0  0  0  0  0  0  0
  152.7597  143.4295  160.7075 H   0  0  0  0  0  0  0  0  0  0  0  0
  154.2209  141.4307  160.5985 H   0  0  0  0  0  0  0  0  0  0  0  0
  152.5641  141.0031  160.9419 H   0  0  0  0  0  0  0  0  0  0  0  0
  153.9427  140.8498  158.2280 H   0  0  0  0  0  0  0  0  0  0  0  0
  153.6989  138.4276  158.3117 H   0  0  0  0  0  0  0  0  0  0  0  0
  152.1180  138.8123  160.8374 H   0  0  0  0  0  0  0  0  0  0  0  0
  151.9268  137.6547  159.5410 H   0  0  0  0  0  0  0  0  0  0  0  0
  153.4948  137.4325  162.0002 H   0  0  0  0  0  0  0  0  0  0  0  0
  153.1951  136.1581  160.8270 H   0  0  0  0  0  0  0  0  0  0  0  0
  155.7203  137.1720  161.1888 H   0  0  0  0  0  0  0  0  0  0  0  0
  155.1455  136.6695  159.6011 H   0  0  0  0  0  0  0  0  0  0  0  0
  155.1359  139.4739  160.7578 H   0  0  0  0  0  0  0  0  0  0  0  0
  156.6015  138.2167  158.9868 H   0  0  0  0  0  0  0  0  0  0  0  0
  152.9966  139.2647  154.2280 H   0  0  0  0  0  0  0  0  0  0  0  0
  150.9444  135.0989  156.9536 H   0  0  0  0  0  0  0  0  0  0  0  0
  149.7915  133.6611  158.4124 H   0  0  0  0  0  0  0  0  0  0  0  0
  148.4491  134.1570  157.4098 H   0  0  0  0  0  0  0  0  0  0  0  0
  149.0694  131.5155  157.7244 H   0  0  0  0  0  0  0  0  0  0  0  0
  148.5575  132.0985  156.1380 H   0  0  0  0  0  0  0  0  0  0  0  0
  152.0813  133.0794  155.5120 H   0  0  0  0  0  0  0  0  0  0  0  0
  152.0391  133.0130  157.2672 H   0  0  0  0  0  0  0  0  0  0  0  0
  1  2  1  0  0  0  0
  1 31  1  0  0  0  0
  2  3  1  0  0  0  0
  2 32  1  0  0  0  0
  2 33  1  0  0  0  0
  3  4  1  0  0  0  0
  3 26  1  0  0  0  0
  3 34  1  0  0  0  0
  4  5  1  0  0  0  0
  4 35  1  0  0  0  0
  4 36  1  0  0  0  0
  5 25  1  0  0  0  0
  5  6  1  0  0  0  0
  6  7  2  0  0  0  0
  6 37  1  0  0  0  0
  7  8  1  0  0  0  0
  8 25  2  0  0  0  0
  8  9  1  0  0  0  0
  9 10  1  0  0  0  0
  9 22  2  0  0  0  0
 10 15  1  0  0  0  0
 10 11  1  0  0  0  0
 11 12  1  0  0  0  0
 11 38  1  0  0  0  0
 11 39  1  0  0  0  0
 12 13  1  0  0  0  0
 12 40  1  0  0  0  0
 12 41  1  0  0  0  0
 13 14  1  0  0  0  0
 13 42  1  0  0  0  0
 13 43  1  0  0  0  0
 14 15  1  0  0  0  0
 14 44  1  0  0  0  0
 14 45  1  0  0  0  0
 15 16  1  0  0  0  0
 15 46  1  0  0  0  0
 16 20  1  0  0  0  0
 16 17  1  0  0  0  0
 16 47  1  0  0  0  0
 17 18  1  0  0  0  0
 17 48  1  0  0  0  0
 17 49  1  0  0  0  0
 18 19  1  0  0  0  0
 18 50  1  0  0  0  0
 18 51  1  0  0  0  0
 19 20  1  0  0  0  0
 19 52  1  0  0  0  0
 19 53  1  0  0  0  0
 20 21  1  0  0  0  0
 20 54  1  0  0  0  0
 21 55  1  0  0  0  0
 22 23  1  0  0  0  0
 23 24  2  0  0  0  0
 23 56  1  0  0  0  0
 24 25  1  0  0  0  0
 26 30  1  0  0  0  0
 26 27  1  0  0  0  0
 26 57  1  0  0  0  0
 27 28  1  0  0  0  0
 27 58  1  0  0  0  0
 27 59  1  0  0  0  0
 28 29  1  0  0  0  0
 28 60  1  0  0  0  0
 28 61  1  0  0  0  0
 29 30  1  0  0  0  0
 30 62  1  0  0  0  0
 30 63  1  0  0  0  0
M  END
> <s_m_source_file>
AV-unprocessed.smi

> <i_m_source_file_index>
148

> <i_lp_mmshare_version>
43012

> <i_f3d_flags>
0

> <s_epik_input>
W0NIMl0xT1tDSDJdW0NIMl1bQ0BIXTFbQ0BIXShbQ0gyXVtPSF0pW0NIMl1uKFtjSF1uMiljKGMyMyluW2NIXW5jM040W0NIMl1bQ0gyXVtDSDJdW0NIMl1bQ0BIXTRbQ0BASF01W0NIMl1bQ0gyXVtDSDJdW0NASF01W09IXQ==

> <s_epik_cmdline>
J2VwaWtfcHl0aG9uJywgJy1waCcsICc3LjAnLCAnLXRuJywgJzgnLCAnLW1hJywgJzIwMCcsICctbWV0YWxfYmluZGluZycsICctaW1hZScsICc8aW5maWxlLm1hZT4nLCAnLW9tYWUnLCAnPG91dGZpbGUubWFlPic=

> <r_lp_tautomer_probability>
1

> <r_epik_Ionization_Penalty>
0.00556303

> <r_epik_Ionization_Penalty_Charging>
0

> <r_epik_Ionization_Penalty_Neutral>
0.00556303

> <r_epik_State_Penalty>
0.00401767

> <r_epik_Charging_Adjusted_Penalty>
0.00401767

> <i_epik_Tot_Q>
0

> <i_epik_Tot_abs_Q>
0

> <r_epik_Metal_State_Penalty>
-0

> <b_epik_Metal_Only>
0

> <s_lp_Force_Field>
OPLS_2005

> <r_lp_Energy>
73.5051

> <b_lp_Chiralities_Consistent>
1

> <s_lp_Variant>
AV-unprocessed.smi:148-18

> <Gold.Version>
5.8.1

> <Gold.Id.Protein>
6NUR|6NUR_protein|mol2

> <Gold.PLP.Fitness>
45.7855

> <Gold.PLP.PLP>
-38.1369

> <Gold.PLP.part.hbond>
-3.0000

> <Gold.PLP.part.metal>
0.0000

> <Gold.PLP.part.buried>
-4.9254

> <Gold.PLP.part.nonpolar>
-29.5761

> <Gold.PLP.part.repulsive>
0.1149

> <Gold.PLP.ligand.clash>
0.0000

> <Gold.PLP.ligand.torsion>
0.9011

> <Gold.PLP.Chemscore.Hbond>
3.0000

> <Gold.PLP.Chemscore.CHOScore>
0.0000

> <Gold.PLP.Chemscore.Metal>
0.0000

> <Gold.Chemscore.Hbonds>
donor molecule, donor type, donor heavy atom, donor atom, acceptor molecule, acceptor atom, score
      L1  H     1    31       P1  7948  1.00
      P1  H  7997  8009       L1    21  0.99
      P1  H  7997  8010       L1    22  1.00

> <Gold.PLP.Chemscore.Internal.Correction>
0.4509

> <Gold.Rescore>
     Score         DG    S(hbond)    S(metal)    S(lipo)     H(rot)  DE(clash)    DE(int)     intcor
     15.44     -17.98       2.55        0.00     106.56       3.32       0.10       2.44       ----

> <Gold.Chemscore.Fitness>
15.4434

> <Gold.Chemscore.DG>
-17.9815

> <Gold.Chemscore.ZeroCoef>
-5.4800

> <Gold.Chemscore.Hbond>
2.5550

> <Gold.Chemscore.Metal>
0.0000

> <Gold.Chemscore.Lipo>
106.5631

> <Gold.Chemscore.Internal_Hbond>
0.0000

> <Gold.Chemscore.DEClash>
0.1019

> <Gold.Chemscore.DEInternal>
2.4362

> <Gold.Chemscore.Rot>
3.3203

> <Gold.Chemscore.Internal.Correction>
   9.000000E+99

> <Gold.Chemscore.Hbonds>
donor molecule, donor type, donor heavy atom, donor atom, acceptor molecule, acceptor atom, score
      L1  H     1    31       P1  7948  0.33
      P1  H  7997  8009       L1    21  0.88
      P1  H  7997  8010       L1    22  0.55

> <Gold.Chemscore.Hbond.Weighted>
-8.5336

> <Gold.Chemscore.Metal.Weighted>
-0.0000

> <Gold.Chemscore.Lipo.Weighted>
-12.4679

> <Gold.Chemscore.Internal_Hbond.Weighted>
0.0000

> <Gold.Chemscore.DEClash.Weighted>
0.1019

> <Gold.Chemscore.DEInternal.Weighted>
2.4362

> <Gold.Chemscore.Rot.Weighted>
8.5000

> <Gold.Chemscore.Internal.Correction.Weighted>
   9.000000E+99

> <Gold.Protein.RotatedTorsions>
[ 6907 6896 6895 6894 ] final   -0.06 input  -60.11 | X-H torsion
[ 7974 7965 7964 7962 ] final    9.46 input  175.53 | X-H torsion
[ 8008 7997 7996 7995 ] final   81.15 input   59.86 | X-H torsion
[ 10167 10162 10161 10158 ] final -157.95 input  -65.29 | X-H torsion
[ 10718 10713 10712 10709 ] final  161.21 input   66.30 | X-H torsion
[ 10763 10752 10751 10750 ] final   70.69 input  -60.55 | X-H torsion
[ 11005 11000 10999 10996 ] final   71.52 input  -57.11 | X-H torsion

> <Gold.Protein.ActiveResidues>
 VAL166  LYS551  ARG553  GLY616  TRP617  ASP618  TYR619  PRO620  LYS621  CYS622 
 ASP623  PHE694  ASN695  SER759  ASP760  ASP761  ALA762  ILE779  LEU786  VAL792 
 PHE793  MET794  SER795  GLU796  ALA797  LYS798  CYS799  TRP800  GLU811  SER814 

> <Gold.Protein.RotatedAtoms>
  151.5684  135.1063  159.9989 H   0  0  0  0  0  0  0  0  0  0  0  0  # atno 6907 bound_to 6896
  152.4413  133.7448  159.6672 H   0  0  0  0  0  0  0  0  0  0  0  0  # atno 6908 bound_to 6896
  150.8319  133.8009  159.3119 H   0  0  0  0  0  0  0  0  0  0  0  0  # atno 6909 bound_to 6896
  146.2403  139.9780  142.8439 H   0  0  0  0  0  0  0  0  0  0  0  0  # atno 7974 bound_to 7965
  155.8933  140.3437  155.5972 H   0  0  0  0  0  0  0  0  0  0  0  0  # atno 8008 bound_to 7997
  155.7586  140.0829  157.2185 H   0  0  0  0  0  0  0  0  0  0  0  0  # atno 8009 bound_to 7997
  154.4035  140.1540  156.2793 H   0  0  0  0  0  0  0  0  0  0  0  0  # atno 8010 bound_to 7997
  139.6730  143.9712  152.2294 H   0  0  0  0  0  0  0  0  0  0  0  0  # atno 10167 bound_to 10162
  157.1396  131.0537  151.2333 H   0  0  0  0  0  0  0  0  0  0  0  0  # atno 10718 bound_to 10713
  153.0356  135.5164  154.7479 H   0  0  0  0  0  0  0  0  0  0  0  0  # atno 10763 bound_to 10752
  154.6459  135.2918  155.0049 H   0  0  0  0  0  0  0  0  0  0  0  0  # atno 10764 bound_to 10752
  154.0951  135.6644  153.4911 H   0  0  0  0  0  0  0  0  0  0  0  0  # atno 10765 bound_to 10752
  139.9539  134.7178  156.0797 H   0  0  0  0  0  0  0  0  0  0  0  0  # atno 11005 bound_to 11000
  145.1618  140.9677  143.4372 LP  0  0  0  0  0  0  0  0  0  0  0  0  # atno 17320 bound_to 7965
  145.0109  139.3511  143.6120 LP  0  0  0  0  0  0  0  0  0  0  0  0  # atno 17321 bound_to 7965
  139.9482  144.6638  150.8198 LP  0  0  0  0  0  0  0  0  0  0  0  0  # atno 17342 bound_to 10162
  140.7625  143.3200  151.2645 LP  0  0  0  0  0  0  0  0  0  0  0  0  # atno 17343 bound_to 10162
  157.4319  130.7495  149.6997 LP  0  0  0  0  0  0  0  0  0  0  0  0  # atno 17370 bound_to 10713
  155.9791  130.4044  150.3607 LP  0  0  0  0  0  0  0  0  0  0  0  0  # atno 17371 bound_to 10713
  141.1207  133.6613  156.3208 LP  0  0  0  0  0  0  0  0  0  0  0  0  # atno 17394 bound_to 11000
  140.5654  134.5893  157.5444 LP  0  0  0  0  0  0  0  0  0  0  0  0  # atno 17395 bound_to 11000

$$$$
