AV-unprocessed.smi:1443|AV-procd|sdf|5879|dock4
  -GOLD-   22720 5553D 1   1.00000     0.00000
 Structure written by MMmdl.
 27 28  0  0  0  0  0  0  0  0  1 V2000
  147.2363  139.5646  152.7055 C   0  0  0  0  0  0  0  0  0  0  0  0
  148.0413  138.4795  153.9135 S   0  0  0  0  0  0  0  0  0  0  0  0
  149.3539  139.4202  154.6235 C   0  0  0  0  0  0  0  0  0  0  0  0
  150.5866  138.8918  154.7287 N   0  0  0  0  0  0  0  0  0  0  0  0
  151.6014  140.0311  155.4545 S   0  0  0  0  0  0  0  0  0  0  0  0
  150.2891  141.1649  155.5803 C   0  0  0  0  0  0  0  0  0  0  0  0
  150.4537  142.4544  156.1637 N   0  0  0  0  0  0  0  0  0  0  0  0
  151.2261  142.8791  157.1863 C   0  0  0  0  0  0  0  0  0  0  0  0
  151.9569  142.0983  157.7935 O   0  0  0  0  0  0  0  0  0  0  0  0
  151.1437  144.1841  157.4887 N   0  0  0  0  0  0  0  0  0  0  0  0
  151.8444  144.8433  158.5433 C   0  0  2  0  0  0  0  0  0  0  0  0
  152.1694  144.0226  159.7727 C   0  0  0  0  0  0  0  0  0  0  0  0
  151.1259  145.1046  159.8545 C   0  0  2  0  0  0  0  0  0  0  0  0
  149.6641  144.7571  160.0546 C   0  0  0  0  0  0  0  0  0  0  0  0
  149.1560  140.6706  155.0800 N   0  0  0  0  0  0  0  0  0  0  0  0
  146.3761  139.0620  152.2637 H   0  0  0  0  0  0  0  0  0  0  0  0
  147.9325  139.8204  151.9075 H   0  0  0  0  0  0  0  0  0  0  0  0
  146.8936  140.4832  153.1817 H   0  0  0  0  0  0  0  0  0  0  0  0
  149.9209  143.1847  155.7140 H   0  0  0  0  0  0  0  0  0  0  0  0
  150.5206  144.7532  156.9335 H   0  0  0  0  0  0  0  0  0  0  0  0
  152.5949  145.5780  158.2550 H   0  0  0  0  0  0  0  0  0  0  0  0
  151.8300  142.9884  159.7963 H   0  0  0  0  0  0  0  0  0  0  0  0
  153.1237  144.2083  160.2612 H   0  0  0  0  0  0  0  0  0  0  0  0
  151.4238  146.0133  160.3742 H   0  0  0  0  0  0  0  0  0  0  0  0
  149.4157  143.8130  159.5712 H   0  0  0  0  0  0  0  0  0  0  0  0
  149.0331  145.5396  159.6331 H   0  0  0  0  0  0  0  0  0  0  0  0
  149.4441  144.6679  161.1184 H   0  0  0  0  0  0  0  0  0  0  0  0
  1  2  1  0  0  0  0
  1 16  1  0  0  0  0
  1 17  1  0  0  0  0
  1 18  1  0  0  0  0
  2  3  1  0  0  0  0
  3 15  1  0  0  0  0
  3  4  2  0  0  0  0
  4  5  1  0  0  0  0
  5  6  1  0  0  0  0
  6  7  1  0  0  0  0
  6 15  2  0  0  0  0
  7  8  1  0  0  0  0
  7 19  1  0  0  0  0
  8  9  2  0  0  0  0
  8 10  1  0  0  0  0
 10 11  1  0  0  0  0
 10 20  1  0  0  0  0
 11 13  1  0  0  0  0
 11 12  1  0  0  0  0
 11 21  1  0  0  0  0
 12 13  1  0  0  0  0
 12 22  1  0  0  0  0
 12 23  1  0  0  0  0
 13 14  1  0  0  0  0
 13 24  1  0  0  0  0
 14 25  1  0  0  0  0
 14 26  1  0  0  0  0
 14 27  1  0  0  0  0
M  END
> <s_m_source_file>
AV-unprocessed.smi

> <i_m_source_file_index>
1443

> <i_lp_mmshare_version>
43012

> <i_f3d_flags>
0

> <s_epik_input>
W0NIM11TYzFuc2MobjEpW05IXUMoPU8pW05IXVtDQEBIXTJbQ0gyXVtDQEhdMltDSDNd

> <s_epik_cmdline>
J2VwaWtfcHl0aG9uJywgJy1waCcsICc3LjAnLCAnLXRuJywgJzgnLCAnLW1hJywgJzIwMCcsICctbWV0YWxfYmluZGluZycsICctaW1hZScsICc8aW5maWxlLm1hZT4nLCAnLW9tYWUnLCAnPG91dGZpbGUubWFlPic=

> <r_lp_tautomer_probability>
1

> <r_epik_Ionization_Penalty>
2.74658e-05

> <r_epik_Ionization_Penalty_Charging>
0

> <r_epik_Ionization_Penalty_Neutral>
2.74658e-05

> <r_epik_State_Penalty>
-0

> <r_epik_Charging_Adjusted_Penalty>
0

> <i_epik_Tot_Q>
0

> <i_epik_Tot_abs_Q>
0

> <r_epik_Metal_State_Penalty>
-0

> <b_epik_Metal_Only>
0

> <s_lp_Force_Field>
OPLS_2005

> <r_lp_Energy>
21.2108

> <b_lp_Chiralities_Consistent>
1

> <s_lp_Variant>
AV-unprocessed.smi:1443-3

> <Gold.Version>
5.8.1

> <Gold.Id.Protein>
6NUR|6NUR_protein|mol2

> <Gold.PLP.Fitness>
35.8329

> <Gold.PLP.PLP>
-31.3442

> <Gold.PLP.part.hbond>
-2.0000

> <Gold.PLP.part.metal>
0.0000

> <Gold.PLP.part.buried>
-3.9321

> <Gold.PLP.part.nonpolar>
-25.7915

> <Gold.PLP.part.repulsive>
0.3452

> <Gold.PLP.ligand.clash>
0.0000

> <Gold.PLP.ligand.torsion>
0.7019

> <Gold.PLP.Chemscore.Hbond>
1.9516

> <Gold.PLP.Chemscore.CHOScore>
0.0000

> <Gold.PLP.Chemscore.Metal>
0.0000

> <Gold.Chemscore.Hbonds>
donor molecule, donor type, donor heavy atom, donor atom, acceptor molecule, acceptor atom, score
      L1  H     7    19       P1  8028  1.00
      L1  H    10    20       P1  8028  0.92

> <Gold.PLP.Chemscore.Internal.Correction>
0.0377

> <Gold.Rescore>
     Score         DG    S(hbond)    S(metal)    S(lipo)     H(rot)  DE(clash)    DE(int)     intcor
     12.92     -15.60       1.80        0.00      62.78       1.27       0.68       1.99       ----

> <Gold.Chemscore.Fitness>
12.9198

> <Gold.Chemscore.DG>
-15.5951

> <Gold.Chemscore.ZeroCoef>
-5.4800

> <Gold.Chemscore.Hbond>
1.8027

> <Gold.Chemscore.Metal>
0.0000

> <Gold.Chemscore.Lipo>
62.7778

> <Gold.Chemscore.Internal_Hbond>
0.0000

> <Gold.Chemscore.DEClash>
0.6836

> <Gold.Chemscore.DEInternal>
1.9917

> <Gold.Chemscore.Rot>
1.2699

> <Gold.Chemscore.Internal.Correction>
   9.000000E+99

> <Gold.Chemscore.Hbonds>
donor molecule, donor type, donor heavy atom, donor atom, acceptor molecule, acceptor atom, score
      L1  H     7    19       P1  8028  0.98
      L1  H    10    20       P1  8028  0.58

> <Gold.Chemscore.Hbond.Weighted>
-6.0210

> <Gold.Chemscore.Metal.Weighted>
-0.0000

> <Gold.Chemscore.Lipo.Weighted>
-7.3450

> <Gold.Chemscore.Internal_Hbond.Weighted>
0.0000

> <Gold.Chemscore.DEClash.Weighted>
0.6836

> <Gold.Chemscore.DEInternal.Weighted>
1.9917

> <Gold.Chemscore.Rot.Weighted>
3.2509

> <Gold.Chemscore.Internal.Correction.Weighted>
   9.000000E+99

> <Gold.Protein.RotatedTorsions>
[ 6907 6896 6895 6894 ] final -144.05 input  -60.11 | X-H torsion
[ 7974 7965 7964 7962 ] final   48.19 input  175.53 | X-H torsion
[ 8008 7997 7996 7995 ] final -107.30 input   59.86 | X-H torsion
[ 10167 10162 10161 10158 ] final -128.90 input  -65.29 | X-H torsion
[ 10718 10713 10712 10709 ] final    1.07 input   66.30 | X-H torsion
[ 10763 10752 10751 10750 ] final   36.47 input  -60.55 | X-H torsion
[ 11005 11000 10999 10996 ] final  167.00 input  -57.11 | X-H torsion

> <Gold.Protein.ActiveResidues>
 VAL166  LYS551  ARG553  GLY616  TRP617  ASP618  TYR619  PRO620  LYS621  CYS622 
 ASP623  PHE694  ASN695  SER759  ASP760  ASP761  ALA762  ILE779  LEU786  VAL792 
 PHE793  MET794  SER795  GLU796  ALA797  LYS798  CYS799  TRP800  GLU811  SER814 

> <Gold.Protein.RotatedAtoms>
  151.1087  133.5189  159.2606 H   0  0  0  0  0  0  0  0  0  0  0  0  # atno 6907 bound_to 6896
  151.1992  135.0435  159.8875 H   0  0  0  0  0  0  0  0  0  0  0  0  # atno 6908 bound_to 6896
  152.5448  134.0918  159.8333 H   0  0  0  0  0  0  0  0  0  0  0  0  # atno 6909 bound_to 6896
  146.0228  139.4671  142.9886 H   0  0  0  0  0  0  0  0  0  0  0  0  # atno 7974 bound_to 7965
  154.9274  140.0406  157.2030 H   0  0  0  0  0  0  0  0  0  0  0  0  # atno 8008 bound_to 7997
  154.8195  140.2881  155.5775 H   0  0  0  0  0  0  0  0  0  0  0  0  # atno 8009 bound_to 7997
  156.2978  140.2521  156.3099 H   0  0  0  0  0  0  0  0  0  0  0  0  # atno 8010 bound_to 7997
  139.9454  143.6116  152.2491 H   0  0  0  0  0  0  0  0  0  0  0  0  # atno 10167 bound_to 10162
  156.8428  130.5527  149.5676 H   0  0  0  0  0  0  0  0  0  0  0  0  # atno 10718 bound_to 10713
  153.0076  135.6305  154.1991 H   0  0  0  0  0  0  0  0  0  0  0  0  # atno 10763 bound_to 10752
  154.1734  135.2817  155.3076 H   0  0  0  0  0  0  0  0  0  0  0  0  # atno 10764 bound_to 10752
  154.5891  135.5623  153.7320 H   0  0  0  0  0  0  0  0  0  0  0  0  # atno 10765 bound_to 10752
  140.2722  134.7817  157.3685 H   0  0  0  0  0  0  0  0  0  0  0  0  # atno 11005 bound_to 11000
  145.7166  141.0089  143.1425 LP  0  0  0  0  0  0  0  0  0  0  0  0  # atno 17320 bound_to 7965
  144.6997  139.8821  143.7448 LP  0  0  0  0  0  0  0  0  0  0  0  0  # atno 17321 bound_to 7965
  139.6671  144.7662  151.1853 LP  0  0  0  0  0  0  0  0  0  0  0  0  # atno 17342 bound_to 10162
  140.7599  143.5921  150.8785 LP  0  0  0  0  0  0  0  0  0  0  0  0  # atno 17343 bound_to 10162
  156.0871  130.5867  150.9668 LP  0  0  0  0  0  0  0  0  0  0  0  0  # atno 17370 bound_to 10713
  157.6346  131.0917  150.8373 LP  0  0  0  0  0  0  0  0  0  0  0  0  # atno 17371 bound_to 10713
  140.1362  134.5031  155.8066 LP  0  0  0  0  0  0  0  0  0  0  0  0  # atno 17394 bound_to 11000
  141.2175  133.6808  156.7129 LP  0  0  0  0  0  0  0  0  0  0  0  0  # atno 17395 bound_to 11000

$$$$
