AV-unprocessed.smi:1301|AV-procd|sdf|5421|dock10
  -GOLD-   22720 4583D 1   1.00000     0.00000
 Structure written by MMmdl.
 45 46  0  0  0  0  0  0  0  0  2 V2000
  151.9067  143.6436  158.3796 C   0  0  0  0  0  0  0  0  0  0  0  0
  150.9120  142.8265  157.6292 C   0  0  0  0  0  0  0  0  0  0  0  0
  150.7890  142.4907  156.3101 C   0  0  0  0  0  0  0  0  0  0  0  0
  149.6133  141.6942  156.2915 C   0  0  0  0  0  0  0  0  0  0  0  0
  149.1298  141.1367  155.0802 N   0  0  0  0  0  0  0  0  0  0  0  0
  148.0516  140.3514  154.9146 C   0  0  0  0  0  0  0  0  0  0  0  0
  147.2939  139.9908  155.8157 O   0  0  0  0  0  0  0  0  0  0  0  0
  147.8957  140.0029  153.6286 N   0  0  0  0  0  0  0  0  0  0  0  0
  146.8254  139.1605  153.0999 C   0  0  2  0  0  0  0  0  0  0  0  0
  146.8686  137.7733  153.7591 C   0  0  0  0  0  0  0  0  0  0  0  0
  145.8113  136.8375  153.1497 C   0  0  0  0  0  0  0  0  0  0  0  0
  145.9757  136.7232  151.6773 N   0  3  1  0  0  0  0  0  0  0  0  0
  145.0497  135.7237  151.0846 C   0  0  0  0  0  0  0  0  0  0  0  0
  145.6164  134.2878  151.1086 C   0  0  0  0  0  0  0  0  0  0  0  0
  144.5397  133.2762  150.6888 C   0  0  0  0  0  0  0  0  0  0  0  0
  146.1882  133.9212  152.4886 C   0  0  0  0  0  0  0  0  0  0  0  0
  145.9068  138.0531  151.0143 C   0  0  0  0  0  0  0  0  0  0  0  0
  146.9697  139.0115  151.5773 C   0  0  0  0  0  0  0  0  0  0  0  0
  149.0693  141.5548  157.4908 N   0  0  0  0  0  0  0  0  0  0  0  0
  149.8988  142.2797  158.3543 O   0  0  0  0  0  0  0  0  0  0  0  0
  152.6186  144.1115  157.6994 H   0  0  0  0  0  0  0  0  0  0  0  0
  152.4655  143.0235  159.0808 H   0  0  0  0  0  0  0  0  0  0  0  0
  151.4111  144.4327  158.9452 H   0  0  0  0  0  0  0  0  0  0  0  0
  151.4371  142.7728  155.4937 H   0  0  0  0  0  0  0  0  0  0  0  0
  149.6623  141.3609  154.2528 H   0  0  0  0  0  0  0  0  0  0  0  0
  148.5717  140.3478  152.9626 H   0  0  0  0  0  0  0  0  0  0  0  0
  145.8504  139.6051  153.3084 H   0  0  0  0  0  0  0  0  0  0  0  0
  147.8583  137.3312  153.6343 H   0  0  0  0  0  0  0  0  0  0  0  0
  146.7041  137.8644  154.8335 H   0  0  0  0  0  0  0  0  0  0  0  0
  145.9043  135.8522  153.6083 H   0  0  0  0  0  0  0  0  0  0  0  0
  144.8083  137.2013  153.3782 H   0  0  0  0  0  0  0  0  0  0  0  0
  144.1076  135.7245  151.6350 H   0  0  0  0  0  0  0  0  0  0  0  0
  144.8025  136.0249  150.0654 H   0  0  0  0  0  0  0  0  0  0  0  0
  146.4230  134.2071  150.3805 H   0  0  0  0  0  0  0  0  0  0  0  0
  143.6930  133.2881  151.3761 H   0  0  0  0  0  0  0  0  0  0  0  0
  144.9383  132.2615  150.6705 H   0  0  0  0  0  0  0  0  0  0  0  0
  144.1607  133.4960  149.6903 H   0  0  0  0  0  0  0  0  0  0  0  0
  145.4259  133.9892  153.2654 H   0  0  0  0  0  0  0  0  0  0  0  0
  147.0098  134.5806  152.7694 H   0  0  0  0  0  0  0  0  0  0  0  0
  146.5756  132.9019  152.4936 H   0  0  0  0  0  0  0  0  0  0  0  0
  146.0577  137.9517  149.9403 H   0  0  0  0  0  0  0  0  0  0  0  0
  144.9115  138.4790  151.1523 H   0  0  0  0  0  0  0  0  0  0  0  0
  146.8789  139.9861  151.0957 H   0  0  0  0  0  0  0  0  0  0  0  0
  147.9643  138.6359  151.3309 H   0  0  0  0  0  0  0  0  0  0  0  0
  146.9089  136.3661  151.5285 H   0  0  0  0  0  0  0  0  0  0  0  0
  1  2  1  0  0  0  0
  1 21  1  0  0  0  0
  1 22  1  0  0  0  0
  1 23  1  0  0  0  0
  2 20  1  0  0  0  0
  2  3  2  0  0  0  0
  3  4  1  0  0  0  0
  3 24  1  0  0  0  0
  4  5  1  0  0  0  0
  4 19  2  0  0  0  0
  5  6  1  0  0  0  0
  5 25  1  0  0  0  0
  6  7  2  0  0  0  0
  6  8  1  0  0  0  0
  8  9  1  0  0  0  0
  8 26  1  0  0  0  0
  9 18  1  0  0  0  0
  9 10  1  0  0  0  0
  9 27  1  0  0  0  0
 10 11  1  0  0  0  0
 10 28  1  0  0  0  0
 10 29  1  0  0  0  0
 11 12  1  0  0  0  0
 11 30  1  0  0  0  0
 11 31  1  0  0  0  0
 12 13  1  0  0  0  0
 12 17  1  0  0  0  0
 12 45  1  0  0  0  0
 13 14  1  0  0  0  0
 13 32  1  0  0  0  0
 13 33  1  0  0  0  0
 14 15  1  0  0  0  0
 14 16  1  0  0  0  0
 14 34  1  0  0  0  0
 15 35  1  0  0  0  0
 15 36  1  0  0  0  0
 15 37  1  0  0  0  0
 16 38  1  0  0  0  0
 16 39  1  0  0  0  0
 16 40  1  0  0  0  0
 17 18  1  0  0  0  0
 17 41  1  0  0  0  0
 17 42  1  0  0  0  0
 18 43  1  0  0  0  0
 18 44  1  0  0  0  0
 19 20  1  0  0  0  0
M  CHG  1  12   1
M  END
> <s_m_source_file>
AV-unprocessed.smi

> <i_m_source_file_index>
1301

> <i_lp_mmshare_version>
43012

> <i_f3d_flags>
0

> <s_epik_input>
W0NIM11jMVtjSF1jKG5vMSlbTkhdQyg9TylbTkhdW0NIXTJbQ0gyXVtDSDJdTihbQ0gyXVtDSDJdMilbQ0gyXVtDSF0oW0NIM10pW0NIM10=

> <s_epik_cmdline>
J2VwaWtfcHl0aG9uJywgJy1waCcsICc3LjAnLCAnLXRuJywgJzgnLCAnLW1hJywgJzIwMCcsICctbWV0YWxfYmluZGluZycsICctaW1hZScsICc8aW5maWxlLm1hZT4nLCAnLW9tYWUnLCAnPG91dGZpbGUubWFlPic=

> <r_epik_Ionization_Penalty>
0.0020743

> <r_epik_Ionization_Penalty_Charging>
0.0020412

> <r_epik_Ionization_Penalty_Neutral>
3.31029e-05

> <r_epik_State_Penalty>
0.00139626

> <r_epik_Charging_Adjusted_Penalty>
0.00343746

> <i_epik_Tot_Q>
1

> <i_epik_Tot_abs_Q>
1

> <r_epik_Metal_State_Penalty>
0.0141509

> <b_epik_Metal_Only>
0

> <s_lp_Force_Field>
OPLS_2005

> <r_lp_Energy>
17.3221

> <b_lp_Chiralities_Consistent>
1

> <s_lp_Variant>
AV-unprocessed.smi:1301-1

> <Gold.Version>
5.8.1

> <Gold.Id.Protein>
6NUR|6NUR_protein|mol2

> <Gold.PLP.Fitness>
36.5390

> <Gold.PLP.PLP>
-28.5918

> <Gold.PLP.part.hbond>
-2.0000

> <Gold.PLP.part.metal>
0.0000

> <Gold.PLP.part.buried>
3.7421

> <Gold.PLP.part.nonpolar>
-30.8066

> <Gold.PLP.part.repulsive>
0.4010

> <Gold.PLP.ligand.clash>
0.0000

> <Gold.PLP.ligand.torsion>
0.4404

> <Gold.PLP.Chemscore.Hbond>
2.9357

> <Gold.PLP.Chemscore.CHOScore>
0.0000

> <Gold.PLP.Chemscore.Metal>
0.0000

> <Gold.Chemscore.Hbonds>
donor molecule, donor type, donor heavy atom, donor atom, acceptor molecule, acceptor atom, score
      L1  H     8    26       P1  7957  0.80
      L1  H    12    45       P1  7948  1.95

> <Gold.PLP.Chemscore.Internal.Correction>
0.0208

> <Gold.Rescore>
     Score         DG    S(hbond)    S(metal)    S(lipo)     H(rot)  DE(clash)    DE(int)     intcor
     13.59     -18.62       1.85        0.00      90.62       1.43       3.35       1.68       ----

> <Gold.Chemscore.Fitness>
13.5914

> <Gold.Chemscore.DG>
-18.6168

> <Gold.Chemscore.ZeroCoef>
-5.4800

> <Gold.Chemscore.Hbond>
1.8547

> <Gold.Chemscore.Metal>
0.0000

> <Gold.Chemscore.Lipo>
90.6181

> <Gold.Chemscore.Internal_Hbond>
0.0000

> <Gold.Chemscore.DEClash>
3.3481

> <Gold.Chemscore.DEInternal>
1.6773

> <Gold.Chemscore.Rot>
1.4298

> <Gold.Chemscore.Internal.Correction>
   9.000000E+99

> <Gold.Chemscore.Hbonds>
donor molecule, donor type, donor heavy atom, donor atom, acceptor molecule, acceptor atom, score
      L1  H     8    26       P1  7957  0.76
      L1  H    12    45       P1  7948  0.90

> <Gold.Chemscore.Hbond.Weighted>
-6.1948

> <Gold.Chemscore.Metal.Weighted>
-0.0000

> <Gold.Chemscore.Lipo.Weighted>
-10.6023

> <Gold.Chemscore.Internal_Hbond.Weighted>
0.0000

> <Gold.Chemscore.DEClash.Weighted>
3.3481

> <Gold.Chemscore.DEInternal.Weighted>
1.6773

> <Gold.Chemscore.Rot.Weighted>
3.6604

> <Gold.Chemscore.Internal.Correction.Weighted>
   9.000000E+99

> <Gold.Protein.RotatedTorsions>
[ 6907 6896 6895 6894 ] final   85.07 input  -60.11 | X-H torsion
[ 7974 7965 7964 7962 ] final -165.48 input  175.53 | X-H torsion
[ 8008 7997 7996 7995 ] final  -40.30 input   59.86 | X-H torsion
[ 10167 10162 10161 10158 ] final -157.08 input  -65.29 | X-H torsion
[ 10718 10713 10712 10709 ] final -122.45 input   66.30 | X-H torsion
[ 10763 10752 10751 10750 ] final  104.62 input  -60.55 | X-H torsion
[ 11005 11000 10999 10996 ] final -163.25 input  -57.11 | X-H torsion

> <Gold.Protein.ActiveResidues>
 VAL166  LYS551  ARG553  GLY616  TRP617  ASP618  TYR619  PRO620  LYS621  CYS622 
 ASP623  PHE694  ASN695  SER759  ASP760  ASP761  ALA762  ILE779  LEU786  VAL792 
 PHE793  MET794  SER795  GLU796  ALA797  LYS798  CYS799  TRP800  GLU811  SER814 

> <Gold.Protein.RotatedAtoms>
  152.5366  134.2643  159.8947 H   0  0  0  0  0  0  0  0  0  0  0  0  # atno 6907 bound_to 6896
  151.2602  133.4299  159.2623 H   0  0  0  0  0  0  0  0  0  0  0  0  # atno 6908 bound_to 6896
  151.0460  134.9654  159.8243 H   0  0  0  0  0  0  0  0  0  0  0  0  # atno 6909 bound_to 6896
  144.7269  140.2808  143.6236 H   0  0  0  0  0  0  0  0  0  0  0  0  # atno 7974 bound_to 7965
  154.4013  140.1529  156.3004 H   0  0  0  0  0  0  0  0  0  0  0  0  # atno 8008 bound_to 7997
  155.8705  140.3449  155.5796 H   0  0  0  0  0  0  0  0  0  0  0  0  # atno 8009 bound_to 7997
  155.7779  140.0839  157.2065 H   0  0  0  0  0  0  0  0  0  0  0  0  # atno 8010 bound_to 7997
  139.6799  143.9599  152.2331 H   0  0  0  0  0  0  0  0  0  0  0  0  # atno 10167 bound_to 10162
  156.1420  130.6472  150.9785 H   0  0  0  0  0  0  0  0  0  0  0  0  # atno 10718 bound_to 10713
  153.3684  135.3937  155.1770 H   0  0  0  0  0  0  0  0  0  0  0  0  # atno 10763 bound_to 10752
  154.8690  135.3696  154.5009 H   0  0  0  0  0  0  0  0  0  0  0  0  # atno 10764 bound_to 10752
  153.5474  135.7083  153.5668 H   0  0  0  0  0  0  0  0  0  0  0  0  # atno 10765 bound_to 10752
  140.6002  134.4955  157.5204 H   0  0  0  0  0  0  0  0  0  0  0  0  # atno 11005 bound_to 11000
  145.7951  139.1942  143.2080 LP  0  0  0  0  0  0  0  0  0  0  0  0  # atno 17320 bound_to 7965
  146.0723  140.7855  142.9682 LP  0  0  0  0  0  0  0  0  0  0  0  0  # atno 17321 bound_to 7965
  139.9387  144.6696  150.8289 LP  0  0  0  0  0  0  0  0  0  0  0  0  # atno 17342 bound_to 10162
  140.7648  143.3259  151.2516 LP  0  0  0  0  0  0  0  0  0  0  0  0  # atno 17343 bound_to 10162
  157.6584  131.0885  150.7896 LP  0  0  0  0  0  0  0  0  0  0  0  0  # atno 17370 bound_to 10713
  156.7970  130.4909  149.5375 LP  0  0  0  0  0  0  0  0  0  0  0  0  # atno 17371 bound_to 10713
  139.9236  134.8100  156.1136 LP  0  0  0  0  0  0  0  0  0  0  0  0  # atno 17394 bound_to 11000
  141.0877  133.6727  156.2473 LP  0  0  0  0  0  0  0  0  0  0  0  0  # atno 17395 bound_to 11000

$$$$
