AV-unprocessed.smi:2007|AV-procd|sdf|8134|dock2
  -GOLD-   2272010363D 1   1.00000     0.00000
 Structure written by MMmdl.
 36 37  0  0  0  0  0  0  0  0  1 V2000
  149.7207  133.5079  155.8116 C   0  0  0  0  0  0  0  0  0  0  0  0
  149.4277  134.9500  155.3767 C   0  0  1  0  0  0  0  0  0  0  0  0
  150.7342  135.7573  155.2129 C   0  0  0  0  0  0  0  0  0  0  0  0
  150.6004  137.2108  155.3210 N   0  0  0  0  0  0  0  0  0  0  0  0
  151.8882  137.9008  155.2841 C   0  0  0  0  0  0  0  0  0  0  0  0
  151.7217  139.4266  155.3896 C   0  0  0  0  0  0  0  0  0  0  0  0
  150.8693  139.8881  154.3463 O   0  0  0  0  0  0  0  0  0  0  0  0
  149.5873  139.2690  154.3708 C   0  0  0  0  0  0  0  0  0  0  0  0
  149.7503  137.7429  154.2622 C   0  0  0  0  0  0  0  0  0  0  0  0
  148.6862  134.9238  154.1167 N   0  0  0  0  0  0  0  0  0  0  0  0
  147.6055  134.1726  153.8567 C   0  0  0  0  0  0  0  0  0  0  0  0
  147.1145  133.3801  154.6613 O   0  0  0  0  0  0  0  0  0  0  0  0
  147.1409  134.4061  152.6168 N   0  0  0  0  0  0  0  0  0  0  0  0
  146.0108  133.8299  151.9798 C   0  0  0  0  0  0  0  0  0  0  0  0
  145.5408  132.6040  152.2392 N   0  0  0  0  0  0  0  0  0  0  0  0
  144.4168  132.2991  151.4674 C   0  0  0  0  0  0  0  0  0  0  0  0
  144.0422  133.3114  150.6193 C   0  0  0  0  0  0  0  0  0  0  0  0
  145.0926  134.6961  150.7569 S   0  0  0  0  0  0  0  0  0  0  0  0
  150.2554  133.4865  156.7615 H   0  0  0  0  0  0  0  0  0  0  0  0
  150.3313  132.9852  155.0746 H   0  0  0  0  0  0  0  0  0  0  0  0
  148.7975  132.9420  155.9421 H   0  0  0  0  0  0  0  0  0  0  0  0
  148.8173  135.3937  156.1635 H   0  0  0  0  0  0  0  0  0  0  0  0
  151.4675  135.4089  155.9418 H   0  0  0  0  0  0  0  0  0  0  0  0
  151.1529  135.5138  154.2352 H   0  0  0  0  0  0  0  0  0  0  0  0
  152.5257  137.5654  156.1006 H   0  0  0  0  0  0  0  0  0  0  0  0
  152.4126  137.6575  154.3589 H   0  0  0  0  0  0  0  0  0  0  0  0
  151.3042  139.7016  156.3595 H   0  0  0  0  0  0  0  0  0  0  0  0
  152.6895  139.9207  155.3051 H   0  0  0  0  0  0  0  0  0  0  0  0
  149.0634  139.5370  155.2897 H   0  0  0  0  0  0  0  0  0  0  0  0
  148.9925  139.6474  153.5396 H   0  0  0  0  0  0  0  0  0  0  0  0
  150.1727  137.4933  153.2876 H   0  0  0  0  0  0  0  0  0  0  0  0
  148.7668  137.2736  154.3053 H   0  0  0  0  0  0  0  0  0  0  0  0
  149.0131  135.5444  153.3911 H   0  0  0  0  0  0  0  0  0  0  0  0
  147.6495  135.0830  152.0674 H   0  0  0  0  0  0  0  0  0  0  0  0
  143.9441  131.3355  151.5864 H   0  0  0  0  0  0  0  0  0  0  0  0
  143.2150  133.3261  149.9252 H   0  0  0  0  0  0  0  0  0  0  0  0
  1  2  1  0  0  0  0
  1 19  1  0  0  0  0
  1 20  1  0  0  0  0
  1 21  1  0  0  0  0
  2  3  1  0  0  0  0
  2 10  1  0  0  0  0
  2 22  1  0  0  0  0
  3  4  1  0  0  0  0
  3 23  1  0  0  0  0
  3 24  1  0  0  0  0
  4  9  1  0  0  0  0
  4  5  1  0  0  0  0
  5  6  1  0  0  0  0
  5 25  1  0  0  0  0
  5 26  1  0  0  0  0
  6  7  1  0  0  0  0
  6 27  1  0  0  0  0
  6 28  1  0  0  0  0
  7  8  1  0  0  0  0
  8  9  1  0  0  0  0
  8 29  1  0  0  0  0
  8 30  1  0  0  0  0
  9 31  1  0  0  0  0
  9 32  1  0  0  0  0
 10 11  1  0  0  0  0
 10 33  1  0  0  0  0
 11 12  2  0  0  0  0
 11 13  1  0  0  0  0
 13 14  1  0  0  0  0
 13 34  1  0  0  0  0
 14 18  1  0  0  0  0
 14 15  2  0  0  0  0
 15 16  1  0  0  0  0
 16 17  2  0  0  0  0
 16 35  1  0  0  0  0
 17 18  1  0  0  0  0
 17 36  1  0  0  0  0
M  END
> <s_m_source_file>
AV-unprocessed.smi

> <i_m_source_file_index>
2007

> <i_lp_mmshare_version>
43012

> <i_f3d_flags>
0

> <s_epik_input>
W0NIMl0xW0NIMl1PW0NIMl1bQ0gyXU4xW0NIMl1bQ0BASF0oW0NIM10pW05IXUMoPU8pW05IXWMybltjSF1bY0hdczI=

> <s_epik_cmdline>
J2VwaWtfcHl0aG9uJywgJy1waCcsICc3LjAnLCAnLXRuJywgJzgnLCAnLW1hJywgJzIwMCcsICctbWV0YWxfYmluZGluZycsICctaW1hZScsICc8aW5maWxlLm1hZT4nLCAnLW9tYWUnLCAnPG91dGZpbGUubWFlPic=

> <r_lp_tautomer_probability>
0.999

> <r_epik_Ionization_Penalty>
0.219197

> <r_epik_Ionization_Penalty_Charging>
0

> <r_epik_Ionization_Penalty_Neutral>
0.219197

> <r_epik_State_Penalty>
0.209349

> <r_epik_Charging_Adjusted_Penalty>
0.209349

> <i_epik_Tot_Q>
0

> <i_epik_Tot_abs_Q>
0

> <r_epik_Metal_State_Penalty>
0.254604

> <b_epik_Metal_Only>
0

> <s_lp_Force_Field>
OPLS_2005

> <r_lp_Energy>
23.7512

> <b_lp_Chiralities_Consistent>
1

> <s_lp_Variant>
AV-unprocessed.smi:2007-2

> <Gold.Version>
5.8.1

> <Gold.Id.Protein>
6NUR|6NUR_protein|mol2

> <Gold.PLP.Fitness>
38.0794

> <Gold.PLP.PLP>
-27.1113

> <Gold.PLP.part.hbond>
-3.0000

> <Gold.PLP.part.metal>
0.0000

> <Gold.PLP.part.buried>
-1.4878

> <Gold.PLP.part.nonpolar>
-22.8864

> <Gold.PLP.part.repulsive>
0.3738

> <Gold.PLP.ligand.clash>
0.0000

> <Gold.PLP.ligand.torsion>
0.5228

> <Gold.PLP.Chemscore.Hbond>
3.0000

> <Gold.PLP.Chemscore.CHOScore>
1.0000

> <Gold.PLP.Chemscore.Metal>
0.0000

> <Gold.Chemscore.Hbonds>
donor molecule, donor type, donor heavy atom, donor atom, acceptor molecule, acceptor atom, score
      L1  H    10    33       P1  7948  1.00
      L1  H    13    34       P1  7948  1.00
      P1  H  7989  7998       L1     7  0.93
      L1  C    17    36       P1 10186  1.00

> <Gold.PLP.Chemscore.Internal.Correction>
0.0137

> <Gold.Rescore>
     Score         DG    S(hbond)    S(metal)    S(lipo)     H(rot)  DE(clash)    DE(int)     intcor
     14.56     -17.50       2.79        0.00      57.80       1.58       0.02       2.92       ----

> <Gold.Chemscore.Fitness>
14.5574

> <Gold.Chemscore.DG>
-17.5037

> <Gold.Chemscore.ZeroCoef>
-5.4800

> <Gold.Chemscore.Hbond>
2.7882

> <Gold.Chemscore.Metal>
0.0000

> <Gold.Chemscore.Lipo>
57.7987

> <Gold.Chemscore.Internal_Hbond>
0.0000

> <Gold.Chemscore.DEClash>
0.0234

> <Gold.Chemscore.DEInternal>
2.9228

> <Gold.Chemscore.Rot>
1.5825

> <Gold.Chemscore.Internal.Correction>
   9.000000E+99

> <Gold.Chemscore.Hbonds>
donor molecule, donor type, donor heavy atom, donor atom, acceptor molecule, acceptor atom, score
      L1  H    10    33       P1  7948  0.68
      L1  H    13    34       P1  7948  0.88
      P1  H  7989  7998       L1     7  0.62

> <Gold.Chemscore.Hbond.Weighted>
-9.3125

> <Gold.Chemscore.Metal.Weighted>
-0.0000

> <Gold.Chemscore.Lipo.Weighted>
-6.7624

> <Gold.Chemscore.Internal_Hbond.Weighted>
0.0000

> <Gold.Chemscore.DEClash.Weighted>
0.0234

> <Gold.Chemscore.DEInternal.Weighted>
2.9228

> <Gold.Chemscore.Rot.Weighted>
4.0512

> <Gold.Chemscore.Internal.Correction.Weighted>
   9.000000E+99

> <Gold.Protein.RotatedTorsions>
[ 6907 6896 6895 6894 ] final  -32.73 input  -60.11 | X-H torsion
[ 7974 7965 7964 7962 ] final    3.65 input  175.53 | X-H torsion
[ 8008 7997 7996 7995 ] final   81.89 input   59.86 | X-H torsion
[ 10167 10162 10161 10158 ] final -167.61 input  -65.29 | X-H torsion
[ 10718 10713 10712 10709 ] final -130.91 input   66.30 | X-H torsion
[ 10763 10752 10751 10750 ] final -128.09 input  -60.55 | X-H torsion
[ 11005 11000 10999 10996 ] final -176.39 input  -57.11 | X-H torsion

> <Gold.Protein.ActiveResidues>
 VAL166  LYS551  ARG553  GLY616  TRP617  ASP618  TYR619  PRO620  LYS621  CYS622 
 ASP623  PHE694  ASN695  SER759  ASP760  ASP761  ALA762  ILE779  LEU786  VAL792 
 PHE793  MET794  SER795  GLU796  ALA797  LYS798  CYS799  TRP800  GLU811  SER814 

> <Gold.Protein.RotatedAtoms>
  151.0748  134.9821  159.8326 H   0  0  0  0  0  0  0  0  0  0  0  0  # atno 6907 bound_to 6896
  152.5413  134.2254  159.8814 H   0  0  0  0  0  0  0  0  0  0  0  0  # atno 6908 bound_to 6896
  151.2280  133.4422  159.2636 H   0  0  0  0  0  0  0  0  0  0  0  0  # atno 6909 bound_to 6896
  146.2445  140.0654  142.8366 H   0  0  0  0  0  0  0  0  0  0  0  0  # atno 7974 bound_to 7965
  155.9033  140.3432  155.6043 H   0  0  0  0  0  0  0  0  0  0  0  0  # atno 8008 bound_to 7997
  155.7474  140.0815  157.2236 H   0  0  0  0  0  0  0  0  0  0  0  0  # atno 8009 bound_to 7997
  154.4046  140.1559  156.2672 H   0  0  0  0  0  0  0  0  0  0  0  0  # atno 8010 bound_to 7997
  139.6038  144.0955  152.1771 H   0  0  0  0  0  0  0  0  0  0  0  0  # atno 10167 bound_to 10162
  156.2191  130.6967  151.0736 H   0  0  0  0  0  0  0  0  0  0  0  0  # atno 10718 bound_to 10713
  154.8755  135.3940  154.3700 H   0  0  0  0  0  0  0  0  0  0  0  0  # atno 10763 bound_to 10752
  153.4461  135.7027  153.6143 H   0  0  0  0  0  0  0  0  0  0  0  0  # atno 10764 bound_to 10752
  153.4703  135.3792  155.2356 H   0  0  0  0  0  0  0  0  0  0  0  0  # atno 10765 bound_to 10752
  140.4526  134.6329  157.4808 H   0  0  0  0  0  0  0  0  0  0  0  0  # atno 11005 bound_to 11000
  145.0863  140.9255  143.4795 LP  0  0  0  0  0  0  0  0  0  0  0  0  # atno 17320 bound_to 7965
  145.0817  139.2955  143.5780 LP  0  0  0  0  0  0  0  0  0  0  0  0  # atno 17321 bound_to 7965
  140.0558  144.5896  150.7301 LP  0  0  0  0  0  0  0  0  0  0  0  0  # atno 17342 bound_to 10162
  140.7269  143.2646  151.4087 LP  0  0  0  0  0  0  0  0  0  0  0  0  # atno 17343 bound_to 10162
  157.7078  131.0748  150.6605 LP  0  0  0  0  0  0  0  0  0  0  0  0  # atno 17370 bound_to 10713
  156.6667  130.4528  149.5670 LP  0  0  0  0  0  0  0  0  0  0  0  0  # atno 17371 bound_to 10713
  139.9997  134.6856  155.9551 LP  0  0  0  0  0  0  0  0  0  0  0  0  # atno 17394 bound_to 11000
  141.1657  133.6537  156.4472 LP  0  0  0  0  0  0  0  0  0  0  0  0  # atno 17395 bound_to 11000

$$$$
