AV-unprocessed.smi:1622|AV-procd|sdf|6497|dock5
  -GOLD-   22720 7163D 1   1.00000     0.00000
 Structure written by MMmdl.
 41 42  0  0  0  0  0  0  0  0  2 V2000
  146.7429  132.1263  156.0674 C   0  0  0  0  0  0  0  0  0  0  0  0
  146.6620  132.5612  154.5951 C   0  0  0  0  0  0  0  0  0  0  0  0
  147.6905  131.8755  153.6553 C   0  0  2  0  0  0  0  0  0  0  0  0
  149.1455  132.3558  153.9011 C   0  0  0  0  0  0  0  0  0  0  0  0
  149.2856  133.8061  153.7875 N   0  0  0  0  0  0  0  0  0  0  0  0
  149.9923  134.5874  154.6178 C   0  0  0  0  0  0  0  0  0  0  0  0
  150.6092  134.1588  155.5929 O   0  0  0  0  0  0  0  0  0  0  0  0
  149.9346  135.8773  154.2421 N   0  0  0  0  0  0  0  0  0  0  0  0
  150.5773  136.9945  154.8387 C   0  0  0  0  0  0  0  0  0  0  0  0
  151.6703  136.9002  155.6085 N   0  0  0  0  0  0  0  0  0  0  0  0
  152.0965  138.1423  156.0568 N   0  0  0  0  0  0  0  0  0  0  0  0
  151.3159  139.1362  155.6159 C   0  0  0  0  0  0  0  0  0  0  0  0
  151.5632  140.5663  155.9552 C   0  0  0  0  0  0  0  0  0  0  0  0
  149.9761  138.6256  154.5959 S   0  0  0  0  0  0  0  0  0  0  0  0
  147.3006  132.0202  152.2205 N   0  3  0  0  0  0  0  0  0  0  0  0
  146.0764  131.2971  151.8150 C   0  0  0  0  0  0  0  0  0  0  0  0
  145.6490  131.9180  150.4850 C   0  0  0  0  0  0  0  0  0  0  0  0
  146.2499  133.3256  150.4847 C   0  0  0  0  0  0  0  0  0  0  0  0
  147.1010  133.4112  151.7556 C   0  0  0  0  0  0  0  0  0  0  0  0
  145.9882  132.6429  156.6606 H   0  0  0  0  0  0  0  0  0  0  0  0
  147.7150  132.3578  156.5025 H   0  0  0  0  0  0  0  0  0  0  0  0
  146.5713  131.0574  156.1847 H   0  0  0  0  0  0  0  0  0  0  0  0
  145.6507  132.3790  154.2320 H   0  0  0  0  0  0  0  0  0  0  0  0
  146.7745  133.6442  154.5429 H   0  0  0  0  0  0  0  0  0  0  0  0
  147.6651  130.8086  153.8837 H   0  0  0  0  0  0  0  0  0  0  0  0
  149.4627  132.1059  154.9132 H   0  0  0  0  0  0  0  0  0  0  0  0
  149.8343  131.8338  153.2354 H   0  0  0  0  0  0  0  0  0  0  0  0
  148.8080  134.2483  153.0154 H   0  0  0  0  0  0  0  0  0  0  0  0
  149.3736  136.0854  153.4292 H   0  0  0  0  0  0  0  0  0  0  0  0
  152.1469  140.6461  156.8729 H   0  0  0  0  0  0  0  0  0  0  0  0
  150.6164  141.0870  156.0993 H   0  0  0  0  0  0  0  0  0  0  0  0
  152.1113  141.0506  155.1472 H   0  0  0  0  0  0  0  0  0  0  0  0
  146.2446  130.2239  151.7198 H   0  0  0  0  0  0  0  0  0  0  0  0
  145.2960  131.4556  152.5612 H   0  0  0  0  0  0  0  0  0  0  0  0
  146.0620  131.3429  149.6552 H   0  0  0  0  0  0  0  0  0  0  0  0
  144.5646  131.9284  150.3706 H   0  0  0  0  0  0  0  0  0  0  0  0
  146.8669  133.4693  149.5968 H   0  0  0  0  0  0  0  0  0  0  0  0
  145.4783  134.0962  150.4758 H   0  0  0  0  0  0  0  0  0  0  0  0
  146.5594  133.9758  152.5165 H   0  0  0  0  0  0  0  0  0  0  0  0
  148.0490  133.9175  151.5718 H   0  0  0  0  0  0  0  0  0  0  0  0
  148.0527  131.6382  151.6648 H   0  0  0  0  0  0  0  0  0  0  0  0
  1  2  1  0  0  0  0
  1 20  1  0  0  0  0
  1 21  1  0  0  0  0
  1 22  1  0  0  0  0
  2  3  1  0  0  0  0
  2 23  1  0  0  0  0
  2 24  1  0  0  0  0
  3  4  1  0  0  0  0
  3 15  1  0  0  0  0
  3 25  1  0  0  0  0
  4  5  1  0  0  0  0
  4 26  1  0  0  0  0
  4 27  1  0  0  0  0
  5  6  1  0  0  0  0
  5 28  1  0  0  0  0
  6  7  2  0  0  0  0
  6  8  1  0  0  0  0
  8  9  1  0  0  0  0
  8 29  1  0  0  0  0
  9 14  1  0  0  0  0
  9 10  2  0  0  0  0
 10 11  1  0  0  0  0
 11 12  2  0  0  0  0
 12 13  1  0  0  0  0
 12 14  1  0  0  0  0
 13 30  1  0  0  0  0
 13 31  1  0  0  0  0
 13 32  1  0  0  0  0
 15 19  1  0  0  0  0
 15 16  1  0  0  0  0
 15 41  1  0  0  0  0
 16 17  1  0  0  0  0
 16 33  1  0  0  0  0
 16 34  1  0  0  0  0
 17 18  1  0  0  0  0
 17 35  1  0  0  0  0
 17 36  1  0  0  0  0
 18 19  1  0  0  0  0
 18 37  1  0  0  0  0
 18 38  1  0  0  0  0
 19 39  1  0  0  0  0
 19 40  1  0  0  0  0
M  CHG  1  15   1
M  END
> <s_m_source_file>
AV-unprocessed.smi

> <i_m_source_file_index>
1622

> <i_lp_mmshare_version>
43012

> <i_f3d_flags>
0

> <s_epik_input>
W0NIMl0xW0NIMl1bQ0gyXVtDSDJdTjFbQ0BIXShbQ0gyXVtDSDNdKVtDSDJdW05IXUMoPU8pW05IXWMybm5jKHMyKVtDSDNd

> <s_epik_cmdline>
J2VwaWtfcHl0aG9uJywgJy1waCcsICc3LjAnLCAnLXRuJywgJzgnLCAnLW1hJywgJzIwMCcsICctbWV0YWxfYmluZGluZycsICctaW1hZScsICc8aW5maWxlLm1hZT4nLCAnLW9tYWUnLCAnPG91dGZpbGUubWFlPic=

> <r_lp_tautomer_probability>
1

> <r_epik_Ionization_Penalty>
0.00164835

> <r_epik_Ionization_Penalty_Charging>
0.00115997

> <r_epik_Ionization_Penalty_Neutral>
0.00048838

> <r_epik_State_Penalty>
-0

> <r_epik_Charging_Adjusted_Penalty>
0.00115997

> <i_epik_Tot_Q>
1

> <i_epik_Tot_abs_Q>
1

> <r_epik_Metal_State_Penalty>
0.216651

> <b_epik_Metal_Only>
0

> <s_lp_Force_Field>
OPLS_2005

> <r_lp_Energy>
32.351

> <b_lp_Chiralities_Consistent>
1

> <s_lp_Variant>
AV-unprocessed.smi:1622-1

> <Gold.Version>
5.8.1

> <Gold.Id.Protein>
6NUR|6NUR_protein|mol2

> <Gold.PLP.Fitness>
40.7228

> <Gold.PLP.PLP>
-31.9227

> <Gold.PLP.part.hbond>
-4.9604

> <Gold.PLP.part.metal>
0.0000

> <Gold.PLP.part.buried>
-2.1686

> <Gold.PLP.part.nonpolar>
-24.5555

> <Gold.PLP.part.repulsive>
0.1788

> <Gold.PLP.ligand.clash>
0.0000

> <Gold.PLP.ligand.torsion>
0.4447

> <Gold.PLP.Chemscore.Hbond>
3.2039

> <Gold.PLP.Chemscore.CHOScore>
0.0000

> <Gold.PLP.Chemscore.Metal>
0.0000

> <Gold.Chemscore.Hbonds>
donor molecule, donor type, donor heavy atom, donor atom, acceptor molecule, acceptor atom, score
      L1  H     5    28       P1  7948  0.18
      L1  H     8    29       P1  7948  1.00
      L1  H    15    41       P1 10747  1.00
      P1  H 10752 10763       L1    10  0.93

> <Gold.PLP.Chemscore.Internal.Correction>
0.0778

> <Gold.Rescore>
     Score         DG    S(hbond)    S(metal)    S(lipo)     H(rot)  DE(clash)    DE(int)     intcor
     15.68     -17.53       2.70        0.00      64.71       1.77       0.04       1.82       ----

> <Gold.Chemscore.Fitness>
15.6756

> <Gold.Chemscore.DG>
-17.5290

> <Gold.Chemscore.ZeroCoef>
-5.4800

> <Gold.Chemscore.Hbond>
2.7002

> <Gold.Chemscore.Metal>
0.0000

> <Gold.Chemscore.Lipo>
64.7122

> <Gold.Chemscore.Internal_Hbond>
0.0000

> <Gold.Chemscore.DEClash>
0.0366

> <Gold.Chemscore.DEInternal>
1.8168

> <Gold.Chemscore.Rot>
1.7738

> <Gold.Chemscore.Internal.Correction>
   9.000000E+99

> <Gold.Chemscore.Hbonds>
donor molecule, donor type, donor heavy atom, donor atom, acceptor molecule, acceptor atom, score
      L1  H     5    28       P1  7948  0.01
      L1  H     8    29       P1  7948  0.59
      L1  H    15    41       P1 10747  1.00
      P1  H 10752 10763       L1    10  0.68

> <Gold.Chemscore.Hbond.Weighted>
-9.0188

> <Gold.Chemscore.Metal.Weighted>
-0.0000

> <Gold.Chemscore.Lipo.Weighted>
-7.5713

> <Gold.Chemscore.Internal_Hbond.Weighted>
0.0000

> <Gold.Chemscore.DEClash.Weighted>
0.0366

> <Gold.Chemscore.DEInternal.Weighted>
1.8168

> <Gold.Chemscore.Rot.Weighted>
4.5411

> <Gold.Chemscore.Internal.Correction.Weighted>
   9.000000E+99

> <Gold.Protein.RotatedTorsions>
[ 6907 6896 6895 6894 ] final   65.88 input  -60.11 | X-H torsion
[ 7974 7965 7964 7962 ] final   50.45 input  175.53 | X-H torsion
[ 8008 7997 7996 7995 ] final   66.11 input   59.86 | X-H torsion
[ 10167 10162 10161 10158 ] final  168.26 input  -65.29 | X-H torsion
[ 10718 10713 10712 10709 ] final  -78.09 input   66.30 | X-H torsion
[ 10763 10752 10751 10750 ] final   74.78 input  -60.55 | X-H torsion
[ 11005 11000 10999 10996 ] final -171.84 input  -57.11 | X-H torsion

> <Gold.Protein.ActiveResidues>
 VAL166  LYS551  ARG553  GLY616  TRP617  ASP618  TYR619  PRO620  LYS621  CYS622 
 ASP623  PHE694  ASN695  SER759  ASP760  ASP761  ALA762  ILE779  LEU786  VAL792 
 PHE793  MET794  SER795  GLU796  ALA797  LYS798  CYS799  TRP800  GLU811  SER814 

> <Gold.Protein.RotatedAtoms>
  152.4440  134.5532  159.9872 H   0  0  0  0  0  0  0  0  0  0  0  0  # atno 6907 bound_to 6896
  151.5622  133.3396  159.2981 H   0  0  0  0  0  0  0  0  0  0  0  0  # atno 6908 bound_to 6896
  150.8352  134.7656  159.6951 H   0  0  0  0  0  0  0  0  0  0  0  0  # atno 6909 bound_to 6896
  146.0010  139.4439  143.0015 H   0  0  0  0  0  0  0  0  0  0  0  0  # atno 7974 bound_to 7965
  155.6722  140.3497  155.4823 H   0  0  0  0  0  0  0  0  0  0  0  0  # atno 8008 bound_to 7997
  155.9678  140.1150  157.0862 H   0  0  0  0  0  0  0  0  0  0  0  0  # atno 8009 bound_to 7997
  154.4159  140.1163  156.5252 H   0  0  0  0  0  0  0  0  0  0  0  0  # atno 8010 bound_to 7997
  139.4964  144.3834  151.9597 H   0  0  0  0  0  0  0  0  0  0  0  0  # atno 10167 bound_to 10162
  156.0127  130.4509  150.3444 H   0  0  0  0  0  0  0  0  0  0  0  0  # atno 10718 bound_to 10713
  153.0610  135.5013  154.8093 H   0  0  0  0  0  0  0  0  0  0  0  0  # atno 10763 bound_to 10752
  154.6882  135.2980  154.9520 H   0  0  0  0  0  0  0  0  0  0  0  0  # atno 10764 bound_to 10752
  154.0283  135.6733  153.4831 H   0  0  0  0  0  0  0  0  0  0  0  0  # atno 10765 bound_to 10752
  140.5037  134.5869  157.4996 H   0  0  0  0  0  0  0  0  0  0  0  0  # atno 11005 bound_to 11000
  145.7487  140.9981  143.1262 LP  0  0  0  0  0  0  0  0  0  0  0  0  # atno 17320 bound_to 7965
  144.6919  139.9188  143.7467 LP  0  0  0  0  0  0  0  0  0  0  0  0  # atno 17321 bound_to 7965
  140.3270  144.3360  150.5996 LP  0  0  0  0  0  0  0  0  0  0  0  0  # atno 17342 bound_to 10162
  140.5676  143.2184  151.7656 LP  0  0  0  0  0  0  0  0  0  0  0  0  # atno 17343 bound_to 10162
  157.1538  131.0328  151.2873 LP  0  0  0  0  0  0  0  0  0  0  0  0  # atno 17370 bound_to 10713
  157.4369  130.7522  149.7037 LP  0  0  0  0  0  0  0  0  0  0  0  0  # atno 17371 bound_to 10713
  139.9699  134.7311  156.0063 LP  0  0  0  0  0  0  0  0  0  0  0  0  # atno 17394 bound_to 11000
  141.1422  133.6562  156.3763 LP  0  0  0  0  0  0  0  0  0  0  0  0  # atno 17395 bound_to 11000

$$$$
