AV-unprocessed.smi:2202|AV-procd|sdf|8934|dock9
  -GOLD-   2272012153D 1   1.00000     0.00000
 Structure written by MMmdl.
 43 45  0  0  0  0  0  0  0  0  2 V2000
  148.1303  138.4012  155.3995 O   0  0  0  0  0  0  0  0  0  0  0  0
  148.7490  138.7214  154.3831 C   0  0  0  0  0  0  0  0  0  0  0  0
  150.2722  138.9133  154.4083 C   0  0  0  0  0  0  0  0  0  0  0  0
  150.7359  139.7628  155.5127 N   0  0  0  0  0  0  0  0  0  0  0  0
  150.4936  141.0852  155.6070 C   0  0  0  0  0  0  0  0  0  0  0  0
  149.8000  141.7702  154.8561 O   0  0  0  0  0  0  0  0  0  0  0  0
  151.2868  141.6500  156.7758 C   0  0  1  0  0  0  0  0  0  0  0  0
  150.7627  142.7860  157.6627 C   0  0  0  0  0  0  0  0  0  0  0  0
  151.6923  142.9093  158.8747 C   0  0  0  0  0  0  0  0  0  0  0  0
  152.5825  141.9545  159.2407 C   0  0  0  0  0  0  0  0  0  0  0  0
  152.7411  140.6154  158.5127 C   0  0  0  0  0  0  0  0  0  0  0  0
  151.5106  140.4116  157.6207 C   0  0  2  0  0  0  0  0  0  0  0  0
  151.4232  139.3069  156.5787 C   0  0  0  0  0  0  0  0  0  0  0  0
  151.8604  138.1694  156.7502 O   0  0  0  0  0  0  0  0  0  0  0  0
  148.1530  138.9280  153.1991 N   0  0  0  0  0  0  0  0  0  0  0  0
  146.7218  138.7977  152.9524 C   0  0  0  0  0  0  0  0  0  0  0  0
  146.4396  138.0075  151.6633 C   0  0  0  0  0  0  0  0  0  0  0  0
  145.5827  136.7832  151.9184 C   0  0  0  0  0  0  0  0  0  0  0  0
  144.2145  136.8779  152.2530 C   0  0  0  0  0  0  0  0  0  0  0  0
  143.4788  135.6965  152.4836 C   0  0  0  0  0  0  0  0  0  0  0  0
  144.1260  134.4479  152.3760 C   0  0  0  0  0  0  0  0  0  0  0  0
  145.4949  134.4120  152.0408 C   0  0  0  0  0  0  0  0  0  0  0  0
  146.1652  135.5655  151.8273 N   0  3  0  0  0  0  0  0  0  0  0  0
  150.7533  137.9355  154.4722 H   0  0  0  0  0  0  0  0  0  0  0  0
  150.5839  139.3361  153.4515 H   0  0  0  0  0  0  0  0  0  0  0  0
  152.2386  141.9754  156.3490 H   0  0  0  0  0  0  0  0  0  0  0  0
  150.7614  143.7260  157.1102 H   0  0  0  0  0  0  0  0  0  0  0  0
  149.7423  142.5984  157.9988 H   0  0  0  0  0  0  0  0  0  0  0  0
  151.6178  143.8195  159.4514 H   0  0  0  0  0  0  0  0  0  0  0  0
  153.2242  142.1205  160.0935 H   0  0  0  0  0  0  0  0  0  0  0  0
  153.6646  140.6190  157.9327 H   0  0  0  0  0  0  0  0  0  0  0  0
  152.8134  139.8109  159.2451 H   0  0  0  0  0  0  0  0  0  0  0  0
  150.6495  140.2584  158.2759 H   0  0  0  0  0  0  0  0  0  0  0  0
  148.7320  139.1932  152.4153 H   0  0  0  0  0  0  0  0  0  0  0  0
  146.2403  138.3223  153.8092 H   0  0  0  0  0  0  0  0  0  0  0  0
  146.2972  139.7990  152.8744 H   0  0  0  0  0  0  0  0  0  0  0  0
  145.9417  138.6484  150.9341 H   0  0  0  0  0  0  0  0  0  0  0  0
  147.3743  137.6861  151.2015 H   0  0  0  0  0  0  0  0  0  0  0  0
  143.7335  137.8421  152.3335 H   0  0  0  0  0  0  0  0  0  0  0  0
  142.4307  135.7473  152.7404 H   0  0  0  0  0  0  0  0  0  0  0  0
  143.5805  133.5316  152.5489 H   0  0  0  0  0  0  0  0  0  0  0  0
  146.0696  133.5031  151.9380 H   0  0  0  0  0  0  0  0  0  0  0  0
  147.1555  135.5164  151.5856 H   0  0  0  0  0  0  0  0  0  0  0  0
  1  2  2  0  0  0  0
  2  3  1  0  0  0  0
  2 15  1  0  0  0  0
  3  4  1  0  0  0  0
  3 24  1  0  0  0  0
  3 25  1  0  0  0  0
  4 13  1  0  0  0  0
  4  5  1  0  0  0  0
  5  6  2  0  0  0  0
  5  7  1  0  0  0  0
  7 12  1  0  0  0  0
  7  8  1  0  0  0  0
  7 26  1  0  0  0  0
  8  9  1  0  0  0  0
  8 27  1  0  0  0  0
  8 28  1  0  0  0  0
  9 10  2  0  0  0  0
  9 29  1  0  0  0  0
 10 11  1  0  0  0  0
 10 30  1  0  0  0  0
 11 12  1  0  0  0  0
 11 31  1  0  0  0  0
 11 32  1  0  0  0  0
 12 13  1  0  0  0  0
 12 33  1  0  0  0  0
 13 14  2  0  0  0  0
 15 16  1  0  0  0  0
 15 34  1  0  0  0  0
 16 17  1  0  0  0  0
 16 35  1  0  0  0  0
 16 36  1  0  0  0  0
 17 18  1  0  0  0  0
 17 37  1  0  0  0  0
 17 38  1  0  0  0  0
 18 23  1  0  0  0  0
 18 19  2  0  0  0  0
 19 20  1  0  0  0  0
 19 39  1  0  0  0  0
 20 21  2  0  0  0  0
 20 40  1  0  0  0  0
 21 22  1  0  0  0  0
 21 41  1  0  0  0  0
 22 23  2  0  0  0  0
 22 42  1  0  0  0  0
 23 43  1  0  0  0  0
M  CHG  1  23   1
M  END
> <s_m_source_file>
AV-unprocessed.smi

> <i_m_source_file_index>
2202

> <i_lp_mmshare_version>
43012

> <i_f3d_flags>
0

> <s_epik_input>
W0NIMl0xW0NIXT1bQ0hdW0NIMl1bQ0BIXShbQ0BIXTEyKUMoPU8pTihDMj1PKVtDSDJdQyg9TylbTkhdW0NIMl1bQ0gyXWMzW2NIXVtjSF1bY0hdW2NIXW4z

> <s_epik_cmdline>
J2VwaWtfcHl0aG9uJywgJy1waCcsICc3LjAnLCAnLXRuJywgJzgnLCAnLW1hJywgJzIwMCcsICctbWV0YWxfYmluZGluZycsICctaW1hZScsICc8aW5maWxlLm1hZT4nLCAnLW9tYWUnLCAnPG91dGZpbGUubWFlPic=

> <r_lp_tautomer_probability>
1

> <r_epik_Ionization_Penalty>
1.90039

> <r_epik_Ionization_Penalty_Charging>
1.90039

> <r_epik_Ionization_Penalty_Neutral>
1.50224e-07

> <r_epik_State_Penalty>
2.02162

> <r_epik_Charging_Adjusted_Penalty>
3.922

> <i_epik_Tot_Q>
1

> <i_epik_Tot_abs_Q>
1

> <r_epik_Metal_State_Penalty>
2.04542

> <b_epik_Metal_Only>
0

> <s_lp_Force_Field>
OPLS_2005

> <r_lp_Energy>
26.7025

> <b_lp_Chiralities_Consistent>
1

> <s_lp_Variant>
AV-unprocessed.smi:2202-6

> <Gold.Version>
5.8.1

> <Gold.Id.Protein>
6NUR|6NUR_protein|mol2

> <Gold.PLP.Fitness>
47.2631

> <Gold.PLP.PLP>
-39.7988

> <Gold.PLP.part.hbond>
-4.0206

> <Gold.PLP.part.metal>
0.0000

> <Gold.PLP.part.buried>
-0.4966

> <Gold.PLP.part.nonpolar>
-35.5065

> <Gold.PLP.part.repulsive>
0.3328

> <Gold.PLP.ligand.clash>
0.0000

> <Gold.PLP.ligand.torsion>
0.7701

> <Gold.PLP.Chemscore.Hbond>
2.9840

> <Gold.PLP.Chemscore.CHOScore>
0.0000

> <Gold.PLP.Chemscore.Metal>
0.0000

> <Gold.Chemscore.Hbonds>
donor molecule, donor type, donor heavy atom, donor atom, acceptor molecule, acceptor atom, score
      L1  H    15    34       P1  7957  1.00
      L1  H    23    43       P1  7948  1.95

> <Gold.PLP.Chemscore.Internal.Correction>
0.0525

> <Gold.Rescore>
     Score         DG    S(hbond)    S(metal)    S(lipo)     H(rot)  DE(clash)    DE(int)     intcor
     16.83     -17.97       1.99        0.00      92.90       1.96       0.37       0.78       ----

> <Gold.Chemscore.Fitness>
16.8289

> <Gold.Chemscore.DG>
-17.9747

> <Gold.Chemscore.ZeroCoef>
-5.4800

> <Gold.Chemscore.Hbond>
1.9907

> <Gold.Chemscore.Metal>
0.0000

> <Gold.Chemscore.Lipo>
92.9040

> <Gold.Chemscore.Internal_Hbond>
0.0000

> <Gold.Chemscore.DEClash>
0.3677

> <Gold.Chemscore.DEInternal>
0.7781

> <Gold.Chemscore.Rot>
1.9625

> <Gold.Chemscore.Internal.Correction>
   9.000000E+99

> <Gold.Chemscore.Hbonds>
donor molecule, donor type, donor heavy atom, donor atom, acceptor molecule, acceptor atom, score
      L1  H    15    34       P1  7957  1.00
      L1  H    23    43       P1  7948  0.92

> <Gold.Chemscore.Hbond.Weighted>
-6.6489

> <Gold.Chemscore.Metal.Weighted>
-0.0000

> <Gold.Chemscore.Lipo.Weighted>
-10.8698

> <Gold.Chemscore.Internal_Hbond.Weighted>
0.0000

> <Gold.Chemscore.DEClash.Weighted>
0.3677

> <Gold.Chemscore.DEInternal.Weighted>
0.7781

> <Gold.Chemscore.Rot.Weighted>
5.0240

> <Gold.Chemscore.Internal.Correction.Weighted>
   9.000000E+99

> <Gold.Protein.RotatedTorsions>
[ 6907 6896 6895 6894 ] final  131.04 input  -60.11 | X-H torsion
[ 7974 7965 7964 7962 ] final  -44.70 input  175.53 | X-H torsion
[ 8008 7997 7996 7995 ] final   77.49 input   59.86 | X-H torsion
[ 10167 10162 10161 10158 ] final  130.26 input  -65.29 | X-H torsion
[ 10718 10713 10712 10709 ] final   54.15 input   66.30 | X-H torsion
[ 10763 10752 10751 10750 ] final -119.49 input  -60.55 | X-H torsion
[ 11005 11000 10999 10996 ] final   93.66 input  -57.11 | X-H torsion

> <Gold.Protein.ActiveResidues>
 VAL166  LYS551  ARG553  GLY616  TRP617  ASP618  TYR619  PRO620  LYS621  CYS622 
 ASP623  PHE694  ASN695  SER759  ASP760  ASP761  ALA762  ILE779  LEU786  VAL792 
 PHE793  MET794  SER795  GLU796  ALA797  LYS798  CYS799  TRP800  GLU811  SER814 

> <Gold.Protein.RotatedAtoms>
  152.3466  133.6129  159.5914 H   0  0  0  0  0  0  0  0  0  0  0  0  # atno 6907 bound_to 6896
  150.7511  133.9640  159.3533 H   0  0  0  0  0  0  0  0  0  0  0  0  # atno 6908 bound_to 6896
  151.7497  135.0836  160.0380 H   0  0  0  0  0  0  0  0  0  0  0  0  # atno 6909 bound_to 6896
  145.9894  140.7197  142.9324 H   0  0  0  0  0  0  0  0  0  0  0  0  # atno 7974 bound_to 7965
  155.8423  140.3462  155.5640 H   0  0  0  0  0  0  0  0  0  0  0  0  # atno 8008 bound_to 7997
  155.8127  140.0901  157.1914 H   0  0  0  0  0  0  0  0  0  0  0  0  # atno 8009 bound_to 7997
  154.4005  140.1444  156.3394 H   0  0  0  0  0  0  0  0  0  0  0  0  # atno 8010 bound_to 7997
  139.5438  144.6755  151.4537 H   0  0  0  0  0  0  0  0  0  0  0  0  # atno 10167 bound_to 10162
  157.5231  130.8578  149.8585 H   0  0  0  0  0  0  0  0  0  0  0  0  # atno 10718 bound_to 10713
  154.8618  135.4236  154.2307 H   0  0  0  0  0  0  0  0  0  0  0  0  # atno 10763 bound_to 10752
  153.3292  135.6987  153.6968 H   0  0  0  0  0  0  0  0  0  0  0  0  # atno 10764 bound_to 10752
  153.5991  135.3540  155.2912 H   0  0  0  0  0  0  0  0  0  0  0  0  # atno 10765 bound_to 10752
  139.8807  134.8802  156.3751 H   0  0  0  0  0  0  0  0  0  0  0  0  # atno 11005 bound_to 11000
  144.6884  140.3045  143.7258 LP  0  0  0  0  0  0  0  0  0  0  0  0  # atno 17320 bound_to 7965
  145.7652  139.1838  143.2244 LP  0  0  0  0  0  0  0  0  0  0  0  0  # atno 17321 bound_to 7965
  140.6679  143.8357  150.6964 LP  0  0  0  0  0  0  0  0  0  0  0  0  # atno 17342 bound_to 10162
  140.1772  143.4144  152.1958 LP  0  0  0  0  0  0  0  0  0  0  0  0  # atno 17343 bound_to 10162
  156.0367  130.3749  150.1541 LP  0  0  0  0  0  0  0  0  0  0  0  0  # atno 17370 bound_to 10713
  156.9728  130.9840  151.3455 LP  0  0  0  0  0  0  0  0  0  0  0  0  # atno 17371 bound_to 10713
  140.9437  133.7497  156.0180 LP  0  0  0  0  0  0  0  0  0  0  0  0  # atno 17394 bound_to 11000
  140.8188  134.3313  157.5388 LP  0  0  0  0  0  0  0  0  0  0  0  0  # atno 17395 bound_to 11000

$$$$
