AV-unprocessed.smi:2191|AV-procd|sdf|8894|dock2
  -GOLD-   2272012103D 1   1.00000     0.00000
 Structure written by MMmdl.
 37 39  0  0  0  0  0  0  0  0  2 V2000
  150.8047  138.9413  158.0358 O   0  0  0  0  0  0  0  0  0  0  0  0
  152.1382  139.1316  157.6048 C   0  0  2  0  0  0  0  0  0  0  0  0
  152.8037  140.1679  158.5244 C   0  0  0  0  0  0  0  0  0  0  0  0
  151.9218  141.2711  158.6859 O   0  0  0  0  0  0  0  0  0  0  0  0
  152.1843  142.1756  159.6926 C   0  0  0  0  0  0  0  0  0  0  0  0
  151.6798  143.4822  159.5260 C   0  0  0  0  0  0  0  0  0  0  0  0
  151.8987  144.4704  160.5051 C   0  0  0  0  0  0  0  0  0  0  0  0
  152.6307  144.1601  161.6660 C   0  0  0  0  0  0  0  0  0  0  0  0
  153.1417  142.8611  161.8447 C   0  0  0  0  0  0  0  0  0  0  0  0
  152.9208  141.8723  160.8661 C   0  0  0  0  0  0  0  0  0  0  0  0
  152.1387  139.5865  156.1318 C   0  0  0  0  0  0  0  0  0  0  0  0
  151.0820  140.5657  155.8370 N   0  0  0  0  0  0  0  0  0  0  0  0
  151.0080  141.8845  156.1637 C   0  0  0  0  0  0  0  0  0  0  0  0
  149.8360  142.3671  155.6662 N   0  3  0  0  0  0  0  0  0  0  0  0
  149.1503  141.3424  155.0109 C   0  0  0  0  0  0  0  0  0  0  0  0
  147.9259  141.3443  154.3497 C   0  0  0  0  0  0  0  0  0  0  0  0
  147.5115  140.1221  153.7812 C   0  0  0  0  0  0  0  0  0  0  0  0
  148.3037  138.9600  153.8807 C   0  0  0  0  0  0  0  0  0  0  0  0
  149.5431  138.9694  154.5538 C   0  0  0  0  0  0  0  0  0  0  0  0
  149.9455  140.1812  155.1152 C   0  0  0  0  0  0  0  0  0  0  0  0
  150.7976  138.9228  158.9811 H   0  0  0  0  0  0  0  0  0  0  0  0
  152.6697  138.1818  157.6786 H   0  0  0  0  0  0  0  0  0  0  0  0
  152.9772  139.7222  159.5054 H   0  0  0  0  0  0  0  0  0  0  0  0
  153.7708  140.4768  158.1232 H   0  0  0  0  0  0  0  0  0  0  0  0
  151.1167  143.7292  158.6379 H   0  0  0  0  0  0  0  0  0  0  0  0
  151.5049  145.4663  160.3649 H   0  0  0  0  0  0  0  0  0  0  0  0
  152.7998  144.9167  162.4181 H   0  0  0  0  0  0  0  0  0  0  0  0
  153.7042  142.6214  162.7351 H   0  0  0  0  0  0  0  0  0  0  0  0
  153.3284  140.8883  161.0401 H   0  0  0  0  0  0  0  0  0  0  0  0
  153.1068  139.9961  155.8433 H   0  0  0  0  0  0  0  0  0  0  0  0
  151.9659  138.7290  155.4805 H   0  0  0  0  0  0  0  0  0  0  0  0
  151.7464  142.4469  156.7165 H   0  0  0  0  0  0  0  0  0  0  0  0
  147.3174  142.2333  154.2706 H   0  0  0  0  0  0  0  0  0  0  0  0
  146.5681  140.0750  153.2568 H   0  0  0  0  0  0  0  0  0  0  0  0
  147.9546  138.0422  153.4304 H   0  0  0  0  0  0  0  0  0  0  0  0
  150.1433  138.0740  154.6173 H   0  0  0  0  0  0  0  0  0  0  0  0
  149.5304  143.3266  155.7668 H   0  0  0  0  0  0  0  0  0  0  0  0
  1  2  1  0  0  0  0
  1 21  1  0  0  0  0
  2  3  1  0  0  0  0
  2 11  1  0  0  0  0
  2 22  1  0  0  0  0
  3  4  1  0  0  0  0
  3 23  1  0  0  0  0
  3 24  1  0  0  0  0
  4  5  1  0  0  0  0
  5 10  1  0  0  0  0
  5  6  2  0  0  0  0
  6  7  1  0  0  0  0
  6 25  1  0  0  0  0
  7  8  2  0  0  0  0
  7 26  1  0  0  0  0
  8  9  1  0  0  0  0
  8 27  1  0  0  0  0
  9 10  2  0  0  0  0
  9 28  1  0  0  0  0
 10 29  1  0  0  0  0
 11 12  1  0  0  0  0
 11 30  1  0  0  0  0
 11 31  1  0  0  0  0
 12 20  1  0  0  0  0
 12 13  1  0  0  0  0
 13 14  2  0  0  0  0
 13 32  1  0  0  0  0
 14 15  1  0  0  0  0
 14 37  1  0  0  0  0
 15 20  2  0  0  0  0
 15 16  1  0  0  0  0
 16 17  2  0  0  0  0
 16 33  1  0  0  0  0
 17 18  1  0  0  0  0
 17 34  1  0  0  0  0
 18 19  2  0  0  0  0
 18 35  1  0  0  0  0
 19 20  1  0  0  0  0
 19 36  1  0  0  0  0
M  CHG  1  14   1
M  END
> <s_m_source_file>
AV-unprocessed.smi

> <i_m_source_file_index>
2191

> <i_lp_mmshare_version>
43012

> <i_f3d_flags>
0

> <s_epik_input>
W2NIXTFbY0hdW2NIXVtjSF1jKGMxMiluKFtjSF1uMilbQ0gyXVtDQEhdKFtPSF0pW0NIMl1PYzNbY0hdW2NIXVtjSF1bY0hdW2NIXTM=

> <s_epik_cmdline>
J2VwaWtfcHl0aG9uJywgJy1waCcsICc3LjAnLCAnLXRuJywgJzgnLCAnLW1hJywgJzIwMCcsICctbWV0YWxfYmluZGluZycsICctaW1hZScsICc8aW5maWxlLm1hZT4nLCAnLW9tYWUnLCAnPG91dGZpbGUubWFlPic=

> <r_lp_tautomer_probability>
1

> <r_epik_Ionization_Penalty>
1.35015

> <r_epik_Ionization_Penalty_Charging>
1.35015

> <r_epik_Ionization_Penalty_Neutral>
2.3993e-06

> <r_epik_State_Penalty>
1.42814

> <r_epik_Charging_Adjusted_Penalty>
2.77829

> <i_epik_Tot_Q>
1

> <i_epik_Tot_abs_Q>
1

> <r_epik_Metal_State_Penalty>
5.46522

> <b_epik_Metal_Only>
0

> <s_lp_Force_Field>
OPLS_2005

> <r_lp_Energy>
21.7284

> <b_lp_Chiralities_Consistent>
1

> <s_lp_Variant>
AV-unprocessed.smi:2191-3

> <Gold.Version>
5.8.1

> <Gold.Id.Protein>
6NUR|6NUR_protein|mol2

> <Gold.PLP.Fitness>
50.1936

> <Gold.PLP.PLP>
-45.8043

> <Gold.PLP.part.hbond>
-0.9771

> <Gold.PLP.part.metal>
0.0000

> <Gold.PLP.part.buried>
-4.0806

> <Gold.PLP.part.nonpolar>
-39.9670

> <Gold.PLP.part.repulsive>
0.1669

> <Gold.PLP.ligand.clash>
0.0000

> <Gold.PLP.ligand.torsion>
0.8355

> <Gold.PLP.Chemscore.Hbond>
2.0000

> <Gold.PLP.Chemscore.CHOScore>
0.0000

> <Gold.PLP.Chemscore.Metal>
0.0000

> <Gold.Chemscore.Hbonds>
donor molecule, donor type, donor heavy atom, donor atom, acceptor molecule, acceptor atom, score
      L1  H    14    37       P1  8028  2.00

> <Gold.PLP.Chemscore.Internal.Correction>
0.0604

> <Gold.Rescore>
     Score         DG    S(hbond)    S(metal)    S(lipo)     H(rot)  DE(clash)    DE(int)     intcor
     15.09     -17.41       0.98        0.00     124.47       2.31       0.05       2.27       ----

> <Gold.Chemscore.Fitness>
15.0868

> <Gold.Chemscore.DG>
-17.4084

> <Gold.Chemscore.ZeroCoef>
-5.4800

> <Gold.Chemscore.Hbond>
0.9783

> <Gold.Chemscore.Metal>
0.0000

> <Gold.Chemscore.Lipo>
124.4654

> <Gold.Chemscore.Internal_Hbond>
0.0000

> <Gold.Chemscore.DEClash>
0.0523

> <Gold.Chemscore.DEInternal>
2.2693

> <Gold.Chemscore.Rot>
2.3053

> <Gold.Chemscore.Internal.Correction>
   9.000000E+99

> <Gold.Chemscore.Hbonds>
donor molecule, donor type, donor heavy atom, donor atom, acceptor molecule, acceptor atom, score
      L1  H    14    37       P1  8028  0.93

> <Gold.Chemscore.Hbond.Weighted>
-3.2675

> <Gold.Chemscore.Metal.Weighted>
-0.0000

> <Gold.Chemscore.Lipo.Weighted>
-14.5625

> <Gold.Chemscore.Internal_Hbond.Weighted>
0.0000

> <Gold.Chemscore.DEClash.Weighted>
0.0523

> <Gold.Chemscore.DEInternal.Weighted>
2.2693

> <Gold.Chemscore.Rot.Weighted>
5.9015

> <Gold.Chemscore.Internal.Correction.Weighted>
   9.000000E+99

> <Gold.Protein.RotatedTorsions>
[ 6907 6896 6895 6894 ] final   88.21 input  -60.11 | X-H torsion
[ 7974 7965 7964 7962 ] final   47.95 input  175.53 | X-H torsion
[ 8008 7997 7996 7995 ] final  -79.69 input   59.86 | X-H torsion
[ 10167 10162 10161 10158 ] final  135.61 input  -65.29 | X-H torsion
[ 10718 10713 10712 10709 ] final   72.15 input   66.30 | X-H torsion
[ 10763 10752 10751 10750 ] final  150.25 input  -60.55 | X-H torsion
[ 11005 11000 10999 10996 ] final   30.49 input  -57.11 | X-H torsion

> <Gold.Protein.ActiveResidues>
 VAL166  LYS551  ARG553  GLY616  TRP617  ASP618  TYR619  PRO620  LYS621  CYS622 
 ASP623  PHE694  ASN695  SER759  ASP760  ASP761  ALA762  ILE779  LEU786  VAL792 
 PHE793  MET794  SER795  GLU796  ALA797  LYS798  CYS799  TRP800  GLU811  SER814 

> <Gold.Protein.RotatedAtoms>
  152.5422  134.2157  159.8767 H   0  0  0  0  0  0  0  0  0  0  0  0  # atno 6907 bound_to 6896
  151.2137  133.4535  159.2606 H   0  0  0  0  0  0  0  0  0  0  0  0  # atno 6908 bound_to 6896
  151.0872  134.9907  159.8441 H   0  0  0  0  0  0  0  0  0  0  0  0  # atno 6909 bound_to 6896
  146.0250  139.4696  142.9873 H   0  0  0  0  0  0  0  0  0  0  0  0  # atno 7974 bound_to 7965
  154.5810  140.0674  156.9104 H   0  0  0  0  0  0  0  0  0  0  0  0  # atno 8008 bound_to 7997
  155.2463  140.3348  155.4268 H   0  0  0  0  0  0  0  0  0  0  0  0  # atno 8009 bound_to 7997
  156.2189  140.1790  156.7509 H   0  0  0  0  0  0  0  0  0  0  0  0  # atno 8010 bound_to 7997
  139.5211  144.6508  151.5308 H   0  0  0  0  0  0  0  0  0  0  0  0  # atno 10167 bound_to 10162
  157.6487  130.9564  150.0888 H   0  0  0  0  0  0  0  0  0  0  0  0  # atno 10718 bound_to 10713
  154.0843  135.2857  155.3284 H   0  0  0  0  0  0  0  0  0  0  0  0  # atno 10763 bound_to 10752
  154.6662  135.5316  153.8084 H   0  0  0  0  0  0  0  0  0  0  0  0  # atno 10764 bound_to 10752
  153.0437  135.6546  154.1016 H   0  0  0  0  0  0  0  0  0  0  0  0  # atno 10765 bound_to 10752
  140.2939  134.2833  155.7769 H   0  0  0  0  0  0  0  0  0  0  0  0  # atno 11005 bound_to 11000
  145.7132  141.0099  143.1442 LP  0  0  0  0  0  0  0  0  0  0  0  0  # atno 17320 bound_to 7965
  144.7006  139.8782  143.7445 LP  0  0  0  0  0  0  0  0  0  0  0  0  # atno 17321 bound_to 7965
  140.6312  143.9072  150.6607 LP  0  0  0  0  0  0  0  0  0  0  0  0  # atno 17342 bound_to 10162
  140.2377  143.3687  152.1513 LP  0  0  0  0  0  0  0  0  0  0  0  0  # atno 17343 bound_to 10162
  156.1843  130.3651  149.8993 LP  0  0  0  0  0  0  0  0  0  0  0  0  # atno 17370 bound_to 10713
  156.6938  130.8906  151.3591 LP  0  0  0  0  0  0  0  0  0  0  0  0  # atno 17371 bound_to 10713
  141.2141  133.7602  156.9666 LP  0  0  0  0  0  0  0  0  0  0  0  0  # atno 17394 bound_to 11000
  140.1170  134.9441  157.2149 LP  0  0  0  0  0  0  0  0  0  0  0  0  # atno 17395 bound_to 11000

$$$$
