AV-unprocessed.smi:1927|AV-procd|sdf|7796|dock5
  -GOLD-   22720 9543D 1   1.00000     0.00000
 Structure written by MMmdl.
 34 35  0  0  0  0  0  0  0  0  1 V2000
  147.5702  133.0988  152.5019 C   0  0  0  0  0  0  0  0  0  0  0  0
  146.3409  133.0757  151.6079 C   0  0  0  0  0  0  0  0  0  0  0  0
  145.7667  131.8359  151.2551 C   0  0  0  0  0  0  0  0  0  0  0  0
  144.6313  131.8169  150.4271 C   0  0  0  0  0  0  0  0  0  0  0  0
  144.1147  133.0466  149.9845 C   0  0  0  0  0  0  0  0  0  0  0  0
  144.6564  134.2360  150.3173 N   0  0  0  0  0  0  0  0  0  0  0  0
  145.7527  134.2720  151.1158 C   0  0  0  0  0  0  0  0  0  0  0  0
  146.3758  135.4892  151.5115 N   0  0  0  0  0  0  0  0  0  0  0  0
  145.7979  136.6375  151.9061 C   0  0  0  0  0  0  0  0  0  0  0  0
  144.5853  136.8402  151.9743 O   0  0  0  0  0  0  0  0  0  0  0  0
  146.7216  137.5581  152.2191 N   0  0  0  0  0  0  0  0  0  0  0  0
  146.4454  138.9146  152.6812 C   0  0  0  0  0  0  0  0  0  0  0  0
  147.7353  139.7428  152.8248 C   0  0  2  0  0  0  0  0  0  0  0  0
  148.5442  139.4046  154.0602 C   0  0  0  0  0  0  0  0  0  0  0  0
  149.4471  140.6275  154.1975 C   0  0  0  0  0  0  0  0  0  0  0  0
  148.7205  141.7183  153.6376 O   0  0  0  0  0  0  0  0  0  0  0  0
  147.5262  141.2450  153.0235 C   0  0  0  0  0  0  0  0  0  0  0  0
  147.8777  132.0907  152.7815 H   0  0  0  0  0  0  0  0  0  0  0  0
  147.3664  133.6539  153.4181 H   0  0  0  0  0  0  0  0  0  0  0  0
  148.4069  133.5728  151.9878 H   0  0  0  0  0  0  0  0  0  0  0  0
  146.1886  130.9082  151.6133 H   0  0  0  0  0  0  0  0  0  0  0  0
  144.1685  130.8845  150.1393 H   0  0  0  0  0  0  0  0  0  0  0  0
  143.2425  133.0772  149.3484 H   0  0  0  0  0  0  0  0  0  0  0  0
  147.3847  135.4801  151.4987 H   0  0  0  0  0  0  0  0  0  0  0  0
  147.6940  137.3012  152.1318 H   0  0  0  0  0  0  0  0  0  0  0  0
  145.7353  139.4165  152.0214 H   0  0  0  0  0  0  0  0  0  0  0  0
  145.9544  138.8374  153.6515 H   0  0  0  0  0  0  0  0  0  0  0  0
  148.3659  139.5892  151.9472 H   0  0  0  0  0  0  0  0  0  0  0  0
  147.8921  139.3229  154.9313 H   0  0  0  0  0  0  0  0  0  0  0  0
  149.1033  138.4733  153.9652 H   0  0  0  0  0  0  0  0  0  0  0  0
  149.7234  140.8234  155.2338 H   0  0  0  0  0  0  0  0  0  0  0  0
  150.3642  140.4911  153.6233 H   0  0  0  0  0  0  0  0  0  0  0  0
  147.3248  141.7692  152.0891 H   0  0  0  0  0  0  0  0  0  0  0  0
  146.6929  141.4321  153.7023 H   0  0  0  0  0  0  0  0  0  0  0  0
  1  2  1  0  0  0  0
  1 18  1  0  0  0  0
  1 19  1  0  0  0  0
  1 20  1  0  0  0  0
  2  7  1  0  0  0  0
  2  3  2  0  0  0  0
  3  4  1  0  0  0  0
  3 21  1  0  0  0  0
  4  5  2  0  0  0  0
  4 22  1  0  0  0  0
  5  6  1  0  0  0  0
  5 23  1  0  0  0  0
  6  7  2  0  0  0  0
  7  8  1  0  0  0  0
  8  9  1  0  0  0  0
  8 24  1  0  0  0  0
  9 10  2  0  0  0  0
  9 11  1  0  0  0  0
 11 12  1  0  0  0  0
 11 25  1  0  0  0  0
 12 13  1  0  0  0  0
 12 26  1  0  0  0  0
 12 27  1  0  0  0  0
 13 17  1  0  0  0  0
 13 14  1  0  0  0  0
 13 28  1  0  0  0  0
 14 15  1  0  0  0  0
 14 29  1  0  0  0  0
 14 30  1  0  0  0  0
 15 16  1  0  0  0  0
 15 31  1  0  0  0  0
 15 32  1  0  0  0  0
 16 17  1  0  0  0  0
 17 33  1  0  0  0  0
 17 34  1  0  0  0  0
M  END
> <s_m_source_file>
AV-unprocessed.smi

> <i_m_source_file_index>
1927

> <i_lp_mmshare_version>
43012

> <i_f3d_flags>
0

> <s_epik_input>
W0NIM11jMVtjSF1bY0hdW2NIXW5jMVtOSF1DKD1PKVtOSF1bQ0gyXVtDQEBIXTJbQ0gyXVtDSDJdT1tDSDJdMg==

> <s_epik_cmdline>
J2VwaWtfcHl0aG9uJywgJy1waCcsICc3LjAnLCAnLXRuJywgJzgnLCAnLW1hJywgJzIwMCcsICctbWV0YWxfYmluZGluZycsICctaW1hZScsICc8aW5maWxlLm1hZT4nLCAnLW9tYWUnLCAnPG91dGZpbGUubWFlPic=

> <r_lp_tautomer_probability>
1

> <r_epik_Ionization_Penalty>
5.84082e-05

> <r_epik_Ionization_Penalty_Charging>
0

> <r_epik_Ionization_Penalty_Neutral>
5.84082e-05

> <r_epik_State_Penalty>
-0

> <r_epik_Charging_Adjusted_Penalty>
0

> <i_epik_Tot_Q>
0

> <i_epik_Tot_abs_Q>
0

> <r_epik_Metal_State_Penalty>
-0

> <b_epik_Metal_Only>
0

> <s_lp_Force_Field>
OPLS_2005

> <r_lp_Energy>
21.003

> <b_lp_Chiralities_Consistent>
1

> <s_lp_Variant>
AV-unprocessed.smi:1927-1

> <Gold.Version>
5.8.1

> <Gold.Id.Protein>
6NUR|6NUR_protein|mol2

> <Gold.PLP.Fitness>
40.4377

> <Gold.PLP.PLP>
-30.6954

> <Gold.PLP.part.hbond>
-3.0000

> <Gold.PLP.part.metal>
0.0000

> <Gold.PLP.part.buried>
-0.7773

> <Gold.PLP.part.nonpolar>
-27.1380

> <Gold.PLP.part.repulsive>
0.7356

> <Gold.PLP.ligand.clash>
0.0000

> <Gold.PLP.ligand.torsion>
0.4531

> <Gold.PLP.Chemscore.Hbond>
2.5476

> <Gold.PLP.Chemscore.CHOScore>
1.0000

> <Gold.PLP.Chemscore.Metal>
0.0000

> <Gold.Chemscore.Hbonds>
donor molecule, donor type, donor heavy atom, donor atom, acceptor molecule, acceptor atom, score
      L1  H     8    24       P1  7948  1.00
      L1  H    11    25       P1  7948  1.00
      P1  H  8011  8017       L1    16  0.62
      L1  C     5    23       P1 10186  0.79

> <Gold.PLP.Chemscore.Internal.Correction>
0.0057

> <Gold.Rescore>
     Score         DG    S(hbond)    S(metal)    S(lipo)     H(rot)  DE(clash)    DE(int)     intcor
     16.43     -17.34       1.93        0.00      73.24       1.23       0.51       0.41       ----

> <Gold.Chemscore.Fitness>
16.4311

> <Gold.Chemscore.DG>
-17.3438

> <Gold.Chemscore.ZeroCoef>
-5.4800

> <Gold.Chemscore.Hbond>
1.9321

> <Gold.Chemscore.Metal>
0.0000

> <Gold.Chemscore.Lipo>
73.2364

> <Gold.Chemscore.Internal_Hbond>
0.0000

> <Gold.Chemscore.DEClash>
0.5070

> <Gold.Chemscore.DEInternal>
0.4057

> <Gold.Chemscore.Rot>
1.2337

> <Gold.Chemscore.Internal.Correction>
   9.000000E+99

> <Gold.Chemscore.Hbonds>
donor molecule, donor type, donor heavy atom, donor atom, acceptor molecule, acceptor atom, score
      L1  H     8    24       P1  7948  0.91
      L1  H    11    25       P1  7948  0.98
      P1  H  8011  8017       L1    16  0.24

> <Gold.Chemscore.Hbond.Weighted>
-6.4533

> <Gold.Chemscore.Metal.Weighted>
-0.0000

> <Gold.Chemscore.Lipo.Weighted>
-8.5687

> <Gold.Chemscore.Internal_Hbond.Weighted>
0.0000

> <Gold.Chemscore.DEClash.Weighted>
0.5070

> <Gold.Chemscore.DEInternal.Weighted>
0.4057

> <Gold.Chemscore.Rot.Weighted>
3.1582

> <Gold.Chemscore.Internal.Correction.Weighted>
   9.000000E+99

> <Gold.Protein.RotatedTorsions>
[ 6907 6896 6895 6894 ] final  128.76 input  -60.11 | X-H torsion
[ 7974 7965 7964 7962 ] final  100.63 input  175.53 | X-H torsion
[ 8008 7997 7996 7995 ] final  145.85 input   59.86 | X-H torsion
[ 10167 10162 10161 10158 ] final  165.38 input  -65.29 | X-H torsion
[ 10718 10713 10712 10709 ] final   68.73 input   66.30 | X-H torsion
[ 10763 10752 10751 10750 ] final -177.29 input  -60.55 | X-H torsion
[ 11005 11000 10999 10996 ] final   32.37 input  -57.11 | X-H torsion

> <Gold.Protein.ActiveResidues>
 VAL166  LYS551  ARG553  GLY616  TRP617  ASP618  TYR619  PRO620  LYS621  CYS622 
 ASP623  PHE694  ASN695  SER759  ASP760  ASP761  ALA762  ILE779  LEU786  VAL792 
 PHE793  MET794  SER795  GLU796  ALA797  LYS798  CYS799  TRP800  GLU811  SER814 

> <Gold.Protein.RotatedAtoms>
  152.3689  133.6392  159.6071 H   0  0  0  0  0  0  0  0  0  0  0  0  # atno 6907 bound_to 6896
  150.7654  133.9303  159.3434 H   0  0  0  0  0  0  0  0  0  0  0  0  # atno 6908 bound_to 6896
  151.7129  135.0910  160.0322 H   0  0  0  0  0  0  0  0  0  0  0  0  # atno 6909 bound_to 6896
  145.3830  139.2376  143.3393 H   0  0  0  0  0  0  0  0  0  0  0  0  # atno 7974 bound_to 7965
  156.2872  140.2198  156.5281 H   0  0  0  0  0  0  0  0  0  0  0  0  # atno 8008 bound_to 7997
  154.7472  140.0483  157.0884 H   0  0  0  0  0  0  0  0  0  0  0  0  # atno 8009 bound_to 7997
  155.0156  140.3118  155.4816 H   0  0  0  0  0  0  0  0  0  0  0  0  # atno 8010 bound_to 7997
  139.4905  144.4138  151.9268 H   0  0  0  0  0  0  0  0  0  0  0  0  # atno 10167 bound_to 10162
  157.6306  130.9389  150.0417 H   0  0  0  0  0  0  0  0  0  0  0  0  # atno 10718 bound_to 10713
  154.5619  135.2821  155.0910 H   0  0  0  0  0  0  0  0  0  0  0  0  # atno 10763 bound_to 10752
  154.2316  135.6373  153.5181 H   0  0  0  0  0  0  0  0  0  0  0  0  # atno 10764 bound_to 10752
  153.0032  135.5538  154.6216 H   0  0  0  0  0  0  0  0  0  0  0  0  # atno 10765 bound_to 10752
  140.2742  134.3047  155.7819 H   0  0  0  0  0  0  0  0  0  0  0  0  # atno 11005 bound_to 11000
  146.2833  140.4501  142.8768 LP  0  0  0  0  0  0  0  0  0  0  0  0  # atno 17320 bound_to 7965
  144.8494  140.6978  143.6178 LP  0  0  0  0  0  0  0  0  0  0  0  0  # atno 17321 bound_to 7965
  140.3580  144.3008  150.5938 LP  0  0  0  0  0  0  0  0  0  0  0  0  # atno 17342 bound_to 10162
  140.5428  143.2220  151.8057 LP  0  0  0  0  0  0  0  0  0  0  0  0  # atno 17343 bound_to 10162
  156.1506  130.3642  149.9443 LP  0  0  0  0  0  0  0  0  0  0  0  0  # atno 17370 bound_to 10713
  156.7464  130.9099  151.3635 LP  0  0  0  0  0  0  0  0  0  0  0  0  # atno 17371 bound_to 10713
  141.2173  133.7485  156.9381 LP  0  0  0  0  0  0  0  0  0  0  0  0  # atno 17394 bound_to 11000
  140.1344  134.9334  157.2382 LP  0  0  0  0  0  0  0  0  0  0  0  0  # atno 17395 bound_to 11000

$$$$
