AV-unprocessed.smi:3314|AV-procd|sdf|12738|dock8
  -GOLD-   2272019 83D 1   1.00000     0.00000
 Structure written by MMmdl.
 38 39  0  0  0  0  0  0  0  0  2 V2000
  151.7177  145.6011  159.9803 C   0  0  0  0  0  0  0  0  0  0  0  0
  151.8391  144.2008  159.4151 C   0  0  0  0  0  0  0  0  0  0  0  0
  152.6181  143.1914  160.1117 C   0  0  0  0  0  0  0  0  0  0  0  0
  152.7099  141.9541  159.5966 C   0  0  0  0  0  0  0  0  0  0  0  0
  153.5009  140.8397  160.2496 C   0  0  0  0  0  0  0  0  0  0  0  0
  152.0693  141.6274  158.4073 N   0  0  0  0  0  0  0  0  0  0  0  0
  151.3059  142.5489  157.6693 C   0  0  0  0  0  0  0  0  0  0  0  0
  150.6983  142.2996  156.5457 N   0  0  0  0  0  0  0  0  0  0  0  0
  150.7240  141.0484  155.9349 C   0  0  0  0  0  0  0  0  0  0  0  0
  151.6000  140.5484  155.2232 O   0  0  0  0  0  0  0  0  0  0  0  0
  149.4381  140.2462  156.2303 C   0  0  1  0  0  0  0  0  0  0  0  0
  148.3971  140.9816  157.1090 C   0  0  0  0  0  0  0  0  0  0  0  0
  147.7412  142.0810  156.3615 N   0  3  2  0  0  0  0  0  0  0  0  0
  146.7769  142.8371  157.1885 C   0  0  0  0  0  0  0  0  0  0  0  0
  147.1440  141.5790  155.1035 C   0  0  0  0  0  0  0  0  0  0  0  0
  148.2075  140.8643  154.2549 C   0  0  0  0  0  0  0  0  0  0  0  0
  148.8063  139.8179  155.0186 O   0  0  0  0  0  0  0  0  0  0  0  0
  151.2222  143.8786  158.2537 C   0  0  0  0  0  0  0  0  0  0  0  0
  152.2588  145.6955  160.9222 H   0  0  0  0  0  0  0  0  0  0  0  0
  150.6712  145.8468  160.1635 H   0  0  0  0  0  0  0  0  0  0  0  0
  152.1248  146.3299  159.2791 H   0  0  0  0  0  0  0  0  0  0  0  0
  153.1224  143.4330  161.0362 H   0  0  0  0  0  0  0  0  0  0  0  0
  154.5514  141.1207  160.3296 H   0  0  0  0  0  0  0  0  0  0  0  0
  153.4394  139.9137  159.6765 H   0  0  0  0  0  0  0  0  0  0  0  0
  153.1211  140.6453  161.2530 H   0  0  0  0  0  0  0  0  0  0  0  0
  149.7529  139.3477  156.7626 H   0  0  0  0  0  0  0  0  0  0  0  0
  147.6373  140.2721  157.4411 H   0  0  0  0  0  0  0  0  0  0  0  0
  148.8657  141.3744  158.0127 H   0  0  0  0  0  0  0  0  0  0  0  0
  145.9549  142.1990  157.5160 H   0  0  0  0  0  0  0  0  0  0  0  0
  146.3587  143.6718  156.6249 H   0  0  0  0  0  0  0  0  0  0  0  0
  147.2670  143.2453  158.0728 H   0  0  0  0  0  0  0  0  0  0  0  0
  146.3275  140.8926  155.3340 H   0  0  0  0  0  0  0  0  0  0  0  0
  146.7170  142.4089  154.5396 H   0  0  0  0  0  0  0  0  0  0  0  0
  147.7464  140.4287  153.3685 H   0  0  0  0  0  0  0  0  0  0  0  0
  148.9586  141.5695  153.8977 H   0  0  0  0  0  0  0  0  0  0  0  0
  150.6528  144.6553  157.7631 H   0  0  0  0  0  0  0  0  0  0  0  0
  152.1913  140.6777  158.0862 H   0  0  0  0  0  0  0  0  0  0  0  0
  148.4698  142.7301  156.0998 H   0  0  0  0  0  0  0  0  0  0  0  0
  1  2  1  0  0  0  0
  1 19  1  0  0  0  0
  1 20  1  0  0  0  0
  1 21  1  0  0  0  0
  2 18  2  0  0  0  0
  2  3  1  0  0  0  0
  3  4  2  0  0  0  0
  3 22  1  0  0  0  0
  4  5  1  0  0  0  0
  4  6  1  0  0  0  0
  5 23  1  0  0  0  0
  5 24  1  0  0  0  0
  5 25  1  0  0  0  0
  6  7  1  0  0  0  0
  6 37  1  0  0  0  0
  7  8  2  0  0  0  0
  7 18  1  0  0  0  0
  8  9  1  0  0  0  0
  9 10  2  0  0  0  0
  9 11  1  0  0  0  0
 11 17  1  0  0  0  0
 11 12  1  0  0  0  0
 11 26  1  0  0  0  0
 12 13  1  0  0  0  0
 12 27  1  0  0  0  0
 12 28  1  0  0  0  0
 13 14  1  0  0  0  0
 13 15  1  0  0  0  0
 13 38  1  0  0  0  0
 14 29  1  0  0  0  0
 14 30  1  0  0  0  0
 14 31  1  0  0  0  0
 15 16  1  0  0  0  0
 15 32  1  0  0  0  0
 15 33  1  0  0  0  0
 16 17  1  0  0  0  0
 16 34  1  0  0  0  0
 16 35  1  0  0  0  0
 18 36  1  0  0  0  0
M  CHG  1  13   1
M  END
> <s_m_source_file>
AV-unprocessed.smi

> <i_m_source_file_index>
3314

> <i_lp_mmshare_version>
43012

> <i_f3d_flags>
0

> <s_epik_input>
W0NIM11jMVtjSF1jKFtDSDNdKW5jKFtjSF0xKVtOSF1DKD1PKVtDQEBIXTJbQ0gyXU4oW0NIM10pW0NIMl1bQ0gyXU8y

> <s_epik_cmdline>
J2VwaWtfcHl0aG9uJywgJy1waCcsICc3LjAnLCAnLXRuJywgJzgnLCAnLW1hJywgJzIwMCcsICctbWV0YWxfYmluZGluZycsICctaW1hZScsICc8aW5maWxlLm1hZT4nLCAnLW9tYWUnLCAnPG91dGZpbGUubWFlPic=

> <r_epik_Ionization_Penalty>
0.519783

> <r_epik_Ionization_Penalty_Charging>
0.519783

> <r_epik_Ionization_Penalty_Neutral>
1.74183e-13

> <r_epik_State_Penalty>
2.39351

> <r_epik_Charging_Adjusted_Penalty>
2.91329

> <i_epik_Tot_Q>
1

> <i_epik_Tot_abs_Q>
1

> <r_epik_Metal_State_Penalty>
2.41924

> <b_epik_Metal_Only>
0

> <s_lp_Force_Field>
OPLS_2005

> <r_lp_Energy>
32.167

> <b_lp_Chiralities_Consistent>
1

> <s_lp_Variant>
AV-unprocessed.smi:3314-8

> <Gold.Version>
5.8.1

> <Gold.Id.Protein>
6NUR|6NUR_protein|mol2

> <Gold.PLP.Fitness>
42.3696

> <Gold.PLP.PLP>
-36.1425

> <Gold.PLP.part.hbond>
-2.0000

> <Gold.PLP.part.metal>
0.0000

> <Gold.PLP.part.buried>
-3.3799

> <Gold.PLP.part.nonpolar>
-30.3549

> <Gold.PLP.part.repulsive>
0.3971

> <Gold.PLP.ligand.clash>
0.0000

> <Gold.PLP.ligand.torsion>
0.7606

> <Gold.PLP.Chemscore.Hbond>
2.5760

> <Gold.PLP.Chemscore.CHOScore>
0.0000

> <Gold.PLP.Chemscore.Metal>
0.0000

> <Gold.Chemscore.Hbonds>
donor molecule, donor type, donor heavy atom, donor atom, acceptor molecule, acceptor atom, score
      L1  H    13    38       P1  8028  1.54
      P1  H  7989  7998       L1    10  0.80

> <Gold.PLP.Chemscore.Internal.Correction>
0.0203

> <Gold.Rescore>
     Score         DG    S(hbond)    S(metal)    S(lipo)     H(rot)  DE(clash)    DE(int)     intcor
     17.43     -18.21       1.57        0.00      85.88       1.00       0.02       0.77       ----

> <Gold.Chemscore.Fitness>
17.4259

> <Gold.Chemscore.DG>
-18.2126

> <Gold.Chemscore.ZeroCoef>
-5.4800

> <Gold.Chemscore.Hbond>
1.5702

> <Gold.Chemscore.Metal>
0.0000

> <Gold.Chemscore.Lipo>
85.8829

> <Gold.Chemscore.Internal_Hbond>
0.0000

> <Gold.Chemscore.DEClash>
0.0174

> <Gold.Chemscore.DEInternal>
0.7693

> <Gold.Chemscore.Rot>
1.0000

> <Gold.Chemscore.Internal.Correction>
   9.000000E+99

> <Gold.Chemscore.Hbonds>
donor molecule, donor type, donor heavy atom, donor atom, acceptor molecule, acceptor atom, score
      L1  H    13    38       P1  8028  0.73
      P1  H  7989  7998       L1    10  0.78

> <Gold.Chemscore.Hbond.Weighted>
-5.2443

> <Gold.Chemscore.Metal.Weighted>
-0.0000

> <Gold.Chemscore.Lipo.Weighted>
-10.0483

> <Gold.Chemscore.Internal_Hbond.Weighted>
0.0000

> <Gold.Chemscore.DEClash.Weighted>
0.0174

> <Gold.Chemscore.DEInternal.Weighted>
0.7693

> <Gold.Chemscore.Rot.Weighted>
2.5600

> <Gold.Chemscore.Internal.Correction.Weighted>
   9.000000E+99

> <Gold.Protein.RotatedTorsions>
[ 6907 6896 6895 6894 ] final -109.70 input  -60.11 | X-H torsion
[ 7974 7965 7964 7962 ] final  -63.80 input  175.53 | X-H torsion
[ 8008 7997 7996 7995 ] final -166.06 input   59.86 | X-H torsion
[ 10167 10162 10161 10158 ] final   75.36 input  -65.29 | X-H torsion
[ 10718 10713 10712 10709 ] final -164.64 input   66.30 | X-H torsion
[ 10763 10752 10751 10750 ] final -179.64 input  -60.55 | X-H torsion
[ 11005 11000 10999 10996 ] final  174.12 input  -57.11 | X-H torsion

> <Gold.Protein.ActiveResidues>
 VAL166  LYS551  ARG553  GLY616  TRP617  ASP618  TYR619  PRO620  LYS621  CYS622 
 ASP623  PHE694  ASN695  SER759  ASP760  ASP761  ALA762  ILE779  LEU786  VAL792 
 PHE793  MET794  SER795  GLU796  ALA797  LYS798  CYS799  TRP800  GLU811  SER814 

> <Gold.Protein.RotatedAtoms>
  150.7578  133.9490  159.3479 H   0  0  0  0  0  0  0  0  0  0  0  0  # atno 6907 bound_to 6896
  151.7406  135.0853  160.0324 H   0  0  0  0  0  0  0  0  0  0  0  0  # atno 6908 bound_to 6896
  152.3531  133.6166  159.5995 H   0  0  0  0  0  0  0  0  0  0  0  0  # atno 6909 bound_to 6896
  145.7746  140.8795  143.0362 H   0  0  0  0  0  0  0  0  0  0  0  0  # atno 7974 bound_to 7965
  155.8586  140.0974  157.1628 H   0  0  0  0  0  0  0  0  0  0  0  0  # atno 8008 bound_to 7997
  154.3989  140.1369  156.3994 H   0  0  0  0  0  0  0  0  0  0  0  0  # atno 8009 bound_to 7997
  155.7882  140.3456  155.5337 H   0  0  0  0  0  0  0  0  0  0  0  0  # atno 8010 bound_to 7997
  140.0038  144.5666  150.7715 H   0  0  0  0  0  0  0  0  0  0  0  0  # atno 10167 bound_to 10162
  156.6419  130.8972  151.2997 H   0  0  0  0  0  0  0  0  0  0  0  0  # atno 10718 bound_to 10713
  154.5325  135.2801  155.1167 H   0  0  0  0  0  0  0  0  0  0  0  0  # atno 10763 bound_to 10752
  154.2681  135.6309  153.5303 H   0  0  0  0  0  0  0  0  0  0  0  0  # atno 10764 bound_to 10752
  152.9960  135.5622  154.5843 H   0  0  0  0  0  0  0  0  0  0  0  0  # atno 10765 bound_to 10752
  140.3478  134.7221  157.4247 H   0  0  0  0  0  0  0  0  0  0  0  0  # atno 11005 bound_to 11000
  144.6807  139.9903  143.7484 LP  0  0  0  0  0  0  0  0  0  0  0  0  # atno 17320 bound_to 7965
  146.0136  139.3190  143.0855 LP  0  0  0  0  0  0  0  0  0  0  0  0  # atno 17321 bound_to 7965
  140.7408  143.2810  151.3599 LP  0  0  0  0  0  0  0  0  0  0  0  0  # atno 17342 bound_to 10162
  139.6253  144.0827  152.2428 LP  0  0  0  0  0  0  0  0  0  0  0  0  # atno 17343 bound_to 10162
  157.7168  130.9507  150.1286 LP  0  0  0  0  0  0  0  0  0  0  0  0  # atno 17370 bound_to 10713
  156.2152  130.3669  149.8622 LP  0  0  0  0  0  0  0  0  0  0  0  0  # atno 17371 bound_to 10713
  140.0728  134.5839  155.8624 LP  0  0  0  0  0  0  0  0  0  0  0  0  # atno 17394 bound_to 11000
  141.2020  133.6622  156.5985 LP  0  0  0  0  0  0  0  0  0  0  0  0  # atno 17395 bound_to 11000

$$$$
