AV-unprocessed.smi:2264|AV-procd|sdf|9142|dock3
  -GOLD-   2272012343D 1   1.00000     0.00000
 Structure written by MMmdl.
 44 45  0  0  0  0  0  0  0  0  1 V2000
  151.4472  143.8723  158.8471 C   0  0  0  0  0  0  0  0  0  0  0  0
  152.3086  143.0737  159.8037 C   0  0  0  0  0  0  0  0  0  0  0  0
  153.0807  141.9919  159.3379 C   0  0  0  0  0  0  0  0  0  0  0  0
  153.8790  141.2540  160.2323 C   0  0  0  0  0  0  0  0  0  0  0  0
  153.9164  141.5892  161.6092 C   0  0  0  0  0  0  0  0  0  0  0  0
  154.6728  140.9122  162.5419 O   0  0  0  0  0  0  0  0  0  0  0  0
  154.9904  139.5478  162.3022 C   0  0  0  0  0  0  0  0  0  0  0  0
  155.3548  138.8994  163.6460 C   0  0  1  0  0  0  0  0  0  0  0  0
  155.7701  137.5761  163.3759 O   0  0  0  0  0  0  0  0  0  0  0  0
  156.4984  139.6511  164.3670 C   0  0  0  0  0  0  0  0  0  0  0  0
  155.9874  140.5662  165.3997 N   0  0  0  0  0  0  0  0  0  0  0  0
  155.6007  141.8447  164.9629 C   0  0  0  0  0  0  0  0  0  0  0  0
  155.1345  142.7298  165.7817 N   0  0  0  0  0  0  0  0  0  0  0  0
  155.0034  142.4223  167.1391 C   0  0  0  0  0  0  0  0  0  0  0  0
  154.4534  143.5355  168.0134 C   0  0  0  0  0  0  0  0  0  0  0  0
  155.3518  141.1992  167.6241 C   0  0  0  0  0  0  0  0  0  0  0  0
  155.2329  140.8093  169.0921 C   0  0  0  0  0  0  0  0  0  0  0  0
  155.8763  140.1783  166.7024 C   0  0  0  0  0  0  0  0  0  0  0  0
  156.1990  139.0475  167.0715 O   0  0  0  0  0  0  0  0  0  0  0  0
  153.1366  142.6748  162.0702 C   0  0  0  0  0  0  0  0  0  0  0  0
  153.1595  143.0558  163.5390 C   0  0  0  0  0  0  0  0  0  0  0  0
  152.3385  143.4115  161.1703 C   0  0  0  0  0  0  0  0  0  0  0  0
  151.6131  143.5683  157.8131 H   0  0  0  0  0  0  0  0  0  0  0  0
  151.6751  144.9353  158.9291 H   0  0  0  0  0  0  0  0  0  0  0  0
  150.3918  143.7283  159.0798 H   0  0  0  0  0  0  0  0  0  0  0  0
  153.0640  141.7219  158.2919 H   0  0  0  0  0  0  0  0  0  0  0  0
  154.4533  140.4306  159.8361 H   0  0  0  0  0  0  0  0  0  0  0  0
  154.1241  139.0447  161.8692 H   0  0  0  0  0  0  0  0  0  0  0  0
  155.8234  139.4582  161.6024 H   0  0  0  0  0  0  0  0  0  0  0  0
  154.4591  138.8579  164.2677 H   0  0  0  0  0  0  0  0  0  0  0  0
  156.0519  137.5265  162.4753 H   0  0  0  0  0  0  0  0  0  0  0  0
  157.2321  138.9505  164.7705 H   0  0  0  0  0  0  0  0  0  0  0  0
  157.0725  140.2328  163.6429 H   0  0  0  0  0  0  0  0  0  0  0  0
  155.7168  142.0301  163.8934 H   0  0  0  0  0  0  0  0  0  0  0  0
  155.1848  143.8244  168.7685 H   0  0  0  0  0  0  0  0  0  0  0  0
  153.5411  143.2130  168.5158 H   0  0  0  0  0  0  0  0  0  0  0  0
  154.2136  144.4214  167.4238 H   0  0  0  0  0  0  0  0  0  0  0  0
  154.5510  139.9657  169.2028 H   0  0  0  0  0  0  0  0  0  0  0  0
  154.8623  141.6162  169.7224 H   0  0  0  0  0  0  0  0  0  0  0  0
  156.2068  140.5112  169.4817 H   0  0  0  0  0  0  0  0  0  0  0  0
  152.5395  143.9311  163.7348 H   0  0  0  0  0  0  0  0  0  0  0  0
  154.1774  143.2850  163.8555 H   0  0  0  0  0  0  0  0  0  0  0  0
  152.7874  142.2325  164.1491 H   0  0  0  0  0  0  0  0  0  0  0  0
  151.7454  144.2410  161.5275 H   0  0  0  0  0  0  0  0  0  0  0  0
  1  2  1  0  0  0  0
  1 23  1  0  0  0  0
  1 24  1  0  0  0  0
  1 25  1  0  0  0  0
  2 22  1  0  0  0  0
  2  3  2  0  0  0  0
  3  4  1  0  0  0  0
  3 26  1  0  0  0  0
  4  5  2  0  0  0  0
  4 27  1  0  0  0  0
  5  6  1  0  0  0  0
  5 20  1  0  0  0  0
  6  7  1  0  0  0  0
  7  8  1  0  0  0  0
  7 28  1  0  0  0  0
  7 29  1  0  0  0  0
  8  9  1  0  0  0  0
  8 10  1  0  0  0  0
  8 30  1  0  0  0  0
  9 31  1  0  0  0  0
 10 11  1  0  0  0  0
 10 32  1  0  0  0  0
 10 33  1  0  0  0  0
 11 18  1  0  0  0  0
 11 12  1  0  0  0  0
 12 13  2  0  0  0  0
 12 34  1  0  0  0  0
 13 14  1  0  0  0  0
 14 15  1  0  0  0  0
 14 16  2  0  0  0  0
 15 35  1  0  0  0  0
 15 36  1  0  0  0  0
 15 37  1  0  0  0  0
 16 17  1  0  0  0  0
 16 18  1  0  0  0  0
 17 38  1  0  0  0  0
 17 39  1  0  0  0  0
 17 40  1  0  0  0  0
 18 19  2  0  0  0  0
 20 21  1  0  0  0  0
 20 22  2  0  0  0  0
 21 41  1  0  0  0  0
 21 42  1  0  0  0  0
 21 43  1  0  0  0  0
 22 44  1  0  0  0  0
M  END
> <s_m_source_file>
AV-unprocessed.smi

> <i_m_source_file_index>
2264

> <i_lp_mmshare_version>
43012

> <i_f3d_flags>
0

> <s_epik_input>
W0NIM11jMVtjSF1bY0hdYyhjKFtDSDNdKVtjSF0xKU9bQ0gyXVtDQEhdKFtPSF0pW0NIMl1uMltjSF1uYyhbQ0gzXSljKFtDSDNdKWMyPU8=

> <s_epik_cmdline>
J2VwaWtfcHl0aG9uJywgJy1waCcsICc3LjAnLCAnLXRuJywgJzgnLCAnLW1hJywgJzIwMCcsICctbWV0YWxfYmluZGluZycsICctaW1hZScsICc8aW5maWxlLm1hZT4nLCAnLW9tYWUnLCAnPG91dGZpbGUubWFlPic=

> <r_lp_tautomer_probability>
1

> <r_epik_Ionization_Penalty>
3.7476e-05

> <r_epik_Ionization_Penalty_Charging>
8.44705e-08

> <r_epik_Ionization_Penalty_Neutral>
3.73915e-05

> <r_epik_State_Penalty>
-0

> <r_epik_Charging_Adjusted_Penalty>
8.44705e-08

> <i_epik_Tot_Q>
0

> <i_epik_Tot_abs_Q>
0

> <r_epik_Metal_State_Penalty>
-0

> <b_epik_Metal_Only>
0

> <s_lp_Force_Field>
OPLS_2005

> <r_lp_Energy>
22.0846

> <b_lp_Chiralities_Consistent>
1

> <s_lp_Variant>
AV-unprocessed.smi:2264-2

> <Gold.Version>
5.8.1

> <Gold.Id.Protein>
6NUR|6NUR_protein|mol2

> <Gold.PLP.Fitness>
48.6890

> <Gold.PLP.PLP>
-51.3687

> <Gold.PLP.part.hbond>
-2.0000

> <Gold.PLP.part.metal>
0.0000

> <Gold.PLP.part.buried>
-5.8395

> <Gold.PLP.part.nonpolar>
-41.7952

> <Gold.PLP.part.repulsive>
0.0948

> <Gold.PLP.ligand.clash>
0.0000

> <Gold.PLP.ligand.torsion>
1.3563

> <Gold.PLP.Chemscore.Hbond>
0.0000

> <Gold.PLP.Chemscore.CHOScore>
0.0000

> <Gold.PLP.Chemscore.Metal>
0.0000

> <Gold.PLP.Chemscore.Internal.Correction>
0.0330

> <Gold.Rescore>
     Score         DG    S(hbond)    S(metal)    S(lipo)     H(rot)  DE(clash)    DE(int)     intcor
     12.20     -14.33       0.00        0.00     126.51       2.32       0.62       1.51       ----

> <Gold.Chemscore.Fitness>
12.2019

> <Gold.Chemscore.DG>
-14.3328

> <Gold.Chemscore.ZeroCoef>
-5.4800

> <Gold.Chemscore.Hbond>
0.0000

> <Gold.Chemscore.Metal>
0.0000

> <Gold.Chemscore.Lipo>
126.5057

> <Gold.Chemscore.Internal_Hbond>
0.0000

> <Gold.Chemscore.DEClash>
0.6173

> <Gold.Chemscore.DEInternal>
1.5136

> <Gold.Chemscore.Rot>
2.3236

> <Gold.Chemscore.Internal.Correction>
   9.000000E+99

> <Gold.Chemscore.Hbond.Weighted>
-0.0000

> <Gold.Chemscore.Metal.Weighted>
-0.0000

> <Gold.Chemscore.Lipo.Weighted>
-14.8012

> <Gold.Chemscore.Internal_Hbond.Weighted>
0.0000

> <Gold.Chemscore.DEClash.Weighted>
0.6173

> <Gold.Chemscore.DEInternal.Weighted>
1.5136

> <Gold.Chemscore.Rot.Weighted>
5.9484

> <Gold.Chemscore.Internal.Correction.Weighted>
   9.000000E+99

> <Gold.Protein.RotatedTorsions>
[ 6907 6896 6895 6894 ] final  160.38 input  -60.11 | X-H torsion
[ 7974 7965 7964 7962 ] final   22.06 input  175.53 | X-H torsion
[ 8008 7997 7996 7995 ] final   32.29 input   59.86 | X-H torsion
[ 10167 10162 10161 10158 ] final  151.36 input  -65.29 | X-H torsion
[ 10718 10713 10712 10709 ] final   21.87 input   66.30 | X-H torsion
[ 10763 10752 10751 10750 ] final -101.63 input  -60.55 | X-H torsion
[ 11005 11000 10999 10996 ] final -172.22 input  -57.11 | X-H torsion

> <Gold.Protein.ActiveResidues>
 VAL166  LYS551  ARG553  GLY616  TRP617  ASP618  TYR619  PRO620  LYS621  CYS622 
 ASP623  PHE694  ASN695  SER759  ASP760  ASP761  ALA762  ILE779  LEU786  VAL792 
 PHE793  MET794  SER795  GLU796  ALA797  LYS798  CYS799  TRP800  GLU811  SER814 

> <Gold.Protein.RotatedAtoms>
  151.9715  133.3727  159.4072 H   0  0  0  0  0  0  0  0  0  0  0  0  # atno 6907 bound_to 6896
  150.6948  134.4134  159.5181 H   0  0  0  0  0  0  0  0  0  0  0  0  # atno 6908 bound_to 6896
  152.1839  134.8730  160.0574 H   0  0  0  0  0  0  0  0  0  0  0  0  # atno 6909 bound_to 6896
  146.2045  139.7939  142.8736 H   0  0  0  0  0  0  0  0  0  0  0  0  # atno 7974 bound_to 7965
  155.1201  140.3247  155.4499 H   0  0  0  0  0  0  0  0  0  0  0  0  # atno 8008 bound_to 7997
  156.2665  140.2029  156.6272 H   0  0  0  0  0  0  0  0  0  0  0  0  # atno 8009 bound_to 7997
  154.6690  140.0538  157.0132 H   0  0  0  0  0  0  0  0  0  0  0  0  # atno 8010 bound_to 7997
  139.4841  144.5447  151.7504 H   0  0  0  0  0  0  0  0  0  0  0  0  # atno 10167 bound_to 10162
  157.1445  130.6647  149.5991 H   0  0  0  0  0  0  0  0  0  0  0  0  # atno 10718 bound_to 10713
  154.7672  135.4890  153.9578 H   0  0  0  0  0  0  0  0  0  0  0  0  # atno 10763 bound_to 10752
  153.1323  135.6755  153.9166 H   0  0  0  0  0  0  0  0  0  0  0  0  # atno 10764 bound_to 10752
  153.8866  135.3126  155.3425 H   0  0  0  0  0  0  0  0  0  0  0  0  # atno 10765 bound_to 10752
  140.4995  134.5907  157.4983 H   0  0  0  0  0  0  0  0  0  0  0  0  # atno 11005 bound_to 11000
  145.3368  141.0279  143.3415 LP  0  0  0  0  0  0  0  0  0  0  0  0  # atno 17320 bound_to 7965
  144.8760  139.4971  143.6745 LP  0  0  0  0  0  0  0  0  0  0  0  0  # atno 17321 bound_to 7965
  140.4992  144.1194  150.5967 LP  0  0  0  0  0  0  0  0  0  0  0  0  # atno 17342 bound_to 10162
  140.4082  143.2670  151.9865 LP  0  0  0  0  0  0  0  0  0  0  0  0  # atno 17343 bound_to 10162
  155.9782  130.4766  150.6642 LP  0  0  0  0  0  0  0  0  0  0  0  0  # atno 17370 bound_to 10713
  157.4277  131.0845  151.1069 LP  0  0  0  0  0  0  0  0  0  0  0  0  # atno 17371 bound_to 10713
  139.9722  134.7274  156.0019 LP  0  0  0  0  0  0  0  0  0  0  0  0  # atno 17394 bound_to 11000
  141.1443  133.6559  156.3821 LP  0  0  0  0  0  0  0  0  0  0  0  0  # atno 17395 bound_to 11000

$$$$
