AV-unprocessed.smi:1570|AV-procd|sdf|6319|dock6
  -GOLD-   22720 6523D 1   1.00000     0.00000
 Structure written by MMmdl.
 52 54  0  0  0  0  0  0  0  0  2 V2000
  154.2799  138.4540  162.1898 C   0  0  0  0  0  0  0  0  0  0  0  0
  155.0197  139.2915  161.1389 C   0  0  0  0  0  0  0  0  0  0  0  0
  154.1940  140.4029  160.6737 N   0  0  0  0  0  0  0  0  0  0  0  0
  153.6551  140.5465  159.4405 C   0  0  0  0  0  0  0  0  0  0  0  0
  153.7855  139.7668  158.4966 O   0  0  0  0  0  0  0  0  0  0  0  0
  152.9287  141.6895  159.4282 N   0  0  0  0  0  0  0  0  0  0  0  0
  152.1740  142.2246  158.2955 C   0  0  0  0  0  0  0  0  0  0  0  0
  150.6696  141.9012  158.4044 C   0  0  1  0  0  0  0  0  0  0  0  0
  150.0728  142.8581  159.2580 O   0  0  0  0  0  0  0  0  0  0  0  0
  149.9643  141.9914  157.0358 C   0  0  0  0  0  0  0  0  0  0  0  0
  149.9293  140.6847  156.3304 N   0  3  1  0  0  0  0  0  0  0  0  0
  148.8606  140.6182  155.3061 C   0  0  0  0  0  0  0  0  0  0  0  0
  148.8242  139.2233  154.6531 C   0  0  1  0  0  0  0  0  0  0  0  0
  147.7841  139.1374  153.5308 C   0  0  0  0  0  0  0  0  0  0  0  0
  150.1025  138.9378  154.0954 O   0  0  0  0  0  0  0  0  0  0  0  0
  151.1344  138.9100  155.0754 C   0  0  1  0  0  0  0  0  0  0  0  0
  152.4408  138.5060  154.3829 C   0  0  0  0  0  0  0  0  0  0  0  0
  151.2337  140.2961  155.7390 C   0  0  0  0  0  0  0  0  0  0  0  0
  152.9921  142.2866  160.6960 C   0  0  0  0  0  0  0  0  0  0  0  0
  152.4033  143.4602  161.1992 C   0  0  0  0  0  0  0  0  0  0  0  0
  152.6623  143.7853  162.5515 C   0  0  0  0  0  0  0  0  0  0  0  0
  153.4824  142.9522  163.3558 C   0  0  0  0  0  0  0  0  0  0  0  0
  154.0605  141.7752  162.8254 C   0  0  0  0  0  0  0  0  0  0  0  0
  153.7883  141.4763  161.4790 C   0  0  0  0  0  0  0  0  0  0  0  0
  154.9008  137.6268  162.5339 H   0  0  0  0  0  0  0  0  0  0  0  0
  153.3604  138.0323  161.7830 H   0  0  0  0  0  0  0  0  0  0  0  0
  154.0165  139.0555  163.0605 H   0  0  0  0  0  0  0  0  0  0  0  0
  155.9509  139.6768  161.5547 H   0  0  0  0  0  0  0  0  0  0  0  0
  155.3041  138.6605  160.2954 H   0  0  0  0  0  0  0  0  0  0  0  0
  152.3416  143.2954  158.1764 H   0  0  0  0  0  0  0  0  0  0  0  0
  152.5825  141.7654  157.3938 H   0  0  0  0  0  0  0  0  0  0  0  0
  150.5330  140.9088  158.8320 H   0  0  0  0  0  0  0  0  0  0  0  0
  149.8370  142.4351  160.0697 H   0  0  0  0  0  0  0  0  0  0  0  0
  148.9494  142.3626  157.1878 H   0  0  0  0  0  0  0  0  0  0  0  0
  150.4591  142.7233  156.3955 H   0  0  0  0  0  0  0  0  0  0  0  0
  147.8955  140.8318  155.7673 H   0  0  0  0  0  0  0  0  0  0  0  0
  149.0331  141.3865  154.5502 H   0  0  0  0  0  0  0  0  0  0  0  0
  148.5852  138.4704  155.4064 H   0  0  0  0  0  0  0  0  0  0  0  0
  146.7805  139.3330  153.9094 H   0  0  0  0  0  0  0  0  0  0  0  0
  147.7804  138.1454  153.0780 H   0  0  0  0  0  0  0  0  0  0  0  0
  147.9924  139.8617  152.7429 H   0  0  0  0  0  0  0  0  0  0  0  0
  150.8946  138.1576  155.8290 H   0  0  0  0  0  0  0  0  0  0  0  0
  153.2656  138.4608  155.0946 H   0  0  0  0  0  0  0  0  0  0  0  0
  152.7108  139.2176  153.6019 H   0  0  0  0  0  0  0  0  0  0  0  0
  152.3489  137.5232  153.9198 H   0  0  0  0  0  0  0  0  0  0  0  0
  151.5357  141.0428  155.0024 H   0  0  0  0  0  0  0  0  0  0  0  0
  152.0086  140.2749  156.5044 H   0  0  0  0  0  0  0  0  0  0  0  0
  151.7759  144.0899  160.5866 H   0  0  0  0  0  0  0  0  0  0  0  0
  152.2285  144.6779  162.9776 H   0  0  0  0  0  0  0  0  0  0  0  0
  153.6659  143.2187  164.3862 H   0  0  0  0  0  0  0  0  0  0  0  0
  154.6821  141.1353  163.4340 H   0  0  0  0  0  0  0  0  0  0  0  0
  149.6977  139.9905  157.0273 H   0  0  0  0  0  0  0  0  0  0  0  0
  1  2  1  0  0  0  0
  1 25  1  0  0  0  0
  1 26  1  0  0  0  0
  1 27  1  0  0  0  0
  2  3  1  0  0  0  0
  2 28  1  0  0  0  0
  2 29  1  0  0  0  0
  3 24  1  0  0  0  0
  3  4  1  0  0  0  0
  4  5  2  0  0  0  0
  4  6  1  0  0  0  0
  6  7  1  0  0  0  0
  6 19  1  0  0  0  0
  7  8  1  0  0  0  0
  7 30  1  0  0  0  0
  7 31  1  0  0  0  0
  8  9  1  0  0  0  0
  8 10  1  0  0  0  0
  8 32  1  0  0  0  0
  9 33  1  0  0  0  0
 10 11  1  0  0  0  0
 10 34  1  0  0  0  0
 10 35  1  0  0  0  0
 11 18  1  0  0  0  0
 11 12  1  0  0  0  0
 11 52  1  0  0  0  0
 12 13  1  0  0  0  0
 12 36  1  0  0  0  0
 12 37  1  0  0  0  0
 13 14  1  0  0  0  0
 13 15  1  0  0  0  0
 13 38  1  0  0  0  0
 14 39  1  0  0  0  0
 14 40  1  0  0  0  0
 14 41  1  0  0  0  0
 15 16  1  0  0  0  0
 16 17  1  0  0  0  0
 16 18  1  0  0  0  0
 16 42  1  0  0  0  0
 17 43  1  0  0  0  0
 17 44  1  0  0  0  0
 17 45  1  0  0  0  0
 18 46  1  0  0  0  0
 18 47  1  0  0  0  0
 19 24  2  0  0  0  0
 19 20  1  0  0  0  0
 20 21  2  0  0  0  0
 20 48  1  0  0  0  0
 21 22  1  0  0  0  0
 21 49  1  0  0  0  0
 22 23  2  0  0  0  0
 22 50  1  0  0  0  0
 23 24  1  0  0  0  0
 23 51  1  0  0  0  0
M  CHG  1  11   1
M  END
> <s_m_source_file>
AV-unprocessed.smi

> <i_m_source_file_index>
1570

> <i_lp_mmshare_version>
43012

> <i_f3d_flags>
0

> <s_epik_input>
W2NIXTFbY0hdW2NIXVtjSF1jKGMxMiluKFtDSDJdW0NIM10pYyg9TyluMltDSDJdW0NASF0oW09IXSlbQ0gyXU4zW0NIMl1bQ0BASF0oW0NIM10pT1tDQEBIXShbQ0gzXSlbQ0gyXTM=

> <s_epik_cmdline>
J2VwaWtfcHl0aG9uJywgJy1waCcsICc3LjAnLCAnLXRuJywgJzgnLCAnLW1hJywgJzIwMCcsICctbWV0YWxfYmluZGluZycsICctaW1hZScsICc8aW5maWxlLm1hZT4nLCAnLW9tYWUnLCAnPG91dGZpbGUubWFlPic=

> <r_epik_Ionization_Penalty>
0.706332

> <r_epik_Ionization_Penalty_Charging>
0.706318

> <r_epik_Ionization_Penalty_Neutral>
1.42224e-05

> <r_epik_State_Penalty>
0.729493

> <r_epik_Charging_Adjusted_Penalty>
1.43581

> <i_epik_Tot_Q>
1

> <i_epik_Tot_abs_Q>
1

> <r_epik_Metal_State_Penalty>
0.729493

> <b_epik_Metal_Only>
0

> <s_lp_Force_Field>
OPLS_2005

> <r_lp_Energy>
52.3817

> <b_lp_Chiralities_Consistent>
1

> <s_lp_Variant>
AV-unprocessed.smi:1570-8

> <Gold.Version>
5.8.1

> <Gold.Id.Protein>
6NUR|6NUR_protein|mol2

> <Gold.PLP.Fitness>
52.4981

> <Gold.PLP.PLP>
-51.6382

> <Gold.PLP.part.hbond>
-2.0000

> <Gold.PLP.part.metal>
0.0000

> <Gold.PLP.part.buried>
-1.5317

> <Gold.PLP.part.nonpolar>
-47.5094

> <Gold.PLP.part.repulsive>
0.2623

> <Gold.PLP.ligand.clash>
0.0000

> <Gold.PLP.ligand.torsion>
1.1103

> <Gold.PLP.Chemscore.Hbond>
1.0000

> <Gold.PLP.Chemscore.CHOScore>
0.0000

> <Gold.PLP.Chemscore.Metal>
0.0000

> <Gold.Chemscore.Hbonds>
donor molecule, donor type, donor heavy atom, donor atom, acceptor molecule, acceptor atom, score
      P1  H  7997  8009       L1     5  1.00

> <Gold.PLP.Chemscore.Internal.Correction>
0.0804

> <Gold.Rescore>
     Score         DG    S(hbond)    S(metal)    S(lipo)     H(rot)  DE(clash)    DE(int)     intcor
     18.62     -19.87       0.99        0.00     141.46       2.13       0.14       1.11       ----

> <Gold.Chemscore.Fitness>
18.6196

> <Gold.Chemscore.DG>
-19.8722

> <Gold.Chemscore.ZeroCoef>
-5.4800

> <Gold.Chemscore.Hbond>
0.9865

> <Gold.Chemscore.Metal>
0.0000

> <Gold.Chemscore.Lipo>
141.4595

> <Gold.Chemscore.Internal_Hbond>
0.0000

> <Gold.Chemscore.DEClash>
0.1421

> <Gold.Chemscore.DEInternal>
1.1106

> <Gold.Chemscore.Rot>
2.1303

> <Gold.Chemscore.Internal.Correction>
   9.000000E+99

> <Gold.Chemscore.Hbonds>
donor molecule, donor type, donor heavy atom, donor atom, acceptor molecule, acceptor atom, score
      P1  H  7997  8009       L1     5  0.99

> <Gold.Chemscore.Hbond.Weighted>
-3.2950

> <Gold.Chemscore.Metal.Weighted>
-0.0000

> <Gold.Chemscore.Lipo.Weighted>
-16.5508

> <Gold.Chemscore.Internal_Hbond.Weighted>
0.0000

> <Gold.Chemscore.DEClash.Weighted>
0.1421

> <Gold.Chemscore.DEInternal.Weighted>
1.1106

> <Gold.Chemscore.Rot.Weighted>
5.4535

> <Gold.Chemscore.Internal.Correction.Weighted>
   9.000000E+99

> <Gold.Protein.RotatedTorsions>
[ 6907 6896 6895 6894 ] final  178.27 input  -60.11 | X-H torsion
[ 7974 7965 7964 7962 ] final  143.71 input  175.53 | X-H torsion
[ 8008 7997 7996 7995 ] final  149.96 input   59.86 | X-H torsion
[ 10167 10162 10161 10158 ] final -141.74 input  -65.29 | X-H torsion
[ 10718 10713 10712 10709 ] final  106.56 input   66.30 | X-H torsion
[ 10763 10752 10751 10750 ] final  169.88 input  -60.55 | X-H torsion
[ 11005 11000 10999 10996 ] final  127.62 input  -57.11 | X-H torsion

> <Gold.Protein.ActiveResidues>
 VAL166  LYS551  ARG553  GLY616  TRP617  ASP618  TYR619  PRO620  LYS621  CYS622 
 ASP623  PHE694  ASN695  SER759  ASP760  ASP761  ALA762  ILE779  LEU786  VAL792 
 PHE793  MET794  SER795  GLU796  ALA797  LYS798  CYS799  TRP800  GLU811  SER814 

> <Gold.Protein.RotatedAtoms>
  151.6906  133.3311  159.3241 H   0  0  0  0  0  0  0  0  0  0  0  0  # atno 6907 bound_to 6896
  150.7781  134.6702  159.6396 H   0  0  0  0  0  0  0  0  0  0  0  0  # atno 6908 bound_to 6896
  152.3829  134.6565  160.0188 H   0  0  0  0  0  0  0  0  0  0  0  0  # atno 6909 bound_to 6896
  144.8898  139.5575  143.5804 H   0  0  0  0  0  0  0  0  0  0  0  0  # atno 7974 bound_to 7965
  156.2734  140.2087  156.5942 H   0  0  0  0  0  0  0  0  0  0  0  0  # atno 8008 bound_to 7997
  154.6958  140.0525  157.0433 H   0  0  0  0  0  0  0  0  0  0  0  0  # atno 8009 bound_to 7997
  155.0802  140.3186  155.4606 H   0  0  0  0  0  0  0  0  0  0  0  0  # atno 8010 bound_to 7997
  139.8155  143.7644  152.2665 H   0  0  0  0  0  0  0  0  0  0  0  0  # atno 10167 bound_to 10162
  157.6663  131.0853  150.6025 H   0  0  0  0  0  0  0  0  0  0  0  0  # atno 10718 bound_to 10713
  154.3896  135.2754  155.2163 H   0  0  0  0  0  0  0  0  0  0  0  0  # atno 10763 bound_to 10752
  154.4235  135.5994  153.6028 H   0  0  0  0  0  0  0  0  0  0  0  0  # atno 10764 bound_to 10752
  152.9832  135.5978  154.4149 H   0  0  0  0  0  0  0  0  0  0  0  0  # atno 10765 bound_to 10752
  139.9517  134.9621  156.8881 H   0  0  0  0  0  0  0  0  0  0  0  0  # atno 11005 bound_to 11000
  146.3046  139.7539  142.9065 LP  0  0  0  0  0  0  0  0  0  0  0  0  # atno 17320 bound_to 7965
  145.3804  141.0357  143.3181 LP  0  0  0  0  0  0  0  0  0  0  0  0  # atno 17321 bound_to 7965
  139.7806  144.7446  151.0093 LP  0  0  0  0  0  0  0  0  0  0  0  0  # atno 17342 bound_to 10162
  140.7816  143.4546  151.0364 LP  0  0  0  0  0  0  0  0  0  0  0  0  # atno 17343 bound_to 10162
  156.6325  130.4436  149.5781 LP  0  0  0  0  0  0  0  0  0  0  0  0  # atno 17370 bound_to 10713
  156.2270  130.6772  151.1426 LP  0  0  0  0  0  0  0  0  0  0  0  0  # atno 17371 bound_to 10713
  140.5703  134.0449  155.7428 LP  0  0  0  0  0  0  0  0  0  0  0  0  # atno 17394 bound_to 11000
  141.1181  133.9507  157.2783 LP  0  0  0  0  0  0  0  0  0  0  0  0  # atno 17395 bound_to 11000

$$$$
