AV-unprocessed.smi:2190|AV-procd|sdf|8889|dock3
  -GOLD-   2272012 93D 1   1.00000     0.00000
 Structure written by MMmdl.
 46 48  0  0  0  0  0  0  0  0  1 V2000
  147.3322  132.4178  159.0625 C   0  0  0  0  0  0  0  0  0  0  0  0
  147.3100  133.5627  160.0545 C   0  0  0  0  0  0  0  0  0  0  0  0
  146.8041  133.3678  161.3542 C   0  0  0  0  0  0  0  0  0  0  0  0
  146.7852  134.4367  162.2682 C   0  0  0  0  0  0  0  0  0  0  0  0
  147.2694  135.7058  161.8891 C   0  0  0  0  0  0  0  0  0  0  0  0
  147.2425  136.8480  162.8876 C   0  0  0  0  0  0  0  0  0  0  0  0
  147.7778  135.9157  160.5864 C   0  0  0  0  0  0  0  0  0  0  0  0
  148.2302  137.1822  160.2802 O   0  0  0  0  0  0  0  0  0  0  0  0
  148.6412  137.4574  158.9470 C   0  0  0  0  0  0  0  0  0  0  0  0
  150.0409  138.0946  158.9549 C   0  0  1  0  0  0  0  0  0  0  0  0
  150.9997  137.1075  159.2794 O   0  0  0  0  0  0  0  0  0  0  0  0
  150.3972  138.8239  157.6428 C   0  0  0  0  0  0  0  0  0  0  0  0
  150.4467  140.2708  157.8055 N   0  0  0  0  0  0  0  0  0  0  0  0
  149.6943  141.2156  157.1857 C   0  0  0  0  0  0  0  0  0  0  0  0
  148.6363  140.8449  156.1845 C   0  0  0  0  0  0  0  0  0  0  0  0
  147.9234  141.9496  155.6656 O   0  0  0  0  0  0  0  0  0  0  0  0
  149.9544  142.4782  157.5348 N   0  0  0  0  0  0  0  0  0  0  0  0
  150.9678  142.3382  158.4621 C   0  0  0  0  0  0  0  0  0  0  0  0
  151.6773  143.3111  159.2020 C   0  0  0  0  0  0  0  0  0  0  0  0
  152.6862  142.9232  160.1081 C   0  0  0  0  0  0  0  0  0  0  0  0
  152.9993  141.5600  160.2872 C   0  0  0  0  0  0  0  0  0  0  0  0
  152.3042  140.5748  159.5596 C   0  0  0  0  0  0  0  0  0  0  0  0
  151.2986  140.9677  158.6562 C   0  0  0  0  0  0  0  0  0  0  0  0
  147.7943  134.8304  159.6735 C   0  0  0  0  0  0  0  0  0  0  0  0
  147.0942  131.4692  159.5450 H   0  0  0  0  0  0  0  0  0  0  0  0
  148.3188  132.3277  158.6072 H   0  0  0  0  0  0  0  0  0  0  0  0
  146.6026  132.5914  158.2712 H   0  0  0  0  0  0  0  0  0  0  0  0
  146.4288  132.4007  161.6552 H   0  0  0  0  0  0  0  0  0  0  0  0
  146.3958  134.2770  163.2631 H   0  0  0  0  0  0  0  0  0  0  0  0
  148.2430  137.2614  163.0192 H   0  0  0  0  0  0  0  0  0  0  0  0
  146.8820  136.5187  163.8624 H   0  0  0  0  0  0  0  0  0  0  0  0
  146.5860  137.6433  162.5333 H   0  0  0  0  0  0  0  0  0  0  0  0
  148.6847  136.5202  158.3897 H   0  0  0  0  0  0  0  0  0  0  0  0
  147.9300  138.1127  158.4410 H   0  0  0  0  0  0  0  0  0  0  0  0
  150.0685  138.8172  159.7713 H   0  0  0  0  0  0  0  0  0  0  0  0
  151.6458  137.4922  159.8518 H   0  0  0  0  0  0  0  0  0  0  0  0
  151.3493  138.4714  157.2462 H   0  0  0  0  0  0  0  0  0  0  0  0
  149.6519  138.5957  156.8799 H   0  0  0  0  0  0  0  0  0  0  0  0
  149.0943  140.3152  155.3495 H   0  0  0  0  0  0  0  0  0  0  0  0
  147.9279  140.1627  156.6552 H   0  0  0  0  0  0  0  0  0  0  0  0
  148.4649  142.7197  155.7441 H   0  0  0  0  0  0  0  0  0  0  0  0
  151.4441  144.3576  159.0722 H   0  0  0  0  0  0  0  0  0  0  0  0
  153.2218  143.6753  160.6688 H   0  0  0  0  0  0  0  0  0  0  0  0
  153.7728  141.2715  160.9835 H   0  0  0  0  0  0  0  0  0  0  0  0
  152.5411  139.5299  159.6941 H   0  0  0  0  0  0  0  0  0  0  0  0
  148.1736  134.9471  158.6696 H   0  0  0  0  0  0  0  0  0  0  0  0
  1  2  1  0  0  0  0
  1 25  1  0  0  0  0
  1 26  1  0  0  0  0
  1 27  1  0  0  0  0
  2 24  1  0  0  0  0
  2  3  2  0  0  0  0
  3  4  1  0  0  0  0
  3 28  1  0  0  0  0
  4  5  2  0  0  0  0
  4 29  1  0  0  0  0
  5  6  1  0  0  0  0
  5  7  1  0  0  0  0
  6 30  1  0  0  0  0
  6 31  1  0  0  0  0
  6 32  1  0  0  0  0
  7  8  1  0  0  0  0
  7 24  2  0  0  0  0
  8  9  1  0  0  0  0
  9 10  1  0  0  0  0
  9 33  1  0  0  0  0
  9 34  1  0  0  0  0
 10 11  1  0  0  0  0
 10 12  1  0  0  0  0
 10 35  1  0  0  0  0
 11 36  1  0  0  0  0
 12 13  1  0  0  0  0
 12 37  1  0  0  0  0
 12 38  1  0  0  0  0
 13 23  1  0  0  0  0
 13 14  1  0  0  0  0
 14 15  1  0  0  0  0
 14 17  2  0  0  0  0
 15 16  1  0  0  0  0
 15 39  1  0  0  0  0
 15 40  1  0  0  0  0
 16 41  1  0  0  0  0
 17 18  1  0  0  0  0
 18 23  2  0  0  0  0
 18 19  1  0  0  0  0
 19 20  2  0  0  0  0
 19 42  1  0  0  0  0
 20 21  1  0  0  0  0
 20 43  1  0  0  0  0
 21 22  2  0  0  0  0
 21 44  1  0  0  0  0
 22 23  1  0  0  0  0
 22 45  1  0  0  0  0
 24 46  1  0  0  0  0
M  END
> <s_m_source_file>
AV-unprocessed.smi

> <i_m_source_file_index>
2190

> <i_lp_mmshare_version>
43012

> <i_f3d_flags>
0

> <s_epik_input>
W0NIM11jMVtjSF1bY0hdYyhbQ0gzXSljKFtjSF0xKU9bQ0gyXVtDQEhdKFtPSF0pW0NIMl1uKGMobjIpW0NIMl1bT0hdKWMoYzIzKVtjSF1bY0hdW2NIXVtjSF0z

> <s_epik_cmdline>
J2VwaWtfcHl0aG9uJywgJy1waCcsICc3LjAnLCAnLXRuJywgJzgnLCAnLW1hJywgJzIwMCcsICctbWV0YWxfYmluZGluZycsICctaW1hZScsICc8aW5maWxlLm1hZT4nLCAnLW9tYWUnLCAnPG91dGZpbGUubWFlPic=

> <r_lp_tautomer_probability>
1

> <r_epik_Ionization_Penalty>
0.0555874

> <r_epik_Ionization_Penalty_Charging>
0

> <r_epik_Ionization_Penalty_Neutral>
0.0555874

> <r_epik_State_Penalty>
0.0478234

> <r_epik_Charging_Adjusted_Penalty>
0.0478234

> <i_epik_Tot_Q>
0

> <i_epik_Tot_abs_Q>
0

> <r_epik_Metal_State_Penalty>
4.98044e-05

> <b_epik_Metal_Only>
0

> <s_lp_Force_Field>
OPLS_2005

> <r_lp_Energy>
17.5395

> <b_lp_Chiralities_Consistent>
1

> <s_lp_Variant>
AV-unprocessed.smi:2190-2

> <Gold.Version>
5.8.1

> <Gold.Id.Protein>
6NUR|6NUR_protein|mol2

> <Gold.PLP.Fitness>
54.9597

> <Gold.PLP.PLP>
-49.3810

> <Gold.PLP.part.hbond>
-3.9705

> <Gold.PLP.part.metal>
0.0000

> <Gold.PLP.part.buried>
-4.8102

> <Gold.PLP.part.nonpolar>
-40.9446

> <Gold.PLP.part.repulsive>
0.1243

> <Gold.PLP.ligand.clash>
0.0000

> <Gold.PLP.ligand.torsion>
1.2209

> <Gold.PLP.Chemscore.Hbond>
2.6456

> <Gold.PLP.Chemscore.CHOScore>
0.0000

> <Gold.PLP.Chemscore.Metal>
0.0000

> <Gold.Chemscore.Hbonds>
donor molecule, donor type, donor heavy atom, donor atom, acceptor molecule, acceptor atom, score
      L1  H    16    41       P1  8028  0.99
      P1  H  6896  6908       L1    11  0.55
      P1  H  6931  6943       L1     8  0.58
      P1  H  6934  6947       L1     8  0.37

> <Gold.PLP.Chemscore.Internal.Correction>
0.0836

> <Gold.Rescore>
     Score         DG    S(hbond)    S(metal)    S(lipo)     H(rot)  DE(clash)    DE(int)     intcor
     19.27     -20.54       2.32        0.00     127.19       2.96       0.07       1.20       ----

> <Gold.Chemscore.Fitness>
19.2705

> <Gold.Chemscore.DG>
-20.5360

> <Gold.Chemscore.ZeroCoef>
-5.4800

> <Gold.Chemscore.Hbond>
2.3182

> <Gold.Chemscore.Metal>
0.0000

> <Gold.Chemscore.Lipo>
127.1868

> <Gold.Chemscore.Internal_Hbond>
0.0000

> <Gold.Chemscore.DEClash>
0.0696

> <Gold.Chemscore.DEInternal>
1.1958

> <Gold.Chemscore.Rot>
2.9561

> <Gold.Chemscore.Internal.Correction>
   9.000000E+99

> <Gold.Chemscore.Hbonds>
donor molecule, donor type, donor heavy atom, donor atom, acceptor molecule, acceptor atom, score
      L1  H    16    41       P1  8028  0.90
      P1  H  6896  6908       L1    11  0.05
      P1  H  6931  6943       L1     8  0.51
      P1  H  6934  6947       L1     8  0.17

> <Gold.Chemscore.Hbond.Weighted>
-7.7428

> <Gold.Chemscore.Metal.Weighted>
-0.0000

> <Gold.Chemscore.Lipo.Weighted>
-14.8809

> <Gold.Chemscore.Internal_Hbond.Weighted>
0.0000

> <Gold.Chemscore.DEClash.Weighted>
0.0696

> <Gold.Chemscore.DEInternal.Weighted>
1.1958

> <Gold.Chemscore.Rot.Weighted>
7.5677

> <Gold.Chemscore.Internal.Correction.Weighted>
   9.000000E+99

> <Gold.Protein.RotatedTorsions>
[ 6907 6896 6895 6894 ] final -129.92 input  -60.11 | X-H torsion
[ 7974 7965 7964 7962 ] final -142.09 input  175.53 | X-H torsion
[ 8008 7997 7996 7995 ] final -154.05 input   59.86 | X-H torsion
[ 10167 10162 10161 10158 ] final   94.41 input  -65.29 | X-H torsion
[ 10718 10713 10712 10709 ] final  107.20 input   66.30 | X-H torsion
[ 10763 10752 10751 10750 ] final  -85.75 input  -60.55 | X-H torsion
[ 11005 11000 10999 10996 ] final -154.11 input  -57.11 | X-H torsion

> <Gold.Protein.ActiveResidues>
 VAL166  LYS551  ARG553  GLY616  TRP617  ASP618  TYR619  PRO620  LYS621  CYS622 
 ASP623  PHE694  ASN695  SER759  ASP760  ASP761  ALA762  ILE779  LEU786  VAL792 
 PHE793  MET794  SER795  GLU796  ALA797  LYS798  CYS799  TRP800  GLU811  SER814 

> <Gold.Protein.RotatedAtoms>
  150.9340  133.6733  159.2804 H   0  0  0  0  0  0  0  0  0  0  0  0  # atno 6907 bound_to 6896
  151.4145  135.0988  159.9605 H   0  0  0  0  0  0  0  0  0  0  0  0  # atno 6908 bound_to 6896
  152.5039  133.8806  159.7399 H   0  0  0  0  0  0  0  0  0  0  0  0  # atno 6909 bound_to 6896
  144.8469  140.6000  143.5415 H   0  0  0  0  0  0  0  0  0  0  0  0  # atno 7974 bound_to 7965
  155.6804  140.0743  157.2487 H   0  0  0  0  0  0  0  0  0  0  0  0  # atno 8008 bound_to 7997
  154.4106  140.1683  156.2027 H   0  0  0  0  0  0  0  0  0  0  0  0  # atno 8009 bound_to 7997
  155.9540  140.3375  155.6435 H   0  0  0  0  0  0  0  0  0  0  0  0  # atno 8010 bound_to 7997
  139.8086  144.6783  150.9670 H   0  0  0  0  0  0  0  0  0  0  0  0  # atno 10167 bound_to 10162
  157.6638  131.0867  150.6121 H   0  0  0  0  0  0  0  0  0  0  0  0  # atno 10718 bound_to 10713
  154.6147  135.5473  153.7510 H   0  0  0  0  0  0  0  0  0  0  0  0  # atno 10763 bound_to 10752
  153.0211  135.6398  154.1527 H   0  0  0  0  0  0  0  0  0  0  0  0  # atno 10764 bound_to 10752
  154.1464  135.2905  155.3127 H   0  0  0  0  0  0  0  0  0  0  0  0  # atno 10765 bound_to 10752
  140.7009  134.3938  157.5209 H   0  0  0  0  0  0  0  0  0  0  0  0  # atno 11005 bound_to 11000
  145.4578  139.1516  143.3883 LP  0  0  0  0  0  0  0  0  0  0  0  0  # atno 17320 bound_to 7965
  146.2752  140.4706  142.8798 LP  0  0  0  0  0  0  0  0  0  0  0  0  # atno 17321 bound_to 7965
  140.7818  143.4208  151.0845 LP  0  0  0  0  0  0  0  0  0  0  0  0  # atno 17342 bound_to 10162
  139.7876  143.8265  152.3147 LP  0  0  0  0  0  0  0  0  0  0  0  0  # atno 17343 bound_to 10162
  156.6422  130.4462  149.5748 LP  0  0  0  0  0  0  0  0  0  0  0  0  # atno 17370 bound_to 10713
  156.2200  130.6731  151.1358 LP  0  0  0  0  0  0  0  0  0  0  0  0  # atno 17371 bound_to 10713
  139.8897  134.8824  156.2408 LP  0  0  0  0  0  0  0  0  0  0  0  0  # atno 17394 bound_to 11000
  141.0164  133.7066  156.1196 LP  0  0  0  0  0  0  0  0  0  0  0  0  # atno 17395 bound_to 11000

$$$$
