AV-unprocessed.smi:1111|AV-procd|sdf|4795|dock6
  -GOLD-   22720 3343D 1   1.00000     0.00000
 Structure written by MMmdl.
 33 34  0  0  0  0  0  0  0  0  2 V2000
  149.3551  131.5988  154.1590 C   0  0  0  0  0  0  0  0  0  0  0  0
  149.0132  133.0353  154.6087 C   0  0  2  0  0  0  0  0  0  0  0  0
  148.2422  133.7327  153.5700 N   0  0  0  0  0  0  0  0  0  0  0  0
  147.1076  133.3363  152.9666 C   0  0  0  0  0  0  0  0  0  0  0  0
  146.5419  132.2680  153.1948 O   0  0  0  0  0  0  0  0  0  0  0  0
  146.5157  134.3004  151.9385 C   0  0  0  0  0  0  0  0  0  0  0  0
  145.4579  133.6585  151.1529 N   0  0  0  0  0  0  0  0  0  0  0  0
  145.5574  132.5165  150.3996 C   0  0  0  0  0  0  0  0  0  0  0  0
  144.3197  132.3020  149.8496 C   0  0  0  0  0  0  0  0  0  0  0  0
  143.5172  133.3199  150.2911 N   0  3  0  0  0  0  0  0  0  0  0  0
  144.2112  134.1445  151.0824 C   0  0  0  0  0  0  0  0  0  0  0  0
  150.3152  133.8417  154.8316 C   0  0  0  0  0  0  0  0  0  0  0  0
  150.0085  135.1120  155.6353 C   0  0  0  0  0  0  0  0  0  0  0  0
  148.6096  134.6794  156.7329 S   0  0  0  0  0  0  0  0  0  0  0  0
  149.1013  134.4685  158.1027 O   0  0  0  0  0  0  0  0  0  0  0  0
  147.4923  135.5962  156.4601 O   0  0  0  0  0  0  0  0  0  0  0  0
  148.2639  133.0525  155.9612 C   0  0  0  0  0  0  0  0  0  0  0  0
  150.0134  131.1067  154.8755 H   0  0  0  0  0  0  0  0  0  0  0  0
  149.8635  131.5966  153.1943 H   0  0  0  0  0  0  0  0  0  0  0  0
  148.4661  130.9753  154.0672 H   0  0  0  0  0  0  0  0  0  0  0  0
  148.6080  134.6327  153.2948 H   0  0  0  0  0  0  0  0  0  0  0  0
  146.0947  135.1751  152.4370 H   0  0  0  0  0  0  0  0  0  0  0  0
  147.2891  134.6553  151.2553 H   0  0  0  0  0  0  0  0  0  0  0  0
  146.4770  131.9562  150.3120 H   0  0  0  0  0  0  0  0  0  0  0  0
  143.9597  131.5218  149.1946 H   0  0  0  0  0  0  0  0  0  0  0  0
  143.8380  135.0273  151.5710 H   0  0  0  0  0  0  0  0  0  0  0  0
  151.0116  133.2371  155.4144 H   0  0  0  0  0  0  0  0  0  0  0  0
  150.8220  134.0759  153.8944 H   0  0  0  0  0  0  0  0  0  0  0  0
  150.8580  135.4566  156.2252 H   0  0  0  0  0  0  0  0  0  0  0  0
  149.6869  135.9226  154.9809 H   0  0  0  0  0  0  0  0  0  0  0  0
  147.1883  132.8929  155.8908 H   0  0  0  0  0  0  0  0  0  0  0  0
  148.6655  132.2902  156.6296 H   0  0  0  0  0  0  0  0  0  0  0  0
  142.5394  133.4348  150.0546 H   0  0  0  0  0  0  0  0  0  0  0  0
  1  2  1  0  0  0  0
  1 18  1  0  0  0  0
  1 19  1  0  0  0  0
  1 20  1  0  0  0  0
  2 17  1  0  0  0  0
  2  3  1  0  0  0  0
  2 12  1  0  0  0  0
  3  4  1  0  0  0  0
  3 21  1  0  0  0  0
  4  5  2  0  0  0  0
  4  6  1  0  0  0  0
  6  7  1  0  0  0  0
  6 22  1  0  0  0  0
  6 23  1  0  0  0  0
  7 11  1  0  0  0  0
  7  8  1  0  0  0  0
  8  9  2  0  0  0  0
  8 24  1  0  0  0  0
  9 10  1  0  0  0  0
  9 25  1  0  0  0  0
 10 11  2  0  0  0  0
 10 33  1  0  0  0  0
 11 26  1  0  0  0  0
 12 13  1  0  0  0  0
 12 27  1  0  0  0  0
 12 28  1  0  0  0  0
 13 14  1  0  0  0  0
 13 29  1  0  0  0  0
 13 30  1  0  0  0  0
 14 15  2  0  0  0  0
 14 16  2  0  0  0  0
 14 17  1  0  0  0  0
 17 31  1  0  0  0  0
 17 32  1  0  0  0  0
M  CHG  1  10   1
M  END
> <s_m_source_file>
AV-unprocessed.smi

> <i_m_source_file_index>
1111

> <i_lp_mmshare_version>
43012

> <i_f3d_flags>
0

> <s_epik_input>
Tz1TKD1PKShbQ0gyXTEpW0NIMl1bQ0gyXVtDQEBdMShbQ0gzXSlbTkhdQyg9TylbQ0gyXW4yW2NIXVtjSF1uW2NIXTI=

> <s_epik_cmdline>
J2VwaWtfcHl0aG9uJywgJy1waCcsICc3LjAnLCAnLXRuJywgJzgnLCAnLW1hJywgJzIwMCcsICctbWV0YWxfYmluZGluZycsICctaW1hZScsICc8aW5maWxlLm1hZT4nLCAnLW9tYWUnLCAnPG91dGZpbGUubWFlPic=

> <r_lp_tautomer_probability>
1

> <r_epik_Ionization_Penalty>
0.638881

> <r_epik_Ionization_Penalty_Charging>
0

> <r_epik_Ionization_Penalty_Neutral>
0.638881

> <r_epik_State_Penalty>
0.656385

> <r_epik_Charging_Adjusted_Penalty>
0.656385

> <i_epik_Tot_Q>
1

> <i_epik_Tot_abs_Q>
1

> <r_epik_Metal_State_Penalty>
0.832701

> <b_epik_Metal_Only>
0

> <s_lp_Force_Field>
OPLS_2005

> <r_lp_Energy>
7.98032

> <b_lp_Chiralities_Consistent>
1

> <s_lp_Variant>
AV-unprocessed.smi:1111-4

> <Gold.Version>
5.8.1

> <Gold.Id.Protein>
6NUR|6NUR_protein|mol2

> <Gold.PLP.Fitness>
39.3200

> <Gold.PLP.PLP>
-25.1958

> <Gold.PLP.part.hbond>
-2.9912

> <Gold.PLP.part.metal>
0.0000

> <Gold.PLP.part.buried>
-3.9166

> <Gold.PLP.part.nonpolar>
-17.6665

> <Gold.PLP.part.repulsive>
0.1615

> <Gold.PLP.ligand.clash>
0.0000

> <Gold.PLP.ligand.torsion>
0.2361

> <Gold.PLP.Chemscore.Hbond>
3.9913

> <Gold.PLP.Chemscore.CHOScore>
0.8689

> <Gold.PLP.Chemscore.Metal>
0.0000

> <Gold.Chemscore.Hbonds>
donor molecule, donor type, donor heavy atom, donor atom, acceptor molecule, acceptor atom, score
      L1  H     3    21       P1  7948  0.73
      L1  H    10    33       P1 10186  2.00
      P1  H  6896  6907       L1    15  1.00
      L1  C     8    24       P1 10747  0.52

> <Gold.PLP.Chemscore.Internal.Correction>
0.0158

> <Gold.Rescore>
     Score         DG    S(hbond)    S(metal)    S(lipo)     H(rot)  DE(clash)    DE(int)     intcor
     12.11     -14.43       2.38        0.00      47.46       1.78       1.01       1.31       ----

> <Gold.Chemscore.Fitness>
12.1147

> <Gold.Chemscore.DG>
-14.4332

> <Gold.Chemscore.ZeroCoef>
-5.4800

> <Gold.Chemscore.Hbond>
2.3815

> <Gold.Chemscore.Metal>
0.0000

> <Gold.Chemscore.Lipo>
47.4590

> <Gold.Chemscore.Internal_Hbond>
0.0000

> <Gold.Chemscore.DEClash>
1.0133

> <Gold.Chemscore.DEInternal>
1.3053

> <Gold.Chemscore.Rot>
1.7787

> <Gold.Chemscore.Internal.Correction>
   9.000000E+99

> <Gold.Chemscore.Hbonds>
donor molecule, donor type, donor heavy atom, donor atom, acceptor molecule, acceptor atom, score
      L1  H     3    21       P1  7948  0.28
      L1  H    10    33       P1 10186  0.98
      P1  H  6896  6907       L1    15  0.93

> <Gold.Chemscore.Hbond.Weighted>
-7.9541

> <Gold.Chemscore.Metal.Weighted>
-0.0000

> <Gold.Chemscore.Lipo.Weighted>
-5.5527

> <Gold.Chemscore.Internal_Hbond.Weighted>
0.0000

> <Gold.Chemscore.DEClash.Weighted>
1.0133

> <Gold.Chemscore.DEInternal.Weighted>
1.3053

> <Gold.Chemscore.Rot.Weighted>
4.5536

> <Gold.Chemscore.Internal.Correction.Weighted>
   9.000000E+99

> <Gold.Protein.RotatedTorsions>
[ 6907 6896 6895 6894 ] final  -90.56 input  -60.11 | X-H torsion
[ 7974 7965 7964 7962 ] final  114.78 input  175.53 | X-H torsion
[ 8008 7997 7996 7995 ] final   40.98 input   59.86 | X-H torsion
[ 10167 10162 10161 10158 ] final   48.44 input  -65.29 | X-H torsion
[ 10718 10713 10712 10709 ] final    7.09 input   66.30 | X-H torsion
[ 10763 10752 10751 10750 ] final  -32.21 input  -60.55 | X-H torsion
[ 11005 11000 10999 10996 ] final -129.11 input  -57.11 | X-H torsion

> <Gold.Protein.ActiveResidues>
 VAL166  LYS551  ARG553  GLY616  TRP617  ASP618  TYR619  PRO620  LYS621  CYS622 
 ASP623  PHE694  ASN695  SER759  ASP760  ASP761  ALA762  ILE779  LEU786  VAL792 
 PHE793  MET794  SER795  GLU796  ALA797  LYS798  CYS799  TRP800  GLU811  SER814 

> <Gold.Protein.RotatedAtoms>
  150.6883  134.2413  159.4473 H   0  0  0  0  0  0  0  0  0  0  0  0  # atno 6907 bound_to 6896
  152.0357  134.9739  160.0582 H   0  0  0  0  0  0  0  0  0  0  0  0  # atno 6908 bound_to 6896
  152.1260  133.4346  159.4735 H   0  0  0  0  0  0  0  0  0  0  0  0  # atno 6909 bound_to 6896
  145.2001  139.2956  143.4323 H   0  0  0  0  0  0  0  0  0  0  0  0  # atno 7974 bound_to 7965
  155.2621  140.3360  155.4272 H   0  0  0  0  0  0  0  0  0  0  0  0  # atno 8008 bound_to 7997
  156.2170  140.1793  156.7608 H   0  0  0  0  0  0  0  0  0  0  0  0  # atno 8009 bound_to 7997
  154.5768  140.0660  156.9031 H   0  0  0  0  0  0  0  0  0  0  0  0  # atno 8010 bound_to 7997
  140.2932  144.3021  150.6235 H   0  0  0  0  0  0  0  0  0  0  0  0  # atno 10167 bound_to 10162
  156.9318  130.5829  149.5650 H   0  0  0  0  0  0  0  0  0  0  0  0  # atno 10718 bound_to 10713
  153.8101  135.6883  153.4842 H   0  0  0  0  0  0  0  0  0  0  0  0  # atno 10763 bound_to 10752
  153.1634  135.4571  154.9802 H   0  0  0  0  0  0  0  0  0  0  0  0  # atno 10764 bound_to 10752
  154.7971  135.3323  154.7582 H   0  0  0  0  0  0  0  0  0  0  0  0  # atno 10765 bound_to 10752
  140.9459  134.1130  157.4107 H   0  0  0  0  0  0  0  0  0  0  0  0  # atno 11005 bound_to 11000
  146.3419  140.2243  142.8592 LP  0  0  0  0  0  0  0  0  0  0  0  0  # atno 17320 bound_to 7965
  144.9956  140.8586  143.5313 LP  0  0  0  0  0  0  0  0  0  0  0  0  # atno 17321 bound_to 7965
  140.5714  143.2180  151.7592 LP  0  0  0  0  0  0  0  0  0  0  0  0  # atno 17342 bound_to 10162
  139.4933  144.4211  151.9977 LP  0  0  0  0  0  0  0  0  0  0  0  0  # atno 17343 bound_to 10162
  156.0444  130.5522  150.8845 LP  0  0  0  0  0  0  0  0  0  0  0  0  # atno 17370 bound_to 10713
  157.5842  131.0946  150.9223 LP  0  0  0  0  0  0  0  0  0  0  0  0  # atno 17371 bound_to 10713
  139.8833  135.0051  156.6293 LP  0  0  0  0  0  0  0  0  0  0  0  0  # atno 17394 bound_to 11000
  140.7669  133.8770  155.8461 LP  0  0  0  0  0  0  0  0  0  0  0  0  # atno 17395 bound_to 11000

$$$$
