AV-unprocessed.smi:2061|AV-procd|sdf|8387|dock8
  -GOLD-   2272011 73D 1   1.00000     0.00000
 Structure written by MMmdl.
 45 46  0  0  0  0  0  0  0  0  3 V2000
  154.3067  138.1428  154.7095 C   0  0  0  0  0  0  0  0  0  0  0  0
  152.8816  138.5789  154.6751 C   0  0  0  0  0  0  0  0  0  0  0  0
  151.7315  137.9595  154.2749 C   0  0  0  0  0  0  0  0  0  0  0  0
  150.7340  138.9461  154.5054 C   0  0  0  0  0  0  0  0  0  0  0  0
  149.4180  138.8075  154.2817 N   0  5  0  0  0  0  0  0  0  0  0  0
  148.6966  137.9067  154.9868 C   0  0  0  0  0  0  0  0  0  0  0  0
  148.3960  137.9791  156.1805 O   0  0  0  0  0  0  0  0  0  0  0  0
  148.2984  136.8540  154.2613 N   0  0  0  0  0  0  0  0  0  0  0  0
  147.5207  135.7265  154.7630 C   0  0  0  0  0  0  0  0  0  0  0  0
  146.4899  135.2164  153.7222 C   0  0  1  0  0  0  0  0  0  0  0  0
  145.6334  136.3961  153.2003 C   0  0  0  0  0  0  0  0  0  0  0  0
  147.1407  134.4797  152.5836 N   0  3  1  0  0  0  0  0  0  0  0  0
  147.9465  133.2826  152.9481 C   0  0  0  0  0  0  0  0  0  0  0  0
  147.0367  132.1008  153.3436 C   0  0  2  0  0  0  0  0  0  0  0  0
  147.8413  130.8407  153.6790 C   0  0  0  0  0  0  0  0  0  0  0  0
  146.1809  131.7979  152.2453 O   0  0  0  0  0  0  0  0  0  0  0  0
  145.3434  132.8866  151.8669 C   0  0  2  0  0  0  0  0  0  0  0  0
  144.4584  132.4217  150.7052 C   0  0  0  0  0  0  0  0  0  0  0  0
  146.2250  134.0931  151.4749 C   0  0  0  0  0  0  0  0  0  0  0  0
  151.2326  140.0594  155.0158 N   0  0  0  0  0  0  0  0  0  0  0  0
  152.6103  139.8349  155.1213 O   0  0  0  0  0  0  0  0  0  0  0  0
  154.4115  137.2107  155.2649 H   0  0  0  0  0  0  0  0  0  0  0  0
  154.9368  138.8928  155.1881 H   0  0  0  0  0  0  0  0  0  0  0  0
  154.6835  137.9794  153.6997 H   0  0  0  0  0  0  0  0  0  0  0  0
  151.6210  136.9616  153.8779 H   0  0  0  0  0  0  0  0  0  0  0  0
  148.5657  136.8343  153.2879 H   0  0  0  0  0  0  0  0  0  0  0  0
  148.1874  134.9136  155.0558 H   0  0  0  0  0  0  0  0  0  0  0  0
  147.0303  136.0914  155.6644 H   0  0  0  0  0  0  0  0  0  0  0  0
  145.8229  134.5319  154.2456 H   0  0  0  0  0  0  0  0  0  0  0  0
  145.2119  136.9904  154.0104 H   0  0  0  0  0  0  0  0  0  0  0  0
  144.7754  136.0645  152.6184 H   0  0  0  0  0  0  0  0  0  0  0  0
  146.2255  137.0688  152.5792 H   0  0  0  0  0  0  0  0  0  0  0  0
  148.5332  132.9966  152.0738 H   0  0  0  0  0  0  0  0  0  0  0  0
  148.6902  133.4937  153.7134 H   0  0  0  0  0  0  0  0  0  0  0  0
  146.4317  132.3616  154.2131 H   0  0  0  0  0  0  0  0  0  0  0  0
  148.5098  131.0155  154.5224 H   0  0  0  0  0  0  0  0  0  0  0  0
  148.4476  130.5205  152.8311 H   0  0  0  0  0  0  0  0  0  0  0  0
  147.1799  130.0160  153.9456 H   0  0  0  0  0  0  0  0  0  0  0  0
  144.6937  133.1457  152.7037 H   0  0  0  0  0  0  0  0  0  0  0  0
  143.7833  133.2154  150.3845 H   0  0  0  0  0  0  0  0  0  0  0  0
  143.8488  131.5664  150.9976 H   0  0  0  0  0  0  0  0  0  0  0  0
  145.0584  132.1242  149.8445 H   0  0  0  0  0  0  0  0  0  0  0  0
  145.6169  134.9249  151.1273 H   0  0  0  0  0  0  0  0  0  0  0  0
  146.8388  133.8187  150.6156 H   0  0  0  0  0  0  0  0  0  0  0  0
  147.7960  135.1410  152.1914 H   0  0  0  0  0  0  0  0  0  0  0  0
  1  2  1  0  0  0  0
  1 22  1  0  0  0  0
  1 23  1  0  0  0  0
  1 24  1  0  0  0  0
  2 21  1  0  0  0  0
  2  3  2  0  0  0  0
  3  4  1  0  0  0  0
  3 25  1  0  0  0  0
  4  5  1  0  0  0  0
  4 20  2  0  0  0  0
  5  6  1  0  0  0  0
  6  7  2  0  0  0  0
  6  8  1  0  0  0  0
  8  9  1  0  0  0  0
  8 26  1  0  0  0  0
  9 10  1  0  0  0  0
  9 27  1  0  0  0  0
  9 28  1  0  0  0  0
 10 11  1  0  0  0  0
 10 12  1  0  0  0  0
 10 29  1  0  0  0  0
 11 30  1  0  0  0  0
 11 31  1  0  0  0  0
 11 32  1  0  0  0  0
 12 19  1  0  0  0  0
 12 13  1  0  0  0  0
 12 45  1  0  0  0  0
 13 14  1  0  0  0  0
 13 33  1  0  0  0  0
 13 34  1  0  0  0  0
 14 15  1  0  0  0  0
 14 16  1  0  0  0  0
 14 35  1  0  0  0  0
 15 36  1  0  0  0  0
 15 37  1  0  0  0  0
 15 38  1  0  0  0  0
 16 17  1  0  0  0  0
 17 18  1  0  0  0  0
 17 19  1  0  0  0  0
 17 39  1  0  0  0  0
 18 40  1  0  0  0  0
 18 41  1  0  0  0  0
 18 42  1  0  0  0  0
 19 43  1  0  0  0  0
 19 44  1  0  0  0  0
 20 21  1  0  0  0  0
M  CHG  1   5  -1
M  CHG  1  12   1
M  END
> <s_m_source_file>
AV-unprocessed.smi

> <i_m_source_file_index>
2061

> <i_lp_mmshare_version>
43012

> <i_f3d_flags>
0

> <s_epik_input>
W0NIM11jMVtjSF1jKG5vMSlbTkhdQyg9TylbTkhdW0NIMl1bQ0BIXShbQ0gzXSlOMltDSDJdW0NAQEhdKFtDSDNdKU9bQ0BASF0oW0NIM10pW0NIMl0y

> <s_epik_cmdline>
J2VwaWtfcHl0aG9uJywgJy1waCcsICc3LjAnLCAnLXRuJywgJzgnLCAnLW1hJywgJzIwMCcsICctbWV0YWxfYmluZGluZycsICctaW1hZScsICc8aW5maWxlLm1hZT4nLCAnLW9tYWUnLCAnPG91dGZpbGUubWFlPic=

> <r_epik_Ionization_Penalty>
6.73511

> <r_epik_Ionization_Penalty_Charging>
6.73502

> <r_epik_Ionization_Penalty_Neutral>
9.50841e-05

> <r_epik_State_Penalty>
6.93549

> <r_epik_Charging_Adjusted_Penalty>
13.6705

> <i_epik_Tot_Q>
0

> <i_epik_Tot_abs_Q>
2

> <r_epik_Metal_State_Penalty>
2.87211

> <b_epik_Metal_Only>
1

> <s_lp_Force_Field>
OPLS_2005

> <r_lp_Energy>
11.5912

> <b_lp_Chiralities_Consistent>
1

> <s_lp_Variant>
AV-unprocessed.smi:2061-28

> <Gold.Version>
5.8.1

> <Gold.Id.Protein>
6NUR|6NUR_protein|mol2

> <Gold.PLP.Fitness>
39.8977

> <Gold.PLP.PLP>
-29.9162

> <Gold.PLP.part.hbond>
-4.9072

> <Gold.PLP.part.metal>
0.0000

> <Gold.PLP.part.buried>
-0.6661

> <Gold.PLP.part.nonpolar>
-24.4740

> <Gold.PLP.part.repulsive>
0.4351

> <Gold.PLP.ligand.clash>
0.0000

> <Gold.PLP.ligand.torsion>
1.5446

> <Gold.PLP.Chemscore.Hbond>
4.3325

> <Gold.PLP.Chemscore.CHOScore>
0.0000

> <Gold.PLP.Chemscore.Metal>
0.0000

> <Gold.Chemscore.Hbonds>
donor molecule, donor type, donor heavy atom, donor atom, acceptor molecule, acceptor atom, score
      L1  H     8    26       P1  7948  1.00
      L1  H    12    45       P1  7948  2.00
      P1  H  7989  7998       L1    20  0.23
      P1  H  7997  8010       L1    21  0.80

> <Gold.PLP.Chemscore.Internal.Correction>
0.0731

> <Gold.Rescore>
     Score         DG    S(hbond)    S(metal)    S(lipo)     H(rot)  DE(clash)    DE(int)     intcor
     15.78     -18.99       2.86        0.00      67.77       1.56       1.65       1.56       ----

> <Gold.Chemscore.Fitness>
15.7813

> <Gold.Chemscore.DG>
-18.9875

> <Gold.Chemscore.ZeroCoef>
-5.4800

> <Gold.Chemscore.Hbond>
2.8621

> <Gold.Chemscore.Metal>
0.0000

> <Gold.Chemscore.Lipo>
67.7687

> <Gold.Chemscore.Internal_Hbond>
0.0000

> <Gold.Chemscore.DEClash>
1.6479

> <Gold.Chemscore.DEInternal>
1.5584

> <Gold.Chemscore.Rot>
1.5550

> <Gold.Chemscore.Internal.Correction>
   9.000000E+99

> <Gold.Chemscore.Hbonds>
donor molecule, donor type, donor heavy atom, donor atom, acceptor molecule, acceptor atom, score
      L1  H     8    26       P1  7948  0.98
      L1  H    12    45       P1  7948  0.91
      P1  H  7997  8010       L1    21  0.11

> <Gold.Chemscore.Hbond.Weighted>
-9.5595

> <Gold.Chemscore.Metal.Weighted>
-0.0000

> <Gold.Chemscore.Lipo.Weighted>
-7.9289

> <Gold.Chemscore.Internal_Hbond.Weighted>
0.0000

> <Gold.Chemscore.DEClash.Weighted>
1.6479

> <Gold.Chemscore.DEInternal.Weighted>
1.5584

> <Gold.Chemscore.Rot.Weighted>
3.9809

> <Gold.Chemscore.Internal.Correction.Weighted>
   9.000000E+99

> <Gold.Protein.RotatedTorsions>
[ 6907 6896 6895 6894 ] final -155.30 input  -60.11 | X-H torsion
[ 7974 7965 7964 7962 ] final  -33.46 input  175.53 | X-H torsion
[ 8008 7997 7996 7995 ] final  105.92 input   59.86 | X-H torsion
[ 10167 10162 10161 10158 ] final  140.82 input  -65.29 | X-H torsion
[ 10718 10713 10712 10709 ] final   40.05 input   66.30 | X-H torsion
[ 10763 10752 10751 10750 ] final   80.50 input  -60.55 | X-H torsion
[ 11005 11000 10999 10996 ] final   67.54 input  -57.11 | X-H torsion

> <Gold.Protein.ActiveResidues>
 VAL166  LYS551  ARG553  GLY616  TRP617  ASP618  TYR619  PRO620  LYS621  CYS622 
 ASP623  PHE694  ASN695  SER759  ASP760  ASP761  ALA762  ILE779  LEU786  VAL792 
 PHE793  MET794  SER795  GLU796  ALA797  LYS798  CYS799  TRP800  GLU811  SER814 

> <Gold.Protein.RotatedAtoms>
  151.2704  133.4258  159.2620 H   0  0  0  0  0  0  0  0  0  0  0  0  # atno 6907 bound_to 6896
  151.0450  134.9634  159.8192 H   0  0  0  0  0  0  0  0  0  0  0  0  # atno 6908 bound_to 6896
  152.5372  134.2661  159.9006 H   0  0  0  0  0  0  0  0  0  0  0  0  # atno 6909 bound_to 6896
  146.0909  140.5918  142.8865 H   0  0  0  0  0  0  0  0  0  0  0  0  # atno 7974 bound_to 7965
  156.1699  140.3122  155.8956 H   0  0  0  0  0  0  0  0  0  0  0  0  # atno 8008 bound_to 7997
  155.3608  140.0476  157.3063 H   0  0  0  0  0  0  0  0  0  0  0  0  # atno 8009 bound_to 7997
  154.5231  140.2205  155.8951 H   0  0  0  0  0  0  0  0  0  0  0  0  # atno 8010 bound_to 7997
  139.5038  144.6210  151.6050 H   0  0  0  0  0  0  0  0  0  0  0  0  # atno 10167 bound_to 10162
  157.3777  130.7736  149.7168 H   0  0  0  0  0  0  0  0  0  0  0  0  # atno 10718 bound_to 10713
  153.1038  135.4800  154.8915 H   0  0  0  0  0  0  0  0  0  0  0  0  # atno 10763 bound_to 10752
  154.7408  135.3082  154.8733 H   0  0  0  0  0  0  0  0  0  0  0  0  # atno 10764 bound_to 10752
  153.9342  135.6841  153.4798 H   0  0  0  0  0  0  0  0  0  0  0  0  # atno 10765 bound_to 10752
  139.9764  134.6815  156.0345 H   0  0  0  0  0  0  0  0  0  0  0  0  # atno 11005 bound_to 11000
  144.7359  140.4808  143.6904 LP  0  0  0  0  0  0  0  0  0  0  0  0  # atno 17320 bound_to 7965
  145.6041  139.1506  143.3113 LP  0  0  0  0  0  0  0  0  0  0  0  0  # atno 17321 bound_to 7965
  140.5913  143.9775  150.6326 LP  0  0  0  0  0  0  0  0  0  0  0  0  # atno 17342 bound_to 10162
  140.2956  143.3294  152.1020 LP  0  0  0  0  0  0  0  0  0  0  0  0  # atno 17343 bound_to 10162
  155.9769  130.4070  150.3749 LP  0  0  0  0  0  0  0  0  0  0  0  0  # atno 17370 bound_to 10713
  157.1849  131.0401  151.2730 LP  0  0  0  0  0  0  0  0  0  0  0  0  # atno 17371 bound_to 10713
  141.1441  133.6559  156.3815 LP  0  0  0  0  0  0  0  0  0  0  0  0  # atno 17394 bound_to 11000
  140.5185  134.6327  157.5310 LP  0  0  0  0  0  0  0  0  0  0  0  0  # atno 17395 bound_to 11000

$$$$
