AV-unprocessed.smi:25|AV-procd|sdf|181|dock5
  -GOLD-   2262015443D 1   1.00000     0.00000
 Structure written by MMmdl.
 47 50  0  0  0  0  0  0  0  0  1 V2000
  150.3426  141.0953  155.7652 C   0  0  0  0  0  0  0  0  0  0  0  0
  149.9111  141.3299  157.2265 C   0  0  2  0  0  0  0  0  0  0  0  0
  149.8830  142.8359  157.5720 C   0  0  0  0  0  0  0  0  0  0  0  0
  150.9662  142.9706  158.5972 C   0  0  0  0  0  0  0  0  0  0  0  0
  151.4203  144.1730  159.1661 C   0  0  0  0  0  0  0  0  0  0  0  0
  152.4767  144.1152  160.0966 C   0  0  0  0  0  0  0  0  0  0  0  0
  153.0607  142.8734  160.4296 C   0  0  0  0  0  0  0  0  0  0  0  0
  152.5920  141.6754  159.8470 C   0  0  0  0  0  0  0  0  0  0  0  0
  151.5167  141.7332  158.9277 C   0  0  0  0  0  0  0  0  0  0  0  0
  150.8505  140.7090  158.1889 N   0  0  0  0  0  0  0  0  0  0  0  0
  150.8626  139.3591  158.3686 C   0  0  0  0  0  0  0  0  0  0  0  0
  151.6090  138.8373  159.2007 O   0  0  0  0  0  0  0  0  0  0  0  0
  149.9698  138.4306  157.5223 C   0  0  0  0  0  0  0  0  0  0  0  0
  148.8140  137.8749  158.2651 N   0  0  0  0  0  0  0  0  0  0  0  0
  147.5055  138.1699  157.8076 C   0  0  0  0  0  0  0  0  0  0  0  0
  147.3172  138.8879  156.8244 O   0  0  0  0  0  0  0  0  0  0  0  0
  146.4217  137.5672  158.5733 C   0  0  0  0  0  0  0  0  0  0  0  0
  145.1497  137.7397  158.1757 F   0  0  0  0  0  0  0  0  0  0  0  0
  146.6753  136.8215  159.6679 C   0  0  0  0  0  0  0  0  0  0  0  0
  147.9535  136.6008  160.1500 N   0  0  0  0  0  0  0  0  0  0  0  0
  148.2125  135.6878  161.3315 C   0  0  1  0  0  0  0  0  0  0  0  0
  147.5549  136.1512  162.6434 C   0  0  0  0  0  0  0  0  0  0  0  0
  146.3848  135.1958  162.7743 C   0  0  0  0  0  0  0  0  0  0  0  0
  146.9384  133.9413  162.1107 C   0  0  0  0  0  0  0  0  0  0  0  0
  147.6944  134.4312  161.0108 O   0  0  0  0  0  0  0  0  0  0  0  0
  149.0598  137.0870  159.4162 C   0  0  0  0  0  0  0  0  0  0  0  0
  150.2134  136.8399  159.7745 O   0  0  0  0  0  0  0  0  0  0  0  0
  149.6706  141.6065  155.0755 H   0  0  0  0  0  0  0  0  0  0  0  0
  150.3315  140.0385  155.5000 H   0  0  0  0  0  0  0  0  0  0  0  0
  151.3505  141.4715  155.5863 H   0  0  0  0  0  0  0  0  0  0  0  0
  148.9080  140.9237  157.3706 H   0  0  0  0  0  0  0  0  0  0  0  0
  150.0831  143.4750  156.7111 H   0  0  0  0  0  0  0  0  0  0  0  0
  148.9268  143.1290  158.0066 H   0  0  0  0  0  0  0  0  0  0  0  0
  150.9758  145.1186  158.8924 H   0  0  0  0  0  0  0  0  0  0  0  0
  152.8478  145.0234  160.5480 H   0  0  0  0  0  0  0  0  0  0  0  0
  153.8790  142.8402  161.1335 H   0  0  0  0  0  0  0  0  0  0  0  0
  153.0916  140.7645  160.1227 H   0  0  0  0  0  0  0  0  0  0  0  0
  149.6178  138.9900  156.6556 H   0  0  0  0  0  0  0  0  0  0  0  0
  150.5777  137.6174  157.1248 H   0  0  0  0  0  0  0  0  0  0  0  0
  145.8284  136.3838  160.1712 H   0  0  0  0  0  0  0  0  0  0  0  0
  149.2961  135.6441  161.4502 H   0  0  0  0  0  0  0  0  0  0  0  0
  148.2627  135.9786  163.4551 H   0  0  0  0  0  0  0  0  0  0  0  0
  147.2913  137.2086  162.6497 H   0  0  0  0  0  0  0  0  0  0  0  0
  146.0816  135.0309  163.8084 H   0  0  0  0  0  0  0  0  0  0  0  0
  145.5205  135.5629  162.2207 H   0  0  0  0  0  0  0  0  0  0  0  0
  147.6037  133.4084  162.7919 H   0  0  0  0  0  0  0  0  0  0  0  0
  146.1566  133.2540  161.7868 H   0  0  0  0  0  0  0  0  0  0  0  0
  1  2  1  0  0  0  0
  1 28  1  0  0  0  0
  1 29  1  0  0  0  0
  1 30  1  0  0  0  0
  2 10  1  0  0  0  0
  2  3  1  0  0  0  0
  2 31  1  0  0  0  0
  3  4  1  0  0  0  0
  3 32  1  0  0  0  0
  3 33  1  0  0  0  0
  4  9  2  0  0  0  0
  4  5  1  0  0  0  0
  5  6  2  0  0  0  0
  5 34  1  0  0  0  0
  6  7  1  0  0  0  0
  6 35  1  0  0  0  0
  7  8  2  0  0  0  0
  7 36  1  0  0  0  0
  8  9  1  0  0  0  0
  8 37  1  0  0  0  0
  9 10  1  0  0  0  0
 10 11  1  0  0  0  0
 11 12  2  0  0  0  0
 11 13  1  0  0  0  0
 13 14  1  0  0  0  0
 13 38  1  0  0  0  0
 13 39  1  0  0  0  0
 14 26  1  0  0  0  0
 14 15  1  0  0  0  0
 15 16  2  0  0  0  0
 15 17  1  0  0  0  0
 17 18  1  0  0  0  0
 17 19  2  0  0  0  0
 19 20  1  0  0  0  0
 19 40  1  0  0  0  0
 20 21  1  0  0  0  0
 20 26  1  0  0  0  0
 21 25  1  0  0  0  0
 21 22  1  0  0  0  0
 21 41  1  0  0  0  0
 22 23  1  0  0  0  0
 22 42  1  0  0  0  0
 22 43  1  0  0  0  0
 23 24  1  0  0  0  0
 23 44  1  0  0  0  0
 23 45  1  0  0  0  0
 24 25  1  0  0  0  0
 24 46  1  0  0  0  0
 24 47  1  0  0  0  0
 26 27  2  0  0  0  0
M  END
> <s_m_source_file>
AV-unprocessed.smi

> <i_m_source_file_index>
25

> <i_lp_mmshare_version>
43012

> <i_f3d_flags>
0

> <s_epik_input>
W2NIXTFbY0hdW2NIXVtjSF1jKGMxMilOKFtDQEhdKFtDSDNdKVtDSDJdMilDKD1PKVtDSDJdbjNjKD1PKWMoRilbY0hdbihjMz1PKVtDQEBIXTRbQ0gyXVtDSDJdW0NIMl1PNA==

> <s_epik_cmdline>
J2VwaWtfcHl0aG9uJywgJy1waCcsICc3LjAnLCAnLXRuJywgJzgnLCAnLW1hJywgJzIwMCcsICctbWV0YWxfYmluZGluZycsICctaW1hZScsICc8aW5maWxlLm1hZT4nLCAnLW9tYWUnLCAnPG91dGZpbGUubWFlPic=

> <r_lp_tautomer_probability>
1

> <r_epik_Ionization_Penalty>
1.67943e-06

> <r_epik_Ionization_Penalty_Charging>
3.79603e-09

> <r_epik_Ionization_Penalty_Neutral>
1.67563e-06

> <r_epik_State_Penalty>
-0

> <r_epik_Charging_Adjusted_Penalty>
3.79603e-09

> <i_epik_Tot_Q>
0

> <i_epik_Tot_abs_Q>
0

> <r_epik_Metal_State_Penalty>
-0

> <b_epik_Metal_Only>
0

> <s_epik_Chemistry_Notes>
This compound contains an acetal/aminal-like group ( X-CH(R)-Y where X, Y are N, S, or O) that may be acid/base labile, releasing an aldehyde.

> <s_lp_Force_Field>
OPLS_2005

> <r_lp_Energy>
54.5982

> <b_lp_Chiralities_Consistent>
1

> <s_lp_Variant>
AV-unprocessed.smi:25-3

> <Gold.Version>
5.8.1

> <Gold.Id.Protein>
6NUR|6NUR_protein|mol2

> <Gold.PLP.Fitness>
48.9598

> <Gold.PLP.PLP>
-46.3101

> <Gold.PLP.part.hbond>
-1.1052

> <Gold.PLP.part.metal>
0.0000

> <Gold.PLP.part.buried>
-5.5288

> <Gold.PLP.part.nonpolar>
-40.7392

> <Gold.PLP.part.repulsive>
0.0000

> <Gold.PLP.ligand.clash>
0.0000

> <Gold.PLP.ligand.torsion>
0.2284

> <Gold.PLP.Chemscore.Hbond>
1.0000

> <Gold.PLP.Chemscore.CHOScore>
0.0000

> <Gold.PLP.Chemscore.Metal>
0.0000

> <Gold.Chemscore.Hbonds>
donor molecule, donor type, donor heavy atom, donor atom, acceptor molecule, acceptor atom, score
      P1  H  6896  6908       L1    27  1.00

> <Gold.PLP.Chemscore.Internal.Correction>
0.1065

> <Gold.Rescore>
     Score         DG    S(hbond)    S(metal)    S(lipo)     H(rot)  DE(clash)    DE(int)     intcor
     14.24     -18.25       0.98        0.00     114.98       1.55       0.22       3.79       ----

> <Gold.Chemscore.Fitness>
14.2424

> <Gold.Chemscore.DG>
-18.2481

> <Gold.Chemscore.ZeroCoef>
-5.4800

> <Gold.Chemscore.Hbond>
0.9821

> <Gold.Chemscore.Metal>
0.0000

> <Gold.Chemscore.Lipo>
114.9822

> <Gold.Chemscore.Internal_Hbond>
0.0000

> <Gold.Chemscore.DEClash>
0.2173

> <Gold.Chemscore.DEInternal>
3.7885

> <Gold.Chemscore.Rot>
1.5489

> <Gold.Chemscore.Internal.Correction>
   9.000000E+99

> <Gold.Chemscore.Hbonds>
donor molecule, donor type, donor heavy atom, donor atom, acceptor molecule, acceptor atom, score
      P1  H  6896  6908       L1    27  0.90

> <Gold.Chemscore.Hbond.Weighted>
-3.2803

> <Gold.Chemscore.Metal.Weighted>
-0.0000

> <Gold.Chemscore.Lipo.Weighted>
-13.4529

> <Gold.Chemscore.Internal_Hbond.Weighted>
0.0000

> <Gold.Chemscore.DEClash.Weighted>
0.2173

> <Gold.Chemscore.DEInternal.Weighted>
3.7885

> <Gold.Chemscore.Rot.Weighted>
3.9651

> <Gold.Chemscore.Internal.Correction.Weighted>
   9.000000E+99

> <Gold.Protein.RotatedTorsions>
[ 6907 6896 6895 6894 ] final -165.40 input  -60.11 | X-H torsion
[ 7974 7965 7964 7962 ] final  111.39 input  175.53 | X-H torsion
[ 8008 7997 7996 7995 ] final -136.00 input   59.86 | X-H torsion
[ 10167 10162 10161 10158 ] final   95.20 input  -65.29 | X-H torsion
[ 10718 10713 10712 10709 ] final    8.10 input   66.30 | X-H torsion
[ 10763 10752 10751 10750 ] final  149.80 input  -60.55 | X-H torsion
[ 11005 11000 10999 10996 ] final  111.86 input  -57.11 | X-H torsion

> <Gold.Protein.ActiveResidues>
 VAL166  LYS551  ARG553  GLY616  TRP617  ASP618  TYR619  PRO620  LYS621  CYS622 
 ASP623  PHE694  ASN695  SER759  ASP760  ASP761  ALA762  ILE779  LEU786  VAL792 
 PHE793  MET794  SER795  GLU796  ALA797  LYS798  CYS799  TRP800  GLU811  SER814 

> <Gold.Protein.RotatedAtoms>
  151.4271  133.3681  159.2763 H   0  0  0  0  0  0  0  0  0  0  0  0  # atno 6907 bound_to 6896
  150.9251  134.8670  159.7525 H   0  0  0  0  0  0  0  0  0  0  0  0  # atno 6908 bound_to 6896
  152.5001  134.4212  159.9533 H   0  0  0  0  0  0  0  0  0  0  0  0  # atno 6909 bound_to 6896
  145.2428  139.2771  143.4108 H   0  0  0  0  0  0  0  0  0  0  0  0  # atno 7974 bound_to 7965
  155.3881  140.0498  157.3041 H   0  0  0  0  0  0  0  0  0  0  0  0  # atno 8008 bound_to 7997
  154.5050  140.2171  155.9232 H   0  0  0  0  0  0  0  0  0  0  0  0  # atno 8009 bound_to 7997
  156.1514  140.3135  155.8659 H   0  0  0  0  0  0  0  0  0  0  0  0  # atno 8010 bound_to 7997
  139.8011  144.6813  150.9764 H   0  0  0  0  0  0  0  0  0  0  0  0  # atno 10167 bound_to 10162
  156.9466  130.5881  149.5655 H   0  0  0  0  0  0  0  0  0  0  0  0  # atno 10718 bound_to 10713
  154.0771  135.2862  155.3297 H   0  0  0  0  0  0  0  0  0  0  0  0  # atno 10763 bound_to 10752
  154.6708  135.5300  153.8139 H   0  0  0  0  0  0  0  0  0  0  0  0  # atno 10764 bound_to 10752
  153.0463  135.6557  154.0949 H   0  0  0  0  0  0  0  0  0  0  0  0  # atno 10765 bound_to 10752
  139.8913  134.9517  156.6498 H   0  0  0  0  0  0  0  0  0  0  0  0  # atno 11005 bound_to 11000
  146.3324  140.2797  142.8609 LP  0  0  0  0  0  0  0  0  0  0  0  0  # atno 17320 bound_to 7965
  144.9573  140.8240  143.5535 LP  0  0  0  0  0  0  0  0  0  0  0  0  # atno 17321 bound_to 7965
  140.7820  143.4281  151.0737 LP  0  0  0  0  0  0  0  0  0  0  0  0  # atno 17342 bound_to 10162
  139.7953  143.8161  152.3157 LP  0  0  0  0  0  0  0  0  0  0  0  0  # atno 17343 bound_to 10162
  156.0381  130.5466  150.8703 LP  0  0  0  0  0  0  0  0  0  0  0  0  # atno 17370 bound_to 10713
  157.5749  131.0946  150.9360 LP  0  0  0  0  0  0  0  0  0  0  0  0  # atno 17371 bound_to 10713
  140.7529  133.8882  155.8360 LP  0  0  0  0  0  0  0  0  0  0  0  0  # atno 17394 bound_to 11000
  140.9985  134.1182  157.4340 LP  0  0  0  0  0  0  0  0  0  0  0  0  # atno 17395 bound_to 11000

$$$$
