AV-unprocessed.smi:1545|AV-procd|sdf|6214|dock1
  -GOLD-   22720 6383D 1   1.00000     0.00000
 Structure written by MMmdl.
 42 44  0  0  0  0  0  0  0  0  2 V2000
  146.0898  140.2913  153.7532 O   0  0  0  0  0  0  0  0  0  0  0  0
  147.1655  139.5396  153.2342 C   0  0  0  0  0  0  0  0  0  0  0  0
  146.7150  138.7782  151.9810 C   0  0  0  0  0  0  0  0  0  0  0  0
  145.4470  138.0989  152.1933 N   0  0  0  0  0  0  0  0  0  0  0  0
  145.3646  136.7227  151.9576 C   0  0  0  0  0  0  0  0  0  0  0  0
  146.4119  135.8867  151.7257 N   0  3  0  0  0  0  0  0  0  0  0  0
  145.9097  134.5968  151.5303 C   0  0  0  0  0  0  0  0  0  0  0  0
  146.5640  133.3984  151.2619 C   0  0  0  0  0  0  0  0  0  0  0  0
  145.7539  132.2535  151.1126 C   0  0  0  0  0  0  0  0  0  0  0  0
  144.3505  132.3250  151.2291 C   0  0  0  0  0  0  0  0  0  0  0  0
  143.6947  133.5437  151.5025 C   0  0  0  0  0  0  0  0  0  0  0  0
  144.5009  134.6716  151.6520 C   0  0  0  0  0  0  0  0  0  0  0  0
  144.2069  136.0131  151.9245 N   0  0  0  0  0  0  0  0  0  0  0  0
  142.8098  136.4316  152.1128 C   0  0  0  0  0  0  0  0  0  0  0  0
  142.6153  137.3312  153.3492 C   0  0  2  0  0  0  0  0  0  0  0  0
  143.2296  136.7360  154.4761 O   0  0  0  0  0  0  0  0  0  0  0  0
  141.1435  137.6271  153.5874 C   0  0  0  0  0  0  0  0  0  0  0  0
  140.2266  136.5764  153.8138 C   0  0  0  0  0  0  0  0  0  0  0  0
  138.8625  136.8577  154.0229 C   0  0  0  0  0  0  0  0  0  0  0  0
  138.4070  138.1900  154.0060 C   0  0  0  0  0  0  0  0  0  0  0  0
  139.3162  139.2409  153.7781 C   0  0  0  0  0  0  0  0  0  0  0  0
  138.8793  140.5224  153.7597 F   0  0  0  0  0  0  0  0  0  0  0  0
  140.6804  138.9603  153.5681 C   0  0  0  0  0  0  0  0  0  0  0  0
  145.4499  140.4107  153.0682 H   0  0  0  0  0  0  0  0  0  0  0  0
  148.0227  140.1833  153.0322 H   0  0  0  0  0  0  0  0  0  0  0  0
  147.4716  138.8306  154.0035 H   0  0  0  0  0  0  0  0  0  0  0  0
  146.5754  139.4906  151.1668 H   0  0  0  0  0  0  0  0  0  0  0  0
  147.4815  138.0722  151.6585 H   0  0  0  0  0  0  0  0  0  0  0  0
  144.6026  138.6455  152.2868 H   0  0  0  0  0  0  0  0  0  0  0  0
  147.6387  133.3393  151.1704 H   0  0  0  0  0  0  0  0  0  0  0  0
  146.2189  131.3008  150.9038 H   0  0  0  0  0  0  0  0  0  0  0  0
  143.7639  131.4259  151.1065 H   0  0  0  0  0  0  0  0  0  0  0  0
  142.6189  133.5869  151.5891 H   0  0  0  0  0  0  0  0  0  0  0  0
  142.4764  136.9386  151.2067 H   0  0  0  0  0  0  0  0  0  0  0  0
  142.2027  135.5293  152.1975 H   0  0  0  0  0  0  0  0  0  0  0  0
  143.1306  138.2775  153.1798 H   0  0  0  0  0  0  0  0  0  0  0  0
  143.9298  136.1771  154.1752 H   0  0  0  0  0  0  0  0  0  0  0  0
  140.5661  135.5507  153.8250 H   0  0  0  0  0  0  0  0  0  0  0  0
  138.1651  136.0508  154.1947 H   0  0  0  0  0  0  0  0  0  0  0  0
  137.3608  138.4055  154.1661 H   0  0  0  0  0  0  0  0  0  0  0  0
  141.3686  139.7738  153.3908 H   0  0  0  0  0  0  0  0  0  0  0  0
  147.3816  136.1739  151.7018 H   0  0  0  0  0  0  0  0  0  0  0  0
  1  2  1  0  0  0  0
  1 24  1  0  0  0  0
  2  3  1  0  0  0  0
  2 25  1  0  0  0  0
  2 26  1  0  0  0  0
  3  4  1  0  0  0  0
  3 27  1  0  0  0  0
  3 28  1  0  0  0  0
  4  5  1  0  0  0  0
  4 29  1  0  0  0  0
  5 13  1  0  0  0  0
  5  6  2  0  0  0  0
  6  7  1  0  0  0  0
  6 42  1  0  0  0  0
  7 12  2  0  0  0  0
  7  8  1  0  0  0  0
  8  9  2  0  0  0  0
  8 30  1  0  0  0  0
  9 10  1  0  0  0  0
  9 31  1  0  0  0  0
 10 11  2  0  0  0  0
 10 32  1  0  0  0  0
 11 12  1  0  0  0  0
 11 33  1  0  0  0  0
 12 13  1  0  0  0  0
 13 14  1  0  0  0  0
 14 15  1  0  0  0  0
 14 34  1  0  0  0  0
 14 35  1  0  0  0  0
 15 16  1  0  0  0  0
 15 17  1  0  0  0  0
 15 36  1  0  0  0  0
 16 37  1  0  0  0  0
 17 23  1  0  0  0  0
 17 18  2  0  0  0  0
 18 19  1  0  0  0  0
 18 38  1  0  0  0  0
 19 20  2  0  0  0  0
 19 39  1  0  0  0  0
 20 21  1  0  0  0  0
 20 40  1  0  0  0  0
 21 22  1  0  0  0  0
 21 23  2  0  0  0  0
 23 41  1  0  0  0  0
M  CHG  1   6   1
M  END
> <s_m_source_file>
AV-unprocessed.smi

> <i_m_source_file_index>
1545

> <i_lp_mmshare_version>
43012

> <i_f3d_flags>
0

> <s_epik_input>
W09IXVtDSDJdW0NIMl1bTkhdYyhuMSluKGMoYzEyKVtjSF1bY0hdW2NIXVtjSF0yKVtDSDJdW0NASF0oW09IXSljM1tjSF1bY0hdW2NIXWMoRilbY0hdMw==

> <s_epik_cmdline>
J2VwaWtfcHl0aG9uJywgJy1waCcsICc3LjAnLCAnLXRuJywgJzgnLCAnLW1hJywgJzIwMCcsICctbWV0YWxfYmluZGluZycsICctaW1hZScsICc8aW5maWxlLm1hZT4nLCAnLW9tYWUnLCAnPG91dGZpbGUubWFlPic=

> <r_epik_Ionization_Penalty>
0.0688114

> <r_epik_Ionization_Penalty_Charging>
0.0688055

> <r_epik_Ionization_Penalty_Neutral>
5.85933e-06

> <r_epik_State_Penalty>
0.0602293

> <r_epik_Charging_Adjusted_Penalty>
0.129035

> <i_epik_Tot_Q>
1

> <i_epik_Tot_abs_Q>
1

> <r_epik_Metal_State_Penalty>
2.77411

> <b_epik_Metal_Only>
0

> <s_lp_Force_Field>
OPLS_2005

> <r_lp_Energy>
22.2772

> <b_lp_Chiralities_Consistent>
1

> <s_lp_Variant>
AV-unprocessed.smi:1545-1

> <Gold.Version>
5.8.1

> <Gold.Id.Protein>
6NUR|6NUR_protein|mol2

> <Gold.PLP.Fitness>
60.5821

> <Gold.PLP.PLP>
-46.0317

> <Gold.PLP.part.hbond>
-4.0000

> <Gold.PLP.part.metal>
0.0000

> <Gold.PLP.part.buried>
-5.6837

> <Gold.PLP.part.nonpolar>
-37.7413

> <Gold.PLP.part.repulsive>
0.0944

> <Gold.PLP.ligand.clash>
0.0000

> <Gold.PLP.ligand.torsion>
0.2520

> <Gold.PLP.Chemscore.Hbond>
5.0000

> <Gold.PLP.Chemscore.CHOScore>
0.0000

> <Gold.PLP.Chemscore.Metal>
0.0000

> <Gold.Chemscore.Hbonds>
donor molecule, donor type, donor heavy atom, donor atom, acceptor molecule, acceptor atom, score
      L1  H     1    24       P1 10175  1.00
      L1  H     4    29       P1 10175  1.98
      L1  H     6    42       P1  7948  2.00

> <Gold.PLP.Chemscore.Internal.Correction>
0.0545

> <Gold.Rescore>
     Score         DG    S(hbond)    S(metal)    S(lipo)     H(rot)  DE(clash)    DE(int)     intcor
     17.64     -18.98       2.88        0.00     102.09       3.15       1.19       0.14       ----

> <Gold.Chemscore.Fitness>
17.6445

> <Gold.Chemscore.DG>
-18.9782

> <Gold.Chemscore.ZeroCoef>
-5.4800

> <Gold.Chemscore.Hbond>
2.8797

> <Gold.Chemscore.Metal>
0.0000

> <Gold.Chemscore.Lipo>
102.0947

> <Gold.Chemscore.Internal_Hbond>
0.0000

> <Gold.Chemscore.DEClash>
1.1889

> <Gold.Chemscore.DEInternal>
0.1448

> <Gold.Chemscore.Rot>
3.1505

> <Gold.Chemscore.Internal.Correction>
   9.000000E+99

> <Gold.Chemscore.Hbonds>
donor molecule, donor type, donor heavy atom, donor atom, acceptor molecule, acceptor atom, score
      L1  H     1    24       P1 10175  0.91
      L1  H     4    29       P1 10175  0.88
      L1  H     6    42       P1  7948  0.95

> <Gold.Chemscore.Hbond.Weighted>
-9.6183

> <Gold.Chemscore.Metal.Weighted>
-0.0000

> <Gold.Chemscore.Lipo.Weighted>
-11.9451

> <Gold.Chemscore.Internal_Hbond.Weighted>
0.0000

> <Gold.Chemscore.DEClash.Weighted>
1.1889

> <Gold.Chemscore.DEInternal.Weighted>
0.1448

> <Gold.Chemscore.Rot.Weighted>
8.0652

> <Gold.Chemscore.Internal.Correction.Weighted>
   9.000000E+99

> <Gold.Protein.RotatedTorsions>
[ 6907 6896 6895 6894 ] final  141.64 input  -60.11 | X-H torsion
[ 7974 7965 7964 7962 ] final    9.99 input  175.53 | X-H torsion
[ 8008 7997 7996 7995 ] final   89.22 input   59.86 | X-H torsion
[ 10167 10162 10161 10158 ] final  -56.37 input  -65.29 | X-H torsion
[ 10718 10713 10712 10709 ] final -171.28 input   66.30 | X-H torsion
[ 10763 10752 10751 10750 ] final -166.30 input  -60.55 | X-H torsion
[ 11005 11000 10999 10996 ] final  -76.87 input  -57.11 | X-H torsion

> <Gold.Protein.ActiveResidues>
 VAL166  LYS551  ARG553  GLY616  TRP617  ASP618  TYR619  PRO620  LYS621  CYS622 
 ASP623  PHE694  ASN695  SER759  ASP760  ASP761  ALA762  ILE779  LEU786  VAL792 
 PHE793  MET794  SER795  GLU796  ALA797  LYS798  CYS799  TRP800  GLU811  SER814 

> <Gold.Protein.RotatedAtoms>
  152.2284  133.5039  159.5201 H   0  0  0  0  0  0  0  0  0  0  0  0  # atno 6907 bound_to 6896
  150.7031  134.1249  159.4057 H   0  0  0  0  0  0  0  0  0  0  0  0  # atno 6908 bound_to 6896
  151.9170  135.0314  160.0570 H   0  0  0  0  0  0  0  0  0  0  0  0  # atno 6909 bound_to 6896
  146.2395  139.9701  142.8448 H   0  0  0  0  0  0  0  0  0  0  0  0  # atno 7974 bound_to 7965
  155.9974  140.3363  155.6812 H   0  0  0  0  0  0  0  0  0  0  0  0  # atno 8008 bound_to 7997
  155.6338  140.0688  157.2658 H   0  0  0  0  0  0  0  0  0  0  0  0  # atno 8009 bound_to 7997
  154.4238  140.1755  156.1488 H   0  0  0  0  0  0  0  0  0  0  0  0  # atno 8010 bound_to 7997
  140.6321  143.2464  151.5215 H   0  0  0  0  0  0  0  0  0  0  0  0  # atno 10167 bound_to 10162
  156.7386  130.9334  151.3109 H   0  0  0  0  0  0  0  0  0  0  0  0  # atno 10718 bound_to 10713
  154.6847  135.2960  154.9564 H   0  0  0  0  0  0  0  0  0  0  0  0  # atno 10763 bound_to 10752
  154.0547  135.6639  153.4808 H   0  0  0  0  0  0  0  0  0  0  0  0  # atno 10764 bound_to 10752
  153.0571  135.5138  154.7908 H   0  0  0  0  0  0  0  0  0  0  0  0  # atno 10765 bound_to 10752
  141.1657  133.7000  156.7734 H   0  0  0  0  0  0  0  0  0  0  0  0  # atno 11005 bound_to 11000
  145.1690  140.9711  143.4333 LP  0  0  0  0  0  0  0  0  0  0  0  0  # atno 17320 bound_to 7965
  145.0046  139.3566  143.6150 LP  0  0  0  0  0  0  0  0  0  0  0  0  # atno 17321 bound_to 7965
  139.5534  144.2337  152.1570 LP  0  0  0  0  0  0  0  0  0  0  0  0  # atno 17342 bound_to 10162
  140.1584  144.5049  150.6647 LP  0  0  0  0  0  0  0  0  0  0  0  0  # atno 17343 bound_to 10162
  157.6828  130.9156  150.0310 LP  0  0  0  0  0  0  0  0  0  0  0  0  # atno 17370 bound_to 10713
  156.1480  130.3642  149.9481 LP  0  0  0  0  0  0  0  0  0  0  0  0  # atno 17371 bound_to 10713
  140.2447  134.8586  157.3608 LP  0  0  0  0  0  0  0  0  0  0  0  0  # atno 17394 bound_to 11000
  140.1761  134.4548  155.7801 LP  0  0  0  0  0  0  0  0  0  0  0  0  # atno 17395 bound_to 11000

$$$$
