AV-unprocessed.smi:186|AV-procd|sdf|1466|dock8
  -GOLD-   2262019283D 1   1.00000     0.00000
 Structure written by MMmdl.
 48 51  0  0  0  0  0  0  0  0  1 V2000
  153.2306  142.1531  162.3948 C   0  0  0  0  0  0  0  0  0  0  0  0
  153.0316  142.5569  161.0515 O   0  0  0  0  0  0  0  0  0  0  0  0
  153.1015  141.4696  160.1414 C   0  0  0  0  0  0  0  0  0  0  0  0
  151.9136  141.5250  159.1791 C   0  0  0  0  0  0  0  0  0  0  0  0
  151.0169  142.3557  159.3294 O   0  0  0  0  0  0  0  0  0  0  0  0
  151.9195  140.6238  158.1866 N   0  0  0  0  0  0  0  0  0  0  0  0
  150.8818  140.5147  157.1697 C   0  0  0  0  0  0  0  0  0  0  0  0
  151.1439  139.4220  156.1311 C   0  0  0  0  0  0  0  0  0  0  0  0
  150.7676  140.4007  155.1118 N   0  0  0  0  0  0  0  0  0  0  0  0
  149.4287  140.2206  154.6463 C   0  0  0  0  0  0  0  0  0  0  0  0
  148.9511  141.2197  153.8601 N   0  0  0  0  0  0  0  0  0  0  0  0
  147.7161  141.1829  153.3548 C   0  0  0  0  0  0  0  0  0  0  0  0
  146.7843  140.2437  153.5052 N   0  0  0  0  0  0  0  0  0  0  0  0
  147.2385  139.2285  154.2915 C   0  0  0  0  0  0  0  0  0  0  0  0
  148.5285  139.1354  154.8948 C   0  0  0  0  0  0  0  0  0  0  0  0
  148.6101  137.9454  155.6115 N   0  0  0  0  0  0  0  0  0  0  0  0
  147.4480  137.3775  155.4462 C   0  0  0  0  0  0  0  0  0  0  0  0
  146.5595  138.0836  154.6710 N   0  0  0  0  0  0  0  0  0  0  0  0
  145.2024  137.6887  154.3254 C   0  0  0  0  0  0  0  0  0  0  0  0
  145.0398  137.2827  152.8420 C   0  0  1  0  0  0  0  0  0  0  0  0
  145.4666  138.3571  152.0217 O   0  0  0  0  0  0  0  0  0  0  0  0
  145.8194  136.0316  152.4472 C   0  0  0  0  0  0  0  0  0  0  0  0
  144.9452  135.4152  151.3643 C   0  0  0  0  0  0  0  0  0  0  0  0
  143.6366  135.6335  151.8633 O   0  0  0  0  0  0  0  0  0  0  0  0
  143.5892  136.9258  152.4603 C   0  0  0  0  0  0  0  0  0  0  0  0
  151.0533  141.5099  156.0220 C   0  0  0  0  0  0  0  0  0  0  0  0
  153.1633  143.0203  163.0513 H   0  0  0  0  0  0  0  0  0  0  0  0
  154.2158  141.7046  162.5293 H   0  0  0  0  0  0  0  0  0  0  0  0
  152.4722  141.4342  162.7074 H   0  0  0  0  0  0  0  0  0  0  0  0
  154.0309  141.5134  159.5713 H   0  0  0  0  0  0  0  0  0  0  0  0
  153.0806  140.5217  160.6811 H   0  0  0  0  0  0  0  0  0  0  0  0
  152.6898  139.9735  158.1319 H   0  0  0  0  0  0  0  0  0  0  0  0
  149.8662  140.4882  157.5690 H   0  0  0  0  0  0  0  0  0  0  0  0
  152.1936  139.1365  156.0457 H   0  0  0  0  0  0  0  0  0  0  0  0
  150.4875  138.5541  156.2109 H   0  0  0  0  0  0  0  0  0  0  0  0
  147.4356  142.0274  152.7428 H   0  0  0  0  0  0  0  0  0  0  0  0
  147.2033  136.4238  155.8909 H   0  0  0  0  0  0  0  0  0  0  0  0
  144.9121  136.8616  154.9745 H   0  0  0  0  0  0  0  0  0  0  0  0
  144.5323  138.5145  154.5676 H   0  0  0  0  0  0  0  0  0  0  0  0
  144.7390  138.9481  151.9002 H   0  0  0  0  0  0  0  0  0  0  0  0
  146.8402  136.2318  152.1180 H   0  0  0  0  0  0  0  0  0  0  0  0
  145.8712  135.3385  153.2874 H   0  0  0  0  0  0  0  0  0  0  0  0
  145.0700  135.9352  150.4131 H   0  0  0  0  0  0  0  0  0  0  0  0
  145.1471  134.3550  151.2099 H   0  0  0  0  0  0  0  0  0  0  0  0
  142.9281  136.8925  153.3267 H   0  0  0  0  0  0  0  0  0  0  0  0
  143.1625  137.6394  151.7534 H   0  0  0  0  0  0  0  0  0  0  0  0
  150.3583  142.3471  156.0024 H   0  0  0  0  0  0  0  0  0  0  0  0
  152.0816  141.8541  155.9011 H   0  0  0  0  0  0  0  0  0  0  0  0
  1  2  1  0  0  0  0
  1 27  1  0  0  0  0
  1 28  1  0  0  0  0
  1 29  1  0  0  0  0
  2  3  1  0  0  0  0
  3  4  1  0  0  0  0
  3 30  1  0  0  0  0
  3 31  1  0  0  0  0
  4  5  2  0  0  0  0
  4  6  1  0  0  0  0
  6  7  1  0  0  0  0
  6 32  1  0  0  0  0
  7 26  1  0  0  0  0
  7  8  1  0  0  0  0
  7 33  1  0  0  0  0
  8  9  1  0  0  0  0
  8 34  1  0  0  0  0
  8 35  1  0  0  0  0
  9 10  1  0  0  0  0
  9 26  1  0  0  0  0
 10 15  1  0  0  0  0
 10 11  2  0  0  0  0
 11 12  1  0  0  0  0
 12 13  2  0  0  0  0
 12 36  1  0  0  0  0
 13 14  1  0  0  0  0
 14 18  1  0  0  0  0
 14 15  2  0  0  0  0
 15 16  1  0  0  0  0
 16 17  2  0  0  0  0
 17 18  1  0  0  0  0
 17 37  1  0  0  0  0
 18 19  1  0  0  0  0
 19 20  1  0  0  0  0
 19 38  1  0  0  0  0
 19 39  1  0  0  0  0
 20 25  1  0  0  0  0
 20 21  1  0  0  0  0
 20 22  1  0  0  0  0
 21 40  1  0  0  0  0
 22 23  1  0  0  0  0
 22 41  1  0  0  0  0
 22 42  1  0  0  0  0
 23 24  1  0  0  0  0
 23 43  1  0  0  0  0
 23 44  1  0  0  0  0
 24 25  1  0  0  0  0
 25 45  1  0  0  0  0
 25 46  1  0  0  0  0
 26 47  1  0  0  0  0
 26 48  1  0  0  0  0
M  END
> <s_m_source_file>
AV-unprocessed.smi

> <i_m_source_file_index>
186

> <i_lp_mmshare_version>
43012

> <i_f3d_flags>
0

> <s_epik_input>
W0NIM11PW0NIMl1DKD1PKVtOSF1bQ0hdMVtDSDJdTihbQ0gyXTEpYyhuW2NIXW4yKWMoYzIzKW5bY0hdbjNbQ0gyXVtDQEBdNChbT0hdKVtDSDJdW0NIMl1PW0NIMl00

> <s_epik_cmdline>
J2VwaWtfcHl0aG9uJywgJy1waCcsICc3LjAnLCAnLXRuJywgJzgnLCAnLW1hJywgJzIwMCcsICctbWV0YWxfYmluZGluZycsICctaW1hZScsICc8aW5maWxlLm1hZT4nLCAnLW9tYWUnLCAnPG91dGZpbGUubWFlPic=

> <r_lp_tautomer_probability>
1

> <r_epik_Ionization_Penalty>
0.00138671

> <r_epik_Ionization_Penalty_Charging>
0

> <r_epik_Ionization_Penalty_Neutral>
0.00138671

> <r_epik_State_Penalty>
0.000746021

> <r_epik_Charging_Adjusted_Penalty>
0.000746021

> <i_epik_Tot_Q>
0

> <i_epik_Tot_abs_Q>
0

> <r_epik_Metal_State_Penalty>
-0

> <b_epik_Metal_Only>
0

> <s_lp_Force_Field>
OPLS_2005

> <r_lp_Energy>
46.8047

> <b_lp_Chiralities_Consistent>
1

> <s_lp_Variant>
AV-unprocessed.smi:186-1

> <Gold.Version>
5.8.1

> <Gold.Id.Protein>
6NUR|6NUR_protein|mol2

> <Gold.PLP.Fitness>
44.5870

> <Gold.PLP.PLP>
-37.7800

> <Gold.PLP.part.hbond>
-4.4411

> <Gold.PLP.part.metal>
0.0000

> <Gold.PLP.part.buried>
-6.8468

> <Gold.PLP.part.nonpolar>
-25.9055

> <Gold.PLP.part.repulsive>
0.7407

> <Gold.PLP.ligand.clash>
0.0000

> <Gold.PLP.ligand.torsion>
0.7691

> <Gold.PLP.Chemscore.Hbond>
2.5858

> <Gold.PLP.Chemscore.CHOScore>
0.0000

> <Gold.PLP.Chemscore.Metal>
0.0000

> <Gold.Chemscore.Hbonds>
donor molecule, donor type, donor heavy atom, donor atom, acceptor molecule, acceptor atom, score
      L1  H    21    40       P1 10175  1.00
      P1  H  7989  7998       L1     9  1.00
      P1  H  8011  8017       L1    11  0.54

> <Gold.PLP.Chemscore.Internal.Correction>
0.5878

> <Gold.Rescore>
     Score         DG    S(hbond)    S(metal)    S(lipo)     H(rot)  DE(clash)    DE(int)     intcor
      6.64      -9.85       1.72        0.00      61.90       3.36       0.34       2.86       ----

> <Gold.Chemscore.Fitness>
6.6450

> <Gold.Chemscore.DG>
-9.8497

> <Gold.Chemscore.ZeroCoef>
-5.4800

> <Gold.Chemscore.Hbond>
1.7168

> <Gold.Chemscore.Metal>
0.0000

> <Gold.Chemscore.Lipo>
61.9014

> <Gold.Chemscore.Internal_Hbond>
0.0000

> <Gold.Chemscore.DEClash>
0.3435

> <Gold.Chemscore.DEInternal>
2.8612

> <Gold.Chemscore.Rot>
3.3620

> <Gold.Chemscore.Internal.Correction>
   9.000000E+99

> <Gold.Chemscore.Hbonds>
donor molecule, donor type, donor heavy atom, donor atom, acceptor molecule, acceptor atom, score
      L1  H    21    40       P1 10175  0.96
      P1  H  7989  7998       L1     9  0.13
      P1  H  8011  8017       L1    11  0.08

> <Gold.Chemscore.Hbond.Weighted>
-5.7340

> <Gold.Chemscore.Metal.Weighted>
-0.0000

> <Gold.Chemscore.Lipo.Weighted>
-7.2425

> <Gold.Chemscore.Internal_Hbond.Weighted>
0.0000

> <Gold.Chemscore.DEClash.Weighted>
0.3435

> <Gold.Chemscore.DEInternal.Weighted>
2.8612

> <Gold.Chemscore.Rot.Weighted>
8.6067

> <Gold.Chemscore.Internal.Correction.Weighted>
   9.000000E+99

> <Gold.Protein.RotatedTorsions>
[ 6907 6896 6895 6894 ] final  177.37 input  -60.11 | X-H torsion
[ 7974 7965 7964 7962 ] final -174.43 input  175.53 | X-H torsion
[ 8008 7997 7996 7995 ] final  133.18 input   59.86 | X-H torsion
[ 10167 10162 10161 10158 ] final    5.61 input  -65.29 | X-H torsion
[ 10718 10713 10712 10709 ] final -174.95 input   66.30 | X-H torsion
[ 10763 10752 10751 10750 ] final  -44.48 input  -60.55 | X-H torsion
[ 11005 11000 10999 10996 ] final   90.32 input  -57.11 | X-H torsion

> <Gold.Protein.ActiveResidues>
 VAL166  LYS551  ARG553  GLY616  TRP617  ASP618  TYR619  PRO620  LYS621  CYS622 
 ASP623  PHE694  ASN695  SER759  ASP760  ASP761  ALA762  ILE779  LEU786  VAL792 
 PHE793  MET794  SER795  GLU796  ALA797  LYS798  CYS799  TRP800  GLU811  SER814 

> <Gold.Protein.RotatedAtoms>
  151.7051  133.3311  159.3276 H   0  0  0  0  0  0  0  0  0  0  0  0  # atno 6907 bound_to 6896
  150.7719  134.6582  159.6334 H   0  0  0  0  0  0  0  0  0  0  0  0  # atno 6908 bound_to 6896
  152.3746  134.6686  160.0216 H   0  0  0  0  0  0  0  0  0  0  0  0  # atno 6909 bound_to 6896
  144.7132  140.1473  143.6387 H   0  0  0  0  0  0  0  0  0  0  0  0  # atno 7974 bound_to 7965
  156.2990  140.2528  156.3210 H   0  0  0  0  0  0  0  0  0  0  0  0  # atno 8008 bound_to 7997
  154.9235  140.0400  157.2029 H   0  0  0  0  0  0  0  0  0  0  0  0  # atno 8009 bound_to 7997
  154.8288  140.2872  155.5741 H   0  0  0  0  0  0  0  0  0  0  0  0  # atno 8010 bound_to 7997
  140.6472  143.7632  150.7518 H   0  0  0  0  0  0  0  0  0  0  0  0  # atno 10167 bound_to 10162
  156.7927  130.9524  151.3120 H   0  0  0  0  0  0  0  0  0  0  0  0  # atno 10718 bound_to 10713
  154.0128  135.6679  153.4766 H   0  0  0  0  0  0  0  0  0  0  0  0  # atno 10763 bound_to 10752
  153.0613  135.5026  154.8096 H   0  0  0  0  0  0  0  0  0  0  0  0  # atno 10764 bound_to 10752
  154.6985  135.3074  154.9340 H   0  0  0  0  0  0  0  0  0  0  0  0  # atno 10765 bound_to 10752
  139.8858  134.8606  156.3268 H   0  0  0  0  0  0  0  0  0  0  0  0  # atno 11005 bound_to 11000
  145.9148  139.2509  143.1416 LP  0  0  0  0  0  0  0  0  0  0  0  0  # atno 17320 bound_to 7965
  145.9680  140.8783  143.0177 LP  0  0  0  0  0  0  0  0  0  0  0  0  # atno 17321 bound_to 7965
  140.1276  143.4555  152.2274 LP  0  0  0  0  0  0  0  0  0  0  0  0  # atno 17342 bound_to 10162
  139.5684  144.7448  151.3958 LP  0  0  0  0  0  0  0  0  0  0  0  0  # atno 17343 bound_to 10162
  157.6593  130.8951  149.9795 LP  0  0  0  0  0  0  0  0  0  0  0  0  # atno 17370 bound_to 10713
  156.1149  130.3648  149.9985 LP  0  0  0  0  0  0  0  0  0  0  0  0  # atno 17371 bound_to 10713
  140.9750  133.7303  156.0588 LP  0  0  0  0  0  0  0  0  0  0  0  0  # atno 17394 bound_to 11000
  140.7823  134.3711  157.5484 LP  0  0  0  0  0  0  0  0  0  0  0  0  # atno 17395 bound_to 11000

$$$$
