AV-unprocessed.smi:2709|AV-procd|sdf|10461|dock2
  -GOLD-   2272014503D 1   1.00000     0.00000
 Structure written by MMmdl.
 40 42  0  0  0  0  0  0  0  0  1 V2000
  145.9548  133.1050  151.1985 C   0  0  0  0  0  0  0  0  0  0  0  0
  146.0852  134.4219  151.7123 O   0  0  0  0  0  0  0  0  0  0  0  0
  145.0693  135.3149  151.2635 C   0  0  1  0  0  0  0  0  0  0  0  0
  143.7319  134.7579  151.7631 C   0  0  0  0  0  0  0  0  0  0  0  0
  143.5331  135.3959  153.1333 C   0  0  0  0  0  0  0  0  0  0  0  0
  144.0600  136.8180  152.9532 C   0  0  0  0  0  0  0  0  0  0  0  0
  145.1882  136.7212  151.9087 C   0  0  1  0  0  0  0  0  0  0  0  0
  146.4853  136.9420  152.5480 N   0  0  0  0  0  0  0  0  0  0  0  0
  146.8335  138.0147  153.2713 C   0  0  0  0  0  0  0  0  0  0  0  0
  146.0773  138.9574  153.5004 O   0  0  0  0  0  0  0  0  0  0  0  0
  148.1012  137.9078  153.7040 N   0  0  0  0  0  0  0  0  0  0  0  0
  148.8617  138.8202  154.4847 C   0  0  0  0  0  0  0  0  0  0  0  0
  148.3380  139.9037  155.2333 C   0  0  0  0  0  0  0  0  0  0  0  0
  149.1387  140.7295  155.9415 N   0  0  0  0  0  0  0  0  0  0  0  0
  150.4518  140.4893  155.8950 C   0  0  0  0  0  0  0  0  0  0  0  0
  151.3305  141.3857  156.7111 C   0  0  0  0  0  0  0  0  0  0  0  0
  151.2407  141.3986  158.2237 C   0  0  0  0  0  0  0  0  0  0  0  0
  150.7497  142.5818  157.4372 C   0  0  0  0  0  0  0  0  0  0  0  0
  151.0563  139.4991  155.2336 N   0  0  0  0  0  0  0  0  0  0  0  0
  150.2636  138.6682  154.5239 C   0  0  0  0  0  0  0  0  0  0  0  0
  146.7895  132.4945  151.5421 H   0  0  0  0  0  0  0  0  0  0  0  0
  145.9564  133.0949  150.1083 H   0  0  0  0  0  0  0  0  0  0  0  0
  145.0328  132.6392  151.5484 H   0  0  0  0  0  0  0  0  0  0  0  0
  145.0566  135.3722  150.1732 H   0  0  0  0  0  0  0  0  0  0  0  0
  142.9313  135.0824  151.0970 H   0  0  0  0  0  0  0  0  0  0  0  0
  143.7092  133.6681  151.7957 H   0  0  0  0  0  0  0  0  0  0  0  0
  142.4946  135.3707  153.4643 H   0  0  0  0  0  0  0  0  0  0  0  0
  144.1348  134.8694  153.8755 H   0  0  0  0  0  0  0  0  0  0  0  0
  143.2608  137.4490  152.5619 H   0  0  0  0  0  0  0  0  0  0  0  0
  144.3786  137.2583  153.8992 H   0  0  0  0  0  0  0  0  0  0  0  0
  145.0037  137.4751  151.1414 H   0  0  0  0  0  0  0  0  0  0  0  0
  147.1788  136.2217  152.4089 H   0  0  0  0  0  0  0  0  0  0  0  0
  148.5778  137.0520  153.4594 H   0  0  0  0  0  0  0  0  0  0  0  0
  147.2867  140.1382  155.2760 H   0  0  0  0  0  0  0  0  0  0  0  0
  152.3147  141.4938  156.2591 H   0  0  0  0  0  0  0  0  0  0  0  0
  150.4919  140.7642  158.6942 H   0  0  0  0  0  0  0  0  0  0  0  0
  152.1696  141.5131  158.7787 H   0  0  0  0  0  0  0  0  0  0  0  0
  151.3484  143.4897  157.4683 H   0  0  0  0  0  0  0  0  0  0  0  0
  149.6734  142.7347  157.3852 H   0  0  0  0  0  0  0  0  0  0  0  0
  150.7557  137.8722  153.9843 H   0  0  0  0  0  0  0  0  0  0  0  0
  1  2  1  0  0  0  0
  1 21  1  0  0  0  0
  1 22  1  0  0  0  0
  1 23  1  0  0  0  0
  2  3  1  0  0  0  0
  3  7  1  0  0  0  0
  3  4  1  0  0  0  0
  3 24  1  0  0  0  0
  4  5  1  0  0  0  0
  4 25  1  0  0  0  0
  4 26  1  0  0  0  0
  5  6  1  0  0  0  0
  5 27  1  0  0  0  0
  5 28  1  0  0  0  0
  6  7  1  0  0  0  0
  6 29  1  0  0  0  0
  6 30  1  0  0  0  0
  7  8  1  0  0  0  0
  7 31  1  0  0  0  0
  8  9  1  0  0  0  0
  8 32  1  0  0  0  0
  9 10  2  0  0  0  0
  9 11  1  0  0  0  0
 11 12  1  0  0  0  0
 11 33  1  0  0  0  0
 12 20  1  0  0  0  0
 12 13  2  0  0  0  0
 13 14  1  0  0  0  0
 13 34  1  0  0  0  0
 14 15  2  0  0  0  0
 15 16  1  0  0  0  0
 15 19  1  0  0  0  0
 16 18  1  0  0  0  0
 16 17  1  0  0  0  0
 16 35  1  0  0  0  0
 17 18  1  0  0  0  0
 17 36  1  0  0  0  0
 17 37  1  0  0  0  0
 18 38  1  0  0  0  0
 18 39  1  0  0  0  0
 19 20  2  0  0  0  0
 20 40  1  0  0  0  0
M  END
> <s_m_source_file>
AV-unprocessed.smi

> <i_m_source_file_index>
2709

> <i_lp_mmshare_version>
43012

> <i_f3d_flags>
0

> <s_epik_input>
W0NIM11PW0NAQEhdMVtDSDJdW0NIMl1bQ0gyXVtDQEhdMVtOSF1DKD1PKVtOSF1jMltjSF1uYyhuW2NIXTIpW0NIXTNbQ0gyXVtDSDJdMw==

> <s_epik_cmdline>
J2VwaWtfcHl0aG9uJywgJy1waCcsICc3LjAnLCAnLXRuJywgJzgnLCAnLW1hJywgJzIwMCcsICctbWV0YWxfYmluZGluZycsICctaW1hZScsICc8aW5maWxlLm1hZT4nLCAnLW9tYWUnLCAnPG91dGZpbGUubWFlPic=

> <r_lp_tautomer_probability>
1

> <r_epik_Ionization_Penalty>
2.49969e-05

> <r_epik_Ionization_Penalty_Charging>
0

> <r_epik_Ionization_Penalty_Neutral>
2.49969e-05

> <r_epik_State_Penalty>
-0

> <r_epik_Charging_Adjusted_Penalty>
0

> <i_epik_Tot_Q>
0

> <i_epik_Tot_abs_Q>
0

> <r_epik_Metal_State_Penalty>
-0

> <b_epik_Metal_Only>
0

> <s_lp_Force_Field>
OPLS_2005

> <r_lp_Energy>
20.4457

> <b_lp_Chiralities_Consistent>
1

> <s_lp_Variant>
AV-unprocessed.smi:2709-2

> <Gold.Version>
5.8.1

> <Gold.Id.Protein>
6NUR|6NUR_protein|mol2

> <Gold.PLP.Fitness>
38.5489

> <Gold.PLP.PLP>
-29.9777

> <Gold.PLP.part.hbond>
-2.9735

> <Gold.PLP.part.metal>
0.0000

> <Gold.PLP.part.buried>
-3.2597

> <Gold.PLP.part.nonpolar>
-25.3604

> <Gold.PLP.part.repulsive>
1.6319

> <Gold.PLP.ligand.clash>
0.0000

> <Gold.PLP.ligand.torsion>
0.1447

> <Gold.PLP.Chemscore.Hbond>
2.9120

> <Gold.PLP.Chemscore.CHOScore>
0.0000

> <Gold.PLP.Chemscore.Metal>
0.0000

> <Gold.Chemscore.Hbonds>
donor molecule, donor type, donor heavy atom, donor atom, acceptor molecule, acceptor atom, score
      L1  H     8    32       P1  7948  0.69
      L1  H    11    33       P1  7948  0.67
      P1  H  7989  7998       L1    19  0.21

> <Gold.PLP.Chemscore.Internal.Correction>
0.1246

> <Gold.Rescore>
     Score         DG    S(hbond)    S(metal)    S(lipo)     H(rot)  DE(clash)    DE(int)     intcor
     14.25     -17.21       2.16        0.00      69.32       1.41       0.89       2.06       ----

> <Gold.Chemscore.Fitness>
14.2543

> <Gold.Chemscore.DG>
-17.2055

> <Gold.Chemscore.ZeroCoef>
-5.4800

> <Gold.Chemscore.Hbond>
2.1643

> <Gold.Chemscore.Metal>
0.0000

> <Gold.Chemscore.Lipo>
69.3153

> <Gold.Chemscore.Internal_Hbond>
0.0000

> <Gold.Chemscore.DEClash>
0.8904

> <Gold.Chemscore.DEInternal>
2.0607

> <Gold.Chemscore.Rot>
1.4114

> <Gold.Chemscore.Internal.Correction>
   9.000000E+99

> <Gold.Chemscore.Hbonds>
donor molecule, donor type, donor heavy atom, donor atom, acceptor molecule, acceptor atom, score
      L1  H     8    32       P1  7948  0.68
      L1  H    11    33       P1  7948  0.68

> <Gold.Chemscore.Hbond.Weighted>
-7.2288

> <Gold.Chemscore.Metal.Weighted>
-0.0000

> <Gold.Chemscore.Lipo.Weighted>
-8.1099

> <Gold.Chemscore.Internal_Hbond.Weighted>
0.0000

> <Gold.Chemscore.DEClash.Weighted>
0.8904

> <Gold.Chemscore.DEInternal.Weighted>
2.0607

> <Gold.Chemscore.Rot.Weighted>
3.6133

> <Gold.Chemscore.Internal.Correction.Weighted>
   9.000000E+99

> <Gold.Protein.RotatedTorsions>
[ 6907 6896 6895 6894 ] final  -23.46 input  -60.11 | X-H torsion
[ 7974 7965 7964 7962 ] final -114.49 input  175.53 | X-H torsion
[ 8008 7997 7996 7995 ] final -106.36 input   59.86 | X-H torsion
[ 10167 10162 10161 10158 ] final  109.43 input  -65.29 | X-H torsion
[ 10718 10713 10712 10709 ] final -110.61 input   66.30 | X-H torsion
[ 10763 10752 10751 10750 ] final   68.37 input  -60.55 | X-H torsion
[ 11005 11000 10999 10996 ] final  -16.86 input  -57.11 | X-H torsion

> <Gold.Protein.ActiveResidues>
 VAL166  LYS551  ARG553  GLY616  TRP617  ASP618  TYR619  PRO620  LYS621  CYS622 
 ASP623  PHE694  ASN695  SER759  ASP760  ASP761  ALA762  ILE779  LEU786  VAL792 
 PHE793  MET794  SER795  GLU796  ALA797  LYS798  CYS799  TRP800  GLU811  SER814 

> <Gold.Protein.RotatedAtoms>
  151.2037  135.0453  159.8882 H   0  0  0  0  0  0  0  0  0  0  0  0  # atno 6907 bound_to 6896
  152.5430  134.0822  159.8250 H   0  0  0  0  0  0  0  0  0  0  0  0  # atno 6908 bound_to 6896
  151.0966  133.5227  159.2644 H   0  0  0  0  0  0  0  0  0  0  0  0  # atno 6909 bound_to 6896
  145.1196  140.8661  143.3822 H   0  0  0  0  0  0  0  0  0  0  0  0  # atno 7974 bound_to 7965
  154.9134  140.0409  157.1958 H   0  0  0  0  0  0  0  0  0  0  0  0  # atno 8008 bound_to 7997
  154.8326  140.2901  155.5691 H   0  0  0  0  0  0  0  0  0  0  0  0  # atno 8009 bound_to 7997
  156.2987  140.2498  156.3254 H   0  0  0  0  0  0  0  0  0  0  0  0  # atno 8010 bound_to 7997
  139.6767  144.7121  151.1590 H   0  0  0  0  0  0  0  0  0  0  0  0  # atno 10167 bound_to 10162
  156.0600  130.5824  150.8260 H   0  0  0  0  0  0  0  0  0  0  0  0  # atno 10718 bound_to 10713
  153.0232  135.5250  154.7123 H   0  0  0  0  0  0  0  0  0  0  0  0  # atno 10763 bound_to 10752
  154.6202  135.2888  155.0337 H   0  0  0  0  0  0  0  0  0  0  0  0  # atno 10764 bound_to 10752
  154.1326  135.6590  153.4978 H   0  0  0  0  0  0  0  0  0  0  0  0  # atno 10765 bound_to 10752
  140.8110  133.8140  155.9563 H   0  0  0  0  0  0  0  0  0  0  0  0  # atno 11005 bound_to 11000
  145.0756  139.2998  143.5810 LP  0  0  0  0  0  0  0  0  0  0  0  0  # atno 17320 bound_to 7965
  146.3522  140.0245  142.8655 LP  0  0  0  0  0  0  0  0  0  0  0  0  # atno 17321 bound_to 7965
  140.7638  143.5761  150.8944 LP  0  0  0  0  0  0  0  0  0  0  0  0  # atno 17342 bound_to 10162
  139.9431  143.6359  152.3049 LP  0  0  0  0  0  0  0  0  0  0  0  0  # atno 17343 bound_to 10162
  157.5601  131.0945  150.9571 LP  0  0  0  0  0  0  0  0  0  0  0  0  # atno 17370 bound_to 10713
  156.9810  130.5527  149.5296 LP  0  0  0  0  0  0  0  0  0  0  0  0  # atno 17371 bound_to 10713
  140.9197  134.2156  157.4934 LP  0  0  0  0  0  0  0  0  0  0  0  0  # atno 17394 bound_to 11000
  139.8714  134.9787  156.5007 LP  0  0  0  0  0  0  0  0  0  0  0  0  # atno 17395 bound_to 11000

$$$$
