AV-unprocessed.smi:2375|AV-procd|sdf|9442|dock10
  -GOLD-   2272013 73D 1   1.00000     0.00000
 Structure written by MMmdl.
 37 38  0  0  0  0  0  0  0  0  1 V2000
  150.7330  135.7420  155.4237 C   0  0  0  0  0  0  0  0  0  0  0  0
  150.4539  137.1651  155.0782 C   0  0  0  0  0  0  0  0  0  0  0  0
  151.0324  137.9190  154.0872 C   0  0  0  0  0  0  0  0  0  0  0  0
  150.5562  139.2300  154.0250 N   0  0  0  0  0  0  0  0  0  0  0  0
  149.6320  139.4828  154.9562 C   0  0  0  0  0  0  0  0  0  0  0  0
  148.9833  140.8204  155.1458 C   0  0  2  0  0  0  0  0  0  0  0  0
  148.0571  141.1822  153.9757 C   0  0  0  0  0  0  0  0  0  0  0  0
  149.9867  141.9421  155.4874 C   0  0  0  0  0  0  0  0  0  0  0  0
  150.6666  141.6993  156.7581 N   0  0  0  0  0  0  0  0  0  0  0  0
  151.3295  142.6174  157.4832 C   0  0  0  0  0  0  0  0  0  0  0  0
  151.3875  143.8090  157.1860 O   0  0  0  0  0  0  0  0  0  0  0  0
  151.9405  142.1315  158.5781 N   0  0  0  0  0  0  0  0  0  0  0  0
  152.7351  142.8640  159.5650 C   0  0  0  0  0  0  0  0  0  0  0  0
  153.0845  141.9826  160.7885 C   0  0  0  0  0  0  0  0  0  0  0  0
  152.8310  142.8882  161.9634 C   0  0  0  0  0  0  0  0  0  0  0  0
  152.2494  144.0317  161.6068 C   0  0  0  0  0  0  0  0  0  0  0  0
  152.0011  144.1095  160.1254 C   0  0  0  0  0  0  0  0  0  0  0  0
  149.2746  138.0892  155.9699 S   0  0  0  0  0  0  0  0  0  0  0  0
  151.4474  135.3013  154.7278 H   0  0  0  0  0  0  0  0  0  0  0  0
  149.8191  135.1488  155.3887 H   0  0  0  0  0  0  0  0  0  0  0  0
  151.1492  135.6636  156.4283 H   0  0  0  0  0  0  0  0  0  0  0  0
  151.7904  137.6053  153.3849 H   0  0  0  0  0  0  0  0  0  0  0  0
  148.3368  140.7160  156.0183 H   0  0  0  0  0  0  0  0  0  0  0  0
  147.2993  140.4132  153.8231 H   0  0  0  0  0  0  0  0  0  0  0  0
  148.6170  141.2881  153.0460 H   0  0  0  0  0  0  0  0  0  0  0  0
  147.5400  142.1239  154.1613 H   0  0  0  0  0  0  0  0  0  0  0  0
  150.7090  142.0505  154.6765 H   0  0  0  0  0  0  0  0  0  0  0  0
  149.4658  142.8973  155.5570 H   0  0  0  0  0  0  0  0  0  0  0  0
  150.6720  140.7469  157.0928 H   0  0  0  0  0  0  0  0  0  0  0  0
  151.8057  141.1488  158.7674 H   0  0  0  0  0  0  0  0  0  0  0  0
  153.6757  143.1844  159.1129 H   0  0  0  0  0  0  0  0  0  0  0  0
  152.4404  141.1059  160.8698 H   0  0  0  0  0  0  0  0  0  0  0  0
  154.1227  141.6499  160.7665 H   0  0  0  0  0  0  0  0  0  0  0  0
  153.0817  142.6048  162.9750 H   0  0  0  0  0  0  0  0  0  0  0  0
  151.9545  144.8200  162.2838 H   0  0  0  0  0  0  0  0  0  0  0  0
  152.3948  145.0365  159.7073 H   0  0  0  0  0  0  0  0  0  0  0  0
  150.9259  144.0749  159.9447 H   0  0  0  0  0  0  0  0  0  0  0  0
  1  2  1  0  0  0  0
  1 19  1  0  0  0  0
  1 20  1  0  0  0  0
  1 21  1  0  0  0  0
  2 18  1  0  0  0  0
  2  3  2  0  0  0  0
  3  4  1  0  0  0  0
  3 22  1  0  0  0  0
  4  5  2  0  0  0  0
  5  6  1  0  0  0  0
  5 18  1  0  0  0  0
  6  7  1  0  0  0  0
  6  8  1  0  0  0  0
  6 23  1  0  0  0  0
  7 24  1  0  0  0  0
  7 25  1  0  0  0  0
  7 26  1  0  0  0  0
  8  9  1  0  0  0  0
  8 27  1  0  0  0  0
  8 28  1  0  0  0  0
  9 10  1  0  0  0  0
  9 29  1  0  0  0  0
 10 11  2  0  0  0  0
 10 12  1  0  0  0  0
 12 13  1  0  0  0  0
 12 30  1  0  0  0  0
 13 17  1  0  0  0  0
 13 14  1  0  0  0  0
 13 31  1  0  0  0  0
 14 15  1  0  0  0  0
 14 32  1  0  0  0  0
 14 33  1  0  0  0  0
 15 16  2  0  0  0  0
 15 34  1  0  0  0  0
 16 17  1  0  0  0  0
 16 35  1  0  0  0  0
 17 36  1  0  0  0  0
 17 37  1  0  0  0  0
M  END
> <s_m_source_file>
AV-unprocessed.smi

> <i_m_source_file_index>
2375

> <i_lp_mmshare_version>
43012

> <i_f3d_flags>
0

> <s_epik_input>
W0NIM11jMVtjSF1uYyhzMSlbQ0BIXShbQ0gzXSlbQ0gyXVtOSF1DKD1PKVtOSF1bQ0hdMltDSDJdW0NIXT1bQ0hdW0NIMl0y

> <s_epik_cmdline>
J2VwaWtfcHl0aG9uJywgJy1waCcsICc3LjAnLCAnLXRuJywgJzgnLCAnLW1hJywgJzIwMCcsICctbWV0YWxfYmluZGluZycsICctaW1hZScsICc8aW5maWxlLm1hZT4nLCAnLW9tYWUnLCAnPG91dGZpbGUubWFlPic=

> <r_epik_Ionization_Penalty>
0.000644205

> <r_epik_Ionization_Penalty_Charging>
0

> <r_epik_Ionization_Penalty_Neutral>
0.000644205

> <r_epik_State_Penalty>
0.000370883

> <r_epik_Charging_Adjusted_Penalty>
0.000370883

> <i_epik_Tot_Q>
0

> <i_epik_Tot_abs_Q>
0

> <r_epik_Metal_State_Penalty>
-0

> <b_epik_Metal_Only>
0

> <s_lp_Force_Field>
OPLS_2005

> <r_lp_Energy>
17.1523

> <b_lp_Chiralities_Consistent>
1

> <s_lp_Variant>
AV-unprocessed.smi:2375-1

> <Gold.Version>
5.8.1

> <Gold.Id.Protein>
6NUR|6NUR_protein|mol2

> <Gold.PLP.Fitness>
42.7716

> <Gold.PLP.PLP>
-38.0418

> <Gold.PLP.part.hbond>
-1.0000

> <Gold.PLP.part.metal>
0.0000

> <Gold.PLP.part.buried>
-3.9852

> <Gold.PLP.part.nonpolar>
-34.3859

> <Gold.PLP.part.repulsive>
1.1450

> <Gold.PLP.ligand.clash>
0.0000

> <Gold.PLP.ligand.torsion>
0.2897

> <Gold.PLP.Chemscore.Hbond>
0.9913

> <Gold.PLP.Chemscore.CHOScore>
0.7416

> <Gold.PLP.Chemscore.Metal>
0.0000

> <Gold.Chemscore.Hbonds>
donor molecule, donor type, donor heavy atom, donor atom, acceptor molecule, acceptor atom, score
      P1  H  7989  7998       L1     4  1.00
      L1  C     3    22       P1  7949  0.73

> <Gold.PLP.Chemscore.Internal.Correction>
0.1107

> <Gold.Rescore>
     Score         DG    S(hbond)    S(metal)    S(lipo)     H(rot)  DE(clash)    DE(int)     intcor
     16.68     -17.06       0.88        0.00     106.76       1.50       0.11       0.27       ----

> <Gold.Chemscore.Fitness>
16.6825

> <Gold.Chemscore.DG>
-17.0604

> <Gold.Chemscore.ZeroCoef>
-5.4800

> <Gold.Chemscore.Hbond>
0.8778

> <Gold.Chemscore.Metal>
0.0000

> <Gold.Chemscore.Lipo>
106.7641

> <Gold.Chemscore.Internal_Hbond>
0.0000

> <Gold.Chemscore.DEClash>
0.1107

> <Gold.Chemscore.DEInternal>
0.2671

> <Gold.Chemscore.Rot>
1.5012

> <Gold.Chemscore.Internal.Correction>
   9.000000E+99

> <Gold.Chemscore.Hbonds>
donor molecule, donor type, donor heavy atom, donor atom, acceptor molecule, acceptor atom, score
      P1  H  7989  7998       L1     4  0.82

> <Gold.Chemscore.Hbond.Weighted>
-2.9319

> <Gold.Chemscore.Metal.Weighted>
-0.0000

> <Gold.Chemscore.Lipo.Weighted>
-12.4914

> <Gold.Chemscore.Internal_Hbond.Weighted>
0.0000

> <Gold.Chemscore.DEClash.Weighted>
0.1107

> <Gold.Chemscore.DEInternal.Weighted>
0.2671

> <Gold.Chemscore.Rot.Weighted>
3.8429

> <Gold.Chemscore.Internal.Correction.Weighted>
   9.000000E+99

> <Gold.Protein.RotatedTorsions>
[ 6907 6896 6895 6894 ] final   30.09 input  -60.11 | X-H torsion
[ 7974 7965 7964 7962 ] final -112.90 input  175.53 | X-H torsion
[ 8008 7997 7996 7995 ] final -121.02 input   59.86 | X-H torsion
[ 10167 10162 10161 10158 ] final   81.01 input  -65.29 | X-H torsion
[ 10718 10713 10712 10709 ] final  -73.83 input   66.30 | X-H torsion
[ 10763 10752 10751 10750 ] final  -80.17 input  -60.55 | X-H torsion
[ 11005 11000 10999 10996 ] final -141.53 input  -57.11 | X-H torsion

> <Gold.Protein.ActiveResidues>
 VAL166  LYS551  ARG553  GLY616  TRP617  ASP618  TYR619  PRO620  LYS621  CYS622 
 ASP623  PHE694  ASN695  SER759  ASP760  ASP761  ALA762  ILE779  LEU786  VAL792 
 PHE793  MET794  SER795  GLU796  ALA797  LYS798  CYS799  TRP800  GLU811  SER814 

> <Gold.Protein.RotatedAtoms>
  152.0410  134.9711  160.0573 H   0  0  0  0  0  0  0  0  0  0  0  0  # atno 6907 bound_to 6896
  152.1150  133.4317  159.4657 H   0  0  0  0  0  0  0  0  0  0  0  0  # atno 6908 bound_to 6896
  150.6845  134.2521  159.4558 H   0  0  0  0  0  0  0  0  0  0  0  0  # atno 6909 bound_to 6896
  145.1384  140.8764  143.3716 H   0  0  0  0  0  0  0  0  0  0  0  0  # atno 7974 bound_to 7965
  155.1413  140.0402  157.2799 H   0  0  0  0  0  0  0  0  0  0  0  0  # atno 8008 bound_to 7997
  154.6471  140.2560  155.7230 H   0  0  0  0  0  0  0  0  0  0  0  0  # atno 8009 bound_to 7997
  156.2560  140.2844  156.0889 H   0  0  0  0  0  0  0  0  0  0  0  0  # atno 8010 bound_to 7997
  139.9437  144.6072  150.8227 H   0  0  0  0  0  0  0  0  0  0  0  0  # atno 10167 bound_to 10162
  156.0265  130.4403  150.2801 H   0  0  0  0  0  0  0  0  0  0  0  0  # atno 10718 bound_to 10713
  154.5478  135.5670  153.6895 H   0  0  0  0  0  0  0  0  0  0  0  0  # atno 10763 bound_to 10752
  152.9981  135.6243  154.2415 H   0  0  0  0  0  0  0  0  0  0  0  0  # atno 10764 bound_to 10752
  154.2348  135.2864  155.2856 H   0  0  0  0  0  0  0  0  0  0  0  0  # atno 10765 bound_to 10752
  140.8315  134.2511  157.4854 H   0  0  0  0  0  0  0  0  0  0  0  0  # atno 11005 bound_to 11000
  145.0559  139.3144  143.5905 LP  0  0  0  0  0  0  0  0  0  0  0  0  # atno 17320 bound_to 7965
  146.3507  139.9983  142.8678 LP  0  0  0  0  0  0  0  0  0  0  0  0  # atno 17321 bound_to 7965
  140.7603  143.3149  151.2757 LP  0  0  0  0  0  0  0  0  0  0  0  0  # atno 17342 bound_to 10162
  139.6684  144.0064  152.2737 LP  0  0  0  0  0  0  0  0  0  0  0  0  # atno 17343 bound_to 10162
  157.0904  131.0168  151.3123 LP  0  0  0  0  0  0  0  0  0  0  0  0  # atno 17370 bound_to 10713
  157.4858  130.7792  149.7459 LP  0  0  0  0  0  0  0  0  0  0  0  0  # atno 17371 bound_to 10713
  139.8705  134.9588  156.4313 LP  0  0  0  0  0  0  0  0  0  0  0  0  # atno 17394 bound_to 11000
  140.8993  133.7791  155.9661 LP  0  0  0  0  0  0  0  0  0  0  0  0  # atno 17395 bound_to 11000

$$$$
