AV-unprocessed.smi:322|AV-procd|sdf|2338|dock10
  -GOLD-   2262022253D 1   1.00000     0.00000
 Structure written by MMmdl.
 44 46  0  0  0  0  0  0  0  0  2 V2000
  149.8917  141.0165  154.6747 O   0  0  0  0  0  0  0  0  0  0  0  0
  149.6591  140.6336  156.0140 C   0  0  0  0  0  0  0  0  0  0  0  0
  150.4346  141.4445  157.0028 C   0  0  0  0  0  0  0  0  0  0  0  0
  150.3447  142.7923  157.1922 N   0  3  0  0  0  0  0  0  0  0  0  0
  151.2155  143.1880  158.2076 C   0  0  0  0  0  0  0  0  0  0  0  0
  151.4728  144.4438  158.7488 C   0  0  0  0  0  0  0  0  0  0  0  0
  152.4303  144.5030  159.7827 C   0  0  0  0  0  0  0  0  0  0  0  0
  153.0900  143.3435  160.2394 C   0  0  0  0  0  0  0  0  0  0  0  0
  152.8198  142.0757  159.6833 C   0  0  0  0  0  0  0  0  0  0  0  0
  151.8707  142.0252  158.6621 C   0  0  0  0  0  0  0  0  0  0  0  0
  151.3575  140.9750  157.8907 N   0  0  0  0  0  0  0  0  0  0  0  0
  151.8349  139.6022  158.1210 C   0  0  0  0  0  0  0  0  0  0  0  0
  150.6988  138.5588  158.0950 C   0  0  1  0  0  0  0  0  0  0  0  0
  150.6416  137.8691  156.8629 O   0  0  0  0  0  0  0  0  0  0  0  0
  150.7801  137.5403  159.2428 C   0  0  0  0  0  0  0  0  0  0  0  0
  149.6871  136.6345  159.1666 O   0  0  0  0  0  0  0  0  0  0  0  0
  148.4281  137.2278  159.4497 C   0  0  0  0  0  0  0  0  0  0  0  0
  147.5429  136.3550  160.3224 C   0  0  0  0  0  0  0  0  0  0  0  0
  147.9502  136.0195  161.6311 C   0  0  0  0  0  0  0  0  0  0  0  0
  147.1335  135.2059  162.4401 C   0  0  0  0  0  0  0  0  0  0  0  0
  145.9095  134.7189  161.9410 C   0  0  0  0  0  0  0  0  0  0  0  0
  144.9072  133.7239  162.9319 Cl  0  0  0  0  0  0  0  0  0  0  0  0
  145.5048  135.0437  160.6315 C   0  0  0  0  0  0  0  0  0  0  0  0
  146.3211  135.8579  159.8225 C   0  0  0  0  0  0  0  0  0  0  0  0
  149.1464  141.5115  154.3694 H   0  0  0  0  0  0  0  0  0  0  0  0
  148.5954  140.7306  156.2313 H   0  0  0  0  0  0  0  0  0  0  0  0
  149.9189  139.5810  156.1275 H   0  0  0  0  0  0  0  0  0  0  0  0
  150.9691  145.3333  158.3996 H   0  0  0  0  0  0  0  0  0  0  0  0
  152.6640  145.4567  160.2335 H   0  0  0  0  0  0  0  0  0  0  0  0
  153.8191  143.4275  161.0324 H   0  0  0  0  0  0  0  0  0  0  0  0
  153.3354  141.1955  160.0385 H   0  0  0  0  0  0  0  0  0  0  0  0
  152.6099  139.3694  157.3907 H   0  0  0  0  0  0  0  0  0  0  0  0
  152.3271  139.5875  159.0943 H   0  0  0  0  0  0  0  0  0  0  0  0
  149.7468  139.0828  158.1866 H   0  0  0  0  0  0  0  0  0  0  0  0
  150.9735  136.9943  156.9941 H   0  0  0  0  0  0  0  0  0  0  0  0
  151.7178  136.9904  159.1538 H   0  0  0  0  0  0  0  0  0  0  0  0
  150.7970  138.0441  160.2105 H   0  0  0  0  0  0  0  0  0  0  0  0
  148.5647  138.2144  159.8958 H   0  0  0  0  0  0  0  0  0  0  0  0
  147.9109  137.3848  158.5030 H   0  0  0  0  0  0  0  0  0  0  0  0
  148.8884  136.3890  162.0188 H   0  0  0  0  0  0  0  0  0  0  0  0
  147.4475  134.9561  163.4430 H   0  0  0  0  0  0  0  0  0  0  0  0
  144.5684  134.6688  160.2458 H   0  0  0  0  0  0  0  0  0  0  0  0
  146.0038  136.1014  158.8191 H   0  0  0  0  0  0  0  0  0  0  0  0
  149.7285  143.3926  156.6594 H   0  0  0  0  0  0  0  0  0  0  0  0
  1  2  1  0  0  0  0
  1 25  1  0  0  0  0
  2  3  1  0  0  0  0
  2 26  1  0  0  0  0
  2 27  1  0  0  0  0
  3 11  1  0  0  0  0
  3  4  2  0  0  0  0
  4  5  1  0  0  0  0
  4 44  1  0  0  0  0
  5 10  2  0  0  0  0
  5  6  1  0  0  0  0
  6  7  2  0  0  0  0
  6 28  1  0  0  0  0
  7  8  1  0  0  0  0
  7 29  1  0  0  0  0
  8  9  2  0  0  0  0
  8 30  1  0  0  0  0
  9 10  1  0  0  0  0
  9 31  1  0  0  0  0
 10 11  1  0  0  0  0
 11 12  1  0  0  0  0
 12 13  1  0  0  0  0
 12 32  1  0  0  0  0
 12 33  1  0  0  0  0
 13 14  1  0  0  0  0
 13 15  1  0  0  0  0
 13 34  1  0  0  0  0
 14 35  1  0  0  0  0
 15 16  1  0  0  0  0
 15 36  1  0  0  0  0
 15 37  1  0  0  0  0
 16 17  1  0  0  0  0
 17 18  1  0  0  0  0
 17 38  1  0  0  0  0
 17 39  1  0  0  0  0
 18 24  1  0  0  0  0
 18 19  2  0  0  0  0
 19 20  1  0  0  0  0
 19 40  1  0  0  0  0
 20 21  2  0  0  0  0
 20 41  1  0  0  0  0
 21 22  1  0  0  0  0
 21 23  1  0  0  0  0
 23 24  2  0  0  0  0
 23 42  1  0  0  0  0
 24 43  1  0  0  0  0
M  CHG  1   4   1
M  END
> <s_m_source_file>
AV-unprocessed.smi

> <i_m_source_file_index>
322

> <i_lp_mmshare_version>
43012

> <i_f3d_flags>
0

> <s_epik_input>
W2NIXTFbY0hdW2NIXVtjSF1jKGMxMiluKGMobjIpW0NIMl1bT0hdKVtDSDJdW0NASF0oW09IXSlbQ0gyXU9bQ0gyXWMzW2NIXVtjSF1jKENsKVtjSF1bY0hdMw==

> <s_epik_cmdline>
J2VwaWtfcHl0aG9uJywgJy1waCcsICc3LjAnLCAnLXRuJywgJzgnLCAnLW1hJywgJzIwMCcsICctbWV0YWxfYmluZGluZycsICctaW1hZScsICc8aW5maWxlLm1hZT4nLCAnLW9tYWUnLCAnPG91dGZpbGUubWFlPic=

> <r_epik_Ionization_Penalty>
1.34314

> <r_epik_Ionization_Penalty_Charging>
1.34228

> <r_epik_Ionization_Penalty_Neutral>
0.000856898

> <r_epik_State_Penalty>
1.41963

> <r_epik_Charging_Adjusted_Penalty>
2.76191

> <i_epik_Tot_Q>
1

> <i_epik_Tot_abs_Q>
1

> <r_epik_Metal_State_Penalty>
5.45585

> <b_epik_Metal_Only>
0

> <s_lp_Force_Field>
OPLS_2005

> <r_lp_Energy>
18.1593

> <b_lp_Chiralities_Consistent>
1

> <s_lp_Variant>
AV-unprocessed.smi:322-4

> <Gold.Version>
5.8.1

> <Gold.Id.Protein>
6NUR|6NUR_protein|mol2

> <Gold.PLP.Fitness>
59.9147

> <Gold.PLP.PLP>
-50.4384

> <Gold.PLP.part.hbond>
-2.8062

> <Gold.PLP.part.metal>
0.0000

> <Gold.PLP.part.buried>
-6.6472

> <Gold.PLP.part.nonpolar>
-42.0354

> <Gold.PLP.part.repulsive>
0.0485

> <Gold.PLP.ligand.clash>
0.0000

> <Gold.PLP.ligand.torsion>
1.1879

> <Gold.PLP.Chemscore.Hbond>
3.8960

> <Gold.PLP.Chemscore.CHOScore>
0.0000

> <Gold.PLP.Chemscore.Metal>
0.0000

> <Gold.Chemscore.Hbonds>
donor molecule, donor type, donor heavy atom, donor atom, acceptor molecule, acceptor atom, score
      L1  H     4    44       P1  8028  2.00
      P1  H  6896  6909       L1    16  0.51
      P1  H  7989  7998       L1     1  0.53

> <Gold.PLP.Chemscore.Internal.Correction>
0.1642

> <Gold.Rescore>
     Score         DG    S(hbond)    S(metal)    S(lipo)     H(rot)  DE(clash)    DE(int)     intcor
     20.70     -22.04       2.68        0.00     135.92       3.24       0.07       1.27       ----

> <Gold.Chemscore.Fitness>
20.6969

> <Gold.Chemscore.DG>
-22.0394

> <Gold.Chemscore.ZeroCoef>
-5.4800

> <Gold.Chemscore.Hbond>
2.6786

> <Gold.Chemscore.Metal>
0.0000

> <Gold.Chemscore.Lipo>
135.9219

> <Gold.Chemscore.Internal_Hbond>
0.0000

> <Gold.Chemscore.DEClash>
0.0739

> <Gold.Chemscore.DEInternal>
1.2685

> <Gold.Chemscore.Rot>
3.2383

> <Gold.Chemscore.Internal.Correction>
   9.000000E+99

> <Gold.Chemscore.Hbonds>
donor molecule, donor type, donor heavy atom, donor atom, acceptor molecule, acceptor atom, score
      L1  H     4    44       P1  8028  1.00
      P1  H  6896  6909       L1    16  0.10
      P1  H  7989  7998       L1     1  0.50

> <Gold.Chemscore.Hbond.Weighted>
-8.9466

> <Gold.Chemscore.Metal.Weighted>
-0.0000

> <Gold.Chemscore.Lipo.Weighted>
-15.9029

> <Gold.Chemscore.Internal_Hbond.Weighted>
0.0000

> <Gold.Chemscore.DEClash.Weighted>
0.0739

> <Gold.Chemscore.DEInternal.Weighted>
1.2685

> <Gold.Chemscore.Rot.Weighted>
8.2901

> <Gold.Chemscore.Internal.Correction.Weighted>
   9.000000E+99

> <Gold.Protein.RotatedTorsions>
[ 6907 6896 6895 6894 ] final   62.34 input  -60.11 | X-H torsion
[ 7974 7965 7964 7962 ] final   89.27 input  175.53 | X-H torsion
[ 8008 7997 7996 7995 ] final  154.38 input   59.86 | X-H torsion
[ 10167 10162 10161 10158 ] final  -60.25 input  -65.29 | X-H torsion
[ 10718 10713 10712 10709 ] final   -8.90 input   66.30 | X-H torsion
[ 10763 10752 10751 10750 ] final  -69.95 input  -60.55 | X-H torsion
[ 11005 11000 10999 10996 ] final  161.83 input  -57.11 | X-H torsion

> <Gold.Protein.ActiveResidues>
 VAL166  LYS551  ARG553  GLY616  TRP617  ASP618  TYR619  PRO620  LYS621  CYS622 
 ASP623  PHE694  ASN695  SER759  ASP760  ASP761  ALA762  ILE779  LEU786  VAL792 
 PHE793  MET794  SER795  GLU796  ALA797  LYS798  CYS799  TRP800  GLU811  SER814 

> <Gold.Protein.RotatedAtoms>
  152.4164  134.6034  160.0005 H   0  0  0  0  0  0  0  0  0  0  0  0  # atno 6907 bound_to 6896
  151.6196  133.3334  159.3093 H   0  0  0  0  0  0  0  0  0  0  0  0  # atno 6908 bound_to 6896
  150.8053  134.7212  159.6704 H   0  0  0  0  0  0  0  0  0  0  0  0  # atno 6909 bound_to 6896
  145.5346  139.2285  143.2599 H   0  0  0  0  0  0  0  0  0  0  0  0  # atno 7974 bound_to 7965
  156.2534  140.1968  156.6638 H   0  0  0  0  0  0  0  0  0  0  0  0  # atno 8008 bound_to 7997
  154.6444  140.0579  156.9909 H   0  0  0  0  0  0  0  0  0  0  0  0  # atno 8009 bound_to 7997
  155.1513  140.3251  155.4433 H   0  0  0  0  0  0  0  0  0  0  0  0  # atno 8010 bound_to 7997
  140.6083  143.2380  151.5769 H   0  0  0  0  0  0  0  0  0  0  0  0  # atno 10167 bound_to 10162
  156.6959  130.5079  149.5930 H   0  0  0  0  0  0  0  0  0  0  0  0  # atno 10718 bound_to 10713
  154.4107  135.6009  153.5951 H   0  0  0  0  0  0  0  0  0  0  0  0  # atno 10763 bound_to 10752
  152.9790  135.5928  154.4073 H   0  0  0  0  0  0  0  0  0  0  0  0  # atno 10764 bound_to 10752
  154.3885  135.2842  155.2147 H   0  0  0  0  0  0  0  0  0  0  0  0  # atno 10765 bound_to 10752
  140.2197  134.8205  157.3207 H   0  0  0  0  0  0  0  0  0  0  0  0  # atno 11005 bound_to 11000
  146.2021  140.6164  142.9097 LP  0  0  0  0  0  0  0  0  0  0  0  0  # atno 17320 bound_to 7965
  144.7608  140.5417  143.6737 LP  0  0  0  0  0  0  0  0  0  0  0  0  # atno 17321 bound_to 7965
  139.5342  144.2829  152.1214 LP  0  0  0  0  0  0  0  0  0  0  0  0  # atno 17342 bound_to 10162
  140.2024  144.4645  150.6425 LP  0  0  0  0  0  0  0  0  0  0  0  0  # atno 17343 bound_to 10162
  156.1764  130.6470  151.0899 LP  0  0  0  0  0  0  0  0  0  0  0  0  # atno 17370 bound_to 10713
  157.6991  131.0783  150.6876 LP  0  0  0  0  0  0  0  0  0  0  0  0  # atno 17371 bound_to 10713
  140.1863  134.4427  155.7742 LP  0  0  0  0  0  0  0  0  0  0  0  0  # atno 17394 bound_to 11000
  141.2223  133.7006  156.7952 LP  0  0  0  0  0  0  0  0  0  0  0  0  # atno 17395 bound_to 11000

$$$$
