AV-unprocessed.smi:2062|AV-procd|sdf|8406|dock2
  -GOLD-   2272011 93D 1   1.00000     0.00000
 Structure written by MMmdl.
 41 42  0  0  0  0  0  0  0  0  2 V2000
  152.8186  144.7953  157.9686 C   0  0  0  0  0  0  0  0  0  0  0  0
  151.5478  144.5194  158.7855 C   0  0  0  0  0  0  0  0  0  0  0  0
  151.5110  145.4080  160.0395 C   0  0  0  0  0  0  0  0  0  0  0  0
  151.4524  143.0203  159.1435 C   0  0  0  0  0  0  0  0  0  0  0  0
  150.7756  142.1712  158.1620 N   0  0  0  0  0  0  0  0  0  0  0  0
  151.3538  142.2787  156.8243 C   0  0  0  0  0  0  0  0  0  0  0  0
  150.6503  141.3509  155.8198 C   0  0  0  0  0  0  0  0  0  0  0  0
  150.7011  140.0105  156.2946 O   0  0  0  0  0  0  0  0  0  0  0  0
  150.0867  139.8504  157.5715 C   0  0  1  0  0  0  0  0  0  0  0  0
  150.1832  138.3709  157.9816 C   0  0  0  0  0  0  0  0  0  0  0  0
  149.4814  138.1083  159.2338 N   0  0  0  0  0  0  0  0  0  0  0  0
  149.0282  136.9153  159.6445 C   0  0  0  0  0  0  0  0  0  0  0  0
  149.1874  135.9192  158.9350 O   0  0  0  0  0  0  0  0  0  0  0  0
  148.4207  136.9504  160.8524 N   0  5  0  0  0  0  0  0  0  0  0  0
  147.7447  135.8784  161.2965 C   0  0  0  0  0  0  0  0  0  0  0  0
  147.5388  134.7855  160.5521 N   0  0  0  0  0  0  0  0  0  0  0  0
  146.8058  133.7958  161.2098 C   0  0  0  0  0  0  0  0  0  0  0  0
  146.4366  134.1470  162.4814 C   0  0  0  0  0  0  0  0  0  0  0  0
  147.0030  135.7404  162.8935 S   0  0  0  0  0  0  0  0  0  0  0  0
  150.8030  140.7725  158.5776 C   0  0  0  0  0  0  0  0  0  0  0  0
  153.7167  144.5538  158.5381 H   0  0  0  0  0  0  0  0  0  0  0  0
  152.8809  145.8448  157.6792 H   0  0  0  0  0  0  0  0  0  0  0  0
  152.8347  144.2019  157.0540 H   0  0  0  0  0  0  0  0  0  0  0  0
  150.7054  144.7939  158.1516 H   0  0  0  0  0  0  0  0  0  0  0  0
  152.3391  145.1800  160.7111 H   0  0  0  0  0  0  0  0  0  0  0  0
  150.5836  145.2711  160.5964 H   0  0  0  0  0  0  0  0  0  0  0  0
  151.5780  146.4635  159.7747 H   0  0  0  0  0  0  0  0  0  0  0  0
  152.4549  142.6286  159.3229 H   0  0  0  0  0  0  0  0  0  0  0  0
  150.9308  142.9410  160.0985 H   0  0  0  0  0  0  0  0  0  0  0  0
  151.2798  143.3018  156.4581 H   0  0  0  0  0  0  0  0  0  0  0  0
  152.4162  142.0326  156.8589 H   0  0  0  0  0  0  0  0  0  0  0  0
  149.6125  141.6543  155.6735 H   0  0  0  0  0  0  0  0  0  0  0  0
  151.1400  141.4034  154.8474 H   0  0  0  0  0  0  0  0  0  0  0  0
  149.0370  140.1424  157.5044 H   0  0  0  0  0  0  0  0  0  0  0  0
  149.7497  137.7386  157.2064 H   0  0  0  0  0  0  0  0  0  0  0  0
  151.2276  138.0697  158.0762 H   0  0  0  0  0  0  0  0  0  0  0  0
  149.3335  138.8960  159.8476 H   0  0  0  0  0  0  0  0  0  0  0  0
  146.5907  132.8711  160.6954 H   0  0  0  0  0  0  0  0  0  0  0  0
  145.8693  133.5707  163.1964 H   0  0  0  0  0  0  0  0  0  0  0  0
  151.8367  140.4441  158.6978 H   0  0  0  0  0  0  0  0  0  0  0  0
  150.3292  140.6710  159.5548 H   0  0  0  0  0  0  0  0  0  0  0  0
  1  2  1  0  0  0  0
  1 21  1  0  0  0  0
  1 22  1  0  0  0  0
  1 23  1  0  0  0  0
  2  3  1  0  0  0  0
  2  4  1  0  0  0  0
  2 24  1  0  0  0  0
  3 25  1  0  0  0  0
  3 26  1  0  0  0  0
  3 27  1  0  0  0  0
  4  5  1  0  0  0  0
  4 28  1  0  0  0  0
  4 29  1  0  0  0  0
  5 20  1  0  0  0  0
  5  6  1  0  0  0  0
  6  7  1  0  0  0  0
  6 30  1  0  0  0  0
  6 31  1  0  0  0  0
  7  8  1  0  0  0  0
  7 32  1  0  0  0  0
  7 33  1  0  0  0  0
  8  9  1  0  0  0  0
  9 10  1  0  0  0  0
  9 20  1  0  0  0  0
  9 34  1  0  0  0  0
 10 11  1  0  0  0  0
 10 35  1  0  0  0  0
 10 36  1  0  0  0  0
 11 12  1  0  0  0  0
 11 37  1  0  0  0  0
 12 13  2  0  0  0  0
 12 14  1  0  0  0  0
 14 15  1  0  0  0  0
 15 19  1  0  0  0  0
 15 16  2  0  0  0  0
 16 17  1  0  0  0  0
 17 18  2  0  0  0  0
 17 38  1  0  0  0  0
 18 19  1  0  0  0  0
 18 39  1  0  0  0  0
 20 40  1  0  0  0  0
 20 41  1  0  0  0  0
M  CHG  1  14  -1
M  END
> <s_m_source_file>
AV-unprocessed.smi

> <i_m_source_file_index>
2062

> <i_lp_mmshare_version>
43012

> <i_f3d_flags>
0

> <s_epik_input>
W0NIM11bQ0hdKFtDSDNdKVtDSDJdTjFbQ0gyXVtDSDJdT1tDQEhdKFtDSDJdMSlbQ0gyXVtOSF1DKD1PKVtOSF1jMm5bY0hdW2NIXXMy

> <s_epik_cmdline>
J2VwaWtfcHl0aG9uJywgJy1waCcsICc3LjAnLCAnLXRuJywgJzgnLCAnLW1hJywgJzIwMCcsICctbWV0YWxfYmluZGluZycsICctaW1hZScsICc8aW5maWxlLm1hZT4nLCAnLW9tYWUnLCAnPG91dGZpbGUubWFlPic=

> <r_lp_tautomer_probability>
0.999

> <r_epik_Ionization_Penalty>
7.76343

> <r_epik_Ionization_Penalty_Charging>
5.65212

> <r_epik_Ionization_Penalty_Neutral>
2.11131

> <r_epik_State_Penalty>
6.82229

> <r_epik_Charging_Adjusted_Penalty>
12.4744

> <i_epik_Tot_Q>
-1

> <i_epik_Tot_abs_Q>
1

> <r_epik_Metal_State_Penalty>
2.82401

> <b_epik_Metal_Only>
1

> <s_lp_Force_Field>
OPLS_2005

> <r_lp_Energy>
19.1571

> <b_lp_Chiralities_Consistent>
1

> <s_lp_Variant>
AV-unprocessed.smi:2062-11

> <Gold.Version>
5.8.1

> <Gold.Id.Protein>
6NUR|6NUR_protein|mol2

> <Gold.PLP.Fitness>
49.0214

> <Gold.PLP.PLP>
-41.1294

> <Gold.PLP.part.hbond>
-2.0000

> <Gold.PLP.part.metal>
0.0000

> <Gold.PLP.part.buried>
-7.2440

> <Gold.PLP.part.nonpolar>
-33.6879

> <Gold.PLP.part.repulsive>
0.8363

> <Gold.PLP.ligand.clash>
0.0000

> <Gold.PLP.ligand.torsion>
0.5820

> <Gold.PLP.Chemscore.Hbond>
3.0000

> <Gold.PLP.Chemscore.CHOScore>
0.0000

> <Gold.PLP.Chemscore.Metal>
0.0000

> <Gold.Chemscore.Hbonds>
donor molecule, donor type, donor heavy atom, donor atom, acceptor molecule, acceptor atom, score
      P1  H  6896  6907       L1    13  0.86
      P1  H  6931  6943       L1    14  1.98
      P1  H  6934  6947       L1    14  0.08

> <Gold.PLP.Chemscore.Internal.Correction>
0.0560

> <Gold.Rescore>
     Score         DG    S(hbond)    S(metal)    S(lipo)     H(rot)  DE(clash)    DE(int)     intcor
     16.33     -18.82       1.83        0.00      98.61       1.68       0.31       2.18       ----

> <Gold.Chemscore.Fitness>
16.3326

> <Gold.Chemscore.DG>
-18.8193

> <Gold.Chemscore.ZeroCoef>
-5.4800

> <Gold.Chemscore.Hbond>
1.8254

> <Gold.Chemscore.Metal>
0.0000

> <Gold.Chemscore.Lipo>
98.6141

> <Gold.Chemscore.Internal_Hbond>
0.0000

> <Gold.Chemscore.DEClash>
0.3056

> <Gold.Chemscore.DEInternal>
2.1810

> <Gold.Chemscore.Rot>
1.6779

> <Gold.Chemscore.Internal.Correction>
   9.000000E+99

> <Gold.Chemscore.Hbonds>
donor molecule, donor type, donor heavy atom, donor atom, acceptor molecule, acceptor atom, score
      P1  H  6896  6907       L1    13  0.76
      P1  H  6931  6943       L1    14  0.77
      P1  H  6934  6947       L1    14  0.03

> <Gold.Chemscore.Hbond.Weighted>
-6.0967

> <Gold.Chemscore.Metal.Weighted>
-0.0000

> <Gold.Chemscore.Lipo.Weighted>
-11.5379

> <Gold.Chemscore.Internal_Hbond.Weighted>
0.0000

> <Gold.Chemscore.DEClash.Weighted>
0.3056

> <Gold.Chemscore.DEInternal.Weighted>
2.1810

> <Gold.Chemscore.Rot.Weighted>
4.2953

> <Gold.Chemscore.Internal.Correction.Weighted>
   9.000000E+99

> <Gold.Protein.RotatedTorsions>
[ 6907 6896 6895 6894 ] final  -69.36 input  -60.11 | X-H torsion
[ 7974 7965 7964 7962 ] final   61.11 input  175.53 | X-H torsion
[ 8008 7997 7996 7995 ] final   23.51 input   59.86 | X-H torsion
[ 10167 10162 10161 10158 ] final  -27.43 input  -65.29 | X-H torsion
[ 10718 10713 10712 10709 ] final  105.39 input   66.30 | X-H torsion
[ 10763 10752 10751 10750 ] final  -54.93 input  -60.55 | X-H torsion
[ 11005 11000 10999 10996 ] final   21.66 input  -57.11 | X-H torsion

> <Gold.Protein.ActiveResidues>
 VAL166  LYS551  ARG553  GLY616  TRP617  ASP618  TYR619  PRO620  LYS621  CYS622 
 ASP623  PHE694  ASN695  SER759  ASP760  ASP761  ALA762  ILE779  LEU786  VAL792 
 PHE793  MET794  SER795  GLU796  ALA797  LYS798  CYS799  TRP800  GLU811  SER814 

> <Gold.Protein.RotatedAtoms>
  150.7309  134.5607  159.5840 H   0  0  0  0  0  0  0  0  0  0  0  0  # atno 6907 bound_to 6896
  152.3071  134.7539  160.0354 H   0  0  0  0  0  0  0  0  0  0  0  0  # atno 6908 bound_to 6896
  151.8099  133.3345  159.3589 H   0  0  0  0  0  0  0  0  0  0  0  0  # atno 6909 bound_to 6896
  145.8885  139.3494  143.0663 H   0  0  0  0  0  0  0  0  0  0  0  0  # atno 7974 bound_to 7965
  154.9821  140.3103  155.4942 H   0  0  0  0  0  0  0  0  0  0  0  0  # atno 8008 bound_to 7997
  156.2952  140.2264  156.4860 H   0  0  0  0  0  0  0  0  0  0  0  0  # atno 8009 bound_to 7997
  154.7780  140.0448  157.1093 H   0  0  0  0  0  0  0  0  0  0  0  0  # atno 8010 bound_to 7997
  140.7277  143.4094  151.1131 H   0  0  0  0  0  0  0  0  0  0  0  0  # atno 10167 bound_to 10162
  157.6707  131.0826  150.5849 H   0  0  0  0  0  0  0  0  0  0  0  0  # atno 10718 bound_to 10713
  154.1826  135.6441  153.5038 H   0  0  0  0  0  0  0  0  0  0  0  0  # atno 10763 bound_to 10752
  153.0055  135.5409  154.6498 H   0  0  0  0  0  0  0  0  0  0  0  0  # atno 10764 bound_to 10752
  154.5866  135.2930  155.0651 H   0  0  0  0  0  0  0  0  0  0  0  0  # atno 10765 bound_to 10752
  140.3891  134.1838  155.7662 H   0  0  0  0  0  0  0  0  0  0  0  0  # atno 11005 bound_to 11000
  145.8937  140.9287  143.0538 LP  0  0  0  0  0  0  0  0  0  0  0  0  # atno 17320 bound_to 7965
  144.6729  140.0940  143.7464 LP  0  0  0  0  0  0  0  0  0  0  0  0  # atno 17321 bound_to 7965
  139.7725  143.8473  152.3123 LP  0  0  0  0  0  0  0  0  0  0  0  0  # atno 17342 bound_to 10162
  139.8396  144.7216  150.9347 LP  0  0  0  0  0  0  0  0  0  0  0  0  # atno 17343 bound_to 10162
  156.6150  130.4390  149.5844 LP  0  0  0  0  0  0  0  0  0  0  0  0  # atno 17370 bound_to 10713
  156.2401  130.6846  151.1547 LP  0  0  0  0  0  0  0  0  0  0  0  0  # atno 17371 bound_to 10713
  141.1897  133.8233  157.0947 LP  0  0  0  0  0  0  0  0  0  0  0  0  # atno 17394 bound_to 11000
  140.0420  134.9849  157.0979 LP  0  0  0  0  0  0  0  0  0  0  0  0  # atno 17395 bound_to 11000

$$$$
