AV-unprocessed.smi:557|AV-procd|sdf|2919|dock4
  -GOLD-   2262023413D 1   1.00000     0.00000
 Structure written by MMmdl.
 47 49  0  0  0  0  0  0  0  0  2 V2000
  148.4019  140.9461  154.0705 C   0  0  0  0  0  0  0  0  0  0  0  0
  149.4071  139.9924  154.4881 N   0  0  0  0  0  0  0  0  0  0  0  0
  149.4634  138.6377  154.2407 C   0  0  0  0  0  0  0  0  0  0  0  0
  150.5925  138.1575  154.8425 C   0  0  0  0  0  0  0  0  0  0  0  0
  151.1084  136.7462  154.8802 C   0  0  0  0  0  0  0  0  0  0  0  0
  150.0629  135.7846  155.4603 C   0  0  0  0  0  0  0  0  0  0  0  0
  149.0645  135.4380  154.4524 N   0  0  0  0  0  0  0  0  0  0  0  0
  147.8225  134.9733  154.6684 C   0  0  0  0  0  0  0  0  0  0  0  0
  147.3835  134.7840  155.8010 O   0  0  0  0  0  0  0  0  0  0  0  0
  147.1127  134.7359  153.5525 N   0  0  0  0  0  0  0  0  0  0  0  0
  145.7585  134.1905  153.5259 C   0  0  1  0  0  0  0  0  0  0  0  0
  144.6939  135.2266  153.1421 C   0  0  0  0  0  0  0  0  0  0  0  0
  143.6045  134.4270  152.4047 C   0  0  0  0  0  0  0  0  0  0  0  0
  144.0851  133.0283  152.3470 N   0  3  1  0  0  0  0  0  0  0  0  0
  143.5644  132.1949  151.2329 C   0  0  0  0  0  0  0  0  0  0  0  0
  144.2796  132.4700  149.8996 C   0  0  0  0  0  0  0  0  0  0  0  0
  145.7968  132.3346  150.0628 C   0  0  0  0  0  0  0  0  0  0  0  0
  146.2822  133.3009  151.1478 C   0  0  0  0  0  0  0  0  0  0  0  0
  145.5572  133.0636  152.4981 C   0  0  1  0  0  0  0  0  0  0  0  0
  151.1681  139.3165  155.4373 C   0  0  0  0  0  0  0  0  0  0  0  0
  150.4563  140.4115  155.2248 N   0  0  0  0  0  0  0  0  0  0  0  0
  147.6825  140.4652  153.4072 H   0  0  0  0  0  0  0  0  0  0  0  0
  148.8738  141.7739  153.5405 H   0  0  0  0  0  0  0  0  0  0  0  0
  147.8763  141.3327  154.9440 H   0  0  0  0  0  0  0  0  0  0  0  0
  148.7020  138.1306  153.6663 H   0  0  0  0  0  0  0  0  0  0  0  0
  151.3853  136.4161  153.8780 H   0  0  0  0  0  0  0  0  0  0  0  0
  152.0218  136.6891  155.4740 H   0  0  0  0  0  0  0  0  0  0  0  0
  150.5484  134.8746  155.8168 H   0  0  0  0  0  0  0  0  0  0  0  0
  149.5714  136.2502  156.3164 H   0  0  0  0  0  0  0  0  0  0  0  0
  149.3300  135.6002  153.4914 H   0  0  0  0  0  0  0  0  0  0  0  0
  147.5493  134.9289  152.6626 H   0  0  0  0  0  0  0  0  0  0  0  0
  145.5088  133.8066  154.5175 H   0  0  0  0  0  0  0  0  0  0  0  0
  144.3032  135.7456  154.0180 H   0  0  0  0  0  0  0  0  0  0  0  0
  145.1090  135.9817  152.4726 H   0  0  0  0  0  0  0  0  0  0  0  0
  142.6464  134.4686  152.9237 H   0  0  0  0  0  0  0  0  0  0  0  0
  143.4582  134.8331  151.4032 H   0  0  0  0  0  0  0  0  0  0  0  0
  143.7074  131.1483  151.5043 H   0  0  0  0  0  0  0  0  0  0  0  0
  142.4886  132.3432  151.1315 H   0  0  0  0  0  0  0  0  0  0  0  0
  143.9249  131.7739  149.1388 H   0  0  0  0  0  0  0  0  0  0  0  0
  144.0342  133.4693  149.5388 H   0  0  0  0  0  0  0  0  0  0  0  0
  146.0554  131.3095  150.3319 H   0  0  0  0  0  0  0  0  0  0  0  0
  146.2977  132.5479  149.1180 H   0  0  0  0  0  0  0  0  0  0  0  0
  147.3594  133.1894  151.2750 H   0  0  0  0  0  0  0  0  0  0  0  0
  146.1199  134.3241  150.8068 H   0  0  0  0  0  0  0  0  0  0  0  0
  145.8898  132.1102  152.9111 H   0  0  0  0  0  0  0  0  0  0  0  0
  152.0760  139.3924  156.0173 H   0  0  0  0  0  0  0  0  0  0  0  0
  143.7409  132.6054  153.1973 H   0  0  0  0  0  0  0  0  0  0  0  0
  1  2  1  0  0  0  0
  1 22  1  0  0  0  0
  1 23  1  0  0  0  0
  1 24  1  0  0  0  0
  2 21  1  0  0  0  0
  2  3  1  0  0  0  0
  3  4  2  0  0  0  0
  3 25  1  0  0  0  0
  4  5  1  0  0  0  0
  4 20  1  0  0  0  0
  5  6  1  0  0  0  0
  5 26  1  0  0  0  0
  5 27  1  0  0  0  0
  6  7  1  0  0  0  0
  6 28  1  0  0  0  0
  6 29  1  0  0  0  0
  7  8  1  0  0  0  0
  7 30  1  0  0  0  0
  8  9  2  0  0  0  0
  8 10  1  0  0  0  0
 10 11  1  0  0  0  0
 10 31  1  0  0  0  0
 11 19  1  0  0  0  0
 11 12  1  0  0  0  0
 11 32  1  0  0  0  0
 12 13  1  0  0  0  0
 12 33  1  0  0  0  0
 12 34  1  0  0  0  0
 13 14  1  0  0  0  0
 13 35  1  0  0  0  0
 13 36  1  0  0  0  0
 14 19  1  0  0  0  0
 14 15  1  0  0  0  0
 14 47  1  0  0  0  0
 15 16  1  0  0  0  0
 15 37  1  0  0  0  0
 15 38  1  0  0  0  0
 16 17  1  0  0  0  0
 16 39  1  0  0  0  0
 16 40  1  0  0  0  0
 17 18  1  0  0  0  0
 17 41  1  0  0  0  0
 17 42  1  0  0  0  0
 18 19  1  0  0  0  0
 18 43  1  0  0  0  0
 18 44  1  0  0  0  0
 19 45  1  0  0  0  0
 20 21  2  0  0  0  0
 20 46  1  0  0  0  0
M  CHG  1  14   1
M  END
> <s_m_source_file>
AV-unprocessed.smi

> <i_m_source_file_index>
557

> <i_lp_mmshare_version>
43012

> <i_f3d_flags>
0

> <s_epik_input>
W0NIM11uMVtjSF1jKFtjSF1uMSlbQ0gyXVtDSDJdW05IXUMoPU8pW05IXVtDQEhdKFtDSDJdW0NIMl0yKVtDQEhdKE4yMylbQ0gyXVtDSDJdW0NIMl1bQ0gyXTM=

> <s_epik_cmdline>
J2VwaWtfcHl0aG9uJywgJy1waCcsICc3LjAnLCAnLXRuJywgJzgnLCAnLW1hJywgJzIwMCcsICctbWV0YWxfYmluZGluZycsICctaW1hZScsICc8aW5maWxlLm1hZT4nLCAnLW9tYWUnLCAnPG91dGZpbGUubWFlPic=

> <r_lp_tautomer_probability>
1

> <r_epik_Ionization_Penalty>
0.000956547

> <r_epik_Ionization_Penalty_Charging>
0.000435796

> <r_epik_Ionization_Penalty_Neutral>
0.000520752

> <r_epik_State_Penalty>
-0

> <r_epik_Charging_Adjusted_Penalty>
0.000435796

> <i_epik_Tot_Q>
1

> <i_epik_Tot_abs_Q>
1

> <r_epik_Metal_State_Penalty>
-0

> <b_epik_Metal_Only>
0

> <s_lp_Force_Field>
OPLS_2005

> <r_lp_Energy>
42.0696

> <b_lp_Chiralities_Consistent>
1

> <s_lp_Variant>
AV-unprocessed.smi:557-6

> <Gold.Version>
5.8.1

> <Gold.Id.Protein>
6NUR|6NUR_protein|mol2

> <Gold.PLP.Fitness>
49.5097

> <Gold.PLP.PLP>
-35.6267

> <Gold.PLP.part.hbond>
-3.8254

> <Gold.PLP.part.metal>
0.0000

> <Gold.PLP.part.buried>
-2.8166

> <Gold.PLP.part.nonpolar>
-30.5922

> <Gold.PLP.part.repulsive>
0.1075

> <Gold.PLP.ligand.clash>
0.0000

> <Gold.PLP.ligand.torsion>
0.4088

> <Gold.PLP.Chemscore.Hbond>
3.9405

> <Gold.PLP.Chemscore.CHOScore>
0.9523

> <Gold.PLP.Chemscore.Metal>
0.0000

> <Gold.Chemscore.Hbonds>
donor molecule, donor type, donor heavy atom, donor atom, acceptor molecule, acceptor atom, score
      L1  H     7    30       P1  7948  1.00
      L1  H    10    31       P1  7948  0.77
      L1  H    14    47       P1 10957  1.76
      P1  H  7989  7998       L1    21  0.26
      L1  C     3    25       P1  7948  0.77

> <Gold.PLP.Chemscore.Internal.Correction>
0.0223

> <Gold.Rescore>
     Score         DG    S(hbond)    S(metal)    S(lipo)     H(rot)  DE(clash)    DE(int)     intcor
     19.55     -19.88       2.65        0.00      82.50       1.60       0.03       0.30       ----

> <Gold.Chemscore.Fitness>
19.5487

> <Gold.Chemscore.DG>
-19.8807

> <Gold.Chemscore.ZeroCoef>
-5.4800

> <Gold.Chemscore.Hbond>
2.6495

> <Gold.Chemscore.Metal>
0.0000

> <Gold.Chemscore.Lipo>
82.4952

> <Gold.Chemscore.Internal_Hbond>
0.0000

> <Gold.Chemscore.DEClash>
0.0281

> <Gold.Chemscore.DEInternal>
0.3039

> <Gold.Chemscore.Rot>
1.6018

> <Gold.Chemscore.Internal.Correction>
   9.000000E+99

> <Gold.Chemscore.Hbonds>
donor molecule, donor type, donor heavy atom, donor atom, acceptor molecule, acceptor atom, score
      L1  H     7    30       P1  7948  0.33
      L1  H    10    31       P1  7948  0.71
      L1  H    14    47       P1 10957  0.22

> <Gold.Chemscore.Hbond.Weighted>
-8.8494

> <Gold.Chemscore.Metal.Weighted>
-0.0000

> <Gold.Chemscore.Lipo.Weighted>
-9.6519

> <Gold.Chemscore.Internal_Hbond.Weighted>
0.0000

> <Gold.Chemscore.DEClash.Weighted>
0.0281

> <Gold.Chemscore.DEInternal.Weighted>
0.3039

> <Gold.Chemscore.Rot.Weighted>
4.1006

> <Gold.Chemscore.Internal.Correction.Weighted>
   9.000000E+99

> <Gold.Protein.RotatedTorsions>
[ 6907 6896 6895 6894 ] final  144.81 input  -60.11 | X-H torsion
[ 7974 7965 7964 7962 ] final  -95.97 input  175.53 | X-H torsion
[ 8008 7997 7996 7995 ] final  159.04 input   59.86 | X-H torsion
[ 10167 10162 10161 10158 ] final  -84.71 input  -65.29 | X-H torsion
[ 10718 10713 10712 10709 ] final  159.77 input   66.30 | X-H torsion
[ 10763 10752 10751 10750 ] final   18.31 input  -60.55 | X-H torsion
[ 11005 11000 10999 10996 ] final   77.07 input  -57.11 | X-H torsion

> <Gold.Protein.ActiveResidues>
 VAL166  LYS551  ARG553  GLY616  TRP617  ASP618  TYR619  PRO620  LYS621  CYS622 
 ASP623  PHE694  ASN695  SER759  ASP760  ASP761  ALA762  ILE779  LEU786  VAL792 
 PHE793  MET794  SER795  GLU796  ALA797  LYS798  CYS799  TRP800  GLU811  SER814 

> <Gold.Protein.RotatedAtoms>
  152.1889  133.4759  159.4997 H   0  0  0  0  0  0  0  0  0  0  0  0  # atno 6907 bound_to 6896
  150.6947  134.1738  159.4231 H   0  0  0  0  0  0  0  0  0  0  0  0  # atno 6908 bound_to 6896
  151.9651  135.0104  160.0600 H   0  0  0  0  0  0  0  0  0  0  0  0  # atno 6909 bound_to 6896
  145.3530  140.9480  143.2543 H   0  0  0  0  0  0  0  0  0  0  0  0  # atno 7974 bound_to 7965
  156.2265  140.1842  156.7351 H   0  0  0  0  0  0  0  0  0  0  0  0  # atno 8008 bound_to 7997
  154.5949  140.0645  156.9318 H   0  0  0  0  0  0  0  0  0  0  0  0  # atno 8009 bound_to 7997
  155.2273  140.3312  155.4310 H   0  0  0  0  0  0  0  0  0  0  0  0  # atno 8010 bound_to 7997
  140.4106  143.2624  151.9022 H   0  0  0  0  0  0  0  0  0  0  0  0  # atno 10167 bound_to 10162
  157.1596  131.0584  151.2239 H   0  0  0  0  0  0  0  0  0  0  0  0  # atno 10718 bound_to 10713
  153.1260  135.6730  153.9256 H   0  0  0  0  0  0  0  0  0  0  0  0  # atno 10763 bound_to 10752
  153.8757  135.3064  155.3445 H   0  0  0  0  0  0  0  0  0  0  0  0  # atno 10764 bound_to 10752
  154.7665  135.4961  153.9645 H   0  0  0  0  0  0  0  0  0  0  0  0  # atno 10765 bound_to 10752
  139.9270  134.7653  156.1475 H   0  0  0  0  0  0  0  0  0  0  0  0  # atno 11005 bound_to 11000
  144.8703  139.5048  143.6771 LP  0  0  0  0  0  0  0  0  0  0  0  0  # atno 17320 bound_to 7965
  146.2960  139.7278  142.9126 LP  0  0  0  0  0  0  0  0  0  0  0  0  # atno 17321 bound_to 7965
  139.4782  144.5540  151.8342 LP  0  0  0  0  0  0  0  0  0  0  0  0  # atno 17342 bound_to 10162
  140.4641  144.1680  150.5909 LP  0  0  0  0  0  0  0  0  0  0  0  0  # atno 17343 bound_to 10162
  157.4145  130.7403  149.6864 LP  0  0  0  0  0  0  0  0  0  0  0  0  # atno 17370 bound_to 10713
  155.9756  130.4087  150.3838 LP  0  0  0  0  0  0  0  0  0  0  0  0  # atno 17371 bound_to 10713
  141.0835  133.6744  156.2386 LP  0  0  0  0  0  0  0  0  0  0  0  0  # atno 17394 bound_to 11000
  140.6307  134.5266  157.5559 LP  0  0  0  0  0  0  0  0  0  0  0  0  # atno 17395 bound_to 11000

$$$$
