AV-unprocessed.smi:270|AV-procd|sdf|2048|dock10
  -GOLD-   2262021273D 1   1.00000     0.00000
 Structure written by MMmdl.
 54 57  0  0  0  0  0  0  0  0  1 V2000
  145.1205  135.5447  150.9912 C   0  0  0  0  0  0  0  0  0  0  0  0
  144.1612  136.3180  151.9093 C   0  0  1  0  0  0  0  0  0  0  0  0
  143.6716  135.4020  152.8862 O   0  0  0  0  0  0  0  0  0  0  0  0
  143.4232  136.1031  154.0918 C   0  0  0  0  0  0  0  0  0  0  0  0
  144.6011  137.0623  154.1599 C   0  0  0  0  0  0  0  0  0  0  0  0
  144.7642  137.5077  152.7095 C   0  0  2  0  0  0  0  0  0  0  0  0
  143.9246  138.6326  152.5052 O   0  0  0  0  0  0  0  0  0  0  0  0
  146.2143  137.9207  152.3436 C   0  0  0  0  0  0  0  0  0  0  0  0
  146.8464  138.7647  153.3467 N   0  0  0  0  0  0  0  0  0  0  0  0
  146.8866  140.1403  153.3552 C   0  0  0  0  0  0  0  0  0  0  0  0
  147.5079  140.6719  154.3718 N   0  0  0  0  0  0  0  0  0  0  0  0
  147.9458  139.5818  155.1155 C   0  0  0  0  0  0  0  0  0  0  0  0
  148.6819  139.4483  156.3293 C   0  0  0  0  0  0  0  0  0  0  0  0
  149.1462  140.5442  157.1126 N   0  0  0  0  0  0  0  0  0  0  0  0
  149.0570  141.8620  156.5009 C   0  0  0  0  0  0  0  0  0  0  0  0
  150.4435  142.1400  157.0908 C   0  0  0  0  0  0  0  0  0  0  0  0
  150.4152  142.8844  158.2988 O   0  0  0  0  0  0  0  0  0  0  0  0
  151.7058  143.2828  158.7329 C   0  0  0  0  0  0  0  0  0  0  0  0
  151.6703  143.5050  160.2495 C   0  0  0  0  0  0  0  0  0  0  0  0
  150.9220  144.3770  160.6935 O   0  0  0  0  0  0  0  0  0  0  0  0
  152.4541  142.7447  161.0494 N   0  0  0  0  0  0  0  0  0  0  0  0
  152.5069  142.9022  162.5063 C   0  0  0  0  0  0  0  0  0  0  0  0
  153.3115  141.7060  160.4718 C   0  0  0  0  0  0  0  0  0  0  0  0
  150.5818  140.6386  157.3487 C   0  0  0  0  0  0  0  0  0  0  0  0
  148.8959  138.1778  156.7653 N   0  0  0  0  0  0  0  0  0  0  0  0
  148.4611  137.1244  156.0682 C   0  0  0  0  0  0  0  0  0  0  0  0
  147.7822  137.1078  154.9212 N   0  0  0  0  0  0  0  0  0  0  0  0
  147.5373  138.3735  154.4805 C   0  0  0  0  0  0  0  0  0  0  0  0
  145.5211  136.1829  150.2036 H   0  0  0  0  0  0  0  0  0  0  0  0
  144.6029  134.7171  150.5058 H   0  0  0  0  0  0  0  0  0  0  0  0
  145.9566  135.1230  151.5494 H   0  0  0  0  0  0  0  0  0  0  0  0
  143.3100  136.6525  151.3130 H   0  0  0  0  0  0  0  0  0  0  0  0
  142.4773  136.6420  154.0196 H   0  0  0  0  0  0  0  0  0  0  0  0
  143.3759  135.4293  154.9475 H   0  0  0  0  0  0  0  0  0  0  0  0
  144.4498  137.8832  154.8625 H   0  0  0  0  0  0  0  0  0  0  0  0
  145.4816  136.5062  154.4827 H   0  0  0  0  0  0  0  0  0  0  0  0
  143.8916  138.8163  151.5789 H   0  0  0  0  0  0  0  0  0  0  0  0
  146.8412  137.0393  152.2062 H   0  0  0  0  0  0  0  0  0  0  0  0
  146.2270  138.4596  151.3954 H   0  0  0  0  0  0  0  0  0  0  0  0
  146.4296  140.7410  152.5820 H   0  0  0  0  0  0  0  0  0  0  0  0
  149.0574  141.8356  155.4102 H   0  0  0  0  0  0  0  0  0  0  0  0
  148.2512  142.4742  156.9064 H   0  0  0  0  0  0  0  0  0  0  0  0
  151.1692  142.5106  156.3652 H   0  0  0  0  0  0  0  0  0  0  0  0
  152.4299  142.5016  158.4956 H   0  0  0  0  0  0  0  0  0  0  0  0
  152.0392  144.1893  158.2268 H   0  0  0  0  0  0  0  0  0  0  0  0
  152.7848  143.9205  162.7794 H   0  0  0  0  0  0  0  0  0  0  0  0
  153.2371  142.2426  162.9749 H   0  0  0  0  0  0  0  0  0  0  0  0
  151.5392  142.6770  162.9555 H   0  0  0  0  0  0  0  0  0  0  0  0
  152.7205  141.0072  159.8779 H   0  0  0  0  0  0  0  0  0  0  0  0
  153.8385  141.1200  161.2246 H   0  0  0  0  0  0  0  0  0  0  0  0
  154.0632  142.1533  159.8199 H   0  0  0  0  0  0  0  0  0  0  0  0
  150.8768  140.3777  158.3654 H   0  0  0  0  0  0  0  0  0  0  0  0
  151.1898  140.1385  156.5931 H   0  0  0  0  0  0  0  0  0  0  0  0
  148.6871  136.1573  156.4926 H   0  0  0  0  0  0  0  0  0  0  0  0
  1  2  1  0  0  0  0
  1 29  1  0  0  0  0
  1 30  1  0  0  0  0
  1 31  1  0  0  0  0
  2  6  1  0  0  0  0
  2  3  1  0  0  0  0
  2 32  1  0  0  0  0
  3  4  1  0  0  0  0
  4  5  1  0  0  0  0
  4 33  1  0  0  0  0
  4 34  1  0  0  0  0
  5  6  1  0  0  0  0
  5 35  1  0  0  0  0
  5 36  1  0  0  0  0
  6  7  1  0  0  0  0
  6  8  1  0  0  0  0
  7 37  1  0  0  0  0
  8  9  1  0  0  0  0
  8 38  1  0  0  0  0
  8 39  1  0  0  0  0
  9 28  1  0  0  0  0
  9 10  1  0  0  0  0
 10 11  2  0  0  0  0
 10 40  1  0  0  0  0
 11 12  1  0  0  0  0
 12 28  2  0  0  0  0
 12 13  1  0  0  0  0
 13 14  1  0  0  0  0
 13 25  2  0  0  0  0
 14 24  1  0  0  0  0
 14 15  1  0  0  0  0
 15 16  1  0  0  0  0
 15 41  1  0  0  0  0
 15 42  1  0  0  0  0
 16 17  1  0  0  0  0
 16 24  1  0  0  0  0
 16 43  1  0  0  0  0
 17 18  1  0  0  0  0
 18 19  1  0  0  0  0
 18 44  1  0  0  0  0
 18 45  1  0  0  0  0
 19 20  2  0  0  0  0
 19 21  1  0  0  0  0
 21 22  1  0  0  0  0
 21 23  1  0  0  0  0
 22 46  1  0  0  0  0
 22 47  1  0  0  0  0
 22 48  1  0  0  0  0
 23 49  1  0  0  0  0
 23 50  1  0  0  0  0
 23 51  1  0  0  0  0
 24 52  1  0  0  0  0
 24 53  1  0  0  0  0
 25 26  1  0  0  0  0
 26 27  2  0  0  0  0
 26 54  1  0  0  0  0
 27 28  1  0  0  0  0
M  END
> <s_m_source_file>
AV-unprocessed.smi

> <i_m_source_file_index>
270

> <i_lp_mmshare_version>
43012

> <i_f3d_flags>
0

> <s_epik_input>
W0NIMl0xW0NIMl1PW0NAQEhdKFtDSDNdKVtDQEBdMShbT0hdKVtDSDJdbihbY0hdbjIpYyhjMjMpbltjSF1uYzNONFtDSDJdW0NIXShbQ0gyXTQpT1tDSDJdQyg9TylOKFtDSDNdKVtDSDNd

> <s_epik_cmdline>
J2VwaWtfcHl0aG9uJywgJy1waCcsICc3LjAnLCAnLXRuJywgJzgnLCAnLW1hJywgJzIwMCcsICctbWV0YWxfYmluZGluZycsICctaW1hZScsICc8aW5maWxlLm1hZT4nLCAnLW9tYWUnLCAnPG91dGZpbGUubWFlPic=

> <r_lp_tautomer_probability>
1

> <r_epik_Ionization_Penalty>
0.00375854

> <r_epik_Ionization_Penalty_Charging>
0

> <r_epik_Ionization_Penalty_Neutral>
0.00375854

> <r_epik_State_Penalty>
-0

> <r_epik_Charging_Adjusted_Penalty>
0

> <i_epik_Tot_Q>
0

> <i_epik_Tot_abs_Q>
0

> <r_epik_Metal_State_Penalty>
-0

> <b_epik_Metal_Only>
0

> <s_lp_Force_Field>
OPLS_2005

> <r_lp_Energy>
53.4022

> <b_lp_Chiralities_Consistent>
1

> <s_lp_Variant>
AV-unprocessed.smi:270-4

> <Gold.Version>
5.8.1

> <Gold.Id.Protein>
6NUR|6NUR_protein|mol2

> <Gold.PLP.Fitness>
43.8125

> <Gold.PLP.PLP>
-39.6013

> <Gold.PLP.part.hbond>
-1.1633

> <Gold.PLP.part.metal>
0.0000

> <Gold.PLP.part.buried>
-6.2588

> <Gold.PLP.part.nonpolar>
-34.7937

> <Gold.PLP.part.repulsive>
1.7244

> <Gold.PLP.ligand.clash>
0.0000

> <Gold.PLP.ligand.torsion>
0.9702

> <Gold.PLP.Chemscore.Hbond>
1.0000

> <Gold.PLP.Chemscore.CHOScore>
0.9487

> <Gold.PLP.Chemscore.Metal>
0.0000

> <Gold.Chemscore.Hbonds>
donor molecule, donor type, donor heavy atom, donor atom, acceptor molecule, acceptor atom, score
      L1  H     7    37       P1 10171  1.00
      L1  C    10    40       P1 10175  0.31

> <Gold.PLP.Chemscore.Internal.Correction>
0.3056

> <Gold.Rescore>
     Score         DG    S(hbond)    S(metal)    S(lipo)     H(rot)  DE(clash)    DE(int)     intcor
      7.48      -9.74       0.96        0.00      77.45       3.12       0.31       1.96       ----

> <Gold.Chemscore.Fitness>
7.4815

> <Gold.Chemscore.DG>
-9.7436

> <Gold.Chemscore.ZeroCoef>
-5.4800

> <Gold.Chemscore.Hbond>
0.9575

> <Gold.Chemscore.Metal>
0.0000

> <Gold.Chemscore.Lipo>
77.4489

> <Gold.Chemscore.Internal_Hbond>
0.0000

> <Gold.Chemscore.DEClash>
0.3062

> <Gold.Chemscore.DEInternal>
1.9560

> <Gold.Chemscore.Rot>
3.1234

> <Gold.Chemscore.Internal.Correction>
   9.000000E+99

> <Gold.Chemscore.Hbonds>
donor molecule, donor type, donor heavy atom, donor atom, acceptor molecule, acceptor atom, score
      L1  H     7    37       P1 10171  0.82

> <Gold.Chemscore.Hbond.Weighted>
-3.1980

> <Gold.Chemscore.Metal.Weighted>
-0.0000

> <Gold.Chemscore.Lipo.Weighted>
-9.0615

> <Gold.Chemscore.Internal_Hbond.Weighted>
0.0000

> <Gold.Chemscore.DEClash.Weighted>
0.3062

> <Gold.Chemscore.DEInternal.Weighted>
1.9560

> <Gold.Chemscore.Rot.Weighted>
7.9959

> <Gold.Chemscore.Internal.Correction.Weighted>
   9.000000E+99

> <Gold.Protein.RotatedTorsions>
[ 6907 6896 6895 6894 ] final -138.07 input  -60.11 | X-H torsion
[ 7974 7965 7964 7962 ] final  -24.35 input  175.53 | X-H torsion
[ 8008 7997 7996 7995 ] final  -11.21 input   59.86 | X-H torsion
[ 10167 10162 10161 10158 ] final  -30.21 input  -65.29 | X-H torsion
[ 10718 10713 10712 10709 ] final -150.39 input   66.30 | X-H torsion
[ 10763 10752 10751 10750 ] final -166.11 input  -60.55 | X-H torsion
[ 11005 11000 10999 10996 ] final  146.41 input  -57.11 | X-H torsion

> <Gold.Protein.ActiveResidues>
 VAL166  LYS551  ARG553  GLY616  TRP617  ASP618  TYR619  PRO620  LYS621  CYS622 
 ASP623  PHE694  ASN695  SER759  ASP760  ASP761  ALA762  ILE779  LEU786  VAL792 
 PHE793  MET794  SER795  GLU796  ALA797  LYS798  CYS799  TRP800  GLU811  SER814 

> <Gold.Protein.RotatedAtoms>
  151.0304  133.5796  159.2661 H   0  0  0  0  0  0  0  0  0  0  0  0  # atno 6907 bound_to 6896
  151.2880  135.0732  159.9203 H   0  0  0  0  0  0  0  0  0  0  0  0  # atno 6908 bound_to 6896
  152.5343  134.0007  159.7947 H   0  0  0  0  0  0  0  0  0  0  0  0  # atno 6909 bound_to 6896
  146.1560  140.4739  142.8591 H   0  0  0  0  0  0  0  0  0  0  0  0  # atno 7974 bound_to 7965
  154.5485  140.2308  155.8524 H   0  0  0  0  0  0  0  0  0  0  0  0  # atno 8008 bound_to 7997
  156.1925  140.3073  155.9322 H   0  0  0  0  0  0  0  0  0  0  0  0  # atno 8009 bound_to 7997
  155.3117  140.0436  157.3026 H   0  0  0  0  0  0  0  0  0  0  0  0  # atno 8010 bound_to 7997
  140.7252  143.3866  151.1503 H   0  0  0  0  0  0  0  0  0  0  0  0  # atno 10167 bound_to 10162
  156.4455  130.8142  151.2373 H   0  0  0  0  0  0  0  0  0  0  0  0  # atno 10718 bound_to 10713
  154.6866  135.2963  154.9539 H   0  0  0  0  0  0  0  0  0  0  0  0  # atno 10763 bound_to 10752
  154.0516  135.6643  153.4805 H   0  0  0  0  0  0  0  0  0  0  0  0  # atno 10764 bound_to 10752
  153.0583  135.5131  154.7936 H   0  0  0  0  0  0  0  0  0  0  0  0  # atno 10765 bound_to 10752
  140.0791  134.9108  157.1471 H   0  0  0  0  0  0  0  0  0  0  0  0  # atno 11005 bound_to 11000
  144.7964  140.6131  143.6507 LP  0  0  0  0  0  0  0  0  0  0  0  0  # atno 17320 bound_to 7965
  145.4707  139.1504  143.3816 LP  0  0  0  0  0  0  0  0  0  0  0  0  # atno 17321 bound_to 7965
  139.7465  143.8844  152.3065 LP  0  0  0  0  0  0  0  0  0  0  0  0  # atno 17342 bound_to 10162
  139.8683  144.7081  150.9017 LP  0  0  0  0  0  0  0  0  0  0  0  0  # atno 17343 bound_to 10162
  157.7505  131.0154  150.3505 LP  0  0  0  0  0  0  0  0  0  0  0  0  # atno 17370 bound_to 10713
  156.3872  130.3891  149.7057 LP  0  0  0  0  0  0  0  0  0  0  0  0  # atno 17371 bound_to 10713
  140.3515  134.2594  155.7198 LP  0  0  0  0  0  0  0  0  0  0  0  0  # atno 17394 bound_to 11000
  141.2040  133.7897  157.0310 LP  0  0  0  0  0  0  0  0  0  0  0  0  # atno 17395 bound_to 11000

$$$$
