AV-unprocessed.smi:1703|AV-procd|sdf|6862|dock10
  -GOLD-   22720 8 53D 1   1.00000     0.00000
 Structure written by MMmdl.
 49 51  0  0  0  0  0  0  0  0  2 V2000
  149.2608  141.4009  154.8739 C   0  0  0  0  0  0  0  0  0  0  0  0
  149.9064  140.0233  155.0589 C   0  0  1  0  0  0  0  0  0  0  0  0
  149.2852  138.9641  154.1223 C   0  0  0  0  0  0  0  0  0  0  0  0
  150.0011  137.6652  154.2074 N   0  3  2  0  0  0  0  0  0  0  0  0
  149.6613  136.8408  155.3984 C   0  0  0  0  0  0  0  0  0  0  0  0
  150.3522  135.4635  155.3788 C   0  0  1  0  0  0  0  0  0  0  0  0
  151.5916  135.5667  156.0536 O   0  0  0  0  0  0  0  0  0  0  0  0
  149.4810  134.3851  156.0534 C   0  0  0  0  0  0  0  0  0  0  0  0
  149.2552  133.2226  155.2048 N   0  0  0  0  0  0  0  0  0  0  0  0
  148.2615  133.0221  154.3022 C   0  0  0  0  0  0  0  0  0  0  0  0
  147.1920  134.0399  154.0467 C   0  0  0  0  0  0  0  0  0  0  0  0
  147.2541  134.5835  152.7456 O   0  0  0  0  0  0  0  0  0  0  0  0
  148.2908  131.8559  153.6566 N   0  0  0  0  0  0  0  0  0  0  0  0
  149.4036  131.2386  154.1933 C   0  0  0  0  0  0  0  0  0  0  0  0
  149.9704  129.9721  153.9244 C   0  0  0  0  0  0  0  0  0  0  0  0
  151.1285  129.5485  154.6088 C   0  0  0  0  0  0  0  0  0  0  0  0
  151.7354  130.3833  155.5692 C   0  0  0  0  0  0  0  0  0  0  0  0
  151.1869  131.6488  155.8525 C   0  0  0  0  0  0  0  0  0  0  0  0
  150.0304  132.0671  155.1668 C   0  0  0  0  0  0  0  0  0  0  0  0
  151.4584  137.8624  154.0156 C   0  0  0  0  0  0  0  0  0  0  0  0
  152.0103  138.9298  154.9814 C   0  0  1  0  0  0  0  0  0  0  0  0
  153.4993  139.2046  154.7458 C   0  0  0  0  0  0  0  0  0  0  0  0
  151.2967  140.1447  154.7774 O   0  0  0  0  0  0  0  0  0  0  0  0
  148.1923  141.3656  155.0885 H   0  0  0  0  0  0  0  0  0  0  0  0
  149.3854  141.7627  153.8527 H   0  0  0  0  0  0  0  0  0  0  0  0
  149.7090  142.1350  155.5438 H   0  0  0  0  0  0  0  0  0  0  0  0
  149.7787  139.7285  156.1011 H   0  0  0  0  0  0  0  0  0  0  0  0
  148.2234  138.8417  154.3330 H   0  0  0  0  0  0  0  0  0  0  0  0
  149.3501  139.3131  153.0906 H   0  0  0  0  0  0  0  0  0  0  0  0
  149.9646  137.3633  156.3071 H   0  0  0  0  0  0  0  0  0  0  0  0
  148.5807  136.7201  155.4715 H   0  0  0  0  0  0  0  0  0  0  0  0
  150.5561  135.1581  154.3536 H   0  0  0  0  0  0  0  0  0  0  0  0
  151.7105  134.7984  156.5912 H   0  0  0  0  0  0  0  0  0  0  0  0
  149.9466  134.0497  156.9811 H   0  0  0  0  0  0  0  0  0  0  0  0
  148.5166  134.8043  156.3401 H   0  0  0  0  0  0  0  0  0  0  0  0
  146.2101  133.5960  154.2078 H   0  0  0  0  0  0  0  0  0  0  0  0
  147.2899  134.8531  154.7668 H   0  0  0  0  0  0  0  0  0  0  0  0
  148.1563  134.5886  152.4650 H   0  0  0  0  0  0  0  0  0  0  0  0
  149.5131  129.3252  153.1904 H   0  0  0  0  0  0  0  0  0  0  0  0
  151.5529  128.5784  154.3955 H   0  0  0  0  0  0  0  0  0  0  0  0
  152.6224  130.0512  156.0886 H   0  0  0  0  0  0  0  0  0  0  0  0
  151.6514  132.2889  156.5874 H   0  0  0  0  0  0  0  0  0  0  0  0
  151.9907  136.9174  154.1306 H   0  0  0  0  0  0  0  0  0  0  0  0
  151.6257  138.1820  152.9859 H   0  0  0  0  0  0  0  0  0  0  0  0
  151.8807  138.6039  156.0149 H   0  0  0  0  0  0  0  0  0  0  0  0
  154.0937  138.3032  154.8971 H   0  0  0  0  0  0  0  0  0  0  0  0
  153.8688  139.9649  155.4342 H   0  0  0  0  0  0  0  0  0  0  0  0
  153.6806  139.5585  153.7305 H   0  0  0  0  0  0  0  0  0  0  0  0
  149.6933  137.1138  153.4182 H   0  0  0  0  0  0  0  0  0  0  0  0
  1  2  1  0  0  0  0
  1 24  1  0  0  0  0
  1 25  1  0  0  0  0
  1 26  1  0  0  0  0
  2 23  1  0  0  0  0
  2  3  1  0  0  0  0
  2 27  1  0  0  0  0
  3  4  1  0  0  0  0
  3 28  1  0  0  0  0
  3 29  1  0  0  0  0
  4  5  1  0  0  0  0
  4 20  1  0  0  0  0
  4 49  1  0  0  0  0
  5  6  1  0  0  0  0
  5 30  1  0  0  0  0
  5 31  1  0  0  0  0
  6  7  1  0  0  0  0
  6  8  1  0  0  0  0
  6 32  1  0  0  0  0
  7 33  1  0  0  0  0
  8  9  1  0  0  0  0
  8 34  1  0  0  0  0
  8 35  1  0  0  0  0
  9 19  1  0  0  0  0
  9 10  1  0  0  0  0
 10 11  1  0  0  0  0
 10 13  2  0  0  0  0
 11 12  1  0  0  0  0
 11 36  1  0  0  0  0
 11 37  1  0  0  0  0
 12 38  1  0  0  0  0
 13 14  1  0  0  0  0
 14 19  2  0  0  0  0
 14 15  1  0  0  0  0
 15 16  2  0  0  0  0
 15 39  1  0  0  0  0
 16 17  1  0  0  0  0
 16 40  1  0  0  0  0
 17 18  2  0  0  0  0
 17 41  1  0  0  0  0
 18 19  1  0  0  0  0
 18 42  1  0  0  0  0
 20 21  1  0  0  0  0
 20 43  1  0  0  0  0
 20 44  1  0  0  0  0
 21 22  1  0  0  0  0
 21 23  1  0  0  0  0
 21 45  1  0  0  0  0
 22 46  1  0  0  0  0
 22 47  1  0  0  0  0
 22 48  1  0  0  0  0
M  CHG  1   4   1
M  END
> <s_m_source_file>
AV-unprocessed.smi

> <i_m_source_file_index>
1703

> <i_lp_mmshare_version>
43012

> <i_f3d_flags>
0

> <s_epik_input>
W0NIM11bQ0BASF0xW0NIMl1OKFtDSDJdW0NASF0oTzEpW0NIM10pW0NIMl1bQ0BIXShbT0hdKVtDSDJdbihjKG4yKVtDSDJdW09IXSljKGMyMylbY0hdW2NIXVtjSF1bY0hdMw==

> <s_epik_cmdline>
J2VwaWtfcHl0aG9uJywgJy1waCcsICc3LjAnLCAnLXRuJywgJzgnLCAnLW1hJywgJzIwMCcsICctbWV0YWxfYmluZGluZycsICctaW1hZScsICc8aW5maWxlLm1hZT4nLCAnLW9tYWUnLCAnPG91dGZpbGUubWFlPic=

> <r_epik_Ionization_Penalty>
0.655661

> <r_epik_Ionization_Penalty_Charging>
0.608065

> <r_epik_Ionization_Penalty_Neutral>
0.0475963

> <r_epik_State_Penalty>
0.695267

> <r_epik_Charging_Adjusted_Penalty>
1.30333

> <i_epik_Tot_Q>
1

> <i_epik_Tot_abs_Q>
1

> <r_epik_Metal_State_Penalty>
0.653591

> <b_epik_Metal_Only>
0

> <s_lp_Force_Field>
OPLS_2005

> <r_lp_Energy>
23.9002

> <b_lp_Chiralities_Consistent>
1

> <s_lp_Variant>
AV-unprocessed.smi:1703-10

> <Gold.Version>
5.8.1

> <Gold.Id.Protein>
6NUR|6NUR_protein|mol2

> <Gold.PLP.Fitness>
49.8128

> <Gold.PLP.PLP>
-39.3176

> <Gold.PLP.part.hbond>
-3.8481

> <Gold.PLP.part.metal>
0.0000

> <Gold.PLP.part.buried>
-1.3815

> <Gold.PLP.part.nonpolar>
-34.3821

> <Gold.PLP.part.repulsive>
0.1973

> <Gold.PLP.ligand.clash>
0.0000

> <Gold.PLP.ligand.torsion>
1.5590

> <Gold.PLP.Chemscore.Hbond>
4.5280

> <Gold.PLP.Chemscore.CHOScore>
0.0000

> <Gold.PLP.Chemscore.Metal>
0.0000

> <Gold.Chemscore.Hbonds>
donor molecule, donor type, donor heavy atom, donor atom, acceptor molecule, acceptor atom, score
      L1  H     4    49       P1  7948  2.00
      L1  H    12    38       P1  7948  0.42
      P1  H  7989  7998       L1    23  0.94
      P1  H 10752 10765       L1     7  1.00

> <Gold.PLP.Chemscore.Internal.Correction>
0.0292

> <Gold.Rescore>
     Score         DG    S(hbond)    S(metal)    S(lipo)     H(rot)  DE(clash)    DE(int)     intcor
     18.04     -20.04       3.39        0.00      92.60       2.96       0.38       1.62       ----

> <Gold.Chemscore.Fitness>
18.0356

> <Gold.Chemscore.DG>
-20.0428

> <Gold.Chemscore.ZeroCoef>
-5.4800

> <Gold.Chemscore.Hbond>
3.3859

> <Gold.Chemscore.Metal>
0.0000

> <Gold.Chemscore.Lipo>
92.6005

> <Gold.Chemscore.Internal_Hbond>
0.0000

> <Gold.Chemscore.DEClash>
0.3836

> <Gold.Chemscore.DEInternal>
1.6235

> <Gold.Chemscore.Rot>
2.9611

> <Gold.Chemscore.Internal.Correction>
   9.000000E+99

> <Gold.Chemscore.Hbonds>
donor molecule, donor type, donor heavy atom, donor atom, acceptor molecule, acceptor atom, score
      L1  H     4    49       P1  7948  0.65
      L1  H    12    38       P1  7948  0.15
      P1  H  7989  7998       L1    23  0.75
      P1  H 10752 10765       L1     7  0.38

> <Gold.Chemscore.Hbond.Weighted>
-11.3089

> <Gold.Chemscore.Metal.Weighted>
-0.0000

> <Gold.Chemscore.Lipo.Weighted>
-10.8343

> <Gold.Chemscore.Internal_Hbond.Weighted>
0.0000

> <Gold.Chemscore.DEClash.Weighted>
0.3836

> <Gold.Chemscore.DEInternal.Weighted>
1.6235

> <Gold.Chemscore.Rot.Weighted>
7.5803

> <Gold.Chemscore.Internal.Correction.Weighted>
   9.000000E+99

> <Gold.Protein.RotatedTorsions>
[ 6907 6896 6895 6894 ] final  -19.07 input  -60.11 | X-H torsion
[ 7974 7965 7964 7962 ] final   36.01 input  175.53 | X-H torsion
[ 8008 7997 7996 7995 ] final  -11.63 input   59.86 | X-H torsion
[ 10167 10162 10161 10158 ] final  -91.66 input  -65.29 | X-H torsion
[ 10718 10713 10712 10709 ] final  -32.21 input   66.30 | X-H torsion
[ 10763 10752 10751 10750 ] final -171.99 input  -60.55 | X-H torsion
[ 11005 11000 10999 10996 ] final -152.79 input  -57.11 | X-H torsion

> <Gold.Protein.ActiveResidues>
 VAL166  LYS551  ARG553  GLY616  TRP617  ASP618  TYR619  PRO620  LYS621  CYS622 
 ASP623  PHE694  ASN695  SER759  ASP760  ASP761  ALA762  ILE779  LEU786  VAL792 
 PHE793  MET794  SER795  GLU796  ALA797  LYS798  CYS799  TRP800  GLU811  SER814 

> <Gold.Protein.RotatedAtoms>
  151.2687  135.0677  159.9125 H   0  0  0  0  0  0  0  0  0  0  0  0  # atno 6907 bound_to 6896
  152.5354  134.0154  159.7967 H   0  0  0  0  0  0  0  0  0  0  0  0  # atno 6908 bound_to 6896
  151.0388  133.5674  159.2684 H   0  0  0  0  0  0  0  0  0  0  0  0  # atno 6909 bound_to 6896
  146.1242  139.6071  142.9269 H   0  0  0  0  0  0  0  0  0  0  0  0  # atno 7974 bound_to 7965
  154.5448  140.2297  155.8581 H   0  0  0  0  0  0  0  0  0  0  0  0  # atno 8008 bound_to 7997
  156.1893  140.3081  155.9261 H   0  0  0  0  0  0  0  0  0  0  0  0  # atno 8009 bound_to 7997
  155.3186  140.0439  157.3029 H   0  0  0  0  0  0  0  0  0  0  0  0  # atno 8010 bound_to 7997
  140.3426  143.2934  151.9817 H   0  0  0  0  0  0  0  0  0  0  0  0  # atno 10167 bound_to 10162
  156.3777  130.4350  149.7494 H   0  0  0  0  0  0  0  0  0  0  0  0  # atno 10718 bound_to 10713
  154.6243  135.2879  155.0290 H   0  0  0  0  0  0  0  0  0  0  0  0  # atno 10763 bound_to 10752
  154.1474  135.6509  153.4959 H   0  0  0  0  0  0  0  0  0  0  0  0  # atno 10764 bound_to 10752
  153.0250  135.5347  154.7045 H   0  0  0  0  0  0  0  0  0  0  0  0  # atno 10765 bound_to 10752
  140.7151  134.3789  157.5192 H   0  0  0  0  0  0  0  0  0  0  0  0  # atno 11005 bound_to 11000
  145.5400  141.0421  143.2336 LP  0  0  0  0  0  0  0  0  0  0  0  0  # atno 17320 bound_to 7965
  144.7626  139.6920  143.7228 LP  0  0  0  0  0  0  0  0  0  0  0  0  # atno 17321 bound_to 7965
  139.4838  144.6143  151.7374 LP  0  0  0  0  0  0  0  0  0  0  0  0  # atno 17342 bound_to 10162
  140.5294  144.0754  150.6048 LP  0  0  0  0  0  0  0  0  0  0  0  0  # atno 17343 bound_to 10162
  156.4597  130.7946  151.2966 LP  0  0  0  0  0  0  0  0  0  0  0  0  # atno 17370 bound_to 10713
  157.7489  131.0069  150.3171 LP  0  0  0  0  0  0  0  0  0  0  0  0  # atno 17371 bound_to 10713
  139.8862  134.8917  156.2600 LP  0  0  0  0  0  0  0  0  0  0  0  0  # atno 17394 bound_to 11000
  141.0051  133.7128  156.1022 LP  0  0  0  0  0  0  0  0  0  0  0  0  # atno 17395 bound_to 11000

$$$$
