AV-unprocessed.smi:1912|AV-procd|sdf|7750|dock2
  -GOLD-   22720 9493D 1   1.00000     0.00000
 Structure written by MMmdl.
 44 46  0  0  0  0  0  0  0  0  2 V2000
  155.2065  140.1743  161.4412 C   0  0  0  0  0  0  0  0  0  0  0  0
  154.2551  139.8216  160.4478 O   0  0  0  0  0  0  0  0  0  0  0  0
  153.4550  140.8186  159.9326 C   0  0  0  0  0  0  0  0  0  0  0  0
  153.5379  142.1799  160.3072 C   0  0  0  0  0  0  0  0  0  0  0  0
  152.6862  143.1338  159.7210 C   0  0  0  0  0  0  0  0  0  0  0  0
  151.7284  142.7532  158.7484 C   0  0  0  0  0  0  0  0  0  0  0  0
  150.8849  143.6512  158.1258 O   0  0  0  0  0  0  0  0  0  0  0  0
  151.0226  145.0312  158.4287 C   0  0  0  0  0  0  0  0  0  0  0  0
  151.6360  141.3885  158.3784 C   0  0  0  0  0  0  0  0  0  0  0  0
  150.6371  140.9386  157.3126 C   0  0  2  0  0  0  0  0  0  0  0  0
  149.9106  139.7893  157.6990 O   0  0  0  0  0  0  0  0  0  0  0  0
  151.3129  140.6395  155.9578 C   0  0  0  0  0  0  0  0  0  0  0  0
  150.4259  139.9200  155.0297 N   0  0  0  0  0  0  0  0  0  0  0  0
  150.5698  138.6884  154.4629 C   0  0  0  0  0  0  0  0  0  0  0  0
  151.7154  137.7512  154.6465 C   0  0  0  0  0  0  0  0  0  0  0  0
  149.4622  138.4609  153.7025 N   0  3  0  0  0  0  0  0  0  0  0  0
  148.6009  139.5556  153.7835 C   0  0  0  0  0  0  0  0  0  0  0  0
  147.3598  139.7821  153.1967 C   0  0  0  0  0  0  0  0  0  0  0  0
  146.7342  141.0106  153.4937 C   0  0  0  0  0  0  0  0  0  0  0  0
  147.3437  141.9587  154.3404 C   0  0  0  0  0  0  0  0  0  0  0  0
  148.6045  141.7201  154.9250 C   0  0  0  0  0  0  0  0  0  0  0  0
  149.2155  140.5009  154.6305 C   0  0  0  0  0  0  0  0  0  0  0  0
  152.5012  140.4409  158.9692 C   0  0  0  0  0  0  0  0  0  0  0  0
  155.7537  139.2827  161.7470 H   0  0  0  0  0  0  0  0  0  0  0  0
  154.7226  140.5849  162.3286 H   0  0  0  0  0  0  0  0  0  0  0  0
  155.9336  140.8927  161.0603 H   0  0  0  0  0  0  0  0  0  0  0  0
  154.2513  142.5208  161.0420 H   0  0  0  0  0  0  0  0  0  0  0  0
  152.7919  144.1603  160.0373 H   0  0  0  0  0  0  0  0  0  0  0  0
  150.3308  145.6038  157.8110 H   0  0  0  0  0  0  0  0  0  0  0  0
  152.0303  145.3884  158.2109 H   0  0  0  0  0  0  0  0  0  0  0  0
  150.7812  145.2370  159.4722 H   0  0  0  0  0  0  0  0  0  0  0  0
  149.8872  141.7170  157.1719 H   0  0  0  0  0  0  0  0  0  0  0  0
  149.1442  140.0663  158.1780 H   0  0  0  0  0  0  0  0  0  0  0  0
  151.6843  141.5484  155.4842 H   0  0  0  0  0  0  0  0  0  0  0  0
  152.1850  140.0028  156.1126 H   0  0  0  0  0  0  0  0  0  0  0  0
  151.5770  136.8539  154.0429 H   0  0  0  0  0  0  0  0  0  0  0  0
  151.7964  137.4562  155.6927 H   0  0  0  0  0  0  0  0  0  0  0  0
  152.6469  138.2306  154.3451 H   0  0  0  0  0  0  0  0  0  0  0  0
  146.8906  139.0568  152.5483 H   0  0  0  0  0  0  0  0  0  0  0  0
  145.7675  141.2297  153.0641 H   0  0  0  0  0  0  0  0  0  0  0  0
  146.8337  142.8882  154.5479 H   0  0  0  0  0  0  0  0  0  0  0  0
  149.0566  142.4528  155.5766 H   0  0  0  0  0  0  0  0  0  0  0  0
  152.4444  139.4031  158.6746 H   0  0  0  0  0  0  0  0  0  0  0  0
  149.3068  137.6143  153.1706 H   0  0  0  0  0  0  0  0  0  0  0  0
  1  2  1  0  0  0  0
  1 24  1  0  0  0  0
  1 25  1  0  0  0  0
  1 26  1  0  0  0  0
  2  3  1  0  0  0  0
  3 23  1  0  0  0  0
  3  4  2  0  0  0  0
  4  5  1  0  0  0  0
  4 27  1  0  0  0  0
  5  6  2  0  0  0  0
  5 28  1  0  0  0  0
  6  7  1  0  0  0  0
  6  9  1  0  0  0  0
  7  8  1  0  0  0  0
  8 29  1  0  0  0  0
  8 30  1  0  0  0  0
  8 31  1  0  0  0  0
  9 10  1  0  0  0  0
  9 23  2  0  0  0  0
 10 11  1  0  0  0  0
 10 12  1  0  0  0  0
 10 32  1  0  0  0  0
 11 33  1  0  0  0  0
 12 13  1  0  0  0  0
 12 34  1  0  0  0  0
 12 35  1  0  0  0  0
 13 22  1  0  0  0  0
 13 14  1  0  0  0  0
 14 15  1  0  0  0  0
 14 16  2  0  0  0  0
 15 36  1  0  0  0  0
 15 37  1  0  0  0  0
 15 38  1  0  0  0  0
 16 17  1  0  0  0  0
 16 44  1  0  0  0  0
 17 22  2  0  0  0  0
 17 18  1  0  0  0  0
 18 19  2  0  0  0  0
 18 39  1  0  0  0  0
 19 20  1  0  0  0  0
 19 40  1  0  0  0  0
 20 21  2  0  0  0  0
 20 41  1  0  0  0  0
 21 22  1  0  0  0  0
 21 42  1  0  0  0  0
 23 43  1  0  0  0  0
M  CHG  1  16   1
M  END
> <s_m_source_file>
AV-unprocessed.smi

> <i_m_source_file_index>
1912

> <i_lp_mmshare_version>
43012

> <i_f3d_flags>
0

> <s_epik_input>
W0NIM11PYzFbY0hdW2NIXWMoT1tDSDNdKWMoW2NIXTEpW0NASF0oW09IXSlbQ0gyXW4oYyhuMilbQ0gzXSljKGMyMylbY0hdW2NIXVtjSF1bY0hdMw==

> <s_epik_cmdline>
J2VwaWtfcHl0aG9uJywgJy1waCcsICc3LjAnLCAnLXRuJywgJzgnLCAnLW1hJywgJzIwMCcsICctbWV0YWxfYmluZGluZycsICctaW1hZScsICc8aW5maWxlLm1hZT4nLCAnLW9tYWUnLCAnPG91dGZpbGUubWFlPic=

> <r_lp_tautomer_probability>
1

> <r_epik_Ionization_Penalty>
0.963869

> <r_epik_Ionization_Penalty_Charging>
0.963868

> <r_epik_Ionization_Penalty_Neutral>
1.34362e-06

> <r_epik_State_Penalty>
1.00924

> <r_epik_Charging_Adjusted_Penalty>
1.9731

> <i_epik_Tot_Q>
1

> <i_epik_Tot_abs_Q>
1

> <r_epik_Metal_State_Penalty>
4.98304

> <b_epik_Metal_Only>
0

> <s_lp_Force_Field>
OPLS_2005

> <r_lp_Energy>
21.5299

> <b_lp_Chiralities_Consistent>
1

> <s_lp_Variant>
AV-unprocessed.smi:1912-3

> <Gold.Version>
5.8.1

> <Gold.Id.Protein>
6NUR|6NUR_protein|mol2

> <Gold.PLP.Fitness>
55.6046

> <Gold.PLP.PLP>
-50.4608

> <Gold.PLP.part.hbond>
-2.0000

> <Gold.PLP.part.metal>
0.0000

> <Gold.PLP.part.buried>
0.6962

> <Gold.PLP.part.nonpolar>
-49.2098

> <Gold.PLP.part.repulsive>
0.2043

> <Gold.PLP.ligand.clash>
0.0000

> <Gold.PLP.ligand.torsion>
0.4639

> <Gold.PLP.Chemscore.Hbond>
2.0000

> <Gold.PLP.Chemscore.CHOScore>
0.0000

> <Gold.PLP.Chemscore.Metal>
0.0000

> <Gold.Chemscore.Hbonds>
donor molecule, donor type, donor heavy atom, donor atom, acceptor molecule, acceptor atom, score
      L1  H    16    44       P1  7948  2.00

> <Gold.PLP.Chemscore.Internal.Correction>
0.0716

> <Gold.Rescore>
     Score         DG    S(hbond)    S(metal)    S(lipo)     H(rot)  DE(clash)    DE(int)     intcor
     17.86     -18.62       0.98        0.00     133.48       2.24       0.06       0.70       ----

> <Gold.Chemscore.Fitness>
17.8637

> <Gold.Chemscore.DG>
-18.6204

> <Gold.Chemscore.ZeroCoef>
-5.4800

> <Gold.Chemscore.Hbond>
0.9791

> <Gold.Chemscore.Metal>
0.0000

> <Gold.Chemscore.Lipo>
133.4784

> <Gold.Chemscore.Internal_Hbond>
0.0000

> <Gold.Chemscore.DEClash>
0.0550

> <Gold.Chemscore.DEInternal>
0.7016

> <Gold.Chemscore.Rot>
2.2448

> <Gold.Chemscore.Internal.Correction>
   9.000000E+99

> <Gold.Chemscore.Hbonds>
donor molecule, donor type, donor heavy atom, donor atom, acceptor molecule, acceptor atom, score
      L1  H    16    44       P1  7948  0.97

> <Gold.Chemscore.Hbond.Weighted>
-3.2701

> <Gold.Chemscore.Metal.Weighted>
-0.0000

> <Gold.Chemscore.Lipo.Weighted>
-15.6170

> <Gold.Chemscore.Internal_Hbond.Weighted>
0.0000

> <Gold.Chemscore.DEClash.Weighted>
0.0550

> <Gold.Chemscore.DEInternal.Weighted>
0.7016

> <Gold.Chemscore.Rot.Weighted>
5.7467

> <Gold.Chemscore.Internal.Correction.Weighted>
   9.000000E+99

> <Gold.Protein.RotatedTorsions>
[ 6907 6896 6895 6894 ] final  -38.72 input  -60.11 | X-H torsion
[ 7974 7965 7964 7962 ] final   32.90 input  175.53 | X-H torsion
[ 8008 7997 7996 7995 ] final  116.96 input   59.86 | X-H torsion
[ 10167 10162 10161 10158 ] final   13.10 input  -65.29 | X-H torsion
[ 10718 10713 10712 10709 ] final  -46.86 input   66.30 | X-H torsion
[ 10763 10752 10751 10750 ] final   98.81 input  -60.55 | X-H torsion
[ 11005 11000 10999 10996 ] final  167.13 input  -57.11 | X-H torsion

> <Gold.Protein.ActiveResidues>
 VAL166  LYS551  ARG553  GLY616  TRP617  ASP618  TYR619  PRO620  LYS621  CYS622 
 ASP623  PHE694  ASN695  SER759  ASP760  ASP761  ALA762  ILE779  LEU786  VAL792 
 PHE793  MET794  SER795  GLU796  ALA797  LYS798  CYS799  TRP800  GLU811  SER814 

> <Gold.Protein.RotatedAtoms>
  150.9990  134.9306  159.7942 H   0  0  0  0  0  0  0  0  0  0  0  0  # atno 6907 bound_to 6896
  152.5272  134.3180  159.9148 H   0  0  0  0  0  0  0  0  0  0  0  0  # atno 6908 bound_to 6896
  151.3185  133.4008  159.2687 H   0  0  0  0  0  0  0  0  0  0  0  0  # atno 6909 bound_to 6896
  146.1456  139.6466  142.9133 H   0  0  0  0  0  0  0  0  0  0  0  0  # atno 7974 bound_to 7965
  156.2468  140.2906  156.0604 H   0  0  0  0  0  0  0  0  0  0  0  0  # atno 8008 bound_to 7997
  155.1782  140.0403  157.2894 H   0  0  0  0  0  0  0  0  0  0  0  0  # atno 8009 bound_to 7997
  154.6278  140.2492  155.7477 H   0  0  0  0  0  0  0  0  0  0  0  0  # atno 8010 bound_to 7997
  140.6025  143.8575  150.6980 H   0  0  0  0  0  0  0  0  0  0  0  0  # atno 10167 bound_to 10162
  156.2141  130.4162  149.9076 H   0  0  0  0  0  0  0  0  0  0  0  0  # atno 10718 bound_to 10713
  153.2936  135.4135  155.1189 H   0  0  0  0  0  0  0  0  0  0  0  0  # atno 10763 bound_to 10752
  154.8528  135.3524  154.5947 H   0  0  0  0  0  0  0  0  0  0  0  0  # atno 10764 bound_to 10752
  153.6370  135.7058  153.5313 H   0  0  0  0  0  0  0  0  0  0  0  0  # atno 10765 bound_to 10752
  140.2735  134.7807  157.3696 H   0  0  0  0  0  0  0  0  0  0  0  0  # atno 11005 bound_to 11000
  145.4945  141.0438  143.2575 LP  0  0  0  0  0  0  0  0  0  0  0  0  # atno 17320 bound_to 7965
  144.7842  139.6461  143.7141 LP  0  0  0  0  0  0  0  0  0  0  0  0  # atno 17321 bound_to 7965
  140.2125  143.3872  152.1707 LP  0  0  0  0  0  0  0  0  0  0  0  0  # atno 17342 bound_to 10162
  139.5301  144.7149  151.5087 LP  0  0  0  0  0  0  0  0  0  0  0  0  # atno 17343 bound_to 10162
  156.6745  130.8833  151.3567 LP  0  0  0  0  0  0  0  0  0  0  0  0  # atno 17370 bound_to 10713
  157.7054  130.9379  150.0914 LP  0  0  0  0  0  0  0  0  0  0  0  0  # atno 17371 bound_to 10713
  140.1350  134.5046  155.8075 LP  0  0  0  0  0  0  0  0  0  0  0  0  # atno 17394 bound_to 11000
  141.2174  133.6804  156.7108 LP  0  0  0  0  0  0  0  0  0  0  0  0  # atno 17395 bound_to 11000

$$$$
