AV-unprocessed.smi:667|AV-procd|sdf|3255|dock1
  -GOLD-   22720 0203D 1   1.00000     0.00000
 Structure written by MMmdl.
 48 49  0  0  0  0  0  0  0  0  1 V2000
  144.4601  138.5133  155.0292 C   0  0  0  0  0  0  0  0  0  0  0  0
  144.6027  137.5438  153.8909 C   0  0  0  0  0  0  0  0  0  0  0  0
  143.8091  136.4870  153.8517 N   0  0  0  0  0  0  0  0  0  0  0  0
  144.1617  135.8318  152.7281 N   0  0  0  0  0  0  0  0  0  0  0  0
  143.4679  134.6106  152.3685 C   0  0  0  0  0  0  0  0  0  0  0  0
  145.1842  136.4732  152.0576 C   0  0  0  0  0  0  0  0  0  0  0  0
  145.7466  135.9477  150.7762 C   0  0  0  0  0  0  0  0  0  0  0  0
  145.4969  137.5942  152.7797 C   0  0  0  0  0  0  0  0  0  0  0  0
  146.5208  138.6562  152.4631 C   0  0  0  0  0  0  0  0  0  0  0  0
  147.3811  138.8833  153.7046 C   0  0  0  0  0  0  0  0  0  0  0  0
  146.9679  139.5973  154.6178 O   0  0  0  0  0  0  0  0  0  0  0  0
  148.5481  138.2219  153.7433 N   0  0  0  0  0  0  0  0  0  0  0  0
  149.4029  138.0802  154.9179 C   0  0  0  0  0  0  0  0  0  0  0  0
  150.7769  138.7612  154.7281 C   0  0  2  0  0  0  0  0  0  0  0  0
  151.8391  137.8853  154.0874 C   0  0  0  0  0  0  0  0  0  0  0  0
  153.1370  138.6104  154.4481 C   0  0  0  0  0  0  0  0  0  0  0  0
  152.8449  139.4261  155.5805 O   0  0  0  0  0  0  0  0  0  0  0  0
  151.5095  139.1904  156.0097 C   0  0  1  0  0  0  0  0  0  0  0  0
  150.9287  140.4057  156.7651 C   0  0  0  0  0  0  0  0  0  0  0  0
  150.7820  141.6606  155.8870 C   0  0  0  0  0  0  0  0  0  0  0  0
  151.7596  140.7121  158.0205 C   0  0  0  0  0  0  0  0  0  0  0  0
  144.9442  139.4645  154.8095 H   0  0  0  0  0  0  0  0  0  0  0  0
  144.9099  138.1149  155.9386 H   0  0  0  0  0  0  0  0  0  0  0  0
  143.4106  138.7230  155.2393 H   0  0  0  0  0  0  0  0  0  0  0  0
  144.1842  133.7931  152.2843 H   0  0  0  0  0  0  0  0  0  0  0  0
  142.9649  134.7449  151.4107 H   0  0  0  0  0  0  0  0  0  0  0  0
  142.7244  134.3520  153.1239 H   0  0  0  0  0  0  0  0  0  0  0  0
  146.5162  136.6095  150.3795 H   0  0  0  0  0  0  0  0  0  0  0  0
  144.9673  135.8552  150.0197 H   0  0  0  0  0  0  0  0  0  0  0  0
  146.1939  134.9649  150.9239 H   0  0  0  0  0  0  0  0  0  0  0  0
  147.1572  138.3700  151.6252 H   0  0  0  0  0  0  0  0  0  0  0  0
  146.0486  139.5961  152.1760 H   0  0  0  0  0  0  0  0  0  0  0  0
  148.8013  137.6743  152.9336 H   0  0  0  0  0  0  0  0  0  0  0  0
  148.8878  138.5265  155.7689 H   0  0  0  0  0  0  0  0  0  0  0  0
  149.5482  137.0298  155.1745 H   0  0  0  0  0  0  0  0  0  0  0  0
  150.6407  139.6267  154.0796 H   0  0  0  0  0  0  0  0  0  0  0  0
  151.8413  136.8901  154.5326 H   0  0  0  0  0  0  0  0  0  0  0  0
  151.7050  137.7714  153.0114 H   0  0  0  0  0  0  0  0  0  0  0  0
  153.9420  137.9091  154.6702 H   0  0  0  0  0  0  0  0  0  0  0  0
  153.4641  139.2542  153.6312 H   0  0  0  0  0  0  0  0  0  0  0  0
  151.5590  138.3433  156.6944 H   0  0  0  0  0  0  0  0  0  0  0  0
  149.9312  140.1315  157.1104 H   0  0  0  0  0  0  0  0  0  0  0  0
  151.7409  141.9701  155.4706 H   0  0  0  0  0  0  0  0  0  0  0  0
  150.3902  142.4965  156.4671 H   0  0  0  0  0  0  0  0  0  0  0  0
  150.0931  141.4983  155.0592 H   0  0  0  0  0  0  0  0  0  0  0  0
  152.7784  141.0018  157.7617 H   0  0  0  0  0  0  0  0  0  0  0  0
  151.8183  139.8423  158.6744 H   0  0  0  0  0  0  0  0  0  0  0  0
  151.3177  141.5251  158.5969 H   0  0  0  0  0  0  0  0  0  0  0  0
  1  2  1  0  0  0  0
  1 22  1  0  0  0  0
  1 23  1  0  0  0  0
  1 24  1  0  0  0  0
  2  8  1  0  0  0  0
  2  3  2  0  0  0  0
  3  4  1  0  0  0  0
  4  5  1  0  0  0  0
  4  6  1  0  0  0  0
  5 25  1  0  0  0  0
  5 26  1  0  0  0  0
  5 27  1  0  0  0  0
  6  7  1  0  0  0  0
  6  8  2  0  0  0  0
  7 28  1  0  0  0  0
  7 29  1  0  0  0  0
  7 30  1  0  0  0  0
  8  9  1  0  0  0  0
  9 10  1  0  0  0  0
  9 31  1  0  0  0  0
  9 32  1  0  0  0  0
 10 11  2  0  0  0  0
 10 12  1  0  0  0  0
 12 13  1  0  0  0  0
 12 33  1  0  0  0  0
 13 14  1  0  0  0  0
 13 34  1  0  0  0  0
 13 35  1  0  0  0  0
 14 18  1  0  0  0  0
 14 15  1  0  0  0  0
 14 36  1  0  0  0  0
 15 16  1  0  0  0  0
 15 37  1  0  0  0  0
 15 38  1  0  0  0  0
 16 17  1  0  0  0  0
 16 39  1  0  0  0  0
 16 40  1  0  0  0  0
 17 18  1  0  0  0  0
 18 19  1  0  0  0  0
 18 41  1  0  0  0  0
 19 20  1  0  0  0  0
 19 21  1  0  0  0  0
 19 42  1  0  0  0  0
 20 43  1  0  0  0  0
 20 44  1  0  0  0  0
 20 45  1  0  0  0  0
 21 46  1  0  0  0  0
 21 47  1  0  0  0  0
 21 48  1  0  0  0  0
M  END
> <s_m_source_file>
AV-unprocessed.smi

> <i_m_source_file_index>
667

> <i_lp_mmshare_version>
43012

> <i_f3d_flags>
0

> <s_epik_input>
W0NIM11jMW5uKFtDSDNdKWMoW0NIM10pYzFbQ0gyXUMoPU8pW05IXVtDSDJdW0NAQEhdMltDSDJdW0NIMl1PW0NASF0yW0NIXShbQ0gzXSlbQ0gzXQ==

> <s_epik_cmdline>
J2VwaWtfcHl0aG9uJywgJy1waCcsICc3LjAnLCAnLXRuJywgJzgnLCAnLW1hJywgJzIwMCcsICctbWV0YWxfYmluZGluZycsICctaW1hZScsICc8aW5maWxlLm1hZT4nLCAnLW9tYWUnLCAnPG91dGZpbGUubWFlPic=

> <r_lp_tautomer_probability>
1

> <r_epik_Ionization_Penalty>
0.00315488

> <r_epik_Ionization_Penalty_Charging>
0

> <r_epik_Ionization_Penalty_Neutral>
0.00315488

> <r_epik_State_Penalty>
0.00222269

> <r_epik_Charging_Adjusted_Penalty>
0.00222269

> <i_epik_Tot_Q>
0

> <i_epik_Tot_abs_Q>
0

> <r_epik_Metal_State_Penalty>
-0

> <b_epik_Metal_Only>
0

> <s_lp_Force_Field>
OPLS_2005

> <r_lp_Energy>
14.51

> <b_lp_Chiralities_Consistent>
1

> <s_lp_Variant>
AV-unprocessed.smi:667-1

> <Gold.Version>
5.8.1

> <Gold.Id.Protein>
6NUR|6NUR_protein|mol2

> <Gold.PLP.Fitness>
40.1565

> <Gold.PLP.PLP>
-35.5420

> <Gold.PLP.part.hbond>
-2.0000

> <Gold.PLP.part.metal>
0.0000

> <Gold.PLP.part.buried>
-6.5274

> <Gold.PLP.part.nonpolar>
-28.2333

> <Gold.PLP.part.repulsive>
0.1696

> <Gold.PLP.ligand.clash>
0.0000

> <Gold.PLP.ligand.torsion>
0.7182

> <Gold.PLP.Chemscore.Hbond>
2.0000

> <Gold.PLP.Chemscore.CHOScore>
0.0000

> <Gold.PLP.Chemscore.Metal>
0.0000

> <Gold.Chemscore.Hbonds>
donor molecule, donor type, donor heavy atom, donor atom, acceptor molecule, acceptor atom, score
      L1  H    12    33       P1  7948  1.00
      P1  H  7997  8008       L1    17  1.00

> <Gold.PLP.Chemscore.Internal.Correction>
0.0510

> <Gold.Rescore>
     Score         DG    S(hbond)    S(metal)    S(lipo)     H(rot)  DE(clash)    DE(int)     intcor
     16.33     -18.34       1.98        0.00      86.56       1.52       0.15       1.86       ----

> <Gold.Chemscore.Fitness>
16.3259

> <Gold.Chemscore.DG>
-18.3353

> <Gold.Chemscore.ZeroCoef>
-5.4800

> <Gold.Chemscore.Hbond>
1.9828

> <Gold.Chemscore.Metal>
0.0000

> <Gold.Chemscore.Lipo>
86.5580

> <Gold.Chemscore.Internal_Hbond>
0.0000

> <Gold.Chemscore.DEClash>
0.1473

> <Gold.Chemscore.DEInternal>
1.8621

> <Gold.Chemscore.Rot>
1.5213

> <Gold.Chemscore.Internal.Correction>
   9.000000E+99

> <Gold.Chemscore.Hbonds>
donor molecule, donor type, donor heavy atom, donor atom, acceptor molecule, acceptor atom, score
      L1  H    12    33       P1  7948  1.00
      P1  H  7997  8008       L1    17  0.50

> <Gold.Chemscore.Hbond.Weighted>
-6.6226

> <Gold.Chemscore.Metal.Weighted>
-0.0000

> <Gold.Chemscore.Lipo.Weighted>
-10.1273

> <Gold.Chemscore.Internal_Hbond.Weighted>
0.0000

> <Gold.Chemscore.DEClash.Weighted>
0.1473

> <Gold.Chemscore.DEInternal.Weighted>
1.8621

> <Gold.Chemscore.Rot.Weighted>
3.8945

> <Gold.Chemscore.Internal.Correction.Weighted>
   9.000000E+99

> <Gold.Protein.RotatedTorsions>
[ 6907 6896 6895 6894 ] final -102.86 input  -60.11 | X-H torsion
[ 7974 7965 7964 7962 ] final  -80.56 input  175.53 | X-H torsion
[ 8008 7997 7996 7995 ] final  -24.70 input   59.86 | X-H torsion
[ 10167 10162 10161 10158 ] final  -53.79 input  -65.29 | X-H torsion
[ 10718 10713 10712 10709 ] final   82.51 input   66.30 | X-H torsion
[ 10763 10752 10751 10750 ] final  -49.10 input  -60.55 | X-H torsion
[ 11005 11000 10999 10996 ] final -141.90 input  -57.11 | X-H torsion

> <Gold.Protein.ActiveResidues>
 VAL166  LYS551  ARG553  GLY616  TRP617  ASP618  TYR619  PRO620  LYS621  CYS622 
 ASP623  PHE694  ASN695  SER759  ASP760  ASP761  ALA762  ILE779  LEU786  VAL792 
 PHE793  MET794  SER795  GLU796  ALA797  LYS798  CYS799  TRP800  GLU811  SER814 

> <Gold.Protein.RotatedAtoms>
  150.7214  134.0517  159.3800 H   0  0  0  0  0  0  0  0  0  0  0  0  # atno 6907 bound_to 6896
  151.8494  135.0560  160.0466 H   0  0  0  0  0  0  0  0  0  0  0  0  # atno 6908 bound_to 6896
  152.2802  133.5427  159.5529 H   0  0  0  0  0  0  0  0  0  0  0  0  # atno 6909 bound_to 6896
  145.5582  140.9486  143.1461 H   0  0  0  0  0  0  0  0  0  0  0  0  # atno 7974 bound_to 7965
  154.4515  140.1946  156.0504 H   0  0  0  0  0  0  0  0  0  0  0  0  # atno 8008 bound_to 7997
  156.0658  140.3291  155.7488 H   0  0  0  0  0  0  0  0  0  0  0  0  # atno 8009 bound_to 7997
  155.5341  140.0580  157.2874 H   0  0  0  0  0  0  0  0  0  0  0  0  # atno 8010 bound_to 7997
  140.6466  143.2539  151.4843 H   0  0  0  0  0  0  0  0  0  0  0  0  # atno 10167 bound_to 10162
  157.6859  131.0051  150.2385 H   0  0  0  0  0  0  0  0  0  0  0  0  # atno 10718 bound_to 10713
  154.0886  135.6580  153.4849 H   0  0  0  0  0  0  0  0  0  0  0  0  # atno 10763 bound_to 10752
  153.0330  135.5197  154.7403 H   0  0  0  0  0  0  0  0  0  0  0  0  # atno 10764 bound_to 10752
  154.6520  135.3002  154.9944 H   0  0  0  0  0  0  0  0  0  0  0  0  # atno 10765 bound_to 10752
  140.8279  134.2552  157.4870 H   0  0  0  0  0  0  0  0  0  0  0  0  # atno 11005 bound_to 11000
  144.7495  139.7230  143.7278 LP  0  0  0  0  0  0  0  0  0  0  0  0  # atno 17320 bound_to 7965
  146.1869  139.5089  142.9830 LP  0  0  0  0  0  0  0  0  0  0  0  0  # atno 17321 bound_to 7965
  139.5677  144.2003  152.1789 LP  0  0  0  0  0  0  0  0  0  0  0  0  # atno 17342 bound_to 10162
  140.1290  144.5305  150.6814 LP  0  0  0  0  0  0  0  0  0  0  0  0  # atno 17343 bound_to 10162
  156.3004  130.3757  149.7756 LP  0  0  0  0  0  0  0  0  0  0  0  0  # atno 17370 bound_to 10713
  156.5388  130.8290  151.3262 LP  0  0  0  0  0  0  0  0  0  0  0  0  # atno 17371 bound_to 10713
  139.8706  134.9570  156.4256 LP  0  0  0  0  0  0  0  0  0  0  0  0  # atno 17394 bound_to 11000
  140.9030  133.7766  155.9702 LP  0  0  0  0  0  0  0  0  0  0  0  0  # atno 17395 bound_to 11000

$$$$
