AV-unprocessed.smi:265|AV-procd|sdf|2015|dock1
  -GOLD-   2262021213D 1   1.00000     0.00000
 Structure written by MMmdl.
 52 56  0  0  0  0  0  0  0  0  1 V2000
  145.9352  137.2695  151.6701 C   0  0  0  0  0  0  0  0  0  0  0  0
  145.7581  137.1840  153.1935 C   0  0  2  0  0  0  0  0  0  0  0  0
  144.5532  137.8290  153.5991 O   0  0  0  0  0  0  0  0  0  0  0  0
  144.7354  138.4651  154.8611 C   0  0  0  0  0  0  0  0  0  0  0  0
  146.1051  138.0118  155.3565 C   0  0  0  0  0  0  0  0  0  0  0  0
  146.8733  137.8057  154.0565 C   0  0  1  0  0  0  0  0  0  0  0  0
  147.9064  136.8632  154.2754 O   0  0  0  0  0  0  0  0  0  0  0  0
  147.4787  139.1095  153.4694 C   0  0  0  0  0  0  0  0  0  0  0  0
  148.1711  139.9311  154.4505 N   0  0  0  0  0  0  0  0  0  0  0  0
  147.6513  140.9918  155.1572 C   0  0  0  0  0  0  0  0  0  0  0  0
  148.4785  141.5665  155.9873 N   0  0  0  0  0  0  0  0  0  0  0  0
  149.6589  140.8463  155.8447 C   0  0  0  0  0  0  0  0  0  0  0  0
  150.9478  140.9249  156.4445 C   0  0  0  0  0  0  0  0  0  0  0  0
  151.2724  141.8656  157.3675 N   0  0  0  0  0  0  0  0  0  0  0  0
  150.4072  143.0468  157.4632 C   0  0  0  0  0  0  0  0  0  0  0  0
  151.0725  144.1636  158.2894 C   0  0  0  0  0  0  0  0  0  0  0  0
  151.5020  143.6157  159.6561 C   0  0  2  0  0  0  0  0  0  0  0  0
  152.2088  144.5819  160.4191 O   0  0  0  0  0  0  0  0  0  0  0  0
  152.4852  144.1559  161.7579 C   0  0  0  0  0  0  0  0  0  0  0  0
  153.0591  142.7243  161.8240 C   0  0  0  0  0  0  0  0  0  0  0  0
  153.5686  142.3168  162.8652 O   0  0  0  0  0  0  0  0  0  0  0  0
  152.9434  141.9438  160.7371 N   0  0  0  0  0  0  0  0  0  0  0  0
  152.4581  142.4301  159.4525 C   0  0  1  0  0  0  0  0  0  0  0  0
  151.7616  141.3274  158.6392 C   0  0  0  0  0  0  0  0  0  0  0  0
  151.8738  140.0065  156.0580 N   0  0  0  0  0  0  0  0  0  0  0  0
  151.5677  139.0818  155.1432 C   0  0  0  0  0  0  0  0  0  0  0  0
  150.4142  138.8955  154.4993 N   0  0  0  0  0  0  0  0  0  0  0  0
  149.4782  139.8076  154.8879 C   0  0  0  0  0  0  0  0  0  0  0  0
  150.6105  143.3033  160.2046 H   0  0  0  0  0  0  0  0  0  0  0  0
  153.3334  142.7700  158.8960 H   0  0  0  0  0  0  0  0  0  0  0  0
  146.8706  136.8053  151.3574 H   0  0  0  0  0  0  0  0  0  0  0  0
  145.9341  138.3015  151.3193 H   0  0  0  0  0  0  0  0  0  0  0  0
  145.1223  136.7529  151.1595 H   0  0  0  0  0  0  0  0  0  0  0  0
  145.6450  136.1337  153.4694 H   0  0  0  0  0  0  0  0  0  0  0  0
  144.7176  139.5454  154.7134 H   0  0  0  0  0  0  0  0  0  0  0  0
  143.9371  138.2064  155.5568 H   0  0  0  0  0  0  0  0  0  0  0  0
  146.5629  138.7121  156.0544 H   0  0  0  0  0  0  0  0  0  0  0  0
  145.9920  137.0619  155.8822 H   0  0  0  0  0  0  0  0  0  0  0  0
  148.3030  136.6552  153.4432 H   0  0  0  0  0  0  0  0  0  0  0  0
  148.1837  138.8766  152.6703 H   0  0  0  0  0  0  0  0  0  0  0  0
  146.6964  139.7170  153.0131 H   0  0  0  0  0  0  0  0  0  0  0  0
  146.6322  141.3293  155.0361 H   0  0  0  0  0  0  0  0  0  0  0  0
  150.1787  143.4229  156.4650 H   0  0  0  0  0  0  0  0  0  0  0  0
  149.4607  142.7612  157.9243 H   0  0  0  0  0  0  0  0  0  0  0  0
  151.9407  144.5506  157.7543 H   0  0  0  0  0  0  0  0  0  0  0  0
  150.3840  144.9994  158.4156 H   0  0  0  0  0  0  0  0  0  0  0  0
  153.1845  144.8557  162.2161 H   0  0  0  0  0  0  0  0  0  0  0  0
  151.5652  144.1905  162.3426 H   0  0  0  0  0  0  0  0  0  0  0  0
  153.2846  140.9944  160.7820 H   0  0  0  0  0  0  0  0  0  0  0  0
  150.9160  140.9242  159.1983 H   0  0  0  0  0  0  0  0  0  0  0  0
  152.4548  140.5021  158.4798 H   0  0  0  0  0  0  0  0  0  0  0  0
  152.3599  138.3920  154.8920 H   0  0  0  0  0  0  0  0  0  0  0  0
  1  2  1  0  0  0  0
  1 31  1  0  0  0  0
  1 32  1  0  0  0  0
  1 33  1  0  0  0  0
  2  6  1  0  0  0  0
  2  3  1  0  0  0  0
  2 34  1  0  0  0  0
  3  4  1  0  0  0  0
  4  5  1  0  0  0  0
  4 35  1  0  0  0  0
  4 36  1  0  0  0  0
  5  6  1  0  0  0  0
  5 37  1  0  0  0  0
  5 38  1  0  0  0  0
  6  7  1  0  0  0  0
  6  8  1  0  0  0  0
  7 39  1  0  0  0  0
  8  9  1  0  0  0  0
  8 40  1  0  0  0  0
  8 41  1  0  0  0  0
  9 28  1  0  0  0  0
  9 10  1  0  0  0  0
 10 11  2  0  0  0  0
 10 42  1  0  0  0  0
 11 12  1  0  0  0  0
 12 28  2  0  0  0  0
 12 13  1  0  0  0  0
 13 14  1  0  0  0  0
 13 25  2  0  0  0  0
 14 24  1  0  0  0  0
 14 15  1  0  0  0  0
 15 16  1  0  0  0  0
 15 43  1  0  0  0  0
 15 44  1  0  0  0  0
 16 17  1  0  0  0  0
 16 45  1  0  0  0  0
 16 46  1  0  0  0  0
 17 29  1  0  0  0  0
 17 23  1  0  0  0  0
 17 18  1  0  0  0  0
 18 19  1  0  0  0  0
 19 20  1  0  0  0  0
 19 47  1  0  0  0  0
 19 48  1  0  0  0  0
 20 21  2  0  0  0  0
 20 22  1  0  0  0  0
 22 23  1  0  0  0  0
 22 49  1  0  0  0  0
 23 30  1  0  0  0  0
 23 24  1  0  0  0  0
 24 50  1  0  0  0  0
 24 51  1  0  0  0  0
 25 26  1  0  0  0  0
 26 27  2  0  0  0  0
 26 52  1  0  0  0  0
 27 28  1  0  0  0  0
M  END
> <s_m_source_file>
AV-unprocessed.smi

> <i_m_source_file_index>
265

> <i_lp_mmshare_version>
43012

> <i_f3d_flags>
0

> <s_epik_input>
W0NIMl0xW0NIMl1PW0NAQEhdKFtDSDNdKVtDQEBdMShbT0hdKVtDSDJdbihbY0hdbjIpYyhjMjMpbltjSF1uYzNOKFtDSDJdW0NIMl00KVtDSDJdW0NAQEhdKFtDQEhdNDUpW05IXUMoPU8pW0NIMl1PNQ==

> <s_epik_cmdline>
J2VwaWtfcHl0aG9uJywgJy1waCcsICc3LjAnLCAnLXRuJywgJzgnLCAnLW1hJywgJzIwMCcsICctbWV0YWxfYmluZGluZycsICctaW1hZScsICc8aW5maWxlLm1hZT4nLCAnLW9tYWUnLCAnPG91dGZpbGUubWFlPic=

> <r_lp_tautomer_probability>
1

> <r_epik_Ionization_Penalty>
0.00221504

> <r_epik_Ionization_Penalty_Charging>
0

> <r_epik_Ionization_Penalty_Neutral>
0.00221504

> <r_epik_State_Penalty>
-0

> <r_epik_Charging_Adjusted_Penalty>
0

> <i_epik_Tot_Q>
0

> <i_epik_Tot_abs_Q>
0

> <r_epik_Metal_State_Penalty>
-0

> <b_epik_Metal_Only>
0

> <s_lp_Force_Field>
OPLS_2005

> <r_lp_Energy>
45.3858

> <b_lp_Chiralities_Consistent>
1

> <s_lp_Variant>
AV-unprocessed.smi:265-1

> <Gold.Version>
5.8.1

> <Gold.Id.Protein>
6NUR|6NUR_protein|mol2

> <Gold.PLP.Fitness>
41.0224

> <Gold.PLP.PLP>
-39.1783

> <Gold.PLP.part.hbond>
-1.1412

> <Gold.PLP.part.metal>
0.0000

> <Gold.PLP.part.buried>
-2.4108

> <Gold.PLP.part.nonpolar>
-35.7802

> <Gold.PLP.part.repulsive>
1.2473

> <Gold.PLP.ligand.clash>
0.0000

> <Gold.PLP.ligand.torsion>
0.7937

> <Gold.PLP.Chemscore.Hbond>
1.0000

> <Gold.PLP.Chemscore.CHOScore>
0.0000

> <Gold.PLP.Chemscore.Metal>
0.0000

> <Gold.Chemscore.Hbonds>
donor molecule, donor type, donor heavy atom, donor atom, acceptor molecule, acceptor atom, score
      L1  H     7    39       P1  7948  1.00

> <Gold.PLP.Chemscore.Internal.Correction>
0.4315

> <Gold.Rescore>
     Score         DG    S(hbond)    S(metal)    S(lipo)     H(rot)  DE(clash)    DE(int)     intcor
     10.66     -13.10       1.03        0.00      84.93       2.25       0.25       2.18       ----

> <Gold.Chemscore.Fitness>
10.6636

> <Gold.Chemscore.DG>
-13.0970

> <Gold.Chemscore.ZeroCoef>
-5.4800

> <Gold.Chemscore.Hbond>
1.0265

> <Gold.Chemscore.Metal>
0.0000

> <Gold.Chemscore.Lipo>
84.9251

> <Gold.Chemscore.Internal_Hbond>
0.0000

> <Gold.Chemscore.DEClash>
0.2528

> <Gold.Chemscore.DEInternal>
2.1806

> <Gold.Chemscore.Rot>
2.2453

> <Gold.Chemscore.Internal.Correction>
   9.000000E+99

> <Gold.Chemscore.Hbonds>
donor molecule, donor type, donor heavy atom, donor atom, acceptor molecule, acceptor atom, score
      L1  H     7    39       P1  7948  1.00

> <Gold.Chemscore.Hbond.Weighted>
-3.4287

> <Gold.Chemscore.Metal.Weighted>
-0.0000

> <Gold.Chemscore.Lipo.Weighted>
-9.9362

> <Gold.Chemscore.Internal_Hbond.Weighted>
0.0000

> <Gold.Chemscore.DEClash.Weighted>
0.2528

> <Gold.Chemscore.DEInternal.Weighted>
2.1806

> <Gold.Chemscore.Rot.Weighted>
5.7479

> <Gold.Chemscore.Internal.Correction.Weighted>
   9.000000E+99

> <Gold.Protein.RotatedTorsions>
[ 6907 6896 6895 6894 ] final   96.56 input  -60.11 | X-H torsion
[ 7974 7965 7964 7962 ] final  155.08 input  175.53 | X-H torsion
[ 8008 7997 7996 7995 ] final  164.99 input   59.86 | X-H torsion
[ 10167 10162 10161 10158 ] final  172.54 input  -65.29 | X-H torsion
[ 10718 10713 10712 10709 ] final  154.05 input   66.30 | X-H torsion
[ 10763 10752 10751 10750 ] final -177.55 input  -60.55 | X-H torsion
[ 11005 11000 10999 10996 ] final  144.98 input  -57.11 | X-H torsion

> <Gold.Protein.ActiveResidues>
 VAL166  LYS551  ARG553  GLY616  TRP617  ASP618  TYR619  PRO620  LYS621  CYS622 
 ASP623  PHE694  ASN695  SER759  ASP760  ASP761  ALA762  ILE779  LEU786  VAL792 
 PHE793  MET794  SER795  GLU796  ALA797  LYS798  CYS799  TRP800  GLU811  SER814 

> <Gold.Protein.RotatedAtoms>
  152.5433  134.0867  159.8258 H   0  0  0  0  0  0  0  0  0  0  0  0  # atno 6907 bound_to 6896
  151.0962  133.5271  159.2619 H   0  0  0  0  0  0  0  0  0  0  0  0  # atno 6908 bound_to 6896
  151.2043  135.0464  159.8939 H   0  0  0  0  0  0  0  0  0  0  0  0  # atno 6909 bound_to 6896
  144.8047  139.7020  143.6167 H   0  0  0  0  0  0  0  0  0  0  0  0  # atno 7974 bound_to 7965
  156.1836  140.1682  156.8227 H   0  0  0  0  0  0  0  0  0  0  0  0  # atno 8008 bound_to 7997
  154.5388  140.0741  156.8507 H   0  0  0  0  0  0  0  0  0  0  0  0  # atno 8009 bound_to 7997
  155.3256  140.3376  155.4242 H   0  0  0  0  0  0  0  0  0  0  0  0  # atno 8010 bound_to 7997
  139.5080  144.3362  152.0063 H   0  0  0  0  0  0  0  0  0  0  0  0  # atno 10167 bound_to 10162
  157.2367  131.0750  151.1818 H   0  0  0  0  0  0  0  0  0  0  0  0  # atno 10718 bound_to 10713
  154.5587  135.2818  155.0939 H   0  0  0  0  0  0  0  0  0  0  0  0  # atno 10763 bound_to 10752
  154.2357  135.6366  153.5194 H   0  0  0  0  0  0  0  0  0  0  0  0  # atno 10764 bound_to 10752
  153.0023  135.5548  154.6175 H   0  0  0  0  0  0  0  0  0  0  0  0  # atno 10765 bound_to 10752
  140.0675  134.9170  157.1290 H   0  0  0  0  0  0  0  0  0  0  0  0  # atno 11005 bound_to 11000
  146.2336  139.5862  142.9538 LP  0  0  0  0  0  0  0  0  0  0  0  0  # atno 17320 bound_to 7965
  145.5466  141.0417  143.2301 LP  0  0  0  0  0  0  0  0  0  0  0  0  # atno 17321 bound_to 7965
  140.2801  144.3869  150.6122 LP  0  0  0  0  0  0  0  0  0  0  0  0  # atno 17342 bound_to 10162
  140.6025  143.2167  151.7045 LP  0  0  0  0  0  0  0  0  0  0  0  0  # atno 17343 bound_to 10162
  157.3421  130.7039  149.6388 LP  0  0  0  0  0  0  0  0  0  0  0  0  # atno 17370 bound_to 10713
  155.9672  130.4277  150.4754 LP  0  0  0  0  0  0  0  0  0  0  0  0  # atno 17371 bound_to 10713
  140.3676  134.2425  155.7181 LP  0  0  0  0  0  0  0  0  0  0  0  0  # atno 17394 bound_to 11000
  141.1999  133.8001  157.0516 LP  0  0  0  0  0  0  0  0  0  0  0  0  # atno 17395 bound_to 11000

$$$$
