AV-unprocessed.smi:21|AV-procd|sdf|168|dock3
  -GOLD-   2262015413D 1   1.00000     0.00000
 Structure written by MMmdl.
 61 64  0  0  0  0  0  0  0  0  1 V2000
  151.2787  145.1942  160.4013 C   0  0  0  0  0  0  0  0  0  0  0  0
  151.4055  143.7828  160.4802 O   0  0  0  0  0  0  0  0  0  0  0  0
  152.2042  143.2353  159.4405 C   0  0  2  0  0  0  0  0  0  0  0  0
  151.3732  142.8829  158.1982 C   0  0  0  0  0  0  0  0  0  0  0  0
  151.8765  141.4897  157.7987 C   0  0  2  0  0  0  0  0  0  0  0  0
  150.8916  140.6933  156.9096 C   0  0  0  0  0  0  0  0  0  0  0  0
  151.4577  139.4615  156.3552 N   0  0  0  0  0  0  0  0  0  0  0  0
  151.8734  139.4802  154.9558 C   0  0  0  0  0  0  0  0  0  0  0  0
  151.0299  138.2819  156.8805 C   0  0  0  0  0  0  0  0  0  0  0  0
  150.7667  138.2060  158.2132 N   0  0  0  0  0  0  0  0  0  0  0  0
  150.4234  137.0427  158.7721 C   0  0  0  0  0  0  0  0  0  0  0  0
  150.2916  135.8481  158.1951 N   0  0  0  0  0  0  0  0  0  0  0  0
  150.5254  135.9185  156.8539 C   0  0  0  0  0  0  0  0  0  0  0  0
  150.8738  137.0872  156.1183 C   0  0  0  0  0  0  0  0  0  0  0  0
  150.9844  136.7731  154.7682 N   0  0  0  0  0  0  0  0  0  0  0  0
  150.7429  135.4929  154.7134 C   0  0  0  0  0  0  0  0  0  0  0  0
  150.5045  134.8903  155.9274 N   0  0  0  0  0  0  0  0  0  0  0  0
  150.2439  133.4801  156.1604 C   0  0  0  0  0  0  0  0  0  0  0  0
  150.0912  132.6337  154.8647 C   0  0  1  0  0  0  0  0  0  0  0  0
  150.4975  131.1700  155.1576 C   0  0  0  0  0  0  0  0  0  0  0  0
  151.8857  131.0604  155.3957 O   0  0  0  0  0  0  0  0  0  0  0  0
  148.6648  132.6874  154.2418 C   0  0  1  0  0  0  0  0  0  0  0  0
  148.2625  133.9850  153.5577 C   0  0  0  0  0  0  0  0  0  0  0  0
  147.1045  133.5406  152.6777 C   0  0  0  0  0  0  0  0  0  0  0  0
  147.4939  132.2636  152.1993 O   0  0  0  0  0  0  0  0  0  0  0  0
  148.4441  131.6891  153.0919 C   0  0  0  0  0  0  0  0  0  0  0  0
  152.1695  140.8563  159.0749 N   0  0  0  0  0  0  0  0  0  0  0  0
  152.9885  139.6559  158.9692 C   0  0  0  0  0  0  0  0  0  0  0  0
  152.8124  141.8923  159.8666 C   0  0  0  0  0  0  0  0  0  0  0  0
  153.0160  143.9189  159.1852 H   0  0  0  0  0  0  0  0  0  0  0  0
  152.8141  141.6181  157.2547 H   0  0  0  0  0  0  0  0  0  0  0  0
  150.6762  145.5563  161.2337 H   0  0  0  0  0  0  0  0  0  0  0  0
  150.7902  145.5033  159.4768 H   0  0  0  0  0  0  0  0  0  0  0  0
  152.2530  145.6807  160.4600 H   0  0  0  0  0  0  0  0  0  0  0  0
  150.3138  142.8346  158.4563 H   0  0  0  0  0  0  0  0  0  0  0  0
  151.4944  143.6214  157.4058 H   0  0  0  0  0  0  0  0  0  0  0  0
  150.0235  140.4016  157.5002 H   0  0  0  0  0  0  0  0  0  0  0  0
  150.4979  141.3426  156.1312 H   0  0  0  0  0  0  0  0  0  0  0  0
  152.5762  138.6724  154.7487 H   0  0  0  0  0  0  0  0  0  0  0  0
  152.3693  140.4212  154.7172 H   0  0  0  0  0  0  0  0  0  0  0  0
  151.0143  139.3724  154.2928 H   0  0  0  0  0  0  0  0  0  0  0  0
  150.2424  137.0704  159.8363 H   0  0  0  0  0  0  0  0  0  0  0  0
  150.7645  134.9444  153.7830 H   0  0  0  0  0  0  0  0  0  0  0  0
  151.0711  133.1103  156.7665 H   0  0  0  0  0  0  0  0  0  0  0  0
  149.3496  133.3833  156.7772 H   0  0  0  0  0  0  0  0  0  0  0  0
  150.7874  133.0134  154.1164 H   0  0  0  0  0  0  0  0  0  0  0  0
  149.9513  130.7811  156.0175 H   0  0  0  0  0  0  0  0  0  0  0  0
  150.2717  130.5164  154.3159 H   0  0  0  0  0  0  0  0  0  0  0  0
  152.3099  130.8021  154.5915 H   0  0  0  0  0  0  0  0  0  0  0  0
  147.9295  132.4794  155.0210 H   0  0  0  0  0  0  0  0  0  0  0  0
  147.9474  134.7617  154.2515 H   0  0  0  0  0  0  0  0  0  0  0  0
  149.0785  134.3710  152.9452 H   0  0  0  0  0  0  0  0  0  0  0  0
  146.1952  133.4332  153.2705 H   0  0  0  0  0  0  0  0  0  0  0  0
  146.8995  134.2360  151.8641 H   0  0  0  0  0  0  0  0  0  0  0  0
  149.3659  131.5216  152.5337 H   0  0  0  0  0  0  0  0  0  0  0  0
  148.0920  130.7231  153.4542 H   0  0  0  0  0  0  0  0  0  0  0  0
  153.2174  139.2607  159.9593 H   0  0  0  0  0  0  0  0  0  0  0  0
  153.9311  139.8633  158.4609 H   0  0  0  0  0  0  0  0  0  0  0  0
  152.4686  138.8734  158.4172 H   0  0  0  0  0  0  0  0  0  0  0  0
  153.8829  141.9126  159.6561 H   0  0  0  0  0  0  0  0  0  0  0  0
  152.6955  141.7008  160.9338 H   0  0  0  0  0  0  0  0  0  0  0  0
  1  2  1  0  0  0  0
  1 32  1  0  0  0  0
  1 33  1  0  0  0  0
  1 34  1  0  0  0  0
  2  3  1  0  0  0  0
  3 30  1  0  0  0  0
  3 29  1  0  0  0  0
  3  4  1  0  0  0  0
  4  5  1  0  0  0  0
  4 35  1  0  0  0  0
  4 36  1  0  0  0  0
  5 31  1  0  0  0  0
  5  6  1  0  0  0  0
  5 27  1  0  0  0  0
  6  7  1  0  0  0  0
  6 37  1  0  0  0  0
  6 38  1  0  0  0  0
  7  8  1  0  0  0  0
  7  9  1  0  0  0  0
  8 39  1  0  0  0  0
  8 40  1  0  0  0  0
  8 41  1  0  0  0  0
  9 14  1  0  0  0  0
  9 10  2  0  0  0  0
 10 11  1  0  0  0  0
 11 12  2  0  0  0  0
 11 42  1  0  0  0  0
 12 13  1  0  0  0  0
 13 17  1  0  0  0  0
 13 14  2  0  0  0  0
 14 15  1  0  0  0  0
 15 16  2  0  0  0  0
 16 17  1  0  0  0  0
 16 43  1  0  0  0  0
 17 18  1  0  0  0  0
 18 19  1  0  0  0  0
 18 44  1  0  0  0  0
 18 45  1  0  0  0  0
 19 20  1  0  0  0  0
 19 22  1  0  0  0  0
 19 46  1  0  0  0  0
 20 21  1  0  0  0  0
 20 47  1  0  0  0  0
 20 48  1  0  0  0  0
 21 49  1  0  0  0  0
 22 26  1  0  0  0  0
 22 23  1  0  0  0  0
 22 50  1  0  0  0  0
 23 24  1  0  0  0  0
 23 51  1  0  0  0  0
 23 52  1  0  0  0  0
 24 25  1  0  0  0  0
 24 53  1  0  0  0  0
 24 54  1  0  0  0  0
 25 26  1  0  0  0  0
 26 55  1  0  0  0  0
 26 56  1  0  0  0  0
 27 28  1  0  0  0  0
 27 29  1  0  0  0  0
 28 57  1  0  0  0  0
 28 58  1  0  0  0  0
 28 59  1  0  0  0  0
 29 60  1  0  0  0  0
 29 61  1  0  0  0  0
M  END
> <s_m_source_file>
AV-unprocessed.smi

> <i_m_source_file_index>
21

> <i_lp_mmshare_version>
43012

> <i_f3d_flags>
0

> <s_epik_input>
W0NIM11PW0NASF0xW0NIMl1bQ0BIXShOKFtDSDNdKVtDSDJdMSlbQ0gyXU4oW0NIM10pYyhuW2NIXW4yKWMoYzIzKW5bY0hdbjNbQ0gyXVtDQEhdKFtDSDJdW09IXSlbQ0BASF00W0NIMl1bQ0gyXU9bQ0gyXTQ=

> <s_epik_cmdline>
J2VwaWtfcHl0aG9uJywgJy1waCcsICc3LjAnLCAnLXRuJywgJzgnLCAnLW1hJywgJzIwMCcsICctbWV0YWxfYmluZGluZycsICctaW1hZScsICc8aW5maWxlLm1hZT4nLCAnLW9tYWUnLCAnPG91dGZpbGUubWFlPic=

> <r_lp_tautomer_probability>
1

> <r_epik_Ionization_Penalty>
2.17574

> <r_epik_Ionization_Penalty_Charging>
0

> <r_epik_Ionization_Penalty_Neutral>
2.17574

> <r_epik_State_Penalty>
2.31336

> <r_epik_Charging_Adjusted_Penalty>
2.31336

> <i_epik_Tot_Q>
0

> <i_epik_Tot_abs_Q>
0

> <r_epik_Metal_State_Penalty>
2.31025

> <b_epik_Metal_Only>
0

> <s_lp_Force_Field>
OPLS_2005

> <r_lp_Energy>
69.8341

> <b_lp_Chiralities_Consistent>
1

> <s_lp_Variant>
AV-unprocessed.smi:21-48

> <Gold.Version>
5.8.1

> <Gold.Id.Protein>
6NUR|6NUR_protein|mol2

> <Gold.PLP.Fitness>
46.2667

> <Gold.PLP.PLP>
-45.1371

> <Gold.PLP.part.hbond>
-1.1375

> <Gold.PLP.part.metal>
0.0000

> <Gold.PLP.part.buried>
-4.5386

> <Gold.PLP.part.nonpolar>
-39.5848

> <Gold.PLP.part.repulsive>
0.9255

> <Gold.PLP.ligand.clash>
0.0000

> <Gold.PLP.ligand.torsion>
1.3857

> <Gold.PLP.Chemscore.Hbond>
0.9600

> <Gold.PLP.Chemscore.CHOScore>
0.1067

> <Gold.PLP.Chemscore.Metal>
0.0000

> <Gold.Chemscore.Hbonds>
donor molecule, donor type, donor heavy atom, donor atom, acceptor molecule, acceptor atom, score
      P1  H  6896  6909       L1    12  0.73
      L1  C    16    43       P1  7949  0.42

> <Gold.PLP.Chemscore.Internal.Correction>
0.7010

> <Gold.Rescore>
     Score         DG    S(hbond)    S(metal)    S(lipo)     H(rot)  DE(clash)    DE(int)     intcor
      8.23     -13.43       0.86        0.00     109.08       3.00       0.16       5.04       ----

> <Gold.Chemscore.Fitness>
8.2317

> <Gold.Chemscore.DG>
-13.4294

> <Gold.Chemscore.ZeroCoef>
-5.4800

> <Gold.Chemscore.Hbond>
0.8608

> <Gold.Chemscore.Metal>
0.0000

> <Gold.Chemscore.Lipo>
109.0783

> <Gold.Chemscore.Internal_Hbond>
0.0000

> <Gold.Chemscore.DEClash>
0.1621

> <Gold.Chemscore.DEInternal>
5.0356

> <Gold.Chemscore.Rot>
3.0031

> <Gold.Chemscore.Internal.Correction>
   9.000000E+99

> <Gold.Chemscore.Hbonds>
donor molecule, donor type, donor heavy atom, donor atom, acceptor molecule, acceptor atom, score
      P1  H  6896  6909       L1    12  0.15

> <Gold.Chemscore.Hbond.Weighted>
-2.8752

> <Gold.Chemscore.Metal.Weighted>
-0.0000

> <Gold.Chemscore.Lipo.Weighted>
-12.7622

> <Gold.Chemscore.Internal_Hbond.Weighted>
0.0000

> <Gold.Chemscore.DEClash.Weighted>
0.1621

> <Gold.Chemscore.DEInternal.Weighted>
5.0356

> <Gold.Chemscore.Rot.Weighted>
7.6880

> <Gold.Chemscore.Internal.Correction.Weighted>
   9.000000E+99

> <Gold.Protein.RotatedTorsions>
[ 6907 6896 6895 6894 ] final   66.26 input  -60.11 | X-H torsion
[ 7974 7965 7964 7962 ] final  141.35 input  175.53 | X-H torsion
[ 8008 7997 7996 7995 ] final -116.19 input   59.86 | X-H torsion
[ 10167 10162 10161 10158 ] final -151.34 input  -65.29 | X-H torsion
[ 10718 10713 10712 10709 ] final   71.32 input   66.30 | X-H torsion
[ 10763 10752 10751 10750 ] final  174.10 input  -60.55 | X-H torsion
[ 11005 11000 10999 10996 ] final  -38.99 input  -57.11 | X-H torsion

> <Gold.Protein.ActiveResidues>
 VAL166  LYS551  ARG553  GLY616  TRP617  ASP618  TYR619  PRO620  LYS621  CYS622 
 ASP623  PHE694  ASN695  SER759  ASP760  ASP761  ALA762  ILE779  LEU786  VAL792 
 PHE793  MET794  SER795  GLU796  ALA797  LYS798  CYS799  TRP800  GLU811  SER814 

> <Gold.Protein.RotatedAtoms>
  152.4468  134.5477  159.9857 H   0  0  0  0  0  0  0  0  0  0  0  0  # atno 6907 bound_to 6896
  151.5560  133.3404  159.2970 H   0  0  0  0  0  0  0  0  0  0  0  0  # atno 6908 bound_to 6896
  150.8386  134.7702  159.6977 H   0  0  0  0  0  0  0  0  0  0  0  0  # atno 6909 bound_to 6896
  144.9104  139.5301  143.5711 H   0  0  0  0  0  0  0  0  0  0  0  0  # atno 7974 bound_to 7965
  155.0639  140.0393  157.2586 H   0  0  0  0  0  0  0  0  0  0  0  0  # atno 8008 bound_to 7997
  154.7037  140.2678  155.6670 H   0  0  0  0  0  0  0  0  0  0  0  0  # atno 8009 bound_to 7997
  156.2768  140.2735  156.1656 H   0  0  0  0  0  0  0  0  0  0  0  0  # atno 8010 bound_to 7997
  139.7276  143.8859  152.2524 H   0  0  0  0  0  0  0  0  0  0  0  0  # atno 10167 bound_to 10162
  157.6445  130.9522  150.0772 H   0  0  0  0  0  0  0  0  0  0  0  0  # atno 10718 bound_to 10713
  154.4492  135.2764  155.1793 H   0  0  0  0  0  0  0  0  0  0  0  0  # atno 10763 bound_to 10752
  154.3627  135.6126  153.5702 H   0  0  0  0  0  0  0  0  0  0  0  0  # atno 10764 bound_to 10752
  152.9846  135.5838  154.4833 H   0  0  0  0  0  0  0  0  0  0  0  0  # atno 10765 bound_to 10752
  141.0069  133.6927  156.2127 H   0  0  0  0  0  0  0  0  0  0  0  0  # atno 11005 bound_to 11000
  146.3155  139.7905  142.8986 LP  0  0  0  0  0  0  0  0  0  0  0  0  # atno 17320 bound_to 7965
  145.3464  141.0298  143.3363 LP  0  0  0  0  0  0  0  0  0  0  0  0  # atno 17321 bound_to 7965
  139.8773  144.7037  150.8918 LP  0  0  0  0  0  0  0  0  0  0  0  0  # atno 17342 bound_to 10162
  140.7765  143.3690  151.1685 LP  0  0  0  0  0  0  0  0  0  0  0  0  # atno 17343 bound_to 10162
  156.1759  130.3648  149.9101 LP  0  0  0  0  0  0  0  0  0  0  0  0  # atno 17370 bound_to 10713
  156.7065  130.8953  151.3605 LP  0  0  0  0  0  0  0  0  0  0  0  0  # atno 17371 bound_to 10713
  140.6799  134.4779  157.5589 LP  0  0  0  0  0  0  0  0  0  0  0  0  # atno 17394 bound_to 11000
  139.9068  134.8431  156.1676 LP  0  0  0  0  0  0  0  0  0  0  0  0  # atno 17395 bound_to 11000

$$$$
