AV-unprocessed.smi:51|AV-procd|sdf|504|dock3
  -GOLD-   2262016373D 1   1.00000     0.00000
 Structure written by MMmdl.
 26 27  0  0  0  0  0  0  0  0  3 V2000
  150.7949  140.4470  155.0536 O   0  0  0  0  0  0  0  0  0  0  0  0
  151.6605  139.9270  155.7902 C   0  0  0  0  0  0  0  0  0  0  0  0
  152.8307  139.6443  155.4486 O   0  5  0  0  0  0  0  0  0  0  0  0
  151.2479  139.6343  157.2402 C   0  0  1  0  0  0  0  0  0  0  0  0
  151.3808  138.1423  157.5913 C   0  0  0  0  0  0  0  0  0  0  0  0
  151.7058  138.1654  159.0846 C   0  0  1  0  0  0  0  0  0  0  0  0
  152.3667  136.9962  159.5195 O   0  0  0  0  0  0  0  0  0  0  0  0
  152.5702  139.4178  159.2442 C   0  0  0  0  0  0  0  0  0  0  0  0
  152.0974  140.3260  158.2100 N   0  0  0  0  0  0  0  0  0  0  0  0
  152.0697  141.7200  158.4118 C   0  0  0  0  0  0  0  0  0  0  0  0
  152.8099  142.3220  159.4508 C   0  0  0  0  0  0  0  0  0  0  0  0
  152.7311  143.7218  159.5700 C   0  0  0  0  0  0  0  0  0  0  0  0
  151.9668  144.4414  158.7137 N   0  3  0  0  0  0  0  0  0  0  0  0
  151.2852  143.8091  157.7476 C   0  0  0  0  0  0  0  0  0  0  0  0
  151.3183  142.4822  157.5847 N   0  0  0  0  0  0  0  0  0  0  0  0
  150.2155  139.9493  157.3990 H   0  0  0  0  0  0  0  0  0  0  0  0
  150.4750  137.5775  157.3687 H   0  0  0  0  0  0  0  0  0  0  0  0
  152.2040  137.6812  157.0416 H   0  0  0  0  0  0  0  0  0  0  0  0
  150.7813  138.2865  159.6511 H   0  0  0  0  0  0  0  0  0  0  0  0
  153.2148  136.9598  159.1041 H   0  0  0  0  0  0  0  0  0  0  0  0
  152.4775  139.8289  160.2502 H   0  0  0  0  0  0  0  0  0  0  0  0
  153.6229  139.2014  159.0560 H   0  0  0  0  0  0  0  0  0  0  0  0
  153.4281  141.7451  160.1227 H   0  0  0  0  0  0  0  0  0  0  0  0
  153.2587  144.2904  160.3218 H   0  0  0  0  0  0  0  0  0  0  0  0
  150.6909  144.4237  157.0878 H   0  0  0  0  0  0  0  0  0  0  0  0
  151.9187  145.4560  158.8072 H   0  0  0  0  0  0  0  0  0  0  0  0
  1  2  2  0  0  0  0
  2  3  1  0  0  0  0
  2  4  1  0  0  0  0
  4  9  1  0  0  0  0
  4  5  1  0  0  0  0
  4 16  1  0  0  0  0
  5  6  1  0  0  0  0
  5 17  1  0  0  0  0
  5 18  1  0  0  0  0
  6  7  1  0  0  0  0
  6  8  1  0  0  0  0
  6 19  1  0  0  0  0
  7 20  1  0  0  0  0
  8  9  1  0  0  0  0
  8 21  1  0  0  0  0
  8 22  1  0  0  0  0
  9 10  1  0  0  0  0
 10 15  1  0  0  0  0
 10 11  2  0  0  0  0
 11 12  1  0  0  0  0
 11 23  1  0  0  0  0
 12 13  2  0  0  0  0
 12 24  1  0  0  0  0
 13 14  1  0  0  0  0
 13 26  1  0  0  0  0
 14 15  2  0  0  0  0
 14 25  1  0  0  0  0
M  CHG  1   3  -1
M  CHG  1  13   1
M  END
> <s_m_source_file>
AV-unprocessed.smi

> <i_m_source_file_index>
51

> <i_lp_mmshare_version>
43012

> <i_f3d_flags>
0

> <s_epik_input>
Tz1DKFtPSF0pW0NAQEhdMVtDSDJdW0NAQEhdKFtPSF0pW0NIMl1OMWMyW2NIXVtjSF1uW2NIXW4y

> <s_epik_cmdline>
J2VwaWtfcHl0aG9uJywgJy1waCcsICc3LjAnLCAnLXRuJywgJzgnLCAnLW1hJywgJzIwMCcsICctbWV0YWxfYmluZGluZycsICctaW1hZScsICc8aW5maWxlLm1hZT4nLCAnLW9tYWUnLCAnPG91dGZpbGUubWFlPic=

> <r_lp_tautomer_probability>
0.999336

> <r_epik_Ionization_Penalty>
0.688427

> <r_epik_Ionization_Penalty_Charging>
0.688427

> <r_epik_Ionization_Penalty_Neutral>
1.98379e-07

> <r_epik_State_Penalty>
0.709817

> <r_epik_Charging_Adjusted_Penalty>
1.39824

> <i_epik_Tot_Q>
0

> <i_epik_Tot_abs_Q>
2

> <r_epik_Metal_State_Penalty>
0.873261

> <b_epik_Metal_Only>
0

> <s_lp_Force_Field>
OPLS_2005

> <r_lp_Energy>
15.7

> <b_lp_Chiralities_Consistent>
1

> <s_lp_Variant>
AV-unprocessed.smi:51-6

> <Gold.Version>
5.8.1

> <Gold.Id.Protein>
6NUR|6NUR_protein|mol2

> <Gold.PLP.Fitness>
43.7309

> <Gold.PLP.PLP>
-28.7534

> <Gold.PLP.part.hbond>
-3.0592

> <Gold.PLP.part.metal>
0.0000

> <Gold.PLP.part.buried>
-5.0312

> <Gold.PLP.part.nonpolar>
-20.8832

> <Gold.PLP.part.repulsive>
0.1720

> <Gold.PLP.ligand.clash>
0.0000

> <Gold.PLP.ligand.torsion>
0.0764

> <Gold.PLP.Chemscore.Hbond>
4.0000

> <Gold.PLP.Chemscore.CHOScore>
1.0000

> <Gold.PLP.Chemscore.Metal>
0.0000

> <Gold.Chemscore.Hbonds>
donor molecule, donor type, donor heavy atom, donor atom, acceptor molecule, acceptor atom, score
      P1  H  6896  6909       L1     7  0.90
      P1  H  7989  7998       L1     1  1.00
      P1  H  7997  8008       L1     3  2.00
      L1  C    14    25       P1  8028  1.00

> <Gold.PLP.Chemscore.Internal.Correction>
0.1304

> <Gold.Rescore>
     Score         DG    S(hbond)    S(metal)    S(lipo)     H(rot)  DE(clash)    DE(int)     intcor
     15.48     -15.61       2.83        0.00      43.03       1.70       0.01       0.12       ----

> <Gold.Chemscore.Fitness>
15.4795

> <Gold.Chemscore.DG>
-15.6134

> <Gold.Chemscore.ZeroCoef>
-5.4800

> <Gold.Chemscore.Hbond>
2.8312

> <Gold.Chemscore.Metal>
0.0000

> <Gold.Chemscore.Lipo>
43.0287

> <Gold.Chemscore.Internal_Hbond>
0.0000

> <Gold.Chemscore.DEClash>
0.0096

> <Gold.Chemscore.DEInternal>
0.1243

> <Gold.Chemscore.Rot>
1.7020

> <Gold.Chemscore.Internal.Correction>
   9.000000E+99

> <Gold.Chemscore.Hbonds>
donor molecule, donor type, donor heavy atom, donor atom, acceptor molecule, acceptor atom, score
      P1  H  6896  6909       L1     7  0.75
      P1  H  7989  7998       L1     1  0.58
      P1  H  7997  8008       L1     3  1.00

> <Gold.Chemscore.Hbond.Weighted>
-9.4561

> <Gold.Chemscore.Metal.Weighted>
-0.0000

> <Gold.Chemscore.Lipo.Weighted>
-5.0344

> <Gold.Chemscore.Internal_Hbond.Weighted>
0.0000

> <Gold.Chemscore.DEClash.Weighted>
0.0096

> <Gold.Chemscore.DEInternal.Weighted>
0.1243

> <Gold.Chemscore.Rot.Weighted>
4.3571

> <Gold.Chemscore.Internal.Correction.Weighted>
   9.000000E+99

> <Gold.Protein.RotatedTorsions>
[ 6907 6896 6895 6894 ] final  115.33 input  -60.11 | X-H torsion
[ 7974 7965 7964 7962 ] final   77.77 input  175.53 | X-H torsion
[ 8008 7997 7996 7995 ] final  -27.23 input   59.86 | X-H torsion
[ 10167 10162 10161 10158 ] final  135.73 input  -65.29 | X-H torsion
[ 10718 10713 10712 10709 ] final   87.87 input   66.30 | X-H torsion
[ 10763 10752 10751 10750 ] final  -54.42 input  -60.55 | X-H torsion
[ 11005 11000 10999 10996 ] final  -85.25 input  -57.11 | X-H torsion

> <Gold.Protein.ActiveResidues>
 VAL166  LYS551  ARG553  GLY616  TRP617  ASP618  TYR619  PRO620  LYS621  CYS622 
 ASP623  PHE694  ASN695  SER759  ASP760  ASP761  ALA762  ILE779  LEU786  VAL792 
 PHE793  MET794  SER795  GLU796  ALA797  LYS798  CYS799  TRP800  GLU811  SER814 

> <Gold.Protein.RotatedAtoms>
  152.4748  133.8113  159.7004 H   0  0  0  0  0  0  0  0  0  0  0  0  # atno 6907 bound_to 6896
  150.8758  133.7431  159.2953 H   0  0  0  0  0  0  0  0  0  0  0  0  # atno 6908 bound_to 6896
  151.4951  135.1063  159.9866 H   0  0  0  0  0  0  0  0  0  0  0  0  # atno 6909 bound_to 6896
  145.6857  139.2537  143.1789 H   0  0  0  0  0  0  0  0  0  0  0  0  # atno 7974 bound_to 7965
  154.4387  140.1878  156.0900 H   0  0  0  0  0  0  0  0  0  0  0  0  # atno 8008 bound_to 7997
  156.0373  140.3324  155.7179 H   0  0  0  0  0  0  0  0  0  0  0  0  # atno 8009 bound_to 7997
  155.5751  140.0616  157.2788 H   0  0  0  0  0  0  0  0  0  0  0  0  # atno 8010 bound_to 7997
  139.5206  144.6502  151.5325 H   0  0  0  0  0  0  0  0  0  0  0  0  # atno 10167 bound_to 10162
  157.6944  131.0272  150.3189 H   0  0  0  0  0  0  0  0  0  0  0  0  # atno 10718 bound_to 10713
  154.1745  135.6453  153.5018 H   0  0  0  0  0  0  0  0  0  0  0  0  # atno 10763 bound_to 10752
  153.0075  135.5391  154.6578 H   0  0  0  0  0  0  0  0  0  0  0  0  # atno 10764 bound_to 10752
  154.5926  135.2935  155.0592 H   0  0  0  0  0  0  0  0  0  0  0  0  # atno 10765 bound_to 10752
  141.1643  133.7389  156.8987 H   0  0  0  0  0  0  0  0  0  0  0  0  # atno 11005 bound_to 11000
  146.0926  140.7638  142.9588 LP  0  0  0  0  0  0  0  0  0  0  0  0  # atno 17320 bound_to 7965
  144.7012  140.3661  143.7154 LP  0  0  0  0  0  0  0  0  0  0  0  0  # atno 17321 bound_to 7965
  140.6303  143.9088  150.6600 LP  0  0  0  0  0  0  0  0  0  0  0  0  # atno 17342 bound_to 10162
  140.2390  143.3678  152.1502 LP  0  0  0  0  0  0  0  0  0  0  0  0  # atno 17343 bound_to 10162
  156.3679  130.3858  149.7199 LP  0  0  0  0  0  0  0  0  0  0  0  0  # atno 17370 bound_to 10713
  156.4623  130.7958  151.2977 LP  0  0  0  0  0  0  0  0  0  0  0  0  # atno 17371 bound_to 10713
  140.1598  134.9173  157.2700 LP  0  0  0  0  0  0  0  0  0  0  0  0  # atno 17394 bound_to 11000
  140.2625  134.3555  155.7401 LP  0  0  0  0  0  0  0  0  0  0  0  0  # atno 17395 bound_to 11000

$$$$
