AV-unprocessed.smi:1759|AV-procd|sdf|7087|dock7
  -GOLD-   22720 8303D 1   1.00000     0.00000
 Structure written by MMmdl.
 31 32  0  0  0  0  0  0  0  0  1 V2000
  148.7023  130.2103  153.7563 C   0  0  0  0  0  0  0  0  0  0  0  0
  149.2316  131.5655  154.0768 C   0  0  0  0  0  0  0  0  0  0  0  0
  149.1010  132.7829  153.4699 C   0  0  0  0  0  0  0  0  0  0  0  0
  149.8623  133.6407  154.3075 C   0  0  0  0  0  0  0  0  0  0  0  0
  149.9774  135.0243  154.0191 N   0  0  0  0  0  0  0  0  0  0  0  0
  150.7844  135.9198  154.6125 C   0  0  0  0  0  0  0  0  0  0  0  0
  151.5911  135.6648  155.5072 O   0  0  0  0  0  0  0  0  0  0  0  0
  150.6090  137.1468  154.1020 N   0  0  0  0  0  0  0  0  0  0  0  0
  151.3507  138.3342  154.5097 C   0  0  0  0  0  0  0  0  0  0  0  0
  150.5219  139.2146  155.4591 C   0  0  2  0  0  0  0  0  0  0  0  0
  149.4726  140.0655  154.7449 C   0  0  0  0  0  0  0  0  0  0  0  0
  149.3246  141.2336  155.6923 C   0  0  0  0  0  0  0  0  0  0  0  0
  150.7651  141.4405  156.1461 C   0  0  0  0  0  0  0  0  0  0  0  0
  151.3628  140.1471  156.1372 O   0  0  0  0  0  0  0  0  0  0  0  0
  150.4091  133.0045  155.3322 N   0  0  0  0  0  0  0  0  0  0  0  0
  150.0077  131.6710  155.1896 O   0  0  0  0  0  0  0  0  0  0  0  0
  148.0977  130.2323  152.8495 H   0  0  0  0  0  0  0  0  0  0  0  0
  148.0792  129.8374  154.5693 H   0  0  0  0  0  0  0  0  0  0  0  0
  149.5178  129.5037  153.6024 H   0  0  0  0  0  0  0  0  0  0  0  0
  148.5485  133.0188  152.5725 H   0  0  0  0  0  0  0  0  0  0  0  0
  149.3758  135.3708  153.2868 H   0  0  0  0  0  0  0  0  0  0  0  0
  149.9291  137.2666  153.3655 H   0  0  0  0  0  0  0  0  0  0  0  0
  152.2704  138.0153  155.0009 H   0  0  0  0  0  0  0  0  0  0  0  0
  151.6529  138.9062  153.6304 H   0  0  0  0  0  0  0  0  0  0  0  0
  150.0240  138.6031  156.2135 H   0  0  0  0  0  0  0  0  0  0  0  0
  149.8477  140.4144  153.7815 H   0  0  0  0  0  0  0  0  0  0  0  0
  148.5378  139.5309  154.5744 H   0  0  0  0  0  0  0  0  0  0  0  0
  148.8931  142.1176  155.2221 H   0  0  0  0  0  0  0  0  0  0  0  0
  148.6979  140.9534  156.5400 H   0  0  0  0  0  0  0  0  0  0  0  0
  151.2994  142.0723  155.4356 H   0  0  0  0  0  0  0  0  0  0  0  0
  150.8309  141.9061  157.1297 H   0  0  0  0  0  0  0  0  0  0  0  0
  1  2  1  0  0  0  0
  1 17  1  0  0  0  0
  1 18  1  0  0  0  0
  1 19  1  0  0  0  0
  2 16  1  0  0  0  0
  2  3  2  0  0  0  0
  3  4  1  0  0  0  0
  3 20  1  0  0  0  0
  4  5  1  0  0  0  0
  4 15  2  0  0  0  0
  5  6  1  0  0  0  0
  5 21  1  0  0  0  0
  6  7  2  0  0  0  0
  6  8  1  0  0  0  0
  8  9  1  0  0  0  0
  8 22  1  0  0  0  0
  9 10  1  0  0  0  0
  9 23  1  0  0  0  0
  9 24  1  0  0  0  0
 10 14  1  0  0  0  0
 10 11  1  0  0  0  0
 10 25  1  0  0  0  0
 11 12  1  0  0  0  0
 11 26  1  0  0  0  0
 11 27  1  0  0  0  0
 12 13  1  0  0  0  0
 12 28  1  0  0  0  0
 12 29  1  0  0  0  0
 13 14  1  0  0  0  0
 13 30  1  0  0  0  0
 13 31  1  0  0  0  0
 15 16  1  0  0  0  0
M  END
> <s_m_source_file>
AV-unprocessed.smi

> <i_m_source_file_index>
1759

> <i_lp_mmshare_version>
43012

> <i_f3d_flags>
0

> <s_epik_input>
W0NIM11jMVtjSF1jKG5vMSlbTkhdQyg9TylbTkhdW0NIMl1bQ0BASF0yW0NIMl1bQ0gyXVtDSDJdTzI=

> <s_epik_cmdline>
J2VwaWtfcHl0aG9uJywgJy1waCcsICc3LjAnLCAnLXRuJywgJzgnLCAnLW1hJywgJzIwMCcsICctbWV0YWxfYmluZGluZycsICctaW1hZScsICc8aW5maWxlLm1hZT4nLCAnLW9tYWUnLCAnPG91dGZpbGUubWFlPic=

> <r_lp_tautomer_probability>
1

> <r_epik_Ionization_Penalty>
2.1743e-05

> <r_epik_Ionization_Penalty_Charging>
0

> <r_epik_Ionization_Penalty_Neutral>
2.1743e-05

> <r_epik_State_Penalty>
-0

> <r_epik_Charging_Adjusted_Penalty>
0

> <i_epik_Tot_Q>
0

> <i_epik_Tot_abs_Q>
0

> <r_epik_Metal_State_Penalty>
-0

> <b_epik_Metal_Only>
0

> <s_lp_Force_Field>
OPLS_2005

> <r_lp_Energy>
14.3546

> <b_lp_Chiralities_Consistent>
1

> <s_lp_Variant>
AV-unprocessed.smi:1759-1

> <Gold.Version>
5.8.1

> <Gold.Id.Protein>
6NUR|6NUR_protein|mol2

> <Gold.PLP.Fitness>
36.7987

> <Gold.PLP.PLP>
-28.9381

> <Gold.PLP.part.hbond>
-4.9182

> <Gold.PLP.part.metal>
0.0000

> <Gold.PLP.part.buried>
-1.0535

> <Gold.PLP.part.nonpolar>
-21.8140

> <Gold.PLP.part.repulsive>
0.1937

> <Gold.PLP.ligand.clash>
0.0000

> <Gold.PLP.ligand.torsion>
0.2914

> <Gold.PLP.Chemscore.Hbond>
2.8140

> <Gold.PLP.Chemscore.CHOScore>
0.0000

> <Gold.PLP.Chemscore.Metal>
0.0000

> <Gold.Chemscore.Hbonds>
donor molecule, donor type, donor heavy atom, donor atom, acceptor molecule, acceptor atom, score
      L1  H     5    21       P1  7948  0.75
      L1  H     8    22       P1  7948  0.83
      P1  H 10752 10765       L1     7  1.00

> <Gold.PLP.Chemscore.Internal.Correction>
0.0013

> <Gold.Rescore>
     Score         DG    S(hbond)    S(metal)    S(lipo)     H(rot)  DE(clash)    DE(int)     intcor
     12.68     -14.63       2.09        0.00      47.05       1.30       0.49       1.46       ----

> <Gold.Chemscore.Fitness>
12.6836

> <Gold.Chemscore.DG>
-14.6322

> <Gold.Chemscore.ZeroCoef>
-5.4800

> <Gold.Chemscore.Hbond>
2.0859

> <Gold.Chemscore.Metal>
0.0000

> <Gold.Chemscore.Lipo>
47.0476

> <Gold.Chemscore.Internal_Hbond>
0.0000

> <Gold.Chemscore.DEClash>
0.4924

> <Gold.Chemscore.DEInternal>
1.4562

> <Gold.Chemscore.Rot>
1.2965

> <Gold.Chemscore.Internal.Correction>
   9.000000E+99

> <Gold.Chemscore.Hbonds>
donor molecule, donor type, donor heavy atom, donor atom, acceptor molecule, acceptor atom, score
      L1  H     5    21       P1  7948  0.09
      L1  H     8    22       P1  7948  0.30
      P1  H 10752 10765       L1     7  0.63

> <Gold.Chemscore.Hbond.Weighted>
-6.9668

> <Gold.Chemscore.Metal.Weighted>
-0.0000

> <Gold.Chemscore.Lipo.Weighted>
-5.5046

> <Gold.Chemscore.Internal_Hbond.Weighted>
0.0000

> <Gold.Chemscore.DEClash.Weighted>
0.4924

> <Gold.Chemscore.DEInternal.Weighted>
1.4562

> <Gold.Chemscore.Rot.Weighted>
3.3192

> <Gold.Chemscore.Internal.Correction.Weighted>
   9.000000E+99

> <Gold.Protein.RotatedTorsions>
[ 6907 6896 6895 6894 ] final   79.17 input  -60.11 | X-H torsion
[ 7974 7965 7964 7962 ] final   15.32 input  175.53 | X-H torsion
[ 8008 7997 7996 7995 ] final  -28.99 input   59.86 | X-H torsion
[ 10167 10162 10161 10158 ] final  143.18 input  -65.29 | X-H torsion
[ 10718 10713 10712 10709 ] final  102.40 input   66.30 | X-H torsion
[ 10763 10752 10751 10750 ] final -163.23 input  -60.55 | X-H torsion
[ 11005 11000 10999 10996 ] final   -3.05 input  -57.11 | X-H torsion

> <Gold.Protein.ActiveResidues>
 VAL166  LYS551  ARG553  GLY616  TRP617  ASP618  TYR619  PRO620  LYS621  CYS622 
 ASP623  PHE694  ASN695  SER759  ASP760  ASP761  ALA762  ILE779  LEU786  VAL792 
 PHE793  MET794  SER795  GLU796  ALA797  LYS798  CYS799  TRP800  GLU811  SER814 

> <Gold.Protein.RotatedAtoms>
  152.5188  134.3551  159.9264 H   0  0  0  0  0  0  0  0  0  0  0  0  # atno 6907 bound_to 6896
  151.3503  133.3922  159.2687 H   0  0  0  0  0  0  0  0  0  0  0  0  # atno 6908 bound_to 6896
  150.9732  134.9120  159.7859 H   0  0  0  0  0  0  0  0  0  0  0  0  # atno 6909 bound_to 6896
  146.2281  139.8911  142.8554 H   0  0  0  0  0  0  0  0  0  0  0  0  # atno 7974 bound_to 7965
  154.4308  140.1830  156.1177 H   0  0  0  0  0  0  0  0  0  0  0  0  # atno 8008 bound_to 7997
  156.0168  140.3345  155.6972 H   0  0  0  0  0  0  0  0  0  0  0  0  # atno 8009 bound_to 7997
  155.6033  140.0642  157.2717 H   0  0  0  0  0  0  0  0  0  0  0  0  # atno 8010 bound_to 7997
  139.4976  144.6057  151.6383 H   0  0  0  0  0  0  0  0  0  0  0  0  # atno 10167 bound_to 10162
  157.6803  131.0752  150.5398 H   0  0  0  0  0  0  0  0  0  0  0  0  # atno 10718 bound_to 10713
  154.7141  135.3012  154.9150 H   0  0  0  0  0  0  0  0  0  0  0  0  # atno 10763 bound_to 10752
  154.0043  135.6703  153.4765 H   0  0  0  0  0  0  0  0  0  0  0  0  # atno 10764 bound_to 10752
  153.0779  135.5024  154.8358 H   0  0  0  0  0  0  0  0  0  0  0  0  # atno 10765 bound_to 10752
  140.6651  133.9286  155.8460 H   0  0  0  0  0  0  0  0  0  0  0  0  # atno 11005 bound_to 11000
  145.2416  141.0011  143.3932 LP  0  0  0  0  0  0  0  0  0  0  0  0  # atno 17320 bound_to 7965
  144.9447  139.4149  143.6432 LP  0  0  0  0  0  0  0  0  0  0  0  0  # atno 17321 bound_to 7965
  140.5718  144.0095  150.6221 LP  0  0  0  0  0  0  0  0  0  0  0  0  # atno 17342 bound_to 10162
  140.3215  143.3134  152.0779 LP  0  0  0  0  0  0  0  0  0  0  0  0  # atno 17343 bound_to 10162
  156.5705  130.4278  149.6021 LP  0  0  0  0  0  0  0  0  0  0  0  0  # atno 17370 bound_to 10713
  156.2744  130.7035  151.1842 LP  0  0  0  0  0  0  0  0  0  0  0  0  # atno 17371 bound_to 10713
  141.0435  134.0587  157.3872 LP  0  0  0  0  0  0  0  0  0  0  0  0  # atno 17394 bound_to 11000
  139.9000  135.0160  156.7221 LP  0  0  0  0  0  0  0  0  0  0  0  0  # atno 17395 bound_to 11000

$$$$
