AV-unprocessed.smi:704|AV-procd|sdf|3445|dock2
  -GOLD-   22720 0433D 1   1.00000     0.00000
 Structure written by MMmdl.
 38 39  0  0  0  0  0  0  0  0  1 V2000
  151.5896  138.2401  154.1560 C   0  0  0  0  0  0  0  0  0  0  0  0
  150.2344  138.3082  153.7260 O   0  0  0  0  0  0  0  0  0  0  0  0
  149.5029  139.4423  154.0240 C   0  0  0  0  0  0  0  0  0  0  0  0
  150.1471  140.4967  154.5840 N   0  0  0  0  0  0  0  0  0  0  0  0
  149.4358  141.6065  154.8699 C   0  0  0  0  0  0  0  0  0  0  0  0
  148.0584  141.7264  154.6099 C   0  0  0  0  0  0  0  0  0  0  0  0
  147.3878  140.6341  154.0293 C   0  0  0  0  0  0  0  0  0  0  0  0
  148.1179  139.4563  153.7370 C   0  0  0  0  0  0  0  0  0  0  0  0
  147.5485  138.3003  153.1351 N   0  0  0  0  0  0  0  0  0  0  0  0
  146.2527  137.9749  152.9934 C   0  0  0  0  0  0  0  0  0  0  0  0
  145.2997  138.6539  153.3741 O   0  0  0  0  0  0  0  0  0  0  0  0
  146.1197  136.7836  152.3937 N   0  0  0  0  0  0  0  0  0  0  0  0
  144.8507  136.1211  152.0983 C   0  0  1  0  0  0  0  0  0  0  0  0
  144.8942  135.4689  150.7070 C   0  0  0  0  0  0  0  0  0  0  0  0
  145.0859  133.9765  150.9604 C   0  0  0  0  0  0  0  0  0  0  0  0
  144.3191  133.7193  152.2543 C   0  0  0  0  0  0  0  0  0  0  0  0
  144.5451  134.9805  153.1081 C   0  0  2  0  0  0  0  0  0  0  0  0
  143.3503  135.3018  154.0196 C   0  0  0  0  0  0  0  0  0  0  0  0
  142.9087  134.3214  154.8112 N   0  0  0  0  0  0  0  0  0  0  0  0
  142.8338  136.4177  154.0128 O   0  0  0  0  0  0  0  0  0  0  0  0
  152.0188  137.2884  153.8432 H   0  0  0  0  0  0  0  0  0  0  0  0
  151.6678  138.2967  155.2427 H   0  0  0  0  0  0  0  0  0  0  0  0
  152.1892  139.0354  153.7108 H   0  0  0  0  0  0  0  0  0  0  0  0
  149.9824  142.4256  155.3130 H   0  0  0  0  0  0  0  0  0  0  0  0
  147.5287  142.6375  154.8454 H   0  0  0  0  0  0  0  0  0  0  0  0
  146.3363  140.7286  153.8087 H   0  0  0  0  0  0  0  0  0  0  0  0
  148.2139  137.6016  152.8382 H   0  0  0  0  0  0  0  0  0  0  0  0
  146.9592  136.2931  152.1224 H   0  0  0  0  0  0  0  0  0  0  0  0
  144.0676  136.8826  152.0923 H   0  0  0  0  0  0  0  0  0  0  0  0
  143.9358  135.6242  150.2095 H   0  0  0  0  0  0  0  0  0  0  0  0
  145.6648  135.8834  150.0558 H   0  0  0  0  0  0  0  0  0  0  0  0
  144.7336  133.3600  150.1330 H   0  0  0  0  0  0  0  0  0  0  0  0
  146.1449  133.7626  151.1108 H   0  0  0  0  0  0  0  0  0  0  0  0
  143.2623  133.5762  152.0226 H   0  0  0  0  0  0  0  0  0  0  0  0
  144.6677  132.8162  152.7562 H   0  0  0  0  0  0  0  0  0  0  0  0
  145.4256  134.8012  153.7287 H   0  0  0  0  0  0  0  0  0  0  0  0
  142.1177  134.4794  155.4182 H   0  0  0  0  0  0  0  0  0  0  0  0
  143.3608  133.4191  154.7892 H   0  0  0  0  0  0  0  0  0  0  0  0
  1  2  1  0  0  0  0
  1 21  1  0  0  0  0
  1 22  1  0  0  0  0
  1 23  1  0  0  0  0
  2  3  1  0  0  0  0
  3  8  1  0  0  0  0
  3  4  2  0  0  0  0
  4  5  1  0  0  0  0
  5  6  2  0  0  0  0
  5 24  1  0  0  0  0
  6  7  1  0  0  0  0
  6 25  1  0  0  0  0
  7  8  2  0  0  0  0
  7 26  1  0  0  0  0
  8  9  1  0  0  0  0
  9 10  1  0  0  0  0
  9 27  1  0  0  0  0
 10 11  2  0  0  0  0
 10 12  1  0  0  0  0
 12 13  1  0  0  0  0
 12 28  1  0  0  0  0
 13 17  1  0  0  0  0
 13 14  1  0  0  0  0
 13 29  1  0  0  0  0
 14 15  1  0  0  0  0
 14 30  1  0  0  0  0
 14 31  1  0  0  0  0
 15 16  1  0  0  0  0
 15 32  1  0  0  0  0
 15 33  1  0  0  0  0
 16 17  1  0  0  0  0
 16 34  1  0  0  0  0
 16 35  1  0  0  0  0
 17 18  1  0  0  0  0
 17 36  1  0  0  0  0
 18 19  1  0  0  0  0
 18 20  2  0  0  0  0
 19 37  1  0  0  0  0
 19 38  1  0  0  0  0
M  END
> <s_m_source_file>
AV-unprocessed.smi

> <i_m_source_file_index>
704

> <i_lp_mmshare_version>
43012

> <i_f3d_flags>
0

> <s_epik_input>
W0NIM11PYzFuW2NIXVtjSF1bY0hdYzFbTkhdQyg9TylbTkhdW0NAQEhdMltDSDJdW0NIMl1bQ0gyXVtDQEhdMkMoPU8pW05IMl0=

> <s_epik_cmdline>
J2VwaWtfcHl0aG9uJywgJy1waCcsICc3LjAnLCAnLXRuJywgJzgnLCAnLW1hJywgJzIwMCcsICctbWV0YWxfYmluZGluZycsICctaW1hZScsICc8aW5maWxlLm1hZT4nLCAnLW9tYWUnLCAnPG91dGZpbGUubWFlPic=

> <r_lp_tautomer_probability>
1

> <r_epik_Ionization_Penalty>
9.09123e-05

> <r_epik_Ionization_Penalty_Charging>
0

> <r_epik_Ionization_Penalty_Neutral>
9.09123e-05

> <r_epik_State_Penalty>
-0

> <r_epik_Charging_Adjusted_Penalty>
0

> <i_epik_Tot_Q>
0

> <i_epik_Tot_abs_Q>
0

> <r_epik_Metal_State_Penalty>
-0

> <b_epik_Metal_Only>
0

> <s_lp_Force_Field>
OPLS_2005

> <r_lp_Energy>
17.389

> <b_lp_Chiralities_Consistent>
1

> <s_lp_Variant>
AV-unprocessed.smi:704-4

> <Gold.Version>
5.8.1

> <Gold.Id.Protein>
6NUR|6NUR_protein|mol2

> <Gold.PLP.Fitness>
43.7218

> <Gold.PLP.PLP>
-28.7390

> <Gold.PLP.part.hbond>
-4.9504

> <Gold.PLP.part.metal>
0.0000

> <Gold.PLP.part.buried>
-4.8456

> <Gold.PLP.part.nonpolar>
-24.6793

> <Gold.PLP.part.repulsive>
4.6145

> <Gold.PLP.ligand.clash>
0.0000

> <Gold.PLP.ligand.torsion>
0.4574

> <Gold.PLP.Chemscore.Hbond>
4.5568

> <Gold.PLP.Chemscore.CHOScore>
0.7338

> <Gold.PLP.Chemscore.Metal>
0.0000

> <Gold.Chemscore.Hbonds>
donor molecule, donor type, donor heavy atom, donor atom, acceptor molecule, acceptor atom, score
      L1  H     9    27       P1  7948  1.00
      L1  H    12    28       P1  7948  1.00
      L1  H    19    37       P1 11000  0.62
      L1  H    19    38       P1 10957  0.61
      P1  H  7989  7998       L1     4  0.91
      L1  C     5    24       P1  8028  0.76

> <Gold.PLP.Chemscore.Internal.Correction>
0.0258

> <Gold.Rescore>
     Score         DG    S(hbond)    S(metal)    S(lipo)     H(rot)  DE(clash)    DE(int)     intcor
     15.51     -18.84       3.35        0.00      59.35       1.86       1.72       1.61       ----

> <Gold.Chemscore.Fitness>
15.5128

> <Gold.Chemscore.DG>
-18.8377

> <Gold.Chemscore.ZeroCoef>
-5.4800

> <Gold.Chemscore.Hbond>
3.3495

> <Gold.Chemscore.Metal>
0.0000

> <Gold.Chemscore.Lipo>
59.3520

> <Gold.Chemscore.Internal_Hbond>
0.0000

> <Gold.Chemscore.DEClash>
1.7190

> <Gold.Chemscore.DEInternal>
1.6059

> <Gold.Chemscore.Rot>
1.8648

> <Gold.Chemscore.Internal.Correction>
   9.000000E+99

> <Gold.Chemscore.Hbonds>
donor molecule, donor type, donor heavy atom, donor atom, acceptor molecule, acceptor atom, score
      L1  H     9    27       P1  7948  1.00
      L1  H    12    28       P1  7948  0.93
      L1  H    19    37       P1 11000  0.28
      L1  H    19    38       P1 10957  0.60
      P1  H  7989  7998       L1     4  0.42

> <Gold.Chemscore.Hbond.Weighted>
-11.1875

> <Gold.Chemscore.Metal.Weighted>
-0.0000

> <Gold.Chemscore.Lipo.Weighted>
-6.9442

> <Gold.Chemscore.Internal_Hbond.Weighted>
0.0000

> <Gold.Chemscore.DEClash.Weighted>
1.7190

> <Gold.Chemscore.DEInternal.Weighted>
1.6059

> <Gold.Chemscore.Rot.Weighted>
4.7739

> <Gold.Chemscore.Internal.Correction.Weighted>
   9.000000E+99

> <Gold.Protein.RotatedTorsions>
[ 6907 6896 6895 6894 ] final -171.73 input  -60.11 | X-H torsion
[ 7974 7965 7964 7962 ] final  -88.53 input  175.53 | X-H torsion
[ 8008 7997 7996 7995 ] final  -74.43 input   59.86 | X-H torsion
[ 10167 10162 10161 10158 ] final    7.44 input  -65.29 | X-H torsion
[ 10718 10713 10712 10709 ] final   15.71 input   66.30 | X-H torsion
[ 10763 10752 10751 10750 ] final  176.24 input  -60.55 | X-H torsion
[ 11005 11000 10999 10996 ] final  124.72 input  -57.11 | X-H torsion

> <Gold.Protein.ActiveResidues>
 VAL166  LYS551  ARG553  GLY616  TRP617  ASP618  TYR619  PRO620  LYS621  CYS622 
 ASP623  PHE694  ASN695  SER759  ASP760  ASP761  ALA762  ILE779  LEU786  VAL792 
 PHE793  MET794  SER795  GLU796  ALA797  LYS798  CYS799  TRP800  GLU811  SER814 

> <Gold.Protein.RotatedAtoms>
  151.5286  133.3453  159.2913 H   0  0  0  0  0  0  0  0  0  0  0  0  # atno 6907 bound_to 6896
  150.8608  134.7961  159.7092 H   0  0  0  0  0  0  0  0  0  0  0  0  # atno 6908 bound_to 6896
  152.4628  134.5154  159.9818 H   0  0  0  0  0  0  0  0  0  0  0  0  # atno 6909 bound_to 6896
  145.4520  140.9561  143.2017 H   0  0  0  0  0  0  0  0  0  0  0  0  # atno 7974 bound_to 7965
  154.5330  140.0761  156.8378 H   0  0  0  0  0  0  0  0  0  0  0  0  # atno 8008 bound_to 7997
  155.3336  140.3403  155.4221 H   0  0  0  0  0  0  0  0  0  0  0  0  # atno 8009 bound_to 7997
  156.1800  140.1649  156.8278 H   0  0  0  0  0  0  0  0  0  0  0  0  # atno 8010 bound_to 7997
  140.6371  143.7860  150.7375 H   0  0  0  0  0  0  0  0  0  0  0  0  # atno 10167 bound_to 10162
  157.0574  130.6295  149.5779 H   0  0  0  0  0  0  0  0  0  0  0  0  # atno 10718 bound_to 10713
  154.4785  135.2774  155.1589 H   0  0  0  0  0  0  0  0  0  0  0  0  # atno 10763 bound_to 10752
  154.3309  135.6190  153.5554 H   0  0  0  0  0  0  0  0  0  0  0  0  # atno 10764 bound_to 10752
  152.9872  135.5765  154.5181 H   0  0  0  0  0  0  0  0  0  0  0  0  # atno 10765 bound_to 10752
  139.9372  134.9638  156.8452 H   0  0  0  0  0  0  0  0  0  0  0  0  # atno 11005 bound_to 11000
  144.8056  139.6058  143.7052 LP  0  0  0  0  0  0  0  0  0  0  0  0  # atno 17320 bound_to 7965
  146.2499  139.6177  142.9434 LP  0  0  0  0  0  0  0  0  0  0  0  0  # atno 17321 bound_to 7965
  140.1484  143.4379  152.2147 LP  0  0  0  0  0  0  0  0  0  0  0  0  # atno 17342 bound_to 10162
  139.5581  144.7387  151.4234 LP  0  0  0  0  0  0  0  0  0  0  0  0  # atno 17343 bound_to 10162
  155.9989  130.5064  150.7587 LP  0  0  0  0  0  0  0  0  0  0  0  0  # atno 17370 bound_to 10713
  157.4982  131.0916  151.0346 LP  0  0  0  0  0  0  0  0  0  0  0  0  # atno 17371 bound_to 10713
  140.6045  134.0141  155.7551 LP  0  0  0  0  0  0  0  0  0  0  0  0  # atno 17394 bound_to 11000
  141.0991  133.9796  157.3109 LP  0  0  0  0  0  0  0  0  0  0  0  0  # atno 17395 bound_to 11000

$$$$
