AV-unprocessed.smi:2247|AV-procd|sdf|9088|dock5
  -GOLD-   2272012293D 1   1.00000     0.00000
 Structure written by MMmdl.
 34 35  0  0  0  0  0  0  0  0  1 V2000
  153.6127  142.6324  159.5724 C   0  0  0  0  0  0  0  0  0  0  0  0
  152.6590  143.0528  158.4396 C   0  0  0  0  0  0  0  0  0  0  0  0
  152.1970  144.5109  158.5877 C   0  0  0  0  0  0  0  0  0  0  0  0
  151.4997  142.1586  158.3193 N   0  0  0  0  0  0  0  0  0  0  0  0
  150.1416  142.6028  158.5891 C   0  0  0  0  0  0  0  0  0  0  0  0
  149.2535  141.4929  158.0186 C   0  0  0  0  0  0  0  0  0  0  0  0
  150.1449  140.2439  157.9344 C   0  0  1  0  0  0  0  0  0  0  0  0
  149.8761  139.5174  156.6942 N   0  0  0  0  0  0  0  0  0  0  0  0
  150.1106  139.9750  155.4544 C   0  0  0  0  0  0  0  0  0  0  0  0
  150.5942  141.0948  155.2589 O   0  0  0  0  0  0  0  0  0  0  0  0
  149.7605  139.0151  154.5173 N   0  0  0  0  0  0  0  0  0  0  0  0
  148.5953  139.0779  153.9509 C   0  0  0  0  0  0  0  0  0  0  0  0
  148.0651  138.2129  153.0070 N   0  0  0  0  0  0  0  0  0  0  0  0
  146.8173  138.6613  152.6721 C   0  0  0  0  0  0  0  0  0  0  0  0
  146.5703  139.7623  153.3760 C   0  0  0  0  0  0  0  0  0  0  0  0
  147.6408  140.0449  154.1697 O   0  0  0  0  0  0  0  0  0  0  0  0
  151.5371  140.8775  157.9266 C   0  0  0  0  0  0  0  0  0  0  0  0
  152.5517  140.2543  157.6133 O   0  0  0  0  0  0  0  0  0  0  0  0
  154.5076  143.2552  159.5755 H   0  0  0  0  0  0  0  0  0  0  0  0
  153.9363  141.5980  159.4517 H   0  0  0  0  0  0  0  0  0  0  0  0
  153.1471  142.7288  160.5536 H   0  0  0  0  0  0  0  0  0  0  0  0
  153.2312  142.9823  157.5127 H   0  0  0  0  0  0  0  0  0  0  0  0
  153.0501  145.1879  158.6387 H   0  0  0  0  0  0  0  0  0  0  0  0
  151.6079  144.6496  159.4947 H   0  0  0  0  0  0  0  0  0  0  0  0
  151.5834  144.8203  157.7409 H   0  0  0  0  0  0  0  0  0  0  0  0
  149.9974  142.6956  159.6664 H   0  0  0  0  0  0  0  0  0  0  0  0
  149.9278  143.5669  158.1263 H   0  0  0  0  0  0  0  0  0  0  0  0
  148.3665  141.3239  158.6300 H   0  0  0  0  0  0  0  0  0  0  0  0
  148.9083  141.7898  157.0263 H   0  0  0  0  0  0  0  0  0  0  0  0
  150.0287  139.6187  158.8212 H   0  0  0  0  0  0  0  0  0  0  0  0
  149.4807  138.5929  156.7862 H   0  0  0  0  0  0  0  0  0  0  0  0
  148.4896  137.3901  152.6038 H   0  0  0  0  0  0  0  0  0  0  0  0
  146.2226  138.1297  151.9439 H   0  0  0  0  0  0  0  0  0  0  0  0
  145.7218  140.4286  153.4226 H   0  0  0  0  0  0  0  0  0  0  0  0
  1  2  1  0  0  0  0
  1 19  1  0  0  0  0
  1 20  1  0  0  0  0
  1 21  1  0  0  0  0
  2  3  1  0  0  0  0
  2  4  1  0  0  0  0
  2 22  1  0  0  0  0
  3 23  1  0  0  0  0
  3 24  1  0  0  0  0
  3 25  1  0  0  0  0
  4 17  1  0  0  0  0
  4  5  1  0  0  0  0
  5  6  1  0  0  0  0
  5 26  1  0  0  0  0
  5 27  1  0  0  0  0
  6  7  1  0  0  0  0
  6 28  1  0  0  0  0
  6 29  1  0  0  0  0
  7  8  1  0  0  0  0
  7 17  1  0  0  0  0
  7 30  1  0  0  0  0
  8 31  1  0  0  0  0
  8  9  1  0  0  0  0
  9 11  1  0  0  0  0
  9 10  2  0  0  0  0
 11 12  2  0  0  0  0
 12 16  1  0  0  0  0
 12 13  1  0  0  0  0
 13 32  1  0  0  0  0
 13 14  1  0  0  0  0
 14 33  1  0  0  0  0
 14 15  2  0  0  0  0
 15 34  1  0  0  0  0
 15 16  1  0  0  0  0
 17 18  2  0  0  0  0
M  END
> <s_m_source_file>
AV-unprocessed.smi

> <i_m_source_file_index>
2247

> <i_lp_mmshare_version>
43012

> <i_f3d_flags>
0

> <s_epik_input>
W0NIM11bQ0hdKFtDSDNdKU4xW0NIMl1bQ0gyXVtDQEhdKEMxPU8pW05IXUMoPU8pW05IXWMybltjSF1bY0hdbzI=

> <s_epik_cmdline>
J2VwaWtfcHl0aG9uJywgJy1waCcsICc3LjAnLCAnLXRuJywgJzgnLCAnLW1hJywgJzIwMCcsICctbWV0YWxfYmluZGluZycsICctaW1hZScsICc8aW5maWxlLm1hZT4nLCAnLW9tYWUnLCAnPG91dGZpbGUubWFlPic=

> <r_lp_tautomer_probability>
0.107061

> <r_epik_Ionization_Penalty>
0.180736

> <r_epik_Ionization_Penalty_Charging>
0.180388

> <r_epik_Ionization_Penalty_Neutral>
0.000348501

> <r_epik_State_Penalty>
2.44396

> <r_epik_Charging_Adjusted_Penalty>
2.62435

> <i_epik_Tot_Q>
0

> <i_epik_Tot_abs_Q>
0

> <r_epik_Metal_State_Penalty>
4.38331

> <b_epik_Metal_Only>
0

> <s_lp_Force_Field>
OPLS_2005

> <r_lp_Energy>
44.8331

> <b_lp_Chiralities_Consistent>
1

> <s_lp_Variant>
AV-unprocessed.smi:2247-3

> <Gold.Version>
5.8.1

> <Gold.Id.Protein>
6NUR|6NUR_protein|mol2

> <Gold.PLP.Fitness>
38.6043

> <Gold.PLP.PLP>
-30.1592

> <Gold.PLP.part.hbond>
-3.9870

> <Gold.PLP.part.metal>
0.0000

> <Gold.PLP.part.buried>
-0.4429

> <Gold.PLP.part.nonpolar>
-25.2565

> <Gold.PLP.part.repulsive>
0.4174

> <Gold.PLP.ligand.clash>
0.0000

> <Gold.PLP.ligand.torsion>
1.0131

> <Gold.PLP.Chemscore.Hbond>
2.4644

> <Gold.PLP.Chemscore.CHOScore>
1.0000

> <Gold.PLP.Chemscore.Metal>
0.0000

> <Gold.Chemscore.Hbonds>
donor molecule, donor type, donor heavy atom, donor atom, acceptor molecule, acceptor atom, score
      L1  H    13    32       P1  7948  0.76
      P1  H  7989  7998       L1    10  0.66
      P1  H  7997  8008       L1    18  0.92
      L1  C    15    34       P1 10175  1.00

> <Gold.PLP.Chemscore.Internal.Correction>
0.0780

> <Gold.Rescore>
     Score         DG    S(hbond)    S(metal)    S(lipo)     H(rot)  DE(clash)    DE(int)     intcor
     13.54     -16.14       1.92        0.00      65.45       1.33       0.17       2.43       ----

> <Gold.Chemscore.Fitness>
13.5381

> <Gold.Chemscore.DG>
-16.1364

> <Gold.Chemscore.ZeroCoef>
-5.4800

> <Gold.Chemscore.Hbond>
1.9202

> <Gold.Chemscore.Metal>
0.0000

> <Gold.Chemscore.Lipo>
65.4464

> <Gold.Chemscore.Internal_Hbond>
0.0000

> <Gold.Chemscore.DEClash>
0.1676

> <Gold.Chemscore.DEInternal>
2.4306

> <Gold.Chemscore.Rot>
1.3338

> <Gold.Chemscore.Internal.Correction>
   9.000000E+99

> <Gold.Chemscore.Hbonds>
donor molecule, donor type, donor heavy atom, donor atom, acceptor molecule, acceptor atom, score
      L1  H    13    32       P1  7948  0.75
      P1  H  7989  7998       L1    10  0.31
      P1  H  7997  8008       L1    18  0.83

> <Gold.Chemscore.Hbond.Weighted>
-6.4136

> <Gold.Chemscore.Metal.Weighted>
-0.0000

> <Gold.Chemscore.Lipo.Weighted>
-7.6572

> <Gold.Chemscore.Internal_Hbond.Weighted>
0.0000

> <Gold.Chemscore.DEClash.Weighted>
0.1676

> <Gold.Chemscore.DEInternal.Weighted>
2.4306

> <Gold.Chemscore.Rot.Weighted>
3.4145

> <Gold.Chemscore.Internal.Correction.Weighted>
   9.000000E+99

> <Gold.Protein.RotatedTorsions>
[ 6907 6896 6895 6894 ] final  119.83 input  -60.11 | X-H torsion
[ 7974 7965 7964 7962 ] final -168.09 input  175.53 | X-H torsion
[ 8008 7997 7996 7995 ] final  -70.56 input   59.86 | X-H torsion
[ 10167 10162 10161 10158 ] final   78.19 input  -65.29 | X-H torsion
[ 10718 10713 10712 10709 ] final   -7.13 input   66.30 | X-H torsion
[ 10763 10752 10751 10750 ] final  102.00 input  -60.55 | X-H torsion
[ 11005 11000 10999 10996 ] final  169.45 input  -57.11 | X-H torsion

> <Gold.Protein.ActiveResidues>
 VAL166  LYS551  ARG553  GLY616  TRP617  ASP618  TYR619  PRO620  LYS621  CYS622 
 ASP623  PHE694  ASN695  SER759  ASP760  ASP761  ALA762  ILE779  LEU786  VAL792 
 PHE793  MET794  SER795  GLU796  ALA797  LYS798  CYS799  TRP800  GLU811  SER814 

> <Gold.Protein.RotatedAtoms>
  152.4443  133.7506  159.6691 H   0  0  0  0  0  0  0  0  0  0  0  0  # atno 6907 bound_to 6896
  150.8340  133.8034  159.3093 H   0  0  0  0  0  0  0  0  0  0  0  0  # atno 6908 bound_to 6896
  151.5680  135.1066  160.0040 H   0  0  0  0  0  0  0  0  0  0  0  0  # atno 6909 bound_to 6896
  144.7210  140.2421  143.6290 H   0  0  0  0  0  0  0  0  0  0  0  0  # atno 7974 bound_to 7965
  154.5021  140.0832  156.7819 H   0  0  0  0  0  0  0  0  0  0  0  0  # atno 8008 bound_to 7997
  155.3979  140.3435  155.4237 H   0  0  0  0  0  0  0  0  0  0  0  0  # atno 8009 bound_to 7997
  156.1469  140.1546  156.8819 H   0  0  0  0  0  0  0  0  0  0  0  0  # atno 8010 bound_to 7997
  139.9735  144.5877  150.7963 H   0  0  0  0  0  0  0  0  0  0  0  0  # atno 10167 bound_to 10162
  156.7217  130.5153  149.5866 H   0  0  0  0  0  0  0  0  0  0  0  0  # atno 10718 bound_to 10713
  153.3339  135.4025  155.1518 H   0  0  0  0  0  0  0  0  0  0  0  0  # atno 10763 bound_to 10752
  154.8629  135.3617  154.5434 H   0  0  0  0  0  0  0  0  0  0  0  0  # atno 10764 bound_to 10752
  153.5874  135.7075  153.5497 H   0  0  0  0  0  0  0  0  0  0  0  0  # atno 10765 bound_to 10752
  140.2979  134.7619  157.3892 H   0  0  0  0  0  0  0  0  0  0  0  0  # atno 11005 bound_to 11000
  145.8310  139.2086  143.1883 LP  0  0  0  0  0  0  0  0  0  0  0  0  # atno 17320 bound_to 7965
  146.0431  140.8145  142.9819 LP  0  0  0  0  0  0  0  0  0  0  0  0  # atno 17321 bound_to 7965
  140.7513  143.2971  151.3176 LP  0  0  0  0  0  0  0  0  0  0  0  0  # atno 17342 bound_to 10162
  139.6463  144.0445  152.2593 LP  0  0  0  0  0  0  0  0  0  0  0  0  # atno 17343 bound_to 10162
  156.1590  130.6361  151.0694 LP  0  0  0  0  0  0  0  0  0  0  0  0  # atno 17370 bound_to 10713
  157.6895  131.0814  150.7147 LP  0  0  0  0  0  0  0  0  0  0  0  0  # atno 17371 bound_to 10713
  140.1135  134.5313  155.8245 LP  0  0  0  0  0  0  0  0  0  0  0  0  # atno 17394 bound_to 11000
  141.2134  133.6732  156.6734 LP  0  0  0  0  0  0  0  0  0  0  0  0  # atno 17395 bound_to 11000

$$$$
