AV-unprocessed.smi:561|AV-procd|sdf|2936|dock4
  -GOLD-   2262023433D 1   1.00000     0.00000
 Structure written by MMmdl.
 37 38  0  0  0  0  0  0  0  0  2 V2000
  145.2206  134.5818  154.1387 C   0  0  0  0  0  0  0  0  0  0  0  0
  145.8740  135.2072  152.8995 C   0  0  2  0  0  0  0  0  0  0  0  0
  146.4243  134.1238  151.9478 C   0  0  0  0  0  0  0  0  0  0  0  0
  145.3888  133.5300  151.0957 N   0  0  0  0  0  0  0  0  0  0  0  0
  145.5005  132.4128  150.3080 C   0  0  0  0  0  0  0  0  0  0  0  0
  144.2878  132.2479  149.6903 C   0  0  0  0  0  0  0  0  0  0  0  0
  143.4868  133.2677  150.1298 N   0  3  0  0  0  0  0  0  0  0  0  0
  144.1569  134.0440  150.9875 C   0  0  0  0  0  0  0  0  0  0  0  0
  146.9383  136.1133  153.3292 N   0  0  0  0  0  0  0  0  0  0  0  0
  146.8091  137.1137  154.2211 C   0  0  0  0  0  0  0  0  0  0  0  0
  145.7478  137.3794  154.7861 O   0  0  0  0  0  0  0  0  0  0  0  0
  148.0374  137.9047  154.4902 C   0  0  0  0  0  0  0  0  0  0  0  0
  148.0433  139.1839  154.2824 N   0  0  0  0  0  0  0  0  0  0  0  0
  149.1562  139.9620  154.5293 N   0  0  0  0  0  0  0  0  0  0  0  0
  148.8807  141.3985  154.5183 C   0  0  0  0  0  0  0  0  0  0  0  0
  150.4058  139.4708  154.7362 C   0  0  0  0  0  0  0  0  0  0  0  0
  151.3941  140.1684  154.9628 O   0  0  0  0  0  0  0  0  0  0  0  0
  150.5633  137.9495  154.6473 C   0  0  0  0  0  0  0  0  0  0  0  0
  149.2685  137.2057  155.0284 C   0  0  0  0  0  0  0  0  0  0  0  0
  144.3989  133.9223  153.8576 H   0  0  0  0  0  0  0  0  0  0  0  0
  144.8139  135.3492  154.7984 H   0  0  0  0  0  0  0  0  0  0  0  0
  145.9371  133.9935  154.7131 H   0  0  0  0  0  0  0  0  0  0  0  0
  145.0970  135.7698  152.3790 H   0  0  0  0  0  0  0  0  0  0  0  0
  147.2011  134.5345  151.3010 H   0  0  0  0  0  0  0  0  0  0  0  0
  146.8829  133.3137  152.5169 H   0  0  0  0  0  0  0  0  0  0  0  0
  146.4129  131.8377  150.2425 H   0  0  0  0  0  0  0  0  0  0  0  0
  143.9443  131.5014  148.9892 H   0  0  0  0  0  0  0  0  0  0  0  0
  143.7802  134.9189  151.4869 H   0  0  0  0  0  0  0  0  0  0  0  0
  147.8500  135.9685  152.9192 H   0  0  0  0  0  0  0  0  0  0  0  0
  149.7531  142.0179  154.7303 H   0  0  0  0  0  0  0  0  0  0  0  0
  148.1233  141.6394  155.2653 H   0  0  0  0  0  0  0  0  0  0  0  0
  148.4963  141.6988  153.5429 H   0  0  0  0  0  0  0  0  0  0  0  0
  150.8372  137.7078  153.6196 H   0  0  0  0  0  0  0  0  0  0  0  0
  151.3893  137.6201  155.2783 H   0  0  0  0  0  0  0  0  0  0  0  0
  149.1913  137.1230  156.1131 H   0  0  0  0  0  0  0  0  0  0  0  0
  149.3287  136.1863  154.6448 H   0  0  0  0  0  0  0  0  0  0  0  0
  142.5261  133.4159  149.8472 H   0  0  0  0  0  0  0  0  0  0  0  0
  1  2  1  0  0  0  0
  1 20  1  0  0  0  0
  1 21  1  0  0  0  0
  1 22  1  0  0  0  0
  2  3  1  0  0  0  0
  2  9  1  0  0  0  0
  2 23  1  0  0  0  0
  3  4  1  0  0  0  0
  3 24  1  0  0  0  0
  3 25  1  0  0  0  0
  4  8  1  0  0  0  0
  4  5  1  0  0  0  0
  5  6  2  0  0  0  0
  5 26  1  0  0  0  0
  6  7  1  0  0  0  0
  6 27  1  0  0  0  0
  7  8  2  0  0  0  0
  7 37  1  0  0  0  0
  8 28  1  0  0  0  0
  9 10  1  0  0  0  0
  9 29  1  0  0  0  0
 10 11  2  0  0  0  0
 10 12  1  0  0  0  0
 12 19  1  0  0  0  0
 12 13  2  0  0  0  0
 13 14  1  0  0  0  0
 14 15  1  0  0  0  0
 14 16  1  0  0  0  0
 15 30  1  0  0  0  0
 15 31  1  0  0  0  0
 15 32  1  0  0  0  0
 16 17  2  0  0  0  0
 16 18  1  0  0  0  0
 18 19  1  0  0  0  0
 18 33  1  0  0  0  0
 18 34  1  0  0  0  0
 19 35  1  0  0  0  0
 19 36  1  0  0  0  0
M  CHG  1   7   1
M  END
> <s_m_source_file>
AV-unprocessed.smi

> <i_m_source_file_index>
561

> <i_lp_mmshare_version>
43012

> <i_f3d_flags>
0

> <s_epik_input>
W2NIXTFuW2NIXVtjSF1uMVtDSDJdW0NAQEhdKFtDSDNdKVtOSF1DKD1PKUMyPU5OKFtDSDNdKUMoPU8pW0NIMl1bQ0gyXTI=

> <s_epik_cmdline>
J2VwaWtfcHl0aG9uJywgJy1waCcsICc3LjAnLCAnLXRuJywgJzgnLCAnLW1hJywgJzIwMCcsICctbWV0YWxfYmluZGluZycsICctaW1hZScsICc8aW5maWxlLm1hZT4nLCAnLW9tYWUnLCAnPG91dGZpbGUubWFlPic=

> <r_lp_tautomer_probability>
1

> <r_epik_Ionization_Penalty>
0.358595

> <r_epik_Ionization_Penalty_Charging>
0

> <r_epik_Ionization_Penalty_Neutral>
0.358595

> <r_epik_State_Penalty>
0.355181

> <r_epik_Charging_Adjusted_Penalty>
0.355181

> <i_epik_Tot_Q>
1

> <i_epik_Tot_abs_Q>
1

> <r_epik_Metal_State_Penalty>
0.718565

> <b_epik_Metal_Only>
0

> <s_epik_Chemistry_Notes>
This compound has an imine and may undergo hydrolysis.

> <s_lp_Force_Field>
OPLS_2005

> <r_lp_Energy>
20.1569

> <b_lp_Chiralities_Consistent>
1

> <s_lp_Variant>
AV-unprocessed.smi:561-1

> <Gold.Version>
5.8.1

> <Gold.Id.Protein>
6NUR|6NUR_protein|mol2

> <Gold.PLP.Fitness>
42.0418

> <Gold.PLP.PLP>
-30.3259

> <Gold.PLP.part.hbond>
-2.7633

> <Gold.PLP.part.metal>
0.0000

> <Gold.PLP.part.buried>
-3.2538

> <Gold.PLP.part.nonpolar>
-24.0358

> <Gold.PLP.part.repulsive>
0.3002

> <Gold.PLP.ligand.clash>
0.0000

> <Gold.PLP.ligand.torsion>
1.4586

> <Gold.PLP.Chemscore.Hbond>
4.0000

> <Gold.PLP.Chemscore.CHOScore>
0.8753

> <Gold.PLP.Chemscore.Metal>
0.0000

> <Gold.Chemscore.Hbonds>
donor molecule, donor type, donor heavy atom, donor atom, acceptor molecule, acceptor atom, score
      L1  H     7    37       P1 10186  2.00
      L1  H     9    29       P1  7948  1.00
      P1  H  7989  7998       L1    17  1.00
      L1  C     5    26       P1 10747  0.49

> <Gold.PLP.Chemscore.Internal.Correction>
0.0072

> <Gold.Rescore>
     Score         DG    S(hbond)    S(metal)    S(lipo)     H(rot)  DE(clash)    DE(int)     intcor
     14.70     -16.26       2.80        0.00      50.56       1.76       0.04       1.52       ----

> <Gold.Chemscore.Fitness>
14.6963

> <Gold.Chemscore.DG>
-16.2578

> <Gold.Chemscore.ZeroCoef>
-5.4800

> <Gold.Chemscore.Hbond>
2.8041

> <Gold.Chemscore.Metal>
0.0000

> <Gold.Chemscore.Lipo>
50.5552

> <Gold.Chemscore.Internal_Hbond>
0.0000

> <Gold.Chemscore.DEClash>
0.0395

> <Gold.Chemscore.DEInternal>
1.5220

> <Gold.Chemscore.Rot>
1.7589

> <Gold.Chemscore.Internal.Correction>
   9.000000E+99

> <Gold.Chemscore.Hbonds>
donor molecule, donor type, donor heavy atom, donor atom, acceptor molecule, acceptor atom, score
      L1  H     7    37       P1 10186  0.98
      L1  H     9    29       P1  7948  0.92
      P1  H  7989  7998       L1    17  0.34

> <Gold.Chemscore.Hbond.Weighted>
-9.3657

> <Gold.Chemscore.Metal.Weighted>
-0.0000

> <Gold.Chemscore.Lipo.Weighted>
-5.9150

> <Gold.Chemscore.Internal_Hbond.Weighted>
0.0000

> <Gold.Chemscore.DEClash.Weighted>
0.0395

> <Gold.Chemscore.DEInternal.Weighted>
1.5220

> <Gold.Chemscore.Rot.Weighted>
4.5028

> <Gold.Chemscore.Internal.Correction.Weighted>
   9.000000E+99

> <Gold.Protein.RotatedTorsions>
[ 6907 6896 6895 6894 ] final   48.46 input  -60.11 | X-H torsion
[ 7974 7965 7964 7962 ] final  168.21 input  175.53 | X-H torsion
[ 8008 7997 7996 7995 ] final -155.96 input   59.86 | X-H torsion
[ 10167 10162 10161 10158 ] final  139.74 input  -65.29 | X-H torsion
[ 10718 10713 10712 10709 ] final  123.88 input   66.30 | X-H torsion
[ 10763 10752 10751 10750 ] final   79.56 input  -60.55 | X-H torsion
[ 11005 11000 10999 10996 ] final   20.76 input  -57.11 | X-H torsion

> <Gold.Protein.ActiveResidues>
 VAL166  LYS551  ARG553  GLY616  TRP617  ASP618  TYR619  PRO620  LYS621  CYS622 
 ASP623  PHE694  ASN695  SER759  ASP760  ASP761  ALA762  ILE779  LEU786  VAL792 
 PHE793  MET794  SER795  GLU796  ALA797  LYS798  CYS799  TRP800  GLU811  SER814 

> <Gold.Protein.RotatedAtoms>
  152.2798  134.7841  160.0398 H   0  0  0  0  0  0  0  0  0  0  0  0  # atno 6907 bound_to 6896
  151.8424  133.3421  159.3655 H   0  0  0  0  0  0  0  0  0  0  0  0  # atno 6908 bound_to 6896
  150.7185  134.5306  159.5743 H   0  0  0  0  0  0  0  0  0  0  0  0  # atno 6909 bound_to 6896
  144.7396  139.8874  143.6400 H   0  0  0  0  0  0  0  0  0  0  0  0  # atno 7974 bound_to 7965
  155.7098  140.0777  157.2376 H   0  0  0  0  0  0  0  0  0  0  0  0  # atno 8008 bound_to 7997
  154.4060  140.1632  156.2337 H   0  0  0  0  0  0  0  0  0  0  0  0  # atno 8009 bound_to 7997
  155.9293  140.3392  155.6238 H   0  0  0  0  0  0  0  0  0  0  0  0  # atno 8010 bound_to 7997
  139.5069  144.6276  151.5898 H   0  0  0  0  0  0  0  0  0  0  0  0  # atno 10167 bound_to 10162
  157.5630  131.1088  150.8505 H   0  0  0  0  0  0  0  0  0  0  0  0  # atno 10718 bound_to 10713
  153.0962  135.4835  154.8783 H   0  0  0  0  0  0  0  0  0  0  0  0  # atno 10763 bound_to 10752
  154.7327  135.3064  154.8866 H   0  0  0  0  0  0  0  0  0  0  0  0  # atno 10764 bound_to 10752
  153.9497  135.6824  153.4797 H   0  0  0  0  0  0  0  0  0  0  0  0  # atno 10765 bound_to 10752
  140.3991  134.1737  155.7663 H   0  0  0  0  0  0  0  0  0  0  0  0  # atno 11005 bound_to 11000
  146.1167  139.4179  143.0254 LP  0  0  0  0  0  0  0  0  0  0  0  0  # atno 17320 bound_to 7965
  145.7364  141.0024  143.1324 LP  0  0  0  0  0  0  0  0  0  0  0  0  # atno 17321 bound_to 7965
  140.5998  143.9630  150.6379 LP  0  0  0  0  0  0  0  0  0  0  0  0  # atno 17342 bound_to 10162
  140.2838  143.3371  152.1127 LP  0  0  0  0  0  0  0  0  0  0  0  0  # atno 17343 bound_to 10162
  156.8998  130.5242  149.5283 LP  0  0  0  0  0  0  0  0  0  0  0  0  # atno 17370 bound_to 10713
  156.0680  130.5719  150.9328 LP  0  0  0  0  0  0  0  0  0  0  0  0  # atno 17371 bound_to 10713
  141.1863  133.8305  157.1073 LP  0  0  0  0  0  0  0  0  0  0  0  0  # atno 17394 bound_to 11000
  140.0350  134.9883  157.0853 LP  0  0  0  0  0  0  0  0  0  0  0  0  # atno 17395 bound_to 11000

$$$$
