AV-unprocessed.smi:1984|AV-procd|sdf|8040|dock1
  -GOLD-   2272010233D 1   1.00000     0.00000
 Structure written by MMmdl.
 38 39  0  0  0  0  0  0  0  0  1 V2000
  145.5831  132.5495  151.4709 C   0  0  0  0  0  0  0  0  0  0  0  0
  146.7791  132.0349  152.2162 C   0  0  0  0  0  0  0  0  0  0  0  0
  147.0726  130.6949  152.5930 C   0  0  0  0  0  0  0  0  0  0  0  0
  148.2623  130.7838  153.2593 C   0  0  0  0  0  0  0  0  0  0  0  0
  149.0833  129.7168  153.9056 C   0  0  0  0  0  0  0  0  0  0  0  0
  148.6253  132.1194  153.2576 N   0  0  0  0  0  0  0  0  0  0  0  0
  149.7871  132.7609  153.8598 C   0  0  0  0  0  0  0  0  0  0  0  0
  149.3669  133.7651  154.9362 C   0  0  0  0  0  0  0  0  0  0  0  0
  149.2935  133.4135  156.1132 O   0  0  0  0  0  0  0  0  0  0  0  0
  149.1256  135.0195  154.5239 N   0  0  0  0  0  0  0  0  0  0  0  0
  148.9339  136.1672  155.4013 C   0  0  0  0  0  0  0  0  0  0  0  0
  150.2830  136.8071  155.7873 C   0  0  2  0  0  0  0  0  0  0  0  0
  150.2268  137.5509  157.1349 C   0  0  0  0  0  0  0  0  0  0  0  0
  151.5174  138.3612  157.2934 C   0  0  0  0  0  0  0  0  0  0  0  0
  151.9515  138.9275  155.6066 S   0  0  0  0  0  0  0  0  0  0  0  0
  151.4764  140.3063  155.4163 O   0  0  0  0  0  0  0  0  0  0  0  0
  153.3462  138.5602  155.3188 O   0  0  0  0  0  0  0  0  0  0  0  0
  150.8206  137.7855  154.7268 C   0  0  0  0  0  0  0  0  0  0  0  0
  147.7150  132.8815  152.6114 N   0  0  0  0  0  0  0  0  0  0  0  0
  145.0347  131.7353  150.9967 H   0  0  0  0  0  0  0  0  0  0  0  0
  145.8743  133.2514  150.6888 H   0  0  0  0  0  0  0  0  0  0  0  0
  144.8970  133.0646  152.1437 H   0  0  0  0  0  0  0  0  0  0  0  0
  146.4933  129.8027  152.4068 H   0  0  0  0  0  0  0  0  0  0  0  0
  148.5714  128.7550  153.8675 H   0  0  0  0  0  0  0  0  0  0  0  0
  149.2760  129.9510  154.9525 H   0  0  0  0  0  0  0  0  0  0  0  0
  150.0421  129.6062  153.3990 H   0  0  0  0  0  0  0  0  0  0  0  0
  150.4424  132.0064  154.2950 H   0  0  0  0  0  0  0  0  0  0  0  0
  150.3568  133.2657  153.0780 H   0  0  0  0  0  0  0  0  0  0  0  0
  149.1926  135.2110  153.5348 H   0  0  0  0  0  0  0  0  0  0  0  0
  148.3133  136.8925  154.8744 H   0  0  0  0  0  0  0  0  0  0  0  0
  148.3786  135.8714  156.2929 H   0  0  0  0  0  0  0  0  0  0  0  0
  151.0239  136.0136  155.8982 H   0  0  0  0  0  0  0  0  0  0  0  0
  149.3775  138.2352  157.1334 H   0  0  0  0  0  0  0  0  0  0  0  0
  150.0828  136.8652  157.9703 H   0  0  0  0  0  0  0  0  0  0  0  0
  151.4114  139.2132  157.9648 H   0  0  0  0  0  0  0  0  0  0  0  0
  152.3280  137.7281  157.6553 H   0  0  0  0  0  0  0  0  0  0  0  0
  151.3518  137.2829  153.9178 H   0  0  0  0  0  0  0  0  0  0  0  0
  150.0161  138.3811  154.2948 H   0  0  0  0  0  0  0  0  0  0  0  0
  1  2  1  0  0  0  0
  1 20  1  0  0  0  0
  1 21  1  0  0  0  0
  1 22  1  0  0  0  0
  2 19  2  0  0  0  0
  2  3  1  0  0  0  0
  3  4  2  0  0  0  0
  3 23  1  0  0  0  0
  4  5  1  0  0  0  0
  4  6  1  0  0  0  0
  5 24  1  0  0  0  0
  5 25  1  0  0  0  0
  5 26  1  0  0  0  0
  6  7  1  0  0  0  0
  6 19  1  0  0  0  0
  7  8  1  0  0  0  0
  7 27  1  0  0  0  0
  7 28  1  0  0  0  0
  8  9  2  0  0  0  0
  8 10  1  0  0  0  0
 10 11  1  0  0  0  0
 10 29  1  0  0  0  0
 11 12  1  0  0  0  0
 11 30  1  0  0  0  0
 11 31  1  0  0  0  0
 12 18  1  0  0  0  0
 12 13  1  0  0  0  0
 12 32  1  0  0  0  0
 13 14  1  0  0  0  0
 13 33  1  0  0  0  0
 13 34  1  0  0  0  0
 14 15  1  0  0  0  0
 14 35  1  0  0  0  0
 14 36  1  0  0  0  0
 15 16  2  0  0  0  0
 15 17  2  0  0  0  0
 15 18  1  0  0  0  0
 18 37  1  0  0  0  0
 18 38  1  0  0  0  0
M  END
> <s_m_source_file>
AV-unprocessed.smi

> <i_m_source_file_index>
1984

> <i_lp_mmshare_version>
43012

> <i_f3d_flags>
0

> <s_epik_input>
W0NIM11jMVtjSF1jKFtDSDNdKW4objEpW0NIMl1DKD1PKVtOSF1bQ0gyXVtDQEBIXShbQ0gyXTIpW0NIMl1bQ0gyXVMyKD1PKT1P

> <s_epik_cmdline>
J2VwaWtfcHl0aG9uJywgJy1waCcsICc3LjAnLCAnLXRuJywgJzgnLCAnLW1hJywgJzIwMCcsICctbWV0YWxfYmluZGluZycsICctaW1hZScsICc8aW5maWxlLm1hZT4nLCAnLW9tYWUnLCAnPG91dGZpbGUubWFlPic=

> <r_lp_tautomer_probability>
1

> <r_epik_Ionization_Penalty>
0.000335865

> <r_epik_Ionization_Penalty_Charging>
0

> <r_epik_Ionization_Penalty_Neutral>
0.000335865

> <r_epik_State_Penalty>
-0

> <r_epik_Charging_Adjusted_Penalty>
0

> <i_epik_Tot_Q>
0

> <i_epik_Tot_abs_Q>
0

> <r_epik_Metal_State_Penalty>
-0

> <b_epik_Metal_Only>
0

> <s_lp_Force_Field>
OPLS_2005

> <r_lp_Energy>
1.39039

> <b_lp_Chiralities_Consistent>
1

> <s_lp_Variant>
AV-unprocessed.smi:1984-1

> <Gold.Version>
5.8.1

> <Gold.Id.Protein>
6NUR|6NUR_protein|mol2

> <Gold.PLP.Fitness>
35.2821

> <Gold.PLP.PLP>
-28.2251

> <Gold.PLP.part.hbond>
-3.0000

> <Gold.PLP.part.metal>
0.0000

> <Gold.PLP.part.buried>
-4.7017

> <Gold.PLP.part.nonpolar>
-21.3516

> <Gold.PLP.part.repulsive>
0.2010

> <Gold.PLP.ligand.clash>
0.0000

> <Gold.PLP.ligand.torsion>
0.8222

> <Gold.PLP.Chemscore.Hbond>
2.8880

> <Gold.PLP.Chemscore.CHOScore>
0.0000

> <Gold.PLP.Chemscore.Metal>
0.0000

> <Gold.Chemscore.Hbonds>
donor molecule, donor type, donor heavy atom, donor atom, acceptor molecule, acceptor atom, score
      L1  H    10    29       P1  7948  1.00
      P1  H  7989  7998       L1    16  0.93
      P1  H  7997  8010       L1    17  0.84

> <Gold.PLP.Chemscore.Internal.Correction>
0.0373

> <Gold.Rescore>
     Score         DG    S(hbond)    S(metal)    S(lipo)     H(rot)  DE(clash)    DE(int)     intcor
     14.33     -15.20       2.38        0.00      52.01       1.68       0.12       0.75       ----

> <Gold.Chemscore.Fitness>
14.3325

> <Gold.Chemscore.DG>
-15.2012

> <Gold.Chemscore.ZeroCoef>
-5.4800

> <Gold.Chemscore.Hbond>
2.3758

> <Gold.Chemscore.Metal>
0.0000

> <Gold.Chemscore.Lipo>
52.0141

> <Gold.Chemscore.Internal_Hbond>
0.0000

> <Gold.Chemscore.DEClash>
0.1162

> <Gold.Chemscore.DEInternal>
0.7525

> <Gold.Chemscore.Rot>
1.6795

> <Gold.Chemscore.Internal.Correction>
   9.000000E+99

> <Gold.Chemscore.Hbonds>
donor molecule, donor type, donor heavy atom, donor atom, acceptor molecule, acceptor atom, score
      L1  H    10    29       P1  7948  0.30
      P1  H  7989  7998       L1    16  0.68
      P1  H  7997  8010       L1    17  0.27

> <Gold.Chemscore.Hbond.Weighted>
-7.9351

> <Gold.Chemscore.Metal.Weighted>
-0.0000

> <Gold.Chemscore.Lipo.Weighted>
-6.0857

> <Gold.Chemscore.Internal_Hbond.Weighted>
0.0000

> <Gold.Chemscore.DEClash.Weighted>
0.1162

> <Gold.Chemscore.DEInternal.Weighted>
0.7525

> <Gold.Chemscore.Rot.Weighted>
4.2995

> <Gold.Chemscore.Internal.Correction.Weighted>
   9.000000E+99

> <Gold.Protein.RotatedTorsions>
[ 6907 6896 6895 6894 ] final   -8.57 input  -60.11 | X-H torsion
[ 7974 7965 7964 7962 ] final    8.92 input  175.53 | X-H torsion
[ 8008 7997 7996 7995 ] final   85.37 input   59.86 | X-H torsion
[ 10167 10162 10161 10158 ] final  125.29 input  -65.29 | X-H torsion
[ 10718 10713 10712 10709 ] final    1.20 input   66.30 | X-H torsion
[ 10763 10752 10751 10750 ] final -126.59 input  -60.55 | X-H torsion
[ 11005 11000 10999 10996 ] final  152.99 input  -57.11 | X-H torsion

> <Gold.Protein.ActiveResidues>
 VAL166  LYS551  ARG553  GLY616  TRP617  ASP618  TYR619  PRO620  LYS621  CYS622 
 ASP623  PHE694  ASN695  SER759  ASP760  ASP761  ALA762  ILE779  LEU786  VAL792 
 PHE793  MET794  SER795  GLU796  ALA797  LYS798  CYS799  TRP800  GLU811  SER814 

> <Gold.Protein.RotatedAtoms>
  151.4315  135.1010  159.9643 H   0  0  0  0  0  0  0  0  0  0  0  0  # atno 6907 bound_to 6896
  152.4954  133.8613  159.7262 H   0  0  0  0  0  0  0  0  0  0  0  0  # atno 6908 bound_to 6896
  150.9151  133.6890  159.2873 H   0  0  0  0  0  0  0  0  0  0  0  0  # atno 6909 bound_to 6896
  146.2410  139.9861  142.8431 H   0  0  0  0  0  0  0  0  0  0  0  0  # atno 7974 bound_to 7965
  155.9491  140.3402  155.6392 H   0  0  0  0  0  0  0  0  0  0  0  0  # atno 8008 bound_to 7997
  155.6942  140.0752  157.2454 H   0  0  0  0  0  0  0  0  0  0  0  0  # atno 8009 bound_to 7997
  154.4118  140.1651  156.2107 H   0  0  0  0  0  0  0  0  0  0  0  0  # atno 8010 bound_to 7997
  139.5694  144.6930  151.3821 H   0  0  0  0  0  0  0  0  0  0  0  0  # atno 10167 bound_to 10162
  156.8447  130.5533  149.5674 H   0  0  0  0  0  0  0  0  0  0  0  0  # atno 10718 bound_to 10713
  154.8746  135.3990  154.3455 H   0  0  0  0  0  0  0  0  0  0  0  0  # atno 10763 bound_to 10752
  153.4248  135.7024  153.6275 H   0  0  0  0  0  0  0  0  0  0  0  0  # atno 10764 bound_to 10752
  153.4922  135.3746  155.2467 H   0  0  0  0  0  0  0  0  0  0  0  0  # atno 10765 bound_to 10752
  140.1358  134.8772  157.2264 H   0  0  0  0  0  0  0  0  0  0  0  0  # atno 11005 bound_to 11000
  145.1547  140.9641  143.4412 LP  0  0  0  0  0  0  0  0  0  0  0  0  # atno 17320 bound_to 7965
  145.0172  139.3456  143.6090 LP  0  0  0  0  0  0  0  0  0  0  0  0  # atno 17321 bound_to 7965
  140.6978  143.7706  150.7354 LP  0  0  0  0  0  0  0  0  0  0  0  0  # atno 17342 bound_to 10162
  140.1208  143.4614  152.2314 LP  0  0  0  0  0  0  0  0  0  0  0  0  # atno 17343 bound_to 10162
  156.0861  130.5859  150.9650 LP  0  0  0  0  0  0  0  0  0  0  0  0  # atno 17370 bound_to 10713
  157.6336  131.0918  150.8392 LP  0  0  0  0  0  0  0  0  0  0  0  0  # atno 17371 bound_to 10713
  140.2785  134.3378  155.7350 LP  0  0  0  0  0  0  0  0  0  0  0  0  # atno 17394 bound_to 11000
  141.2178  133.7464  156.9328 LP  0  0  0  0  0  0  0  0  0  0  0  0  # atno 17395 bound_to 11000

$$$$
