AV-unprocessed.smi:1417|AV-procd|sdf|5771|dock3
  -GOLD-   22720 5413D 1   1.00000     0.00000
 Structure written by MMmdl.
 39 40  0  0  0  0  0  0  0  0  3 V2000
  152.1996  143.9808  158.5050 C   0  0  0  0  0  0  0  0  0  0  0  0
  151.4549  142.9871  157.6811 C   0  0  0  0  0  0  0  0  0  0  0  0
  151.0077  142.9992  156.3901 C   0  0  0  0  0  0  0  0  0  0  0  0
  150.3786  141.7269  156.2582 C   0  0  0  0  0  0  0  0  0  0  0  0
  149.7368  141.2217  155.0979 N   0  0  0  0  0  0  0  0  0  0  0  0
  148.6224  140.4753  155.0189 C   0  0  0  0  0  0  0  0  0  0  0  0
  147.9369  140.1132  155.9749 O   0  0  0  0  0  0  0  0  0  0  0  0
  148.3384  140.1590  153.7468 N   0  0  0  0  0  0  0  0  0  0  0  0
  147.2089  139.3383  153.3186 C   0  0  2  0  0  0  0  0  0  0  0  0
  147.2810  137.9356  153.9495 C   0  0  0  0  0  0  0  0  0  0  0  0
  146.1567  137.0289  153.4234 C   0  0  0  0  0  0  0  0  0  0  0  0
  146.1893  136.9390  151.9388 N   0  3  1  0  0  0  0  0  0  0  0  0
  145.2038  135.9742  151.3910 C   0  0  0  0  0  0  0  0  0  0  0  0
  145.5474  134.5519  151.8463 C   0  0  0  0  0  0  0  0  0  0  0  0
  146.8060  134.1983  151.5241 N   0  5  0  0  0  0  0  0  0  0  0  0
  144.6967  133.8764  152.4220 O   0  0  0  0  0  0  0  0  0  0  0  0
  146.0791  138.2787  151.3085 C   0  0  0  0  0  0  0  0  0  0  0  0
  147.2045  139.2120  151.7868 C   0  0  0  0  0  0  0  0  0  0  0  0
  150.4403  141.0119  157.3663 N   0  0  0  0  0  0  0  0  0  0  0  0
  151.1300  141.8122  158.2844 O   0  0  0  0  0  0  0  0  0  0  0  0
  152.1659  144.9693  158.0464 H   0  0  0  0  0  0  0  0  0  0  0  0
  153.2452  143.6908  158.6072 H   0  0  0  0  0  0  0  0  0  0  0  0
  151.7699  144.0578  159.5038 H   0  0  0  0  0  0  0  0  0  0  0  0
  151.1212  143.7977  155.6727 H   0  0  0  0  0  0  0  0  0  0  0  0
  150.1907  141.4459  154.2247 H   0  0  0  0  0  0  0  0  0  0  0  0
  148.9529  140.5018  153.0229 H   0  0  0  0  0  0  0  0  0  0  0  0
  146.2793  139.8215  153.6258 H   0  0  0  0  0  0  0  0  0  0  0  0
  148.2469  137.4785  153.7291 H   0  0  0  0  0  0  0  0  0  0  0  0
  147.2133  138.0051  155.0357 H   0  0  0  0  0  0  0  0  0  0  0  0
  146.2660  136.0379  153.8648 H   0  0  0  0  0  0  0  0  0  0  0  0
  145.1863  137.4103  153.7449 H   0  0  0  0  0  0  0  0  0  0  0  0
  144.1877  136.2723  151.6595 H   0  0  0  0  0  0  0  0  0  0  0  0
  145.2475  135.9741  150.3009 H   0  0  0  0  0  0  0  0  0  0  0  0
  147.5570  134.8897  151.6388 H   0  0  0  0  0  0  0  0  0  0  0  0
  146.1343  138.1809  150.2235 H   0  0  0  0  0  0  0  0  0  0  0  0
  145.1045  138.7114  151.5398 H   0  0  0  0  0  0  0  0  0  0  0  0
  147.0855  140.1953  151.3300 H   0  0  0  0  0  0  0  0  0  0  0  0
  148.1648  138.8247  151.4425 H   0  0  0  0  0  0  0  0  0  0  0  0
  147.0975  136.5767  151.6848 H   0  0  0  0  0  0  0  0  0  0  0  0
  1  2  1  0  0  0  0
  1 21  1  0  0  0  0
  1 22  1  0  0  0  0
  1 23  1  0  0  0  0
  2 20  1  0  0  0  0
  2  3  2  0  0  0  0
  3  4  1  0  0  0  0
  3 24  1  0  0  0  0
  4  5  1  0  0  0  0
  4 19  2  0  0  0  0
  5  6  1  0  0  0  0
  5 25  1  0  0  0  0
  6  7  2  0  0  0  0
  6  8  1  0  0  0  0
  8  9  1  0  0  0  0
  8 26  1  0  0  0  0
  9 18  1  0  0  0  0
  9 10  1  0  0  0  0
  9 27  1  0  0  0  0
 10 11  1  0  0  0  0
 10 28  1  0  0  0  0
 10 29  1  0  0  0  0
 11 12  1  0  0  0  0
 11 30  1  0  0  0  0
 11 31  1  0  0  0  0
 12 13  1  0  0  0  0
 12 17  1  0  0  0  0
 12 39  1  0  0  0  0
 13 14  1  0  0  0  0
 13 32  1  0  0  0  0
 13 33  1  0  0  0  0
 14 15  1  0  0  0  0
 14 16  2  0  0  0  0
 15 34  1  0  0  0  0
 17 18  1  0  0  0  0
 17 35  1  0  0  0  0
 17 36  1  0  0  0  0
 18 37  1  0  0  0  0
 18 38  1  0  0  0  0
 19 20  1  0  0  0  0
M  CHG  1  12   1
M  CHG  1  15  -1
M  END
> <s_m_source_file>
AV-unprocessed.smi

> <i_m_source_file_index>
1417

> <i_lp_mmshare_version>
43012

> <i_f3d_flags>
0

> <s_epik_input>
W0NIM11jMVtjSF1jKG5vMSlbTkhdQyg9TylbTkhdW0NIXTJbQ0gyXVtDSDJdTihbQ0gyXVtDSDJdMilbQ0gyXUMoPU8pW05IMl0=

> <s_epik_cmdline>
J2VwaWtfcHl0aG9uJywgJy1waCcsICc3LjAnLCAnLXRuJywgJzgnLCAnLW1hJywgJzIwMCcsICctbWV0YWxfYmluZGluZycsICctaW1hZScsICc8aW5maWxlLm1hZT4nLCAnLW9tYWUnLCAnPG91dGZpbGUubWFlPic=

> <r_epik_Ionization_Penalty>
5.73218

> <r_epik_Ionization_Penalty_Charging>
5.73215

> <r_epik_Ionization_Penalty_Neutral>
3.37968e-05

> <r_epik_State_Penalty>
6.58009

> <r_epik_Charging_Adjusted_Penalty>
12.3122

> <i_epik_Tot_Q>
0

> <i_epik_Tot_abs_Q>
2

> <r_epik_Metal_State_Penalty>
2.55295

> <b_epik_Metal_Only>
1

> <s_lp_Force_Field>
OPLS_2005

> <r_lp_Energy>
6.84109

> <b_lp_Chiralities_Consistent>
1

> <s_lp_Variant>
AV-unprocessed.smi:1417-7

> <Gold.Version>
5.8.1

> <Gold.Id.Protein>
6NUR|6NUR_protein|mol2

> <Gold.PLP.Fitness>
36.3144

> <Gold.PLP.PLP>
-25.4892

> <Gold.PLP.part.hbond>
-3.0000

> <Gold.PLP.part.metal>
0.0000

> <Gold.PLP.part.buried>
5.5323

> <Gold.PLP.part.nonpolar>
-28.5937

> <Gold.PLP.part.repulsive>
0.4654

> <Gold.PLP.ligand.clash>
0.0000

> <Gold.PLP.ligand.torsion>
0.3480

> <Gold.PLP.Chemscore.Hbond>
3.8320

> <Gold.PLP.Chemscore.CHOScore>
0.0000

> <Gold.PLP.Chemscore.Metal>
0.0000

> <Gold.Chemscore.Hbonds>
donor molecule, donor type, donor heavy atom, donor atom, acceptor molecule, acceptor atom, score
      L1  H     8    26       P1  7957  0.83
      L1  H    12    39       P1  7948  2.00
      L1  H    15    34       P1  7948  1.00

> <Gold.PLP.Chemscore.Internal.Correction>
0.0252

> <Gold.Rescore>
     Score         DG    S(hbond)    S(metal)    S(lipo)     H(rot)  DE(clash)    DE(int)     intcor
     12.80     -17.66       2.57        0.00      74.78       2.02       3.33       1.53       ----

> <Gold.Chemscore.Fitness>
12.7963

> <Gold.Chemscore.DG>
-17.6554

> <Gold.Chemscore.ZeroCoef>
-5.4800

> <Gold.Chemscore.Hbond>
2.5722

> <Gold.Chemscore.Metal>
0.0000

> <Gold.Chemscore.Lipo>
74.7795

> <Gold.Chemscore.Internal_Hbond>
0.0000

> <Gold.Chemscore.DEClash>
3.3276

> <Gold.Chemscore.DEInternal>
1.5314

> <Gold.Chemscore.Rot>
2.0176

> <Gold.Chemscore.Internal.Correction>
   9.000000E+99

> <Gold.Chemscore.Hbonds>
donor molecule, donor type, donor heavy atom, donor atom, acceptor molecule, acceptor atom, score
      L1  H     8    26       P1  7957  0.76
      L1  H    12    39       P1  7948  0.99
      L1  H    15    34       P1  7948  0.55

> <Gold.Chemscore.Hbond.Weighted>
-8.5912

> <Gold.Chemscore.Metal.Weighted>
-0.0000

> <Gold.Chemscore.Lipo.Weighted>
-8.7492

> <Gold.Chemscore.Internal_Hbond.Weighted>
0.0000

> <Gold.Chemscore.DEClash.Weighted>
3.3276

> <Gold.Chemscore.DEInternal.Weighted>
1.5314

> <Gold.Chemscore.Rot.Weighted>
5.1651

> <Gold.Chemscore.Internal.Correction.Weighted>
   9.000000E+99

> <Gold.Protein.RotatedTorsions>
[ 6907 6896 6895 6894 ] final -115.25 input  -60.11 | X-H torsion
[ 7974 7965 7964 7962 ] final  147.91 input  175.53 | X-H torsion
[ 8008 7997 7996 7995 ] final  -38.25 input   59.86 | X-H torsion
[ 10167 10162 10161 10158 ] final   31.06 input  -65.29 | X-H torsion
[ 10718 10713 10712 10709 ] final   42.57 input   66.30 | X-H torsion
[ 10763 10752 10751 10750 ] final  -98.23 input  -60.55 | X-H torsion
[ 11005 11000 10999 10996 ] final  118.62 input  -57.11 | X-H torsion

> <Gold.Protein.ActiveResidues>
 VAL166  LYS551  ARG553  GLY616  TRP617  ASP618  TYR619  PRO620  LYS621  CYS622 
 ASP623  PHE694  ASN695  SER759  ASP760  ASP761  ALA762  ILE779  LEU786  VAL792 
 PHE793  MET794  SER795  GLU796  ALA797  LYS798  CYS799  TRP800  GLU811  SER814 

> <Gold.Protein.RotatedAtoms>
  150.7964  133.8684  159.3251 H   0  0  0  0  0  0  0  0  0  0  0  0  # atno 6907 bound_to 6896
  151.6508  135.1000  160.0170 H   0  0  0  0  0  0  0  0  0  0  0  0  # atno 6908 bound_to 6896
  152.4046  133.6830  159.6380 H   0  0  0  0  0  0  0  0  0  0  0  0  # atno 6909 bound_to 6896
  144.8554  139.6088  143.5954 H   0  0  0  0  0  0  0  0  0  0  0  0  # atno 7974 bound_to 7965
  154.4040  140.1583  156.2669 H   0  0  0  0  0  0  0  0  0  0  0  0  # atno 8008 bound_to 7997
  155.8987  140.3434  155.5988 H   0  0  0  0  0  0  0  0  0  0  0  0  # atno 8009 bound_to 7997
  155.7473  140.0800  157.2208 H   0  0  0  0  0  0  0  0  0  0  0  0  # atno 8010 bound_to 7997
  140.4622  144.0889  150.6215 H   0  0  0  0  0  0  0  0  0  0  0  0  # atno 10167 bound_to 10162
  157.4063  130.7889  149.7392 H   0  0  0  0  0  0  0  0  0  0  0  0  # atno 10718 bound_to 10713
  154.7396  135.5017  153.9100 H   0  0  0  0  0  0  0  0  0  0  0  0  # atno 10763 bound_to 10752
  153.1030  135.6690  153.9646 H   0  0  0  0  0  0  0  0  0  0  0  0  # atno 10764 bound_to 10752
  153.9427  135.3066  155.3421 H   0  0  0  0  0  0  0  0  0  0  0  0  # atno 10765 bound_to 10752
  139.9116  134.9622  156.7530 H   0  0  0  0  0  0  0  0  0  0  0  0  # atno 11005 bound_to 11000
  146.2819  139.6900  142.9223 LP  0  0  0  0  0  0  0  0  0  0  0  0  # atno 17320 bound_to 7965
  145.4416  141.0423  143.2854 LP  0  0  0  0  0  0  0  0  0  0  0  0  # atno 17321 bound_to 7965
  140.4079  143.2671  151.9868 LP  0  0  0  0  0  0  0  0  0  0  0  0  # atno 17342 bound_to 10162
  139.4807  144.5941  151.7721 LP  0  0  0  0  0  0  0  0  0  0  0  0  # atno 17343 bound_to 10162
  155.9837  130.3998  150.3347 LP  0  0  0  0  0  0  0  0  0  0  0  0  # atno 17370 bound_to 10713
  157.1481  131.0314  151.2898 LP  0  0  0  0  0  0  0  0  0  0  0  0  # atno 17371 bound_to 10713
  140.6758  133.9519  155.7882 LP  0  0  0  0  0  0  0  0  0  0  0  0  # atno 17394 bound_to 11000
  141.0545  134.0436  157.3740 LP  0  0  0  0  0  0  0  0  0  0  0  0  # atno 17395 bound_to 11000

$$$$
