AV-unprocessed.smi:886|AV-procd|sdf|4048|dock2
  -GOLD-   22720 1533D 1   1.00000     0.00000
 Structure written by MMmdl.
 35 37  0  0  0  0  0  0  0  0  1 V2000
  148.3330  141.6736  154.4830 C   0  0  0  0  0  0  0  0  0  0  0  0
  149.2378  142.0934  155.5418 N   0  0  0  0  0  0  0  0  0  0  0  0
  150.3030  141.3861  155.9491 C   0  0  0  0  0  0  0  0  0  0  0  0
  150.6300  140.3095  155.4479 O   0  0  0  0  0  0  0  0  0  0  0  0
  151.1103  142.0189  157.0542 C   0  0  0  0  0  0  0  0  0  0  0  0
  151.1958  143.4290  157.1337 C   0  0  0  0  0  0  0  0  0  0  0  0
  151.9256  144.0239  158.1781 C   0  0  0  0  0  0  0  0  0  0  0  0
  152.5448  143.1836  159.1186 C   0  0  0  0  0  0  0  0  0  0  0  0
  152.4703  141.8388  159.0654 N   0  0  0  0  0  0  0  0  0  0  0  0
  151.7677  141.2563  158.0630 C   0  0  0  0  0  0  0  0  0  0  0  0
  151.7367  139.8505  158.0402 N   0  0  0  0  0  0  0  0  0  0  0  0
  151.6772  139.0900  159.2851 C   0  0  2  0  0  0  0  0  0  0  0  0
  153.0472  138.9288  159.9481 C   0  0  0  0  0  0  0  0  0  0  0  0
  153.1425  137.4056  160.1123 C   0  0  2  0  0  0  0  0  0  0  0  0
  153.4166  136.7111  158.7719 C   0  0  0  0  0  0  0  0  0  0  0  0
  152.0654  136.8435  158.0726 C   0  0  0  0  0  0  0  0  0  0  0  0
  151.2420  137.6195  159.1149 C   0  0  1  0  0  0  0  0  0  0  0  0
  151.7785  137.0703  160.3066 O   0  0  0  0  0  0  0  0  0  0  0  0
  147.5424  142.4127  154.3548 H   0  0  0  0  0  0  0  0  0  0  0  0
  147.8692  140.7164  154.7249 H   0  0  0  0  0  0  0  0  0  0  0  0
  148.8640  141.5747  153.5354 H   0  0  0  0  0  0  0  0  0  0  0  0
  149.0453  142.9764  155.9924 H   0  0  0  0  0  0  0  0  0  0  0  0
  150.7028  144.0587  156.4070 H   0  0  0  0  0  0  0  0  0  0  0  0
  152.0056  145.0979  158.2577 H   0  0  0  0  0  0  0  0  0  0  0  0
  153.1144  143.6014  159.9353 H   0  0  0  0  0  0  0  0  0  0  0  0
  151.3269  139.4165  157.2253 H   0  0  0  0  0  0  0  0  0  0  0  0
  151.0102  139.5912  159.9881 H   0  0  0  0  0  0  0  0  0  0  0  0
  153.8732  139.3278  159.3576 H   0  0  0  0  0  0  0  0  0  0  0  0
  153.0569  139.4252  160.9190 H   0  0  0  0  0  0  0  0  0  0  0  0
  153.8043  137.0874  160.9182 H   0  0  0  0  0  0  0  0  0  0  0  0
  154.2280  137.1841  158.2177 H   0  0  0  0  0  0  0  0  0  0  0  0
  153.6698  135.6607  158.9201 H   0  0  0  0  0  0  0  0  0  0  0  0
  152.1299  137.3510  157.1102 H   0  0  0  0  0  0  0  0  0  0  0  0
  151.6310  135.8580  157.9013 H   0  0  0  0  0  0  0  0  0  0  0  0
  150.1648  137.4858  159.0112 H   0  0  0  0  0  0  0  0  0  0  0  0
  1  2  1  0  0  0  0
  1 19  1  0  0  0  0
  1 20  1  0  0  0  0
  1 21  1  0  0  0  0
  2  3  1  0  0  0  0
  2 22  1  0  0  0  0
  3  4  2  0  0  0  0
  3  5  1  0  0  0  0
  5 10  1  0  0  0  0
  5  6  2  0  0  0  0
  6  7  1  0  0  0  0
  6 23  1  0  0  0  0
  7  8  2  0  0  0  0
  7 24  1  0  0  0  0
  8  9  1  0  0  0  0
  8 25  1  0  0  0  0
  9 10  2  0  0  0  0
 10 11  1  0  0  0  0
 11 12  1  0  0  0  0
 11 26  1  0  0  0  0
 12 17  1  0  0  0  0
 12 13  1  0  0  0  0
 12 27  1  0  0  0  0
 13 14  1  0  0  0  0
 13 28  1  0  0  0  0
 13 29  1  0  0  0  0
 14 18  1  0  0  0  0
 14 15  1  0  0  0  0
 14 30  1  0  0  0  0
 15 16  1  0  0  0  0
 15 31  1  0  0  0  0
 15 32  1  0  0  0  0
 16 17  1  0  0  0  0
 16 33  1  0  0  0  0
 16 34  1  0  0  0  0
 17 18  1  0  0  0  0
 17 35  1  0  0  0  0
M  END
> <s_m_source_file>
AV-unprocessed.smi

> <i_m_source_file_index>
886

> <i_lp_mmshare_version>
43012

> <i_f3d_flags>
0

> <s_epik_input>
W0NIM11bTkhdQyg9TyljMVtjSF1bY0hdW2NIXW5jMVtOSF1bQ0BIXShbQ0gyXVtDQEhdMjMpW0NASF0oTzMpW0NIMl1bQ0gyXTI=

> <s_epik_cmdline>
J2VwaWtfcHl0aG9uJywgJy1waCcsICc3LjAnLCAnLXRuJywgJzgnLCAnLW1hJywgJzIwMCcsICctbWV0YWxfYmluZGluZycsICctaW1hZScsICc8aW5maWxlLm1hZT4nLCAnLW9tYWUnLCAnPG91dGZpbGUubWFlPic=

> <r_lp_tautomer_probability>
1

> <r_epik_Ionization_Penalty>
0.0065447

> <r_epik_Ionization_Penalty_Charging>
0

> <r_epik_Ionization_Penalty_Neutral>
0.0065447

> <r_epik_State_Penalty>
0.00484214

> <r_epik_Charging_Adjusted_Penalty>
0.00484214

> <i_epik_Tot_Q>
0

> <i_epik_Tot_abs_Q>
0

> <r_epik_Metal_State_Penalty>
-0

> <b_epik_Metal_Only>
0

> <s_lp_Force_Field>
OPLS_2005

> <r_lp_Energy>
46.6605

> <b_lp_Chiralities_Consistent>
1

> <s_lp_Variant>
AV-unprocessed.smi:886-1

> <Gold.Version>
5.8.1

> <Gold.Id.Protein>
6NUR|6NUR_protein|mol2

> <Gold.PLP.Fitness>
39.2542

> <Gold.PLP.PLP>
-32.6313

> <Gold.PLP.part.hbond>
-2.9614

> <Gold.PLP.part.metal>
0.0000

> <Gold.PLP.part.buried>
-3.9269

> <Gold.PLP.part.nonpolar>
-25.0128

> <Gold.PLP.part.repulsive>
0.2933

> <Gold.PLP.ligand.clash>
0.0000

> <Gold.PLP.ligand.torsion>
0.9788

> <Gold.PLP.Chemscore.Hbond>
2.8553

> <Gold.PLP.Chemscore.CHOScore>
0.0000

> <Gold.PLP.Chemscore.Metal>
0.0000

> <Gold.Chemscore.Hbonds>
donor molecule, donor type, donor heavy atom, donor atom, acceptor molecule, acceptor atom, score
      L1  H     2    22       P1  8028  0.85
      P1  H  6896  6909       L1    18  1.00
      P1  H  7989  7998       L1     4  0.42

> <Gold.PLP.Chemscore.Internal.Correction>
0.0147

> <Gold.Rescore>
     Score         DG    S(hbond)    S(metal)    S(lipo)     H(rot)  DE(clash)    DE(int)     intcor
     17.12     -18.82       1.99        0.00      79.19       1.00       0.30       1.39       ----

> <Gold.Chemscore.Fitness>
17.1244

> <Gold.Chemscore.DG>
-18.8202

> <Gold.Chemscore.ZeroCoef>
-5.4800

> <Gold.Chemscore.Hbond>
1.9866

> <Gold.Chemscore.Metal>
0.0000

> <Gold.Chemscore.Lipo>
79.1873

> <Gold.Chemscore.Internal_Hbond>
0.0000

> <Gold.Chemscore.DEClash>
0.3045

> <Gold.Chemscore.DEInternal>
1.3912

> <Gold.Chemscore.Rot>
1.0000

> <Gold.Chemscore.Internal.Correction>
   9.000000E+99

> <Gold.Chemscore.Hbonds>
donor molecule, donor type, donor heavy atom, donor atom, acceptor molecule, acceptor atom, score
      L1  H     2    22       P1  8028  0.83
      P1  H  6896  6909       L1    18  0.22
      P1  H  7989  7998       L1     4  0.19

> <Gold.Chemscore.Hbond.Weighted>
-6.6353

> <Gold.Chemscore.Metal.Weighted>
-0.0000

> <Gold.Chemscore.Lipo.Weighted>
-9.2649

> <Gold.Chemscore.Internal_Hbond.Weighted>
0.0000

> <Gold.Chemscore.DEClash.Weighted>
0.3045

> <Gold.Chemscore.DEInternal.Weighted>
1.3912

> <Gold.Chemscore.Rot.Weighted>
2.5600

> <Gold.Chemscore.Internal.Correction.Weighted>
   9.000000E+99

> <Gold.Protein.RotatedTorsions>
[ 6907 6896 6895 6894 ] final  126.57 input  -60.11 | X-H torsion
[ 7974 7965 7964 7962 ] final -175.95 input  175.53 | X-H torsion
[ 8008 7997 7996 7995 ] final  -82.72 input   59.86 | X-H torsion
[ 10167 10162 10161 10158 ] final  -11.61 input  -65.29 | X-H torsion
[ 10718 10713 10712 10709 ] final  -68.16 input   66.30 | X-H torsion
[ 10763 10752 10751 10750 ] final  -82.46 input  -60.55 | X-H torsion
[ 11005 11000 10999 10996 ] final  155.84 input  -57.11 | X-H torsion

> <Gold.Protein.ActiveResidues>
 VAL166  LYS551  ARG553  GLY616  TRP617  ASP618  TYR619  PRO620  LYS621  CYS622 
 ASP623  PHE694  ASN695  SER759  ASP760  ASP761  ALA762  ILE779  LEU786  VAL792 
 PHE793  MET794  SER795  GLU796  ALA797  LYS798  CYS799  TRP800  GLU811  SER814 

> <Gold.Protein.RotatedAtoms>
  152.3891  133.6654  159.6222 H   0  0  0  0  0  0  0  0  0  0  0  0  # atno 6907 bound_to 6896
  150.7804  133.8984  159.3343 H   0  0  0  0  0  0  0  0  0  0  0  0  # atno 6908 bound_to 6896
  151.6774  135.0968  160.0261 H   0  0  0  0  0  0  0  0  0  0  0  0  # atno 6909 bound_to 6896
  144.7127  140.1244  143.6403 H   0  0  0  0  0  0  0  0  0  0  0  0  # atno 7974 bound_to 7965
  154.6116  140.0629  156.9501 H   0  0  0  0  0  0  0  0  0  0  0  0  # atno 8008 bound_to 7997
  155.1964  140.3311  155.4332 H   0  0  0  0  0  0  0  0  0  0  0  0  # atno 8009 bound_to 7997
  156.2380  140.1872  156.7050 H   0  0  0  0  0  0  0  0  0  0  0  0  # atno 8010 bound_to 7997
  140.7142  143.5621  150.9184 H   0  0  0  0  0  0  0  0  0  0  0  0  # atno 10167 bound_to 10162
  156.0520  130.4290  150.1959 H   0  0  0  0  0  0  0  0  0  0  0  0  # atno 10718 bound_to 10713
  154.5760  135.5590  153.7140 H   0  0  0  0  0  0  0  0  0  0  0  0  # atno 10763 bound_to 10752
  153.0065  135.6308  154.2048 H   0  0  0  0  0  0  0  0  0  0  0  0  # atno 10764 bound_to 10752
  154.1988  135.2879  155.2977 H   0  0  0  0  0  0  0  0  0  0  0  0  # atno 10765 bound_to 10752
  140.1619  134.8604  157.2584 H   0  0  0  0  0  0  0  0  0  0  0  0  # atno 11005 bound_to 11000
  145.9342  139.2626  143.1307 LP  0  0  0  0  0  0  0  0  0  0  0  0  # atno 17320 bound_to 7965
  145.9491  140.8922  143.0268 LP  0  0  0  0  0  0  0  0  0  0  0  0  # atno 17321 bound_to 7965
  139.9347  143.6452  152.3068 LP  0  0  0  0  0  0  0  0  0  0  0  0  # atno 17342 bound_to 10162
  139.6915  144.7646  151.1430 LP  0  0  0  0  0  0  0  0  0  0  0  0  # atno 17343 bound_to 10162
  157.0041  130.9931  151.3383 LP  0  0  0  0  0  0  0  0  0  0  0  0  # atno 17370 bound_to 10713
  157.5455  130.8147  149.8080 LP  0  0  0  0  0  0  0  0  0  0  0  0  # atno 17371 bound_to 10713
  140.2480  134.3717  155.7453 LP  0  0  0  0  0  0  0  0  0  0  0  0  # atno 17394 bound_to 11000
  141.2210  133.7301  156.8891 LP  0  0  0  0  0  0  0  0  0  0  0  0  # atno 17395 bound_to 11000

$$$$
