AV-unprocessed.smi:209|AV-procd|sdf|1610|dock2
  -GOLD-   2262019533D 1   1.00000     0.00000
 Structure written by MMmdl.
 48 52  0  0  0  0  0  0  0  0  1 V2000
  151.2452  140.3313  154.3901 O   0  0  0  0  0  0  0  0  0  0  0  0
  150.3156  139.6249  154.7748 C   0  0  0  0  0  0  0  0  0  0  0  0
  150.3574  138.3058  154.9546 N   0  0  0  0  0  0  0  0  0  0  0  0
  149.0730  137.7405  155.3322 C   0  0  0  0  0  0  0  0  0  0  0  0
  148.0550  138.8791  155.0744 C   0  0  1  0  0  0  0  0  0  0  0  0
  148.9375  140.1491  155.1526 C   0  0  2  0  0  0  0  0  0  0  0  0
  148.4242  141.3667  154.3552 C   0  0  0  0  0  0  0  0  0  0  0  0
  147.8789  140.9701  152.9806 C   0  0  0  0  0  0  0  0  0  0  0  0
  146.8173  139.8782  153.1406 C   0  0  0  0  0  0  0  0  0  0  0  0
  147.3996  138.6940  153.7660 N   0  0  0  0  0  0  0  0  0  0  0  0
  146.6171  137.5963  153.6009 C   0  0  0  0  0  0  0  0  0  0  0  0
  146.2290  136.8652  154.6799 N   0  0  0  0  0  0  0  0  0  0  0  0
  145.4471  135.7935  154.5215 C   0  0  0  0  0  0  0  0  0  0  0  0
  144.9476  135.2845  153.3937 N   0  0  0  0  0  0  0  0  0  0  0  0
  145.3389  136.0101  152.3072 C   0  0  0  0  0  0  0  0  0  0  0  0
  146.1644  137.1691  152.3216 C   0  0  0  0  0  0  0  0  0  0  0  0
  146.3519  137.6332  151.0257 N   0  0  0  0  0  0  0  0  0  0  0  0
  145.6694  136.8004  150.2877 C   0  0  0  0  0  0  0  0  0  0  0  0
  145.0361  135.7883  150.9745 N   0  0  0  0  0  0  0  0  0  0  0  0
  144.2064  134.7331  150.4108 C   0  0  0  0  0  0  0  0  0  0  0  0
  144.8372  133.3266  150.4621 C   0  0  0  0  0  0  0  0  0  0  0  0
  144.2508  132.4772  149.3164 C   0  0  0  0  0  0  0  0  0  0  0  0
  142.9161  132.0797  149.5593 O   0  0  0  0  0  0  0  0  0  0  0  0
  146.3668  133.3427  150.6072 C   0  0  0  0  0  0  0  0  0  0  0  0
  146.2983  132.9683  152.0007 O   0  0  0  0  0  0  0  0  0  0  0  0
  144.8919  132.6733  151.8513 C   0  0  0  0  0  0  0  0  0  0  0  0
  147.2972  138.9085  155.8585 H   0  0  0  0  0  0  0  0  0  0  0  0
  149.0259  140.4475  156.1983 H   0  0  0  0  0  0  0  0  0  0  0  0
  151.1714  137.7359  154.7752 H   0  0  0  0  0  0  0  0  0  0  0  0
  148.8726  136.8220  154.7798 H   0  0  0  0  0  0  0  0  0  0  0  0
  149.1053  137.4893  156.3928 H   0  0  0  0  0  0  0  0  0  0  0  0
  147.6279  141.8479  154.9244 H   0  0  0  0  0  0  0  0  0  0  0  0
  149.2078  142.1171  154.2457 H   0  0  0  0  0  0  0  0  0  0  0  0
  147.4477  141.8412  152.4867 H   0  0  0  0  0  0  0  0  0  0  0  0
  148.6875  140.6144  152.3407 H   0  0  0  0  0  0  0  0  0  0  0  0
  145.9918  140.2397  153.7554 H   0  0  0  0  0  0  0  0  0  0  0  0
  146.4005  139.6415  152.1613 H   0  0  0  0  0  0  0  0  0  0  0  0
  145.1834  135.2690  155.4280 H   0  0  0  0  0  0  0  0  0  0  0  0
  145.6078  136.9074  149.2146 H   0  0  0  0  0  0  0  0  0  0  0  0
  143.2482  134.7377  150.9320 H   0  0  0  0  0  0  0  0  0  0  0  0
  143.9783  135.0091  149.3802 H   0  0  0  0  0  0  0  0  0  0  0  0
  144.2523  133.0288  148.3763 H   0  0  0  0  0  0  0  0  0  0  0  0
  144.8460  131.5774  149.1586 H   0  0  0  0  0  0  0  0  0  0  0  0
  142.4054  132.8485  149.7626 H   0  0  0  0  0  0  0  0  0  0  0  0
  146.8934  132.5946  150.0135 H   0  0  0  0  0  0  0  0  0  0  0  0
  146.8147  134.3266  150.4631 H   0  0  0  0  0  0  0  0  0  0  0  0
  144.2852  133.1680  152.6087 H   0  0  0  0  0  0  0  0  0  0  0  0
  144.7027  131.5990  151.8520 H   0  0  0  0  0  0  0  0  0  0  0  0
  1  2  2  0  0  0  0
  2  6  1  0  0  0  0
  2  3  1  0  0  0  0
  3  4  1  0  0  0  0
  3 29  1  0  0  0  0
  4  5  1  0  0  0  0
  4 30  1  0  0  0  0
  4 31  1  0  0  0  0
  5 27  1  0  0  0  0
  5 10  1  0  0  0  0
  5  6  1  0  0  0  0
  6 28  1  0  0  0  0
  6  7  1  0  0  0  0
  7  8  1  0  0  0  0
  7 32  1  0  0  0  0
  7 33  1  0  0  0  0
  8  9  1  0  0  0  0
  8 34  1  0  0  0  0
  8 35  1  0  0  0  0
  9 10  1  0  0  0  0
  9 36  1  0  0  0  0
  9 37  1  0  0  0  0
 10 11  1  0  0  0  0
 11 16  1  0  0  0  0
 11 12  2  0  0  0  0
 12 13  1  0  0  0  0
 13 14  2  0  0  0  0
 13 38  1  0  0  0  0
 14 15  1  0  0  0  0
 15 19  1  0  0  0  0
 15 16  2  0  0  0  0
 16 17  1  0  0  0  0
 17 18  2  0  0  0  0
 18 19  1  0  0  0  0
 18 39  1  0  0  0  0
 19 20  1  0  0  0  0
 20 21  1  0  0  0  0
 20 40  1  0  0  0  0
 20 41  1  0  0  0  0
 21 26  1  0  0  0  0
 21 22  1  0  0  0  0
 21 24  1  0  0  0  0
 22 23  1  0  0  0  0
 22 42  1  0  0  0  0
 22 43  1  0  0  0  0
 23 44  1  0  0  0  0
 24 25  1  0  0  0  0
 24 45  1  0  0  0  0
 24 46  1  0  0  0  0
 25 26  1  0  0  0  0
 26 47  1  0  0  0  0
 26 48  1  0  0  0  0
M  END
> <s_m_source_file>
AV-unprocessed.smi

> <i_m_source_file_index>
209

> <i_lp_mmshare_version>
43012

> <i_f3d_flags>
0

> <s_epik_input>
W0NIMl0xW05IXUMoPU8pW0NAQEhdKFtDQEBIXTEyKVtDSDJdW0NIMl1bQ0gyXU4yYyhuW2NIXW4zKWMoYzM0KW5bY0hdbjRbQ0gyXUM1KFtDSDJdW09IXSlbQ0gyXU9bQ0gyXTU=

> <s_epik_cmdline>
J2VwaWtfcHl0aG9uJywgJy1waCcsICc3LjAnLCAnLXRuJywgJzgnLCAnLW1hJywgJzIwMCcsICctbWV0YWxfYmluZGluZycsICctaW1hZScsICc8aW5maWxlLm1hZT4nLCAnLW9tYWUnLCAnPG91dGZpbGUubWFlPic=

> <r_lp_tautomer_probability>
1

> <r_epik_Ionization_Penalty>
0.00113306

> <r_epik_Ionization_Penalty_Charging>
0

> <r_epik_Ionization_Penalty_Neutral>
0.00113306

> <r_epik_State_Penalty>
0.000624042

> <r_epik_Charging_Adjusted_Penalty>
0.000624042

> <i_epik_Tot_Q>
0

> <i_epik_Tot_abs_Q>
0

> <r_epik_Metal_State_Penalty>
-0

> <b_epik_Metal_Only>
0

> <s_lp_Force_Field>
OPLS_2005

> <r_lp_Energy>
50.5129

> <b_lp_Chiralities_Consistent>
1

> <s_lp_Variant>
AV-unprocessed.smi:209-4

> <Gold.Version>
5.8.1

> <Gold.Id.Protein>
6NUR|6NUR_protein|mol2

> <Gold.PLP.Fitness>
43.2020

> <Gold.PLP.PLP>
-31.0169

> <Gold.PLP.part.hbond>
-4.9316

> <Gold.PLP.part.metal>
0.0000

> <Gold.PLP.part.buried>
1.8782

> <Gold.PLP.part.nonpolar>
-31.4759

> <Gold.PLP.part.repulsive>
2.8906

> <Gold.PLP.ligand.clash>
0.0000

> <Gold.PLP.ligand.torsion>
0.9483

> <Gold.PLP.Chemscore.Hbond>
3.5373

> <Gold.PLP.Chemscore.CHOScore>
0.9120

> <Gold.PLP.Chemscore.Metal>
0.0000

> <Gold.Chemscore.Hbonds>
donor molecule, donor type, donor heavy atom, donor atom, acceptor molecule, acceptor atom, score
      L1  H    23    44       P1 10186  0.80
      P1  H  7954  7966       L1    17  0.71
      P1  H 10785 10796       L1    23  0.55
      L1  C    18    39       P1  7921  0.59
      L1  C    18    39       P1 10171  0.08

> <Gold.PLP.Chemscore.Internal.Correction>
0.7339

> <Gold.Rescore>
     Score         DG    S(hbond)    S(metal)    S(lipo)     H(rot)  DE(clash)    DE(int)     intcor
      6.50     -14.38       2.11        0.00      74.23       2.66       4.39       3.48       ----

> <Gold.Chemscore.Fitness>
6.5036

> <Gold.Chemscore.DG>
-14.3822

> <Gold.Chemscore.ZeroCoef>
-5.4800

> <Gold.Chemscore.Hbond>
2.1054

> <Gold.Chemscore.Metal>
0.0000

> <Gold.Chemscore.Lipo>
74.2293

> <Gold.Chemscore.Internal_Hbond>
0.0000

> <Gold.Chemscore.DEClash>
4.3938

> <Gold.Chemscore.DEInternal>
3.4848

> <Gold.Chemscore.Rot>
2.6620

> <Gold.Chemscore.Internal.Correction>
   9.000000E+99

> <Gold.Chemscore.Hbonds>
donor molecule, donor type, donor heavy atom, donor atom, acceptor molecule, acceptor atom, score
      L1  H    23    44       P1 10186  0.78
      P1  H  7954  7966       L1    17  0.24
      P1  H  7989  7998       L1     1  0.05
      P1  H 10785 10796       L1    23  0.06

> <Gold.Chemscore.Hbond.Weighted>
-7.0322

> <Gold.Chemscore.Metal.Weighted>
-0.0000

> <Gold.Chemscore.Lipo.Weighted>
-8.6848

> <Gold.Chemscore.Internal_Hbond.Weighted>
0.0000

> <Gold.Chemscore.DEClash.Weighted>
4.3938

> <Gold.Chemscore.DEInternal.Weighted>
3.4848

> <Gold.Chemscore.Rot.Weighted>
6.8148

> <Gold.Chemscore.Internal.Correction.Weighted>
   9.000000E+99

> <Gold.Protein.RotatedTorsions>
[ 6907 6896 6895 6894 ] final   -7.73 input  -60.11 | X-H torsion
[ 7974 7965 7964 7962 ] final   80.91 input  175.53 | X-H torsion
[ 8008 7997 7996 7995 ] final  -19.94 input   59.86 | X-H torsion
[ 10167 10162 10161 10158 ] final  142.16 input  -65.29 | X-H torsion
[ 10718 10713 10712 10709 ] final  -74.81 input   66.30 | X-H torsion
[ 10763 10752 10751 10750 ] final  -17.39 input  -60.55 | X-H torsion
[ 11005 11000 10999 10996 ] final  -87.62 input  -57.11 | X-H torsion

> <Gold.Protein.ActiveResidues>
 VAL166  LYS551  ARG553  GLY616  TRP617  ASP618  TYR619  PRO620  LYS621  CYS622 
 ASP623  PHE694  ASN695  SER759  ASP760  ASP761  ALA762  ILE779  LEU786  VAL792 
 PHE793  MET794  SER795  GLU796  ALA797  LYS798  CYS799  TRP800  GLU811  SER814 

> <Gold.Protein.RotatedAtoms>
  151.4449  135.1024  159.9680 H   0  0  0  0  0  0  0  0  0  0  0  0  # atno 6907 bound_to 6896
  152.4909  133.8494  159.7204 H   0  0  0  0  0  0  0  0  0  0  0  0  # atno 6908 bound_to 6896
  150.9062  133.6996  159.2893 H   0  0  0  0  0  0  0  0  0  0  0  0  # atno 6909 bound_to 6896
  145.6450  139.2434  143.2009 H   0  0  0  0  0  0  0  0  0  0  0  0  # atno 7974 bound_to 7965
  154.4802  140.2075  155.9781 H   0  0  0  0  0  0  0  0  0  0  0  0  # atno 8008 bound_to 7997
  156.1154  140.3222  155.8101 H   0  0  0  0  0  0  0  0  0  0  0  0  # atno 8009 bound_to 7997
  155.4562  140.0520  157.2986 H   0  0  0  0  0  0  0  0  0  0  0  0  # atno 8010 bound_to 7997
  139.5001  144.6125  151.6239 H   0  0  0  0  0  0  0  0  0  0  0  0  # atno 10167 bound_to 10162
  156.0229  130.4426  150.2948 H   0  0  0  0  0  0  0  0  0  0  0  0  # atno 10718 bound_to 10713
  153.5732  135.7007  153.5495 H   0  0  0  0  0  0  0  0  0  0  0  0  # atno 10763 bound_to 10752
  153.3326  135.4043  155.1507 H   0  0  0  0  0  0  0  0  0  0  0  0  # atno 10764 bound_to 10752
  154.8630  135.3722  154.5255 H   0  0  0  0  0  0  0  0  0  0  0  0  # atno 10765 bound_to 10752
  141.1614  133.7522  156.9333 H   0  0  0  0  0  0  0  0  0  0  0  0  # atno 11005 bound_to 11000
  146.1250  140.7260  142.9439 LP  0  0  0  0  0  0  0  0  0  0  0  0  # atno 17320 bound_to 7965
  144.7143  140.4154  143.7056 LP  0  0  0  0  0  0  0  0  0  0  0  0  # atno 17321 bound_to 7965
  140.5803  143.9956  150.6265 LP  0  0  0  0  0  0  0  0  0  0  0  0  # atno 17342 bound_to 10162
  140.3104  143.3202  152.0885 LP  0  0  0  0  0  0  0  0  0  0  0  0  # atno 17343 bound_to 10162
  157.1051  131.0206  151.3070 LP  0  0  0  0  0  0  0  0  0  0  0  0  # atno 17370 bound_to 10713
  157.4749  130.7730  149.7358 LP  0  0  0  0  0  0  0  0  0  0  0  0  # atno 17371 bound_to 10713
  140.1371  134.9318  157.2417 LP  0  0  0  0  0  0  0  0  0  0  0  0  # atno 17394 bound_to 11000
  140.2881  134.3272  155.7323 LP  0  0  0  0  0  0  0  0  0  0  0  0  # atno 17395 bound_to 11000

$$$$
