AV-unprocessed.smi:2351|AV-procd|sdf|9377|dock7
  -GOLD-   2272013 03D 1   1.00000     0.00000
 Structure written by MMmdl.
 47 49  0  0  0  0  0  0  0  0  2 V2000
  146.5411  139.0477  151.7119 O   0  0  0  0  0  0  0  0  0  0  0  0
  146.5075  138.7761  152.9114 C   0  0  0  0  0  0  0  0  0  0  0  0
  146.0400  137.6329  153.4420 N   0  0  0  0  0  0  0  0  0  0  0  0
  145.5402  136.4765  152.7817 C   0  0  0  0  0  0  0  0  0  0  0  0
  145.6145  136.2586  151.3842 C   0  0  0  0  0  0  0  0  0  0  0  0
  145.0959  135.0573  150.8598 C   0  0  0  0  0  0  0  0  0  0  0  0
  144.5358  134.0933  151.6205 N   0  0  0  0  0  0  0  0  0  0  0  0
  144.4774  134.2989  152.9531 C   0  0  0  0  0  0  0  0  0  0  0  0
  144.9657  135.4637  153.5786 C   0  0  0  0  0  0  0  0  0  0  0  0
  144.8803  135.6041  154.9238 F   0  0  0  0  0  0  0  0  0  0  0  0
  146.9328  139.6142  153.8681 N   0  0  0  0  0  0  0  0  0  0  0  0
  147.4931  140.9459  153.6390 C   0  0  2  0  0  0  0  0  0  0  0  0
  149.0245  140.9655  153.8169 C   0  0  0  0  0  0  0  0  0  0  0  0
  149.4350  140.7894  155.2891 C   0  0  0  0  0  0  0  0  0  0  0  0
  148.8010  141.8208  156.1501 N   0  3  2  0  0  0  0  0  0  0  0  0
  149.2950  141.7629  157.5499 C   0  0  0  0  0  0  0  0  0  0  0  0
  150.7829  142.1463  157.6721 C   0  0  1  0  0  0  0  0  0  0  0  0
  151.0085  143.6061  158.0101 C   0  0  0  0  0  0  0  0  0  0  0  0
  152.4410  143.5937  158.5358 C   0  0  0  0  0  0  0  0  0  0  0  0
  152.6284  142.3101  159.1254 O   0  0  0  0  0  0  0  0  0  0  0  0
  151.5174  141.4701  158.8308 C   0  0  0  0  0  0  0  0  0  0  0  0
  147.3176  141.7793  156.0469 C   0  0  0  0  0  0  0  0  0  0  0  0
  146.8521  141.9701  154.5912 C   0  0  0  0  0  0  0  0  0  0  0  0
  146.0029  137.5948  154.4501 H   0  0  0  0  0  0  0  0  0  0  0  0
  146.0625  136.9711  150.7096 H   0  0  0  0  0  0  0  0  0  0  0  0
  145.1380  134.8631  149.7984 H   0  0  0  0  0  0  0  0  0  0  0  0
  144.0299  133.5100  153.5393 H   0  0  0  0  0  0  0  0  0  0  0  0
  146.8529  139.3127  154.8282 H   0  0  0  0  0  0  0  0  0  0  0  0
  147.2526  141.2380  152.6151 H   0  0  0  0  0  0  0  0  0  0  0  0
  149.4955  140.1970  153.2032 H   0  0  0  0  0  0  0  0  0  0  0  0
  149.4129  141.9174  153.4523 H   0  0  0  0  0  0  0  0  0  0  0  0
  149.1611  139.7950  155.6451 H   0  0  0  0  0  0  0  0  0  0  0  0
  150.5206  140.8632  155.3640 H   0  0  0  0  0  0  0  0  0  0  0  0
  148.6807  142.4082  158.1798 H   0  0  0  0  0  0  0  0  0  0  0  0
  149.1691  140.7515  157.9394 H   0  0  0  0  0  0  0  0  0  0  0  0
  151.3143  141.9352  156.7440 H   0  0  0  0  0  0  0  0  0  0  0  0
  150.8773  144.2702  157.1553 H   0  0  0  0  0  0  0  0  0  0  0  0
  150.3262  143.9268  158.7991 H   0  0  0  0  0  0  0  0  0  0  0  0
  153.1496  143.7034  157.7140 H   0  0  0  0  0  0  0  0  0  0  0  0
  152.6274  144.3937  159.2527 H   0  0  0  0  0  0  0  0  0  0  0  0
  150.8824  141.4186  159.7164 H   0  0  0  0  0  0  0  0  0  0  0  0
  151.8391  140.4571  158.5873 H   0  0  0  0  0  0  0  0  0  0  0  0
  146.9511  140.8294  156.4389 H   0  0  0  0  0  0  0  0  0  0  0  0
  146.8719  142.5615  156.6598 H   0  0  0  0  0  0  0  0  0  0  0  0
  147.1167  142.9765  154.2636 H   0  0  0  0  0  0  0  0  0  0  0  0
  145.7643  141.9114  154.5341 H   0  0  0  0  0  0  0  0  0  0  0  0
  149.0980  142.7126  155.7802 H   0  0  0  0  0  0  0  0  0  0  0  0
  1  2  2  0  0  0  0
  2  3  1  0  0  0  0
  2 11  1  0  0  0  0
  3  4  1  0  0  0  0
  3 24  1  0  0  0  0
  4  9  1  0  0  0  0
  4  5  2  0  0  0  0
  5  6  1  0  0  0  0
  5 25  1  0  0  0  0
  6  7  2  0  0  0  0
  6 26  1  0  0  0  0
  7  8  1  0  0  0  0
  8  9  2  0  0  0  0
  8 27  1  0  0  0  0
  9 10  1  0  0  0  0
 11 12  1  0  0  0  0
 11 28  1  0  0  0  0
 12 23  1  0  0  0  0
 12 13  1  0  0  0  0
 12 29  1  0  0  0  0
 13 14  1  0  0  0  0
 13 30  1  0  0  0  0
 13 31  1  0  0  0  0
 14 15  1  0  0  0  0
 14 32  1  0  0  0  0
 14 33  1  0  0  0  0
 15 16  1  0  0  0  0
 15 22  1  0  0  0  0
 15 47  1  0  0  0  0
 16 17  1  0  0  0  0
 16 34  1  0  0  0  0
 16 35  1  0  0  0  0
 17 21  1  0  0  0  0
 17 18  1  0  0  0  0
 17 36  1  0  0  0  0
 18 19  1  0  0  0  0
 18 37  1  0  0  0  0
 18 38  1  0  0  0  0
 19 20  1  0  0  0  0
 19 39  1  0  0  0  0
 19 40  1  0  0  0  0
 20 21  1  0  0  0  0
 21 41  1  0  0  0  0
 21 42  1  0  0  0  0
 22 23  1  0  0  0  0
 22 43  1  0  0  0  0
 22 44  1  0  0  0  0
 23 45  1  0  0  0  0
 23 46  1  0  0  0  0
M  CHG  1  15   1
M  END
> <s_m_source_file>
AV-unprocessed.smi

> <i_m_source_file_index>
2351

> <i_lp_mmshare_version>
43012

> <i_f3d_flags>
0

> <s_epik_input>
RmMxW2NIXW5bY0hdW2NIXWMxW05IXUMoPU8pW05IXVtDSF0yW0NIMl1bQ0gyXU4oW0NIMl1bQ0gyXTIpW0NIMl1bQ0BASF0zW0NIMl1bQ0gyXU9bQ0gyXTM=

> <s_epik_cmdline>
J2VwaWtfcHl0aG9uJywgJy1waCcsICc3LjAnLCAnLXRuJywgJzgnLCAnLW1hJywgJzIwMCcsICctbWV0YWxfYmluZGluZycsICctaW1hZScsICc8aW5maWxlLm1hZT4nLCAnLW9tYWUnLCAnPG91dGZpbGUubWFlPic=

> <r_epik_Ionization_Penalty>
0.0102464

> <r_epik_Ionization_Penalty_Charging>
0.00747775

> <r_epik_Ionization_Penalty_Neutral>
0.00276864

> <r_epik_State_Penalty>
0.00558817

> <r_epik_Charging_Adjusted_Penalty>
0.0130659

> <i_epik_Tot_Q>
1

> <i_epik_Tot_abs_Q>
1

> <r_epik_Metal_State_Penalty>
-0

> <b_epik_Metal_Only>
0

> <s_lp_Force_Field>
OPLS_2005

> <r_lp_Energy>
39.2901

> <b_lp_Chiralities_Consistent>
1

> <s_lp_Variant>
AV-unprocessed.smi:2351-4

> <Gold.Version>
5.8.1

> <Gold.Id.Protein>
6NUR|6NUR_protein|mol2

> <Gold.PLP.Fitness>
44.2045

> <Gold.PLP.PLP>
-33.5399

> <Gold.PLP.part.hbond>
-1.0000

> <Gold.PLP.part.metal>
0.0000

> <Gold.PLP.part.buried>
-3.9373

> <Gold.PLP.part.nonpolar>
-30.9539

> <Gold.PLP.part.repulsive>
0.5092

> <Gold.PLP.ligand.clash>
0.0000

> <Gold.PLP.ligand.torsion>
0.6634

> <Gold.PLP.Chemscore.Hbond>
2.0000

> <Gold.PLP.Chemscore.CHOScore>
1.9881

> <Gold.PLP.Chemscore.Metal>
0.0000

> <Gold.Chemscore.Hbonds>
donor molecule, donor type, donor heavy atom, donor atom, acceptor molecule, acceptor atom, score
      L1  H    15    47       P1  8028  2.00
      L1  C     6    26       P1  7921  1.00
      L1  C     8    27       P1 10957  0.98

> <Gold.PLP.Chemscore.Internal.Correction>
0.0272

> <Gold.Rescore>
     Score         DG    S(hbond)    S(metal)    S(lipo)     H(rot)  DE(clash)    DE(int)     intcor
     13.96     -16.33       0.98        0.00      96.42       1.45       0.50       1.86       ----

> <Gold.Chemscore.Fitness>
13.9603

> <Gold.Chemscore.DG>
-16.3256

> <Gold.Chemscore.ZeroCoef>
-5.4800

> <Gold.Chemscore.Hbond>
0.9795

> <Gold.Chemscore.Metal>
0.0000

> <Gold.Chemscore.Lipo>
96.4244

> <Gold.Chemscore.Internal_Hbond>
0.0000

> <Gold.Chemscore.DEClash>
0.5016

> <Gold.Chemscore.DEInternal>
1.8637

> <Gold.Chemscore.Rot>
1.4483

> <Gold.Chemscore.Internal.Correction>
   9.000000E+99

> <Gold.Chemscore.Hbonds>
donor molecule, donor type, donor heavy atom, donor atom, acceptor molecule, acceptor atom, score
      L1  H    15    47       P1  8028  0.89

> <Gold.Chemscore.Hbond.Weighted>
-3.2717

> <Gold.Chemscore.Metal.Weighted>
-0.0000

> <Gold.Chemscore.Lipo.Weighted>
-11.2817

> <Gold.Chemscore.Internal_Hbond.Weighted>
0.0000

> <Gold.Chemscore.DEClash.Weighted>
0.5016

> <Gold.Chemscore.DEInternal.Weighted>
1.8637

> <Gold.Chemscore.Rot.Weighted>
3.7077

> <Gold.Chemscore.Internal.Correction.Weighted>
   9.000000E+99

> <Gold.Protein.RotatedTorsions>
[ 6907 6896 6895 6894 ] final -133.13 input  -60.11 | X-H torsion
[ 7974 7965 7964 7962 ] final   95.56 input  175.53 | X-H torsion
[ 8008 7997 7996 7995 ] final  114.49 input   59.86 | X-H torsion
[ 10167 10162 10161 10158 ] final    4.18 input  -65.29 | X-H torsion
[ 10718 10713 10712 10709 ] final  117.90 input   66.30 | X-H torsion
[ 10763 10752 10751 10750 ] final  -97.36 input  -60.55 | X-H torsion
[ 11005 11000 10999 10996 ] final  -88.53 input  -57.11 | X-H torsion

> <Gold.Protein.ActiveResidues>
 VAL166  LYS551  ARG553  GLY616  TRP617  ASP618  TYR619  PRO620  LYS621  CYS622 
 ASP623  PHE694  ASN695  SER759  ASP760  ASP761  ALA762  ILE779  LEU786  VAL792 
 PHE793  MET794  SER795  GLU796  ALA797  LYS798  CYS799  TRP800  GLU811  SER814 

> <Gold.Protein.RotatedAtoms>
  150.9705  133.6349  159.2738 H   0  0  0  0  0  0  0  0  0  0  0  0  # atno 6907 bound_to 6896
  151.3640  135.0908  159.9453 H   0  0  0  0  0  0  0  0  0  0  0  0  # atno 6908 bound_to 6896
  152.5181  133.9273  159.7618 H   0  0  0  0  0  0  0  0  0  0  0  0  # atno 6909 bound_to 6896
  145.4506  139.2293  143.3042 H   0  0  0  0  0  0  0  0  0  0  0  0  # atno 7974 bound_to 7965
  156.2324  140.2958  156.0224 H   0  0  0  0  0  0  0  0  0  0  0  0  # atno 8008 bound_to 7997
  155.2187  140.0415  157.2962 H   0  0  0  0  0  0  0  0  0  0  0  0  # atno 8009 bound_to 7997
  154.6019  140.2429  155.7788 H   0  0  0  0  0  0  0  0  0  0  0  0  # atno 8010 bound_to 7997
  140.6548  143.7455  150.7635 H   0  0  0  0  0  0  0  0  0  0  0  0  # atno 10167 bound_to 10162
  157.6066  131.1042  150.7680 H   0  0  0  0  0  0  0  0  0  0  0  0  # atno 10718 bound_to 10713
  154.7321  135.5049  153.8981 H   0  0  0  0  0  0  0  0  0  0  0  0  # atno 10763 bound_to 10752
  153.0959  135.6672  153.9772 H   0  0  0  0  0  0  0  0  0  0  0  0  # atno 10764 bound_to 10752
  153.9570  135.3052  155.3415 H   0  0  0  0  0  0  0  0  0  0  0  0  # atno 10765 bound_to 10752
  141.1600  133.7576  156.9465 H   0  0  0  0  0  0  0  0  0  0  0  0  # atno 11005 bound_to 11000
  146.2506  140.5264  142.8895 LP  0  0  0  0  0  0  0  0  0  0  0  0  # atno 17320 bound_to 7965
  144.8064  140.6307  143.6444 LP  0  0  0  0  0  0  0  0  0  0  0  0  # atno 17321 bound_to 7965
  140.1112  143.4697  152.2369 LP  0  0  0  0  0  0  0  0  0  0  0  0  # atno 17342 bound_to 10162
  139.5769  144.7491  151.3742 LP  0  0  0  0  0  0  0  0  0  0  0  0  # atno 17343 bound_to 10162
  156.8067  130.4939  149.5362 LP  0  0  0  0  0  0  0  0  0  0  0  0  # atno 17370 bound_to 10713
  156.1154  130.6071  151.0113 LP  0  0  0  0  0  0  0  0  0  0  0  0  # atno 17371 bound_to 10713
  140.1286  134.9370  157.2305 LP  0  0  0  0  0  0  0  0  0  0  0  0  # atno 17394 bound_to 11000
  140.2981  134.3163  155.7297 LP  0  0  0  0  0  0  0  0  0  0  0  0  # atno 17395 bound_to 11000

$$$$
