AV-unprocessed.smi:3124|AV-procd|sdf|11902|dock5
  -GOLD-   2272017283D 1   1.00000     0.00000
 Structure written by MMmdl.
 24 24  0  0  0  0  0  0  0  0  2 V2000
  146.0076  137.5521  152.0176 C   0  0  0  0  0  0  0  0  0  0  0  0
  145.5058  136.2725  151.4397 C   0  0  0  0  0  0  0  0  0  0  0  0
  145.9343  134.9832  151.5869 C   0  0  0  0  0  0  0  0  0  0  0  0
  145.0395  134.2198  150.7804 C   0  0  0  0  0  0  0  0  0  0  0  0
  145.0303  132.7307  150.5618 C   0  0  0  0  0  0  0  0  0  0  0  0
  143.7782  132.2433  149.8070 C   0  0  2  0  0  0  0  0  0  0  0  0
  143.7127  132.8179  148.3854 C   0  0  0  0  0  0  0  0  0  0  0  0
  142.5481  132.5792  150.5478 N   0  3  0  0  0  0  0  0  0  0  0  0
  144.1310  134.9751  150.1805 N   0  0  0  0  0  0  0  0  0  0  0  0
  144.4257  136.2234  150.5891 N   0  0  0  0  0  0  0  0  0  0  0  0
  143.8853  137.0221  150.2872 H   0  0  0  0  0  0  0  0  0  0  0  0
  146.7680  137.3656  152.7764 H   0  0  0  0  0  0  0  0  0  0  0  0
  145.1972  138.1120  152.4849 H   0  0  0  0  0  0  0  0  0  0  0  0
  146.4506  138.1792  151.2438 H   0  0  0  0  0  0  0  0  0  0  0  0
  146.7631  134.6356  152.1857 H   0  0  0  0  0  0  0  0  0  0  0  0
  145.0917  132.2240  151.5261 H   0  0  0  0  0  0  0  0  0  0  0  0
  145.9266  132.4340  150.0152 H   0  0  0  0  0  0  0  0  0  0  0  0
  143.8191  131.1562  149.7277 H   0  0  0  0  0  0  0  0  0  0  0  0
  144.5957  132.5402  147.8088 H   0  0  0  0  0  0  0  0  0  0  0  0
  143.6543  133.9069  148.3979 H   0  0  0  0  0  0  0  0  0  0  0  0
  142.8406  132.4428  147.8484 H   0  0  0  0  0  0  0  0  0  0  0  0
  142.1629  133.4419  150.1914 H   0  0  0  0  0  0  0  0  0  0  0  0
  142.7671  132.6884  151.5281 H   0  0  0  0  0  0  0  0  0  0  0  0
  141.8728  131.8367  150.4352 H   0  0  0  0  0  0  0  0  0  0  0  0
  1 12  1  0  0  0  0
  1 13  1  0  0  0  0
  1 14  1  0  0  0  0
  1  2  1  0  0  0  0
  2 10  1  0  0  0  0
  2  3  2  0  0  0  0
  3  4  1  0  0  0  0
  3 15  1  0  0  0  0
  4  5  1  0  0  0  0
  4  9  2  0  0  0  0
  5  6  1  0  0  0  0
  5 16  1  0  0  0  0
  5 17  1  0  0  0  0
  6  7  1  0  0  0  0
  6  8  1  0  0  0  0
  6 18  1  0  0  0  0
  7 19  1  0  0  0  0
  7 20  1  0  0  0  0
  7 21  1  0  0  0  0
  8 22  1  0  0  0  0
  8 23  1  0  0  0  0
  8 24  1  0  0  0  0
  9 10  1  0  0  0  0
 10 11  1  0  0  0  0
M  CHG  1   8   1
M  END
> <s_m_source_file>
AV-unprocessed.smi

> <i_m_source_file_index>
3124

> <i_lp_mmshare_version>
43012

> <i_f3d_flags>
0

> <s_epik_input>
W0NIM11jMVtjSF1jKFtuSF1uMSlbQ0gyXVtDQEhdKFtDSDNdKVtOSDJd

> <s_epik_cmdline>
J2VwaWtfcHl0aG9uJywgJy1waCcsICc3LjAnLCAnLXRuJywgJzgnLCAnLW1hJywgJzIwMCcsICctbWV0YWxfYmluZGluZycsICctaW1hZScsICc8aW5maWxlLm1hZT4nLCAnLW9tYWUnLCAnPG91dGZpbGUubWFlPic=

> <r_lp_tautomer_probability>
0.5

> <r_epik_Ionization_Penalty>
0.00151643

> <r_epik_Ionization_Penalty_Charging>
0.00146569

> <r_epik_Ionization_Penalty_Neutral>
5.07401e-05

> <r_epik_State_Penalty>
0.379573

> <r_epik_Charging_Adjusted_Penalty>
0.381038

> <i_epik_Tot_Q>
1

> <i_epik_Tot_abs_Q>
1

> <r_epik_Metal_State_Penalty>
0.378341

> <b_epik_Metal_Only>
0

> <s_lp_Force_Field>
OPLS_2005

> <r_lp_Energy>
2.04404

> <b_lp_Chiralities_Consistent>
1

> <s_lp_Variant>
AV-unprocessed.smi:3124-1

> <Gold.Version>
5.8.1

> <Gold.Id.Protein>
6NUR|6NUR_protein|mol2

> <Gold.PLP.Fitness>
35.7470

> <Gold.PLP.PLP>
-23.9090

> <Gold.PLP.part.hbond>
-2.7830

> <Gold.PLP.part.metal>
0.0000

> <Gold.PLP.part.buried>
-2.5571

> <Gold.PLP.part.nonpolar>
-19.0556

> <Gold.PLP.part.repulsive>
0.4099

> <Gold.PLP.ligand.clash>
0.0000

> <Gold.PLP.ligand.torsion>
0.0825

> <Gold.PLP.Chemscore.Hbond>
4.0000

> <Gold.PLP.Chemscore.CHOScore>
0.0000

> <Gold.PLP.Chemscore.Metal>
0.0000

> <Gold.Chemscore.Hbonds>
donor molecule, donor type, donor heavy atom, donor atom, acceptor molecule, acceptor atom, score
      L1  H     8    22       P1 10186  2.00
      L1  H     8    24       P1 10952  1.00
      L1  H    10    11       P1 10171  0.98

> <Gold.PLP.Chemscore.Internal.Correction>
0.0030

> <Gold.Rescore>
     Score         DG    S(hbond)    S(metal)    S(lipo)     H(rot)  DE(clash)    DE(int)     intcor
     15.71     -18.62       2.97        0.00      55.88       1.30       1.18       1.73       ----

> <Gold.Chemscore.Fitness>
15.7068

> <Gold.Chemscore.DG>
-18.6172

> <Gold.Chemscore.ZeroCoef>
-5.4800

> <Gold.Chemscore.Hbond>
2.9712

> <Gold.Chemscore.Metal>
0.0000

> <Gold.Chemscore.Lipo>
55.8806

> <Gold.Chemscore.Internal_Hbond>
0.0000

> <Gold.Chemscore.DEClash>
1.1807

> <Gold.Chemscore.DEInternal>
1.7297

> <Gold.Chemscore.Rot>
1.2987

> <Gold.Chemscore.Internal.Correction>
   9.000000E+99

> <Gold.Chemscore.Hbonds>
donor molecule, donor type, donor heavy atom, donor atom, acceptor molecule, acceptor atom, score
      L1  H     8    22       P1 10186  0.98
      L1  H     8    24       P1 10952  0.33
      L1  H    10    11       P1 10171  0.93

> <Gold.Chemscore.Hbond.Weighted>
-9.9238

> <Gold.Chemscore.Metal.Weighted>
-0.0000

> <Gold.Chemscore.Lipo.Weighted>
-6.5380

> <Gold.Chemscore.Internal_Hbond.Weighted>
0.0000

> <Gold.Chemscore.DEClash.Weighted>
1.1807

> <Gold.Chemscore.DEInternal.Weighted>
1.7297

> <Gold.Chemscore.Rot.Weighted>
3.3246

> <Gold.Chemscore.Internal.Correction.Weighted>
   9.000000E+99

> <Gold.Protein.RotatedTorsions>
[ 6907 6896 6895 6894 ] final   34.26 input  -60.11 | X-H torsion
[ 7974 7965 7964 7962 ] final  -10.32 input  175.53 | X-H torsion
[ 8008 7997 7996 7995 ] final -170.38 input   59.86 | X-H torsion
[ 10167 10162 10161 10158 ] final -144.35 input  -65.29 | X-H torsion
[ 10718 10713 10712 10709 ] final -119.38 input   66.30 | X-H torsion
[ 10763 10752 10751 10750 ] final  -50.54 input  -60.55 | X-H torsion
[ 11005 11000 10999 10996 ] final  -64.96 input  -57.11 | X-H torsion

> <Gold.Protein.ActiveResidues>
 VAL166  LYS551  ARG553  GLY616  TRP617  ASP618  TYR619  PRO620  LYS621  CYS622 
 ASP623  PHE694  ASN695  SER759  ASP760  ASP761  ALA762  ILE779  LEU786  VAL792 
 PHE793  MET794  SER795  GLU796  ALA797  LYS798  CYS799  TRP800  GLU811  SER814 

> <Gold.Protein.RotatedAtoms>
  152.0999  134.9349  160.0569 H   0  0  0  0  0  0  0  0  0  0  0  0  # atno 6907 bound_to 6896
  152.0568  133.4039  159.4409 H   0  0  0  0  0  0  0  0  0  0  0  0  # atno 6908 bound_to 6896
  150.6839  134.3166  159.4812 H   0  0  0  0  0  0  0  0  0  0  0  0  # atno 6909 bound_to 6896
  146.2224  140.2746  142.8358 H   0  0  0  0  0  0  0  0  0  0  0  0  # atno 7974 bound_to 7965
  155.9176  140.1068  157.1232 H   0  0  0  0  0  0  0  0  0  0  0  0  # atno 8008 bound_to 7997
  154.4049  140.1262  156.4702 H   0  0  0  0  0  0  0  0  0  0  0  0  # atno 8009 bound_to 7997
  155.7235  140.3469  155.5029 H   0  0  0  0  0  0  0  0  0  0  0  0  # atno 8010 bound_to 7997
  139.7907  143.7970  152.2649 H   0  0  0  0  0  0  0  0  0  0  0  0  # atno 10167 bound_to 10162
  156.1177  130.6298  150.9409 H   0  0  0  0  0  0  0  0  0  0  0  0  # atno 10718 bound_to 10713
  154.1120  135.6547  153.4887 H   0  0  0  0  0  0  0  0  0  0  0  0  # atno 10763 bound_to 10752
  153.0253  135.5250  154.7182 H   0  0  0  0  0  0  0  0  0  0  0  0  # atno 10764 bound_to 10752
  154.6365  135.2983  155.0124 H   0  0  0  0  0  0  0  0  0  0  0  0  # atno 10765 bound_to 10752
  141.1440  133.6674  156.5912 H   0  0  0  0  0  0  0  0  0  0  0  0  # atno 11005 bound_to 11000
  144.9242  140.7902  143.5729 LP  0  0  0  0  0  0  0  0  0  0  0  0  # atno 17320 bound_to 7965
  145.2685  139.1964  143.4854 LP  0  0  0  0  0  0  0  0  0  0  0  0  # atno 17321 bound_to 7965
  139.8060  144.7355  150.9760 LP  0  0  0  0  0  0  0  0  0  0  0  0  # atno 17342 bound_to 10162
  140.7820  143.4297  151.0713 LP  0  0  0  0  0  0  0  0  0  0  0  0  # atno 17343 bound_to 10162
  157.6360  131.0916  150.8347 LP  0  0  0  0  0  0  0  0  0  0  0  0  # atno 17370 bound_to 10713
  156.8448  130.5060  149.5317 LP  0  0  0  0  0  0  0  0  0  0  0  0  # atno 17371 bound_to 10713
  140.3761  134.7564  157.4631 LP  0  0  0  0  0  0  0  0  0  0  0  0  # atno 17394 bound_to 11000
  140.0673  134.5911  155.8681 LP  0  0  0  0  0  0  0  0  0  0  0  0  # atno 17395 bound_to 11000

$$$$
