AV-unprocessed.smi:3201|AV-procd|sdf|12237|dock10
  -GOLD-   2272018 73D 1   1.00000     0.00000
 Structure written by MMmdl.
 41 43  0  0  0  0  0  0  0  0  2 V2000
  151.2306  145.0651  159.9123 C   0  0  0  0  0  0  0  0  0  0  0  0
  151.8468  143.7079  159.8011 C   0  0  0  0  0  0  0  0  0  0  0  0
  151.8938  142.8297  158.7517 C   0  0  0  0  0  0  0  0  0  0  0  0
  151.3220  142.9722  157.3677 C   0  0  0  0  0  0  0  0  0  0  0  0
  150.4510  141.7656  156.9956 C   0  0  0  0  0  0  0  0  0  0  0  0
  149.1378  142.1981  156.4767 N   0  3  0  0  0  0  0  0  0  0  0  0
  148.4555  141.1992  155.6252 C   0  0  2  0  0  0  0  0  0  0  0  0
  148.6766  141.4029  154.1101 C   0  0  0  0  0  0  0  0  0  0  0  0
  147.2384  141.4012  153.5555 C   0  0  2  0  0  0  0  0  0  0  0  0
  146.5713  142.7447  153.8979 C   0  0  0  0  0  0  0  0  0  0  0  0
  146.3500  142.6316  155.4172 C   0  0  0  0  0  0  0  0  0  0  0  0
  146.9168  141.2333  155.7485 C   0  0  1  0  0  0  0  0  0  0  0  0
  146.5178  140.4468  154.5036 C   0  0  0  0  0  0  0  0  0  0  0  0
  152.6175  141.7202  159.2730 C   0  0  0  0  0  0  0  0  0  0  0  0
  152.9856  141.8922  160.5297 N   0  0  0  0  0  0  0  0  0  0  0  0
  152.5138  143.1130  160.8559 N   0  0  0  0  0  0  0  0  0  0  0  0
  152.7462  143.6319  162.1902 C   0  0  0  0  0  0  0  0  0  0  0  0
  150.6590  145.3149  159.0188 H   0  0  0  0  0  0  0  0  0  0  0  0
  151.9980  145.8279  160.0447 H   0  0  0  0  0  0  0  0  0  0  0  0
  150.5525  145.1160  160.7642 H   0  0  0  0  0  0  0  0  0  0  0  0
  150.7316  143.8856  157.2876 H   0  0  0  0  0  0  0  0  0  0  0  0
  152.1238  143.0753  156.6356 H   0  0  0  0  0  0  0  0  0  0  0  0
  150.9593  141.1611  156.2434 H   0  0  0  0  0  0  0  0  0  0  0  0
  150.2996  141.1315  157.8702 H   0  0  0  0  0  0  0  0  0  0  0  0
  148.5420  142.3946  157.2683 H   0  0  0  0  0  0  0  0  0  0  0  0
  148.8029  140.2057  155.9148 H   0  0  0  0  0  0  0  0  0  0  0  0
  149.1998  142.3295  153.8699 H   0  0  0  0  0  0  0  0  0  0  0  0
  149.2571  140.5776  153.6960 H   0  0  0  0  0  0  0  0  0  0  0  0
  147.1758  141.1396  152.4988 H   0  0  0  0  0  0  0  0  0  0  0  0
  147.1926  143.5995  153.6280 H   0  0  0  0  0  0  0  0  0  0  0  0
  145.6177  142.8484  153.3785 H   0  0  0  0  0  0  0  0  0  0  0  0
  146.8363  143.4346  155.9711 H   0  0  0  0  0  0  0  0  0  0  0  0
  145.2844  142.6763  155.6471 H   0  0  0  0  0  0  0  0  0  0  0  0
  146.5443  140.8211  156.6867 H   0  0  0  0  0  0  0  0  0  0  0  0
  145.4390  140.4086  154.3413 H   0  0  0  0  0  0  0  0  0  0  0  0
  146.9176  139.4312  154.4819 H   0  0  0  0  0  0  0  0  0  0  0  0
  152.8825  140.7981  158.7769 H   0  0  0  0  0  0  0  0  0  0  0  0
  153.3808  144.5165  162.1330 H   0  0  0  0  0  0  0  0  0  0  0  0
  153.2373  142.8847  162.8153 H   0  0  0  0  0  0  0  0  0  0  0  0
  151.7957  143.9029  162.6499 H   0  0  0  0  0  0  0  0  0  0  0  0
  149.2567  143.0483  155.9446 H   0  0  0  0  0  0  0  0  0  0  0  0
  1  2  1  0  0  0  0
  1 18  1  0  0  0  0
  1 19  1  0  0  0  0
  1 20  1  0  0  0  0
  2 16  1  0  0  0  0
  2  3  2  0  0  0  0
  3  4  1  0  0  0  0
  3 14  1  0  0  0  0
  4  5  1  0  0  0  0
  4 21  1  0  0  0  0
  4 22  1  0  0  0  0
  5  6  1  0  0  0  0
  5 23  1  0  0  0  0
  5 24  1  0  0  0  0
  6  7  1  0  0  0  0
  6 25  1  0  0  0  0
  6 41  1  0  0  0  0
  7 12  1  0  0  0  0
  7  8  1  0  0  0  0
  7 26  1  0  0  0  0
  8  9  1  0  0  0  0
  8 27  1  0  0  0  0
  8 28  1  0  0  0  0
  9 13  1  0  0  0  0
  9 10  1  0  0  0  0
  9 29  1  0  0  0  0
 10 11  1  0  0  0  0
 10 30  1  0  0  0  0
 10 31  1  0  0  0  0
 11 12  1  0  0  0  0
 11 32  1  0  0  0  0
 11 33  1  0  0  0  0
 12 13  1  0  0  0  0
 12 34  1  0  0  0  0
 13 35  1  0  0  0  0
 13 36  1  0  0  0  0
 14 15  2  0  0  0  0
 14 37  1  0  0  0  0
 15 16  1  0  0  0  0
 16 17  1  0  0  0  0
 17 38  1  0  0  0  0
 17 39  1  0  0  0  0
 17 40  1  0  0  0  0
M  CHG  1   6   1
M  END
> <s_m_source_file>
AV-unprocessed.smi

> <i_m_source_file_index>
3201

> <i_lp_mmshare_version>
43012

> <i_f3d_flags>
0

> <s_epik_input>
W0NIM11uMW5bY0hdYyhjMVtDSDNdKVtDSDJdW0NIMl1bTkhdW0NASF0oW0NIMl1bQ0BIXTIzKVtDQEhdKFtDSDJdMylbQ0gyXVtDSDJdMg==

> <s_epik_cmdline>
J2VwaWtfcHl0aG9uJywgJy1waCcsICc3LjAnLCAnLXRuJywgJzgnLCAnLW1hJywgJzIwMCcsICctbWV0YWxfYmluZGluZycsICctaW1hZScsICc8aW5maWxlLm1hZT4nLCAnLW9tYWUnLCAnPG91dGZpbGUubWFlPic=

> <r_lp_tautomer_probability>
1

> <r_epik_Ionization_Penalty>
0.000331174

> <r_epik_Ionization_Penalty_Charging>
0.000242709

> <r_epik_Ionization_Penalty_Neutral>
8.84659e-05

> <r_epik_State_Penalty>
-0

> <r_epik_Charging_Adjusted_Penalty>
0.000242709

> <i_epik_Tot_Q>
1

> <i_epik_Tot_abs_Q>
1

> <r_epik_Metal_State_Penalty>
-0

> <b_epik_Metal_Only>
0

> <s_lp_Force_Field>
OPLS_2005

> <r_lp_Energy>
50.9619

> <b_lp_Chiralities_Consistent>
1

> <s_lp_Variant>
AV-unprocessed.smi:3201-1

> <Gold.Version>
5.8.1

> <Gold.Id.Protein>
6NUR|6NUR_protein|mol2

> <Gold.PLP.Fitness>
45.7661

> <Gold.PLP.PLP>
-41.7263

> <Gold.PLP.part.hbond>
-1.0000

> <Gold.PLP.part.metal>
0.0000

> <Gold.PLP.part.buried>
-6.3605

> <Gold.PLP.part.nonpolar>
-34.1021

> <Gold.PLP.part.repulsive>
0.0305

> <Gold.PLP.ligand.clash>
0.0000

> <Gold.PLP.ligand.torsion>
0.9884

> <Gold.PLP.Chemscore.Hbond>
2.0000

> <Gold.PLP.Chemscore.CHOScore>
0.0000

> <Gold.PLP.Chemscore.Metal>
0.0000

> <Gold.Chemscore.Hbonds>
donor molecule, donor type, donor heavy atom, donor atom, acceptor molecule, acceptor atom, score
      L1  H     6    41       P1  8028  2.00

> <Gold.PLP.Chemscore.Internal.Correction>
0.0166

> <Gold.Rescore>
     Score         DG    S(hbond)    S(metal)    S(lipo)     H(rot)  DE(clash)    DE(int)     intcor
     17.02     -18.00       0.97        0.00     109.05       1.36       0.02       0.96       ----

> <Gold.Chemscore.Fitness>
17.0199

> <Gold.Chemscore.DG>
-17.9974

> <Gold.Chemscore.ZeroCoef>
-5.4800

> <Gold.Chemscore.Hbond>
0.9693

> <Gold.Chemscore.Metal>
0.0000

> <Gold.Chemscore.Lipo>
109.0486

> <Gold.Chemscore.Internal_Hbond>
0.0000

> <Gold.Chemscore.DEClash>
0.0197

> <Gold.Chemscore.DEInternal>
0.9578

> <Gold.Chemscore.Rot>
1.3588

> <Gold.Chemscore.Internal.Correction>
   9.000000E+99

> <Gold.Chemscore.Hbonds>
donor molecule, donor type, donor heavy atom, donor atom, acceptor molecule, acceptor atom, score
      L1  H     6    41       P1  8028  0.95

> <Gold.Chemscore.Hbond.Weighted>
-3.2373

> <Gold.Chemscore.Metal.Weighted>
-0.0000

> <Gold.Chemscore.Lipo.Weighted>
-12.7587

> <Gold.Chemscore.Internal_Hbond.Weighted>
0.0000

> <Gold.Chemscore.DEClash.Weighted>
0.0197

> <Gold.Chemscore.DEInternal.Weighted>
0.9578

> <Gold.Chemscore.Rot.Weighted>
3.4786

> <Gold.Chemscore.Internal.Correction.Weighted>
   9.000000E+99

> <Gold.Protein.RotatedTorsions>
[ 6907 6896 6895 6894 ] final  131.46 input  -60.11 | X-H torsion
[ 7974 7965 7964 7962 ] final  -56.37 input  175.53 | X-H torsion
[ 8008 7997 7996 7995 ] final  -65.25 input   59.86 | X-H torsion
[ 10167 10162 10161 10158 ] final -144.33 input  -65.29 | X-H torsion
[ 10718 10713 10712 10709 ] final   16.41 input   66.30 | X-H torsion
[ 10763 10752 10751 10750 ] final  135.55 input  -60.55 | X-H torsion
[ 11005 11000 10999 10996 ] final  -50.82 input  -57.11 | X-H torsion

> <Gold.Protein.ActiveResidues>
 VAL166  LYS551  ARG553  GLY616  TRP617  ASP618  TYR619  PRO620  LYS621  CYS622 
 ASP623  PHE694  ASN695  SER759  ASP760  ASP761  ALA762  ILE779  LEU786  VAL792 
 PHE793  MET794  SER795  GLU796  ALA797  LYS798  CYS799  TRP800  GLU811  SER814 

> <Gold.Protein.RotatedAtoms>
  152.3424  133.6082  159.5885 H   0  0  0  0  0  0  0  0  0  0  0  0  # atno 6907 bound_to 6896
  150.7487  133.9701  159.3552 H   0  0  0  0  0  0  0  0  0  0  0  0  # atno 6908 bound_to 6896
  151.7564  135.0821  160.0390 H   0  0  0  0  0  0  0  0  0  0  0  0  # atno 6909 bound_to 6896
  145.8634  140.8269  142.9925 H   0  0  0  0  0  0  0  0  0  0  0  0  # atno 7974 bound_to 7965
  154.4660  140.0937  156.7022 H   0  0  0  0  0  0  0  0  0  0  0  0  # atno 8008 bound_to 7997
  155.4856  140.3469  155.4328 H   0  0  0  0  0  0  0  0  0  0  0  0  # atno 8009 bound_to 7997
  156.0957  140.1409  156.9522 H   0  0  0  0  0  0  0  0  0  0  0  0  # atno 8010 bound_to 7997
  139.7909  143.7967  152.2650 H   0  0  0  0  0  0  0  0  0  0  0  0  # atno 10167 bound_to 10162
  157.0675  130.6334  149.5798 H   0  0  0  0  0  0  0  0  0  0  0  0  # atno 10718 bound_to 10713
  153.8419  135.3090  155.3426 H   0  0  0  0  0  0  0  0  0  0  0  0  # atno 10763 bound_to 10752
  154.7929  135.4772  154.0097 H   0  0  0  0  0  0  0  0  0  0  0  0  # atno 10764 bound_to 10752
  153.1571  135.6854  153.8889 H   0  0  0  0  0  0  0  0  0  0  0  0  # atno 10765 bound_to 10752
  141.0837  133.6647  156.3786 H   0  0  0  0  0  0  0  0  0  0  0  0  # atno 11005 bound_to 11000
  144.6726  140.1130  143.7454 LP  0  0  0  0  0  0  0  0  0  0  0  0  # atno 17320 bound_to 7965
  145.9221  139.2552  143.1375 LP  0  0  0  0  0  0  0  0  0  0  0  0  # atno 17321 bound_to 7965
  139.8058  144.7356  150.9763 LP  0  0  0  0  0  0  0  0  0  0  0  0  # atno 17342 bound_to 10162
  140.7820  143.4299  151.0710 LP  0  0  0  0  0  0  0  0  0  0  0  0  # atno 17343 bound_to 10162
  155.9960  130.5028  150.7480 LP  0  0  0  0  0  0  0  0  0  0  0  0  # atno 17370 bound_to 10713
  157.4905  131.0910  151.0432 LP  0  0  0  0  0  0  0  0  0  0  0  0  # atno 17371 bound_to 10713
  140.5411  134.6119  157.5380 LP  0  0  0  0  0  0  0  0  0  0  0  0  # atno 17394 bound_to 11000
  139.9653  134.7384  156.0152 LP  0  0  0  0  0  0  0  0  0  0  0  0  # atno 17395 bound_to 11000

$$$$
