AV-unprocessed.smi:2061|AV-procd|sdf|8382|dock3
  -GOLD-   2272011 63D 1   1.00000     0.00000
 Structure written by MMmdl.
 45 46  0  0  0  0  0  0  0  0  3 V2000
  144.1413  135.1479  162.7415 C   0  0  0  0  0  0  0  0  0  0  0  0
  145.4116  135.5047  162.0485 C   0  0  0  0  0  0  0  0  0  0  0  0
  145.9010  136.6813  161.5563 C   0  0  0  0  0  0  0  0  0  0  0  0
  147.1698  136.3113  161.0326 C   0  0  0  0  0  0  0  0  0  0  0  0
  148.0405  137.1305  160.4231 N   0  5  0  0  0  0  0  0  0  0  0  0
  148.9333  136.6373  159.5350 C   0  0  0  0  0  0  0  0  0  0  0  0
  148.8902  135.5331  158.9874 O   0  0  0  0  0  0  0  0  0  0  0  0
  149.9456  137.4747  159.2692 N   0  0  0  0  0  0  0  0  0  0  0  0
  151.0622  137.2010  158.3696 C   0  0  0  0  0  0  0  0  0  0  0  0
  151.1463  138.1988  157.1843 C   0  0  2  0  0  0  0  0  0  0  0  0
  152.1905  137.7118  156.1501 C   0  0  0  0  0  0  0  0  0  0  0  0
  151.4078  139.5824  157.6984 N   0  3  1  0  0  0  0  0  0  0  0  0
  150.2040  140.3940  158.0277 C   0  0  0  0  0  0  0  0  0  0  0  0
  150.5854  141.8159  158.4883 C   0  0  2  0  0  0  0  0  0  0  0  0
  151.0481  142.7293  157.3387 C   0  0  0  0  0  0  0  0  0  0  0  0
  151.5371  141.7629  159.5487 O   0  0  0  0  0  0  0  0  0  0  0  0
  152.7188  141.0298  159.2458 C   0  0  1  0  0  0  0  0  0  0  0  0
  153.6275  141.0722  160.4794 C   0  0  0  0  0  0  0  0  0  0  0  0
  152.3363  139.5909  158.8595 C   0  0  0  0  0  0  0  0  0  0  0  0
  147.4204  135.0210  161.1779 N   0  0  0  0  0  0  0  0  0  0  0  0
  146.3005  134.4976  161.8349 O   0  0  0  0  0  0  0  0  0  0  0  0
  143.2846  135.5771  162.2219 H   0  0  0  0  0  0  0  0  0  0  0  0
  144.1416  135.5257  163.7637 H   0  0  0  0  0  0  0  0  0  0  0  0
  144.0049  134.0671  162.7806 H   0  0  0  0  0  0  0  0  0  0  0  0
  145.4295  137.6524  161.5713 H   0  0  0  0  0  0  0  0  0  0  0  0
  149.9394  138.3704  159.7348 H   0  0  0  0  0  0  0  0  0  0  0  0
  151.9764  137.1873  158.9617 H   0  0  0  0  0  0  0  0  0  0  0  0
  150.9385  136.1874  157.9875 H   0  0  0  0  0  0  0  0  0  0  0  0
  150.1850  138.2196  156.6684 H   0  0  0  0  0  0  0  0  0  0  0  0
  151.9838  136.6948  155.8174 H   0  0  0  0  0  0  0  0  0  0  0  0
  153.1983  137.7190  156.5666 H   0  0  0  0  0  0  0  0  0  0  0  0
  152.1871  138.3215  155.2467 H   0  0  0  0  0  0  0  0  0  0  0  0
  149.5419  140.4907  157.1679 H   0  0  0  0  0  0  0  0  0  0  0  0
  149.6403  139.8897  158.8141 H   0  0  0  0  0  0  0  0  0  0  0  0
  149.6922  142.2761  158.9121 H   0  0  0  0  0  0  0  0  0  0  0  0
  150.2455  142.8777  156.6157 H   0  0  0  0  0  0  0  0  0  0  0  0
  151.8978  142.3151  156.7967 H   0  0  0  0  0  0  0  0  0  0  0  0
  151.3364  143.7113  157.7145 H   0  0  0  0  0  0  0  0  0  0  0  0
  153.2500  141.5033  158.4199 H   0  0  0  0  0  0  0  0  0  0  0  0
  154.5552  140.5272  160.3032 H   0  0  0  0  0  0  0  0  0  0  0  0
  153.1378  140.6281  161.3467 H   0  0  0  0  0  0  0  0  0  0  0  0
  153.8900  142.0990  160.7353 H   0  0  0  0  0  0  0  0  0  0  0  0
  151.8631  139.0887  159.7053 H   0  0  0  0  0  0  0  0  0  0  0  0
  153.2461  139.0357  158.6384 H   0  0  0  0  0  0  0  0  0  0  0  0
  151.8715  140.0726  156.9471 H   0  0  0  0  0  0  0  0  0  0  0  0
  1  2  1  0  0  0  0
  1 22  1  0  0  0  0
  1 23  1  0  0  0  0
  1 24  1  0  0  0  0
  2 21  1  0  0  0  0
  2  3  2  0  0  0  0
  3  4  1  0  0  0  0
  3 25  1  0  0  0  0
  4  5  1  0  0  0  0
  4 20  2  0  0  0  0
  5  6  1  0  0  0  0
  6  7  2  0  0  0  0
  6  8  1  0  0  0  0
  8  9  1  0  0  0  0
  8 26  1  0  0  0  0
  9 10  1  0  0  0  0
  9 27  1  0  0  0  0
  9 28  1  0  0  0  0
 10 11  1  0  0  0  0
 10 12  1  0  0  0  0
 10 29  1  0  0  0  0
 11 30  1  0  0  0  0
 11 31  1  0  0  0  0
 11 32  1  0  0  0  0
 12 19  1  0  0  0  0
 12 13  1  0  0  0  0
 12 45  1  0  0  0  0
 13 14  1  0  0  0  0
 13 33  1  0  0  0  0
 13 34  1  0  0  0  0
 14 15  1  0  0  0  0
 14 16  1  0  0  0  0
 14 35  1  0  0  0  0
 15 36  1  0  0  0  0
 15 37  1  0  0  0  0
 15 38  1  0  0  0  0
 16 17  1  0  0  0  0
 17 18  1  0  0  0  0
 17 19  1  0  0  0  0
 17 39  1  0  0  0  0
 18 40  1  0  0  0  0
 18 41  1  0  0  0  0
 18 42  1  0  0  0  0
 19 43  1  0  0  0  0
 19 44  1  0  0  0  0
 20 21  1  0  0  0  0
M  CHG  1   5  -1
M  CHG  1  12   1
M  END
> <s_m_source_file>
AV-unprocessed.smi

> <i_m_source_file_index>
2061

> <i_lp_mmshare_version>
43012

> <i_f3d_flags>
0

> <s_epik_input>
W0NIM11jMVtjSF1jKG5vMSlbTkhdQyg9TylbTkhdW0NIMl1bQ0BIXShbQ0gzXSlOMltDSDJdW0NAQEhdKFtDSDNdKU9bQ0BASF0oW0NIM10pW0NIMl0y

> <s_epik_cmdline>
J2VwaWtfcHl0aG9uJywgJy1waCcsICc3LjAnLCAnLXRuJywgJzgnLCAnLW1hJywgJzIwMCcsICctbWV0YWxfYmluZGluZycsICctaW1hZScsICc8aW5maWxlLm1hZT4nLCAnLW9tYWUnLCAnPG91dGZpbGUubWFlPic=

> <r_epik_Ionization_Penalty>
6.73511

> <r_epik_Ionization_Penalty_Charging>
6.73502

> <r_epik_Ionization_Penalty_Neutral>
9.50841e-05

> <r_epik_State_Penalty>
6.93549

> <r_epik_Charging_Adjusted_Penalty>
13.6705

> <i_epik_Tot_Q>
0

> <i_epik_Tot_abs_Q>
2

> <r_epik_Metal_State_Penalty>
2.87211

> <b_epik_Metal_Only>
1

> <s_lp_Force_Field>
OPLS_2005

> <r_lp_Energy>
12.0901

> <b_lp_Chiralities_Consistent>
1

> <s_lp_Variant>
AV-unprocessed.smi:2061-23

> <Gold.Version>
5.8.1

> <Gold.Id.Protein>
6NUR|6NUR_protein|mol2

> <Gold.PLP.Fitness>
40.4833

> <Gold.PLP.PLP>
-30.6309

> <Gold.PLP.part.hbond>
-3.6658

> <Gold.PLP.part.metal>
0.0000

> <Gold.PLP.part.buried>
-6.2773

> <Gold.PLP.part.nonpolar>
-22.5713

> <Gold.PLP.part.repulsive>
1.0676

> <Gold.PLP.ligand.clash>
0.0000

> <Gold.PLP.ligand.torsion>
0.8879

> <Gold.PLP.Chemscore.Hbond>
3.8552

> <Gold.PLP.Chemscore.CHOScore>
0.0000

> <Gold.PLP.Chemscore.Metal>
0.0000

> <Gold.Chemscore.Hbonds>
donor molecule, donor type, donor heavy atom, donor atom, acceptor molecule, acceptor atom, score
      P1  H  6896  6907       L1     7  0.78
      P1  H  6931  6943       L1     5  1.25
      P1  H  6934  6947       L1     5  1.12

> <Gold.PLP.Chemscore.Internal.Correction>
0.0624

> <Gold.Rescore>
     Score         DG    S(hbond)    S(metal)    S(lipo)     H(rot)  DE(clash)    DE(int)     intcor
     13.44     -16.00       1.64        0.00      77.23       1.56       0.13       2.43       ----

> <Gold.Chemscore.Fitness>
13.4351

> <Gold.Chemscore.DG>
-15.9964

> <Gold.Chemscore.ZeroCoef>
-5.4800

> <Gold.Chemscore.Hbond>
1.6353

> <Gold.Chemscore.Metal>
0.0000

> <Gold.Chemscore.Lipo>
77.2259

> <Gold.Chemscore.Internal_Hbond>
0.0000

> <Gold.Chemscore.DEClash>
0.1281

> <Gold.Chemscore.DEInternal>
2.4332

> <Gold.Chemscore.Rot>
1.5550

> <Gold.Chemscore.Internal.Correction>
   9.000000E+99

> <Gold.Chemscore.Hbonds>
donor molecule, donor type, donor heavy atom, donor atom, acceptor molecule, acceptor atom, score
      P1  H  6896  6907       L1     7  0.54
      P1  H  6931  6943       L1     5  0.32
      P1  H  6934  6947       L1     5  0.17

> <Gold.Chemscore.Hbond.Weighted>
-5.4619

> <Gold.Chemscore.Metal.Weighted>
-0.0000

> <Gold.Chemscore.Lipo.Weighted>
-9.0354

> <Gold.Chemscore.Internal_Hbond.Weighted>
0.0000

> <Gold.Chemscore.DEClash.Weighted>
0.1281

> <Gold.Chemscore.DEInternal.Weighted>
2.4332

> <Gold.Chemscore.Rot.Weighted>
3.9809

> <Gold.Chemscore.Internal.Correction.Weighted>
   9.000000E+99

> <Gold.Protein.RotatedTorsions>
[ 6907 6896 6895 6894 ] final  -79.11 input  -60.11 | X-H torsion
[ 7974 7965 7964 7962 ] final   78.09 input  175.53 | X-H torsion
[ 8008 7997 7996 7995 ] final  130.98 input   59.86 | X-H torsion
[ 10167 10162 10161 10158 ] final -140.86 input  -65.29 | X-H torsion
[ 10718 10713 10712 10709 ] final -109.45 input   66.30 | X-H torsion
[ 10763 10752 10751 10750 ] final   17.17 input  -60.55 | X-H torsion
[ 11005 11000 10999 10996 ] final   88.65 input  -57.11 | X-H torsion

> <Gold.Protein.ActiveResidues>
 VAL166  LYS551  ARG553  GLY616  TRP617  ASP618  TYR619  PRO620  LYS621  CYS622 
 ASP623  PHE694  ASN695  SER759  ASP760  ASP761  ALA762  ILE779  LEU786  VAL792 
 PHE793  MET794  SER795  GLU796  ALA797  LYS798  CYS799  TRP800  GLU811  SER814 

> <Gold.Protein.RotatedAtoms>
  150.6957  134.4170  159.5187 H   0  0  0  0  0  0  0  0  0  0  0  0  # atno 6907 bound_to 6896
  152.1919  134.8661  160.0526 H   0  0  0  0  0  0  0  0  0  0  0  0  # atno 6908 bound_to 6896
  151.9613  133.3661  159.4073 H   0  0  0  0  0  0  0  0  0  0  0  0  # atno 6909 bound_to 6896
  145.6816  139.2525  143.1811 H   0  0  0  0  0  0  0  0  0  0  0  0  # atno 7974 bound_to 7965
  156.2963  140.2582  156.2851 H   0  0  0  0  0  0  0  0  0  0  0  0  # atno 8008 bound_to 7997
  154.9564  140.0393  157.2187 H   0  0  0  0  0  0  0  0  0  0  0  0  # atno 8009 bound_to 7997
  154.7988  140.2824  155.5941 H   0  0  0  0  0  0  0  0  0  0  0  0  # atno 8010 bound_to 7997
  139.8240  143.7535  152.2666 H   0  0  0  0  0  0  0  0  0  0  0  0  # atno 10167 bound_to 10162
  156.0537  130.5764  150.8101 H   0  0  0  0  0  0  0  0  0  0  0  0  # atno 10718 bound_to 10713
  153.1363  135.6751  153.9097 H   0  0  0  0  0  0  0  0  0  0  0  0  # atno 10763 bound_to 10752
  153.8567  135.3086  155.3437 H   0  0  0  0  0  0  0  0  0  0  0  0  # atno 10764 bound_to 10752
  154.7751  135.4919  153.9810 H   0  0  0  0  0  0  0  0  0  0  0  0  # atno 10765 bound_to 10752
  139.8892  134.8501  156.3030 H   0  0  0  0  0  0  0  0  0  0  0  0  # atno 11005 bound_to 11000
  146.0959  140.7601  142.9572 LP  0  0  0  0  0  0  0  0  0  0  0  0  # atno 17320 bound_to 7965
  144.7024  140.3710  143.7145 LP  0  0  0  0  0  0  0  0  0  0  0  0  # atno 17321 bound_to 7965
  139.7722  144.7473  151.0208 LP  0  0  0  0  0  0  0  0  0  0  0  0  # atno 17342 bound_to 10162
  140.7811  143.4632  151.0248 LP  0  0  0  0  0  0  0  0  0  0  0  0  # atno 17343 bound_to 10162
  157.5488  131.0943  150.9724 LP  0  0  0  0  0  0  0  0  0  0  0  0  # atno 17370 bound_to 10713
  156.9989  130.5592  149.5309 LP  0  0  0  0  0  0  0  0  0  0  0  0  # atno 17371 bound_to 10713
  140.9901  133.7214  156.0801 LP  0  0  0  0  0  0  0  0  0  0  0  0  # atno 17394 bound_to 11000
  140.7636  134.3911  157.5521 LP  0  0  0  0  0  0  0  0  0  0  0  0  # atno 17395 bound_to 11000

$$$$
