AV-unprocessed.smi:1131|AV-procd|sdf|4850|dock6
  -GOLD-   22720 3423D 1   1.00000     0.00000
 Structure written by MMmdl.
 33 34  0  0  0  0  0  0  0  0  1 V2000
  145.6374  138.1268  154.4990 O   0  0  0  0  0  0  0  0  0  0  0  0
  146.4177  137.5804  153.7178 C   0  0  0  0  0  0  0  0  0  0  0  0
  145.9344  136.4794  152.7625 C   0  0  0  0  0  0  0  0  0  0  0  0
  144.5493  136.0587  153.0197 N   0  0  0  0  0  0  0  0  0  0  0  0
  143.4904  136.8869  152.6747 C   0  0  0  0  0  0  0  0  0  0  0  0
  142.1925  136.5687  152.8940 C   0  0  0  0  0  0  0  0  0  0  0  0
  141.8392  135.3012  153.5241 C   0  0  0  0  0  0  0  0  0  0  0  0
  140.6946  134.9229  153.7634 O   0  0  0  0  0  0  0  0  0  0  0  0
  142.9319  134.4971  153.8592 N   0  0  0  0  0  0  0  0  0  0  0  0
  144.2716  134.8193  153.6369 C   0  0  0  0  0  0  0  0  0  0  0  0
  145.1598  134.0380  153.9756 O   0  0  0  0  0  0  0  0  0  0  0  0
  147.7145  137.9111  153.6267 N   0  0  0  0  0  0  0  0  0  0  0  0
  148.3778  138.9341  154.4281 C   0  0  0  0  0  0  0  0  0  0  0  0
  149.9035  138.9404  154.2138 C   0  0  2  0  0  0  0  0  0  0  0  0
  150.6157  137.6826  154.6710 C   0  0  0  0  0  0  0  0  0  0  0  0
  152.0574  138.1658  154.7908 C   0  0  0  0  0  0  0  0  0  0  0  0
  151.9775  139.5393  155.1612 O   0  0  0  0  0  0  0  0  0  0  0  0
  150.6388  140.0076  155.0236 C   0  0  0  0  0  0  0  0  0  0  0  0
  142.7360  133.6107  154.3010 H   0  0  0  0  0  0  0  0  0  0  0  0
  146.0330  136.8497  151.7407 H   0  0  0  0  0  0  0  0  0  0  0  0
  146.6054  135.6199  152.8227 H   0  0  0  0  0  0  0  0  0  0  0  0
  143.7052  137.8384  152.2095 H   0  0  0  0  0  0  0  0  0  0  0  0
  141.4116  137.2566  152.6032 H   0  0  0  0  0  0  0  0  0  0  0  0
  148.2845  137.4165  152.9560 H   0  0  0  0  0  0  0  0  0  0  0  0
  147.9594  139.9155  154.1972 H   0  0  0  0  0  0  0  0  0  0  0  0
  148.1472  138.7415  155.4763 H   0  0  0  0  0  0  0  0  0  0  0  0
  150.1256  139.1003  153.1573 H   0  0  0  0  0  0  0  0  0  0  0  0
  150.2442  137.3672  155.6470 H   0  0  0  0  0  0  0  0  0  0  0  0
  150.5062  136.8489  153.9769 H   0  0  0  0  0  0  0  0  0  0  0  0
  152.6315  137.5893  155.5165 H   0  0  0  0  0  0  0  0  0  0  0  0
  152.5628  138.0961  153.8269 H   0  0  0  0  0  0  0  0  0  0  0  0
  150.6077  140.9875  154.5470 H   0  0  0  0  0  0  0  0  0  0  0  0
  150.2068  140.1042  156.0206 H   0  0  0  0  0  0  0  0  0  0  0  0
  1  2  2  0  0  0  0
  2  3  1  0  0  0  0
  2 12  1  0  0  0  0
  3  4  1  0  0  0  0
  3 20  1  0  0  0  0
  3 21  1  0  0  0  0
  4 10  1  0  0  0  0
  4  5  1  0  0  0  0
  5  6  2  0  0  0  0
  5 22  1  0  0  0  0
  6  7  1  0  0  0  0
  6 23  1  0  0  0  0
  7  8  2  0  0  0  0
  7  9  1  0  0  0  0
  9 19  1  0  0  0  0
  9 10  1  0  0  0  0
 10 11  2  0  0  0  0
 12 13  1  0  0  0  0
 12 24  1  0  0  0  0
 13 14  1  0  0  0  0
 13 25  1  0  0  0  0
 13 26  1  0  0  0  0
 14 18  1  0  0  0  0
 14 15  1  0  0  0  0
 14 27  1  0  0  0  0
 15 16  1  0  0  0  0
 15 28  1  0  0  0  0
 15 29  1  0  0  0  0
 16 17  1  0  0  0  0
 16 30  1  0  0  0  0
 16 31  1  0  0  0  0
 17 18  1  0  0  0  0
 18 32  1  0  0  0  0
 18 33  1  0  0  0  0
M  END
> <s_m_source_file>
AV-unprocessed.smi

> <i_m_source_file_index>
1131

> <i_lp_mmshare_version>
43012

> <i_f3d_flags>
0

> <s_epik_input>
W0NIMl0xT1tDSDJdW0NIMl1bQ0BIXTFbQ0gyXVtOSF1DKD1PKVtDSDJdbjJbY0hdW2NIXWMoPU8pW25IXWMyPU8=

> <s_epik_cmdline>
J2VwaWtfcHl0aG9uJywgJy1waCcsICc3LjAnLCAnLXRuJywgJzgnLCAnLW1hJywgJzIwMCcsICctbWV0YWxfYmluZGluZycsICctaW1hZScsICc8aW5maWxlLm1hZT4nLCAnLW9tYWUnLCAnPG91dGZpbGUubWFlPic=

> <r_lp_tautomer_probability>
0.999537

> <r_epik_Ionization_Penalty>
0.00329016

> <r_epik_Ionization_Penalty_Charging>
0.00329014

> <r_epik_Ionization_Penalty_Neutral>
1.87063e-08

> <r_epik_State_Penalty>
0.00232461

> <r_epik_Charging_Adjusted_Penalty>
0.00561475

> <i_epik_Tot_Q>
0

> <i_epik_Tot_abs_Q>
0

> <r_epik_Metal_State_Penalty>
0.365289

> <b_epik_Metal_Only>
0

> <s_lp_Force_Field>
OPLS_2005

> <r_lp_Energy>
17.5195

> <b_lp_Chiralities_Consistent>
1

> <s_lp_Variant>
AV-unprocessed.smi:1131-1

> <Gold.Version>
5.8.1

> <Gold.Id.Protein>
6NUR|6NUR_protein|mol2

> <Gold.PLP.Fitness>
42.0573

> <Gold.PLP.PLP>
-27.6067

> <Gold.PLP.part.hbond>
-4.8071

> <Gold.PLP.part.metal>
0.0000

> <Gold.PLP.part.buried>
-3.0129

> <Gold.PLP.part.nonpolar>
-19.9340

> <Gold.PLP.part.repulsive>
0.4222

> <Gold.PLP.ligand.clash>
0.0000

> <Gold.PLP.ligand.torsion>
0.2422

> <Gold.PLP.Chemscore.Hbond>
3.0000

> <Gold.PLP.Chemscore.CHOScore>
1.9752

> <Gold.PLP.Chemscore.Metal>
0.0000

> <Gold.Chemscore.Hbonds>
donor molecule, donor type, donor heavy atom, donor atom, acceptor molecule, acceptor atom, score
      L1  H     9    19       P1 10957  1.00
      L1  H    12    24       P1  7948  1.00
      P1  H 11000 11005       L1     8  0.80
      L1  C     5    22       P1 10171  1.00
      L1  C     5    22       P1 10175  0.82

> <Gold.PLP.Chemscore.Internal.Correction>
0.0096

> <Gold.Rescore>
     Score         DG    S(hbond)    S(metal)    S(lipo)     H(rot)  DE(clash)    DE(int)     intcor
     14.91     -15.27       2.97        0.00      44.69       2.09       0.05       0.32       ----

> <Gold.Chemscore.Fitness>
14.9070

> <Gold.Chemscore.DG>
-15.2712

> <Gold.Chemscore.ZeroCoef>
-5.4800

> <Gold.Chemscore.Hbond>
2.9694

> <Gold.Chemscore.Metal>
0.0000

> <Gold.Chemscore.Lipo>
44.6894

> <Gold.Chemscore.Internal_Hbond>
0.0000

> <Gold.Chemscore.DEClash>
0.0472

> <Gold.Chemscore.DEInternal>
0.3170

> <Gold.Chemscore.Rot>
2.0919

> <Gold.Chemscore.Internal.Correction>
   9.000000E+99

> <Gold.Chemscore.Hbonds>
donor molecule, donor type, donor heavy atom, donor atom, acceptor molecule, acceptor atom, score
      L1  H     9    19       P1 10957  1.00
      L1  H    12    24       P1  7948  1.00
      P1  H 11000 11005       L1     8  0.74

> <Gold.Chemscore.Hbond.Weighted>
-9.9178

> <Gold.Chemscore.Metal.Weighted>
-0.0000

> <Gold.Chemscore.Lipo.Weighted>
-5.2287

> <Gold.Chemscore.Internal_Hbond.Weighted>
0.0000

> <Gold.Chemscore.DEClash.Weighted>
0.0472

> <Gold.Chemscore.DEInternal.Weighted>
0.3170

> <Gold.Chemscore.Rot.Weighted>
5.3552

> <Gold.Chemscore.Internal.Correction.Weighted>
   9.000000E+99

> <Gold.Protein.RotatedTorsions>
[ 6907 6896 6895 6894 ] final -171.05 input  -60.11 | X-H torsion
[ 7974 7965 7964 7962 ] final -146.59 input  175.53 | X-H torsion
[ 8008 7997 7996 7995 ] final -177.94 input   59.86 | X-H torsion
[ 10167 10162 10161 10158 ] final   -5.29 input  -65.29 | X-H torsion
[ 10718 10713 10712 10709 ] final   -9.88 input   66.30 | X-H torsion
[ 10763 10752 10751 10750 ] final   73.88 input  -60.55 | X-H torsion
[ 11005 11000 10999 10996 ] final   42.16 input  -57.11 | X-H torsion

> <Gold.Protein.ActiveResidues>
 VAL166  LYS551  ARG553  GLY616  TRP617  ASP618  TYR619  PRO620  LYS621  CYS622 
 ASP623  PHE694  ASN695  SER759  ASP760  ASP761  ALA762  ILE779  LEU786  VAL792 
 PHE793  MET794  SER795  GLU796  ALA797  LYS798  CYS799  TRP800  GLU811  SER814 

> <Gold.Protein.RotatedAtoms>
  151.5176  133.3472  159.2895 H   0  0  0  0  0  0  0  0  0  0  0  0  # atno 6907 bound_to 6896
  150.8672  134.8041  159.7139 H   0  0  0  0  0  0  0  0  0  0  0  0  # atno 6908 bound_to 6896
  152.4673  134.5055  159.9789 H   0  0  0  0  0  0  0  0  0  0  0  0  # atno 6909 bound_to 6896
  144.8149  140.5437  143.5617 H   0  0  0  0  0  0  0  0  0  0  0  0  # atno 7974 bound_to 7965
  156.0129  140.1244  157.0436 H   0  0  0  0  0  0  0  0  0  0  0  0  # atno 8008 bound_to 7997
  154.4282  140.1084  156.5924 H   0  0  0  0  0  0  0  0  0  0  0  0  # atno 8009 bound_to 7997
  155.6054  140.3471  155.4608 H   0  0  0  0  0  0  0  0  0  0  0  0  # atno 8010 bound_to 7997
  140.6958  143.6325  150.8510 H   0  0  0  0  0  0  0  0  0  0  0  0  # atno 10167 bound_to 10162
  156.6816  130.5039  149.5969 H   0  0  0  0  0  0  0  0  0  0  0  0  # atno 10718 bound_to 10713
  153.0550  135.5046  154.7959 H   0  0  0  0  0  0  0  0  0  0  0  0  # atno 10763 bound_to 10752
  154.6792  135.2965  154.9639 H   0  0  0  0  0  0  0  0  0  0  0  0  # atno 10764 bound_to 10752
  154.0431  135.6714  153.4845 H   0  0  0  0  0  0  0  0  0  0  0  0  # atno 10765 bound_to 10752
  140.1766  134.4156  155.8225 H   0  0  0  0  0  0  0  0  0  0  0  0  # atno 11005 bound_to 11000
  145.5236  139.1476  143.3538 LP  0  0  0  0  0  0  0  0  0  0  0  0  # atno 17320 bound_to 7965
  146.2452  140.5377  142.8917 LP  0  0  0  0  0  0  0  0  0  0  0  0  # atno 17321 bound_to 7965
  140.0043  143.5711  152.2864 LP  0  0  0  0  0  0  0  0  0  0  0  0  # atno 17342 bound_to 10162
  139.6411  144.7655  151.2336 LP  0  0  0  0  0  0  0  0  0  0  0  0  # atno 17343 bound_to 10162
  156.1863  130.6531  151.1010 LP  0  0  0  0  0  0  0  0  0  0  0  0  # atno 17370 bound_to 10713
  157.7041  131.0764  150.6724 LP  0  0  0  0  0  0  0  0  0  0  0  0  # atno 17371 bound_to 10713
  141.2221  133.6980  156.7857 LP  0  0  0  0  0  0  0  0  0  0  0  0  # atno 17394 bound_to 11000
  140.2316  134.8681  157.3482 LP  0  0  0  0  0  0  0  0  0  0  0  0  # atno 17395 bound_to 11000

$$$$
