AV-unprocessed.smi:1626|AV-procd|sdf|6514|dock2
  -GOLD-   22720 7183D 1   1.00000     0.00000
 Structure written by MMmdl.
 47 49  0  0  0  0  0  0  0  0  1 V2000
  152.5156  143.2504  161.8277 C   0  0  0  0  0  0  0  0  0  0  0  0
  152.0528  142.7996  160.4534 C   0  0  0  0  0  0  0  0  0  0  0  0
  152.1429  141.4307  160.1128 C   0  0  0  0  0  0  0  0  0  0  0  0
  151.7181  140.9694  158.8474 C   0  0  0  0  0  0  0  0  0  0  0  0
  151.7117  139.6936  158.3091 N   0  0  0  0  0  0  0  0  0  0  0  0
  151.1933  139.9136  157.1038 C   0  0  0  0  0  0  0  0  0  0  0  0
  150.8637  141.1832  156.7980 N   0  0  0  0  0  0  0  0  0  0  0  0
  150.2788  141.6723  155.5637 C   0  0  0  0  0  0  0  0  0  0  0  0
  149.4761  140.5785  154.8317 C   0  0  2  0  0  0  0  0  0  0  0  0
  150.3393  139.8774  153.9594 O   0  0  0  0  0  0  0  0  0  0  0  0
  148.3129  141.1471  153.9948 C   0  0  0  0  0  0  0  0  0  0  0  0
  147.3306  141.9428  154.7343 N   0  0  0  0  0  0  0  0  0  0  0  0
  146.7586  141.2134  155.8717 C   0  0  0  0  0  0  0  0  0  0  0  0
  145.7607  142.0618  156.6786 C   0  0  0  0  0  0  0  0  0  0  0  0
  144.6362  142.5775  155.7671 C   0  0  0  0  0  0  0  0  0  0  0  0
  143.7953  143.4561  156.4849 O   0  0  0  0  0  0  0  0  0  0  0  0
  145.2398  143.3008  154.5529 C   0  0  0  0  0  0  0  0  0  0  0  0
  146.2581  142.3916  153.8442 C   0  0  0  0  0  0  0  0  0  0  0  0
  151.1976  141.9235  157.9255 C   0  0  0  0  0  0  0  0  0  0  0  0
  151.1069  143.2882  158.2499 C   0  0  0  0  0  0  0  0  0  0  0  0
  151.5365  143.7323  159.5179 C   0  0  0  0  0  0  0  0  0  0  0  0
  151.4346  145.2086  159.8576 C   0  0  0  0  0  0  0  0  0  0  0  0
  152.7940  142.4011  162.4522 H   0  0  0  0  0  0  0  0  0  0  0  0
  151.7226  143.7945  162.3414 H   0  0  0  0  0  0  0  0  0  0  0  0
  153.3846  143.9033  161.7409 H   0  0  0  0  0  0  0  0  0  0  0  0
  152.5387  140.7207  160.8239 H   0  0  0  0  0  0  0  0  0  0  0  0
  151.0386  139.1048  156.4046 H   0  0  0  0  0  0  0  0  0  0  0  0
  149.6329  142.5150  155.8134 H   0  0  0  0  0  0  0  0  0  0  0  0
  151.0712  142.0664  154.9257 H   0  0  0  0  0  0  0  0  0  0  0  0
  149.1034  139.8502  155.5512 H   0  0  0  0  0  0  0  0  0  0  0  0
  149.8982  139.7583  153.1325 H   0  0  0  0  0  0  0  0  0  0  0  0
  148.7425  141.7611  153.2020 H   0  0  0  0  0  0  0  0  0  0  0  0
  147.7997  140.3273  153.4893 H   0  0  0  0  0  0  0  0  0  0  0  0
  146.2652  140.3061  155.5198 H   0  0  0  0  0  0  0  0  0  0  0  0
  147.5467  140.8930  156.5512 H   0  0  0  0  0  0  0  0  0  0  0  0
  145.3444  141.4720  157.4959 H   0  0  0  0  0  0  0  0  0  0  0  0
  146.2878  142.9008  157.1355 H   0  0  0  0  0  0  0  0  0  0  0  0
  144.0337  141.7354  155.4238 H   0  0  0  0  0  0  0  0  0  0  0  0
  144.2393  143.7155  157.2778 H   0  0  0  0  0  0  0  0  0  0  0  0
  144.4528  143.5942  153.8572 H   0  0  0  0  0  0  0  0  0  0  0  0
  145.7356  144.2192  154.8715 H   0  0  0  0  0  0  0  0  0  0  0  0
  146.6854  142.9372  153.0019 H   0  0  0  0  0  0  0  0  0  0  0  0
  145.7421  141.5278  153.4216 H   0  0  0  0  0  0  0  0  0  0  0  0
  150.7086  143.9860  157.5280 H   0  0  0  0  0  0  0  0  0  0  0  0
  151.1056  145.7925  158.9974 H   0  0  0  0  0  0  0  0  0  0  0  0
  152.4029  145.5980  160.1732 H   0  0  0  0  0  0  0  0  0  0  0  0
  150.7177  145.3647  160.6640 H   0  0  0  0  0  0  0  0  0  0  0  0
  1  2  1  0  0  0  0
  1 23  1  0  0  0  0
  1 24  1  0  0  0  0
  1 25  1  0  0  0  0
  2 21  1  0  0  0  0
  2  3  2  0  0  0  0
  3  4  1  0  0  0  0
  3 26  1  0  0  0  0
  4 19  2  0  0  0  0
  4  5  1  0  0  0  0
  5  6  2  0  0  0  0
  6  7  1  0  0  0  0
  6 27  1  0  0  0  0
  7  8  1  0  0  0  0
  7 19  1  0  0  0  0
  8  9  1  0  0  0  0
  8 28  1  0  0  0  0
  8 29  1  0  0  0  0
  9 10  1  0  0  0  0
  9 11  1  0  0  0  0
  9 30  1  0  0  0  0
 10 31  1  0  0  0  0
 11 12  1  0  0  0  0
 11 32  1  0  0  0  0
 11 33  1  0  0  0  0
 12 18  1  0  0  0  0
 12 13  1  0  0  0  0
 13 14  1  0  0  0  0
 13 34  1  0  0  0  0
 13 35  1  0  0  0  0
 14 15  1  0  0  0  0
 14 36  1  0  0  0  0
 14 37  1  0  0  0  0
 15 16  1  0  0  0  0
 15 17  1  0  0  0  0
 15 38  1  0  0  0  0
 16 39  1  0  0  0  0
 17 18  1  0  0  0  0
 17 40  1  0  0  0  0
 17 41  1  0  0  0  0
 18 42  1  0  0  0  0
 18 43  1  0  0  0  0
 19 20  1  0  0  0  0
 20 21  2  0  0  0  0
 20 44  1  0  0  0  0
 21 22  1  0  0  0  0
 22 45  1  0  0  0  0
 22 46  1  0  0  0  0
 22 47  1  0  0  0  0
M  END
> <s_m_source_file>
AV-unprocessed.smi

> <i_m_source_file_index>
1626

> <i_lp_mmshare_version>
43012

> <i_f3d_flags>
0

> <s_epik_input>
W0NIM11jKFtjSF0xKWMoW0NIM10pW2NIXWMoYzEyKW4oW2NIXW4yKVtDSDJdW0NASF0oW09IXSlbQ0gyXU4zW0NIMl1bQ0gyXVtDSF0oW09IXSlbQ0gyXVtDSDJdMw==

> <s_epik_cmdline>
J2VwaWtfcHl0aG9uJywgJy1waCcsICc3LjAnLCAnLXRuJywgJzgnLCAnLW1hJywgJzIwMCcsICctbWV0YWxfYmluZGluZycsICctaW1hZScsICc8aW5maWxlLm1hZT4nLCAnLW9tYWUnLCAnPG91dGZpbGUubWFlPic=

> <r_epik_Ionization_Penalty>
2.14395

> <r_epik_Ionization_Penalty_Charging>
0

> <r_epik_Ionization_Penalty_Neutral>
2.14395

> <r_epik_State_Penalty>
2.24477

> <r_epik_Charging_Adjusted_Penalty>
2.24477

> <i_epik_Tot_Q>
0

> <i_epik_Tot_abs_Q>
0

> <r_epik_Metal_State_Penalty>
2.17429

> <b_epik_Metal_Only>
0

> <s_lp_Force_Field>
OPLS_2005

> <r_lp_Energy>
28.7152

> <b_lp_Chiralities_Consistent>
1

> <s_lp_Variant>
AV-unprocessed.smi:1626-9

> <Gold.Version>
5.8.1

> <Gold.Id.Protein>
6NUR|6NUR_protein|mol2

> <Gold.PLP.Fitness>
53.5903

> <Gold.PLP.PLP>
-48.9764

> <Gold.PLP.part.hbond>
-2.0000

> <Gold.PLP.part.metal>
0.0000

> <Gold.PLP.part.buried>
-7.4707

> <Gold.PLP.part.nonpolar>
-40.1768

> <Gold.PLP.part.repulsive>
0.3629

> <Gold.PLP.ligand.clash>
0.0000

> <Gold.PLP.ligand.torsion>
0.7273

> <Gold.PLP.Chemscore.Hbond>
1.9913

> <Gold.PLP.Chemscore.CHOScore>
0.0000

> <Gold.PLP.Chemscore.Metal>
0.0000

> <Gold.Chemscore.Hbonds>
donor molecule, donor type, donor heavy atom, donor atom, acceptor molecule, acceptor atom, score
      L1  H    10    31       P1  7957  1.00
      P1  H  7989  7998       L1    10  1.00

> <Gold.PLP.Chemscore.Internal.Correction>
0.0947

> <Gold.Rescore>
     Score         DG    S(hbond)    S(metal)    S(lipo)     H(rot)  DE(clash)    DE(int)     intcor
     16.79     -17.67       1.45        0.00     119.74       2.59       0.04       0.84       ----

> <Gold.Chemscore.Fitness>
16.7945

> <Gold.Chemscore.DG>
-17.6737

> <Gold.Chemscore.ZeroCoef>
-5.4800

> <Gold.Chemscore.Hbond>
1.4451

> <Gold.Chemscore.Metal>
0.0000

> <Gold.Chemscore.Lipo>
119.7390

> <Gold.Chemscore.Internal_Hbond>
0.0000

> <Gold.Chemscore.DEClash>
0.0409

> <Gold.Chemscore.DEInternal>
0.8384

> <Gold.Chemscore.Rot>
2.5947

> <Gold.Chemscore.Internal.Correction>
   9.000000E+99

> <Gold.Chemscore.Hbonds>
donor molecule, donor type, donor heavy atom, donor atom, acceptor molecule, acceptor atom, score
      L1  H    10    31       P1  7957  0.93
      P1  H  7989  7998       L1    10  0.19

> <Gold.Chemscore.Hbond.Weighted>
-4.8266

> <Gold.Chemscore.Metal.Weighted>
-0.0000

> <Gold.Chemscore.Lipo.Weighted>
-14.0095

> <Gold.Chemscore.Internal_Hbond.Weighted>
0.0000

> <Gold.Chemscore.DEClash.Weighted>
0.0409

> <Gold.Chemscore.DEInternal.Weighted>
0.8384

> <Gold.Chemscore.Rot.Weighted>
6.6424

> <Gold.Chemscore.Internal.Correction.Weighted>
   9.000000E+99

> <Gold.Protein.RotatedTorsions>
[ 6907 6896 6895 6894 ] final -128.06 input  -60.11 | X-H torsion
[ 7974 7965 7964 7962 ] final   -8.70 input  175.53 | X-H torsion
[ 8008 7997 7996 7995 ] final  -41.76 input   59.86 | X-H torsion
[ 10167 10162 10161 10158 ] final  125.38 input  -65.29 | X-H torsion
[ 10718 10713 10712 10709 ] final  175.33 input   66.30 | X-H torsion
[ 10763 10752 10751 10750 ] final  -26.11 input  -60.55 | X-H torsion
[ 11005 11000 10999 10996 ] final  166.63 input  -57.11 | X-H torsion

> <Gold.Protein.ActiveResidues>
 VAL166  LYS551  ARG553  GLY616  TRP617  ASP618  TYR619  PRO620  LYS621  CYS622 
 ASP623  PHE694  ASN695  SER759  ASP760  ASP761  ALA762  ILE779  LEU786  VAL792 
 PHE793  MET794  SER795  GLU796  ALA797  LYS798  CYS799  TRP800  GLU811  SER814 

> <Gold.Protein.RotatedAtoms>
  150.9139  133.6964  159.2847 H   0  0  0  0  0  0  0  0  0  0  0  0  # atno 6907 bound_to 6896
  151.4441  135.1022  159.9688 H   0  0  0  0  0  0  0  0  0  0  0  0  # atno 6908 bound_to 6896
  152.4944  133.8540  159.7271 H   0  0  0  0  0  0  0  0  0  0  0  0  # atno 6909 bound_to 6896
  146.2273  140.2507  142.8347 H   0  0  0  0  0  0  0  0  0  0  0  0  # atno 7974 bound_to 7965
  154.4002  140.1491  156.3244 H   0  0  0  0  0  0  0  0  0  0  0  0  # atno 8008 bound_to 7997
  155.8500  140.3458  155.5666 H   0  0  0  0  0  0  0  0  0  0  0  0  # atno 8009 bound_to 7997
  155.7994  140.0868  157.1956 H   0  0  0  0  0  0  0  0  0  0  0  0  # atno 8010 bound_to 7997
  139.5689  144.6927  151.3833 H   0  0  0  0  0  0  0  0  0  0  0  0  # atno 10167 bound_to 10162
  156.9365  130.9987  151.2977 H   0  0  0  0  0  0  0  0  0  0  0  0  # atno 10718 bound_to 10713
  153.7107  135.6951  153.5038 H   0  0  0  0  0  0  0  0  0  0  0  0  # atno 10763 bound_to 10752
  153.2274  135.4349  155.0557 H   0  0  0  0  0  0  0  0  0  0  0  0  # atno 10764 bound_to 10752
  154.8315  135.3476  154.6644 H   0  0  0  0  0  0  0  0  0  0  0  0  # atno 10765 bound_to 10752
  140.2684  134.7846  157.3653 H   0  0  0  0  0  0  0  0  0  0  0  0  # atno 11005 bound_to 11000
  144.9414  140.8082  143.5628 LP  0  0  0  0  0  0  0  0  0  0  0  0  # atno 17320 bound_to 7965
  145.2459  139.2052  143.4968 LP  0  0  0  0  0  0  0  0  0  0  0  0  # atno 17321 bound_to 7965
  140.6973  143.7717  150.7347 LP  0  0  0  0  0  0  0  0  0  0  0  0  # atno 17342 bound_to 10162
  140.1218  143.4605  152.2308 LP  0  0  0  0  0  0  0  0  0  0  0  0  # atno 17343 bound_to 10162
  157.5813  130.8378  149.8527 LP  0  0  0  0  0  0  0  0  0  0  0  0  # atno 17370 bound_to 10713
  156.0424  130.3736  150.1403 LP  0  0  0  0  0  0  0  0  0  0  0  0  # atno 17371 bound_to 10713
  140.1396  134.4989  155.8041 LP  0  0  0  0  0  0  0  0  0  0  0  0  # atno 17394 bound_to 11000
  141.2181  133.6820  156.7187 LP  0  0  0  0  0  0  0  0  0  0  0  0  # atno 17395 bound_to 11000

$$$$
