AV-unprocessed.smi:2302|AV-procd|sdf|9241|dock2
  -GOLD-   2272012463D 1   1.00000     0.00000
 Structure written by MMmdl.
 39 40  0  0  0  0  0  0  0  0  1 V2000
  145.8446  131.8115  149.2855 C   0  0  0  0  0  0  0  0  0  0  0  0
  145.2666  132.8328  150.2426 C   0  0  0  0  0  0  0  0  0  0  0  0
  143.9684  132.6803  150.7679 C   0  0  0  0  0  0  0  0  0  0  0  0
  143.4895  133.6672  151.6478 C   0  0  0  0  0  0  0  0  0  0  0  0
  144.3222  134.7581  151.9640 C   0  0  0  0  0  0  0  0  0  0  0  0
  145.6125  134.8365  151.3929 C   0  0  0  0  0  0  0  0  0  0  0  0
  146.3709  135.9765  151.7709 N   0  0  0  0  0  0  0  0  0  0  0  0
  145.9250  137.1431  152.2694 C   0  0  0  0  0  0  0  0  0  0  0  0
  144.7429  137.4305  152.4600 O   0  0  0  0  0  0  0  0  0  0  0  0
  146.9418  137.9748  152.5390 N   0  0  0  0  0  0  0  0  0  0  0  0
  146.8031  139.3245  153.0798 C   0  0  0  0  0  0  0  0  0  0  0  0
  147.7757  139.6027  154.2418 C   0  0  1  0  0  0  0  0  0  0  0  0
  149.2168  139.1170  153.9738 C   0  0  0  0  0  0  0  0  0  0  0  0
  150.1065  139.4314  155.0838 N   0  0  0  0  0  0  0  0  0  0  0  0
  151.4639  138.9726  154.8315 C   0  0  0  0  0  0  0  0  0  0  0  0
  150.0634  140.8627  155.3526 C   0  0  0  0  0  0  0  0  0  0  0  0
  148.6283  141.3474  155.6195 C   0  0  0  0  0  0  0  0  0  0  0  0
  147.7919  141.0018  154.5197 O   0  0  0  0  0  0  0  0  0  0  0  0
  146.0646  133.8794  150.5447 N   0  0  0  0  0  0  0  0  0  0  0  0
  145.2506  130.8972  149.2791 H   0  0  0  0  0  0  0  0  0  0  0  0
  146.8640  131.5507  149.5721 H   0  0  0  0  0  0  0  0  0  0  0  0
  145.8644  132.2144  148.2726 H   0  0  0  0  0  0  0  0  0  0  0  0
  143.3540  131.8319  150.5044 H   0  0  0  0  0  0  0  0  0  0  0  0
  142.4998  133.5900  152.0730 H   0  0  0  0  0  0  0  0  0  0  0  0
  143.9691  135.5252  152.6379 H   0  0  0  0  0  0  0  0  0  0  0  0
  147.3699  135.8888  151.6595 H   0  0  0  0  0  0  0  0  0  0  0  0
  147.8805  137.6553  152.3511 H   0  0  0  0  0  0  0  0  0  0  0  0
  146.9311  140.0708  152.2939 H   0  0  0  0  0  0  0  0  0  0  0  0
  145.7777  139.4333  153.4336 H   0  0  0  0  0  0  0  0  0  0  0  0
  147.3914  139.0899  155.1254 H   0  0  0  0  0  0  0  0  0  0  0  0
  149.2104  138.0400  153.8017 H   0  0  0  0  0  0  0  0  0  0  0  0
  149.5989  139.5764  153.0609 H   0  0  0  0  0  0  0  0  0  0  0  0
  152.1073  139.1833  155.6863 H   0  0  0  0  0  0  0  0  0  0  0  0
  151.8902  139.4635  153.9556 H   0  0  0  0  0  0  0  0  0  0  0  0
  151.4818  137.8958  154.6606 H   0  0  0  0  0  0  0  0  0  0  0  0
  150.6918  141.0975  156.2123 H   0  0  0  0  0  0  0  0  0  0  0  0
  150.4763  141.4109  154.5042 H   0  0  0  0  0  0  0  0  0  0  0  0
  148.2354  140.9046  156.5360 H   0  0  0  0  0  0  0  0  0  0  0  0
  148.6120  142.4290  155.7535 H   0  0  0  0  0  0  0  0  0  0  0  0
  1  2  1  0  0  0  0
  1 20  1  0  0  0  0
  1 21  1  0  0  0  0
  1 22  1  0  0  0  0
  2 19  1  0  0  0  0
  2  3  2  0  0  0  0
  3  4  1  0  0  0  0
  3 23  1  0  0  0  0
  4  5  2  0  0  0  0
  4 24  1  0  0  0  0
  5  6  1  0  0  0  0
  5 25  1  0  0  0  0
  6  7  1  0  0  0  0
  6 19  2  0  0  0  0
  7  8  1  0  0  0  0
  7 26  1  0  0  0  0
  8  9  2  0  0  0  0
  8 10  1  0  0  0  0
 10 11  1  0  0  0  0
 10 27  1  0  0  0  0
 11 12  1  0  0  0  0
 11 28  1  0  0  0  0
 11 29  1  0  0  0  0
 12 18  1  0  0  0  0
 12 13  1  0  0  0  0
 12 30  1  0  0  0  0
 13 14  1  0  0  0  0
 13 31  1  0  0  0  0
 13 32  1  0  0  0  0
 14 15  1  0  0  0  0
 14 16  1  0  0  0  0
 15 33  1  0  0  0  0
 15 34  1  0  0  0  0
 15 35  1  0  0  0  0
 16 17  1  0  0  0  0
 16 36  1  0  0  0  0
 16 37  1  0  0  0  0
 17 18  1  0  0  0  0
 17 38  1  0  0  0  0
 17 39  1  0  0  0  0
M  END
> <s_m_source_file>
AV-unprocessed.smi

> <i_m_source_file_index>
2302

> <i_lp_mmshare_version>
43012

> <i_f3d_flags>
0

> <s_epik_input>
W0NIM11jMVtjSF1bY0hdW2NIXWMobjEpW05IXUMoPU8pW05IXVtDSDJdW0NAQEhdMltDSDJdTihbQ0gzXSlbQ0gyXVtDSDJdTzI=

> <s_epik_cmdline>
J2VwaWtfcHl0aG9uJywgJy1waCcsICc3LjAnLCAnLXRuJywgJzgnLCAnLW1hJywgJzIwMCcsICctbWV0YWxfYmluZGluZycsICctaW1hZScsICc8aW5maWxlLm1hZT4nLCAnLW9tYWUnLCAnPG91dGZpbGUubWFlPic=

> <r_epik_Ionization_Penalty>
0.729465

> <r_epik_Ionization_Penalty_Charging>
0

> <r_epik_Ionization_Penalty_Neutral>
0.729465

> <r_epik_State_Penalty>
0.754525

> <r_epik_Charging_Adjusted_Penalty>
0.754525

> <i_epik_Tot_Q>
0

> <i_epik_Tot_abs_Q>
0

> <r_epik_Metal_State_Penalty>
0.754521

> <b_epik_Metal_Only>
0

> <s_lp_Force_Field>
OPLS_2005

> <r_lp_Energy>
21.4946

> <b_lp_Chiralities_Consistent>
1

> <s_lp_Variant>
AV-unprocessed.smi:2302-6

> <Gold.Version>
5.8.1

> <Gold.Id.Protein>
6NUR|6NUR_protein|mol2

> <Gold.PLP.Fitness>
38.5542

> <Gold.PLP.PLP>
-33.2591

> <Gold.PLP.part.hbond>
-2.0000

> <Gold.PLP.part.metal>
0.0000

> <Gold.PLP.part.buried>
-4.2004

> <Gold.PLP.part.nonpolar>
-28.2339

> <Gold.PLP.part.repulsive>
1.6293

> <Gold.PLP.ligand.clash>
0.0000

> <Gold.PLP.ligand.torsion>
0.2698

> <Gold.PLP.Chemscore.Hbond>
1.9440

> <Gold.PLP.Chemscore.CHOScore>
0.0000

> <Gold.PLP.Chemscore.Metal>
0.0000

> <Gold.Chemscore.Hbonds>
donor molecule, donor type, donor heavy atom, donor atom, acceptor molecule, acceptor atom, score
      L1  H     7    26       P1  7948  1.00
      L1  H    10    27       P1  7948  0.94

> <Gold.PLP.Chemscore.Internal.Correction>
0.0027

> <Gold.Rescore>
     Score         DG    S(hbond)    S(metal)    S(lipo)     H(rot)  DE(clash)    DE(int)     intcor
     16.23     -18.06       1.97        0.00      78.72       1.25       0.13       1.71       ----

> <Gold.Chemscore.Fitness>
16.2253

> <Gold.Chemscore.DG>
-18.0633

> <Gold.Chemscore.ZeroCoef>
-5.4800

> <Gold.Chemscore.Hbond>
1.9685

> <Gold.Chemscore.Metal>
0.0000

> <Gold.Chemscore.Lipo>
78.7193

> <Gold.Chemscore.Internal_Hbond>
0.0000

> <Gold.Chemscore.DEClash>
0.1274

> <Gold.Chemscore.DEInternal>
1.7106

> <Gold.Chemscore.Rot>
1.2506

> <Gold.Chemscore.Internal.Correction>
   9.000000E+99

> <Gold.Chemscore.Hbonds>
donor molecule, donor type, donor heavy atom, donor atom, acceptor molecule, acceptor atom, score
      L1  H     7    26       P1  7948  0.98
      L1  H    10    27       P1  7948  0.91

> <Gold.Chemscore.Hbond.Weighted>
-6.5746

> <Gold.Chemscore.Metal.Weighted>
-0.0000

> <Gold.Chemscore.Lipo.Weighted>
-9.2102

> <Gold.Chemscore.Internal_Hbond.Weighted>
0.0000

> <Gold.Chemscore.DEClash.Weighted>
0.1274

> <Gold.Chemscore.DEInternal.Weighted>
1.7106

> <Gold.Chemscore.Rot.Weighted>
3.2015

> <Gold.Chemscore.Internal.Correction.Weighted>
   9.000000E+99

> <Gold.Protein.RotatedTorsions>
[ 6907 6896 6895 6894 ] final   30.65 input  -60.11 | X-H torsion
[ 7974 7965 7964 7962 ] final -103.82 input  175.53 | X-H torsion
[ 8008 7997 7996 7995 ] final  128.91 input   59.86 | X-H torsion
[ 10167 10162 10161 10158 ] final  176.73 input  -65.29 | X-H torsion
[ 10718 10713 10712 10709 ] final  112.70 input   66.30 | X-H torsion
[ 10763 10752 10751 10750 ] final   50.13 input  -60.55 | X-H torsion
[ 11005 11000 10999 10996 ] final  -70.97 input  -57.11 | X-H torsion

> <Gold.Protein.ActiveResidues>
 VAL166  LYS551  ARG553  GLY616  TRP617  ASP618  TYR619  PRO620  LYS621  CYS622 
 ASP623  PHE694  ASN695  SER759  ASP760  ASP761  ALA762  ILE779  LEU786  VAL792 
 PHE793  MET794  SER795  GLU796  ALA797  LYS798  CYS799  TRP800  GLU811  SER814 

> <Gold.Protein.RotatedAtoms>
  152.0491  134.9665  160.0574 H   0  0  0  0  0  0  0  0  0  0  0  0  # atno 6907 bound_to 6896
  152.1073  133.4277  159.4623 H   0  0  0  0  0  0  0  0  0  0  0  0  # atno 6908 bound_to 6896
  150.6842  134.2609  159.4592 H   0  0  0  0  0  0  0  0  0  0  0  0  # atno 6909 bound_to 6896
  145.2511  140.9238  143.3095 H   0  0  0  0  0  0  0  0  0  0  0  0  # atno 7974 bound_to 7965
  156.2925  140.2633  156.2512 H   0  0  0  0  0  0  0  0  0  0  0  0  # atno 8008 bound_to 7997
  154.9881  140.0389  157.2325 H   0  0  0  0  0  0  0  0  0  0  0  0  # atno 8009 bound_to 7997
  154.7711  140.2778  155.6142 H   0  0  0  0  0  0  0  0  0  0  0  0  # atno 8010 bound_to 7997
  139.5226  144.2881  152.0488 H   0  0  0  0  0  0  0  0  0  0  0  0  # atno 10167 bound_to 10162
  157.6378  131.0972  150.6934 H   0  0  0  0  0  0  0  0  0  0  0  0  # atno 10718 bound_to 10713
  152.9785  135.5889  154.4202 H   0  0  0  0  0  0  0  0  0  0  0  0  # atno 10763 bound_to 10752
  154.3827  135.2767  155.2203 H   0  0  0  0  0  0  0  0  0  0  0  0  # atno 10764 bound_to 10752
  154.4110  135.6081  153.6007 H   0  0  0  0  0  0  0  0  0  0  0  0  # atno 10765 bound_to 10752
  141.1584  133.6804  156.6834 H   0  0  0  0  0  0  0  0  0  0  0  0  # atno 11005 bound_to 11000
  144.9502  139.4091  143.6406 LP  0  0  0  0  0  0  0  0  0  0  0  0  # atno 17320 bound_to 7965
  146.3302  139.8506  142.8874 LP  0  0  0  0  0  0  0  0  0  0  0  0  # atno 17321 bound_to 7965
  140.2333  144.4346  150.6290 LP  0  0  0  0  0  0  0  0  0  0  0  0  # atno 17342 bound_to 10162
  140.6340  143.2192  151.6434 LP  0  0  0  0  0  0  0  0  0  0  0  0  # atno 17343 bound_to 10162
  156.7263  130.4696  149.5510 LP  0  0  0  0  0  0  0  0  0  0  0  0  # atno 17370 bound_to 10713
  156.1632  130.6388  151.0745 LP  0  0  0  0  0  0  0  0  0  0  0  0  # atno 17371 bound_to 10713
  140.3085  134.8105  157.4157 LP  0  0  0  0  0  0  0  0  0  0  0  0  # atno 17394 bound_to 11000
  140.1199  134.5233  155.8192 LP  0  0  0  0  0  0  0  0  0  0  0  0  # atno 17395 bound_to 11000

$$$$
