AV-unprocessed.smi:1840|AV-procd|sdf|7494|dock6
  -GOLD-   22720 9193D 1   1.00000     0.00000
 Structure written by MMmdl.
 43 44  0  0  0  0  0  0  0  0  1 V2000
  147.5857  127.9005  153.1422 C   0  0  0  0  0  0  0  0  0  0  0  0
  147.5363  128.0879  151.6197 C   0  0  2  0  0  0  0  0  0  0  0  0
  148.7593  127.4445  150.9331 C   0  0  0  0  0  0  0  0  0  0  0  0
  148.8963  126.0325  151.2461 N   0  0  0  0  0  0  0  0  0  0  0  0
  148.8094  124.9537  150.3918 C   0  0  0  0  0  0  0  0  0  0  0  0
  149.0223  123.8283  151.1352 C   0  0  0  0  0  0  0  0  0  0  0  0
  149.2254  124.3274  152.4520 C   0  0  0  0  0  0  0  0  0  0  0  0
  149.1482  125.6467  152.5159 N   0  0  0  0  0  0  0  0  0  0  0  0
  147.4639  129.5169  151.3157 N   0  0  0  0  0  0  0  0  0  0  0  0
  146.5277  130.3647  151.7667 C   0  0  0  0  0  0  0  0  0  0  0  0
  145.6178  130.0461  152.5326 O   0  0  0  0  0  0  0  0  0  0  0  0
  146.6943  131.5974  151.2658 N   0  0  0  0  0  0  0  0  0  0  0  0
  145.8491  132.7572  151.5485 C   0  0  1  0  0  0  0  0  0  0  0  0
  146.7209  133.8633  152.1756 C   0  0  0  0  0  0  0  0  0  0  0  0
  145.9078  135.1345  152.4592 C   0  0  0  0  0  0  0  0  0  0  0  0
  145.2192  135.6417  151.1850 C   0  0  0  0  0  0  0  0  0  0  0  0
  144.3396  134.5477  150.5610 C   0  0  0  0  0  0  0  0  0  0  0  0
  145.1413  133.2637  150.2642 C   0  0  2  0  0  0  0  0  0  0  0  0
  144.2342  132.2003  149.6197 C   0  0  0  0  0  0  0  0  0  0  0  0
  147.6119  126.8429  153.4064 H   0  0  0  0  0  0  0  0  0  0  0  0
  146.7080  128.3369  153.6203 H   0  0  0  0  0  0  0  0  0  0  0  0
  148.4694  128.3727  153.5729 H   0  0  0  0  0  0  0  0  0  0  0  0
  146.6353  127.5847  151.2638 H   0  0  0  0  0  0  0  0  0  0  0  0
  148.7009  127.5696  149.8506 H   0  0  0  0  0  0  0  0  0  0  0  0
  149.6735  127.9452  151.2540 H   0  0  0  0  0  0  0  0  0  0  0  0
  148.6136  125.0766  149.3367 H   0  0  0  0  0  0  0  0  0  0  0  0
  149.0327  122.8052  150.7904 H   0  0  0  0  0  0  0  0  0  0  0  0
  149.4285  123.7745  153.3574 H   0  0  0  0  0  0  0  0  0  0  0  0
  148.1655  129.8803  150.6874 H   0  0  0  0  0  0  0  0  0  0  0  0
  147.4679  131.7485  150.6351 H   0  0  0  0  0  0  0  0  0  0  0  0
  145.0835  132.4882  152.2792 H   0  0  0  0  0  0  0  0  0  0  0  0
  147.1705  133.5044  153.1024 H   0  0  0  0  0  0  0  0  0  0  0  0
  147.5477  134.1071  151.5067 H   0  0  0  0  0  0  0  0  0  0  0  0
  145.1584  134.9275  153.2242 H   0  0  0  0  0  0  0  0  0  0  0  0
  146.5586  135.9098  152.8643 H   0  0  0  0  0  0  0  0  0  0  0  0
  144.6147  136.5198  151.4137 H   0  0  0  0  0  0  0  0  0  0  0  0
  145.9716  135.9629  150.4636 H   0  0  0  0  0  0  0  0  0  0  0  0
  143.5141  134.3178  151.2361 H   0  0  0  0  0  0  0  0  0  0  0  0
  143.8887  134.9266  149.6433 H   0  0  0  0  0  0  0  0  0  0  0  0
  145.9100  133.5189  149.5328 H   0  0  0  0  0  0  0  0  0  0  0  0
  143.4773  131.8469  150.3206 H   0  0  0  0  0  0  0  0  0  0  0  0
  144.8077  131.3367  149.2848 H   0  0  0  0  0  0  0  0  0  0  0  0
  143.7189  132.5998  148.7460 H   0  0  0  0  0  0  0  0  0  0  0  0
  1  2  1  0  0  0  0
  1 20  1  0  0  0  0
  1 21  1  0  0  0  0
  1 22  1  0  0  0  0
  2  3  1  0  0  0  0
  2  9  1  0  0  0  0
  2 23  1  0  0  0  0
  3  4  1  0  0  0  0
  3 24  1  0  0  0  0
  3 25  1  0  0  0  0
  4  8  1  0  0  0  0
  4  5  1  0  0  0  0
  5  6  2  0  0  0  0
  5 26  1  0  0  0  0
  6  7  1  0  0  0  0
  6 27  1  0  0  0  0
  7  8  2  0  0  0  0
  7 28  1  0  0  0  0
  9 10  1  0  0  0  0
  9 29  1  0  0  0  0
 10 11  2  0  0  0  0
 10 12  1  0  0  0  0
 12 13  1  0  0  0  0
 12 30  1  0  0  0  0
 13 18  1  0  0  0  0
 13 14  1  0  0  0  0
 13 31  1  0  0  0  0
 14 15  1  0  0  0  0
 14 32  1  0  0  0  0
 14 33  1  0  0  0  0
 15 16  1  0  0  0  0
 15 34  1  0  0  0  0
 15 35  1  0  0  0  0
 16 17  1  0  0  0  0
 16 36  1  0  0  0  0
 16 37  1  0  0  0  0
 17 18  1  0  0  0  0
 17 38  1  0  0  0  0
 17 39  1  0  0  0  0
 18 19  1  0  0  0  0
 18 40  1  0  0  0  0
 19 41  1  0  0  0  0
 19 42  1  0  0  0  0
 19 43  1  0  0  0  0
M  END
> <s_m_source_file>
AV-unprocessed.smi

> <i_m_source_file_index>
1840

> <i_lp_mmshare_version>
43012

> <i_f3d_flags>
0

> <s_epik_input>
bjFbY0hdW2NIXVtjSF1uMVtDSDJdW0NAQEhdKFtDSDNdKVtOSF1DKD1PKVtOSF1bQ0BASF0yW0NIMl1bQ0gyXVtDSDJdW0NIMl1bQ0BIXTJbQ0gzXQ==

> <s_epik_cmdline>
J2VwaWtfcHl0aG9uJywgJy1waCcsICc3LjAnLCAnLXRuJywgJzgnLCAnLW1hJywgJzIwMCcsICctbWV0YWxfYmluZGluZycsICctaW1hZScsICc8aW5maWxlLm1hZT4nLCAnLW9tYWUnLCAnPG91dGZpbGUubWFlPic=

> <r_lp_tautomer_probability>
1

> <r_epik_Ionization_Penalty>
7.38659e-05

> <r_epik_Ionization_Penalty_Charging>
0

> <r_epik_Ionization_Penalty_Neutral>
7.38659e-05

> <r_epik_State_Penalty>
-0

> <r_epik_Charging_Adjusted_Penalty>
0

> <i_epik_Tot_Q>
0

> <i_epik_Tot_abs_Q>
0

> <r_epik_Metal_State_Penalty>
-0

> <b_epik_Metal_Only>
0

> <s_lp_Force_Field>
OPLS_2005

> <r_lp_Energy>
7.66905

> <b_lp_Chiralities_Consistent>
1

> <s_lp_Variant>
AV-unprocessed.smi:1840-7

> <Gold.Version>
5.8.1

> <Gold.Id.Protein>
6NUR|6NUR_protein|mol2

> <Gold.PLP.Fitness>
45.9845

> <Gold.PLP.PLP>
-40.6627

> <Gold.PLP.part.hbond>
-1.7463

> <Gold.PLP.part.metal>
0.0000

> <Gold.PLP.part.buried>
-5.2676

> <Gold.PLP.part.nonpolar>
-34.4171

> <Gold.PLP.part.repulsive>
0.3730

> <Gold.PLP.ligand.clash>
0.0000

> <Gold.PLP.ligand.torsion>
0.0370

> <Gold.PLP.Chemscore.Hbond>
1.7913

> <Gold.PLP.Chemscore.CHOScore>
0.0000

> <Gold.PLP.Chemscore.Metal>
0.0000

> <Gold.Chemscore.Hbonds>
donor molecule, donor type, donor heavy atom, donor atom, acceptor molecule, acceptor atom, score
      L1  H     9    29       P1 10747  0.41
      L1  H    12    30       P1 10747  0.70

> <Gold.PLP.Chemscore.Internal.Correction>
0.0220

> <Gold.Rescore>
     Score         DG    S(hbond)    S(metal)    S(lipo)     H(rot)  DE(clash)    DE(int)     intcor
     15.94     -17.87       1.73        0.00      90.54       1.56       0.23       1.70       ----

> <Gold.Chemscore.Fitness>
15.9380

> <Gold.Chemscore.DG>
-17.8721

> <Gold.Chemscore.ZeroCoef>
-5.4800

> <Gold.Chemscore.Hbond>
1.7326

> <Gold.Chemscore.Metal>
0.0000

> <Gold.Chemscore.Lipo>
90.5359

> <Gold.Chemscore.Internal_Hbond>
0.0000

> <Gold.Chemscore.DEClash>
0.2344

> <Gold.Chemscore.DEInternal>
1.6996

> <Gold.Chemscore.Rot>
1.5576

> <Gold.Chemscore.Internal.Correction>
   9.000000E+99

> <Gold.Chemscore.Hbonds>
donor molecule, donor type, donor heavy atom, donor atom, acceptor molecule, acceptor atom, score
      L1  H     9    29       P1 10747  0.34
      L1  H    12    30       P1 10747  0.70

> <Gold.Chemscore.Hbond.Weighted>
-5.7869

> <Gold.Chemscore.Metal.Weighted>
-0.0000

> <Gold.Chemscore.Lipo.Weighted>
-10.5927

> <Gold.Chemscore.Internal_Hbond.Weighted>
0.0000

> <Gold.Chemscore.DEClash.Weighted>
0.2344

> <Gold.Chemscore.DEInternal.Weighted>
1.6996

> <Gold.Chemscore.Rot.Weighted>
3.9875

> <Gold.Chemscore.Internal.Correction.Weighted>
   9.000000E+99

> <Gold.Protein.RotatedTorsions>
[ 6907 6896 6895 6894 ] final  111.38 input  -60.11 | X-H torsion
[ 7974 7965 7964 7962 ] final  142.43 input  175.53 | X-H torsion
[ 8008 7997 7996 7995 ] final   17.26 input   59.86 | X-H torsion
[ 10167 10162 10161 10158 ] final  -36.56 input  -65.29 | X-H torsion
[ 10718 10713 10712 10709 ] final -149.12 input   66.30 | X-H torsion
[ 10763 10752 10751 10750 ] final  132.95 input  -60.55 | X-H torsion
[ 11005 11000 10999 10996 ] final -163.19 input  -57.11 | X-H torsion

> <Gold.Protein.ActiveResidues>
 VAL166  LYS551  ARG553  GLY616  TRP617  ASP618  TYR619  PRO620  LYS621  CYS622 
 ASP623  PHE694  ASN695  SER759  ASP760  ASP761  ALA762  ILE779  LEU786  VAL792 
 PHE793  MET794  SER795  GLU796  ALA797  LYS798  CYS799  TRP800  GLU811  SER814 

> <Gold.Protein.RotatedAtoms>
  152.4972  133.8666  159.7277 H   0  0  0  0  0  0  0  0  0  0  0  0  # atno 6907 bound_to 6896
  150.9164  133.6925  159.2849 H   0  0  0  0  0  0  0  0  0  0  0  0  # atno 6908 bound_to 6896
  151.4317  135.1014  159.9696 H   0  0  0  0  0  0  0  0  0  0  0  0  # atno 6909 bound_to 6896
  144.9009  139.5425  143.5754 H   0  0  0  0  0  0  0  0  0  0  0  0  # atno 7974 bound_to 7965
  154.8889  140.2984  155.5382 H   0  0  0  0  0  0  0  0  0  0  0  0  # atno 8008 bound_to 7997
  156.3021  140.2428  156.3836 H   0  0  0  0  0  0  0  0  0  0  0  0  # atno 8009 bound_to 7997
  154.8639  140.0404  157.1671 H   0  0  0  0  0  0  0  0  0  0  0  0  # atno 8010 bound_to 7997
  140.7139  143.3400  151.2378 H   0  0  0  0  0  0  0  0  0  0  0  0  # atno 10167 bound_to 10162
  156.4291  130.8066  151.2293 H   0  0  0  0  0  0  0  0  0  0  0  0  # atno 10718 bound_to 10713
  153.7991  135.3144  155.3388 H   0  0  0  0  0  0  0  0  0  0  0  0  # atno 10763 bound_to 10752
  154.8096  135.4676  154.0484 H   0  0  0  0  0  0  0  0  0  0  0  0  # atno 10764 bound_to 10752
  153.1826  135.6896  153.8545 H   0  0  0  0  0  0  0  0  0  0  0  0  # atno 10765 bound_to 10752
  140.6009  134.4949  157.5205 H   0  0  0  0  0  0  0  0  0  0  0  0  # atno 11005 bound_to 11000
  146.3107  139.7738  142.9022 LP  0  0  0  0  0  0  0  0  0  0  0  0  # atno 17320 bound_to 7965
  145.3619  141.0327  143.3280 LP  0  0  0  0  0  0  0  0  0  0  0  0  # atno 17321 bound_to 7965
  139.6905  143.9700  152.2857 LP  0  0  0  0  0  0  0  0  0  0  0  0  # atno 17342 bound_to 10162
  139.9360  144.6712  150.8314 LP  0  0  0  0  0  0  0  0  0  0  0  0  # atno 17343 bound_to 10162
  157.7508  131.0204  150.3707 LP  0  0  0  0  0  0  0  0  0  0  0  0  # atno 17370 bound_to 10713
  156.4040  130.3921  149.6939 LP  0  0  0  0  0  0  0  0  0  0  0  0  # atno 17371 bound_to 10713
  139.9233  134.8106  156.1145 LP  0  0  0  0  0  0  0  0  0  0  0  0  # atno 17394 bound_to 11000
  141.0873  133.6729  156.2464 LP  0  0  0  0  0  0  0  0  0  0  0  0  # atno 17395 bound_to 11000

$$$$
