AV-unprocessed.smi:1553|AV-procd|sdf|6238|dock10
  -GOLD-   22720 6423D 1   1.00000     0.00000
 Structure written by MMmdl.
 37 38  0  0  0  0  0  0  0  0  1 V2000
  152.8033  142.6238  161.2249 C   0  0  0  0  0  0  0  0  0  0  0  0
  152.1967  142.9947  159.9156 C   0  0  0  0  0  0  0  0  0  0  0  0
  151.3424  142.2141  159.2494 N   0  0  0  0  0  0  0  0  0  0  0  0
  150.9302  142.7791  158.0389 C   0  0  0  0  0  0  0  0  0  0  0  0
  150.0191  142.0114  157.1244 C   0  0  0  0  0  0  0  0  0  0  0  0
  148.6644  141.6495  157.7670 C   0  0  0  0  0  0  0  0  0  0  0  0
  147.6598  142.6878  157.5431 N   0  0  0  0  0  0  0  0  0  0  0  0
  146.9158  143.2816  158.4950 C   0  0  0  0  0  0  0  0  0  0  0  0
  147.1135  143.0645  159.6899 O   0  0  0  0  0  0  0  0  0  0  0  0
  145.8837  144.0267  158.0108 N   0  0  0  0  0  0  0  0  0  0  0  0
  145.4284  143.9964  156.6100 C   0  0  0  0  0  0  0  0  0  0  0  0
  144.0477  143.3222  156.5715 C   0  0  0  0  0  0  0  0  0  0  0  0
  143.1409  144.0759  157.3706 O   0  0  0  0  0  0  0  0  0  0  0  0
  143.5640  144.2142  158.7252 C   0  0  0  0  0  0  0  0  0  0  0  0
  144.9559  144.8818  158.7889 C   0  0  1  0  0  0  0  0  0  0  0  0
  145.3316  145.1927  160.2528 C   0  0  0  0  0  0  0  0  0  0  0  0
  151.4703  144.0204  157.8091 C   0  0  0  0  0  0  0  0  0  0  0  0
  152.5420  144.5097  159.0914 S   0  0  0  0  0  0  0  0  0  0  0  0
  152.5892  141.5822  161.4663 H   0  0  0  0  0  0  0  0  0  0  0  0
  152.3997  143.2573  162.0148 H   0  0  0  0  0  0  0  0  0  0  0  0
  153.8844  142.7572  161.1853 H   0  0  0  0  0  0  0  0  0  0  0  0
  149.8410  142.5809  156.2116 H   0  0  0  0  0  0  0  0  0  0  0  0
  150.5136  141.0935  156.8047 H   0  0  0  0  0  0  0  0  0  0  0  0
  148.3169  140.6885  157.3843 H   0  0  0  0  0  0  0  0  0  0  0  0
  148.7911  141.5176  158.8415 H   0  0  0  0  0  0  0  0  0  0  0  0
  147.4403  142.9008  156.5811 H   0  0  0  0  0  0  0  0  0  0  0  0
  145.3545  145.0149  156.2260 H   0  0  0  0  0  0  0  0  0  0  0  0
  146.1142  143.4915  155.9292 H   0  0  0  0  0  0  0  0  0  0  0  0
  143.6711  143.2856  155.5493 H   0  0  0  0  0  0  0  0  0  0  0  0
  144.1028  142.2939  156.9328 H   0  0  0  0  0  0  0  0  0  0  0  0
  142.8261  144.8189  159.2528 H   0  0  0  0  0  0  0  0  0  0  0  0
  143.5781  143.2362  159.2091 H   0  0  0  0  0  0  0  0  0  0  0  0
  144.8943  145.8475  158.2846 H   0  0  0  0  0  0  0  0  0  0  0  0
  144.6005  145.8663  160.7004 H   0  0  0  0  0  0  0  0  0  0  0  0
  146.3011  145.6870  160.3213 H   0  0  0  0  0  0  0  0  0  0  0  0
  145.3543  144.2924  160.8682 H   0  0  0  0  0  0  0  0  0  0  0  0
  151.3222  144.6636  156.9546 H   0  0  0  0  0  0  0  0  0  0  0  0
  1  2  1  0  0  0  0
  1 19  1  0  0  0  0
  1 20  1  0  0  0  0
  1 21  1  0  0  0  0
  2 18  1  0  0  0  0
  2  3  2  0  0  0  0
  3  4  1  0  0  0  0
  4  5  1  0  0  0  0
  4 17  2  0  0  0  0
  5  6  1  0  0  0  0
  5 22  1  0  0  0  0
  5 23  1  0  0  0  0
  6  7  1  0  0  0  0
  6 24  1  0  0  0  0
  6 25  1  0  0  0  0
  7  8  1  0  0  0  0
  7 26  1  0  0  0  0
  8  9  2  0  0  0  0
  8 10  1  0  0  0  0
 10 15  1  0  0  0  0
 10 11  1  0  0  0  0
 11 12  1  0  0  0  0
 11 27  1  0  0  0  0
 11 28  1  0  0  0  0
 12 13  1  0  0  0  0
 12 29  1  0  0  0  0
 12 30  1  0  0  0  0
 13 14  1  0  0  0  0
 14 15  1  0  0  0  0
 14 31  1  0  0  0  0
 14 32  1  0  0  0  0
 15 16  1  0  0  0  0
 15 33  1  0  0  0  0
 16 34  1  0  0  0  0
 16 35  1  0  0  0  0
 16 36  1  0  0  0  0
 17 18  1  0  0  0  0
 17 37  1  0  0  0  0
M  END
> <s_m_source_file>
AV-unprocessed.smi

> <i_m_source_file_index>
1553

> <i_lp_mmshare_version>
43012

> <i_f3d_flags>
0

> <s_epik_input>
W0NIM11jMW5jKFtjSF1zMSlbQ0gyXVtDSDJdW05IXUMoPU8pTjJbQ0gyXVtDSDJdT1tDSDJdW0NASF0yW0NIM10=

> <s_epik_cmdline>
J2VwaWtfcHl0aG9uJywgJy1waCcsICc3LjAnLCAnLXRuJywgJzgnLCAnLW1hJywgJzIwMCcsICctbWV0YWxfYmluZGluZycsICctaW1hZScsICc8aW5maWxlLm1hZT4nLCAnLW9tYWUnLCAnPG91dGZpbGUubWFlPic=

> <r_epik_Ionization_Penalty>
0.0020768

> <r_epik_Ionization_Penalty_Charging>
0

> <r_epik_Ionization_Penalty_Neutral>
0.0020768

> <r_epik_State_Penalty>
0.00139904

> <r_epik_Charging_Adjusted_Penalty>
0.00139904

> <i_epik_Tot_Q>
0

> <i_epik_Tot_abs_Q>
0

> <r_epik_Metal_State_Penalty>
-0

> <b_epik_Metal_Only>
0

> <s_lp_Force_Field>
OPLS_2005

> <r_lp_Energy>
28.2448

> <b_lp_Chiralities_Consistent>
1

> <s_lp_Variant>
AV-unprocessed.smi:1553-1

> <Gold.Version>
5.8.1

> <Gold.Id.Protein>
6NUR|6NUR_protein|mol2

> <Gold.PLP.Fitness>
35.2470

> <Gold.PLP.PLP>
-28.3302

> <Gold.PLP.part.hbond>
-2.2348

> <Gold.PLP.part.metal>
0.0000

> <Gold.PLP.part.buried>
-3.1944

> <Gold.PLP.part.nonpolar>
-24.5751

> <Gold.PLP.part.repulsive>
0.1180

> <Gold.PLP.ligand.clash>
0.0008

> <Gold.PLP.ligand.torsion>
0.2787

> <Gold.PLP.Chemscore.Hbond>
1.5133

> <Gold.PLP.Chemscore.CHOScore>
0.9299

> <Gold.PLP.Chemscore.Metal>
0.0000

> <Gold.Chemscore.Hbonds>
donor molecule, donor type, donor heavy atom, donor atom, acceptor molecule, acceptor atom, score
      P1  H  6933  6944       L1     9  0.21
      L1  C    17    37       P1  8028  0.43

> <Gold.PLP.Chemscore.Internal.Correction>
0.1453

> <Gold.Rescore>
     Score         DG    S(hbond)    S(metal)    S(lipo)     H(rot)  DE(clash)    DE(int)     intcor
     14.68     -16.30       1.43        0.00      80.78       1.33       0.01       1.61       ----

> <Gold.Chemscore.Fitness>
14.6786

> <Gold.Chemscore.DG>
-16.3025

> <Gold.Chemscore.ZeroCoef>
-5.4800

> <Gold.Chemscore.Hbond>
1.4318

> <Gold.Chemscore.Metal>
0.0000

> <Gold.Chemscore.Lipo>
80.7815

> <Gold.Chemscore.Internal_Hbond>
0.0000

> <Gold.Chemscore.DEClash>
0.0106

> <Gold.Chemscore.DEInternal>
1.6133

> <Gold.Chemscore.Rot>
1.3325

> <Gold.Chemscore.Internal.Correction>
   9.000000E+99

> <Gold.Chemscore.Hbonds>
donor molecule, donor type, donor heavy atom, donor atom, acceptor molecule, acceptor atom, score
      P1  H  6933  6944       L1     9  0.22
      P1  H  6934  6946       L1     9  0.06

> <Gold.Chemscore.Hbond.Weighted>
-4.7822

> <Gold.Chemscore.Metal.Weighted>
-0.0000

> <Gold.Chemscore.Lipo.Weighted>
-9.4514

> <Gold.Chemscore.Internal_Hbond.Weighted>
0.0000

> <Gold.Chemscore.DEClash.Weighted>
0.0106

> <Gold.Chemscore.DEInternal.Weighted>
1.6133

> <Gold.Chemscore.Rot.Weighted>
3.4111

> <Gold.Chemscore.Internal.Correction.Weighted>
   9.000000E+99

> <Gold.Protein.RotatedTorsions>
[ 6907 6896 6895 6894 ] final  112.12 input  -60.11 | X-H torsion
[ 7974 7965 7964 7962 ] final  166.03 input  175.53 | X-H torsion
[ 8008 7997 7996 7995 ] final  -14.53 input   59.86 | X-H torsion
[ 10167 10162 10161 10158 ] final   88.75 input  -65.29 | X-H torsion
[ 10718 10713 10712 10709 ] final   62.45 input   66.30 | X-H torsion
[ 10763 10752 10751 10750 ] final -124.64 input  -60.55 | X-H torsion
[ 11005 11000 10999 10996 ] final  -77.03 input  -57.11 | X-H torsion

> <Gold.Protein.ActiveResidues>
 VAL166  LYS551  ARG553  GLY616  TRP617  ASP618  TYR619  PRO620  LYS621  CYS622 
 ASP623  PHE694  ASN695  SER759  ASP760  ASP761  ALA762  ILE779  LEU786  VAL792 
 PHE793  MET794  SER795  GLU796  ALA797  LYS798  CYS799  TRP800  GLU811  SER814 

> <Gold.Protein.RotatedAtoms>
  152.4933  133.8561  159.7225 H   0  0  0  0  0  0  0  0  0  0  0  0  # atno 6907 bound_to 6896
  150.9085  133.7019  159.2867 H   0  0  0  0  0  0  0  0  0  0  0  0  # atno 6908 bound_to 6896
  151.4436  135.1027  159.9730 H   0  0  0  0  0  0  0  0  0  0  0  0  # atno 6909 bound_to 6896
  144.7478  139.8556  143.6376 H   0  0  0  0  0  0  0  0  0  0  0  0  # atno 7974 bound_to 7965
  154.5203  140.2220  155.8988 H   0  0  0  0  0  0  0  0  0  0  0  0  # atno 8008 bound_to 7997
  156.1654  140.3133  155.8845 H   0  0  0  0  0  0  0  0  0  0  0  0  # atno 8009 bound_to 7997
  155.3666  140.0464  157.3036 H   0  0  0  0  0  0  0  0  0  0  0  0  # atno 8010 bound_to 7997
  139.8642  144.6528  150.9024 H   0  0  0  0  0  0  0  0  0  0  0  0  # atno 10167 bound_to 10162
  157.5902  130.9051  149.9590 H   0  0  0  0  0  0  0  0  0  0  0  0  # atno 10718 bound_to 10713
  154.8726  135.4057  154.3139 H   0  0  0  0  0  0  0  0  0  0  0  0  # atno 10763 bound_to 10752
  153.3978  135.7017  153.6453 H   0  0  0  0  0  0  0  0  0  0  0  0  # atno 10764 bound_to 10752
  153.5209  135.3687  155.2602 H   0  0  0  0  0  0  0  0  0  0  0  0  # atno 10765 bound_to 10752
  141.1658  133.7006  156.7758 H   0  0  0  0  0  0  0  0  0  0  0  0  # atno 11005 bound_to 11000
  146.1385  139.4436  143.0124 LP  0  0  0  0  0  0  0  0  0  0  0  0  # atno 17320 bound_to 7965
  145.7055  141.0122  143.1481 LP  0  0  0  0  0  0  0  0  0  0  0  0  # atno 17321 bound_to 7965
  140.7770  143.3719  151.1634 LP  0  0  0  0  0  0  0  0  0  0  0  0  # atno 17342 bound_to 10162
  139.7345  143.9020  152.3030 LP  0  0  0  0  0  0  0  0  0  0  0  0  # atno 17343 bound_to 10162
  156.0955  130.3660  150.0314 LP  0  0  0  0  0  0  0  0  0  0  0  0  # atno 17370 bound_to 10713
  156.8438  130.9435  151.3630 LP  0  0  0  0  0  0  0  0  0  0  0  0  # atno 17371 bound_to 10713
  140.2430  134.8599  157.3593 LP  0  0  0  0  0  0  0  0  0  0  0  0  # atno 17394 bound_to 11000
  140.1777  134.4529  155.7791 LP  0  0  0  0  0  0  0  0  0  0  0  0  # atno 17395 bound_to 11000

$$$$
