AV-unprocessed.smi:72|AV-procd|sdf|717|dock2
  -GOLD-   2262017 43D 1   1.00000     0.00000
 Structure written by MMmdl.
 28 29  0  0  0  0  0  0  0  0  2 V2000
  154.3860  138.0890  154.5970 N   0  0  0  0  0  0  0  0  0  0  0  0
  153.1717  138.3695  154.7861 C   0  0  0  0  0  0  0  0  0  0  0  0
  152.1360  137.5531  154.1924 N   0  0  0  0  0  0  0  0  0  0  0  0
  150.9023  137.9088  154.3810 C   0  0  0  0  0  0  0  0  0  0  0  0
  150.5508  139.1028  155.1431 N   0  0  0  0  0  0  0  0  0  0  0  0
  149.1096  139.5330  155.3776 C   0  0  2  0  0  0  0  0  0  0  0  0
  148.2259  138.6399  154.7664 O   0  0  0  0  0  0  0  0  0  0  0  0
  147.8666  139.1268  153.4794 C   0  0  1  0  0  0  0  0  0  0  0  0
  146.5646  138.4591  153.0126 C   0  0  0  0  0  0  0  0  0  0  0  0
  146.1471  139.0183  151.7854 O   0  0  0  0  0  0  0  0  0  0  0  0
  147.7306  140.6288  153.7333 C   0  0  2  0  0  0  0  0  0  0  0  0
  147.9512  141.3517  152.5386 O   0  0  0  0  0  0  0  0  0  0  0  0
  148.8321  140.9179  154.7505 C   0  0  1  0  0  0  0  0  0  0  0  0
  148.3752  141.8441  155.7147 O   0  0  0  0  0  0  0  0  0  0  0  0
  151.5902  139.8464  155.7662 C   0  0  0  0  0  0  0  0  0  0  0  0
  151.2748  140.8101  156.4648 O   0  0  0  0  0  0  0  0  0  0  0  0
  152.8828  139.4640  155.5695 N   0  5  0  0  0  0  0  0  0  0  0  0
  148.9801  139.4902  156.4606 H   0  0  0  0  0  0  0  0  0  0  0  0
  148.6772  138.9454  152.7707 H   0  0  0  0  0  0  0  0  0  0  0  0
  146.7454  140.8560  154.1447 H   0  0  0  0  0  0  0  0  0  0  0  0
  149.7325  141.2974  154.2639 H   0  0  0  0  0  0  0  0  0  0  0  0
  154.5038  137.2741  154.0127 H   0  0  0  0  0  0  0  0  0  0  0  0
  150.0659  137.3347  153.9832 H   0  0  0  0  0  0  0  0  0  0  0  0
  146.6832  137.3793  152.9188 H   0  0  0  0  0  0  0  0  0  0  0  0
  145.7714  138.6366  153.7394 H   0  0  0  0  0  0  0  0  0  0  0  0
  145.3266  139.4663  151.9229 H   0  0  0  0  0  0  0  0  0  0  0  0
  148.6375  140.9200  152.0531 H   0  0  0  0  0  0  0  0  0  0  0  0
  148.7302  142.6932  155.4973 H   0  0  0  0  0  0  0  0  0  0  0  0
  1  2  2  0  0  0  0
  1 22  1  0  0  0  0
  2 17  1  0  0  0  0
  2  3  1  0  0  0  0
  3  4  2  0  0  0  0
  4  5  1  0  0  0  0
  4 23  1  0  0  0  0
  5  6  1  0  0  0  0
  5 15  1  0  0  0  0
  6 18  1  0  0  0  0
  6 13  1  0  0  0  0
  6  7  1  0  0  0  0
  7  8  1  0  0  0  0
  8 19  1  0  0  0  0
  8  9  1  0  0  0  0
  8 11  1  0  0  0  0
  9 10  1  0  0  0  0
  9 24  1  0  0  0  0
  9 25  1  0  0  0  0
 10 26  1  0  0  0  0
 11 20  1  0  0  0  0
 11 12  1  0  0  0  0
 11 13  1  0  0  0  0
 12 27  1  0  0  0  0
 13 21  1  0  0  0  0
 13 14  1  0  0  0  0
 14 28  1  0  0  0  0
 15 16  2  0  0  0  0
 15 17  1  0  0  0  0
M  CHG  1  17  -1
M  END
> <s_m_source_file>
AV-unprocessed.smi

> <i_m_source_file_index>
72

> <i_lp_mmshare_version>
43012

> <i_f3d_flags>
0

> <s_epik_input>
W05IMl1jMW5bY0hdbihjKD1PKW4xKVtDQEBIXTJPW0NASF0oW0NIMl1bT0hdKVtDQEBIXShbT0hdKVtDQEhdMltPSF0=

> <s_epik_cmdline>
J2VwaWtfcHl0aG9uJywgJy1waCcsICc3LjAnLCAnLXRuJywgJzgnLCAnLW1hJywgJzIwMCcsICctbWV0YWxfYmluZGluZycsICctaW1hZScsICc8aW5maWxlLm1hZT4nLCAnLW9tYWUnLCAnPG91dGZpbGUubWFlPic=

> <r_lp_tautomer_probability>
7.17554e-07

> <r_epik_Ionization_Penalty>
12.8705

> <r_epik_Ionization_Penalty_Charging>
5.64144

> <r_epik_Ionization_Penalty_Neutral>
7.22905

> <r_epik_State_Penalty>
3.30104

> <r_epik_Charging_Adjusted_Penalty>
8.94249

> <i_epik_Tot_Q>
-1

> <i_epik_Tot_abs_Q>
1

> <r_epik_Metal_State_Penalty>
0.529074

> <b_epik_Metal_Only>
1

> <s_epik_Chemistry_Notes>
This compound contains an acetal/aminal-like group ( X-CH(R)-Y where X, Y are N, S, or O) that may be acid/base labile, releasing an aldehyde.

> <s_lp_Force_Field>
OPLS_2005

> <r_lp_Energy>
29.2038

> <b_lp_Chiralities_Consistent>
1

> <s_lp_Variant>
AV-unprocessed.smi:72-55

> <Gold.Version>
5.8.1

> <Gold.Id.Protein>
6NUR|6NUR_protein|mol2

> <Gold.PLP.Fitness>
46.8860

> <Gold.PLP.PLP>
-26.8489

> <Gold.PLP.part.hbond>
-8.4444

> <Gold.PLP.part.metal>
0.0000

> <Gold.PLP.part.buried>
0.7178

> <Gold.PLP.part.nonpolar>
-20.5892

> <Gold.PLP.part.repulsive>
0.2850

> <Gold.PLP.ligand.clash>
0.0000

> <Gold.PLP.ligand.torsion>
0.0358

> <Gold.PLP.Chemscore.Hbond>
5.8406

> <Gold.PLP.Chemscore.CHOScore>
0.8511

> <Gold.PLP.Chemscore.Metal>
0.0000

> <Gold.Chemscore.Hbonds>
donor molecule, donor type, donor heavy atom, donor atom, acceptor molecule, acceptor atom, score
      L1  H    10    26       P1 10175  1.00
      L1  H    12    27       P1  7957  1.00
      L1  H    14    28       P1  8028  1.00
      P1  H  7997  8010       L1    17  2.00
      P1  H 10752 10765       L1     3  0.84
      L1  C     4    23       P1  7948  0.83

> <Gold.PLP.Chemscore.Internal.Correction>
0.0339

> <Gold.Rescore>
     Score         DG    S(hbond)    S(metal)    S(lipo)     H(rot)  DE(clash)    DE(int)     intcor
      8.92     -11.83       4.14        0.00      24.55       4.04       1.75       1.15       ----

> <Gold.Chemscore.Fitness>
8.9238

> <Gold.Chemscore.DG>
-11.8290

> <Gold.Chemscore.ZeroCoef>
-5.4800

> <Gold.Chemscore.Hbond>
4.1376

> <Gold.Chemscore.Metal>
0.0000

> <Gold.Chemscore.Lipo>
24.5506

> <Gold.Chemscore.Internal_Hbond>
0.0000

> <Gold.Chemscore.DEClash>
1.7502

> <Gold.Chemscore.DEInternal>
1.1549

> <Gold.Chemscore.Rot>
4.0403

> <Gold.Chemscore.Internal.Correction>
   9.000000E+99

> <Gold.Chemscore.Hbonds>
donor molecule, donor type, donor heavy atom, donor atom, acceptor molecule, acceptor atom, score
      L1  H    10    26       P1 10175  0.90
      L1  H    12    27       P1  7957  0.97
      L1  H    14    28       P1  8028  0.91
      P1  H  7997  8010       L1    17  0.33
      P1  H 10752 10765       L1     3  0.30

> <Gold.Chemscore.Hbond.Weighted>
-13.8197

> <Gold.Chemscore.Metal.Weighted>
-0.0000

> <Gold.Chemscore.Lipo.Weighted>
-2.8724

> <Gold.Chemscore.Internal_Hbond.Weighted>
0.0000

> <Gold.Chemscore.DEClash.Weighted>
1.7502

> <Gold.Chemscore.DEInternal.Weighted>
1.1549

> <Gold.Chemscore.Rot.Weighted>
10.3431

> <Gold.Chemscore.Internal.Correction.Weighted>
   9.000000E+99

> <Gold.Protein.RotatedTorsions>
[ 6907 6896 6895 6894 ] final  -91.13 input  -60.11 | X-H torsion
[ 7974 7965 7964 7962 ] final  101.82 input  175.53 | X-H torsion
[ 8008 7997 7996 7995 ] final  111.12 input   59.86 | X-H torsion
[ 10167 10162 10161 10158 ] final -124.21 input  -65.29 | X-H torsion
[ 10718 10713 10712 10709 ] final  126.27 input   66.30 | X-H torsion
[ 10763 10752 10751 10750 ] final  151.07 input  -60.55 | X-H torsion
[ 11005 11000 10999 10996 ] final -135.91 input  -57.11 | X-H torsion

> <Gold.Protein.ActiveResidues>
 VAL166  LYS551  ARG553  GLY616  TRP617  ASP618  TYR619  PRO620  LYS621  CYS622 
 ASP623  PHE694  ASN695  SER759  ASP760  ASP761  ALA762  ILE779  LEU786  VAL792 
 PHE793  MET794  SER795  GLU796  ALA797  LYS798  CYS799  TRP800  GLU811  SER814 

> <Gold.Protein.RotatedAtoms>
  150.6889  134.2325  159.4439 H   0  0  0  0  0  0  0  0  0  0  0  0  # atno 6907 bound_to 6896
  152.0274  134.9785  160.0581 H   0  0  0  0  0  0  0  0  0  0  0  0  # atno 6908 bound_to 6896
  152.1338  133.4388  159.4770 H   0  0  0  0  0  0  0  0  0  0  0  0  # atno 6909 bound_to 6896
  145.3672  139.2405  143.3474 H   0  0  0  0  0  0  0  0  0  0  0  0  # atno 7974 bound_to 7965
  156.2101  140.3025  155.9714 H   0  0  0  0  0  0  0  0  0  0  0  0  # atno 8008 bound_to 7997
  155.2744  140.0435  157.3027 H   0  0  0  0  0  0  0  0  0  0  0  0  # atno 8009 bound_to 7997
  154.5688  140.2342  155.8231 H   0  0  0  0  0  0  0  0  0  0  0  0  # atno 8010 bound_to 7997
  139.9953  143.5598  152.2325 H   0  0  0  0  0  0  0  0  0  0  0  0  # atno 10167 bound_to 10162
  157.5433  131.1096  150.8823 H   0  0  0  0  0  0  0  0  0  0  0  0  # atno 10718 bound_to 10713
  154.0978  135.2848  155.3258 H   0  0  0  0  0  0  0  0  0  0  0  0  # atno 10763 bound_to 10752
  154.6576  135.5346  153.7981 H   0  0  0  0  0  0  0  0  0  0  0  0  # atno 10764 bound_to 10752
  153.0390  135.6526  154.1143 H   0  0  0  0  0  0  0  0  0  0  0  0  # atno 10765 bound_to 10752
  140.8854  134.1879  157.4563 H   0  0  0  0  0  0  0  0  0  0  0  0  # atno 11005 bound_to 11000
  146.2901  140.4317  142.8742 LP  0  0  0  0  0  0  0  0  0  0  0  0  # atno 17320 bound_to 7965
  144.8603  140.7129  143.6112 LP  0  0  0  0  0  0  0  0  0  0  0  0  # atno 17321 bound_to 7965
  139.6311  144.7644  151.2535 LP  0  0  0  0  0  0  0  0  0  0  0  0  # atno 17342 bound_to 10162
  140.7439  143.6479  150.8275 LP  0  0  0  0  0  0  0  0  0  0  0  0  # atno 17343 bound_to 10162
  156.9370  130.5370  149.5279 LP  0  0  0  0  0  0  0  0  0  0  0  0  # atno 17370 bound_to 10713
  156.0514  130.5583  150.8998 LP  0  0  0  0  0  0  0  0  0  0  0  0  # atno 17371 bound_to 10713
  139.8724  134.9836  156.5203 LP  0  0  0  0  0  0  0  0  0  0  0  0  # atno 17394 bound_to 11000
  140.8411  133.8204  155.9076 LP  0  0  0  0  0  0  0  0  0  0  0  0  # atno 17395 bound_to 11000

$$$$
