AV-unprocessed.smi:3350|AV-procd|sdf|12946|dock5
  -GOLD-   2272019383D 1   1.00000     0.00000
 Structure written by MMmdl.
 41 42  0  0  0  0  0  0  0  0  1 V2000
  142.6134  134.6204  152.6501 C   0  0  0  0  0  0  0  0  0  0  0  0
  143.5225  135.7502  152.1482 C   0  0  1  0  0  0  0  0  0  0  0  0
  143.9598  135.5125  150.6863 C   0  0  0  0  0  0  0  0  0  0  0  0
  144.6258  134.2352  150.4992 N   0  0  0  0  0  0  0  0  0  0  0  0
  144.1483  133.1038  149.8707 C   0  0  0  0  0  0  0  0  0  0  0  0
  145.1378  132.1645  149.9193 C   0  0  0  0  0  0  0  0  0  0  0  0
  146.1934  132.8215  150.6112 C   0  0  0  0  0  0  0  0  0  0  0  0
  145.8826  134.0593  150.9609 N   0  0  0  0  0  0  0  0  0  0  0  0
  142.8140  137.0235  152.2760 N   0  0  0  0  0  0  0  0  0  0  0  0
  142.1850  137.4578  153.3779 C   0  0  0  0  0  0  0  0  0  0  0  0
  142.0806  136.8078  154.4180 O   0  0  0  0  0  0  0  0  0  0  0  0
  141.7094  138.7002  153.2190 N   0  0  0  0  0  0  0  0  0  0  0  0
  141.0260  139.4779  154.2498 C   0  0  1  0  0  0  0  0  0  0  0  0
  141.9536  140.5904  154.7685 C   0  0  0  0  0  0  0  0  0  0  0  0
  139.7105  140.0474  153.6863 C   0  0  1  0  0  0  0  0  0  0  0  0
  138.6889  138.9948  153.2537 C   0  0  0  0  0  0  0  0  0  0  0  0
  137.3632  139.7334  153.3386 C   0  0  0  0  0  0  0  0  0  0  0  0
  137.6699  140.9518  154.2150 C   0  0  0  0  0  0  0  0  0  0  0  0
  138.9950  140.7527  154.6885 O   0  0  0  0  0  0  0  0  0  0  0  0
  143.1212  133.6569  152.5964 H   0  0  0  0  0  0  0  0  0  0  0  0
  141.7012  134.5491  152.0566 H   0  0  0  0  0  0  0  0  0  0  0  0
  142.3240  134.7811  153.6893 H   0  0  0  0  0  0  0  0  0  0  0  0
  144.4100  135.7540  152.7837 H   0  0  0  0  0  0  0  0  0  0  0  0
  143.0924  135.5409  150.0250 H   0  0  0  0  0  0  0  0  0  0  0  0
  144.6292  136.3068  150.3529 H   0  0  0  0  0  0  0  0  0  0  0  0
  143.1596  133.0661  149.4374 H   0  0  0  0  0  0  0  0  0  0  0  0
  145.1126  131.1618  149.5191 H   0  0  0  0  0  0  0  0  0  0  0  0
  147.1698  132.4381  150.8682 H   0  0  0  0  0  0  0  0  0  0  0  0
  142.8393  137.6365  151.4745 H   0  0  0  0  0  0  0  0  0  0  0  0
  141.8467  139.1517  152.3268 H   0  0  0  0  0  0  0  0  0  0  0  0
  140.7778  138.8164  155.0821 H   0  0  0  0  0  0  0  0  0  0  0  0
  141.4687  141.1732  155.5519 H   0  0  0  0  0  0  0  0  0  0  0  0
  142.2352  141.2773  153.9698 H   0  0  0  0  0  0  0  0  0  0  0  0
  142.8706  140.1785  155.1914 H   0  0  0  0  0  0  0  0  0  0  0  0
  139.9141  140.7260  152.8552 H   0  0  0  0  0  0  0  0  0  0  0  0
  138.8875  138.5945  152.2590 H   0  0  0  0  0  0  0  0  0  0  0  0
  138.6880  138.1613  153.9576 H   0  0  0  0  0  0  0  0  0  0  0  0
  137.0228  140.0502  152.3521 H   0  0  0  0  0  0  0  0  0  0  0  0
  136.5885  139.1018  153.7747 H   0  0  0  0  0  0  0  0  0  0  0  0
  137.6337  141.8678  153.6240 H   0  0  0  0  0  0  0  0  0  0  0  0
  136.9720  141.0556  155.0459 H   0  0  0  0  0  0  0  0  0  0  0  0
  1  2  1  0  0  0  0
  1 20  1  0  0  0  0
  1 21  1  0  0  0  0
  1 22  1  0  0  0  0
  2  3  1  0  0  0  0
  2  9  1  0  0  0  0
  2 23  1  0  0  0  0
  3  4  1  0  0  0  0
  3 24  1  0  0  0  0
  3 25  1  0  0  0  0
  4  8  1  0  0  0  0
  4  5  1  0  0  0  0
  5  6  2  0  0  0  0
  5 26  1  0  0  0  0
  6  7  1  0  0  0  0
  6 27  1  0  0  0  0
  7  8  2  0  0  0  0
  7 28  1  0  0  0  0
  9 10  1  0  0  0  0
  9 29  1  0  0  0  0
 10 11  2  0  0  0  0
 10 12  1  0  0  0  0
 12 13  1  0  0  0  0
 12 30  1  0  0  0  0
 13 14  1  0  0  0  0
 13 15  1  0  0  0  0
 13 31  1  0  0  0  0
 14 32  1  0  0  0  0
 14 33  1  0  0  0  0
 14 34  1  0  0  0  0
 15 19  1  0  0  0  0
 15 16  1  0  0  0  0
 15 35  1  0  0  0  0
 16 17  1  0  0  0  0
 16 36  1  0  0  0  0
 16 37  1  0  0  0  0
 17 18  1  0  0  0  0
 17 38  1  0  0  0  0
 17 39  1  0  0  0  0
 18 19  1  0  0  0  0
 18 40  1  0  0  0  0
 18 41  1  0  0  0  0
M  END
> <s_m_source_file>
AV-unprocessed.smi

> <i_m_source_file_index>
3350

> <i_lp_mmshare_version>
43012

> <i_f3d_flags>
0

> <s_epik_input>
bjFbY0hdW2NIXVtjSF1uMVtDSDJdW0NAQEhdKFtDSDNdKVtOSF1DKD1PKVtOSF1bQ0BIXShbQ0gzXSlbQ0BASF0yW0NIMl1bQ0gyXVtDSDJdTzI=

> <s_epik_cmdline>
J2VwaWtfcHl0aG9uJywgJy1waCcsICc3LjAnLCAnLXRuJywgJzgnLCAnLW1hJywgJzIwMCcsICctbWV0YWxfYmluZGluZycsICctaW1hZScsICc8aW5maWxlLm1hZT4nLCAnLW9tYWUnLCAnPG91dGZpbGUubWFlPic=

> <r_lp_tautomer_probability>
1

> <r_epik_Ionization_Penalty>
6.42349e-05

> <r_epik_Ionization_Penalty_Charging>
0

> <r_epik_Ionization_Penalty_Neutral>
6.42349e-05

> <r_epik_State_Penalty>
-0

> <r_epik_Charging_Adjusted_Penalty>
0

> <i_epik_Tot_Q>
0

> <i_epik_Tot_abs_Q>
0

> <r_epik_Metal_State_Penalty>
-0

> <b_epik_Metal_Only>
0

> <s_lp_Force_Field>
OPLS_2005

> <r_lp_Energy>
15.5841

> <b_lp_Chiralities_Consistent>
1

> <s_lp_Variant>
AV-unprocessed.smi:3350-8

> <Gold.Version>
5.8.1

> <Gold.Id.Protein>
6NUR|6NUR_protein|mol2

> <Gold.PLP.Fitness>
38.1547

> <Gold.PLP.PLP>
-29.7388

> <Gold.PLP.part.hbond>
-1.2499

> <Gold.PLP.part.metal>
0.0000

> <Gold.PLP.part.buried>
-3.2688

> <Gold.PLP.part.nonpolar>
-25.2351

> <Gold.PLP.part.repulsive>
0.2739

> <Gold.PLP.ligand.clash>
0.0000

> <Gold.PLP.ligand.torsion>
0.3578

> <Gold.PLP.Chemscore.Hbond>
1.0295

> <Gold.PLP.Chemscore.CHOScore>
2.0000

> <Gold.PLP.Chemscore.Metal>
0.0000

> <Gold.Chemscore.Hbonds>
donor molecule, donor type, donor heavy atom, donor atom, acceptor molecule, acceptor atom, score
      L1  H     9    29       P1 10171  0.71
      L1  H    12    30       P1 10175  0.13
      L1  C     5    26       P1 10186  0.97
      L1  C     7    28       P1 10747  1.00

> <Gold.PLP.Chemscore.Internal.Correction>
0.0429

> <Gold.Rescore>
     Score         DG    S(hbond)    S(metal)    S(lipo)     H(rot)  DE(clash)    DE(int)     intcor
     11.52     -12.95       0.98        0.00      75.72       1.82       0.08       1.35       ----

> <Gold.Chemscore.Fitness>
11.5186

> <Gold.Chemscore.DG>
-12.9517

> <Gold.Chemscore.ZeroCoef>
-5.4800

> <Gold.Chemscore.Hbond>
0.9793

> <Gold.Chemscore.Metal>
0.0000

> <Gold.Chemscore.Lipo>
75.7205

> <Gold.Chemscore.Internal_Hbond>
0.0000

> <Gold.Chemscore.DEClash>
0.0829

> <Gold.Chemscore.DEInternal>
1.3503

> <Gold.Chemscore.Rot>
1.8197

> <Gold.Chemscore.Internal.Correction>
   9.000000E+99

> <Gold.Chemscore.Hbonds>
donor molecule, donor type, donor heavy atom, donor atom, acceptor molecule, acceptor atom, score
      L1  H     9    29       P1 10171  0.24
      L1  H    12    30       P1 10160  0.07

> <Gold.Chemscore.Hbond.Weighted>
-3.2708

> <Gold.Chemscore.Metal.Weighted>
-0.0000

> <Gold.Chemscore.Lipo.Weighted>
-8.8593

> <Gold.Chemscore.Internal_Hbond.Weighted>
0.0000

> <Gold.Chemscore.DEClash.Weighted>
0.0829

> <Gold.Chemscore.DEInternal.Weighted>
1.3503

> <Gold.Chemscore.Rot.Weighted>
4.6583

> <Gold.Chemscore.Internal.Correction.Weighted>
   9.000000E+99

> <Gold.Protein.RotatedTorsions>
[ 6907 6896 6895 6894 ] final   42.92 input  -60.11 | X-H torsion
[ 7974 7965 7964 7962 ] final  -53.70 input  175.53 | X-H torsion
[ 8008 7997 7996 7995 ] final  -11.44 input   59.86 | X-H torsion
[ 10167 10162 10161 10158 ] final -110.53 input  -65.29 | X-H torsion
[ 10718 10713 10712 10709 ] final  170.56 input   66.30 | X-H torsion
[ 10763 10752 10751 10750 ] final  -60.29 input  -60.55 | X-H torsion
[ 11005 11000 10999 10996 ] final  168.72 input  -57.11 | X-H torsion

> <Gold.Protein.ActiveResidues>
 VAL166  LYS551  ARG553  GLY616  TRP617  ASP618  TYR619  PRO620  LYS621  CYS622 
 ASP623  PHE694  ASN695  SER759  ASP760  ASP761  ALA762  ILE779  LEU786  VAL792 
 PHE793  MET794  SER795  GLU796  ALA797  LYS798  CYS799  TRP800  GLU811  SER814 

> <Gold.Protein.RotatedAtoms>
  152.2138  134.8477  160.0493 H   0  0  0  0  0  0  0  0  0  0  0  0  # atno 6907 bound_to 6896
  151.9285  133.3599  159.3930 H   0  0  0  0  0  0  0  0  0  0  0  0  # atno 6908 bound_to 6896
  150.6983  134.4486  159.5370 H   0  0  0  0  0  0  0  0  0  0  0  0  # atno 6909 bound_to 6896
  145.8939  140.8049  142.9778 H   0  0  0  0  0  0  0  0  0  0  0  0  # atno 7974 bound_to 7965
  154.5464  140.2302  155.8556 H   0  0  0  0  0  0  0  0  0  0  0  0  # atno 8008 bound_to 7997
  156.1907  140.3078  155.9288 H   0  0  0  0  0  0  0  0  0  0  0  0  # atno 8009 bound_to 7997
  155.3156  140.0438  157.3027 H   0  0  0  0  0  0  0  0  0  0  0  0  # atno 8010 bound_to 7997
  140.1435  143.4259  152.1546 H   0  0  0  0  0  0  0  0  0  0  0  0  # atno 10167 bound_to 10162
  157.0063  131.0191  151.2816 H   0  0  0  0  0  0  0  0  0  0  0  0  # atno 10718 bound_to 10713
  154.2669  135.6297  153.5295 H   0  0  0  0  0  0  0  0  0  0  0  0  # atno 10763 bound_to 10752
  152.9886  135.5601  154.5643 H   0  0  0  0  0  0  0  0  0  0  0  0  # atno 10764 bound_to 10752
  154.5204  135.2882  155.1242 H   0  0  0  0  0  0  0  0  0  0  0  0  # atno 10765 bound_to 10752
  140.2902  134.7679  157.3832 H   0  0  0  0  0  0  0  0  0  0  0  0  # atno 11005 bound_to 11000
  144.6732  140.1571  143.7425 LP  0  0  0  0  0  0  0  0  0  0  0  0  # atno 17320 bound_to 7965
  145.8875  139.2357  143.1569 LP  0  0  0  0  0  0  0  0  0  0  0  0  # atno 17321 bound_to 7965
  139.5460  144.7299  151.4581 LP  0  0  0  0  0  0  0  0  0  0  0  0  # atno 17342 bound_to 10162
  140.6746  143.8218  150.7042 LP  0  0  0  0  0  0  0  0  0  0  0  0  # atno 17343 bound_to 10162
  157.5353  130.8085  149.7965 LP  0  0  0  0  0  0  0  0  0  0  0  0  # atno 17370 bound_to 10713
  156.0152  130.3816  150.2133 LP  0  0  0  0  0  0  0  0  0  0  0  0  # atno 17371 bound_to 10713
  140.1202  134.5230  155.8190 LP  0  0  0  0  0  0  0  0  0  0  0  0  # atno 17394 bound_to 11000
  141.2147  133.6754  156.6851 LP  0  0  0  0  0  0  0  0  0  0  0  0  # atno 17395 bound_to 11000

$$$$
