AV-unprocessed.smi:45|AV-procd|sdf|414|dock6
  -GOLD-   2262016283D 1   1.00000     0.00000
 Structure written by MMmdl.
 59 62  0  0  0  0  0  0  0  0  2 V2000
  148.4893  126.6542  150.9363 C   0  0  0  0  0  0  0  0  0  0  0  0
  147.6049  127.6620  151.4037 O   0  0  0  0  0  0  0  0  0  0  0  0
  148.0730  128.5568  152.3439 C   0  0  0  0  0  0  0  0  0  0  0  0
  149.3374  128.4470  152.9768 C   0  0  0  0  0  0  0  0  0  0  0  0
  149.7474  129.4015  153.9275 C   0  0  0  0  0  0  0  0  0  0  0  0
  148.9042  130.4797  154.2615 C   0  0  0  0  0  0  0  0  0  0  0  0
  149.3467  131.5081  155.2829 C   0  0  0  0  0  0  0  0  0  0  0  0
  148.2400  132.2656  155.8476 N   0  0  0  0  0  0  0  0  0  0  0  0
  147.8455  133.4997  155.3037 C   0  0  0  0  0  0  0  0  0  0  0  0
  147.2907  133.4944  154.0675 N   0  0  0  0  0  0  0  0  0  0  0  0
  146.9006  134.6612  153.5517 C   0  0  0  0  0  0  0  0  0  0  0  0
  146.3631  134.6105  152.2749 N   0  0  0  0  0  0  0  0  0  0  0  0
  146.1534  133.3123  151.6379 C   0  0  0  0  0  0  0  0  0  0  0  0
  144.8507  133.4095  150.8335 C   0  0  0  0  0  0  0  0  0  0  0  0
  144.6392  134.9091  150.6592 C   0  0  0  0  0  0  0  0  0  0  0  0
  145.2151  135.4564  151.9664 C   0  0  2  0  0  0  0  0  0  0  0  0
  145.5180  136.9695  151.9860 C   0  0  0  0  0  0  0  0  0  0  0  0
  146.7324  137.2707  151.3293 O   0  0  0  0  0  0  0  0  0  0  0  0
  147.0068  135.8575  154.1354 N   0  0  0  0  0  0  0  0  0  0  0  0
  147.5551  135.8858  155.3689 C   0  0  0  0  0  0  0  0  0  0  0  0
  148.0038  134.7147  156.0261 C   0  0  0  0  0  0  0  0  0  0  0  0
  148.6470  134.7880  157.3883 C   0  0  0  0  0  0  0  0  0  0  0  0
  149.7791  134.3125  157.5316 O   0  0  0  0  0  0  0  0  0  0  0  0
  147.8282  135.3759  158.3033 N   0  5  0  0  0  0  0  0  0  0  0  0
  148.2975  136.0670  159.5040 C   0  0  0  0  0  0  0  0  0  0  0  0
  147.2675  136.0020  160.6229 C   0  0  0  0  0  0  0  0  0  0  0  0
  146.6460  137.1450  160.9397 N   0  0  0  0  0  0  0  0  0  0  0  0
  145.7108  137.0856  161.9118 C   0  0  0  0  0  0  0  0  0  0  0  0
  145.3999  135.8787  162.5694 C   0  0  0  0  0  0  0  0  0  0  0  0
  146.1211  134.7404  162.1565 C   0  0  0  0  0  0  0  0  0  0  0  0
  147.0557  134.8047  161.1839 N   0  0  0  0  0  0  0  0  0  0  0  0
  147.6470  130.5957  153.6372 C   0  0  0  0  0  0  0  0  0  0  0  0
  147.2343  129.6410  152.6873 C   0  0  0  0  0  0  0  0  0  0  0  0
  145.6850  129.8117  151.9426 Cl  0  0  0  0  0  0  0  0  0  0  0  0
  144.4803  135.2681  152.7513 H   0  0  0  0  0  0  0  0  0  0  0  0
  147.9751  126.0405  150.1968 H   0  0  0  0  0  0  0  0  0  0  0  0
  148.8088  125.9962  151.7457 H   0  0  0  0  0  0  0  0  0  0  0  0
  149.3664  127.0866  150.4533 H   0  0  0  0  0  0  0  0  0  0  0  0
  150.0144  127.6373  152.7508 H   0  0  0  0  0  0  0  0  0  0  0  0
  150.7131  129.3037  154.4017 H   0  0  0  0  0  0  0  0  0  0  0  0
  149.8769  130.9925  156.0846 H   0  0  0  0  0  0  0  0  0  0  0  0
  150.0549  132.1983  154.8228 H   0  0  0  0  0  0  0  0  0  0  0  0
  147.7365  131.8878  156.6380 H   0  0  0  0  0  0  0  0  0  0  0  0
  146.9941  133.1293  150.9684 H   0  0  0  0  0  0  0  0  0  0  0  0
  146.1184  132.4874  152.3503 H   0  0  0  0  0  0  0  0  0  0  0  0
  144.8965  132.8726  149.8859 H   0  0  0  0  0  0  0  0  0  0  0  0
  144.0297  132.9908  151.4168 H   0  0  0  0  0  0  0  0  0  0  0  0
  145.2083  135.2615  149.7981 H   0  0  0  0  0  0  0  0  0  0  0  0
  143.5930  135.1770  150.5103 H   0  0  0  0  0  0  0  0  0  0  0  0
  144.7190  137.5080  151.4758 H   0  0  0  0  0  0  0  0  0  0  0  0
  145.5499  137.3551  153.0051 H   0  0  0  0  0  0  0  0  0  0  0  0
  147.4016  136.6896  151.6567 H   0  0  0  0  0  0  0  0  0  0  0  0
  147.6469  136.8610  155.8249 H   0  0  0  0  0  0  0  0  0  0  0  0
  149.2322  135.6361  159.8664 H   0  0  0  0  0  0  0  0  0  0  0  0
  148.5255  137.1185  159.3187 H   0  0  0  0  0  0  0  0  0  0  0  0
  145.2068  138.0062  162.1662 H   0  0  0  0  0  0  0  0  0  0  0  0
  144.6516  135.8288  163.3459 H   0  0  0  0  0  0  0  0  0  0  0  0
  145.9470  133.7750  162.6078 H   0  0  0  0  0  0  0  0  0  0  0  0
  146.9928  131.4181  153.8877 H   0  0  0  0  0  0  0  0  0  0  0  0
  1  2  1  0  0  0  0
  1 36  1  0  0  0  0
  1 37  1  0  0  0  0
  1 38  1  0  0  0  0
  2  3  1  0  0  0  0
  3 33  1  0  0  0  0
  3  4  2  0  0  0  0
  4  5  1  0  0  0  0
  4 39  1  0  0  0  0
  5  6  2  0  0  0  0
  5 40  1  0  0  0  0
  6  7  1  0  0  0  0
  6 32  1  0  0  0  0
  7  8  1  0  0  0  0
  7 41  1  0  0  0  0
  7 42  1  0  0  0  0
  8  9  1  0  0  0  0
  8 43  1  0  0  0  0
  9 21  1  0  0  0  0
  9 10  2  0  0  0  0
 10 11  1  0  0  0  0
 11 12  1  0  0  0  0
 11 19  2  0  0  0  0
 12 16  1  0  0  0  0
 12 13  1  0  0  0  0
 13 14  1  0  0  0  0
 13 44  1  0  0  0  0
 13 45  1  0  0  0  0
 14 15  1  0  0  0  0
 14 46  1  0  0  0  0
 14 47  1  0  0  0  0
 15 16  1  0  0  0  0
 15 48  1  0  0  0  0
 15 49  1  0  0  0  0
 16 35  1  0  0  0  0
 16 17  1  0  0  0  0
 17 18  1  0  0  0  0
 17 50  1  0  0  0  0
 17 51  1  0  0  0  0
 18 52  1  0  0  0  0
 19 20  1  0  0  0  0
 20 21  2  0  0  0  0
 20 53  1  0  0  0  0
 21 22  1  0  0  0  0
 22 23  2  0  0  0  0
 22 24  1  0  0  0  0
 24 25  1  0  0  0  0
 25 26  1  0  0  0  0
 25 54  1  0  0  0  0
 25 55  1  0  0  0  0
 26 31  1  0  0  0  0
 26 27  2  0  0  0  0
 27 28  1  0  0  0  0
 28 29  2  0  0  0  0
 28 56  1  0  0  0  0
 29 30  1  0  0  0  0
 29 57  1  0  0  0  0
 30 31  2  0  0  0  0
 30 58  1  0  0  0  0
 32 33  2  0  0  0  0
 32 59  1  0  0  0  0
 33 34  1  0  0  0  0
M  CHG  1  24  -1
M  END
> <s_m_source_file>
AV-unprocessed.smi

> <i_m_source_file_index>
45

> <i_lp_mmshare_version>
43012

> <i_f3d_flags>
0

> <s_epik_input>
W0NIM11PYzFbY0hdW2NIXWMoW2NIXWMxQ2wpW0NIMl1bTkhdYzJuYyhOM1tDSDJdW0NIMl1bQ0gyXVtDQEhdM1tDSDJdW09IXSluW2NIXWMyQyg9TylbTkhdW0NIMl1jNG5bY0hdW2NIXVtjSF1uNA==

> <s_epik_cmdline>
J2VwaWtfcHl0aG9uJywgJy1waCcsICc3LjAnLCAnLXRuJywgJzgnLCAnLW1hJywgJzIwMCcsICctbWV0YWxfYmluZGluZycsICctaW1hZScsICc8aW5maWxlLm1hZT4nLCAnLW9tYWUnLCAnPG91dGZpbGUubWFlPic=

> <r_lp_tautomer_probability>
1

> <r_epik_Ionization_Penalty>
7.35269

> <r_epik_Ionization_Penalty_Charging>
6.82087

> <r_epik_Ionization_Penalty_Neutral>
0.53182

> <r_epik_State_Penalty>
6.85781

> <r_epik_Charging_Adjusted_Penalty>
13.6787

> <i_epik_Tot_Q>
-1

> <i_epik_Tot_abs_Q>
1

> <r_epik_Metal_State_Penalty>
2.8146

> <b_epik_Metal_Only>
1

> <s_epik_Chemistry_Notes>
This compound contains an electron-poor aromatic ring that is susceptible to covalent hydrolysis at low pH, typically resulting in measured values for nitrogen ring protonation that are around two units higher than predicted values.

> <s_lp_Force_Field>
OPLS_2005

> <r_lp_Energy>
50.4559

> <b_lp_Chiralities_Consistent>
1

> <s_lp_Variant>
AV-unprocessed.smi:45-8

> <Gold.Version>
5.8.1

> <Gold.Id.Protein>
6NUR|6NUR_protein|mol2

> <Gold.PLP.Fitness>
51.6547

> <Gold.PLP.PLP>
-46.7752

> <Gold.PLP.part.hbond>
-3.5396

> <Gold.PLP.part.metal>
0.0000

> <Gold.PLP.part.buried>
-6.2354

> <Gold.PLP.part.nonpolar>
-37.8534

> <Gold.PLP.part.repulsive>
1.9273

> <Gold.PLP.ligand.clash>
0.0000

> <Gold.PLP.ligand.torsion>
3.0374

> <Gold.PLP.Chemscore.Hbond>
3.3690

> <Gold.PLP.Chemscore.CHOScore>
0.0000

> <Gold.PLP.Chemscore.Metal>
0.0000

> <Gold.Chemscore.Hbonds>
donor molecule, donor type, donor heavy atom, donor atom, acceptor molecule, acceptor atom, score
      L1  H    18    52       P1  7948  1.00
      P1  H  6896  6909       L1    23  1.00
      P1  H  6934  6947       L1    27  1.00
      P1  H  7954  7966       L1    18  0.24

> <Gold.PLP.Chemscore.Internal.Correction>
0.8474

> <Gold.Rescore>
     Score         DG    S(hbond)    S(metal)    S(lipo)     H(rot)  DE(clash)    DE(int)     intcor
     14.82     -19.00       2.88        0.00     101.37       3.11       0.08       4.11       ----

> <Gold.Chemscore.Fitness>
14.8155

> <Gold.Chemscore.DG>
-19.0027

> <Gold.Chemscore.ZeroCoef>
-5.4800

> <Gold.Chemscore.Hbond>
2.8795

> <Gold.Chemscore.Metal>
0.0000

> <Gold.Chemscore.Lipo>
101.3737

> <Gold.Chemscore.Internal_Hbond>
0.0000

> <Gold.Chemscore.DEClash>
0.0804

> <Gold.Chemscore.DEInternal>
4.1069

> <Gold.Chemscore.Rot>
3.1077

> <Gold.Chemscore.Internal.Correction>
   9.000000E+99

> <Gold.Chemscore.Hbonds>
donor molecule, donor type, donor heavy atom, donor atom, acceptor molecule, acceptor atom, score
      L1  H    18    52       P1  7948  0.95
      P1  H  6896  6909       L1    23  0.88
      P1  H  6934  6947       L1    27  0.39

> <Gold.Chemscore.Hbond.Weighted>
-9.6177

> <Gold.Chemscore.Metal.Weighted>
-0.0000

> <Gold.Chemscore.Lipo.Weighted>
-11.8607

> <Gold.Chemscore.Internal_Hbond.Weighted>
0.0000

> <Gold.Chemscore.DEClash.Weighted>
0.0804

> <Gold.Chemscore.DEInternal.Weighted>
4.1069

> <Gold.Chemscore.Rot.Weighted>
7.9557

> <Gold.Chemscore.Internal.Correction.Weighted>
   9.000000E+99

> <Gold.Protein.RotatedTorsions>
[ 6907 6896 6895 6894 ] final   19.84 input  -60.11 | X-H torsion
[ 7974 7965 7964 7962 ] final  -25.65 input  175.53 | X-H torsion
[ 8008 7997 7996 7995 ] final  -75.61 input   59.86 | X-H torsion
[ 10167 10162 10161 10158 ] final -162.46 input  -65.29 | X-H torsion
[ 10718 10713 10712 10709 ] final  -22.23 input   66.30 | X-H torsion
[ 10763 10752 10751 10750 ] final  141.71 input  -60.55 | X-H torsion
[ 11005 11000 10999 10996 ] final   -3.43 input  -57.11 | X-H torsion

> <Gold.Protein.ActiveResidues>
 VAL166  LYS551  ARG553  GLY616  TRP617  ASP618  TYR619  PRO620  LYS621  CYS622 
 ASP623  PHE694  ASN695  SER759  ASP760  ASP761  ALA762  ILE779  LEU786  VAL792 
 PHE793  MET794  SER795  GLU796  ALA797  LYS798  CYS799  TRP800  GLU811  SER814 

> <Gold.Protein.RotatedAtoms>
  151.8872  135.0431  160.0494 H   0  0  0  0  0  0  0  0  0  0  0  0  # atno 6907 bound_to 6896
  152.2465  133.5174  159.5309 H   0  0  0  0  0  0  0  0  0  0  0  0  # atno 6908 bound_to 6896
  150.7070  134.0934  159.3982 H   0  0  0  0  0  0  0  0  0  0  0  0  # atno 6909 bound_to 6896
  146.1477  140.4914  142.8624 H   0  0  0  0  0  0  0  0  0  0  0  0  # atno 7974 bound_to 7965
  154.5431  140.0741  156.8544 H   0  0  0  0  0  0  0  0  0  0  0  0  # atno 8008 bound_to 7997
  155.3140  140.3392  155.4225 H   0  0  0  0  0  0  0  0  0  0  0  0  # atno 8009 bound_to 7997
  156.1893  140.1680  156.8109 H   0  0  0  0  0  0  0  0  0  0  0  0  # atno 8010 bound_to 7997
  139.6390  144.0295  152.2077 H   0  0  0  0  0  0  0  0  0  0  0  0  # atno 10167 bound_to 10162
  156.5073  130.4602  149.6667 H   0  0  0  0  0  0  0  0  0  0  0  0  # atno 10718 bound_to 10713
  153.9438  135.2977  155.3441 H   0  0  0  0  0  0  0  0  0  0  0  0  # atno 10763 bound_to 10752
  154.7463  135.5001  153.9212 H   0  0  0  0  0  0  0  0  0  0  0  0  # atno 10764 bound_to 10752
  153.1029  135.6739  153.9747 H   0  0  0  0  0  0  0  0  0  0  0  0  # atno 10765 bound_to 10752
  140.6692  133.9251  155.8484 H   0  0  0  0  0  0  0  0  0  0  0  0  # atno 11005 bound_to 11000
  144.7866  140.5949  143.6569 LP  0  0  0  0  0  0  0  0  0  0  0  0  # atno 17320 bound_to 7965
  145.4897  139.1489  143.3716 LP  0  0  0  0  0  0  0  0  0  0  0  0  # atno 17321 bound_to 7965
  139.9980  144.6314  150.7755 LP  0  0  0  0  0  0  0  0  0  0  0  0  # atno 17342 bound_to 10162
  140.7481  143.2916  151.3314 LP  0  0  0  0  0  0  0  0  0  0  0  0  # atno 17343 bound_to 10162
  156.3274  130.7313  151.2236 LP  0  0  0  0  0  0  0  0  0  0  0  0  # atno 17370 bound_to 10713
  157.7455  131.0439  150.4766 LP  0  0  0  0  0  0  0  0  0  0  0  0  # atno 17371 bound_to 10713
  141.0405  134.0628  157.3907 LP  0  0  0  0  0  0  0  0  0  0  0  0  # atno 17394 bound_to 11000
  139.8987  135.0155  156.7161 LP  0  0  0  0  0  0  0  0  0  0  0  0  # atno 17395 bound_to 11000

$$$$
