AV-unprocessed.smi:1464|AV-procd|sdf|5936|dock3
  -GOLD-   22720 6 13D 1   1.00000     0.00000
 Structure written by MMmdl.
 40 41  0  0  0  0  0  0  0  0  2 V2000
  152.1214  145.3147  159.0007 C   0  0  0  0  0  0  0  0  0  0  0  0
  152.2707  143.8054  158.7461 C   0  0  1  0  0  0  0  0  0  0  0  0
  152.7747  143.0614  159.9996 C   0  0  0  0  0  0  0  0  0  0  0  0
  153.0185  141.5718  159.7109 C   0  0  0  0  0  0  0  0  0  0  0  0
  151.7692  140.8999  159.1220 C   0  0  0  0  0  0  0  0  0  0  0  0
  151.2745  141.6438  157.8665 C   0  0  1  0  0  0  0  0  0  0  0  0
  150.1091  140.9591  157.3119 N   0  0  0  0  0  0  0  0  0  0  0  0
  150.0589  140.3574  156.1135 C   0  0  0  0  0  0  0  0  0  0  0  0
  151.0254  140.2883  155.3528 O   0  0  0  0  0  0  0  0  0  0  0  0
  148.7094  139.7304  155.7309 C   0  0  0  0  0  0  0  0  0  0  0  0
  147.6919  140.7186  155.3440 N   0  0  0  0  0  0  0  0  0  0  0  0
  146.4717  140.6573  156.1442 N   0  5  0  0  0  0  0  0  0  0  0  0
  145.4472  141.5033  155.8561 C   0  0  0  0  0  0  0  0  0  0  0  0
  144.3830  141.4949  156.4705 O   0  0  0  0  0  0  0  0  0  0  0  0
  145.6320  142.4592  154.7769 C   0  0  0  0  0  0  0  0  0  0  0  0
  146.7824  142.5166  154.0773 C   0  0  0  0  0  0  0  0  0  0  0  0
  147.9040  141.6253  154.3471 C   0  0  0  0  0  0  0  0  0  0  0  0
  148.9628  141.6813  153.7205 O   0  0  0  0  0  0  0  0  0  0  0  0
  150.9937  143.1439  158.1619 C   0  0  1  0  0  0  0  0  0  0  0  0
  149.7292  143.3691  159.0240 C   0  0  0  0  0  0  0  0  0  0  0  0
  151.4365  145.5218  159.8228 H   0  0  0  0  0  0  0  0  0  0  0  0
  151.7491  145.8286  158.1141 H   0  0  0  0  0  0  0  0  0  0  0  0
  153.0817  145.7612  159.2596 H   0  0  0  0  0  0  0  0  0  0  0  0
  153.0477  143.7056  157.9863 H   0  0  0  0  0  0  0  0  0  0  0  0
  153.7014  143.5152  160.3524 H   0  0  0  0  0  0  0  0  0  0  0  0
  152.0567  143.1661  160.8133 H   0  0  0  0  0  0  0  0  0  0  0  0
  153.8487  141.4686  159.0110 H   0  0  0  0  0  0  0  0  0  0  0  0
  153.3209  141.0602  160.6250 H   0  0  0  0  0  0  0  0  0  0  0  0
  151.9998  139.8631  158.8738 H   0  0  0  0  0  0  0  0  0  0  0  0
  150.9821  140.8644  159.8760 H   0  0  0  0  0  0  0  0  0  0  0  0
  152.0745  141.5868  157.1254 H   0  0  0  0  0  0  0  0  0  0  0  0
  149.2693  140.9628  157.8722 H   0  0  0  0  0  0  0  0  0  0  0  0
  148.8876  139.0219  154.9202 H   0  0  0  0  0  0  0  0  0  0  0  0
  148.3303  139.1348  156.5636 H   0  0  0  0  0  0  0  0  0  0  0  0
  144.8307  143.1409  154.5329 H   0  0  0  0  0  0  0  0  0  0  0  0
  146.8771  143.2450  153.2858 H   0  0  0  0  0  0  0  0  0  0  0  0
  150.7972  143.6293  157.2046 H   0  0  0  0  0  0  0  0  0  0  0  0
  149.8292  142.9388  160.0196 H   0  0  0  0  0  0  0  0  0  0  0  0
  148.8463  142.9270  158.5627 H   0  0  0  0  0  0  0  0  0  0  0  0
  149.5102  144.4295  159.1432 H   0  0  0  0  0  0  0  0  0  0  0  0
  1  2  1  0  0  0  0
  1 21  1  0  0  0  0
  1 22  1  0  0  0  0
  1 23  1  0  0  0  0
  2 19  1  0  0  0  0
  2  3  1  0  0  0  0
  2 24  1  0  0  0  0
  3  4  1  0  0  0  0
  3 25  1  0  0  0  0
  3 26  1  0  0  0  0
  4  5  1  0  0  0  0
  4 27  1  0  0  0  0
  4 28  1  0  0  0  0
  5  6  1  0  0  0  0
  5 29  1  0  0  0  0
  5 30  1  0  0  0  0
  6  7  1  0  0  0  0
  6 19  1  0  0  0  0
  6 31  1  0  0  0  0
  7  8  1  0  0  0  0
  7 32  1  0  0  0  0
  8  9  2  0  0  0  0
  8 10  1  0  0  0  0
 10 33  1  0  0  0  0
 10 34  1  0  0  0  0
 10 11  1  0  0  0  0
 11 12  1  0  0  0  0
 11 17  1  0  0  0  0
 12 13  1  0  0  0  0
 13 14  2  0  0  0  0
 13 15  1  0  0  0  0
 15 35  1  0  0  0  0
 15 16  2  0  0  0  0
 16 36  1  0  0  0  0
 16 17  1  0  0  0  0
 17 18  2  0  0  0  0
 19 20  1  0  0  0  0
 19 37  1  0  0  0  0
 20 38  1  0  0  0  0
 20 39  1  0  0  0  0
 20 40  1  0  0  0  0
M  CHG  1  12  -1
M  END
> <s_m_source_file>
AV-unprocessed.smi

> <i_m_source_file_index>
1464

> <i_lp_mmshare_version>
43012

> <i_f3d_flags>
0

> <s_epik_input>
W0NIM11bQ0BASF0xW0NIMl1bQ0gyXVtDSDJdW0NASF0oW0NASF0xW0NIM10pW05IXUMoPU8pW0NIMl1uMltuSF1jKD1PKVtjSF1bY0hdYzI9Tw==

> <s_epik_cmdline>
J2VwaWtfcHl0aG9uJywgJy1waCcsICc3LjAnLCAnLXRuJywgJzgnLCAnLW1hJywgJzIwMCcsICctbWV0YWxfYmluZGluZycsICctaW1hZScsICc8aW5maWxlLm1hZT4nLCAnLW9tYWUnLCAnPG91dGZpbGUubWFlPic=

> <r_lp_tautomer_probability>
1

> <r_epik_Ionization_Penalty>
0.101366

> <r_epik_Ionization_Penalty_Charging>
0.101366

> <r_epik_Ionization_Penalty_Neutral>
1.90469e-08

> <r_epik_State_Penalty>
0.035861

> <r_epik_Charging_Adjusted_Penalty>
0.137227

> <i_epik_Tot_Q>
-1

> <i_epik_Tot_abs_Q>
1

> <r_epik_Metal_State_Penalty>
0.035861

> <b_epik_Metal_Only>
0

> <s_lp_Force_Field>
OPLS_2005

> <r_lp_Energy>
30.1614

> <b_lp_Chiralities_Consistent>
1

> <s_lp_Variant>
AV-unprocessed.smi:1464-2

> <Gold.Version>
5.8.1

> <Gold.Id.Protein>
6NUR|6NUR_protein|mol2

> <Gold.PLP.Fitness>
43.3383

> <Gold.PLP.PLP>
-38.6893

> <Gold.PLP.part.hbond>
-2.6633

> <Gold.PLP.part.metal>
0.0000

> <Gold.PLP.part.buried>
-6.2556

> <Gold.PLP.part.nonpolar>
-31.7098

> <Gold.PLP.part.repulsive>
1.1333

> <Gold.PLP.ligand.clash>
0.0000

> <Gold.PLP.ligand.torsion>
0.2036

> <Gold.PLP.Chemscore.Hbond>
1.6793

> <Gold.PLP.Chemscore.CHOScore>
0.0000

> <Gold.PLP.Chemscore.Metal>
0.0000

> <Gold.Chemscore.Hbonds>
donor molecule, donor type, donor heavy atom, donor atom, acceptor molecule, acceptor atom, score
      P1  H  7989  7998       L1     9  0.99
      P1  H  8011  8017       L1    18  0.66

> <Gold.PLP.Chemscore.Internal.Correction>
0.0184

> <Gold.Rescore>
     Score         DG    S(hbond)    S(metal)    S(lipo)     H(rot)  DE(clash)    DE(int)     intcor
     17.35     -18.24       1.67        0.00      97.17       1.64       0.14       0.75       ----

> <Gold.Chemscore.Fitness>
17.3501

> <Gold.Chemscore.DG>
-18.2350

> <Gold.Chemscore.ZeroCoef>
-5.4800

> <Gold.Chemscore.Hbond>
1.6749

> <Gold.Chemscore.Metal>
0.0000

> <Gold.Chemscore.Lipo>
97.1687

> <Gold.Chemscore.Internal_Hbond>
0.0000

> <Gold.Chemscore.DEClash>
0.1383

> <Gold.Chemscore.DEInternal>
0.7466

> <Gold.Chemscore.Rot>
1.6438

> <Gold.Chemscore.Internal.Correction>
   9.000000E+99

> <Gold.Chemscore.Hbonds>
donor molecule, donor type, donor heavy atom, donor atom, acceptor molecule, acceptor atom, score
      P1  H  7989  7998       L1     9  0.90
      P1  H  8011  8017       L1    18  0.66

> <Gold.Chemscore.Hbond.Weighted>
-5.5943

> <Gold.Chemscore.Metal.Weighted>
-0.0000

> <Gold.Chemscore.Lipo.Weighted>
-11.3687

> <Gold.Chemscore.Internal_Hbond.Weighted>
0.0000

> <Gold.Chemscore.DEClash.Weighted>
0.1383

> <Gold.Chemscore.DEInternal.Weighted>
0.7466

> <Gold.Chemscore.Rot.Weighted>
4.2080

> <Gold.Chemscore.Internal.Correction.Weighted>
   9.000000E+99

> <Gold.Protein.RotatedTorsions>
[ 6907 6896 6895 6894 ] final   79.39 input  -60.11 | X-H torsion
[ 7974 7965 7964 7962 ] final  -21.53 input  175.53 | X-H torsion
[ 8008 7997 7996 7995 ] final -109.20 input   59.86 | X-H torsion
[ 10167 10162 10161 10158 ] final  131.96 input  -65.29 | X-H torsion
[ 10718 10713 10712 10709 ] final   27.42 input   66.30 | X-H torsion
[ 10763 10752 10751 10750 ] final   51.40 input  -60.55 | X-H torsion
[ 11005 11000 10999 10996 ] final -133.71 input  -57.11 | X-H torsion

> <Gold.Protein.ActiveResidues>
 VAL166  LYS551  ARG553  GLY616  TRP617  ASP618  TYR619  PRO620  LYS621  CYS622 
 ASP623  PHE694  ASN695  SER759  ASP760  ASP761  ALA762  ILE779  LEU786  VAL792 
 PHE793  MET794  SER795  GLU796  ALA797  LYS798  CYS799  TRP800  GLU811  SER814 

> <Gold.Protein.RotatedAtoms>
  152.5197  134.3518  159.9253 H   0  0  0  0  0  0  0  0  0  0  0  0  # atno 6907 bound_to 6896
  151.3469  133.3934  159.2684 H   0  0  0  0  0  0  0  0  0  0  0  0  # atno 6908 bound_to 6896
  150.9758  134.9141  159.7873 H   0  0  0  0  0  0  0  0  0  0  0  0  # atno 6909 bound_to 6896
  146.1727  140.4354  142.8526 H   0  0  0  0  0  0  0  0  0  0  0  0  # atno 7974 bound_to 7965
  154.9558  140.0400  157.2166 H   0  0  0  0  0  0  0  0  0  0  0  0  # atno 8008 bound_to 7997
  154.7935  140.2839  155.5952 H   0  0  0  0  0  0  0  0  0  0  0  0  # atno 8009 bound_to 7997
  156.2953  140.2569  156.2788 H   0  0  0  0  0  0  0  0  0  0  0  0  # atno 8010 bound_to 7997
  139.5360  144.6683  151.4783 H   0  0  0  0  0  0  0  0  0  0  0  0  # atno 10167 bound_to 10162
  157.2199  130.6974  149.6265 H   0  0  0  0  0  0  0  0  0  0  0  0  # atno 10718 bound_to 10713
  152.9785  135.5847  154.4409 H   0  0  0  0  0  0  0  0  0  0  0  0  # atno 10763 bound_to 10752
  154.4010  135.2769  155.2098 H   0  0  0  0  0  0  0  0  0  0  0  0  # atno 10764 bound_to 10752
  154.3929  135.6121  153.5907 H   0  0  0  0  0  0  0  0  0  0  0  0  # atno 10765 bound_to 10752
  140.9056  134.1634  157.4428 H   0  0  0  0  0  0  0  0  0  0  0  0  # atno 11005 bound_to 11000
  144.8188  140.6515  143.6366 LP  0  0  0  0  0  0  0  0  0  0  0  0  # atno 17320 bound_to 7965
  145.4295  139.1551  143.4030 LP  0  0  0  0  0  0  0  0  0  0  0  0  # atno 17321 bound_to 7965
  140.6567  143.8584  150.6843 LP  0  0  0  0  0  0  0  0  0  0  0  0  # atno 17342 bound_to 10162
  140.1966  143.3993  152.1823 LP  0  0  0  0  0  0  0  0  0  0  0  0  # atno 17343 bound_to 10162
  155.9683  130.4523  150.5769 LP  0  0  0  0  0  0  0  0  0  0  0  0  # atno 17370 bound_to 10713
  157.3586  131.0746  151.1655 LP  0  0  0  0  0  0  0  0  0  0  0  0  # atno 17371 bound_to 10713
  139.8749  134.9915  156.5554 LP  0  0  0  0  0  0  0  0  0  0  0  0  # atno 17394 bound_to 11000
  140.8175  133.8380  155.8865 LP  0  0  0  0  0  0  0  0  0  0  0  0  # atno 17395 bound_to 11000

$$$$
