AV-unprocessed.smi:1986|AV-procd|sdf|8049|dock4
  -GOLD-   2272010253D 1   1.00000     0.00000
 Structure written by MMmdl.
 47 48  0  0  0  0  0  0  0  0  3 V2000
  150.3647  133.4427  155.2721 C   0  0  0  0  0  0  0  0  0  0  0  0
  149.3074  133.2571  154.1692 C   0  0  0  0  0  0  0  0  0  0  0  0
  148.0373  134.1547  154.2796 C   0  0  2  0  0  0  0  0  0  0  0  0
  148.4484  135.5630  154.7847 C   0  0  0  0  0  0  0  0  0  0  0  0
  147.0553  133.5517  155.3305 C   0  0  0  0  0  0  0  0  0  0  0  0
  147.6852  133.3654  156.6349 N   0  0  0  0  0  0  0  0  0  0  0  0
  147.0530  133.1662  157.8027 C   0  0  0  0  0  0  0  0  0  0  0  0
  145.8292  133.2184  157.9181 O   0  0  0  0  0  0  0  0  0  0  0  0
  147.9114  132.8157  159.0295 C   0  0  0  0  0  0  0  0  0  0  0  0
  147.6639  133.6560  160.2134 N   0  0  0  0  0  0  0  0  0  0  0  0
  147.8048  135.0884  159.9599 N   0  5  0  0  0  0  0  0  0  0  0  0
  147.7031  135.9565  161.0010 C   0  0  0  0  0  0  0  0  0  0  0  0
  147.8588  137.1684  160.8748 O   0  0  0  0  0  0  0  0  0  0  0  0
  147.3682  135.4191  162.3092 C   0  0  0  0  0  0  0  0  0  0  0  0
  147.1733  134.0989  162.4984 C   0  0  0  0  0  0  0  0  0  0  0  0
  147.3065  133.1284  161.4186 C   0  0  0  0  0  0  0  0  0  0  0  0
  147.1173  131.9233  161.5810 O   0  0  0  0  0  0  0  0  0  0  0  0
  147.3387  134.2741  152.9448 N   0  3  0  0  0  0  0  0  0  0  0  0
  147.0718  133.0011  152.2176 C   0  0  0  0  0  0  0  0  0  0  0  0
  146.5391  133.2928  150.8046 C   0  0  0  0  0  0  0  0  0  0  0  0
  145.3623  134.0848  150.8850 O   0  0  0  0  0  0  0  0  0  0  0  0
  145.6145  135.3401  151.5000 C   0  0  0  0  0  0  0  0  0  0  0  0
  146.1106  135.1186  152.9370 C   0  0  0  0  0  0  0  0  0  0  0  0
  151.1986  132.7584  155.1152 H   0  0  0  0  0  0  0  0  0  0  0  0
  149.9615  133.2350  156.2627 H   0  0  0  0  0  0  0  0  0  0  0  0
  150.7766  134.4516  155.2772 H   0  0  0  0  0  0  0  0  0  0  0  0
  149.7974  133.4254  153.2104 H   0  0  0  0  0  0  0  0  0  0  0  0
  149.0219  132.2056  154.1767 H   0  0  0  0  0  0  0  0  0  0  0  0
  148.7252  135.5502  155.8393 H   0  0  0  0  0  0  0  0  0  0  0  0
  147.6339  136.2812  154.6833 H   0  0  0  0  0  0  0  0  0  0  0  0
  149.3090  135.9580  154.2445 H   0  0  0  0  0  0  0  0  0  0  0  0
  146.1965  134.2067  155.4753 H   0  0  0  0  0  0  0  0  0  0  0  0
  146.6311  132.6107  154.9776 H   0  0  0  0  0  0  0  0  0  0  0  0
  148.6940  133.3132  156.6491 H   0  0  0  0  0  0  0  0  0  0  0  0
  147.7630  131.7608  159.2657 H   0  0  0  0  0  0  0  0  0  0  0  0
  148.9610  132.8987  158.7419 H   0  0  0  0  0  0  0  0  0  0  0  0
  147.2650  136.0941  163.1462 H   0  0  0  0  0  0  0  0  0  0  0  0
  146.9209  133.7441  163.4867 H   0  0  0  0  0  0  0  0  0  0  0  0
  147.9741  132.4029  152.1046 H   0  0  0  0  0  0  0  0  0  0  0  0
  146.3497  132.3968  152.7668 H   0  0  0  0  0  0  0  0  0  0  0  0
  147.2947  133.7984  150.2025 H   0  0  0  0  0  0  0  0  0  0  0  0
  146.3008  132.3598  150.2938 H   0  0  0  0  0  0  0  0  0  0  0  0
  146.3402  135.9102  150.9212 H   0  0  0  0  0  0  0  0  0  0  0  0
  144.6913  135.9196  151.5073 H   0  0  0  0  0  0  0  0  0  0  0  0
  145.3181  134.6391  153.5118 H   0  0  0  0  0  0  0  0  0  0  0  0
  146.2943  136.0913  153.3897 H   0  0  0  0  0  0  0  0  0  0  0  0
  148.0022  134.7652  152.3607 H   0  0  0  0  0  0  0  0  0  0  0  0
  1  2  1  0  0  0  0
  1 24  1  0  0  0  0
  1 25  1  0  0  0  0
  1 26  1  0  0  0  0
  2  3  1  0  0  0  0
  2 27  1  0  0  0  0
  2 28  1  0  0  0  0
  3  4  1  0  0  0  0
  3  5  1  0  0  0  0
  3 18  1  0  0  0  0
  4 29  1  0  0  0  0
  4 30  1  0  0  0  0
  4 31  1  0  0  0  0
  5  6  1  0  0  0  0
  5 32  1  0  0  0  0
  5 33  1  0  0  0  0
  6  7  1  0  0  0  0
  6 34  1  0  0  0  0
  7  8  2  0  0  0  0
  7  9  1  0  0  0  0
  9 35  1  0  0  0  0
  9 36  1  0  0  0  0
  9 10  1  0  0  0  0
 10 11  1  0  0  0  0
 10 16  1  0  0  0  0
 11 12  1  0  0  0  0
 12 13  2  0  0  0  0
 12 14  1  0  0  0  0
 14 37  1  0  0  0  0
 14 15  2  0  0  0  0
 15 38  1  0  0  0  0
 15 16  1  0  0  0  0
 16 17  2  0  0  0  0
 18 23  1  0  0  0  0
 18 19  1  0  0  0  0
 18 47  1  0  0  0  0
 19 20  1  0  0  0  0
 19 39  1  0  0  0  0
 19 40  1  0  0  0  0
 20 21  1  0  0  0  0
 20 41  1  0  0  0  0
 20 42  1  0  0  0  0
 21 22  1  0  0  0  0
 22 23  1  0  0  0  0
 22 43  1  0  0  0  0
 22 44  1  0  0  0  0
 23 45  1  0  0  0  0
 23 46  1  0  0  0  0
M  CHG  1  11  -1
M  CHG  1  18   1
M  END
> <s_m_source_file>
AV-unprocessed.smi

> <i_m_source_file_index>
1986

> <i_lp_mmshare_version>
43012

> <i_f3d_flags>
0

> <s_epik_input>
W0NIMl0xW0NIMl1PW0NIMl1bQ0gyXU4xW0NAQF0oW0NIM10pKFtDSDJdW0NIM10pW0NIMl1bTkhdQyg9TylbQ0gyXW4yW25IXWMoPU8pW2NIXVtjSF1jMj1P

> <s_epik_cmdline>
J2VwaWtfcHl0aG9uJywgJy1waCcsICc3LjAnLCAnLXRuJywgJzgnLCAnLW1hJywgJzIwMCcsICctbWV0YWxfYmluZGluZycsICctaW1hZScsICc8aW5maWxlLm1hZT4nLCAnLW9tYWUnLCAnPG91dGZpbGUubWFlPic=

> <r_lp_tautomer_probability>
1

> <r_epik_Ionization_Penalty>
0.604767

> <r_epik_Ionization_Penalty_Charging>
0.604766

> <r_epik_Ionization_Penalty_Neutral>
8.70177e-08

> <r_epik_State_Penalty>
0.54579

> <r_epik_Charging_Adjusted_Penalty>
1.15056

> <i_epik_Tot_Q>
0

> <i_epik_Tot_abs_Q>
2

> <r_epik_Metal_State_Penalty>
0.54579

> <b_epik_Metal_Only>
0

> <s_lp_Force_Field>
OPLS_2005

> <r_lp_Energy>
38.6352

> <b_lp_Chiralities_Consistent>
1

> <s_lp_Variant>
AV-unprocessed.smi:1986-4

> <Gold.Version>
5.8.1

> <Gold.Id.Protein>
6NUR|6NUR_protein|mol2

> <Gold.PLP.Fitness>
44.6063

> <Gold.PLP.PLP>
-34.2354

> <Gold.PLP.part.hbond>
-3.0000

> <Gold.PLP.part.metal>
0.0000

> <Gold.PLP.part.buried>
-2.9625

> <Gold.PLP.part.nonpolar>
-27.7685

> <Gold.PLP.part.repulsive>
0.1805

> <Gold.PLP.ligand.clash>
0.0000

> <Gold.PLP.ligand.torsion>
0.5786

> <Gold.PLP.Chemscore.Hbond>
3.7760

> <Gold.PLP.Chemscore.CHOScore>
0.0000

> <Gold.PLP.Chemscore.Metal>
0.0000

> <Gold.Chemscore.Hbonds>
donor molecule, donor type, donor heavy atom, donor atom, acceptor molecule, acceptor atom, score
      L1  H    18    47       P1  7948  2.00
      P1  H  6931  6943       L1    13  0.90
      P1  H  6934  6947       L1    13  0.83

> <Gold.PLP.Chemscore.Internal.Correction>
0.2001

> <Gold.Rescore>
     Score         DG    S(hbond)    S(metal)    S(lipo)     H(rot)  DE(clash)    DE(int)     intcor
     14.63     -15.39       2.74        0.00      61.09       2.50       0.01       0.76       ----

> <Gold.Chemscore.Fitness>
14.6287

> <Gold.Chemscore.DG>
-15.3927

> <Gold.Chemscore.ZeroCoef>
-5.4800

> <Gold.Chemscore.Hbond>
2.7419

> <Gold.Chemscore.Metal>
0.0000

> <Gold.Chemscore.Lipo>
61.0924

> <Gold.Chemscore.Internal_Hbond>
0.0000

> <Gold.Chemscore.DEClash>
0.0057

> <Gold.Chemscore.DEInternal>
0.7583

> <Gold.Chemscore.Rot>
2.4973

> <Gold.Chemscore.Internal.Correction>
   9.000000E+99

> <Gold.Chemscore.Hbonds>
donor molecule, donor type, donor heavy atom, donor atom, acceptor molecule, acceptor atom, score
      L1  H    18    47       P1  7948  0.59
      P1  H  6931  6943       L1    13  0.86
      P1  H  6934  6947       L1    13  0.80

> <Gold.Chemscore.Hbond.Weighted>
-9.1579

> <Gold.Chemscore.Metal.Weighted>
-0.0000

> <Gold.Chemscore.Lipo.Weighted>
-7.1478

> <Gold.Chemscore.Internal_Hbond.Weighted>
0.0000

> <Gold.Chemscore.DEClash.Weighted>
0.0057

> <Gold.Chemscore.DEInternal.Weighted>
0.7583

> <Gold.Chemscore.Rot.Weighted>
6.3930

> <Gold.Chemscore.Internal.Correction.Weighted>
   9.000000E+99

> <Gold.Protein.RotatedTorsions>
[ 6907 6896 6895 6894 ] final -170.62 input  -60.11 | X-H torsion
[ 7974 7965 7964 7962 ] final -109.98 input  175.53 | X-H torsion
[ 8008 7997 7996 7995 ] final  142.48 input   59.86 | X-H torsion
[ 10167 10162 10161 10158 ] final  -51.33 input  -65.29 | X-H torsion
[ 10718 10713 10712 10709 ] final   19.38 input   66.30 | X-H torsion
[ 10763 10752 10751 10750 ] final  -84.13 input  -60.55 | X-H torsion
[ 11005 11000 10999 10996 ] final   56.05 input  -57.11 | X-H torsion

> <Gold.Protein.ActiveResidues>
 VAL166  LYS551  ARG553  GLY616  TRP617  ASP618  TYR619  PRO620  LYS621  CYS622 
 ASP623  PHE694  ASN695  SER759  ASP760  ASP761  ALA762  ILE779  LEU786  VAL792 
 PHE793  MET794  SER795  GLU796  ALA797  LYS798  CYS799  TRP800  GLU811  SER814 

> <Gold.Protein.RotatedAtoms>
  151.5106  133.3485  159.2884 H   0  0  0  0  0  0  0  0  0  0  0  0  # atno 6907 bound_to 6896
  150.8714  134.8091  159.7169 H   0  0  0  0  0  0  0  0  0  0  0  0  # atno 6908 bound_to 6896
  152.4701  134.4991  159.9771 H   0  0  0  0  0  0  0  0  0  0  0  0  # atno 6909 bound_to 6896
  145.1738  140.8938  143.3520 H   0  0  0  0  0  0  0  0  0  0  0  0  # atno 7974 bound_to 7965
  156.2948  140.2287  156.4735 H   0  0  0  0  0  0  0  0  0  0  0  0  # atno 8008 bound_to 7997
  154.7915  140.0454  157.1225 H   0  0  0  0  0  0  0  0  0  0  0  0  # atno 8009 bound_to 7997
  154.9640  140.3058  155.5021 H   0  0  0  0  0  0  0  0  0  0  0  0  # atno 8010 bound_to 7997
  140.6594  143.2624  151.4488 H   0  0  0  0  0  0  0  0  0  0  0  0  # atno 10167 bound_to 10162
  157.1097  130.6503  149.5894 H   0  0  0  0  0  0  0  0  0  0  0  0  # atno 10718 bound_to 10713
  154.5959  135.5531  153.7325 H   0  0  0  0  0  0  0  0  0  0  0  0  # atno 10763 bound_to 10752
  153.0135  135.6354  154.1784 H   0  0  0  0  0  0  0  0  0  0  0  0  # atno 10764 bound_to 10752
  154.1724  135.2891  155.3057 H   0  0  0  0  0  0  0  0  0  0  0  0  # atno 10765 bound_to 10752
  140.0559  134.5671  155.9208 H   0  0  0  0  0  0  0  0  0  0  0  0  # atno 11005 bound_to 11000
  145.0205  139.3428  143.6074 LP  0  0  0  0  0  0  0  0  0  0  0  0  # atno 17320 bound_to 7965
  146.3464  139.9504  142.8729 LP  0  0  0  0  0  0  0  0  0  0  0  0  # atno 17321 bound_to 7965
  139.5824  144.1681  152.1985 LP  0  0  0  0  0  0  0  0  0  0  0  0  # atno 17342 bound_to 10162
  140.1010  144.5539  150.6989 LP  0  0  0  0  0  0  0  0  0  0  0  0  # atno 17343 bound_to 10162
  155.9853  130.4883  150.7027 LP  0  0  0  0  0  0  0  0  0  0  0  0  # atno 17370 bound_to 10713
  157.4570  131.0879  151.0786 LP  0  0  0  0  0  0  0  0  0  0  0  0  # atno 17371 bound_to 10713
  141.1951  133.6586  156.5629 LP  0  0  0  0  0  0  0  0  0  0  0  0  # atno 17394 bound_to 11000
  140.3845  134.7494  157.4682 LP  0  0  0  0  0  0  0  0  0  0  0  0  # atno 17395 bound_to 11000

$$$$
