AV-unprocessed.smi:2924|AV-procd|sdf|11220|dock2
  -GOLD-   2272016113D 1   1.00000     0.00000
 Structure written by MMmdl.
 29 31  0  0  0  0  0  0  0  0  1 V2000
  154.0386  140.6343  160.4836 N   0  0  0  0  0  0  0  0  0  0  0  0
  153.3775  141.4565  160.0085 C   0  0  0  0  0  0  0  0  0  0  0  0
  152.5451  142.4933  159.4105 C   0  0  0  0  0  0  0  0  0  0  0  0
  152.5142  143.7726  160.0045 C   0  0  0  0  0  0  0  0  0  0  0  0
  151.7164  144.7777  159.4281 C   0  0  0  0  0  0  0  0  0  0  0  0
  150.9766  144.4606  158.2745 C   0  0  0  0  0  0  0  0  0  0  0  0
  150.9959  143.2412  157.6973 N   0  0  0  0  0  0  0  0  0  0  0  0
  151.7641  142.2679  158.2452 C   0  0  0  0  0  0  0  0  0  0  0  0
  151.7622  141.0062  157.6229 N   0  0  0  0  0  0  0  0  0  0  0  0
  151.6363  140.8748  156.1744 C   0  0  2  0  0  0  0  0  0  0  0  0
  150.3087  141.4172  155.6395 C   0  0  0  0  0  0  0  0  0  0  0  0
  149.7753  140.2180  154.8433 C   0  0  2  0  0  0  0  0  0  0  0  0
  149.2440  139.1173  155.7705 C   0  0  0  0  0  0  0  0  0  0  0  0
  150.5381  138.5449  156.3453 C   0  0  0  0  0  0  0  0  0  0  0  0
  151.6042  139.4199  155.6637 C   0  0  1  0  0  0  0  0  0  0  0  0
  150.9856  139.6240  154.4043 O   0  0  0  0  0  0  0  0  0  0  0  0
  153.0940  143.9871  160.8909 H   0  0  0  0  0  0  0  0  0  0  0  0
  151.6727  145.7671  159.8592 H   0  0  0  0  0  0  0  0  0  0  0  0
  150.3524  145.2050  157.8025 H   0  0  0  0  0  0  0  0  0  0  0  0
  152.1220  140.2148  158.1368 H   0  0  0  0  0  0  0  0  0  0  0  0
  152.4506  141.4146  155.6888 H   0  0  0  0  0  0  0  0  0  0  0  0
  149.6133  141.7303  156.4195 H   0  0  0  0  0  0  0  0  0  0  0  0
  150.4873  142.2710  154.9851 H   0  0  0  0  0  0  0  0  0  0  0  0
  149.0890  140.4893  154.0408 H   0  0  0  0  0  0  0  0  0  0  0  0
  148.5748  139.5071  156.5383 H   0  0  0  0  0  0  0  0  0  0  0  0
  148.7080  138.3555  155.2033 H   0  0  0  0  0  0  0  0  0  0  0  0
  150.5780  138.5896  157.4338 H   0  0  0  0  0  0  0  0  0  0  0  0
  150.6536  137.5018  156.0487 H   0  0  0  0  0  0  0  0  0  0  0  0
  152.5858  138.9490  155.6035 H   0  0  0  0  0  0  0  0  0  0  0  0
  1  2  3  0  0  0  0
  2  3  1  0  0  0  0
  3  8  1  0  0  0  0
  3  4  2  0  0  0  0
  4  5  1  0  0  0  0
  4 17  1  0  0  0  0
  5  6  2  0  0  0  0
  5 18  1  0  0  0  0
  6  7  1  0  0  0  0
  6 19  1  0  0  0  0
  7  8  2  0  0  0  0
  8  9  1  0  0  0  0
  9 10  1  0  0  0  0
  9 20  1  0  0  0  0
 10 15  1  0  0  0  0
 10 11  1  0  0  0  0
 10 21  1  0  0  0  0
 11 12  1  0  0  0  0
 11 22  1  0  0  0  0
 11 23  1  0  0  0  0
 12 16  1  0  0  0  0
 12 13  1  0  0  0  0
 12 24  1  0  0  0  0
 13 14  1  0  0  0  0
 13 25  1  0  0  0  0
 13 26  1  0  0  0  0
 14 15  1  0  0  0  0
 14 27  1  0  0  0  0
 14 28  1  0  0  0  0
 15 16  1  0  0  0  0
 15 29  1  0  0  0  0
M  END
> <s_m_source_file>
AV-unprocessed.smi

> <i_m_source_file_index>
2924

> <i_lp_mmshare_version>
43012

> <i_f3d_flags>
0

> <s_epik_input>
TiNDYzFbY0hdW2NIXVtjSF1uYzFbTkhdW0NASF0oW0NIMl1bQ0BASF0yMylbQ0BASF0oTzMpW0NIMl1bQ0gyXTI=

> <s_epik_cmdline>
J2VwaWtfcHl0aG9uJywgJy1waCcsICc3LjAnLCAnLXRuJywgJzgnLCAnLW1hJywgJzIwMCcsICctbWV0YWxfYmluZGluZycsICctaW1hZScsICc8aW5maWxlLm1hZT4nLCAnLW9tYWUnLCAnPG91dGZpbGUubWFlPic=

> <r_lp_tautomer_probability>
1

> <r_epik_Ionization_Penalty>
2.11559e-05

> <r_epik_Ionization_Penalty_Charging>
0

> <r_epik_Ionization_Penalty_Neutral>
2.11559e-05

> <r_epik_State_Penalty>
-0

> <r_epik_Charging_Adjusted_Penalty>
0

> <i_epik_Tot_Q>
0

> <i_epik_Tot_abs_Q>
0

> <r_epik_Metal_State_Penalty>
-0

> <b_epik_Metal_Only>
0

> <s_lp_Force_Field>
OPLS_2005

> <r_lp_Energy>
42.6424

> <b_lp_Chiralities_Consistent>
1

> <s_lp_Variant>
AV-unprocessed.smi:2924-3

> <Gold.Version>
5.8.1

> <Gold.Id.Protein>
6NUR|6NUR_protein|mol2

> <Gold.PLP.Fitness>
38.3974

> <Gold.PLP.PLP>
-33.1935

> <Gold.PLP.part.hbond>
-1.0000

> <Gold.PLP.part.metal>
0.0000

> <Gold.PLP.part.buried>
-5.2806

> <Gold.PLP.part.nonpolar>
-27.2642

> <Gold.PLP.part.repulsive>
0.3404

> <Gold.PLP.ligand.clash>
0.0000

> <Gold.PLP.ligand.torsion>
0.2390

> <Gold.PLP.Chemscore.Hbond>
1.0000

> <Gold.PLP.Chemscore.CHOScore>
0.8906

> <Gold.PLP.Chemscore.Metal>
0.0000

> <Gold.Chemscore.Hbonds>
donor molecule, donor type, donor heavy atom, donor atom, acceptor molecule, acceptor atom, score
      P1  H  7989  7998       L1    16  1.00
      L1  C     6    19       P1  8028  0.38
      L1  C     6    19       P1  8029  0.41

> <Gold.PLP.Chemscore.Internal.Correction>
0.0099

> <Gold.Rescore>
     Score         DG    S(hbond)    S(metal)    S(lipo)     H(rot)  DE(clash)    DE(int)     intcor
     13.96     -15.35       0.85        0.00      81.89       1.00       0.01       1.38       ----

> <Gold.Chemscore.Fitness>
13.9584

> <Gold.Chemscore.DG>
-15.3476

> <Gold.Chemscore.ZeroCoef>
-5.4800

> <Gold.Chemscore.Hbond>
0.8521

> <Gold.Chemscore.Metal>
0.0000

> <Gold.Chemscore.Lipo>
81.8941

> <Gold.Chemscore.Internal_Hbond>
0.0000

> <Gold.Chemscore.DEClash>
0.0088

> <Gold.Chemscore.DEInternal>
1.3804

> <Gold.Chemscore.Rot>
1.0000

> <Gold.Chemscore.Internal.Correction>
   9.000000E+99

> <Gold.Chemscore.Hbonds>
donor molecule, donor type, donor heavy atom, donor atom, acceptor molecule, acceptor atom, score
      P1  H  7989  7998       L1    16  0.27

> <Gold.Chemscore.Hbond.Weighted>
-2.8460

> <Gold.Chemscore.Metal.Weighted>
-0.0000

> <Gold.Chemscore.Lipo.Weighted>
-9.5816

> <Gold.Chemscore.Internal_Hbond.Weighted>
0.0000

> <Gold.Chemscore.DEClash.Weighted>
0.0088

> <Gold.Chemscore.DEInternal.Weighted>
1.3804

> <Gold.Chemscore.Rot.Weighted>
2.5600

> <Gold.Chemscore.Internal.Correction.Weighted>
   9.000000E+99

> <Gold.Protein.RotatedTorsions>
[ 6907 6896 6895 6894 ] final   83.91 input  -60.11 | X-H torsion
[ 7974 7965 7964 7962 ] final  131.00 input  175.53 | X-H torsion
[ 8008 7997 7996 7995 ] final  115.02 input   59.86 | X-H torsion
[ 10167 10162 10161 10158 ] final   19.31 input  -65.29 | X-H torsion
[ 10718 10713 10712 10709 ] final   -1.38 input   66.30 | X-H torsion
[ 10763 10752 10751 10750 ] final -164.68 input  -60.55 | X-H torsion
[ 11005 11000 10999 10996 ] final    8.67 input  -57.11 | X-H torsion

> <Gold.Protein.ActiveResidues>
 VAL166  LYS551  ARG553  GLY616  TRP617  ASP618  TYR619  PRO620  LYS621  CYS622 
 ASP623  PHE694  ASN695  SER759  ASP760  ASP761  ALA762  ILE779  LEU786  VAL792 
 PHE793  MET794  SER795  GLU796  ALA797  LYS798  CYS799  TRP800  GLU811  SER814 

> <Gold.Protein.RotatedAtoms>
  152.5339  134.2823  159.9011 H   0  0  0  0  0  0  0  0  0  0  0  0  # atno 6907 bound_to 6896
  151.2777  133.4218  159.2632 H   0  0  0  0  0  0  0  0  0  0  0  0  # atno 6908 bound_to 6896
  151.0311  134.9555  159.8168 H   0  0  0  0  0  0  0  0  0  0  0  0  # atno 6909 bound_to 6896
  145.0119  139.4212  143.5240 H   0  0  0  0  0  0  0  0  0  0  0  0  # atno 7974 bound_to 7965
  156.2356  140.2947  156.0305 H   0  0  0  0  0  0  0  0  0  0  0  0  # atno 8008 bound_to 7997
  155.2100  140.0412  157.2949 H   0  0  0  0  0  0  0  0  0  0  0  0  # atno 8009 bound_to 7997
  154.6074  140.2443  155.7721 H   0  0  0  0  0  0  0  0  0  0  0  0  # atno 8010 bound_to 7997
  140.5588  143.9375  150.6628 H   0  0  0  0  0  0  0  0  0  0  0  0  # atno 10167 bound_to 10162
  156.8065  130.5410  149.5714 H   0  0  0  0  0  0  0  0  0  0  0  0  # atno 10718 bound_to 10713
  154.7005  135.2987  154.9348 H   0  0  0  0  0  0  0  0  0  0  0  0  # atno 10763 bound_to 10752
  154.0282  135.6673  153.4782 H   0  0  0  0  0  0  0  0  0  0  0  0  # atno 10764 bound_to 10752
  153.0677  135.5078  154.8146 H   0  0  0  0  0  0  0  0  0  0  0  0  # atno 10765 bound_to 10752
  140.5344  134.0435  155.7884 H   0  0  0  0  0  0  0  0  0  0  0  0  # atno 11005 bound_to 11000
  146.3471  139.9568  142.8722 LP  0  0  0  0  0  0  0  0  0  0  0  0  # atno 17320 bound_to 7965
  145.2011  140.9855  143.4155 LP  0  0  0  0  0  0  0  0  0  0  0  0  # atno 17321 bound_to 7965
  140.2820  143.3383  152.1142 LP  0  0  0  0  0  0  0  0  0  0  0  0  # atno 17342 bound_to 10162
  139.5060  144.6806  151.6018 LP  0  0  0  0  0  0  0  0  0  0  0  0  # atno 17343 bound_to 10162
  156.1070  130.6011  150.9986 LP  0  0  0  0  0  0  0  0  0  0  0  0  # atno 17370 bound_to 10713
  157.6527  131.0894  150.8015 LP  0  0  0  0  0  0  0  0  0  0  0  0  # atno 17371 bound_to 10713
  141.1263  133.9378  157.2628 LP  0  0  0  0  0  0  0  0  0  0  0  0  # atno 17394 bound_to 11000
  139.9537  135.0170  156.9067 LP  0  0  0  0  0  0  0  0  0  0  0  0  # atno 17395 bound_to 11000

$$$$
