AV-unprocessed.smi:2061|AV-procd|sdf|8380|dock1
  -GOLD-   2272011 53D 1   1.00000     0.00000
 Structure written by MMmdl.
 45 46  0  0  0  0  0  0  0  0  3 V2000
  148.7682  141.2324  155.3984 C   0  0  0  0  0  0  0  0  0  0  0  0
  149.6310  140.0262  155.2469 C   0  0  0  0  0  0  0  0  0  0  0  0
  149.3566  138.6886  155.2077 C   0  0  0  0  0  0  0  0  0  0  0  0
  150.6386  138.0992  155.0340 C   0  0  0  0  0  0  0  0  0  0  0  0
  150.8947  136.7847  154.9447 N   0  5  0  0  0  0  0  0  0  0  0  0
  150.0475  135.8876  155.4983 C   0  0  0  0  0  0  0  0  0  0  0  0
  150.2453  135.2271  156.5209 O   0  0  0  0  0  0  0  0  0  0  0  0
  148.9010  135.7388  154.8195 N   0  0  0  0  0  0  0  0  0  0  0  0
  147.8191  134.8218  155.1670 C   0  0  0  0  0  0  0  0  0  0  0  0
  147.7426  133.5869  154.2279 C   0  0  2  0  0  0  0  0  0  0  0  0
  149.1284  132.9010  154.1413 C   0  0  0  0  0  0  0  0  0  0  0  0
  147.1884  133.9738  152.8886 N   0  3  1  0  0  0  0  0  0  0  0  0
  147.1334  132.8755  151.8841 C   0  0  0  0  0  0  0  0  0  0  0  0
  146.5792  133.3741  150.5356 C   0  0  1  0  0  0  0  0  0  0  0  0
  146.4282  132.2369  149.5188 C   0  0  0  0  0  0  0  0  0  0  0  0
  145.2987  133.9565  150.7358 O   0  0  0  0  0  0  0  0  0  0  0  0
  145.3520  135.0803  151.6033 C   0  0  1  0  0  0  0  0  0  0  0  0
  143.9501  135.6969  151.6688 C   0  0  0  0  0  0  0  0  0  0  0  0
  145.8500  134.6188  152.9853 C   0  0  0  0  0  0  0  0  0  0  0  0
  151.6077  138.9984  154.9922 N   0  0  0  0  0  0  0  0  0  0  0  0
  150.9690  140.2376  155.1208 O   0  0  0  0  0  0  0  0  0  0  0  0
  148.4627  141.3589  156.4368 H   0  0  0  0  0  0  0  0  0  0  0  0
  147.8691  141.1428  154.7888 H   0  0  0  0  0  0  0  0  0  0  0  0
  149.2964  142.1344  155.0884 H   0  0  0  0  0  0  0  0  0  0  0  0
  148.3929  138.2078  155.2851 H   0  0  0  0  0  0  0  0  0  0  0  0
  148.7768  136.3027  153.9912 H   0  0  0  0  0  0  0  0  0  0  0  0
  147.9500  134.5422  156.2112 H   0  0  0  0  0  0  0  0  0  0  0  0
  146.8829  135.3786  155.1198 H   0  0  0  0  0  0  0  0  0  0  0  0
  147.0580  132.8559  154.6607 H   0  0  0  0  0  0  0  0  0  0  0  0
  149.5279  132.6674  155.1278 H   0  0  0  0  0  0  0  0  0  0  0  0
  149.8572  133.5367  153.6371 H   0  0  0  0  0  0  0  0  0  0  0  0
  149.0814  131.9477  153.6153 H   0  0  0  0  0  0  0  0  0  0  0  0
  148.1284  132.4738  151.6957 H   0  0  0  0  0  0  0  0  0  0  0  0
  146.5177  132.0614  152.2707 H   0  0  0  0  0  0  0  0  0  0  0  0
  147.2528  134.1241  150.1169 H   0  0  0  0  0  0  0  0  0  0  0  0
  147.3879  131.7611  149.3155 H   0  0  0  0  0  0  0  0  0  0  0  0
  146.0355  132.6100  148.5725 H   0  0  0  0  0  0  0  0  0  0  0  0
  145.7445  131.4692  149.8828 H   0  0  0  0  0  0  0  0  0  0  0  0
  146.0376  135.8237  151.1926 H   0  0  0  0  0  0  0  0  0  0  0  0
  143.9363  136.5748  152.3152 H   0  0  0  0  0  0  0  0  0  0  0  0
  143.2225  134.9836  152.0571 H   0  0  0  0  0  0  0  0  0  0  0  0
  143.6148  136.0088  150.6794 H   0  0  0  0  0  0  0  0  0  0  0  0
  145.1399  133.9141  153.4215 H   0  0  0  0  0  0  0  0  0  0  0  0
  145.8763  135.4846  153.6435 H   0  0  0  0  0  0  0  0  0  0  0  0
  147.8217  134.6637  152.5107 H   0  0  0  0  0  0  0  0  0  0  0  0
  1  2  1  0  0  0  0
  1 22  1  0  0  0  0
  1 23  1  0  0  0  0
  1 24  1  0  0  0  0
  2 21  1  0  0  0  0
  2  3  2  0  0  0  0
  3  4  1  0  0  0  0
  3 25  1  0  0  0  0
  4  5  1  0  0  0  0
  4 20  2  0  0  0  0
  5  6  1  0  0  0  0
  6  7  2  0  0  0  0
  6  8  1  0  0  0  0
  8  9  1  0  0  0  0
  8 26  1  0  0  0  0
  9 10  1  0  0  0  0
  9 27  1  0  0  0  0
  9 28  1  0  0  0  0
 10 11  1  0  0  0  0
 10 12  1  0  0  0  0
 10 29  1  0  0  0  0
 11 30  1  0  0  0  0
 11 31  1  0  0  0  0
 11 32  1  0  0  0  0
 12 19  1  0  0  0  0
 12 13  1  0  0  0  0
 12 45  1  0  0  0  0
 13 14  1  0  0  0  0
 13 33  1  0  0  0  0
 13 34  1  0  0  0  0
 14 15  1  0  0  0  0
 14 16  1  0  0  0  0
 14 35  1  0  0  0  0
 15 36  1  0  0  0  0
 15 37  1  0  0  0  0
 15 38  1  0  0  0  0
 16 17  1  0  0  0  0
 17 18  1  0  0  0  0
 17 19  1  0  0  0  0
 17 39  1  0  0  0  0
 18 40  1  0  0  0  0
 18 41  1  0  0  0  0
 18 42  1  0  0  0  0
 19 43  1  0  0  0  0
 19 44  1  0  0  0  0
 20 21  1  0  0  0  0
M  CHG  1   5  -1
M  CHG  1  12   1
M  END
> <s_m_source_file>
AV-unprocessed.smi

> <i_m_source_file_index>
2061

> <i_lp_mmshare_version>
43012

> <i_f3d_flags>
0

> <s_epik_input>
W0NIM11jMVtjSF1jKG5vMSlbTkhdQyg9TylbTkhdW0NIMl1bQ0BIXShbQ0gzXSlOMltDSDJdW0NAQEhdKFtDSDNdKU9bQ0BASF0oW0NIM10pW0NIMl0y

> <s_epik_cmdline>
J2VwaWtfcHl0aG9uJywgJy1waCcsICc3LjAnLCAnLXRuJywgJzgnLCAnLW1hJywgJzIwMCcsICctbWV0YWxfYmluZGluZycsICctaW1hZScsICc8aW5maWxlLm1hZT4nLCAnLW9tYWUnLCAnPG91dGZpbGUubWFlPic=

> <r_epik_Ionization_Penalty>
6.73511

> <r_epik_Ionization_Penalty_Charging>
6.73502

> <r_epik_Ionization_Penalty_Neutral>
9.50841e-05

> <r_epik_State_Penalty>
6.93549

> <r_epik_Charging_Adjusted_Penalty>
13.6705

> <i_epik_Tot_Q>
0

> <i_epik_Tot_abs_Q>
2

> <r_epik_Metal_State_Penalty>
2.87211

> <b_epik_Metal_Only>
1

> <s_lp_Force_Field>
OPLS_2005

> <r_lp_Energy>
7.84015

> <b_lp_Chiralities_Consistent>
1

> <s_lp_Variant>
AV-unprocessed.smi:2061-21

> <Gold.Version>
5.8.1

> <Gold.Id.Protein>
6NUR|6NUR_protein|mol2

> <Gold.PLP.Fitness>
50.5199

> <Gold.PLP.PLP>
-35.0126

> <Gold.PLP.part.hbond>
-3.9225

> <Gold.PLP.part.metal>
0.0000

> <Gold.PLP.part.buried>
-3.7097

> <Gold.PLP.part.nonpolar>
-27.6565

> <Gold.PLP.part.repulsive>
0.4765

> <Gold.PLP.ligand.clash>
0.0000

> <Gold.PLP.ligand.torsion>
0.9929

> <Gold.PLP.Chemscore.Hbond>
5.7420

> <Gold.PLP.Chemscore.CHOScore>
0.0000

> <Gold.PLP.Chemscore.Metal>
0.0000

> <Gold.Chemscore.Hbonds>
donor molecule, donor type, donor heavy atom, donor atom, acceptor molecule, acceptor atom, score
      L1  H     8    26       P1  7948  0.64
      L1  H    12    45       P1  7948  2.00
      P1  H  7989  7998       L1    21  0.70
      P1  H 10752 10764       L1     5  0.23

> <Gold.PLP.Chemscore.Internal.Correction>
0.2670

> <Gold.Rescore>
     Score         DG    S(hbond)    S(metal)    S(lipo)     H(rot)  DE(clash)    DE(int)     intcor
     17.51     -19.94       3.07        0.00      69.99       1.56       0.43       2.00       ----

> <Gold.Chemscore.Fitness>
17.5057

> <Gold.Chemscore.DG>
-19.9353

> <Gold.Chemscore.ZeroCoef>
-5.4800

> <Gold.Chemscore.Hbond>
3.0682

> <Gold.Chemscore.Metal>
0.0000

> <Gold.Chemscore.Lipo>
69.9861

> <Gold.Chemscore.Internal_Hbond>
0.0000

> <Gold.Chemscore.DEClash>
0.4272

> <Gold.Chemscore.DEInternal>
2.0024

> <Gold.Chemscore.Rot>
1.5550

> <Gold.Chemscore.Internal.Correction>
   9.000000E+99

> <Gold.Chemscore.Hbonds>
donor molecule, donor type, donor heavy atom, donor atom, acceptor molecule, acceptor atom, score
      L1  H     8    26       P1  7948  0.61
      L1  H    12    45       P1  7948  0.71
      P1  H  7989  7998       L1    21  0.07
      P1  H 10752 10764       L1     5  0.08

> <Gold.Chemscore.Hbond.Weighted>
-10.2478

> <Gold.Chemscore.Metal.Weighted>
-0.0000

> <Gold.Chemscore.Lipo.Weighted>
-8.1884

> <Gold.Chemscore.Internal_Hbond.Weighted>
0.0000

> <Gold.Chemscore.DEClash.Weighted>
0.4272

> <Gold.Chemscore.DEInternal.Weighted>
2.0024

> <Gold.Chemscore.Rot.Weighted>
3.9809

> <Gold.Chemscore.Internal.Correction.Weighted>
   9.000000E+99

> <Gold.Protein.RotatedTorsions>
[ 6907 6896 6895 6894 ] final  138.27 input  -60.11 | X-H torsion
[ 7974 7965 7964 7962 ] final -170.64 input  175.53 | X-H torsion
[ 8008 7997 7996 7995 ] final   84.73 input   59.86 | X-H torsion
[ 10167 10162 10161 10158 ] final -141.02 input  -65.29 | X-H torsion
[ 10718 10713 10712 10709 ] final   86.99 input   66.30 | X-H torsion
[ 10763 10752 10751 10750 ] final  -60.63 input  -60.55 | X-H torsion
[ 11005 11000 10999 10996 ] final  131.47 input  -57.11 | X-H torsion

> <Gold.Protein.ActiveResidues>
 VAL166  LYS551  ARG553  GLY616  TRP617  ASP618  TYR619  PRO620  LYS621  CYS622 
 ASP623  PHE694  ASN695  SER759  ASP760  ASP761  ALA762  ILE779  LEU786  VAL792 
 PHE793  MET794  SER795  GLU796  ALA797  LYS798  CYS799  TRP800  GLU811  SER814 

> <Gold.Protein.RotatedAtoms>
  152.2686  133.5361  159.5424 H   0  0  0  0  0  0  0  0  0  0  0  0  # atno 6907 bound_to 6896
  150.7151  134.0730  159.3880 H   0  0  0  0  0  0  0  0  0  0  0  0  # atno 6908 bound_to 6896
  151.8645  135.0512  160.0523 H   0  0  0  0  0  0  0  0  0  0  0  0  # atno 6909 bound_to 6896
  144.7167  140.2042  143.6335 H   0  0  0  0  0  0  0  0  0  0  0  0  # atno 7974 bound_to 7965
  155.9409  140.3408  155.6326 H   0  0  0  0  0  0  0  0  0  0  0  0  # atno 8008 bound_to 7997
  155.7041  140.0764  157.2416 H   0  0  0  0  0  0  0  0  0  0  0  0  # atno 8009 bound_to 7997
  154.4102  140.1634  156.2211 H   0  0  0  0  0  0  0  0  0  0  0  0  # atno 8010 bound_to 7997
  139.8225  143.7555  152.2666 H   0  0  0  0  0  0  0  0  0  0  0  0  # atno 10167 bound_to 10162
  157.6935  131.0238  150.3056 H   0  0  0  0  0  0  0  0  0  0  0  0  # atno 10718 bound_to 10713
  154.2722  135.6288  153.5314 H   0  0  0  0  0  0  0  0  0  0  0  0  # atno 10763 bound_to 10752
  152.9878  135.5613  154.5587 H   0  0  0  0  0  0  0  0  0  0  0  0  # atno 10764 bound_to 10752
  154.5160  135.2879  155.1278 H   0  0  0  0  0  0  0  0  0  0  0  0  # atno 10765 bound_to 10752
  139.9732  134.9571  156.9443 H   0  0  0  0  0  0  0  0  0  0  0  0  # atno 11005 bound_to 11000
  145.8652  139.2243  143.1693 LP  0  0  0  0  0  0  0  0  0  0  0  0  # atno 17320 bound_to 7965
  146.0136  140.8412  142.9958 LP  0  0  0  0  0  0  0  0  0  0  0  0  # atno 17321 bound_to 7965
  139.7737  144.7468  151.0187 LP  0  0  0  0  0  0  0  0  0  0  0  0  # atno 17342 bound_to 10162
  140.7812  143.4617  151.0269 LP  0  0  0  0  0  0  0  0  0  0  0  0  # atno 17343 bound_to 10162
  156.3565  130.3840  149.7286 LP  0  0  0  0  0  0  0  0  0  0  0  0  # atno 17370 bound_to 10713
  156.4746  130.8012  151.3029 LP  0  0  0  0  0  0  0  0  0  0  0  0  # atno 17371 bound_to 10713
  140.5249  134.0871  155.7301 LP  0  0  0  0  0  0  0  0  0  0  0  0  # atno 17394 bound_to 11000
  141.1411  133.9137  157.2324 LP  0  0  0  0  0  0  0  0  0  0  0  0  # atno 17395 bound_to 11000

$$$$
