AV-unprocessed.smi:249|AV-procd|sdf|1917|dock9
  -GOLD-   2262021 13D 1   1.00000     0.00000
 Structure written by MMmdl.
 64 67  0  0  0  0  0  0  0  0  2 V2000
  152.5040  142.6915  162.1530 C   0  0  0  0  0  0  0  0  0  0  0  0
  153.5535  142.5522  161.0377 C   0  0  0  0  0  0  0  0  0  0  0  0
  152.9843  142.0849  159.7402 N   0  3  1  0  0  0  0  0  0  0  0  0
  152.5281  140.6663  159.8151 C   0  0  0  0  0  0  0  0  0  0  0  0
  152.0633  140.1339  158.4529 C   0  0  0  0  0  0  0  0  0  0  0  0
  150.9340  141.0095  157.8924 C   0  0  2  0  0  0  0  0  0  0  0  0
  150.4271  140.5232  156.6018 N   0  0  0  0  0  0  0  0  0  0  0  0
  151.3432  139.9396  155.6241 C   0  0  0  0  0  0  0  0  0  0  0  0
  149.1064  140.2174  156.4614 C   0  0  0  0  0  0  0  0  0  0  0  0
  148.2517  140.4592  157.4920 N   0  0  0  0  0  0  0  0  0  0  0  0
  146.9542  140.1594  157.3880 C   0  0  0  0  0  0  0  0  0  0  0  0
  146.3032  139.6233  156.3556 N   0  0  0  0  0  0  0  0  0  0  0  0
  147.1457  139.3874  155.3108 C   0  0  0  0  0  0  0  0  0  0  0  0
  148.5464  139.6476  155.2786 C   0  0  0  0  0  0  0  0  0  0  0  0
  149.0594  139.2787  154.0393 N   0  0  0  0  0  0  0  0  0  0  0  0
  148.0288  138.8191  153.3846 C   0  0  0  0  0  0  0  0  0  0  0  0
  146.8348  138.8670  154.0665 N   0  0  0  0  0  0  0  0  0  0  0  0
  145.5400  138.4222  153.5814 C   0  0  0  0  0  0  0  0  0  0  0  0
  145.4570  136.9112  153.2241 C   0  0  2  0  0  0  0  0  0  0  0  0
  145.5166  136.7505  151.6854 C   0  0  0  0  0  0  0  0  0  0  0  0
  146.4846  137.6065  151.1140 O   0  0  0  0  0  0  0  0  0  0  0  0
  144.2004  136.2089  153.8220 C   0  0  2  0  0  0  0  0  0  0  0  0
  143.8967  134.8110  153.2782 C   0  0  0  0  0  0  0  0  0  0  0  0
  142.3691  134.7120  153.2481 C   0  0  0  0  0  0  0  0  0  0  0  0
  141.9018  135.9198  153.8259 O   0  0  0  0  0  0  0  0  0  0  0  0
  142.8684  136.9174  153.5549 C   0  0  0  0  0  0  0  0  0  0  0  0
  151.4224  142.4639  157.8167 C   0  0  0  0  0  0  0  0  0  0  0  0
  151.9121  142.9780  159.1883 C   0  0  2  0  0  0  0  0  0  0  0  0
  152.3594  144.4465  159.0312 C   0  0  0  0  0  0  0  0  0  0  0  0
  152.9917  142.8756  163.1106 H   0  0  0  0  0  0  0  0  0  0  0  0
  151.9124  141.7812  162.2561 H   0  0  0  0  0  0  0  0  0  0  0  0
  151.8234  143.5251  161.9835 H   0  0  0  0  0  0  0  0  0  0  0  0
  154.0842  143.4945  160.8946 H   0  0  0  0  0  0  0  0  0  0  0  0
  154.2839  141.8383  161.4115 H   0  0  0  0  0  0  0  0  0  0  0  0
  153.3314  140.0192  160.1625 H   0  0  0  0  0  0  0  0  0  0  0  0
  151.7201  140.5826  160.5438 H   0  0  0  0  0  0  0  0  0  0  0  0
  152.9096  140.1089  157.7659 H   0  0  0  0  0  0  0  0  0  0  0  0
  151.7242  139.1034  158.5618 H   0  0  0  0  0  0  0  0  0  0  0  0
  150.1120  141.0072  158.6096 H   0  0  0  0  0  0  0  0  0  0  0  0
  151.4579  140.6086  154.7711 H   0  0  0  0  0  0  0  0  0  0  0  0
  150.9780  138.9776  155.2621 H   0  0  0  0  0  0  0  0  0  0  0  0
  152.3325  139.7690  156.0468 H   0  0  0  0  0  0  0  0  0  0  0  0
  146.3508  140.3811  158.2560 H   0  0  0  0  0  0  0  0  0  0  0  0
  148.1100  138.4444  152.3746 H   0  0  0  0  0  0  0  0  0  0  0  0
  144.7873  138.6661  154.3322 H   0  0  0  0  0  0  0  0  0  0  0  0
  145.3068  139.0352  152.7103 H   0  0  0  0  0  0  0  0  0  0  0  0
  146.3372  136.4089  153.6276 H   0  0  0  0  0  0  0  0  0  0  0  0
  145.7984  135.7382  151.3988 H   0  0  0  0  0  0  0  0  0  0  0  0
  144.5439  136.9526  151.2358 H   0  0  0  0  0  0  0  0  0  0  0  0
  147.3427  137.3036  151.3698 H   0  0  0  0  0  0  0  0  0  0  0  0
  144.3171  136.1362  154.9047 H   0  0  0  0  0  0  0  0  0  0  0  0
  144.2881  134.6764  152.2695 H   0  0  0  0  0  0  0  0  0  0  0  0
  144.3262  134.0346  153.9108 H   0  0  0  0  0  0  0  0  0  0  0  0
  142.0091  134.6384  152.2210 H   0  0  0  0  0  0  0  0  0  0  0  0
  141.9955  133.8509  153.8028 H   0  0  0  0  0  0  0  0  0  0  0  0
  142.7127  137.7853  154.1963 H   0  0  0  0  0  0  0  0  0  0  0  0
  142.7860  137.2341  152.5136 H   0  0  0  0  0  0  0  0  0  0  0  0
  152.2314  142.5588  157.0913 H   0  0  0  0  0  0  0  0  0  0  0  0
  150.6098  143.0952  157.4542 H   0  0  0  0  0  0  0  0  0  0  0  0
  151.0687  142.9559  159.8809 H   0  0  0  0  0  0  0  0  0  0  0  0
  151.6171  145.0220  158.4770 H   0  0  0  0  0  0  0  0  0  0  0  0
  153.3024  144.5211  158.4887 H   0  0  0  0  0  0  0  0  0  0  0  0
  152.4727  144.9515  159.9897 H   0  0  0  0  0  0  0  0  0  0  0  0
  153.7420  142.1108  159.0727 H   0  0  0  0  0  0  0  0  0  0  0  0
  1  2  1  0  0  0  0
  1 30  1  0  0  0  0
  1 31  1  0  0  0  0
  1 32  1  0  0  0  0
  2  3  1  0  0  0  0
  2 33  1  0  0  0  0
  2 34  1  0  0  0  0
  3 28  1  0  0  0  0
  3  4  1  0  0  0  0
  3 64  1  0  0  0  0
  4  5  1  0  0  0  0
  4 35  1  0  0  0  0
  4 36  1  0  0  0  0
  5  6  1  0  0  0  0
  5 37  1  0  0  0  0
  5 38  1  0  0  0  0
  6  7  1  0  0  0  0
  6 27  1  0  0  0  0
  6 39  1  0  0  0  0
  7  8  1  0  0  0  0
  7  9  1  0  0  0  0
  8 40  1  0  0  0  0
  8 41  1  0  0  0  0
  8 42  1  0  0  0  0
  9 14  1  0  0  0  0
  9 10  2  0  0  0  0
 10 11  1  0  0  0  0
 11 12  2  0  0  0  0
 11 43  1  0  0  0  0
 12 13  1  0  0  0  0
 13 17  1  0  0  0  0
 13 14  2  0  0  0  0
 14 15  1  0  0  0  0
 15 16  2  0  0  0  0
 16 17  1  0  0  0  0
 16 44  1  0  0  0  0
 17 18  1  0  0  0  0
 18 19  1  0  0  0  0
 18 45  1  0  0  0  0
 18 46  1  0  0  0  0
 19 20  1  0  0  0  0
 19 22  1  0  0  0  0
 19 47  1  0  0  0  0
 20 21  1  0  0  0  0
 20 48  1  0  0  0  0
 20 49  1  0  0  0  0
 21 50  1  0  0  0  0
 22 26  1  0  0  0  0
 22 23  1  0  0  0  0
 22 51  1  0  0  0  0
 23 24  1  0  0  0  0
 23 52  1  0  0  0  0
 23 53  1  0  0  0  0
 24 25  1  0  0  0  0
 24 54  1  0  0  0  0
 24 55  1  0  0  0  0
 25 26  1  0  0  0  0
 26 56  1  0  0  0  0
 26 57  1  0  0  0  0
 27 28  1  0  0  0  0
 27 58  1  0  0  0  0
 27 59  1  0  0  0  0
 28 29  1  0  0  0  0
 28 60  1  0  0  0  0
 29 61  1  0  0  0  0
 29 62  1  0  0  0  0
 29 63  1  0  0  0  0
M  CHG  1   3   1
M  END
> <s_m_source_file>
AV-unprocessed.smi

> <i_m_source_file_index>
249

> <i_lp_mmshare_version>
43012

> <i_f3d_flags>
0

> <s_epik_input>
W0NIM11bQ0gyXU4xW0NIMl1bQ0gyXVtDQEhdKFtDSDJdW0NASF0xW0NIM10pTihbQ0gzXSljKG5bY0hdbjIpYyhjMjMpbltjSF1uM1tDSDJdW0NASF0oW0NIMl1bT0hdKVtDQEBIXTRbQ0gyXVtDSDJdT1tDSDJdNA==

> <s_epik_cmdline>
J2VwaWtfcHl0aG9uJywgJy1waCcsICc3LjAnLCAnLXRuJywgJzgnLCAnLW1hJywgJzIwMCcsICctbWV0YWxfYmluZGluZycsICctaW1hZScsICc8aW5maWxlLm1hZT4nLCAnLW9tYWUnLCAnPG91dGZpbGUubWFlPic=

> <r_lp_tautomer_probability>
1

> <r_epik_Ionization_Penalty>
0.00294688

> <r_epik_Ionization_Penalty_Charging>
0.00169971

> <r_epik_Ionization_Penalty_Neutral>
0.00124717

> <r_epik_State_Penalty>
-0

> <r_epik_Charging_Adjusted_Penalty>
0.00169971

> <i_epik_Tot_Q>
1

> <i_epik_Tot_abs_Q>
1

> <r_epik_Metal_State_Penalty>
-0

> <b_epik_Metal_Only>
0

> <s_lp_Force_Field>
OPLS_2005

> <r_lp_Energy>
53.9477

> <b_lp_Chiralities_Consistent>
1

> <s_lp_Variant>
AV-unprocessed.smi:249-20

> <Gold.Version>
5.8.1

> <Gold.Id.Protein>
6NUR|6NUR_protein|mol2

> <Gold.PLP.Fitness>
45.3897

> <Gold.PLP.PLP>
-40.2390

> <Gold.PLP.part.hbond>
-2.9948

> <Gold.PLP.part.metal>
0.0000

> <Gold.PLP.part.buried>
-2.2202

> <Gold.PLP.part.nonpolar>
-36.6534

> <Gold.PLP.part.repulsive>
1.2615

> <Gold.PLP.ligand.clash>
0.0000

> <Gold.PLP.ligand.torsion>
1.3693

> <Gold.PLP.Chemscore.Hbond>
1.0000

> <Gold.PLP.Chemscore.CHOScore>
1.4002

> <Gold.PLP.Chemscore.Metal>
0.0000

> <Gold.Chemscore.Hbonds>
donor molecule, donor type, donor heavy atom, donor atom, acceptor molecule, acceptor atom, score
      L1  H    21    50       P1  7948  1.00
      L1  C    16    44       P1  7948  0.87
      L1  C    16    44       P1  7957  0.55

> <Gold.PLP.Chemscore.Internal.Correction>
0.6886

> <Gold.Rescore>
     Score         DG    S(hbond)    S(metal)    S(lipo)     H(rot)  DE(clash)    DE(int)     intcor
     12.18     -14.97       1.00        0.00     110.65       2.65       0.31       2.49       ----

> <Gold.Chemscore.Fitness>
12.1767

> <Gold.Chemscore.DG>
-14.9700

> <Gold.Chemscore.ZeroCoef>
-5.4800

> <Gold.Chemscore.Hbond>
0.9975

> <Gold.Chemscore.Metal>
0.0000

> <Gold.Chemscore.Lipo>
110.6511

> <Gold.Chemscore.Internal_Hbond>
0.0000

> <Gold.Chemscore.DEClash>
0.3077

> <Gold.Chemscore.DEInternal>
2.4856

> <Gold.Chemscore.Rot>
2.6515

> <Gold.Chemscore.Internal.Correction>
   9.000000E+99

> <Gold.Chemscore.Hbonds>
donor molecule, donor type, donor heavy atom, donor atom, acceptor molecule, acceptor atom, score
      L1  H    21    50       P1  7948  0.99

> <Gold.Chemscore.Hbond.Weighted>
-3.3318

> <Gold.Chemscore.Metal.Weighted>
-0.0000

> <Gold.Chemscore.Lipo.Weighted>
-12.9462

> <Gold.Chemscore.Internal_Hbond.Weighted>
0.0000

> <Gold.Chemscore.DEClash.Weighted>
0.3077

> <Gold.Chemscore.DEInternal.Weighted>
2.4856

> <Gold.Chemscore.Rot.Weighted>
6.7880

> <Gold.Chemscore.Internal.Correction.Weighted>
   9.000000E+99

> <Gold.Protein.RotatedTorsions>
[ 6907 6896 6895 6894 ] final   71.51 input  -60.11 | X-H torsion
[ 7974 7965 7964 7962 ] final -111.67 input  175.53 | X-H torsion
[ 8008 7997 7996 7995 ] final  -67.42 input   59.86 | X-H torsion
[ 10167 10162 10161 10158 ] final -158.27 input  -65.29 | X-H torsion
[ 10718 10713 10712 10709 ] final  -23.75 input   66.30 | X-H torsion
[ 10763 10752 10751 10750 ] final   69.46 input  -60.55 | X-H torsion
[ 11005 11000 10999 10996 ] final  -12.56 input  -57.11 | X-H torsion

> <Gold.Protein.ActiveResidues>
 VAL166  LYS551  ARG553  GLY616  TRP617  ASP618  TYR619  PRO620  LYS621  CYS622 
 ASP623  PHE694  ASN695  SER759  ASP760  ASP761  ALA762  ILE779  LEU786  VAL792 
 PHE793  MET794  SER795  GLU796  ALA797  LYS798  CYS799  TRP800  GLU811  SER814 

> <Gold.Protein.RotatedAtoms>
  152.4814  134.4709  159.9634 H   0  0  0  0  0  0  0  0  0  0  0  0  # atno 6907 bound_to 6896
  151.4714  133.3562  159.2832 H   0  0  0  0  0  0  0  0  0  0  0  0  # atno 6908 bound_to 6896
  150.8890  134.8317  159.7340 H   0  0  0  0  0  0  0  0  0  0  0  0  # atno 6909 bound_to 6896
  145.1533  140.8840  143.3633 H   0  0  0  0  0  0  0  0  0  0  0  0  # atno 7974 bound_to 7965
  154.4799  140.0893  156.7352 H   0  0  0  0  0  0  0  0  0  0  0  0  # atno 8008 bound_to 7997
  155.4498  140.3457  155.4281 H   0  0  0  0  0  0  0  0  0  0  0  0  # atno 8009 bound_to 7997
  156.1175  140.1465  156.9241 H   0  0  0  0  0  0  0  0  0  0  0  0  # atno 8010 bound_to 7997
  139.6705  143.9753  152.2281 H   0  0  0  0  0  0  0  0  0  0  0  0  # atno 10167 bound_to 10162
  156.4869  130.4557  149.6778 H   0  0  0  0  0  0  0  0  0  0  0  0  # atno 10718 bound_to 10713
  153.0288  135.5210  154.7291 H   0  0  0  0  0  0  0  0  0  0  0  0  # atno 10763 bound_to 10752
  154.6324  135.2902  155.0203 H   0  0  0  0  0  0  0  0  0  0  0  0  # atno 10764 bound_to 10752
  154.1150  135.6616  153.4944 H   0  0  0  0  0  0  0  0  0  0  0  0  # atno 10765 bound_to 10752
  140.7670  133.8469  155.9174 H   0  0  0  0  0  0  0  0  0  0  0  0  # atno 11005 bound_to 11000
  145.0407  139.3262  143.5978 LP  0  0  0  0  0  0  0  0  0  0  0  0  # atno 17320 bound_to 7965
  146.3492  139.9780  142.8699 LP  0  0  0  0  0  0  0  0  0  0  0  0  # atno 17321 bound_to 7965
  139.9516  144.6617  150.8166 LP  0  0  0  0  0  0  0  0  0  0  0  0  # atno 17342 bound_to 10162
  140.7616  143.3179  151.2691 LP  0  0  0  0  0  0  0  0  0  0  0  0  # atno 17343 bound_to 10162
  156.3466  130.7410  151.2363 LP  0  0  0  0  0  0  0  0  0  0  0  0  # atno 17370 bound_to 10713
  157.7478  131.0389  150.4524 LP  0  0  0  0  0  0  0  0  0  0  0  0  # atno 17371 bound_to 10713
  140.9610  134.1656  157.4654 LP  0  0  0  0  0  0  0  0  0  0  0  0  # atno 17394 bound_to 11000
  139.8761  134.9944  156.5694 LP  0  0  0  0  0  0  0  0  0  0  0  0  # atno 17395 bound_to 11000

$$$$
