AV-unprocessed.smi:142|AV-procd|sdf|1191|dock9
  -GOLD-   2262018353D 1   1.00000     0.00000
 Structure written by MMmdl.
 52 55  0  0  0  0  0  0  0  0  1 V2000
  151.4792  139.4698  156.2373 C   0  0  0  0  0  0  0  0  0  0  0  0
  151.4140  139.2091  157.7482 C   0  0  2  0  0  0  0  0  0  0  0  0
  150.1340  138.5829  158.0735 N   0  0  0  0  0  0  0  0  0  0  0  0
  149.9776  137.3251  158.5133 C   0  0  0  0  0  0  0  0  0  0  0  0
  150.9135  136.5344  158.6412 O   0  0  0  0  0  0  0  0  0  0  0  0
  148.5405  136.9110  158.8614 C   0  0  0  0  0  0  0  0  0  0  0  0
  148.4761  135.7042  159.7140 N   0  0  0  0  0  0  0  0  0  0  0  0
  148.2001  135.8695  161.0944 C   0  0  0  0  0  0  0  0  0  0  0  0
  147.9956  136.9853  161.5752 O   0  0  0  0  0  0  0  0  0  0  0  0
  148.1911  134.6444  161.8855 C   0  0  0  0  0  0  0  0  0  0  0  0
  147.9528  134.7063  163.2067 F   0  0  0  0  0  0  0  0  0  0  0  0
  148.4243  133.4460  161.3116 C   0  0  0  0  0  0  0  0  0  0  0  0
  148.6718  133.2960  159.9613 N   0  0  0  0  0  0  0  0  0  0  0  0
  148.9770  131.9202  159.4151 C   0  0  1  0  0  0  0  0  0  0  0  0
  148.0517  131.4946  158.2591 C   0  0  0  0  0  0  0  0  0  0  0  0
  149.0264  131.2329  157.1221 C   0  0  0  0  0  0  0  0  0  0  0  0
  150.3437  130.9974  157.8525 C   0  0  0  0  0  0  0  0  0  0  0  0
  150.2862  131.9128  158.9353 O   0  0  0  0  0  0  0  0  0  0  0  0
  148.7338  134.4397  159.1320 C   0  0  0  0  0  0  0  0  0  0  0  0
  149.0131  134.3421  157.9361 O   0  0  0  0  0  0  0  0  0  0  0  0
  151.6751  140.4923  158.5338 C   0  0  0  0  0  0  0  0  0  0  0  0
  152.6722  140.5000  159.5325 C   0  0  0  0  0  0  0  0  0  0  0  0
  152.9397  141.6711  160.2674 C   0  0  0  0  0  0  0  0  0  0  0  0
  152.2118  142.8499  160.0084 C   0  0  0  0  0  0  0  0  0  0  0  0
  152.4741  144.0264  160.7406 C   0  0  0  0  0  0  0  0  0  0  0  0
  151.7424  145.2003  160.4750 C   0  0  0  0  0  0  0  0  0  0  0  0
  150.7471  145.2019  159.4785 C   0  0  0  0  0  0  0  0  0  0  0  0
  150.4808  144.0298  158.7446 C   0  0  0  0  0  0  0  0  0  0  0  0
  151.2115  142.8522  159.0053 C   0  0  0  0  0  0  0  0  0  0  0  0
  150.9505  141.6780  158.2708 C   0  0  0  0  0  0  0  0  0  0  0  0
  152.4515  139.8712  155.9504 H   0  0  0  0  0  0  0  0  0  0  0  0
  150.7188  140.1869  155.9256 H   0  0  0  0  0  0  0  0  0  0  0  0
  151.3242  138.5508  155.6712 H   0  0  0  0  0  0  0  0  0  0  0  0
  152.2055  138.4987  157.9952 H   0  0  0  0  0  0  0  0  0  0  0  0
  149.3108  139.1617  157.9921 H   0  0  0  0  0  0  0  0  0  0  0  0
  148.0362  137.7465  159.3504 H   0  0  0  0  0  0  0  0  0  0  0  0
  147.9884  136.7781  157.9301 H   0  0  0  0  0  0  0  0  0  0  0  0
  148.4134  132.5697  161.9435 H   0  0  0  0  0  0  0  0  0  0  0  0
  148.9026  131.2365  160.2621 H   0  0  0  0  0  0  0  0  0  0  0  0
  147.5331  130.5802  158.5490 H   0  0  0  0  0  0  0  0  0  0  0  0
  147.3056  132.2519  158.0171 H   0  0  0  0  0  0  0  0  0  0  0  0
  148.7332  130.3905  156.4954 H   0  0  0  0  0  0  0  0  0  0  0  0
  149.1073  132.1137  156.4844 H   0  0  0  0  0  0  0  0  0  0  0  0
  150.3978  129.9783  158.2386 H   0  0  0  0  0  0  0  0  0  0  0  0
  151.2147  131.1750  157.2212 H   0  0  0  0  0  0  0  0  0  0  0  0
  153.2372  139.6028  159.7392 H   0  0  0  0  0  0  0  0  0  0  0  0
  153.7054  141.6595  161.0295 H   0  0  0  0  0  0  0  0  0  0  0  0
  153.2351  144.0342  161.5075 H   0  0  0  0  0  0  0  0  0  0  0  0
  151.9441  146.1003  161.0366 H   0  0  0  0  0  0  0  0  0  0  0  0
  150.1867  146.1030  159.2770 H   0  0  0  0  0  0  0  0  0  0  0  0
  149.7140  144.0393  157.9833 H   0  0  0  0  0  0  0  0  0  0  0  0
  150.1899  141.6927  157.5037 H   0  0  0  0  0  0  0  0  0  0  0  0
  1  2  1  0  0  0  0
  1 31  1  0  0  0  0
  1 32  1  0  0  0  0
  1 33  1  0  0  0  0
  2  3  1  0  0  0  0
  2 21  1  0  0  0  0
  2 34  1  0  0  0  0
  3  4  1  0  0  0  0
  3 35  1  0  0  0  0
  4  5  2  0  0  0  0
  4  6  1  0  0  0  0
  6  7  1  0  0  0  0
  6 36  1  0  0  0  0
  6 37  1  0  0  0  0
  7 19  1  0  0  0  0
  7  8  1  0  0  0  0
  8  9  2  0  0  0  0
  8 10  1  0  0  0  0
 10 11  1  0  0  0  0
 10 12  2  0  0  0  0
 12 13  1  0  0  0  0
 12 38  1  0  0  0  0
 13 14  1  0  0  0  0
 13 19  1  0  0  0  0
 14 18  1  0  0  0  0
 14 15  1  0  0  0  0
 14 39  1  0  0  0  0
 15 16  1  0  0  0  0
 15 40  1  0  0  0  0
 15 41  1  0  0  0  0
 16 17  1  0  0  0  0
 16 42  1  0  0  0  0
 16 43  1  0  0  0  0
 17 18  1  0  0  0  0
 17 44  1  0  0  0  0
 17 45  1  0  0  0  0
 19 20  2  0  0  0  0
 21 30  1  0  0  0  0
 21 22  2  0  0  0  0
 22 23  1  0  0  0  0
 22 46  1  0  0  0  0
 23 24  2  0  0  0  0
 23 47  1  0  0  0  0
 24 29  1  0  0  0  0
 24 25  1  0  0  0  0
 25 26  2  0  0  0  0
 25 48  1  0  0  0  0
 26 27  1  0  0  0  0
 26 49  1  0  0  0  0
 27 28  2  0  0  0  0
 27 50  1  0  0  0  0
 28 29  1  0  0  0  0
 28 51  1  0  0  0  0
 29 30  2  0  0  0  0
 30 52  1  0  0  0  0
M  END
> <s_m_source_file>
AV-unprocessed.smi

> <i_m_source_file_index>
142

> <i_lp_mmshare_version>
43012

> <i_f3d_flags>
0

> <s_epik_input>
W2NIXTFbY0hdW2NIXVtjSF1jKGMxMilbY0hdYyhbY0hdW2NIXTIpW0NASF0oW0NIM10pW05IXUMoPU8pW0NIMl1uM2MoPU8pYyhGKVtjSF1uKGMzPU8pW0NAQEhdNFtDSDJdW0NIMl1bQ0gyXU80

> <s_epik_cmdline>
J2VwaWtfcHl0aG9uJywgJy1waCcsICc3LjAnLCAnLXRuJywgJzgnLCAnLW1hJywgJzIwMCcsICctbWV0YWxfYmluZGluZycsICctaW1hZScsICc8aW5maWxlLm1hZT4nLCAnLW9tYWUnLCAnPG91dGZpbGUubWFlPic=

> <r_lp_tautomer_probability>
1

> <r_epik_Ionization_Penalty>
3.35688e-08

> <r_epik_Ionization_Penalty_Charging>
3.59856e-09

> <r_epik_Ionization_Penalty_Neutral>
2.99702e-08

> <r_epik_State_Penalty>
-0

> <r_epik_Charging_Adjusted_Penalty>
3.59856e-09

> <i_epik_Tot_Q>
0

> <i_epik_Tot_abs_Q>
0

> <r_epik_Metal_State_Penalty>
-0

> <b_epik_Metal_Only>
0

> <s_epik_Chemistry_Notes>
This compound contains an acetal/aminal-like group ( X-CH(R)-Y where X, Y are N, S, or O) that may be acid/base labile, releasing an aldehyde.

> <s_lp_Force_Field>
OPLS_2005

> <r_lp_Energy>
25.6775

> <b_lp_Chiralities_Consistent>
1

> <s_lp_Variant>
AV-unprocessed.smi:142-3

> <Gold.Version>
5.8.1

> <Gold.Id.Protein>
6NUR|6NUR_protein|mol2

> <Gold.PLP.Fitness>
63.3906

> <Gold.PLP.PLP>
-53.7882

> <Gold.PLP.part.hbond>
-4.0000

> <Gold.PLP.part.metal>
0.0000

> <Gold.PLP.part.buried>
-6.5246

> <Gold.PLP.part.nonpolar>
-43.8911

> <Gold.PLP.part.repulsive>
0.0787

> <Gold.PLP.ligand.clash>
0.0000

> <Gold.PLP.ligand.torsion>
0.6629

> <Gold.PLP.Chemscore.Hbond>
3.6160

> <Gold.PLP.Chemscore.CHOScore>
0.0000

> <Gold.PLP.Chemscore.Metal>
0.0000

> <Gold.Chemscore.Hbonds>
donor molecule, donor type, donor heavy atom, donor atom, acceptor molecule, acceptor atom, score
      P1  H  6896  6907       L1     5  0.90
      P1  H  6896  6909       L1    18  0.91
      P1  H  6931  6943       L1     9  1.00
      P1  H  6934  6947       L1     9  0.25

> <Gold.PLP.Chemscore.Internal.Correction>
0.0802

> <Gold.Rescore>
     Score         DG    S(hbond)    S(metal)    S(lipo)     H(rot)  DE(clash)    DE(int)     intcor
     24.82     -27.64       3.61        0.00     130.57       2.02       0.09       2.72       ----

> <Gold.Chemscore.Fitness>
24.8221

> <Gold.Chemscore.DG>
-27.6393

> <Gold.Chemscore.ZeroCoef>
-5.4800

> <Gold.Chemscore.Hbond>
3.6069

> <Gold.Chemscore.Metal>
0.0000

> <Gold.Chemscore.Lipo>
130.5722

> <Gold.Chemscore.Internal_Hbond>
0.0000

> <Gold.Chemscore.DEClash>
0.0923

> <Gold.Chemscore.DEInternal>
2.7249

> <Gold.Chemscore.Rot>
2.0175

> <Gold.Chemscore.Internal.Correction>
   9.000000E+99

> <Gold.Chemscore.Hbonds>
donor molecule, donor type, donor heavy atom, donor atom, acceptor molecule, acceptor atom, score
      P1  H  6896  6907       L1     5  0.86
      P1  H  6896  6909       L1    18  0.70
      P1  H  6931  6943       L1     9  1.00
      P1  H  6934  6947       L1     9  0.25

> <Gold.Chemscore.Hbond.Weighted>
-12.0472

> <Gold.Chemscore.Metal.Weighted>
-0.0000

> <Gold.Chemscore.Lipo.Weighted>
-15.2769

> <Gold.Chemscore.Internal_Hbond.Weighted>
0.0000

> <Gold.Chemscore.DEClash.Weighted>
0.0923

> <Gold.Chemscore.DEInternal.Weighted>
2.7249

> <Gold.Chemscore.Rot.Weighted>
5.1648

> <Gold.Chemscore.Internal.Correction.Weighted>
   9.000000E+99

> <Gold.Protein.RotatedTorsions>
[ 6907 6896 6895 6894 ] final  -25.54 input  -60.11 | X-H torsion
[ 7974 7965 7964 7962 ] final  -50.45 input  175.53 | X-H torsion
[ 8008 7997 7996 7995 ] final -117.24 input   59.86 | X-H torsion
[ 10167 10162 10161 10158 ] final   71.51 input  -65.29 | X-H torsion
[ 10718 10713 10712 10709 ] final  154.01 input   66.30 | X-H torsion
[ 10763 10752 10751 10750 ] final  131.55 input  -60.55 | X-H torsion
[ 11005 11000 10999 10996 ] final  -83.54 input  -57.11 | X-H torsion

> <Gold.Protein.ActiveResidues>
 VAL166  LYS551  ARG553  GLY616  TRP617  ASP618  TYR619  PRO620  LYS621  CYS622 
 ASP623  PHE694  ASN695  SER759  ASP760  ASP761  ALA762  ILE779  LEU786  VAL792 
 PHE793  MET794  SER795  GLU796  ALA797  LYS798  CYS799  TRP800  GLU811  SER814 

> <Gold.Protein.RotatedAtoms>
  151.1738  135.0330  159.8762 H   0  0  0  0  0  0  0  0  0  0  0  0  # atno 6907 bound_to 6896
  152.5448  134.1140  159.8381 H   0  0  0  0  0  0  0  0  0  0  0  0  # atno 6908 bound_to 6896
  151.1249  133.5031  159.2633 H   0  0  0  0  0  0  0  0  0  0  0  0  # atno 6909 bound_to 6896
  145.9297  140.7760  142.9606 H   0  0  0  0  0  0  0  0  0  0  0  0  # atno 7974 bound_to 7965
  155.0806  140.0394  157.2638 H   0  0  0  0  0  0  0  0  0  0  0  0  # atno 8008 bound_to 7997
  154.6910  140.2653  155.6788 H   0  0  0  0  0  0  0  0  0  0  0  0  # atno 8009 bound_to 7997
  156.2728  140.2759  156.1488 H   0  0  0  0  0  0  0  0  0  0  0  0  # atno 8010 bound_to 7997
  140.0453  144.5356  150.7403 H   0  0  0  0  0  0  0  0  0  0  0  0  # atno 10167 bound_to 10162
  157.2373  131.0751  151.1815 H   0  0  0  0  0  0  0  0  0  0  0  0  # atno 10718 bound_to 10713
  153.7762  135.3175  155.3359 H   0  0  0  0  0  0  0  0  0  0  0  0  # atno 10763 bound_to 10752
  154.8178  135.4624  154.0696 H   0  0  0  0  0  0  0  0  0  0  0  0  # atno 10764 bound_to 10752
  153.1970  135.6917  153.8364 H   0  0  0  0  0  0  0  0  0  0  0  0  # atno 10765 bound_to 10752
  141.1657  133.7299  156.8735 H   0  0  0  0  0  0  0  0  0  0  0  0  # atno 11005 bound_to 11000
  144.6763  140.2107  143.7377 LP  0  0  0  0  0  0  0  0  0  0  0  0  # atno 17320 bound_to 7965
  145.8442  139.2144  143.1809 LP  0  0  0  0  0  0  0  0  0  0  0  0  # atno 17321 bound_to 7965
  140.7241  143.2618  151.4178 LP  0  0  0  0  0  0  0  0  0  0  0  0  # atno 17342 bound_to 10162
  139.5987  144.1341  152.2174 LP  0  0  0  0  0  0  0  0  0  0  0  0  # atno 17343 bound_to 10162
  157.3416  130.7036  149.6385 LP  0  0  0  0  0  0  0  0  0  0  0  0  # atno 17370 bound_to 10713
  155.9672  130.4278  150.4761 LP  0  0  0  0  0  0  0  0  0  0  0  0  # atno 17371 bound_to 10713
  140.1765  134.9063  157.2897 LP  0  0  0  0  0  0  0  0  0  0  0  0  # atno 17394 bound_to 11000
  140.2443  134.3758  155.7468 LP  0  0  0  0  0  0  0  0  0  0  0  0  # atno 17395 bound_to 11000

$$$$
