AV-unprocessed.smi:1373|AV-procd|sdf|5586|dock9
  -GOLD-   22720 5183D 1   1.00000     0.00000
 Structure written by MMmdl.
 42 43  0  0  0  0  0  0  0  0  1 V2000
  143.3840  132.6442  151.3029 C   0  0  0  0  0  0  0  0  0  0  0  0
  144.4053  131.5139  151.1336 C   0  0  0  0  0  0  0  0  0  0  0  0
  145.5195  131.8705  150.1400 C   0  0  0  0  0  0  0  0  0  0  0  0
  146.3311  133.0980  150.5830 C   0  0  0  0  0  0  0  0  0  0  0  0
  147.4205  132.7218  151.4757 N   0  0  0  0  0  0  0  0  0  0  0  0
  147.4944  133.0299  152.7810 C   0  0  0  0  0  0  0  0  0  0  0  0
  146.6235  133.6654  153.3750 O   0  0  0  0  0  0  0  0  0  0  0  0
  148.7272  132.5316  153.5422 C   0  0  0  0  0  0  0  0  0  0  0  0
  149.0961  133.4664  154.6511 C   0  0  0  0  0  0  0  0  0  0  0  0
  148.3008  133.6460  155.6998 N   0  0  0  0  0  0  0  0  0  0  0  0
  148.9848  134.6011  156.4658 O   0  0  0  0  0  0  0  0  0  0  0  0
  150.1211  134.8771  155.7823 C   0  0  0  0  0  0  0  0  0  0  0  0
  151.0649  135.8994  156.3273 C   0  0  0  0  0  0  0  0  0  0  0  0
  151.3321  136.9988  155.4015 N   0  0  0  0  0  0  0  0  0  0  0  0
  150.1288  137.7858  155.1582 C   0  0  0  0  0  0  0  0  0  0  0  0
  150.3905  138.9466  154.1830 C   0  0  0  0  0  0  0  0  0  0  0  0
  151.4383  139.7676  154.6893 O   0  0  0  0  0  0  0  0  0  0  0  0
  152.6484  139.0467  154.8984 C   0  0  0  0  0  0  0  0  0  0  0  0
  152.3955  137.8841  155.8739 C   0  0  0  0  0  0  0  0  0  0  0  0
  150.2509  134.1891  154.6511 N   0  0  0  0  0  0  0  0  0  0  0  0
  142.6028  132.3599  152.0084 H   0  0  0  0  0  0  0  0  0  0  0  0
  142.9034  132.8860  150.3545 H   0  0  0  0  0  0  0  0  0  0  0  0
  143.8588  133.5506  151.6796 H   0  0  0  0  0  0  0  0  0  0  0  0
  144.8414  131.2761  152.1045 H   0  0  0  0  0  0  0  0  0  0  0  0
  143.8912  130.6129  150.7970 H   0  0  0  0  0  0  0  0  0  0  0  0
  146.1845  131.0137  150.0230 H   0  0  0  0  0  0  0  0  0  0  0  0
  145.0835  132.0593  149.1581 H   0  0  0  0  0  0  0  0  0  0  0  0
  146.7640  133.5913  149.7121 H   0  0  0  0  0  0  0  0  0  0  0  0
  145.6838  133.8327  151.0652 H   0  0  0  0  0  0  0  0  0  0  0  0
  148.1795  132.1928  151.0704 H   0  0  0  0  0  0  0  0  0  0  0  0
  148.5351  131.5379  153.9498 H   0  0  0  0  0  0  0  0  0  0  0  0
  149.5637  132.4340  152.8492 H   0  0  0  0  0  0  0  0  0  0  0  0
  150.6293  136.2915  157.2471 H   0  0  0  0  0  0  0  0  0  0  0  0
  151.9966  135.4066  156.6094 H   0  0  0  0  0  0  0  0  0  0  0  0
  149.3433  137.1462  154.7547 H   0  0  0  0  0  0  0  0  0  0  0  0
  149.7514  138.1864  156.1006 H   0  0  0  0  0  0  0  0  0  0  0  0
  150.6599  138.5680  153.1956 H   0  0  0  0  0  0  0  0  0  0  0  0
  149.4910  139.5500  154.0610 H   0  0  0  0  0  0  0  0  0  0  0  0
  153.0279  138.6748  153.9453 H   0  0  0  0  0  0  0  0  0  0  0  0
  153.4023  139.7226  155.3020 H   0  0  0  0  0  0  0  0  0  0  0  0
  152.1347  138.2855  156.8544 H   0  0  0  0  0  0  0  0  0  0  0  0
  153.3235  137.3265  156.0020 H   0  0  0  0  0  0  0  0  0  0  0  0
  1  2  1  0  0  0  0
  1 21  1  0  0  0  0
  1 22  1  0  0  0  0
  1 23  1  0  0  0  0
  2  3  1  0  0  0  0
  2 24  1  0  0  0  0
  2 25  1  0  0  0  0
  3  4  1  0  0  0  0
  3 26  1  0  0  0  0
  3 27  1  0  0  0  0
  4  5  1  0  0  0  0
  4 28  1  0  0  0  0
  4 29  1  0  0  0  0
  5  6  1  0  0  0  0
  5 30  1  0  0  0  0
  6  7  2  0  0  0  0
  6  8  1  0  0  0  0
  8  9  1  0  0  0  0
  8 31  1  0  0  0  0
  8 32  1  0  0  0  0
  9 20  1  0  0  0  0
  9 10  2  0  0  0  0
 10 11  1  0  0  0  0
 11 12  1  0  0  0  0
 12 13  1  0  0  0  0
 12 20  2  0  0  0  0
 13 14  1  0  0  0  0
 13 33  1  0  0  0  0
 13 34  1  0  0  0  0
 14 19  1  0  0  0  0
 14 15  1  0  0  0  0
 15 16  1  0  0  0  0
 15 35  1  0  0  0  0
 15 36  1  0  0  0  0
 16 17  1  0  0  0  0
 16 37  1  0  0  0  0
 16 38  1  0  0  0  0
 17 18  1  0  0  0  0
 18 19  1  0  0  0  0
 18 39  1  0  0  0  0
 18 40  1  0  0  0  0
 19 41  1  0  0  0  0
 19 42  1  0  0  0  0
M  END
> <s_m_source_file>
AV-unprocessed.smi

> <i_m_source_file_index>
1373

> <i_lp_mmshare_version>
43012

> <i_f3d_flags>
0

> <s_epik_input>
W0NIM11bQ0gyXVtDSDJdW0NIMl1bTkhdQyg9TylbQ0gyXWMxbm9jKG4xKVtDSDJdTjJbQ0gyXVtDSDJdT1tDSDJdW0NIMl0y

> <s_epik_cmdline>
J2VwaWtfcHl0aG9uJywgJy1waCcsICc3LjAnLCAnLXRuJywgJzgnLCAnLW1hJywgJzIwMCcsICctbWV0YWxfYmluZGluZycsICctaW1hZScsICc8aW5maWxlLm1hZT4nLCAnLW9tYWUnLCAnPG91dGZpbGUubWFlPic=

> <r_lp_tautomer_probability>
1

> <r_epik_Ionization_Penalty>
0.0010147

> <r_epik_Ionization_Penalty_Charging>
0

> <r_epik_Ionization_Penalty_Neutral>
0.0010147

> <r_epik_State_Penalty>
0.00066205

> <r_epik_Charging_Adjusted_Penalty>
0.00066205

> <i_epik_Tot_Q>
0

> <i_epik_Tot_abs_Q>
0

> <r_epik_Metal_State_Penalty>
-0

> <b_epik_Metal_Only>
0

> <s_lp_Force_Field>
OPLS_2005

> <r_lp_Energy>
19.0751

> <b_lp_Chiralities_Consistent>
1

> <s_lp_Variant>
AV-unprocessed.smi:1373-1

> <Gold.Version>
5.8.1

> <Gold.Id.Protein>
6NUR|6NUR_protein|mol2

> <Gold.PLP.Fitness>
40.8483

> <Gold.PLP.PLP>
-35.9567

> <Gold.PLP.part.hbond>
-2.0010

> <Gold.PLP.part.metal>
0.0000

> <Gold.PLP.part.buried>
-5.7717

> <Gold.PLP.part.nonpolar>
-29.0920

> <Gold.PLP.part.repulsive>
0.4760

> <Gold.PLP.ligand.clash>
0.0000

> <Gold.PLP.ligand.torsion>
0.6326

> <Gold.PLP.Chemscore.Hbond>
2.0351

> <Gold.PLP.Chemscore.CHOScore>
0.0000

> <Gold.PLP.Chemscore.Metal>
0.0000

> <Gold.Chemscore.Hbonds>
donor molecule, donor type, donor heavy atom, donor atom, acceptor molecule, acceptor atom, score
      L1  H     5    30       P1 10747  1.00
      P1  H  7989  7998       L1    17  1.00
      P1  H 10752 10764       L1    14  0.03

> <Gold.PLP.Chemscore.Internal.Correction>
0.0516

> <Gold.Rescore>
     Score         DG    S(hbond)    S(metal)    S(lipo)     H(rot)  DE(clash)    DE(int)     intcor
     12.21     -14.17       1.55        0.00      80.27       2.29       0.01       1.96       ----

> <Gold.Chemscore.Fitness>
12.2051

> <Gold.Chemscore.DG>
-14.1744

> <Gold.Chemscore.ZeroCoef>
-5.4800

> <Gold.Chemscore.Hbond>
1.5474

> <Gold.Chemscore.Metal>
0.0000

> <Gold.Chemscore.Lipo>
80.2700

> <Gold.Chemscore.Internal_Hbond>
0.0000

> <Gold.Chemscore.DEClash>
0.0124

> <Gold.Chemscore.DEInternal>
1.9569

> <Gold.Chemscore.Rot>
2.2912

> <Gold.Chemscore.Internal.Correction>
   9.000000E+99

> <Gold.Chemscore.Hbonds>
donor molecule, donor type, donor heavy atom, donor atom, acceptor molecule, acceptor atom, score
      L1  H     5    30       P1 10747  0.99
      P1  H  7989  7998       L1    17  0.28

> <Gold.Chemscore.Hbond.Weighted>
-5.1683

> <Gold.Chemscore.Metal.Weighted>
-0.0000

> <Gold.Chemscore.Lipo.Weighted>
-9.3916

> <Gold.Chemscore.Internal_Hbond.Weighted>
0.0000

> <Gold.Chemscore.DEClash.Weighted>
0.0124

> <Gold.Chemscore.DEInternal.Weighted>
1.9569

> <Gold.Chemscore.Rot.Weighted>
5.8654

> <Gold.Chemscore.Internal.Correction.Weighted>
   9.000000E+99

> <Gold.Protein.RotatedTorsions>
[ 6907 6896 6895 6894 ] final -174.72 input  -60.11 | X-H torsion
[ 7974 7965 7964 7962 ] final -125.14 input  175.53 | X-H torsion
[ 8008 7997 7996 7995 ] final  -32.28 input   59.86 | X-H torsion
[ 10167 10162 10161 10158 ] final  -50.32 input  -65.29 | X-H torsion
[ 10718 10713 10712 10709 ] final  -87.80 input   66.30 | X-H torsion
[ 10763 10752 10751 10750 ] final  -60.83 input  -60.55 | X-H torsion
[ 11005 11000 10999 10996 ] final -120.35 input  -57.11 | X-H torsion

> <Gold.Protein.ActiveResidues>
 VAL166  LYS551  ARG553  GLY616  TRP617  ASP618  TYR619  PRO620  LYS621  CYS622 
 ASP623  PHE694  ASN695  SER759  ASP760  ASP761  ALA762  ILE779  LEU786  VAL792 
 PHE793  MET794  SER795  GLU796  ALA797  LYS798  CYS799  TRP800  GLU811  SER814 

> <Gold.Protein.RotatedAtoms>
  151.5769  133.3382  159.3000 H   0  0  0  0  0  0  0  0  0  0  0  0  # atno 6907 bound_to 6896
  150.8335  134.7602  159.6885 H   0  0  0  0  0  0  0  0  0  0  0  0  # atno 6908 bound_to 6896
  152.4415  134.5587  159.9939 H   0  0  0  0  0  0  0  0  0  0  0  0  # atno 6909 bound_to 6896
  145.0007  140.7818  143.4498 H   0  0  0  0  0  0  0  0  0  0  0  0  # atno 7974 bound_to 7965
  154.4185  140.1742  156.1702 H   0  0  0  0  0  0  0  0  0  0  0  0  # atno 8008 bound_to 7997
  155.9767  140.3381  155.6601 H   0  0  0  0  0  0  0  0  0  0  0  0  # atno 8009 bound_to 7997
  155.6554  140.0695  157.2563 H   0  0  0  0  0  0  0  0  0  0  0  0  # atno 8010 bound_to 7997
  140.6643  143.2662  151.4343 H   0  0  0  0  0  0  0  0  0  0  0  0  # atno 10167 bound_to 10162
  155.9984  130.4813  150.4922 H   0  0  0  0  0  0  0  0  0  0  0  0  # atno 10718 bound_to 10713
  154.2753  135.6282  153.5326 H   0  0  0  0  0  0  0  0  0  0  0  0  # atno 10763 bound_to 10752
  152.9874  135.5620  154.5555 H   0  0  0  0  0  0  0  0  0  0  0  0  # atno 10764 bound_to 10752
  154.5134  135.2878  155.1299 H   0  0  0  0  0  0  0  0  0  0  0  0  # atno 10765 bound_to 10752
  141.0150  134.0209  157.3362 H   0  0  0  0  0  0  0  0  0  0  0  0  # atno 11005 bound_to 11000
  145.2157  139.2183  143.5119 LP  0  0  0  0  0  0  0  0  0  0  0  0  # atno 17320 bound_to 7965
  146.3451  140.2004  142.8589 LP  0  0  0  0  0  0  0  0  0  0  0  0  # atno 17321 bound_to 7965
  139.5886  144.1548  152.2060 LP  0  0  0  0  0  0  0  0  0  0  0  0  # atno 17342 bound_to 10162
  140.0896  144.5632  150.7064 LP  0  0  0  0  0  0  0  0  0  0  0  0  # atno 17343 bound_to 10162
  157.2916  131.0627  151.2130 LP  0  0  0  0  0  0  0  0  0  0  0  0  # atno 17370 bound_to 10713
  157.3140  130.6904  149.6232 LP  0  0  0  0  0  0  0  0  0  0  0  0  # atno 17371 bound_to 10713
  139.9112  135.0190  156.7697 LP  0  0  0  0  0  0  0  0  0  0  0  0  # atno 17394 bound_to 11000
  140.6670  133.9594  155.7835 LP  0  0  0  0  0  0  0  0  0  0  0  0  # atno 17395 bound_to 11000

$$$$
