AV-unprocessed.smi:45|AV-procd|sdf|410|dock9
  -GOLD-   2262016273D 1   1.00000     0.00000
 Structure written by MMmdl.
 61 64  0  0  0  0  0  0  0  0  2 V2000
  145.3851  128.2840  161.5633 C   0  0  0  0  0  0  0  0  0  0  0  0
  144.2330  128.9272  161.0388 O   0  0  0  0  0  0  0  0  0  0  0  0
  144.4102  129.9118  160.0886 C   0  0  0  0  0  0  0  0  0  0  0  0
  145.6757  130.2939  159.5750 C   0  0  0  0  0  0  0  0  0  0  0  0
  145.7776  131.3086  158.6040 C   0  0  0  0  0  0  0  0  0  0  0  0
  144.6209  131.9604  158.1315 C   0  0  0  0  0  0  0  0  0  0  0  0
  144.7269  133.0494  157.0817 C   0  0  0  0  0  0  0  0  0  0  0  0
  145.9100  133.8860  157.2318 N   0  0  0  0  0  0  0  0  0  0  0  0
  146.6918  134.2450  156.1204 C   0  0  0  0  0  0  0  0  0  0  0  0
  146.2476  133.8852  154.8954 N   0  0  0  0  0  0  0  0  0  0  0  0
  146.9488  134.1936  153.7969 C   0  0  0  0  0  0  0  0  0  0  0  0
  146.4638  133.8105  152.5470 N   0  0  0  0  0  0  0  0  0  0  0  0
  146.7028  132.4728  152.0160 C   0  0  0  0  0  0  0  0  0  0  0  0
  145.4779  132.1300  151.1696 C   0  0  0  0  0  0  0  0  0  0  0  0
  144.9965  133.4947  150.6956 C   0  0  0  0  0  0  0  0  0  0  0  0
  145.3081  134.4172  151.8830 C   0  0  2  0  0  0  0  0  0  0  0  0
  145.5471  135.8791  151.4487 C   0  0  0  0  0  0  0  0  0  0  0  0
  144.6621  136.2203  150.4033 O   0  0  0  0  0  0  0  0  0  0  0  0
  148.1152  134.8547  153.8645 N   0  3  0  0  0  0  0  0  0  0  0  0
  148.6101  135.2346  155.0666 C   0  0  0  0  0  0  0  0  0  0  0  0
  147.9189  134.9401  156.2617 C   0  0  0  0  0  0  0  0  0  0  0  0
  148.4650  135.3964  157.5882 C   0  0  0  0  0  0  0  0  0  0  0  0
  149.2510  134.7002  158.2308 O   0  0  0  0  0  0  0  0  0  0  0  0
  148.0527  136.6097  157.9884 N   0  0  0  0  0  0  0  0  0  0  0  0
  148.4184  137.2389  159.2519 C   0  0  0  0  0  0  0  0  0  0  0  0
  147.9899  136.4162  160.4543 C   0  0  0  0  0  0  0  0  0  0  0  0
  147.8203  135.1049  160.2521 N   0  0  0  0  0  0  0  0  0  0  0  0
  147.4455  134.3667  161.3196 C   0  0  0  0  0  0  0  0  0  0  0  0
  147.2449  134.9459  162.5885 C   0  0  0  0  0  0  0  0  0  0  0  0
  147.4552  136.3367  162.6797 C   0  0  0  0  0  0  0  0  0  0  0  0
  147.8284  137.0704  161.6088 N   0  0  0  0  0  0  0  0  0  0  0  0
  143.3603  131.5838  158.6348 C   0  0  0  0  0  0  0  0  0  0  0  0
  143.2560  130.5689  159.6063 C   0  0  0  0  0  0  0  0  0  0  0  0
  141.6943  130.1339  160.2029 Cl  0  0  0  0  0  0  0  0  0  0  0  0
  144.4752  134.3784  152.5868 H   0  0  0  0  0  0  0  0  0  0  0  0
  145.0778  127.5382  162.2962 H   0  0  0  0  0  0  0  0  0  0  0  0
  146.0416  128.9925  162.0703 H   0  0  0  0  0  0  0  0  0  0  0  0
  145.9440  127.7671  160.7821 H   0  0  0  0  0  0  0  0  0  0  0  0
  146.5868  129.8221  159.9093 H   0  0  0  0  0  0  0  0  0  0  0  0
  146.7496  131.5842  158.2216 H   0  0  0  0  0  0  0  0  0  0  0  0
  144.7421  132.5756  156.0996 H   0  0  0  0  0  0  0  0  0  0  0  0
  143.8375  133.6795  157.1202 H   0  0  0  0  0  0  0  0  0  0  0  0
  146.0632  134.3509  158.1159 H   0  0  0  0  0  0  0  0  0  0  0  0
  147.6023  132.4971  151.4001 H   0  0  0  0  0  0  0  0  0  0  0  0
  146.8497  131.7328  152.8036 H   0  0  0  0  0  0  0  0  0  0  0  0
  145.7042  131.4470  150.3502 H   0  0  0  0  0  0  0  0  0  0  0  0
  144.7128  131.6675  151.7947 H   0  0  0  0  0  0  0  0  0  0  0  0
  145.5702  133.7939  149.8168 H   0  0  0  0  0  0  0  0  0  0  0  0
  143.9407  133.4997  150.4229 H   0  0  0  0  0  0  0  0  0  0  0  0
  145.3778  136.5797  152.2651 H   0  0  0  0  0  0  0  0  0  0  0  0
  146.5748  136.0237  151.1136 H   0  0  0  0  0  0  0  0  0  0  0  0
  144.5314  137.1566  150.4114 H   0  0  0  0  0  0  0  0  0  0  0  0
  149.5467  135.7725  155.0288 H   0  0  0  0  0  0  0  0  0  0  0  0
  147.4184  137.1232  157.3942 H   0  0  0  0  0  0  0  0  0  0  0  0
  149.4929  137.4305  159.2810 H   0  0  0  0  0  0  0  0  0  0  0  0
  147.9338  138.2145  159.3030 H   0  0  0  0  0  0  0  0  0  0  0  0
  147.3046  133.3080  161.1600 H   0  0  0  0  0  0  0  0  0  0  0  0
  146.9457  134.3576  163.4432 H   0  0  0  0  0  0  0  0  0  0  0  0
  147.3239  136.8615  163.6142 H   0  0  0  0  0  0  0  0  0  0  0  0
  142.4663  132.0738  158.2776 H   0  0  0  0  0  0  0  0  0  0  0  0
  148.6335  135.0816  153.0155 H   0  0  0  0  0  0  0  0  0  0  0  0
  1  2  1  0  0  0  0
  1 36  1  0  0  0  0
  1 37  1  0  0  0  0
  1 38  1  0  0  0  0
  2  3  1  0  0  0  0
  3 33  1  0  0  0  0
  3  4  2  0  0  0  0
  4  5  1  0  0  0  0
  4 39  1  0  0  0  0
  5  6  2  0  0  0  0
  5 40  1  0  0  0  0
  6  7  1  0  0  0  0
  6 32  1  0  0  0  0
  7  8  1  0  0  0  0
  7 41  1  0  0  0  0
  7 42  1  0  0  0  0
  8  9  1  0  0  0  0
  8 43  1  0  0  0  0
  9 21  1  0  0  0  0
  9 10  2  0  0  0  0
 10 11  1  0  0  0  0
 11 12  1  0  0  0  0
 11 19  2  0  0  0  0
 12 16  1  0  0  0  0
 12 13  1  0  0  0  0
 13 14  1  0  0  0  0
 13 44  1  0  0  0  0
 13 45  1  0  0  0  0
 14 15  1  0  0  0  0
 14 46  1  0  0  0  0
 14 47  1  0  0  0  0
 15 16  1  0  0  0  0
 15 48  1  0  0  0  0
 15 49  1  0  0  0  0
 16 35  1  0  0  0  0
 16 17  1  0  0  0  0
 17 18  1  0  0  0  0
 17 50  1  0  0  0  0
 17 51  1  0  0  0  0
 18 52  1  0  0  0  0
 19 20  1  0  0  0  0
 19 61  1  0  0  0  0
 20 21  2  0  0  0  0
 20 53  1  0  0  0  0
 21 22  1  0  0  0  0
 22 23  2  0  0  0  0
 22 24  1  0  0  0  0
 24 25  1  0  0  0  0
 24 54  1  0  0  0  0
 25 26  1  0  0  0  0
 25 55  1  0  0  0  0
 25 56  1  0  0  0  0
 26 31  1  0  0  0  0
 26 27  2  0  0  0  0
 27 28  1  0  0  0  0
 28 29  2  0  0  0  0
 28 57  1  0  0  0  0
 29 30  1  0  0  0  0
 29 58  1  0  0  0  0
 30 31  2  0  0  0  0
 30 59  1  0  0  0  0
 32 33  2  0  0  0  0
 32 60  1  0  0  0  0
 33 34  1  0  0  0  0
M  CHG  1  19   1
M  END
> <s_m_source_file>
AV-unprocessed.smi

> <i_m_source_file_index>
45

> <i_lp_mmshare_version>
43012

> <i_f3d_flags>
0

> <s_epik_input>
W0NIM11PYzFbY0hdW2NIXWMoW2NIXWMxQ2wpW0NIMl1bTkhdYzJuYyhOM1tDSDJdW0NIMl1bQ0gyXVtDQEhdM1tDSDJdW09IXSluW2NIXWMyQyg9TylbTkhdW0NIMl1jNG5bY0hdW2NIXVtjSF1uNA==

> <s_epik_cmdline>
J2VwaWtfcHl0aG9uJywgJy1waCcsICc3LjAnLCAnLXRuJywgJzgnLCAnLW1hJywgJzIwMCcsICctbWV0YWxfYmluZGluZycsICctaW1hZScsICc8aW5maWxlLm1hZT4nLCAnLW9tYWUnLCAnPG91dGZpbGUubWFlPic=

> <r_lp_tautomer_probability>
0.575011

> <r_epik_Ionization_Penalty>
1.61454

> <r_epik_Ionization_Penalty_Charging>
1.61448

> <r_epik_Ionization_Penalty_Neutral>
6.30284e-05

> <r_epik_State_Penalty>
1.91123

> <r_epik_Charging_Adjusted_Penalty>
3.52572

> <i_epik_Tot_Q>
1

> <i_epik_Tot_abs_Q>
1

> <r_epik_Metal_State_Penalty>
1.95488

> <b_epik_Metal_Only>
0

> <s_epik_Chemistry_Notes>
This compound contains an electron-poor aromatic ring that is susceptible to covalent hydrolysis at low pH, typically resulting in measured values for nitrogen ring protonation that are around two units higher than predicted values.

> <s_lp_Force_Field>
OPLS_2005

> <r_lp_Energy>
37.0931

> <b_lp_Chiralities_Consistent>
1

> <s_lp_Variant>
AV-unprocessed.smi:45-4

> <Gold.Version>
5.8.1

> <Gold.Id.Protein>
6NUR|6NUR_protein|mol2

> <Gold.PLP.Fitness>
54.8094

> <Gold.PLP.PLP>
-45.1357

> <Gold.PLP.part.hbond>
-5.0000

> <Gold.PLP.part.metal>
0.0000

> <Gold.PLP.part.buried>
-8.1264

> <Gold.PLP.part.nonpolar>
-32.1557

> <Gold.PLP.part.repulsive>
0.2390

> <Gold.PLP.ligand.clash>
0.0000

> <Gold.PLP.ligand.torsion>
3.9344

> <Gold.PLP.Chemscore.Hbond>
5.6860

> <Gold.PLP.Chemscore.CHOScore>
0.0000

> <Gold.PLP.Chemscore.Metal>
0.0000

> <Gold.Chemscore.Hbonds>
donor molecule, donor type, donor heavy atom, donor atom, acceptor molecule, acceptor atom, score
      L1  H    18    52       P1 10171  1.00
      L1  H    19    61       P1  7948  1.92
      P1  H  6896  6907       L1    23  1.00
      P1  H  6931  6943       L1    31  1.00
      P1  H  6934  6947       L1    31  0.49

> <Gold.PLP.Chemscore.Internal.Correction>
0.4846

> <Gold.Rescore>
     Score         DG    S(hbond)    S(metal)    S(lipo)     H(rot)  DE(clash)    DE(int)     intcor
     14.72     -21.45       3.84        0.00      91.19       2.94       0.00       6.73       ----

> <Gold.Chemscore.Fitness>
14.7228

> <Gold.Chemscore.DG>
-21.4548

> <Gold.Chemscore.ZeroCoef>
-5.4800

> <Gold.Chemscore.Hbond>
3.8413

> <Gold.Chemscore.Metal>
0.0000

> <Gold.Chemscore.Lipo>
91.1949

> <Gold.Chemscore.Internal_Hbond>
0.0000

> <Gold.Chemscore.DEClash>
0.0015

> <Gold.Chemscore.DEInternal>
6.7305

> <Gold.Chemscore.Rot>
2.9395

> <Gold.Chemscore.Internal.Correction>
   9.000000E+99

> <Gold.Chemscore.Hbonds>
donor molecule, donor type, donor heavy atom, donor atom, acceptor molecule, acceptor atom, score
      L1  H    18    52       P1 10171  0.96
      L1  H    19    61       P1  7948  0.55
      P1  H  6896  6907       L1    23  1.00
      P1  H  6931  6943       L1    31  0.79
      P1  H  6934  6947       L1    31  0.20

> <Gold.Chemscore.Hbond.Weighted>
-12.8301

> <Gold.Chemscore.Metal.Weighted>
-0.0000

> <Gold.Chemscore.Lipo.Weighted>
-10.6698

> <Gold.Chemscore.Internal_Hbond.Weighted>
0.0000

> <Gold.Chemscore.DEClash.Weighted>
0.0015

> <Gold.Chemscore.DEInternal.Weighted>
6.7305

> <Gold.Chemscore.Rot.Weighted>
7.5251

> <Gold.Chemscore.Internal.Correction.Weighted>
   9.000000E+99

> <Gold.Protein.RotatedTorsions>
[ 6907 6896 6895 6894 ] final  -77.20 input  -60.11 | X-H torsion
[ 7974 7965 7964 7962 ] final   98.25 input  175.53 | X-H torsion
[ 8008 7997 7996 7995 ] final   98.69 input   59.86 | X-H torsion
[ 10167 10162 10161 10158 ] final   84.90 input  -65.29 | X-H torsion
[ 10718 10713 10712 10709 ] final   69.39 input   66.30 | X-H torsion
[ 10763 10752 10751 10750 ] final   99.95 input  -60.55 | X-H torsion
[ 11005 11000 10999 10996 ] final   43.01 input  -57.11 | X-H torsion

> <Gold.Protein.ActiveResidues>
 VAL166  LYS551  ARG553  GLY616  TRP617  ASP618  TYR619  PRO620  LYS621  CYS622 
 ASP623  PHE694  ASN695  SER759  ASP760  ASP761  ALA762  ILE779  LEU786  VAL792 
 PHE793  MET794  SER795  GLU796  ALA797  LYS798  CYS799  TRP800  GLU811  SER814 

> <Gold.Protein.RotatedAtoms>
  150.7005  134.4458  159.5312 H   0  0  0  0  0  0  0  0  0  0  0  0  # atno 6907 bound_to 6896
  152.2159  134.8455  160.0501 H   0  0  0  0  0  0  0  0  0  0  0  0  # atno 6908 bound_to 6896
  151.9323  133.3579  159.3972 H   0  0  0  0  0  0  0  0  0  0  0  0  # atno 6909 bound_to 6896
  145.4146  139.2329  143.3229 H   0  0  0  0  0  0  0  0  0  0  0  0  # atno 7974 bound_to 7965
  156.1030  140.3240  155.7967 H   0  0  0  0  0  0  0  0  0  0  0  0  # atno 8008 bound_to 7997
  155.4805  140.0553  157.2985 H   0  0  0  0  0  0  0  0  0  0  0  0  # atno 8009 bound_to 7997
  154.4709  140.2011  156.0012 H   0  0  0  0  0  0  0  0  0  0  0  0  # atno 8010 bound_to 7997
  139.9033  144.6316  150.8614 H   0  0  0  0  0  0  0  0  0  0  0  0  # atno 10167 bound_to 10162
  157.6343  130.9423  150.0506 H   0  0  0  0  0  0  0  0  0  0  0  0  # atno 10718 bound_to 10713
  153.3078  135.4095  155.1309 H   0  0  0  0  0  0  0  0  0  0  0  0  # atno 10763 bound_to 10752
  154.8567  135.3557  154.5764 H   0  0  0  0  0  0  0  0  0  0  0  0  # atno 10764 bound_to 10752
  153.6192  135.7065  153.5376 H   0  0  0  0  0  0  0  0  0  0  0  0  # atno 10765 bound_to 10752
  140.1685  134.4252  155.8272 H   0  0  0  0  0  0  0  0  0  0  0  0  # atno 11005 bound_to 11000
  146.2687  140.4863  142.8823 LP  0  0  0  0  0  0  0  0  0  0  0  0  # atno 17320 bound_to 7965
  144.8286  140.6669  143.6306 LP  0  0  0  0  0  0  0  0  0  0  0  0  # atno 17321 bound_to 7965
  140.7702  143.3420  151.2188 LP  0  0  0  0  0  0  0  0  0  0  0  0  # atno 17342 bound_to 10162
  139.7006  143.9539  152.2903 LP  0  0  0  0  0  0  0  0  0  0  0  0  # atno 17343 bound_to 10162
  156.1569  130.3643  149.9355 LP  0  0  0  0  0  0  0  0  0  0  0  0  # atno 17370 bound_to 10713
  156.7362  130.9062  151.3629 LP  0  0  0  0  0  0  0  0  0  0  0  0  # atno 17371 bound_to 10713
  141.2215  133.6945  156.7721 LP  0  0  0  0  0  0  0  0  0  0  0  0  # atno 17394 bound_to 11000
  140.2405  134.8617  157.3569 LP  0  0  0  0  0  0  0  0  0  0  0  0  # atno 17395 bound_to 11000

$$$$
