AV-unprocessed.smi:1596|AV-procd|sdf|6417|dock7
  -GOLD-   22720 7 53D 1   1.00000     0.00000
 Structure written by MMmdl.
 49 50  0  0  0  0  0  0  0  0  2 V2000
  153.2046  143.1301  159.6622 C   0  0  0  0  0  0  0  0  0  0  0  0
  152.7222  142.1437  158.5881 C   0  0  0  0  0  0  0  0  0  0  0  0
  151.7404  142.7246  157.6687 N   0  0  0  0  0  0  0  0  0  0  0  0
  151.2755  144.0946  157.8869 C   0  0  0  0  0  0  0  0  0  0  0  0
  150.4677  144.2634  159.1825 C   0  0  0  0  0  0  0  0  0  0  0  0
  151.1178  141.9078  156.6928 C   0  0  0  0  0  0  0  0  0  0  0  0
  151.7218  140.7530  156.1344 C   0  0  0  0  0  0  0  0  0  0  0  0
  151.0324  139.9935  155.1668 C   0  0  0  0  0  0  0  0  0  0  0  0
  149.7372  140.3780  154.7638 C   0  0  0  0  0  0  0  0  0  0  0  0
  149.0859  139.5920  153.7749 N   0  0  0  0  0  0  0  0  0  0  0  0
  147.7861  139.2580  153.6967 C   0  0  0  0  0  0  0  0  0  0  0  0
  146.9258  139.5536  154.5260 O   0  0  0  0  0  0  0  0  0  0  0  0
  147.5351  138.5358  152.5953 N   0  0  0  0  0  0  0  0  0  0  0  0
  146.2295  138.0033  152.2159 C   0  0  2  0  0  0  0  0  0  0  0  0
  145.6399  137.2003  153.3897 C   0  0  0  0  0  0  0  0  0  0  0  0
  144.2811  136.5776  153.0241 C   0  0  0  0  0  0  0  0  0  0  0  0
  144.3573  135.7186  151.7478 C   0  0  2  0  0  0  0  0  0  0  0  0
  145.0969  134.5402  152.0007 O   0  0  0  0  0  0  0  0  0  0  0  0
  144.9887  136.4974  150.5786 C   0  0  0  0  0  0  0  0  0  0  0  0
  146.3440  137.1204  150.9562 C   0  0  0  0  0  0  0  0  0  0  0  0
  149.1783  141.5424  155.3402 C   0  0  0  0  0  0  0  0  0  0  0  0
  149.8759  142.2405  156.2618 N   0  3  0  0  0  0  0  0  0  0  0  0
  153.9071  142.6435  160.3388 H   0  0  0  0  0  0  0  0  0  0  0  0
  152.3771  143.5067  160.2637 H   0  0  0  0  0  0  0  0  0  0  0  0
  153.7170  143.9852  159.2238 H   0  0  0  0  0  0  0  0  0  0  0  0
  153.5822  141.7977  158.0141 H   0  0  0  0  0  0  0  0  0  0  0  0
  152.3126  141.2488  159.0576 H   0  0  0  0  0  0  0  0  0  0  0  0
  152.1419  144.7556  157.9254 H   0  0  0  0  0  0  0  0  0  0  0  0
  150.6978  144.4358  157.0283 H   0  0  0  0  0  0  0  0  0  0  0  0
  150.1144  145.2898  159.2806 H   0  0  0  0  0  0  0  0  0  0  0  0
  151.0698  144.0436  160.0629 H   0  0  0  0  0  0  0  0  0  0  0  0
  149.5940  143.6120  159.2032 H   0  0  0  0  0  0  0  0  0  0  0  0
  152.7103  140.4321  156.4247 H   0  0  0  0  0  0  0  0  0  0  0  0
  151.4988  139.1166  154.7419 H   0  0  0  0  0  0  0  0  0  0  0  0
  149.6866  139.2053  153.0614 H   0  0  0  0  0  0  0  0  0  0  0  0
  148.3024  138.3367  151.9702 H   0  0  0  0  0  0  0  0  0  0  0  0
  145.5571  138.8370  152.0036 H   0  0  0  0  0  0  0  0  0  0  0  0
  146.3333  136.4110  153.6840 H   0  0  0  0  0  0  0  0  0  0  0  0
  145.5219  137.8451  154.2614 H   0  0  0  0  0  0  0  0  0  0  0  0
  143.9040  135.9836  153.8575 H   0  0  0  0  0  0  0  0  0  0  0  0
  143.5564  137.3781  152.8702 H   0  0  0  0  0  0  0  0  0  0  0  0
  143.3505  135.4076  151.4673 H   0  0  0  0  0  0  0  0  0  0  0  0
  144.5038  133.8045  151.9850 H   0  0  0  0  0  0  0  0  0  0  0  0
  145.1032  135.8494  149.7090 H   0  0  0  0  0  0  0  0  0  0  0  0
  144.3083  137.2942  150.2753 H   0  0  0  0  0  0  0  0  0  0  0  0
  146.7170  137.7074  150.1163 H   0  0  0  0  0  0  0  0  0  0  0  0
  147.0752  136.3286  151.1245 H   0  0  0  0  0  0  0  0  0  0  0  0
  148.2107  141.9551  155.0978 H   0  0  0  0  0  0  0  0  0  0  0  0
  149.4399  143.0743  156.6562 H   0  0  0  0  0  0  0  0  0  0  0  0
  1  2  1  0  0  0  0
  1 23  1  0  0  0  0
  1 24  1  0  0  0  0
  1 25  1  0  0  0  0
  2  3  1  0  0  0  0
  2 26  1  0  0  0  0
  2 27  1  0  0  0  0
  3  4  1  0  0  0  0
  3  6  1  0  0  0  0
  4  5  1  0  0  0  0
  4 28  1  0  0  0  0
  4 29  1  0  0  0  0
  5 30  1  0  0  0  0
  5 31  1  0  0  0  0
  5 32  1  0  0  0  0
  6 22  1  0  0  0  0
  6  7  2  0  0  0  0
  7  8  1  0  0  0  0
  7 33  1  0  0  0  0
  8  9  2  0  0  0  0
  8 34  1  0  0  0  0
  9 10  1  0  0  0  0
  9 21  1  0  0  0  0
 10 11  1  0  0  0  0
 10 35  1  0  0  0  0
 11 12  2  0  0  0  0
 11 13  1  0  0  0  0
 13 14  1  0  0  0  0
 13 36  1  0  0  0  0
 14 20  1  0  0  0  0
 14 15  1  0  0  0  0
 14 37  1  0  0  0  0
 15 16  1  0  0  0  0
 15 38  1  0  0  0  0
 15 39  1  0  0  0  0
 16 17  1  0  0  0  0
 16 40  1  0  0  0  0
 16 41  1  0  0  0  0
 17 18  1  0  0  0  0
 17 19  1  0  0  0  0
 17 42  1  0  0  0  0
 18 43  1  0  0  0  0
 19 20  1  0  0  0  0
 19 44  1  0  0  0  0
 19 45  1  0  0  0  0
 20 46  1  0  0  0  0
 20 47  1  0  0  0  0
 21 22  2  0  0  0  0
 21 48  1  0  0  0  0
 22 49  1  0  0  0  0
M  CHG  1  22   1
M  END
> <s_m_source_file>
AV-unprocessed.smi

> <i_m_source_file_index>
1596

> <i_lp_mmshare_version>
43012

> <i_f3d_flags>
0

> <s_epik_input>
W0NIM11bQ0gyXU4oW0NIMl1bQ0gzXSljMVtjSF1bY0hdYyhbY0hdbjEpW05IXUMoPU8pW05IXVtDQEBIXTJbQ0gyXVtDSDJdW0NAQEhdKFtPSF0pW0NIMl1bQ0gyXTI=

> <s_epik_cmdline>
J2VwaWtfcHl0aG9uJywgJy1waCcsICc3LjAnLCAnLXRuJywgJzgnLCAnLW1hJywgJzIwMCcsICctbWV0YWxfYmluZGluZycsICctaW1hZScsICc8aW5maWxlLm1hZT4nLCAnLW9tYWUnLCAnPG91dGZpbGUubWFlPic=

> <r_lp_tautomer_probability>
0.999994

> <r_epik_Ionization_Penalty>
0.224167

> <r_epik_Ionization_Penalty_Charging>
0.224146

> <r_epik_Ionization_Penalty_Neutral>
2.1696e-05

> <r_epik_State_Penalty>
0.0144855

> <r_epik_Charging_Adjusted_Penalty>
0.238631

> <i_epik_Tot_Q>
1

> <i_epik_Tot_abs_Q>
1

> <r_epik_Metal_State_Penalty>
0.0446449

> <b_epik_Metal_Only>
0

> <s_lp_Force_Field>
OPLS_2005

> <r_lp_Energy>
23.6459

> <b_lp_Chiralities_Consistent>
1

> <s_lp_Variant>
AV-unprocessed.smi:1596-2

> <Gold.Version>
5.8.1

> <Gold.Id.Protein>
6NUR|6NUR_protein|mol2

> <Gold.PLP.Fitness>
46.1260

> <Gold.PLP.PLP>
-38.7857

> <Gold.PLP.part.hbond>
-3.8766

> <Gold.PLP.part.metal>
0.0000

> <Gold.PLP.part.buried>
2.4013

> <Gold.PLP.part.nonpolar>
-39.4079

> <Gold.PLP.part.repulsive>
0.3727

> <Gold.PLP.ligand.clash>
0.0000

> <Gold.PLP.ligand.torsion>
0.7056

> <Gold.PLP.Chemscore.Hbond>
2.8800

> <Gold.PLP.Chemscore.CHOScore>
0.0000

> <Gold.PLP.Chemscore.Metal>
0.0000

> <Gold.Chemscore.Hbonds>
donor molecule, donor type, donor heavy atom, donor atom, acceptor molecule, acceptor atom, score
      L1  H    10    35       P1  7957  0.34
      L1  H    13    36       P1  7948  0.23
      L1  H    22    49       P1  8028  1.09

> <Gold.PLP.Chemscore.Internal.Correction>
0.1115

> <Gold.Rescore>
     Score         DG    S(hbond)    S(metal)    S(lipo)     H(rot)  DE(clash)    DE(int)     intcor
     14.60     -19.15       1.88        0.00     103.32       1.83       2.79       1.76       ----

> <Gold.Chemscore.Fitness>
14.5971

> <Gold.Chemscore.DG>
-19.1515

> <Gold.Chemscore.ZeroCoef>
-5.4800

> <Gold.Chemscore.Hbond>
1.8778

> <Gold.Chemscore.Metal>
0.0000

> <Gold.Chemscore.Lipo>
103.3238

> <Gold.Chemscore.Internal_Hbond>
0.0000

> <Gold.Chemscore.DEClash>
2.7895

> <Gold.Chemscore.DEInternal>
1.7649

> <Gold.Chemscore.Rot>
1.8317

> <Gold.Chemscore.Internal.Correction>
   9.000000E+99

> <Gold.Chemscore.Hbonds>
donor molecule, donor type, donor heavy atom, donor atom, acceptor molecule, acceptor atom, score
      L1  H    10    35       P1  7957  0.33
      L1  H    13    36       P1  7948  0.23
      L1  H    22    49       P1  8028  0.52

> <Gold.Chemscore.Hbond.Weighted>
-6.2718

> <Gold.Chemscore.Metal.Weighted>
-0.0000

> <Gold.Chemscore.Lipo.Weighted>
-12.0889

> <Gold.Chemscore.Internal_Hbond.Weighted>
0.0000

> <Gold.Chemscore.DEClash.Weighted>
2.7895

> <Gold.Chemscore.DEInternal.Weighted>
1.7649

> <Gold.Chemscore.Rot.Weighted>
4.6892

> <Gold.Chemscore.Internal.Correction.Weighted>
   9.000000E+99

> <Gold.Protein.RotatedTorsions>
[ 6907 6896 6895 6894 ] final   -5.61 input  -60.11 | X-H torsion
[ 7974 7965 7964 7962 ] final  -16.79 input  175.53 | X-H torsion
[ 8008 7997 7996 7995 ] final -179.51 input   59.86 | X-H torsion
[ 10167 10162 10161 10158 ] final   59.43 input  -65.29 | X-H torsion
[ 10718 10713 10712 10709 ] final  -46.76 input   66.30 | X-H torsion
[ 10763 10752 10751 10750 ] final  140.92 input  -60.55 | X-H torsion
[ 11005 11000 10999 10996 ] final   97.81 input  -57.11 | X-H torsion

> <Gold.Protein.ActiveResidues>
 VAL166  LYS551  ARG553  GLY616  TRP617  ASP618  TYR619  PRO620  LYS621  CYS622 
 ASP623  PHE694  ASN695  SER759  ASP760  ASP761  ALA762  ILE779  LEU786  VAL792 
 PHE793  MET794  SER795  GLU796  ALA797  LYS798  CYS799  TRP800  GLU811  SER814 

> <Gold.Protein.RotatedAtoms>
  151.4788  135.1051  159.9771 H   0  0  0  0  0  0  0  0  0  0  0  0  # atno 6907 bound_to 6896
  152.4787  133.8197  159.7058 H   0  0  0  0  0  0  0  0  0  0  0  0  # atno 6908 bound_to 6896
  150.8843  133.7267  159.2949 H   0  0  0  0  0  0  0  0  0  0  0  0  # atno 6909 bound_to 6896
  146.1971  140.3687  142.8436 H   0  0  0  0  0  0  0  0  0  0  0  0  # atno 7974 bound_to 7965
  156.0313  140.1283  157.0255 H   0  0  0  0  0  0  0  0  0  0  0  0  # atno 8008 bound_to 7997
  154.4351  140.1049  156.6174 H   0  0  0  0  0  0  0  0  0  0  0  0  # atno 8009 bound_to 7997
  155.5802  140.3468  155.4540 H   0  0  0  0  0  0  0  0  0  0  0  0  # atno 8010 bound_to 7997
  140.1765  144.4224  150.6636 H   0  0  0  0  0  0  0  0  0  0  0  0  # atno 10167 bound_to 10162
  156.2151  130.4163  149.9064 H   0  0  0  0  0  0  0  0  0  0  0  0  # atno 10718 bound_to 10713
  153.9307  135.2990  155.3446 H   0  0  0  0  0  0  0  0  0  0  0  0  # atno 10763 bound_to 10752
  154.7528  135.4972  153.9323 H   0  0  0  0  0  0  0  0  0  0  0  0  # atno 10764 bound_to 10752
  153.1093  135.6755  153.9634 H   0  0  0  0  0  0  0  0  0  0  0  0  # atno 10765 bound_to 10752
  139.8774  134.9019  156.4362 H   0  0  0  0  0  0  0  0  0  0  0  0  # atno 11005 bound_to 11000
  144.8604  140.7130  143.6111 LP  0  0  0  0  0  0  0  0  0  0  0  0  # atno 17320 bound_to 7965
  145.3607  139.1682  143.4385 LP  0  0  0  0  0  0  0  0  0  0  0  0  # atno 17321 bound_to 7965
  140.6548  143.2234  151.5995 LP  0  0  0  0  0  0  0  0  0  0  0  0  # atno 17342 bound_to 10162
  139.5315  144.2903  152.1157 LP  0  0  0  0  0  0  0  0  0  0  0  0  # atno 17343 bound_to 10162
  156.6730  130.8827  151.3565 LP  0  0  0  0  0  0  0  0  0  0  0  0  # atno 17370 bound_to 10713
  157.7059  130.9384  150.0929 LP  0  0  0  0  0  0  0  0  0  0  0  0  # atno 17371 bound_to 10713
  140.9031  133.7765  155.9704 LP  0  0  0  0  0  0  0  0  0  0  0  0  # atno 17394 bound_to 11000
  140.8629  134.2819  157.5226 LP  0  0  0  0  0  0  0  0  0  0  0  0  # atno 17395 bound_to 11000

$$$$
