AV-unprocessed.smi:2415|AV-procd|sdf|9542|dock1
  -GOLD-   2272013173D 1   1.00000     0.00000
 Structure written by MMmdl.
 33 34  0  0  0  0  0  0  0  0  1 V2000
  154.8624  139.6211  160.0027 C   0  0  0  0  0  0  0  0  0  0  0  0
  153.7474  140.4668  159.4263 C   0  0  0  0  0  0  0  0  0  0  0  0
  153.3889  141.7048  159.9984 C   0  0  0  0  0  0  0  0  0  0  0  0
  152.3356  142.3967  159.3662 C   0  0  0  0  0  0  0  0  0  0  0  0
  151.8507  143.7372  159.8747 C   0  0  0  0  0  0  0  0  0  0  0  0
  151.7102  141.8999  158.2771 N   0  0  0  0  0  0  0  0  0  0  0  0
  152.1214  140.7079  157.8226 C   0  0  0  0  0  0  0  0  0  0  0  0
  151.4932  140.1837  156.6940 N   0  0  0  0  0  0  0  0  0  0  0  0
  152.4137  139.7204  155.6559 C   0  0  0  0  0  0  0  0  0  0  0  0
  151.6942  138.8416  154.6246 C   0  0  0  0  0  0  0  0  0  0  0  0
  150.6089  139.5724  154.0741 O   0  0  0  0  0  0  0  0  0  0  0  0
  149.6454  139.8886  155.0697 C   0  0  0  0  0  0  0  0  0  0  0  0
  150.2600  140.7927  156.1654 C   0  0  1  0  0  0  0  0  0  0  0  0
  149.1656  141.0609  157.2162 C   0  0  0  0  0  0  0  0  0  0  0  0
  148.6663  142.2984  157.2701 N   0  0  0  0  0  0  0  0  0  0  0  0
  148.7678  140.1635  157.9574 O   0  0  0  0  0  0  0  0  0  0  0  0
  153.1145  139.9748  158.3389 N   0  0  0  0  0  0  0  0  0  0  0  0
  155.3844  140.1495  160.8009 H   0  0  0  0  0  0  0  0  0  0  0  0
  155.5886  139.3697  159.2293 H   0  0  0  0  0  0  0  0  0  0  0  0
  154.4602  138.6943  160.4125 H   0  0  0  0  0  0  0  0  0  0  0  0
  153.8915  142.1002  160.8689 H   0  0  0  0  0  0  0  0  0  0  0  0
  152.2613  143.9544  160.8611 H   0  0  0  0  0  0  0  0  0  0  0  0
  150.7627  143.7464  159.9498 H   0  0  0  0  0  0  0  0  0  0  0  0
  152.1560  144.5315  159.1935 H   0  0  0  0  0  0  0  0  0  0  0  0
  152.8543  140.5881  155.1628 H   0  0  0  0  0  0  0  0  0  0  0  0
  153.2386  139.1537  156.0897 H   0  0  0  0  0  0  0  0  0  0  0  0
  152.3791  138.5659  153.8227 H   0  0  0  0  0  0  0  0  0  0  0  0
  151.3404  137.9133  155.0764 H   0  0  0  0  0  0  0  0  0  0  0  0
  148.8107  140.3954  154.5839 H   0  0  0  0  0  0  0  0  0  0  0  0
  149.2462  138.9652  155.4946 H   0  0  0  0  0  0  0  0  0  0  0  0
  150.5405  141.7428  155.7064 H   0  0  0  0  0  0  0  0  0  0  0  0
  147.9419  142.5209  157.9371 H   0  0  0  0  0  0  0  0  0  0  0  0
  149.0113  143.0051  156.6369 H   0  0  0  0  0  0  0  0  0  0  0  0
  1  2  1  0  0  0  0
  1 18  1  0  0  0  0
  1 19  1  0  0  0  0
  1 20  1  0  0  0  0
  2 17  1  0  0  0  0
  2  3  2  0  0  0  0
  3  4  1  0  0  0  0
  3 21  1  0  0  0  0
  4  5  1  0  0  0  0
  4  6  2  0  0  0  0
  5 22  1  0  0  0  0
  5 23  1  0  0  0  0
  5 24  1  0  0  0  0
  6  7  1  0  0  0  0
  7  8  1  0  0  0  0
  7 17  2  0  0  0  0
  8 13  1  0  0  0  0
  8  9  1  0  0  0  0
  9 10  1  0  0  0  0
  9 25  1  0  0  0  0
  9 26  1  0  0  0  0
 10 11  1  0  0  0  0
 10 27  1  0  0  0  0
 10 28  1  0  0  0  0
 11 12  1  0  0  0  0
 12 13  1  0  0  0  0
 12 29  1  0  0  0  0
 12 30  1  0  0  0  0
 13 14  1  0  0  0  0
 13 31  1  0  0  0  0
 14 15  1  0  0  0  0
 14 16  2  0  0  0  0
 15 32  1  0  0  0  0
 15 33  1  0  0  0  0
M  END
> <s_m_source_file>
AV-unprocessed.smi

> <i_m_source_file_index>
2415

> <i_lp_mmshare_version>
43012

> <i_f3d_flags>
0

> <s_epik_input>
W0NIM11jMVtjSF1jKFtDSDNdKW5jKG4xKU4yW0NIMl1bQ0gyXU9bQ0gyXVtDQEhdMkMoPU8pW05IMl0=

> <s_epik_cmdline>
J2VwaWtfcHl0aG9uJywgJy1waCcsICc3LjAnLCAnLXRuJywgJzgnLCAnLW1hJywgJzIwMCcsICctbWV0YWxfYmluZGluZycsICctaW1hZScsICc8aW5maWxlLm1hZT4nLCAnLW9tYWUnLCAnPG91dGZpbGUubWFlPic=

> <r_lp_tautomer_probability>
1

> <r_epik_Ionization_Penalty>
2.01639e-05

> <r_epik_Ionization_Penalty_Charging>
0

> <r_epik_Ionization_Penalty_Neutral>
2.01639e-05

> <r_epik_State_Penalty>
-0

> <r_epik_Charging_Adjusted_Penalty>
0

> <i_epik_Tot_Q>
0

> <i_epik_Tot_abs_Q>
0

> <r_epik_Metal_State_Penalty>
-0

> <b_epik_Metal_Only>
0

> <s_lp_Force_Field>
OPLS_2005

> <r_lp_Energy>
9.24332

> <b_lp_Chiralities_Consistent>
1

> <s_lp_Variant>
AV-unprocessed.smi:2415-1

> <Gold.Version>
5.8.1

> <Gold.Id.Protein>
6NUR|6NUR_protein|mol2

> <Gold.PLP.Fitness>
38.7336

> <Gold.PLP.PLP>
-30.3911

> <Gold.PLP.part.hbond>
-3.0668

> <Gold.PLP.part.metal>
0.0000

> <Gold.PLP.part.buried>
-2.3727

> <Gold.PLP.part.nonpolar>
-24.8583

> <Gold.PLP.part.repulsive>
0.2136

> <Gold.PLP.ligand.clash>
0.0000

> <Gold.PLP.ligand.torsion>
0.3553

> <Gold.PLP.Chemscore.Hbond>
2.8713

> <Gold.PLP.Chemscore.CHOScore>
0.0000

> <Gold.PLP.Chemscore.Metal>
0.0000

> <Gold.Chemscore.Hbonds>
donor molecule, donor type, donor heavy atom, donor atom, acceptor molecule, acceptor atom, score
      L1  H    15    33       P1  8028  1.00
      P1  H  7989  7998       L1    11  0.70
      P1  H  7997  8009       L1    17  0.95

> <Gold.PLP.Chemscore.Internal.Correction>
0.4393

> <Gold.Rescore>
     Score         DG    S(hbond)    S(metal)    S(lipo)     H(rot)  DE(clash)    DE(int)     intcor
     13.11     -15.20       1.41        0.00      74.43       1.44       0.37       1.71       ----

> <Gold.Chemscore.Fitness>
13.1137

> <Gold.Chemscore.DG>
-15.1952

> <Gold.Chemscore.ZeroCoef>
-5.4800

> <Gold.Chemscore.Hbond>
1.4065

> <Gold.Chemscore.Metal>
0.0000

> <Gold.Chemscore.Lipo>
74.4318

> <Gold.Chemscore.Internal_Hbond>
0.0000

> <Gold.Chemscore.DEClash>
0.3673

> <Gold.Chemscore.DEInternal>
1.7142

> <Gold.Chemscore.Rot>
1.4419

> <Gold.Chemscore.Internal.Correction>
   9.000000E+99

> <Gold.Chemscore.Hbonds>
donor molecule, donor type, donor heavy atom, donor atom, acceptor molecule, acceptor atom, score
      L1  H    15    33       P1  8028  0.93
      P1  H  7989  7998       L1    11  0.07
      P1  H  7997  8009       L1    17  0.12

> <Gold.Chemscore.Hbond.Weighted>
-4.6978

> <Gold.Chemscore.Metal.Weighted>
-0.0000

> <Gold.Chemscore.Lipo.Weighted>
-8.7085

> <Gold.Chemscore.Internal_Hbond.Weighted>
0.0000

> <Gold.Chemscore.DEClash.Weighted>
0.3673

> <Gold.Chemscore.DEInternal.Weighted>
1.7142

> <Gold.Chemscore.Rot.Weighted>
3.6912

> <Gold.Chemscore.Internal.Correction.Weighted>
   9.000000E+99

> <Gold.Protein.RotatedTorsions>
[ 6907 6896 6895 6894 ] final -136.65 input  -60.11 | X-H torsion
[ 7974 7965 7964 7962 ] final  -37.49 input  175.53 | X-H torsion
[ 8008 7997 7996 7995 ] final  153.21 input   59.86 | X-H torsion
[ 10167 10162 10161 10158 ] final  108.68 input  -65.29 | X-H torsion
[ 10718 10713 10712 10709 ] final   67.46 input   66.30 | X-H torsion
[ 10763 10752 10751 10750 ] final  168.33 input  -60.55 | X-H torsion
[ 11005 11000 10999 10996 ] final  -97.31 input  -57.11 | X-H torsion

> <Gold.Protein.ActiveResidues>
 VAL166  LYS551  ARG553  GLY616  TRP617  ASP618  TYR619  PRO620  LYS621  CYS622 
 ASP623  PHE694  ASN695  SER759  ASP760  ASP761  ALA762  ILE779  LEU786  VAL792 
 PHE793  MET794  SER795  GLU796  ALA797  LYS798  CYS799  TRP800  GLU811  SER814 

> <Gold.Protein.RotatedAtoms>
  151.0127  133.5950  159.2680 H   0  0  0  0  0  0  0  0  0  0  0  0  # atno 6907 bound_to 6896
  151.3096  135.0789  159.9277 H   0  0  0  0  0  0  0  0  0  0  0  0  # atno 6908 bound_to 6896
  152.5303  133.9794  159.7853 H   0  0  0  0  0  0  0  0  0  0  0  0  # atno 6909 bound_to 6896
  146.0570  140.6402  142.9015 H   0  0  0  0  0  0  0  0  0  0  0  0  # atno 7974 bound_to 7965
  156.2592  140.2000  156.6454 H   0  0  0  0  0  0  0  0  0  0  0  0  # atno 8008 bound_to 7997
  154.6577  140.0564  157.0052 H   0  0  0  0  0  0  0  0  0  0  0  0  # atno 8009 bound_to 7997
  155.1323  140.3235  155.4474 H   0  0  0  0  0  0  0  0  0  0  0  0  # atno 8010 bound_to 7997
  139.6827  144.7116  151.1487 H   0  0  0  0  0  0  0  0  0  0  0  0  # atno 10167 bound_to 10162
  157.6231  130.9322  150.0245 H   0  0  0  0  0  0  0  0  0  0  0  0  # atno 10718 bound_to 10713
  154.3669  135.2753  155.2288 H   0  0  0  0  0  0  0  0  0  0  0  0  # atno 10763 bound_to 10752
  154.4452  135.5944  153.6159 H   0  0  0  0  0  0  0  0  0  0  0  0  # atno 10764 bound_to 10752
  152.9840  135.6028  154.3896 H   0  0  0  0  0  0  0  0  0  0  0  0  # atno 10765 bound_to 10752
  141.1383  133.8161  157.0689 H   0  0  0  0  0  0  0  0  0  0  0  0  # atno 11005 bound_to 11000
  144.7153  140.4189  143.7049 LP  0  0  0  0  0  0  0  0  0  0  0  0  # atno 17320 bound_to 7965
  145.6626  139.1584  143.2800 LP  0  0  0  0  0  0  0  0  0  0  0  0  # atno 17321 bound_to 7965
  140.7657  143.5675  150.9031 LP  0  0  0  0  0  0  0  0  0  0  0  0  # atno 17342 bound_to 10162
  139.9348  143.6451  152.3068 LP  0  0  0  0  0  0  0  0  0  0  0  0  # atno 17343 bound_to 10162
  156.1388  130.3642  149.9615 LP  0  0  0  0  0  0  0  0  0  0  0  0  # atno 17370 bound_to 10713
  156.7660  130.9169  151.3643 LP  0  0  0  0  0  0  0  0  0  0  0  0  # atno 17371 bound_to 10713
  140.0524  134.9798  157.1160 LP  0  0  0  0  0  0  0  0  0  0  0  0  # atno 17394 bound_to 11000
  140.3970  134.2123  155.7164 LP  0  0  0  0  0  0  0  0  0  0  0  0  # atno 17395 bound_to 11000

$$$$
