AV-unprocessed.smi:35|AV-procd|sdf|265|dock1
  -GOLD-   2262016 33D 1   1.00000     0.00000
 Structure written by MMmdl.
 28 29  0  0  0  0  0  0  0  0  2 V2000
  152.7399  140.1711  157.6360 O   0  0  0  0  0  0  0  0  0  0  0  0
  151.8933  140.2053  156.7446 C   0  0  0  0  0  0  0  0  0  0  0  0
  151.7113  139.1863  155.8556 N   0  5  0  0  0  0  0  0  0  0  0  0
  150.7723  139.2298  154.8646 C   0  0  0  0  0  0  0  0  0  0  0  0
  150.5859  138.3040  154.0753 O   0  0  0  0  0  0  0  0  0  0  0  0
  149.9613  140.3911  154.7374 N   0  0  0  0  0  0  0  0  0  0  0  0
  148.9127  140.4559  153.6485 C   0  0  2  0  0  0  0  0  0  0  0  0
  148.1628  141.6262  153.8120 O   0  0  0  0  0  0  0  0  0  0  0  0
  146.7737  141.3221  153.8884 C   0  0  2  0  0  0  0  0  0  0  0  0
  146.0736  142.3643  154.7747 C   0  0  0  0  0  0  0  0  0  0  0  0
  144.6707  142.2283  154.6894 O   0  0  0  0  0  0  0  0  0  0  0  0
  146.7428  139.8907  154.4280 C   0  0  1  0  0  0  0  0  0  0  0  0
  145.5346  139.2108  154.1437 O   0  0  0  0  0  0  0  0  0  0  0  0
  147.9575  139.2574  153.7603 C   0  0  1  0  0  0  0  0  0  0  0  0
  147.6656  138.7255  152.4810 O   0  0  0  0  0  0  0  0  0  0  0  0
  150.1101  141.4328  155.6373 C   0  0  0  0  0  0  0  0  0  0  0  0
  151.0334  141.3789  156.6180 C   0  0  0  0  0  0  0  0  0  0  0  0
  151.1321  142.9407  157.8333 Br  0  0  0  0  0  0  0  0  0  0  0  0
  149.4544  140.5107  152.7030 H   0  0  0  0  0  0  0  0  0  0  0  0
  146.3774  141.3530  152.8717 H   0  0  0  0  0  0  0  0  0  0  0  0
  146.3899  142.2735  155.8142 H   0  0  0  0  0  0  0  0  0  0  0  0
  146.3378  143.3695  154.4454 H   0  0  0  0  0  0  0  0  0  0  0  0
  144.4736  141.4994  154.1210 H   0  0  0  0  0  0  0  0  0  0  0  0
  146.8968  139.9026  155.5079 H   0  0  0  0  0  0  0  0  0  0  0  0
  144.9806  139.7870  153.6393 H   0  0  0  0  0  0  0  0  0  0  0  0
  148.3901  138.4626  154.3695 H   0  0  0  0  0  0  0  0  0  0  0  0
  148.1260  139.2371  151.8339 H   0  0  0  0  0  0  0  0  0  0  0  0
  149.4784  142.3049  155.5651 H   0  0  0  0  0  0  0  0  0  0  0  0
  1  2  2  0  0  0  0
  2 17  1  0  0  0  0
  2  3  1  0  0  0  0
  3  4  1  0  0  0  0
  4  5  2  0  0  0  0
  4  6  1  0  0  0  0
  6  7  1  0  0  0  0
  6 16  1  0  0  0  0
  7 14  1  0  0  0  0
  7  8  1  0  0  0  0
  7 19  1  0  0  0  0
  8  9  1  0  0  0  0
  9 10  1  0  0  0  0
  9 12  1  0  0  0  0
  9 20  1  0  0  0  0
 10 11  1  0  0  0  0
 10 21  1  0  0  0  0
 10 22  1  0  0  0  0
 11 23  1  0  0  0  0
 12 13  1  0  0  0  0
 12 14  1  0  0  0  0
 12 24  1  0  0  0  0
 13 25  1  0  0  0  0
 14 15  1  0  0  0  0
 14 26  1  0  0  0  0
 15 27  1  0  0  0  0
 16 17  2  0  0  0  0
 16 28  1  0  0  0  0
 17 18  1  0  0  0  0
M  CHG  1   3  -1
M  END
> <s_m_source_file>
AV-unprocessed.smi

> <i_m_source_file_index>
35

> <i_lp_mmshare_version>
43012

> <i_f3d_flags>
0

> <s_epik_input>
Tz1jMVtuSF1jKD1PKW4oW2NIXWMxQnIpW0NAQEhdMk9bQ0BASF0oW0NIMl1bT0hdKVtDQEBIXShbT0hdKVtDQEhdMltPSF0=

> <s_epik_cmdline>
J2VwaWtfcHl0aG9uJywgJy1waCcsICc3LjAnLCAnLXRuJywgJzgnLCAnLW1hJywgJzIwMCcsICctbWV0YWxfYmluZGluZycsICctaW1hZScsICc8aW5maWxlLm1hZT4nLCAnLW9tYWUnLCAnPG91dGZpbGUubWFlPic=

> <r_epik_Ionization_Penalty>
1.06112

> <r_epik_Ionization_Penalty_Charging>
2.1796e-09

> <r_epik_Ionization_Penalty_Neutral>
1.06112

> <r_epik_State_Penalty>
1.11484

> <r_epik_Charging_Adjusted_Penalty>
1.11484

> <i_epik_Tot_Q>
-1

> <i_epik_Tot_abs_Q>
1

> <r_epik_Metal_State_Penalty>
0.0032876

> <b_epik_Metal_Only>
0

> <s_epik_Chemistry_Notes>
This compound contains an acetal/aminal-like group ( X-CH(R)-Y where X, Y are N, S, or O) that may be acid/base labile, releasing an aldehyde.

> <s_lp_Force_Field>
OPLS_2005

> <r_lp_Energy>
41.5323

> <b_lp_Chiralities_Consistent>
1

> <s_lp_Variant>
AV-unprocessed.smi:35-19

> <Gold.Version>
5.8.1

> <Gold.Id.Protein>
6NUR|6NUR_protein|mol2

> <Gold.PLP.Fitness>
44.8198

> <Gold.PLP.PLP>
-30.0004

> <Gold.PLP.part.hbond>
-6.2938

> <Gold.PLP.part.metal>
0.0000

> <Gold.PLP.part.buried>
1.3627

> <Gold.PLP.part.nonpolar>
-25.2278

> <Gold.PLP.part.repulsive>
0.4024

> <Gold.PLP.ligand.clash>
0.0000

> <Gold.PLP.ligand.torsion>
0.1079

> <Gold.PLP.Chemscore.Hbond>
4.0081

> <Gold.PLP.Chemscore.CHOScore>
1.0000

> <Gold.PLP.Chemscore.Metal>
0.0000

> <Gold.Chemscore.Hbonds>
donor molecule, donor type, donor heavy atom, donor atom, acceptor molecule, acceptor atom, score
      L1  H    11    23       P1 10175  0.93
      L1  H    13    25       P1 10175  1.00
      L1  H    15    27       P1  7957  1.00
      P1  H  7997  8010       L1     1  1.00
      P1  H  8011  8017       L1     8  0.01
      L1  C    16    28       P1  8028  1.00

> <Gold.PLP.Chemscore.Internal.Correction>
0.0110

> <Gold.Rescore>
     Score         DG    S(hbond)    S(metal)    S(lipo)     H(rot)  DE(clash)    DE(int)     intcor
      9.29     -12.38       3.37        0.00      42.24       3.63       1.60       1.49       ----

> <Gold.Chemscore.Fitness>
9.2928

> <Gold.Chemscore.DG>
-12.3794

> <Gold.Chemscore.ZeroCoef>
-5.4800

> <Gold.Chemscore.Hbond>
3.3654

> <Gold.Chemscore.Metal>
0.0000

> <Gold.Chemscore.Lipo>
42.2377

> <Gold.Chemscore.Internal_Hbond>
0.0000

> <Gold.Chemscore.DEClash>
1.5997

> <Gold.Chemscore.DEInternal>
1.4869

> <Gold.Chemscore.Rot>
3.6261

> <Gold.Chemscore.Internal.Correction>
   9.000000E+99

> <Gold.Chemscore.Hbonds>
donor molecule, donor type, donor heavy atom, donor atom, acceptor molecule, acceptor atom, score
      L1  H    11    23       P1 10175  0.26
      L1  H    13    25       P1 10175  1.00
      L1  H    15    27       P1  7957  0.97
      P1  H  7997  8010       L1     1  0.53

> <Gold.Chemscore.Hbond.Weighted>
-11.2403

> <Gold.Chemscore.Metal.Weighted>
-0.0000

> <Gold.Chemscore.Lipo.Weighted>
-4.9418

> <Gold.Chemscore.Internal_Hbond.Weighted>
0.0000

> <Gold.Chemscore.DEClash.Weighted>
1.5997

> <Gold.Chemscore.DEInternal.Weighted>
1.4869

> <Gold.Chemscore.Rot.Weighted>
9.2828

> <Gold.Chemscore.Internal.Correction.Weighted>
   9.000000E+99

> <Gold.Protein.RotatedTorsions>
[ 6907 6896 6895 6894 ] final   23.20 input  -60.11 | X-H torsion
[ 7974 7965 7964 7962 ] final  -90.69 input  175.53 | X-H torsion
[ 8008 7997 7996 7995 ] final   53.01 input   59.86 | X-H torsion
[ 10167 10162 10161 10158 ] final  -20.32 input  -65.29 | X-H torsion
[ 10718 10713 10712 10709 ] final  -51.64 input   66.30 | X-H torsion
[ 10763 10752 10751 10750 ] final  110.32 input  -60.55 | X-H torsion
[ 11005 11000 10999 10996 ] final  -34.19 input  -57.11 | X-H torsion

> <Gold.Protein.ActiveResidues>
 VAL166  LYS551  ARG553  GLY616  TRP617  ASP618  TYR619  PRO620  LYS621  CYS622 
 ASP623  PHE694  ASN695  SER759  ASP760  ASP761  ALA762  ILE779  LEU786  VAL792 
 PHE793  MET794  SER795  GLU796  ALA797  LYS798  CYS799  TRP800  GLU811  SER814 

> <Gold.Protein.RotatedAtoms>
  151.9387  135.0223  160.0534 H   0  0  0  0  0  0  0  0  0  0  0  0  # atno 6907 bound_to 6896
  152.2055  133.4868  159.5090 H   0  0  0  0  0  0  0  0  0  0  0  0  # atno 6908 bound_to 6896
  150.6964  134.1452  159.4162 H   0  0  0  0  0  0  0  0  0  0  0  0  # atno 6909 bound_to 6896
  145.4231  140.9552  143.2169 H   0  0  0  0  0  0  0  0  0  0  0  0  # atno 7974 bound_to 7965
  155.4612  140.3462  155.4313 H   0  0  0  0  0  0  0  0  0  0  0  0  # atno 8008 bound_to 7997
  156.1159  140.1474  156.9302 H   0  0  0  0  0  0  0  0  0  0  0  0  # atno 8009 bound_to 7997
  154.4789  140.0876  156.7308 H   0  0  0  0  0  0  0  0  0  0  0  0  # atno 8010 bound_to 7997
  140.7275  143.4733  151.0216 H   0  0  0  0  0  0  0  0  0  0  0  0  # atno 10167 bound_to 10162
  156.1692  130.4149  149.9673 H   0  0  0  0  0  0  0  0  0  0  0  0  # atno 10718 bound_to 10713
  153.4473  135.3752  155.2263 H   0  0  0  0  0  0  0  0  0  0  0  0  # atno 10763 bound_to 10752
  154.8755  135.3877  154.4081 H   0  0  0  0  0  0  0  0  0  0  0  0  # atno 10764 bound_to 10752
  153.4635  135.7087  153.6100 H   0  0  0  0  0  0  0  0  0  0  0  0  # atno 10765 bound_to 10752
  140.9696  133.7117  156.1502 H   0  0  0  0  0  0  0  0  0  0  0  0  # atno 11005 bound_to 11000
  144.8232  139.5756  143.6977 LP  0  0  0  0  0  0  0  0  0  0  0  0  # atno 17320 bound_to 7965
  146.2646  139.6489  142.9338 LP  0  0  0  0  0  0  0  0  0  0  0  0  # atno 17321 bound_to 7965
  139.8427  143.7542  152.3180 LP  0  0  0  0  0  0  0  0  0  0  0  0  # atno 17342 bound_to 10162
  139.7697  144.7480  151.0243 LP  0  0  0  0  0  0  0  0  0  0  0  0  # atno 17343 bound_to 10162
  156.7478  130.9104  151.3636 LP  0  0  0  0  0  0  0  0  0  0  0  0  # atno 17370 bound_to 10713
  157.6790  130.9122  150.0221 LP  0  0  0  0  0  0  0  0  0  0  0  0  # atno 17371 bound_to 10713
  140.7348  134.4215  157.5562 LP  0  0  0  0  0  0  0  0  0  0  0  0  # atno 17394 bound_to 11000
  139.8907  134.8797  156.2355 LP  0  0  0  0  0  0  0  0  0  0  0  0  # atno 17395 bound_to 11000

$$$$
