AV-unprocessed.smi:1694|AV-procd|sdf|6787|dock2
  -GOLD-   22720 7543D 1   1.00000     0.00000
 Structure written by MMmdl.
 34 35  0  0  0  0  0  0  0  0  1 V2000
  151.1612  144.4026  158.1263 C   0  0  0  0  0  0  0  0  0  0  0  0
  151.8692  143.1349  158.5766 C   0  0  0  0  0  0  0  0  0  0  0  0
  152.9420  143.2332  159.4879 C   0  0  0  0  0  0  0  0  0  0  0  0
  153.5985  142.0627  159.9039 C   0  0  0  0  0  0  0  0  0  0  0  0
  153.1515  140.8356  159.3866 C   0  0  0  0  0  0  0  0  0  0  0  0
  152.1264  140.7331  158.5164 N   0  0  0  0  0  0  0  0  0  0  0  0
  151.4761  141.8525  158.1067 C   0  0  0  0  0  0  0  0  0  0  0  0
  150.3925  141.8356  157.1751 N   0  0  0  0  0  0  0  0  0  0  0  0
  150.2419  141.2143  155.9857 C   0  0  0  0  0  0  0  0  0  0  0  0
  151.1406  140.5190  155.5149 O   0  0  0  0  0  0  0  0  0  0  0  0
  149.0732  141.4147  155.3554 N   0  0  0  0  0  0  0  0  0  0  0  0
  148.6978  140.8561  154.0617 C   0  0  2  0  0  0  0  0  0  0  0  0
  147.2321  141.1914  153.7610 C   0  0  0  0  0  0  0  0  0  0  0  0
  146.8077  140.6323  152.3940 C   0  0  0  0  0  0  0  0  0  0  0  0
  147.2448  139.1775  152.1680 C   0  0  0  0  0  0  0  0  0  0  0  0
  146.7026  138.5140  151.2873 O   0  0  0  0  0  0  0  0  0  0  0  0
  148.2395  138.6705  152.9177 N   0  0  0  0  0  0  0  0  0  0  0  0
  148.8983  139.3275  154.0463 C   0  0  0  0  0  0  0  0  0  0  0  0
  151.6016  145.2888  158.5843 H   0  0  0  0  0  0  0  0  0  0  0  0
  150.1076  144.3700  158.4049 H   0  0  0  0  0  0  0  0  0  0  0  0
  151.2307  144.5160  157.0439 H   0  0  0  0  0  0  0  0  0  0  0  0
  153.2611  144.1936  159.8656 H   0  0  0  0  0  0  0  0  0  0  0  0
  154.4235  142.1048  160.5996 H   0  0  0  0  0  0  0  0  0  0  0  0
  153.6289  139.9115  159.6772 H   0  0  0  0  0  0  0  0  0  0  0  0
  149.6088  142.4126  157.4434 H   0  0  0  0  0  0  0  0  0  0  0  0
  148.3886  141.9988  155.8152 H   0  0  0  0  0  0  0  0  0  0  0  0
  149.3160  141.3070  153.2827 H   0  0  0  0  0  0  0  0  0  0  0  0
  146.5879  140.7811  154.5404 H   0  0  0  0  0  0  0  0  0  0  0  0
  147.0828  142.2718  153.7747 H   0  0  0  0  0  0  0  0  0  0  0  0
  145.7262  140.7106  152.2780 H   0  0  0  0  0  0  0  0  0  0  0  0
  147.2506  141.2365  151.6017 H   0  0  0  0  0  0  0  0  0  0  0  0
  148.5267  137.7223  152.7230 H   0  0  0  0  0  0  0  0  0  0  0  0
  149.9608  139.0831  154.0281 H   0  0  0  0  0  0  0  0  0  0  0  0
  148.4922  138.8885  154.9586 H   0  0  0  0  0  0  0  0  0  0  0  0
  1  2  1  0  0  0  0
  1 19  1  0  0  0  0
  1 20  1  0  0  0  0
  1 21  1  0  0  0  0
  2  7  1  0  0  0  0
  2  3  2  0  0  0  0
  3  4  1  0  0  0  0
  3 22  1  0  0  0  0
  4  5  2  0  0  0  0
  4 23  1  0  0  0  0
  5  6  1  0  0  0  0
  5 24  1  0  0  0  0
  6  7  2  0  0  0  0
  7  8  1  0  0  0  0
  8  9  1  0  0  0  0
  8 25  1  0  0  0  0
  9 10  2  0  0  0  0
  9 11  1  0  0  0  0
 11 12  1  0  0  0  0
 11 26  1  0  0  0  0
 12 18  1  0  0  0  0
 12 13  1  0  0  0  0
 12 27  1  0  0  0  0
 13 14  1  0  0  0  0
 13 28  1  0  0  0  0
 13 29  1  0  0  0  0
 14 15  1  0  0  0  0
 14 30  1  0  0  0  0
 14 31  1  0  0  0  0
 15 16  2  0  0  0  0
 15 17  1  0  0  0  0
 17 18  1  0  0  0  0
 17 32  1  0  0  0  0
 18 33  1  0  0  0  0
 18 34  1  0  0  0  0
M  END
> <s_m_source_file>
AV-unprocessed.smi

> <i_m_source_file_index>
1694

> <i_lp_mmshare_version>
43012

> <i_f3d_flags>
0

> <s_epik_input>
W0NIM11jMVtjSF1bY0hdW2NIXW5jMVtOSF1DKD1PKVtOSF1bQ0BASF0yW0NIMl1bQ0gyXUMoPU8pW05IXVtDSDJdMg==

> <s_epik_cmdline>
J2VwaWtfcHl0aG9uJywgJy1waCcsICc3LjAnLCAnLXRuJywgJzgnLCAnLW1hJywgJzIwMCcsICctbWV0YWxfYmluZGluZycsICctaW1hZScsICc8aW5maWxlLm1hZT4nLCAnLW9tYWUnLCAnPG91dGZpbGUubWFlPic=

> <r_lp_tautomer_probability>
1

> <r_epik_Ionization_Penalty>
5.3746e-05

> <r_epik_Ionization_Penalty_Charging>
0

> <r_epik_Ionization_Penalty_Neutral>
5.3746e-05

> <r_epik_State_Penalty>
-0

> <r_epik_Charging_Adjusted_Penalty>
0

> <i_epik_Tot_Q>
0

> <i_epik_Tot_abs_Q>
0

> <r_epik_Metal_State_Penalty>
-0

> <b_epik_Metal_Only>
0

> <s_lp_Force_Field>
OPLS_2005

> <r_lp_Energy>
12.9813

> <b_lp_Chiralities_Consistent>
1

> <s_lp_Variant>
AV-unprocessed.smi:1694-1

> <Gold.Version>
5.8.1

> <Gold.Id.Protein>
6NUR|6NUR_protein|mol2

> <Gold.PLP.Fitness>
42.3633

> <Gold.PLP.PLP>
-34.6568

> <Gold.PLP.part.hbond>
-4.0000

> <Gold.PLP.part.metal>
0.0000

> <Gold.PLP.part.buried>
1.7262

> <Gold.PLP.part.nonpolar>
-33.7690

> <Gold.PLP.part.repulsive>
0.6729

> <Gold.PLP.ligand.clash>
0.0000

> <Gold.PLP.ligand.torsion>
0.4582

> <Gold.PLP.Chemscore.Hbond>
2.8736

> <Gold.PLP.Chemscore.CHOScore>
0.0000

> <Gold.PLP.Chemscore.Metal>
0.0000

> <Gold.Chemscore.Hbonds>
donor molecule, donor type, donor heavy atom, donor atom, acceptor molecule, acceptor atom, score
      L1  H    17    32       P1  7948  1.00
      P1  H  7954  7966       L1    16  0.78
      P1  H  7989  7998       L1    10  0.74

> <Gold.PLP.Chemscore.Internal.Correction>
0.0020

> <Gold.Rescore>
     Score         DG    S(hbond)    S(metal)    S(lipo)     H(rot)  DE(clash)    DE(int)     intcor
     17.15     -20.36       2.22        0.00      85.62       1.00       1.94       1.27       ----

> <Gold.Chemscore.Fitness>
17.1537

> <Gold.Chemscore.DG>
-20.3637

> <Gold.Chemscore.ZeroCoef>
-5.4800

> <Gold.Chemscore.Hbond>
2.2233

> <Gold.Chemscore.Metal>
0.0000

> <Gold.Chemscore.Lipo>
85.6218

> <Gold.Chemscore.Internal_Hbond>
0.0000

> <Gold.Chemscore.DEClash>
1.9366

> <Gold.Chemscore.DEInternal>
1.2734

> <Gold.Chemscore.Rot>
1.0000

> <Gold.Chemscore.Internal.Correction>
   9.000000E+99

> <Gold.Chemscore.Hbonds>
donor molecule, donor type, donor heavy atom, donor atom, acceptor molecule, acceptor atom, score
      L1  H    17    32       P1  7948  1.00
      P1  H  7954  7966       L1    16  0.53
      P1  H  7989  7998       L1    10  0.67

> <Gold.Chemscore.Hbond.Weighted>
-7.4260

> <Gold.Chemscore.Metal.Weighted>
-0.0000

> <Gold.Chemscore.Lipo.Weighted>
-10.0178

> <Gold.Chemscore.Internal_Hbond.Weighted>
0.0000

> <Gold.Chemscore.DEClash.Weighted>
1.9366

> <Gold.Chemscore.DEInternal.Weighted>
1.2734

> <Gold.Chemscore.Rot.Weighted>
2.5600

> <Gold.Chemscore.Internal.Correction.Weighted>
   9.000000E+99

> <Gold.Protein.RotatedTorsions>
[ 6907 6896 6895 6894 ] final  -94.84 input  -60.11 | X-H torsion
[ 7974 7965 7964 7962 ] final  -65.48 input  175.53 | X-H torsion
[ 8008 7997 7996 7995 ] final  -95.16 input   59.86 | X-H torsion
[ 10167 10162 10161 10158 ] final  112.48 input  -65.29 | X-H torsion
[ 10718 10713 10712 10709 ] final -153.65 input   66.30 | X-H torsion
[ 10763 10752 10751 10750 ] final   84.05 input  -60.55 | X-H torsion
[ 11005 11000 10999 10996 ] final -156.58 input  -57.11 | X-H torsion

> <Gold.Protein.ActiveResidues>
 VAL166  LYS551  ARG553  GLY616  TRP617  ASP618  TYR619  PRO620  LYS621  CYS622 
 ASP623  PHE694  ASN695  SER759  ASP760  ASP761  ALA762  ILE779  LEU786  VAL792 
 PHE793  MET794  SER795  GLU796  ALA797  LYS798  CYS799  TRP800  GLU811  SER814 

> <Gold.Protein.RotatedAtoms>
  150.6950  134.1750  159.4226 H   0  0  0  0  0  0  0  0  0  0  0  0  # atno 6907 bound_to 6896
  151.9726  135.0066  160.0563 H   0  0  0  0  0  0  0  0  0  0  0  0  # atno 6908 bound_to 6896
  152.1827  133.4683  159.5003 H   0  0  0  0  0  0  0  0  0  0  0  0  # atno 6909 bound_to 6896
  145.7537  140.8896  143.0466 H   0  0  0  0  0  0  0  0  0  0  0  0  # atno 7974 bound_to 7965
  154.7577  140.0482  157.0947 H   0  0  0  0  0  0  0  0  0  0  0  0  # atno 8008 bound_to 7997
  154.9977  140.3121  155.4860 H   0  0  0  0  0  0  0  0  0  0  0  0  # atno 8009 bound_to 7997
  156.2898  140.2207  156.5085 H   0  0  0  0  0  0  0  0  0  0  0  0  # atno 8010 bound_to 7997
  139.6532  144.7128  151.2007 H   0  0  0  0  0  0  0  0  0  0  0  0  # atno 10167 bound_to 10162
  156.4886  130.8337  151.2561 H   0  0  0  0  0  0  0  0  0  0  0  0  # atno 10718 bound_to 10713
  153.1346  135.4668  154.9403 H   0  0  0  0  0  0  0  0  0  0  0  0  # atno 10763 bound_to 10752
  154.7695  135.3154  154.8221 H   0  0  0  0  0  0  0  0  0  0  0  0  # atno 10764 bound_to 10752
  153.8756  135.6899  153.4825 H   0  0  0  0  0  0  0  0  0  0  0  0  # atno 10765 bound_to 10752
  140.6740  134.4216  157.5230 H   0  0  0  0  0  0  0  0  0  0  0  0  # atno 11005 bound_to 11000
  144.6844  139.9627  143.7480 LP  0  0  0  0  0  0  0  0  0  0  0  0  # atno 17320 bound_to 7965
  146.0331  139.3353  143.0743 LP  0  0  0  0  0  0  0  0  0  0  0  0  # atno 17321 bound_to 7965
  140.7547  143.6115  150.8601 LP  0  0  0  0  0  0  0  0  0  0  0  0  # atno 17342 bound_to 10162
  139.9765  143.5998  152.2957 LP  0  0  0  0  0  0  0  0  0  0  0  0  # atno 17343 bound_to 10162
  157.7476  131.0021  150.2987 LP  0  0  0  0  0  0  0  0  0  0  0  0  # atno 17370 bound_to 10713
  156.3449  130.3821  149.7378 LP  0  0  0  0  0  0  0  0  0  0  0  0  # atno 17371 bound_to 10713
  139.8972  134.8641  156.2053 LP  0  0  0  0  0  0  0  0  0  0  0  0  # atno 17394 bound_to 11000
  141.0369  133.6958  156.1529 LP  0  0  0  0  0  0  0  0  0  0  0  0  # atno 17395 bound_to 11000

$$$$
