AV-unprocessed.smi:1978|AV-procd|sdf|8008|dock4
  -GOLD-   2272010193D 1   1.00000     0.00000
 Structure written by MMmdl.
 44 45  0  0  0  0  0  0  0  0  3 V2000
  153.4898  142.0061  160.1505 C   0  0  0  0  0  0  0  0  0  0  0  0
  152.6870  142.4447  158.9743 C   0  0  0  0  0  0  0  0  0  0  0  0
  151.8353  141.7871  158.1323 C   0  0  0  0  0  0  0  0  0  0  0  0
  151.4176  142.8071  157.2365 C   0  0  0  0  0  0  0  0  0  0  0  0
  150.5045  142.5193  156.1879 N   0  0  0  0  0  0  0  0  0  0  0  0
  150.2498  141.3404  155.5915 C   0  0  0  0  0  0  0  0  0  0  0  0
  150.8421  140.3160  155.9514 O   0  0  0  0  0  0  0  0  0  0  0  0
  149.3180  141.4527  154.6049 N   0  5  0  0  0  0  0  0  0  0  0  0
  148.5931  140.3307  154.0064 C   0  0  0  0  0  0  0  0  0  0  0  0
  147.1222  140.7172  153.6931 C   0  0  2  0  0  0  0  0  0  0  0  0
  146.3663  141.3279  154.9038 C   0  0  0  0  0  0  0  0  0  0  0  0
  146.4182  139.5468  153.0792 N   0  3  1  0  0  0  0  0  0  0  0  0
  147.0190  138.9820  151.8341 C   0  0  0  0  0  0  0  0  0  0  0  0
  146.0426  138.0209  151.1381 C   0  0  0  0  0  0  0  0  0  0  0  0
  145.5922  136.9065  152.0898 C   0  0  0  0  0  0  0  0  0  0  0  0
  145.0012  137.5156  153.3697 C   0  0  0  0  0  0  0  0  0  0  0  0
  145.9755  138.4998  154.0508 C   0  0  1  0  0  0  0  0  0  0  0  0
  147.1446  137.7771  154.7521 C   0  0  0  0  0  0  0  0  0  0  0  0
  151.9662  143.9821  157.5083 N   0  0  0  0  0  0  0  0  0  0  0  0
  152.7826  143.7556  158.6228 O   0  0  0  0  0  0  0  0  0  0  0  0
  153.3879  140.9328  160.3131 H   0  0  0  0  0  0  0  0  0  0  0  0
  153.1609  142.5177  161.0551 H   0  0  0  0  0  0  0  0  0  0  0  0
  154.5468  142.2263  160.0011 H   0  0  0  0  0  0  0  0  0  0  0  0
  151.5562  140.7444  158.1554 H   0  0  0  0  0  0  0  0  0  0  0  0
  149.9807  143.3078  155.8384 H   0  0  0  0  0  0  0  0  0  0  0  0
  149.0720  139.9917  153.0863 H   0  0  0  0  0  0  0  0  0  0  0  0
  148.5974  139.4606  154.6633 H   0  0  0  0  0  0  0  0  0  0  0  0
  147.1684  141.4959  152.9304 H   0  0  0  0  0  0  0  0  0  0  0  0
  146.8184  142.2666  155.2284 H   0  0  0  0  0  0  0  0  0  0  0  0
  146.3454  140.6652  155.7707 H   0  0  0  0  0  0  0  0  0  0  0  0
  145.3326  141.5603  154.6498 H   0  0  0  0  0  0  0  0  0  0  0  0
  147.2657  139.7876  151.1418 H   0  0  0  0  0  0  0  0  0  0  0  0
  147.9517  138.4643  152.0588 H   0  0  0  0  0  0  0  0  0  0  0  0
  145.1722  138.5764  150.7866 H   0  0  0  0  0  0  0  0  0  0  0  0
  146.5117  137.5892  150.2536 H   0  0  0  0  0  0  0  0  0  0  0  0
  144.8525  136.2726  151.6002 H   0  0  0  0  0  0  0  0  0  0  0  0
  146.4374  136.2624  152.3349 H   0  0  0  0  0  0  0  0  0  0  0  0
  144.0805  138.0434  153.1172 H   0  0  0  0  0  0  0  0  0  0  0  0
  144.7138  136.7247  154.0635 H   0  0  0  0  0  0  0  0  0  0  0  0
  145.4024  139.0059  154.8293 H   0  0  0  0  0  0  0  0  0  0  0  0
  146.7709  137.0184  155.4398 H   0  0  0  0  0  0  0  0  0  0  0  0
  147.7464  138.4670  155.3430 H   0  0  0  0  0  0  0  0  0  0  0  0
  147.8073  137.2768  154.0466 H   0  0  0  0  0  0  0  0  0  0  0  0
  145.5475  139.9541  152.7684 H   0  0  0  0  0  0  0  0  0  0  0  0
  1  2  1  0  0  0  0
  1 21  1  0  0  0  0
  1 22  1  0  0  0  0
  1 23  1  0  0  0  0
  2 20  1  0  0  0  0
  2  3  2  0  0  0  0
  3  4  1  0  0  0  0
  3 24  1  0  0  0  0
  4  5  1  0  0  0  0
  4 19  2  0  0  0  0
  5  6  1  0  0  0  0
  5 25  1  0  0  0  0
  6  7  2  0  0  0  0
  6  8  1  0  0  0  0
  8  9  1  0  0  0  0
  9 10  1  0  0  0  0
  9 26  1  0  0  0  0
  9 27  1  0  0  0  0
 10 11  1  0  0  0  0
 10 12  1  0  0  0  0
 10 28  1  0  0  0  0
 11 29  1  0  0  0  0
 11 30  1  0  0  0  0
 11 31  1  0  0  0  0
 12 17  1  0  0  0  0
 12 13  1  0  0  0  0
 12 44  1  0  0  0  0
 13 14  1  0  0  0  0
 13 32  1  0  0  0  0
 13 33  1  0  0  0  0
 14 15  1  0  0  0  0
 14 34  1  0  0  0  0
 14 35  1  0  0  0  0
 15 16  1  0  0  0  0
 15 36  1  0  0  0  0
 15 37  1  0  0  0  0
 16 17  1  0  0  0  0
 16 38  1  0  0  0  0
 16 39  1  0  0  0  0
 17 18  1  0  0  0  0
 17 40  1  0  0  0  0
 18 41  1  0  0  0  0
 18 42  1  0  0  0  0
 18 43  1  0  0  0  0
 19 20  1  0  0  0  0
M  CHG  1   8  -1
M  CHG  1  12   1
M  END
> <s_m_source_file>
AV-unprocessed.smi

> <i_m_source_file_index>
1978

> <i_lp_mmshare_version>
43012

> <i_f3d_flags>
0

> <s_epik_input>
W0NIM11jMVtjSF1jKG5vMSlbTkhdQyg9TylbTkhdW0NIMl1bQ0BIXShbQ0gzXSlOMltDSDJdW0NIMl1bQ0gyXVtDSDJdW0NASF0yW0NIM10=

> <s_epik_cmdline>
J2VwaWtfcHl0aG9uJywgJy1waCcsICc3LjAnLCAnLXRuJywgJzgnLCAnLW1hJywgJzIwMCcsICctbWV0YWxfYmluZGluZycsICctaW1hZScsICc8aW5maWxlLm1hZT4nLCAnLW9tYWUnLCAnPG91dGZpbGUubWFlPic=

> <r_epik_Ionization_Penalty>
6.7666

> <r_epik_Ionization_Penalty_Charging>
6.7666

> <r_epik_Ionization_Penalty_Neutral>
5.77131e-06

> <r_epik_State_Penalty>
6.79217

> <r_epik_Charging_Adjusted_Penalty>
13.5588

> <i_epik_Tot_Q>
0

> <i_epik_Tot_abs_Q>
2

> <r_epik_Metal_State_Penalty>
2.72569

> <b_epik_Metal_Only>
1

> <s_lp_Force_Field>
OPLS_2005

> <r_lp_Energy>
20.2617

> <b_lp_Chiralities_Consistent>
1

> <s_lp_Variant>
AV-unprocessed.smi:1978-17

> <Gold.Version>
5.8.1

> <Gold.Id.Protein>
6NUR|6NUR_protein|mol2

> <Gold.PLP.Fitness>
41.5623

> <Gold.PLP.PLP>
-33.3126

> <Gold.PLP.part.hbond>
-2.0470

> <Gold.PLP.part.metal>
0.0000

> <Gold.PLP.part.buried>
-0.9898

> <Gold.PLP.part.nonpolar>
-31.9346

> <Gold.PLP.part.repulsive>
0.3910

> <Gold.PLP.ligand.clash>
0.0000

> <Gold.PLP.ligand.torsion>
0.4799

> <Gold.PLP.Chemscore.Hbond>
3.0000

> <Gold.PLP.Chemscore.CHOScore>
0.0000

> <Gold.PLP.Chemscore.Metal>
0.0000

> <Gold.Chemscore.Hbonds>
donor molecule, donor type, donor heavy atom, donor atom, acceptor molecule, acceptor atom, score
      L1  H     5    25       P1  8028  1.00
      L1  H    12    44       P1 10175  2.00

> <Gold.PLP.Chemscore.Internal.Correction>
0.2095

> <Gold.Rescore>
     Score         DG    S(hbond)    S(metal)    S(lipo)     H(rot)  DE(clash)    DE(int)     intcor
     13.91     -17.37       1.97        0.00      78.57       1.52       1.54       1.92       ----

> <Gold.Chemscore.Fitness>
13.9114

> <Gold.Chemscore.DG>
-17.3749

> <Gold.Chemscore.ZeroCoef>
-5.4800

> <Gold.Chemscore.Hbond>
1.9733

> <Gold.Chemscore.Metal>
0.0000

> <Gold.Chemscore.Lipo>
78.5693

> <Gold.Chemscore.Internal_Hbond>
0.0000

> <Gold.Chemscore.DEClash>
1.5409

> <Gold.Chemscore.DEInternal>
1.9226

> <Gold.Chemscore.Rot>
1.5190

> <Gold.Chemscore.Internal.Correction>
   9.000000E+99

> <Gold.Chemscore.Hbonds>
donor molecule, donor type, donor heavy atom, donor atom, acceptor molecule, acceptor atom, score
      L1  H     5    25       P1  8028  1.00
      L1  H    12    44       P1 10175  0.98

> <Gold.Chemscore.Hbond.Weighted>
-6.5909

> <Gold.Chemscore.Metal.Weighted>
-0.0000

> <Gold.Chemscore.Lipo.Weighted>
-9.1926

> <Gold.Chemscore.Internal_Hbond.Weighted>
0.0000

> <Gold.Chemscore.DEClash.Weighted>
1.5409

> <Gold.Chemscore.DEInternal.Weighted>
1.9226

> <Gold.Chemscore.Rot.Weighted>
3.8886

> <Gold.Chemscore.Internal.Correction.Weighted>
   9.000000E+99

> <Gold.Protein.RotatedTorsions>
[ 6907 6896 6895 6894 ] final -117.51 input  -60.11 | X-H torsion
[ 7974 7965 7964 7962 ] final -131.15 input  175.53 | X-H torsion
[ 8008 7997 7996 7995 ] final  -94.20 input   59.86 | X-H torsion
[ 10167 10162 10161 10158 ] final  160.92 input  -65.29 | X-H torsion
[ 10718 10713 10712 10709 ] final    2.62 input   66.30 | X-H torsion
[ 10763 10752 10751 10750 ] final    3.18 input  -60.55 | X-H torsion
[ 11005 11000 10999 10996 ] final -107.37 input  -57.11 | X-H torsion

> <Gold.Protein.ActiveResidues>
 VAL166  LYS551  ARG553  GLY616  TRP617  ASP618  TYR619  PRO620  LYS621  CYS622 
 ASP623  PHE694  ASN695  SER759  ASP760  ASP761  ALA762  ILE779  LEU786  VAL792 
 PHE793  MET794  SER795  GLU796  ALA797  LYS798  CYS799  TRP800  GLU811  SER814 

> <Gold.Protein.RotatedAtoms>
  150.8143  133.8366  159.3167 H   0  0  0  0  0  0  0  0  0  0  0  0  # atno 6907 bound_to 6896
  151.6142  135.1036  160.0097 H   0  0  0  0  0  0  0  0  0  0  0  0  # atno 6908 bound_to 6896
  152.4234  133.7114  159.6538 H   0  0  0  0  0  0  0  0  0  0  0  0  # atno 6909 bound_to 6896
  144.9407  140.7235  143.4849 H   0  0  0  0  0  0  0  0  0  0  0  0  # atno 7974 bound_to 7965
  154.7453  140.0491  157.0847 H   0  0  0  0  0  0  0  0  0  0  0  0  # atno 8008 bound_to 7997
  155.0126  140.3137  155.4804 H   0  0  0  0  0  0  0  0  0  0  0  0  # atno 8009 bound_to 7997
  156.2873  140.2181  156.5241 H   0  0  0  0  0  0  0  0  0  0  0  0  # atno 8010 bound_to 7997
  139.4844  144.4587  151.8733 H   0  0  0  0  0  0  0  0  0  0  0  0  # atno 10167 bound_to 10162
  156.8656  130.5602  149.5660 H   0  0  0  0  0  0  0  0  0  0  0  0  # atno 10718 bound_to 10713
  153.2864  135.6945  153.7335 H   0  0  0  0  0  0  0  0  0  0  0  0  # atno 10763 bound_to 10752
  153.6303  135.3411  155.3040 H   0  0  0  0  0  0  0  0  0  0  0  0  # atno 10764 bound_to 10752
  154.8511  135.4407  154.1934 H   0  0  0  0  0  0  0  0  0  0  0  0  # atno 10765 bound_to 10752
  141.0957  133.8975  157.1968 H   0  0  0  0  0  0  0  0  0  0  0  0  # atno 11005 bound_to 11000
  145.2996  139.1855  143.4696 LP  0  0  0  0  0  0  0  0  0  0  0  0  # atno 17320 bound_to 7965
  146.3284  140.2985  142.8619 LP  0  0  0  0  0  0  0  0  0  0  0  0  # atno 17321 bound_to 7965
  140.4048  144.2446  150.5891 LP  0  0  0  0  0  0  0  0  0  0  0  0  # atno 17342 bound_to 10162
  140.5022  143.2314  151.8661 LP  0  0  0  0  0  0  0  0  0  0  0  0  # atno 17343 bound_to 10162
  156.0753  130.5777  150.9462 LP  0  0  0  0  0  0  0  0  0  0  0  0  # atno 17370 bound_to 10713
  157.6225  131.0928  150.8596 LP  0  0  0  0  0  0  0  0  0  0  0  0  # atno 17371 bound_to 10713
  139.9793  135.0103  156.9710 LP  0  0  0  0  0  0  0  0  0  0  0  0  # atno 17394 bound_to 11000
  140.5145  134.0968  155.7278 LP  0  0  0  0  0  0  0  0  0  0  0  0  # atno 17395 bound_to 11000

$$$$
