AV-unprocessed.smi:2134|AV-procd|sdf|8695|dock6
  -GOLD-   2272011453D 1   1.00000     0.00000
 Structure written by MMmdl.
 36 37  0  0  0  0  0  0  0  0  2 V2000
  151.3258  137.7310  154.6518 C   0  0  0  0  0  0  0  0  0  0  0  0
  150.1106  138.5429  154.6351 N   0  0  0  0  0  0  0  0  0  0  0  0
  148.9452  137.8371  154.4170 N   0  0  0  0  0  0  0  0  0  0  0  0
  147.8223  138.4278  154.1517 C   0  0  0  0  0  0  0  0  0  0  0  0
  146.5989  137.6208  153.9016 C   0  0  0  0  0  0  0  0  0  0  0  0
  145.4893  138.0267  154.2492 O   0  0  0  0  0  0  0  0  0  0  0  0
  146.7856  136.4492  153.2648 N   0  0  0  0  0  0  0  0  0  0  0  0
  145.7338  135.5142  152.8723 C   0  0  0  0  0  0  0  0  0  0  0  0
  146.3016  134.1721  152.3710 C   0  0  0  0  0  0  0  0  0  0  0  0
  145.5018  133.5595  151.2338 C   0  0  0  0  0  0  0  0  0  0  0  0
  146.0973  132.6324  150.3494 C   0  0  0  0  0  0  0  0  0  0  0  0
  145.3371  132.1060  149.2847 C   0  0  0  0  0  0  0  0  0  0  0  0
  143.9978  132.5176  149.1284 C   0  0  0  0  0  0  0  0  0  0  0  0
  143.4612  133.4038  149.9956 N   0  3  0  0  0  0  0  0  0  0  0  0
  144.1551  133.9297  151.0286 C   0  0  0  0  0  0  0  0  0  0  0  0
  147.7493  139.9387  154.0563 C   0  0  0  0  0  0  0  0  0  0  0  0
  148.8368  140.6266  154.9050 C   0  0  0  0  0  0  0  0  0  0  0  0
  150.1731  139.8804  154.8518 C   0  0  0  0  0  0  0  0  0  0  0  0
  151.2242  140.4966  155.0265 O   0  0  0  0  0  0  0  0  0  0  0  0
  151.8217  137.8018  155.6208 H   0  0  0  0  0  0  0  0  0  0  0  0
  152.0247  138.0687  153.8854 H   0  0  0  0  0  0  0  0  0  0  0  0
  151.1168  136.6763  154.4656 H   0  0  0  0  0  0  0  0  0  0  0  0
  147.7328  136.1941  153.0233 H   0  0  0  0  0  0  0  0  0  0  0  0
  145.0973  135.3384  153.7397 H   0  0  0  0  0  0  0  0  0  0  0  0
  145.0899  135.9585  152.1114 H   0  0  0  0  0  0  0  0  0  0  0  0
  147.3346  134.3098  152.0486 H   0  0  0  0  0  0  0  0  0  0  0  0
  146.3356  133.4591  153.1955 H   0  0  0  0  0  0  0  0  0  0  0  0
  147.1278  132.3348  150.4770 H   0  0  0  0  0  0  0  0  0  0  0  0
  145.7764  131.3994  148.5958 H   0  0  0  0  0  0  0  0  0  0  0  0
  143.3452  132.1685  148.3417 H   0  0  0  0  0  0  0  0  0  0  0  0
  143.6199  134.6357  151.6470 H   0  0  0  0  0  0  0  0  0  0  0  0
  147.8474  140.2377  153.0122 H   0  0  0  0  0  0  0  0  0  0  0  0
  146.7742  140.2978  154.3884 H   0  0  0  0  0  0  0  0  0  0  0  0
  148.9709  141.6605  154.5847 H   0  0  0  0  0  0  0  0  0  0  0  0
  148.5215  140.6595  155.9485 H   0  0  0  0  0  0  0  0  0  0  0  0
  142.4910  133.6911  149.8633 H   0  0  0  0  0  0  0  0  0  0  0  0
  1  2  1  0  0  0  0
  1 20  1  0  0  0  0
  1 21  1  0  0  0  0
  1 22  1  0  0  0  0
  2 18  1  0  0  0  0
  2  3  1  0  0  0  0
  3  4  2  0  0  0  0
  4  5  1  0  0  0  0
  4 16  1  0  0  0  0
  5  6  2  0  0  0  0
  5  7  1  0  0  0  0
  7  8  1  0  0  0  0
  7 23  1  0  0  0  0
  8  9  1  0  0  0  0
  8 24  1  0  0  0  0
  8 25  1  0  0  0  0
  9 10  1  0  0  0  0
  9 26  1  0  0  0  0
  9 27  1  0  0  0  0
 10 15  1  0  0  0  0
 10 11  2  0  0  0  0
 11 12  1  0  0  0  0
 11 28  1  0  0  0  0
 12 13  2  0  0  0  0
 12 29  1  0  0  0  0
 13 14  1  0  0  0  0
 13 30  1  0  0  0  0
 14 15  2  0  0  0  0
 14 36  1  0  0  0  0
 15 31  1  0  0  0  0
 16 17  1  0  0  0  0
 16 32  1  0  0  0  0
 16 33  1  0  0  0  0
 17 18  1  0  0  0  0
 17 34  1  0  0  0  0
 17 35  1  0  0  0  0
 18 19  2  0  0  0  0
M  CHG  1  14   1
M  END
> <s_m_source_file>
AV-unprocessed.smi

> <i_m_source_file_index>
2134

> <i_lp_mmshare_version>
43012

> <i_f3d_flags>
0

> <s_epik_input>
Tz1DMVtDSDJdW0NIMl1DKD1OTjFbQ0gzXSlDKD1PKVtOSF1bQ0gyXVtDSDJdYzJbY0hdW2NIXVtjSF1uW2NIXTI=

> <s_epik_cmdline>
J2VwaWtfcHl0aG9uJywgJy1waCcsICc3LjAnLCAnLXRuJywgJzgnLCAnLW1hJywgJzIwMCcsICctbWV0YWxfYmluZGluZycsICctaW1hZScsICc8aW5maWxlLm1hZT4nLCAnLW9tYWUnLCAnPG91dGZpbGUubWFlPic=

> <r_epik_Ionization_Penalty>
2.46483

> <r_epik_Ionization_Penalty_Charging>
2.46471

> <r_epik_Ionization_Penalty_Neutral>
0.00011851

> <r_epik_State_Penalty>
2.62717

> <r_epik_Charging_Adjusted_Penalty>
5.09187

> <i_epik_Tot_Q>
1

> <i_epik_Tot_abs_Q>
1

> <r_epik_Metal_State_Penalty>
2.80118

> <b_epik_Metal_Only>
0

> <s_epik_Chemistry_Notes>
This compound has an imine and may undergo hydrolysis.

> <s_lp_Force_Field>
OPLS_2005

> <r_lp_Energy>
23.6794

> <b_lp_Chiralities_Consistent>
1

> <s_lp_Variant>
AV-unprocessed.smi:2134-2

> <Gold.Version>
5.8.1

> <Gold.Id.Protein>
6NUR|6NUR_protein|mol2

> <Gold.PLP.Fitness>
42.4311

> <Gold.PLP.PLP>
-32.9614

> <Gold.PLP.part.hbond>
-2.9710

> <Gold.PLP.part.metal>
0.0000

> <Gold.PLP.part.buried>
-4.6826

> <Gold.PLP.part.nonpolar>
-27.2319

> <Gold.PLP.part.repulsive>
1.2157

> <Gold.PLP.ligand.clash>
0.0000

> <Gold.PLP.ligand.torsion>
1.1009

> <Gold.PLP.Chemscore.Hbond>
3.8880

> <Gold.PLP.Chemscore.CHOScore>
0.0000

> <Gold.PLP.Chemscore.Metal>
0.0000

> <Gold.Chemscore.Hbonds>
donor molecule, donor type, donor heavy atom, donor atom, acceptor molecule, acceptor atom, score
      L1  H     7    23       P1  7948  0.94
      L1  H    14    36       P1 10186  2.00
      P1  H  7989  7998       L1    19  0.98

> <Gold.PLP.Chemscore.Internal.Correction>
0.0075

> <Gold.Rescore>
     Score         DG    S(hbond)    S(metal)    S(lipo)     H(rot)  DE(clash)    DE(int)     intcor
     18.46     -20.94       2.83        0.00      84.62       1.52       1.33       1.15       ----

> <Gold.Chemscore.Fitness>
18.4611

> <Gold.Chemscore.DG>
-20.9375

> <Gold.Chemscore.ZeroCoef>
-5.4800

> <Gold.Chemscore.Hbond>
2.8255

> <Gold.Chemscore.Metal>
0.0000

> <Gold.Chemscore.Lipo>
84.6193

> <Gold.Chemscore.Internal_Hbond>
0.0000

> <Gold.Chemscore.DEClash>
1.3280

> <Gold.Chemscore.DEInternal>
1.1484

> <Gold.Chemscore.Rot>
1.5157

> <Gold.Chemscore.Internal.Correction>
   9.000000E+99

> <Gold.Chemscore.Hbonds>
donor molecule, donor type, donor heavy atom, donor atom, acceptor molecule, acceptor atom, score
      L1  H     7    23       P1  7948  0.91
      L1  H    14    36       P1 10186  1.00
      P1  H  7989  7998       L1    19  0.32

> <Gold.Chemscore.Hbond.Weighted>
-9.4371

> <Gold.Chemscore.Metal.Weighted>
-0.0000

> <Gold.Chemscore.Lipo.Weighted>
-9.9005

> <Gold.Chemscore.Internal_Hbond.Weighted>
0.0000

> <Gold.Chemscore.DEClash.Weighted>
1.3280

> <Gold.Chemscore.DEInternal.Weighted>
1.1484

> <Gold.Chemscore.Rot.Weighted>
3.8801

> <Gold.Chemscore.Internal.Correction.Weighted>
   9.000000E+99

> <Gold.Protein.RotatedTorsions>
[ 6907 6896 6895 6894 ] final   83.41 input  -60.11 | X-H torsion
[ 7974 7965 7964 7962 ] final  -47.35 input  175.53 | X-H torsion
[ 8008 7997 7996 7995 ] final  144.83 input   59.86 | X-H torsion
[ 10167 10162 10161 10158 ] final  -96.41 input  -65.29 | X-H torsion
[ 10718 10713 10712 10709 ] final   84.20 input   66.30 | X-H torsion
[ 10763 10752 10751 10750 ] final   69.94 input  -60.55 | X-H torsion
[ 11005 11000 10999 10996 ] final   69.91 input  -57.11 | X-H torsion

> <Gold.Protein.ActiveResidues>
 VAL166  LYS551  ARG553  GLY616  TRP617  ASP618  TYR619  PRO620  LYS621  CYS622 
 ASP623  PHE694  ASN695  SER759  ASP760  ASP761  ALA762  ILE779  LEU786  VAL792 
 PHE793  MET794  SER795  GLU796  ALA797  LYS798  CYS799  TRP800  GLU811  SER814 

> <Gold.Protein.RotatedAtoms>
  152.5326  134.2900  159.9039 H   0  0  0  0  0  0  0  0  0  0  0  0  # atno 6907 bound_to 6896
  151.2853  133.4184  159.2637 H   0  0  0  0  0  0  0  0  0  0  0  0  # atno 6908 bound_to 6896
  151.0248  134.9511  159.8136 H   0  0  0  0  0  0  0  0  0  0  0  0  # atno 6909 bound_to 6896
  145.9625  140.7465  142.9450 H   0  0  0  0  0  0  0  0  0  0  0  0  # atno 7974 bound_to 7965
  156.2898  140.2225  156.5117 H   0  0  0  0  0  0  0  0  0  0  0  0  # atno 8008 bound_to 7997
  154.7603  140.0474  157.0989 H   0  0  0  0  0  0  0  0  0  0  0  0  # atno 8009 bound_to 7997
  154.9999  140.3100  155.4875 H   0  0  0  0  0  0  0  0  0  0  0  0  # atno 8010 bound_to 7997
  140.2941  143.3203  152.0316 H   0  0  0  0  0  0  0  0  0  0  0  0  # atno 10167 bound_to 10162
  157.6893  131.0123  150.2637 H   0  0  0  0  0  0  0  0  0  0  0  0  # atno 10718 bound_to 10713
  153.0314  135.5192  154.7365 H   0  0  0  0  0  0  0  0  0  0  0  0  # atno 10763 bound_to 10752
  154.6377  135.2908  155.0143 H   0  0  0  0  0  0  0  0  0  0  0  0  # atno 10764 bound_to 10752
  154.1072  135.6627  153.4931 H   0  0  0  0  0  0  0  0  0  0  0  0  # atno 10765 bound_to 10752
  139.9627  134.7034  156.0611 H   0  0  0  0  0  0  0  0  0  0  0  0  # atno 11005 bound_to 11000
  144.6818  140.2614  143.7318 LP  0  0  0  0  0  0  0  0  0  0  0  0  # atno 17320 bound_to 7965
  145.8020  139.1968  143.2042 LP  0  0  0  0  0  0  0  0  0  0  0  0  # atno 17321 bound_to 7965
  139.4931  144.6504  151.6688 LP  0  0  0  0  0  0  0  0  0  0  0  0  # atno 17342 bound_to 10162
  140.5707  144.0113  150.6215 LP  0  0  0  0  0  0  0  0  0  0  0  0  # atno 17343 bound_to 10162
  156.3212  130.3786  149.7574 LP  0  0  0  0  0  0  0  0  0  0  0  0  # atno 17370 bound_to 10713
  156.5143  130.8186  151.3180 LP  0  0  0  0  0  0  0  0  0  0  0  0  # atno 17371 bound_to 10713
  141.1305  133.6588  156.3452 LP  0  0  0  0  0  0  0  0  0  0  0  0  # atno 17394 bound_to 11000
  140.5465  134.6070  157.5395 LP  0  0  0  0  0  0  0  0  0  0  0  0  # atno 17395 bound_to 11000

$$$$
