AV-unprocessed.smi:67|AV-procd|sdf|637|dock1
  -GOLD-   2262016533D 1   1.00000     0.00000
 Structure written by MMmdl.
 48 50  0  0  0  0  0  0  0  0  2 V2000
  144.8394  138.8175  153.5188 O   0  0  0  0  0  0  0  0  0  0  0  0
  145.9836  138.1299  153.0450 C   0  0  1  0  0  0  0  0  0  0  0  0
  147.0253  138.0501  154.1942 C   0  0  0  0  0  0  0  0  0  0  0  0
  148.1074  139.0752  154.1422 N   0  3  2  0  0  0  0  0  0  0  0  0
  149.2936  138.6483  154.9318 C   0  0  0  0  0  0  0  0  0  0  0  0
  150.4643  139.6336  154.7839 C   0  0  0  0  0  0  0  0  0  0  0  0
  150.0514  141.0601  155.1911 C   0  0  2  0  0  0  0  0  0  0  0  0
  149.6979  141.1258  156.5713 O   0  0  0  0  0  0  0  0  0  0  0  0
  150.6702  141.3445  157.5254 C   0  0  0  0  0  0  0  0  0  0  0  0
  151.6342  140.3879  157.9314 C   0  0  0  0  0  0  0  0  0  0  0  0
  152.5906  140.7140  158.9117 C   0  0  0  0  0  0  0  0  0  0  0  0
  152.5970  141.9928  159.4979 C   0  0  0  0  0  0  0  0  0  0  0  0
  151.6429  142.9555  159.1083 C   0  0  0  0  0  0  0  0  0  0  0  0
  151.6524  144.3435  159.7312 C   0  0  0  0  0  0  0  0  0  0  0  0
  150.4101  144.7914  159.9179 F   0  0  0  0  0  0  0  0  0  0  0  0
  152.2718  144.3292  160.9121 F   0  0  0  0  0  0  0  0  0  0  0  0
  152.2941  145.1830  158.9196 F   0  0  0  0  0  0  0  0  0  0  0  0
  150.6916  142.6232  158.1196 C   0  0  0  0  0  0  0  0  0  0  0  0
  148.8164  141.4685  154.3769 C   0  0  0  0  0  0  0  0  0  0  0  0
  147.6713  140.4488  154.5124 C   0  0  0  0  0  0  0  0  0  0  0  0
  145.6105  136.7647  152.4236 C   0  0  0  0  0  0  0  0  0  0  0  0
  145.8806  136.9099  150.9267 C   0  0  0  0  0  0  0  0  0  0  0  0
  146.8913  137.9459  150.8360 N   0  0  0  0  0  0  0  0  0  0  0  0
  146.5350  138.9290  151.8441 C   0  0  0  0  0  0  0  0  0  0  0  0
  144.5382  139.4055  152.8429 H   0  0  0  0  0  0  0  0  0  0  0  0
  146.5349  138.0688  155.1687 H   0  0  0  0  0  0  0  0  0  0  0  0
  147.5053  137.0728  154.1266 H   0  0  0  0  0  0  0  0  0  0  0  0
  149.0152  138.5508  155.9824 H   0  0  0  0  0  0  0  0  0  0  0  0
  149.6228  137.6625  154.6011 H   0  0  0  0  0  0  0  0  0  0  0  0
  151.3113  139.2867  155.3750 H   0  0  0  0  0  0  0  0  0  0  0  0
  150.8027  139.6377  153.7470 H   0  0  0  0  0  0  0  0  0  0  0  0
  150.8437  141.7740  154.9653 H   0  0  0  0  0  0  0  0  0  0  0  0
  151.6656  139.3964  157.5079 H   0  0  0  0  0  0  0  0  0  0  0  0
  153.3234  139.9804  159.2142 H   0  0  0  0  0  0  0  0  0  0  0  0
  153.3390  142.2320  160.2455 H   0  0  0  0  0  0  0  0  0  0  0  0
  149.9638  143.3578  157.8079 H   0  0  0  0  0  0  0  0  0  0  0  0
  148.4741  142.4554  154.6901 H   0  0  0  0  0  0  0  0  0  0  0  0
  149.0917  141.5608  153.3254 H   0  0  0  0  0  0  0  0  0  0  0  0
  146.8673  140.7776  153.8587 H   0  0  0  0  0  0  0  0  0  0  0  0
  147.2798  140.4485  155.5309 H   0  0  0  0  0  0  0  0  0  0  0  0
  146.2584  135.9765  152.8081 H   0  0  0  0  0  0  0  0  0  0  0  0
  144.5796  136.4675  152.6218 H   0  0  0  0  0  0  0  0  0  0  0  0
  146.2078  135.9776  150.4656 H   0  0  0  0  0  0  0  0  0  0  0  0
  144.9717  137.2346  150.4184 H   0  0  0  0  0  0  0  0  0  0  0  0
  146.8963  138.3638  149.9105 H   0  0  0  0  0  0  0  0  0  0  0  0
  145.7607  139.5824  151.4378 H   0  0  0  0  0  0  0  0  0  0  0  0
  147.3830  139.5653  152.0990 H   0  0  0  0  0  0  0  0  0  0  0  0
  148.4084  139.1170  153.1786 H   0  0  0  0  0  0  0  0  0  0  0  0
  1  2  1  0  0  0  0
  1 25  1  0  0  0  0
  2 24  1  0  0  0  0
  2  3  1  0  0  0  0
  2 21  1  0  0  0  0
  3  4  1  0  0  0  0
  3 26  1  0  0  0  0
  3 27  1  0  0  0  0
  4 20  1  0  0  0  0
  4  5  1  0  0  0  0
  4 48  1  0  0  0  0
  5  6  1  0  0  0  0
  5 28  1  0  0  0  0
  5 29  1  0  0  0  0
  6  7  1  0  0  0  0
  6 30  1  0  0  0  0
  6 31  1  0  0  0  0
  7  8  1  0  0  0  0
  7 19  1  0  0  0  0
  7 32  1  0  0  0  0
  8  9  1  0  0  0  0
  9 18  1  0  0  0  0
  9 10  2  0  0  0  0
 10 11  1  0  0  0  0
 10 33  1  0  0  0  0
 11 12  2  0  0  0  0
 11 34  1  0  0  0  0
 12 13  1  0  0  0  0
 12 35  1  0  0  0  0
 13 14  1  0  0  0  0
 13 18  2  0  0  0  0
 14 15  1  0  0  0  0
 14 16  1  0  0  0  0
 14 17  1  0  0  0  0
 18 36  1  0  0  0  0
 19 20  1  0  0  0  0
 19 37  1  0  0  0  0
 19 38  1  0  0  0  0
 20 39  1  0  0  0  0
 20 40  1  0  0  0  0
 21 22  1  0  0  0  0
 21 41  1  0  0  0  0
 21 42  1  0  0  0  0
 22 23  1  0  0  0  0
 22 43  1  0  0  0  0
 22 44  1  0  0  0  0
 23 24  1  0  0  0  0
 23 45  1  0  0  0  0
 24 46  1  0  0  0  0
 24 47  1  0  0  0  0
M  CHG  1   4   1
M  END
> <s_m_source_file>
AV-unprocessed.smi

> <i_m_source_file_index>
67

> <i_lp_mmshare_version>
43012

> <i_f3d_flags>
0

> <s_epik_input>
W0NIMl0xW05IXVtDSDJdW0NIMl1bQ0BAXTEoW09IXSlbQ0gyXU4yW0NIMl1bQ0gyXVtDSF0oW0NIMl1bQ0gyXTIpT2MzW2NIXVtjSF1bY0hdYyhDKEYpKEYpRilbY0hdMw==

> <s_epik_cmdline>
J2VwaWtfcHl0aG9uJywgJy1waCcsICc3LjAnLCAnLXRuJywgJzgnLCAnLW1hJywgJzIwMCcsICctbWV0YWxfYmluZGluZycsICctaW1hZScsICc8aW5maWxlLm1hZT4nLCAnLW9tYWUnLCAnPG91dGZpbGUubWFlPic=

> <r_epik_Ionization_Penalty>
2.37709

> <r_epik_Ionization_Penalty_Charging>
0.0305656

> <r_epik_Ionization_Penalty_Neutral>
2.34653

> <r_epik_State_Penalty>
2.56959

> <r_epik_Charging_Adjusted_Penalty>
2.60016

> <i_epik_Tot_Q>
1

> <i_epik_Tot_abs_Q>
1

> <r_epik_Metal_State_Penalty>
2.56925

> <b_epik_Metal_Only>
0

> <s_lp_Force_Field>
OPLS_2005

> <r_lp_Energy>
51.6978

> <b_lp_Chiralities_Consistent>
1

> <s_lp_Variant>
AV-unprocessed.smi:67-9

> <Gold.Version>
5.8.1

> <Gold.Id.Protein>
6NUR|6NUR_protein|mol2

> <Gold.PLP.Fitness>
51.2424

> <Gold.PLP.PLP>
-51.2224

> <Gold.PLP.part.hbond>
-2.8164

> <Gold.PLP.part.metal>
0.0000

> <Gold.PLP.part.buried>
-4.4319

> <Gold.PLP.part.nonpolar>
-44.6516

> <Gold.PLP.part.repulsive>
0.0663

> <Gold.PLP.ligand.clash>
0.0000

> <Gold.PLP.ligand.torsion>
2.4139

> <Gold.PLP.Chemscore.Hbond>
1.0000

> <Gold.PLP.Chemscore.CHOScore>
0.0000

> <Gold.PLP.Chemscore.Metal>
0.0000

> <Gold.Chemscore.Hbonds>
donor molecule, donor type, donor heavy atom, donor atom, acceptor molecule, acceptor atom, score
      L1  H     1    25       P1 10175  0.67

> <Gold.PLP.Chemscore.Internal.Correction>
1.8478

> <Gold.Rescore>
     Score         DG    S(hbond)    S(metal)    S(lipo)     H(rot)  DE(clash)    DE(int)     intcor
     15.13     -16.95       0.99        0.00     117.45       2.17       0.27       1.55       ----

> <Gold.Chemscore.Fitness>
15.1299

> <Gold.Chemscore.DG>
-16.9516

> <Gold.Chemscore.ZeroCoef>
-5.4800

> <Gold.Chemscore.Hbond>
0.9862

> <Gold.Chemscore.Metal>
0.0000

> <Gold.Chemscore.Lipo>
117.4514

> <Gold.Chemscore.Internal_Hbond>
0.0000

> <Gold.Chemscore.DEClash>
0.2690

> <Gold.Chemscore.DEInternal>
1.5527

> <Gold.Chemscore.Rot>
2.1734

> <Gold.Chemscore.Internal.Correction>
   9.000000E+99

> <Gold.Chemscore.Hbonds>
donor molecule, donor type, donor heavy atom, donor atom, acceptor molecule, acceptor atom, score
      L1  H     1    25       P1 10175  0.65
      L1  H     4    48       P1  7957  0.01

> <Gold.Chemscore.Hbond.Weighted>
-3.2938

> <Gold.Chemscore.Metal.Weighted>
-0.0000

> <Gold.Chemscore.Lipo.Weighted>
-13.7418

> <Gold.Chemscore.Internal_Hbond.Weighted>
0.0000

> <Gold.Chemscore.DEClash.Weighted>
0.2690

> <Gold.Chemscore.DEInternal.Weighted>
1.5527

> <Gold.Chemscore.Rot.Weighted>
5.5640

> <Gold.Chemscore.Internal.Correction.Weighted>
   9.000000E+99

> <Gold.Protein.RotatedTorsions>
[ 6907 6896 6895 6894 ] final  130.83 input  -60.11 | X-H torsion
[ 7974 7965 7964 7962 ] final   27.12 input  175.53 | X-H torsion
[ 8008 7997 7996 7995 ] final   51.68 input   59.86 | X-H torsion
[ 10167 10162 10161 10158 ] final  -11.47 input  -65.29 | X-H torsion
[ 10718 10713 10712 10709 ] final  -45.22 input   66.30 | X-H torsion
[ 10763 10752 10751 10750 ] final  -67.38 input  -60.55 | X-H torsion
[ 11005 11000 10999 10996 ] final   70.64 input  -57.11 | X-H torsion

> <Gold.Protein.ActiveResidues>
 VAL166  LYS551  ARG553  GLY616  TRP617  ASP618  TYR619  PRO620  LYS621  CYS622 
 ASP623  PHE694  ASN695  SER759  ASP760  ASP761  ALA762  ILE779  LEU786  VAL792 
 PHE793  MET794  SER795  GLU796  ALA797  LYS798  CYS799  TRP800  GLU811  SER814 

> <Gold.Protein.RotatedAtoms>
  152.3487  133.6154  159.5929 H   0  0  0  0  0  0  0  0  0  0  0  0  # atno 6907 bound_to 6896
  150.7524  133.9608  159.3524 H   0  0  0  0  0  0  0  0  0  0  0  0  # atno 6908 bound_to 6896
  151.7462  135.0844  160.0374 H   0  0  0  0  0  0  0  0  0  0  0  0  # atno 6909 bound_to 6896
  146.1801  139.7234  142.8906 H   0  0  0  0  0  0  0  0  0  0  0  0  # atno 7974 bound_to 7965
  155.4392  140.3454  155.4288 H   0  0  0  0  0  0  0  0  0  0  0  0  # atno 8008 bound_to 7997
  156.1289  140.1508  156.9125 H   0  0  0  0  0  0  0  0  0  0  0  0  # atno 8009 bound_to 7997
  154.4879  140.0850  156.7509 H   0  0  0  0  0  0  0  0  0  0  0  0  # atno 8010 bound_to 7997
  140.7139  143.5636  150.9169 H   0  0  0  0  0  0  0  0  0  0  0  0  # atno 10167 bound_to 10162
  156.2305  130.4172  149.8880 H   0  0  0  0  0  0  0  0  0  0  0  0  # atno 10718 bound_to 10713
  154.3736  135.6090  153.5753 H   0  0  0  0  0  0  0  0  0  0  0  0  # atno 10763 bound_to 10752
  152.9789  135.5844  154.4493 H   0  0  0  0  0  0  0  0  0  0  0  0  # atno 10764 bound_to 10752
  154.4251  135.2846  155.1927 H   0  0  0  0  0  0  0  0  0  0  0  0  # atno 10765 bound_to 10752
  139.9587  134.7099  156.0695 H   0  0  0  0  0  0  0  0  0  0  0  0  # atno 11005 bound_to 11000
  145.4100  141.0395  143.3022 LP  0  0  0  0  0  0  0  0  0  0  0  0  # atno 17320 bound_to 7965
  144.8301  139.5643  143.6948 LP  0  0  0  0  0  0  0  0  0  0  0  0  # atno 17321 bound_to 7965
  139.9361  143.6436  152.3065 LP  0  0  0  0  0  0  0  0  0  0  0  0  # atno 17342 bound_to 10162
  139.6904  144.7647  151.1449 LP  0  0  0  0  0  0  0  0  0  0  0  0  # atno 17343 bound_to 10162
  156.6496  130.8738  151.3529 LP  0  0  0  0  0  0  0  0  0  0  0  0  # atno 17370 bound_to 10713
  157.7131  130.9464  150.1158 LP  0  0  0  0  0  0  0  0  0  0  0  0  # atno 17371 bound_to 10713
  141.1261  133.6599  156.3341 LP  0  0  0  0  0  0  0  0  0  0  0  0  # atno 17394 bound_to 11000
  140.5550  134.5990  157.5418 LP  0  0  0  0  0  0  0  0  0  0  0  0  # atno 17395 bound_to 11000

$$$$
