AV-unprocessed.smi:100|AV-procd|sdf|905|dock3
  -GOLD-   2262017403D 1   1.00000     0.00000
 Structure written by MMmdl.
 31 33  0  0  0  0  0  0  0  0  1 V2000
  155.1406  141.2406  160.0628 N   0  0  0  0  0  0  0  0  0  0  0  0
  153.8519  141.5246  159.8298 C   0  0  0  0  0  0  0  0  0  0  0  0
  153.3138  142.6143  160.4271 N   0  0  0  0  0  0  0  0  0  0  0  0
  152.0298  142.9192  160.2089 C   0  0  0  0  0  0  0  0  0  0  0  0
  151.1357  142.2808  159.4479 N   0  0  0  0  0  0  0  0  0  0  0  0
  151.6833  141.1827  158.8496 C   0  0  0  0  0  0  0  0  0  0  0  0
  153.0267  140.7389  158.9865 C   0  0  0  0  0  0  0  0  0  0  0  0
  153.2239  139.5917  158.2296 N   0  0  0  0  0  0  0  0  0  0  0  0
  152.0596  139.3750  157.6771 C   0  0  0  0  0  0  0  0  0  0  0  0
  151.0759  140.2887  157.9960 N   0  0  0  0  0  0  0  0  0  0  0  0
  149.6454  140.3423  157.5503 C   0  0  2  0  0  0  0  0  0  0  0  0
  149.4011  139.2429  156.7209 O   0  0  0  0  0  0  0  0  0  0  0  0
  149.3697  139.6662  155.3616 C   0  0  1  0  0  0  0  0  0  0  0  0
  148.6110  138.6468  154.5003 C   0  0  0  0  0  0  0  0  0  0  0  0
  149.0456  138.7345  153.1603 O   0  0  0  0  0  0  0  0  0  0  0  0
  148.6567  141.0078  155.5009 C   0  0  2  0  0  0  0  0  0  0  0  0
  148.7334  141.7800  154.4154 F   0  0  0  0  0  0  0  0  0  0  0  0
  149.3278  141.6130  156.7243 C   0  0  2  0  0  0  0  0  0  0  0  0
  150.4758  142.3627  156.3577 O   0  0  0  0  0  0  0  0  0  0  0  0
  155.5628  140.4333  159.6267 H   0  0  0  0  0  0  0  0  0  0  0  0
  155.6864  141.8338  160.6705 H   0  0  0  0  0  0  0  0  0  0  0  0
  151.6672  143.8012  160.7162 H   0  0  0  0  0  0  0  0  0  0  0  0
  151.8911  138.5352  157.0189 H   0  0  0  0  0  0  0  0  0  0  0  0
  149.0630  140.2540  158.4685 H   0  0  0  0  0  0  0  0  0  0  0  0
  150.3829  139.8244  154.9871 H   0  0  0  0  0  0  0  0  0  0  0  0
  148.7413  137.6319  154.8773 H   0  0  0  0  0  0  0  0  0  0  0  0
  147.5427  138.8650  154.5139 H   0  0  0  0  0  0  0  0  0  0  0  0
  148.7271  137.9787  152.6905 H   0  0  0  0  0  0  0  0  0  0  0  0
  147.5967  140.8468  155.7034 H   0  0  0  0  0  0  0  0  0  0  0  0
  148.6470  142.2573  157.2815 H   0  0  0  0  0  0  0  0  0  0  0  0
  150.1957  143.2246  156.0889 H   0  0  0  0  0  0  0  0  0  0  0  0
  1  2  1  0  0  0  0
  1 20  1  0  0  0  0
  1 21  1  0  0  0  0
  2  7  1  0  0  0  0
  2  3  2  0  0  0  0
  3  4  1  0  0  0  0
  4  5  2  0  0  0  0
  4 22  1  0  0  0  0
  5  6  1  0  0  0  0
  6 10  1  0  0  0  0
  6  7  2  0  0  0  0
  7  8  1  0  0  0  0
  8  9  2  0  0  0  0
  9 10  1  0  0  0  0
  9 23  1  0  0  0  0
 10 11  1  0  0  0  0
 11 18  1  0  0  0  0
 11 12  1  0  0  0  0
 11 24  1  0  0  0  0
 12 13  1  0  0  0  0
 13 14  1  0  0  0  0
 13 16  1  0  0  0  0
 13 25  1  0  0  0  0
 14 15  1  0  0  0  0
 14 26  1  0  0  0  0
 14 27  1  0  0  0  0
 15 28  1  0  0  0  0
 16 17  1  0  0  0  0
 16 18  1  0  0  0  0
 16 29  1  0  0  0  0
 18 19  1  0  0  0  0
 18 30  1  0  0  0  0
 19 31  1  0  0  0  0
M  END
> <s_m_source_file>
AV-unprocessed.smi

> <i_m_source_file_index>
100

> <i_lp_mmshare_version>
43012

> <i_f3d_flags>
0

> <s_epik_input>
bjFbY0hdbmMoW05IMl0pYyhjMTIpbltjSF1uMltDQEBIXTNPW0NAQEhdKFtDSDJdW09IXSlbQ0BIXShGKVtDQEhdM1tPSF0=

> <s_epik_cmdline>
J2VwaWtfcHl0aG9uJywgJy1waCcsICc3LjAnLCAnLXRuJywgJzgnLCAnLW1hJywgJzIwMCcsICctbWV0YWxfYmluZGluZycsICctaW1hZScsICc8aW5maWxlLm1hZT4nLCAnLW9tYWUnLCAnPG91dGZpbGUubWFlPic=

> <r_lp_tautomer_probability>
1

> <r_epik_Ionization_Penalty>
0.000750324

> <r_epik_Ionization_Penalty_Charging>
0

> <r_epik_Ionization_Penalty_Neutral>
0.000750324

> <r_epik_State_Penalty>
-0

> <r_epik_Charging_Adjusted_Penalty>
0

> <i_epik_Tot_Q>
0

> <i_epik_Tot_abs_Q>
0

> <r_epik_Metal_State_Penalty>
-0

> <b_epik_Metal_Only>
0

> <s_epik_Chemistry_Notes>
This compound contains an acetal/aminal-like group ( X-CH(R)-Y where X, Y are N, S, or O) that may be acid/base labile, releasing an aldehyde.

> <s_lp_Force_Field>
OPLS_2005

> <r_lp_Energy>
36.1234

> <b_lp_Chiralities_Consistent>
1

> <s_lp_Variant>
AV-unprocessed.smi:100-9

> <Gold.Version>
5.8.1

> <Gold.Id.Protein>
6NUR|6NUR_protein|mol2

> <Gold.PLP.Fitness>
37.8287

> <Gold.PLP.PLP>
-29.5487

> <Gold.PLP.part.hbond>
-5.5698

> <Gold.PLP.part.metal>
0.0000

> <Gold.PLP.part.buried>
-2.9609

> <Gold.PLP.part.nonpolar>
-20.1878

> <Gold.PLP.part.repulsive>
0.0646

> <Gold.PLP.ligand.clash>
0.0000

> <Gold.PLP.ligand.torsion>
0.3629

> <Gold.PLP.Chemscore.Hbond>
2.9913

> <Gold.PLP.Chemscore.CHOScore>
0.0000

> <Gold.PLP.Chemscore.Metal>
0.0000

> <Gold.Chemscore.Hbonds>
donor molecule, donor type, donor heavy atom, donor atom, acceptor molecule, acceptor atom, score
      L1  H    15    28       P1  7948  1.00
      L1  H    19    31       P1  8028  1.00
      P1  H  7997  8010       L1     8  1.00

> <Gold.PLP.Chemscore.Internal.Correction>
0.0321

> <Gold.Rescore>
     Score         DG    S(hbond)    S(metal)    S(lipo)     H(rot)  DE(clash)    DE(int)     intcor
      8.13      -9.94       2.76        0.00      28.99       3.19       0.47       1.33       ----

> <Gold.Chemscore.Fitness>
8.1311

> <Gold.Chemscore.DG>
-9.9369

> <Gold.Chemscore.ZeroCoef>
-5.4800

> <Gold.Chemscore.Hbond>
2.7642

> <Gold.Chemscore.Metal>
0.0000

> <Gold.Chemscore.Lipo>
28.9856

> <Gold.Chemscore.Internal_Hbond>
0.0000

> <Gold.Chemscore.DEClash>
0.4711

> <Gold.Chemscore.DEInternal>
1.3348

> <Gold.Chemscore.Rot>
3.1901

> <Gold.Chemscore.Internal.Correction>
   9.000000E+99

> <Gold.Chemscore.Hbonds>
donor molecule, donor type, donor heavy atom, donor atom, acceptor molecule, acceptor atom, score
      L1  H    15    28       P1  7948  0.96
      L1  H    19    31       P1  8028  0.93
      P1  H  7997  8010       L1     8  0.38

> <Gold.Chemscore.Hbond.Weighted>
-9.2323

> <Gold.Chemscore.Metal.Weighted>
-0.0000

> <Gold.Chemscore.Lipo.Weighted>
-3.3913

> <Gold.Chemscore.Internal_Hbond.Weighted>
0.0000

> <Gold.Chemscore.DEClash.Weighted>
0.4711

> <Gold.Chemscore.DEInternal.Weighted>
1.3348

> <Gold.Chemscore.Rot.Weighted>
8.1667

> <Gold.Chemscore.Internal.Correction.Weighted>
   9.000000E+99

> <Gold.Protein.RotatedTorsions>
[ 6907 6896 6895 6894 ] final  -59.25 input  -60.11 | X-H torsion
[ 7974 7965 7964 7962 ] final  -99.63 input  175.53 | X-H torsion
[ 8008 7997 7996 7995 ] final   17.84 input   59.86 | X-H torsion
[ 10167 10162 10161 10158 ] final  138.99 input  -65.29 | X-H torsion
[ 10718 10713 10712 10709 ] final  -93.92 input   66.30 | X-H torsion
[ 10763 10752 10751 10750 ] final  108.37 input  -60.55 | X-H torsion
[ 11005 11000 10999 10996 ] final  -78.28 input  -57.11 | X-H torsion

> <Gold.Protein.ActiveResidues>
 VAL166  LYS551  ARG553  GLY616  TRP617  ASP618  TYR619  PRO620  LYS621  CYS622 
 ASP623  PHE694  ASN695  SER759  ASP760  ASP761  ALA762  ILE779  LEU786  VAL792 
 PHE793  MET794  SER795  GLU796  ALA797  LYS798  CYS799  TRP800  GLU811  SER814 

> <Gold.Protein.RotatedAtoms>
  150.7944  134.6993  159.6540 H   0  0  0  0  0  0  0  0  0  0  0  0  # atno 6907 bound_to 6896
  152.4054  134.6212  160.0061 H   0  0  0  0  0  0  0  0  0  0  0  0  # atno 6908 bound_to 6896
  151.6470  133.3286  159.3179 H   0  0  0  0  0  0  0  0  0  0  0  0  # atno 6909 bound_to 6896
  145.3051  140.9387  143.2801 H   0  0  0  0  0  0  0  0  0  0  0  0  # atno 7974 bound_to 7965
  154.8973  140.2995  155.5337 H   0  0  0  0  0  0  0  0  0  0  0  0  # atno 8008 bound_to 7997
  156.3019  140.2413  156.3931 H   0  0  0  0  0  0  0  0  0  0  0  0  # atno 8009 bound_to 7997
  154.8557  140.0407  157.1622 H   0  0  0  0  0  0  0  0  0  0  0  0  # atno 8010 bound_to 7997
  139.5093  144.6321  151.5790 H   0  0  0  0  0  0  0  0  0  0  0  0  # atno 10167 bound_to 10162
  156.0020  130.5046  150.5849 H   0  0  0  0  0  0  0  0  0  0  0  0  # atno 10718 bound_to 10713
  153.4197  135.3814  155.2103 H   0  0  0  0  0  0  0  0  0  0  0  0  # atno 10763 bound_to 10752
  154.8744  135.3814  154.4399 H   0  0  0  0  0  0  0  0  0  0  0  0  # atno 10764 bound_to 10752
  153.4917  135.7088  153.5943 H   0  0  0  0  0  0  0  0  0  0  0  0  # atno 10765 bound_to 10752
  141.1664  133.7057  156.7948 H   0  0  0  0  0  0  0  0  0  0  0  0  # atno 11005 bound_to 11000
  144.9061  139.4587  143.6609 LP  0  0  0  0  0  0  0  0  0  0  0  0  # atno 17320 bound_to 7965
  146.3138  139.7843  142.8999 LP  0  0  0  0  0  0  0  0  0  0  0  0  # atno 17321 bound_to 7965
  140.6058  143.9528  150.6417 LP  0  0  0  0  0  0  0  0  0  0  0  0  # atno 17342 bound_to 10162
  140.2754  143.3426  152.1200 LP  0  0  0  0  0  0  0  0  0  0  0  0  # atno 17343 bound_to 10162
  157.3723  131.0767  151.1547 LP  0  0  0  0  0  0  0  0  0  0  0  0  # atno 17370 bound_to 10713
  157.2296  130.6519  149.5844 LP  0  0  0  0  0  0  0  0  0  0  0  0  # atno 17371 bound_to 10713
  140.2299  134.8694  157.3465 LP  0  0  0  0  0  0  0  0  0  0  0  0  # atno 17394 bound_to 11000
  140.1902  134.4381  155.7720 LP  0  0  0  0  0  0  0  0  0  0  0  0  # atno 17395 bound_to 11000

$$$$
