AV-unprocessed.smi:1657|AV-procd|sdf|6647|dock1
  -GOLD-   22720 7353D 1   1.00000     0.00000
 Structure written by MMmdl.
 52 54  0  0  0  0  0  0  0  0  2 V2000
  147.2824  139.5374  154.4915 O   0  0  0  0  0  0  0  0  0  0  0  0
  148.0940  139.4714  153.5683 C   0  0  0  0  0  0  0  0  0  0  0  0
  147.7847  139.0107  152.3480 N   0  0  0  0  0  0  0  0  0  0  0  0
  146.4651  138.5373  151.9463 C   0  0  0  0  0  0  0  0  0  0  0  0
  146.0540  137.2790  152.7345 C   0  0  0  0  0  0  0  0  0  0  0  0
  146.6064  136.0353  152.1411 N   0  3  0  0  0  0  0  0  0  0  0  0
  146.7192  134.9388  153.1387 C   0  0  0  0  0  0  0  0  0  0  0  0
  147.4204  133.7089  152.5379 C   0  0  0  0  0  0  0  0  0  0  0  0
  146.6938  133.2232  151.2773 C   0  0  0  0  0  0  0  0  0  0  0  0
  146.5545  134.3765  150.2754 C   0  0  0  0  0  0  0  0  0  0  0  0
  145.8721  135.5924  150.9249 C   0  0  0  0  0  0  0  0  0  0  0  0
  149.3900  139.8184  153.6450 N   0  0  0  0  0  0  0  0  0  0  0  0
  150.0928  140.3523  154.7582 C   0  0  0  0  0  0  0  0  0  0  0  0
  151.3931  139.9525  155.1427 C   0  0  0  0  0  0  0  0  0  0  0  0
  151.9794  140.5406  156.2796 C   0  0  0  0  0  0  0  0  0  0  0  0
  151.2550  141.5122  157.0109 C   0  0  0  0  0  0  0  0  0  0  0  0
  151.8254  142.1199  158.1519 N   0  0  0  0  0  0  0  0  0  0  0  0
  152.1848  141.2610  159.2795 C   0  0  0  0  0  0  0  0  0  0  0  0
  153.0472  142.0335  160.2919 C   0  0  0  0  0  0  0  0  0  0  0  0
  152.3678  143.2169  160.6970 O   0  0  0  0  0  0  0  0  0  0  0  0
  152.1298  144.0912  159.5992 C   0  0  0  0  0  0  0  0  0  0  0  0
  151.2355  143.3931  158.5600 C   0  0  0  0  0  0  0  0  0  0  0  0
  149.9996  141.8761  156.6497 N   0  0  0  0  0  0  0  0  0  0  0  0
  149.4405  141.3086  155.5608 C   0  0  0  0  0  0  0  0  0  0  0  0
  148.5123  138.9894  151.6480 H   0  0  0  0  0  0  0  0  0  0  0  0
  145.7421  139.3438  152.0716 H   0  0  0  0  0  0  0  0  0  0  0  0
  146.4966  138.3131  150.8798 H   0  0  0  0  0  0  0  0  0  0  0  0
  146.4241  137.3883  153.7551 H   0  0  0  0  0  0  0  0  0  0  0  0
  144.9685  137.1965  152.8100 H   0  0  0  0  0  0  0  0  0  0  0  0
  147.2863  135.2829  154.0045 H   0  0  0  0  0  0  0  0  0  0  0  0
  145.7248  134.6683  153.4973 H   0  0  0  0  0  0  0  0  0  0  0  0
  148.4539  133.9587  152.2936 H   0  0  0  0  0  0  0  0  0  0  0  0
  147.4623  132.9066  153.2751 H   0  0  0  0  0  0  0  0  0  0  0  0
  147.2359  132.3923  150.8246 H   0  0  0  0  0  0  0  0  0  0  0  0
  145.7060  132.8448  151.5441 H   0  0  0  0  0  0  0  0  0  0  0  0
  147.5398  134.6629  149.9046 H   0  0  0  0  0  0  0  0  0  0  0  0
  145.9816  134.0475  149.4077 H   0  0  0  0  0  0  0  0  0  0  0  0
  144.8428  135.3450  151.1902 H   0  0  0  0  0  0  0  0  0  0  0  0
  145.8217  136.3993  150.1950 H   0  0  0  0  0  0  0  0  0  0  0  0
  149.9542  139.6223  152.8309 H   0  0  0  0  0  0  0  0  0  0  0  0
  151.9425  139.1971  154.6024 H   0  0  0  0  0  0  0  0  0  0  0  0
  152.9654  140.2246  156.5851 H   0  0  0  0  0  0  0  0  0  0  0  0
  151.2754  140.9005  159.7622 H   0  0  0  0  0  0  0  0  0  0  0  0
  152.7376  140.3879  158.9304 H   0  0  0  0  0  0  0  0  0  0  0  0
  153.2387  141.4159  161.1693 H   0  0  0  0  0  0  0  0  0  0  0  0
  154.0181  142.2866  159.8627 H   0  0  0  0  0  0  0  0  0  0  0  0
  151.6432  144.9954  159.9651 H   0  0  0  0  0  0  0  0  0  0  0  0
  153.0771  144.3987  159.1528 H   0  0  0  0  0  0  0  0  0  0  0  0
  151.0906  144.0639  157.7147 H   0  0  0  0  0  0  0  0  0  0  0  0
  150.2492  143.2027  158.9854 H   0  0  0  0  0  0  0  0  0  0  0  0
  148.4396  141.6361  155.3201 H   0  0  0  0  0  0  0  0  0  0  0  0
  147.5508  136.2498  151.8546 H   0  0  0  0  0  0  0  0  0  0  0  0
  1  2  2  0  0  0  0
  2  3  1  0  0  0  0
  2 12  1  0  0  0  0
  3  4  1  0  0  0  0
  3 25  1  0  0  0  0
  4  5  1  0  0  0  0
  4 26  1  0  0  0  0
  4 27  1  0  0  0  0
  5  6  1  0  0  0  0
  5 28  1  0  0  0  0
  5 29  1  0  0  0  0
  6 11  1  0  0  0  0
  6  7  1  0  0  0  0
  6 52  1  0  0  0  0
  7  8  1  0  0  0  0
  7 30  1  0  0  0  0
  7 31  1  0  0  0  0
  8  9  1  0  0  0  0
  8 32  1  0  0  0  0
  8 33  1  0  0  0  0
  9 10  1  0  0  0  0
  9 34  1  0  0  0  0
  9 35  1  0  0  0  0
 10 11  1  0  0  0  0
 10 36  1  0  0  0  0
 10 37  1  0  0  0  0
 11 38  1  0  0  0  0
 11 39  1  0  0  0  0
 12 13  1  0  0  0  0
 12 40  1  0  0  0  0
 13 24  1  0  0  0  0
 13 14  2  0  0  0  0
 14 15  1  0  0  0  0
 14 41  1  0  0  0  0
 15 16  2  0  0  0  0
 15 42  1  0  0  0  0
 16 17  1  0  0  0  0
 16 23  1  0  0  0  0
 17 22  1  0  0  0  0
 17 18  1  0  0  0  0
 18 19  1  0  0  0  0
 18 43  1  0  0  0  0
 18 44  1  0  0  0  0
 19 20  1  0  0  0  0
 19 45  1  0  0  0  0
 19 46  1  0  0  0  0
 20 21  1  0  0  0  0
 21 22  1  0  0  0  0
 21 47  1  0  0  0  0
 21 48  1  0  0  0  0
 22 49  1  0  0  0  0
 22 50  1  0  0  0  0
 23 24  2  0  0  0  0
 24 51  1  0  0  0  0
M  CHG  1   6   1
M  END
> <s_m_source_file>
AV-unprocessed.smi

> <i_m_source_file_index>
1657

> <i_lp_mmshare_version>
43012

> <i_f3d_flags>
0

> <s_epik_input>
W0NIMl0xW0NIMl1bQ0gyXVtDSDJdW0NIMl1OMVtDSDJdW0NIMl1bTkhdQyg9TylbTkhdYzJbY0hdW2NIXWMobltjSF0yKU4zW0NIMl1bQ0gyXU9bQ0gyXVtDSDJdMw==

> <s_epik_cmdline>
J2VwaWtfcHl0aG9uJywgJy1waCcsICc3LjAnLCAnLXRuJywgJzgnLCAnLW1hJywgJzIwMCcsICctbWV0YWxfYmluZGluZycsICctaW1hZScsICc8aW5maWxlLm1hZT4nLCAnLW9tYWUnLCAnPG91dGZpbGUubWFlPic=

> <r_lp_tautomer_probability>
1

> <r_epik_Ionization_Penalty>
0.00380107

> <r_epik_Ionization_Penalty_Charging>
0.00211816

> <r_epik_Ionization_Penalty_Neutral>
0.00168291

> <r_epik_State_Penalty>
-0

> <r_epik_Charging_Adjusted_Penalty>
0.00211816

> <i_epik_Tot_Q>
1

> <i_epik_Tot_abs_Q>
1

> <r_epik_Metal_State_Penalty>
-0

> <b_epik_Metal_Only>
0

> <s_lp_Force_Field>
OPLS_2005

> <r_lp_Energy>
33.9821

> <b_lp_Chiralities_Consistent>
1

> <s_lp_Variant>
AV-unprocessed.smi:1657-1

> <Gold.Version>
5.8.1

> <Gold.Id.Protein>
6NUR|6NUR_protein|mol2

> <Gold.PLP.Fitness>
53.0305

> <Gold.PLP.PLP>
-46.4304

> <Gold.PLP.part.hbond>
-3.7274

> <Gold.PLP.part.metal>
0.0000

> <Gold.PLP.part.buried>
-4.1375

> <Gold.PLP.part.nonpolar>
-39.0918

> <Gold.PLP.part.repulsive>
0.5221

> <Gold.PLP.ligand.clash>
0.0000

> <Gold.PLP.ligand.torsion>
0.9559

> <Gold.PLP.Chemscore.Hbond>
2.6855

> <Gold.PLP.Chemscore.CHOScore>
0.0000

> <Gold.PLP.Chemscore.Metal>
0.0000

> <Gold.Chemscore.Hbonds>
donor molecule, donor type, donor heavy atom, donor atom, acceptor molecule, acceptor atom, score
      L1  H     3    25       P1  7957  0.72
      L1  H     6    52       P1  7948  1.24
      L1  H    12    40       P1  7957  0.58

> <Gold.PLP.Chemscore.Internal.Correction>
0.4554

> <Gold.Rescore>
     Score         DG    S(hbond)    S(metal)    S(lipo)     H(rot)  DE(clash)    DE(int)     intcor
     17.50     -19.43       1.79        0.00     103.56       1.62       0.05       1.88       ----

> <Gold.Chemscore.Fitness>
17.5007

> <Gold.Chemscore.DG>
-19.4277

> <Gold.Chemscore.ZeroCoef>
-5.4800

> <Gold.Chemscore.Hbond>
1.7901

> <Gold.Chemscore.Metal>
0.0000

> <Gold.Chemscore.Lipo>
103.5571

> <Gold.Chemscore.Internal_Hbond>
0.0000

> <Gold.Chemscore.DEClash>
0.0509

> <Gold.Chemscore.DEInternal>
1.8762

> <Gold.Chemscore.Rot>
1.6201

> <Gold.Chemscore.Internal.Correction>
   9.000000E+99

> <Gold.Chemscore.Hbonds>
donor molecule, donor type, donor heavy atom, donor atom, acceptor molecule, acceptor atom, score
      L1  H     3    25       P1  7957  0.54
      L1  H     6    52       P1  7948  0.62
      L1  H    12    40       P1  7957  0.58

> <Gold.Chemscore.Hbond.Weighted>
-5.9790

> <Gold.Chemscore.Metal.Weighted>
-0.0000

> <Gold.Chemscore.Lipo.Weighted>
-12.1162

> <Gold.Chemscore.Internal_Hbond.Weighted>
0.0000

> <Gold.Chemscore.DEClash.Weighted>
0.0509

> <Gold.Chemscore.DEInternal.Weighted>
1.8762

> <Gold.Chemscore.Rot.Weighted>
4.1475

> <Gold.Chemscore.Internal.Correction.Weighted>
   9.000000E+99

> <Gold.Protein.RotatedTorsions>
[ 6907 6896 6895 6894 ] final  149.61 input  -60.11 | X-H torsion
[ 7974 7965 7964 7962 ] final -124.29 input  175.53 | X-H torsion
[ 8008 7997 7996 7995 ] final  -61.27 input   59.86 | X-H torsion
[ 10167 10162 10161 10158 ] final  -43.04 input  -65.29 | X-H torsion
[ 10718 10713 10712 10709 ] final  -84.84 input   66.30 | X-H torsion
[ 10763 10752 10751 10750 ] final  131.50 input  -60.55 | X-H torsion
[ 11005 11000 10999 10996 ] final   76.40 input  -57.11 | X-H torsion

> <Gold.Protein.ActiveResidues>
 VAL166  LYS551  ARG553  GLY616  TRP617  ASP618  TYR619  PRO620  LYS621  CYS622 
 ASP623  PHE694  ASN695  SER759  ASP760  ASP761  ALA762  ILE779  LEU786  VAL792 
 PHE793  MET794  SER795  GLU796  ALA797  LYS798  CYS799  TRP800  GLU811  SER814 

> <Gold.Protein.RotatedAtoms>
  152.1257  133.4378  159.4696 H   0  0  0  0  0  0  0  0  0  0  0  0  # atno 6907 bound_to 6896
  150.6874  134.2481  159.4509 H   0  0  0  0  0  0  0  0  0  0  0  0  # atno 6908 bound_to 6896
  152.0362  134.9738  160.0624 H   0  0  0  0  0  0  0  0  0  0  0  0  # atno 6909 bound_to 6896
  145.0096  140.7894  143.4446 H   0  0  0  0  0  0  0  0  0  0  0  0  # atno 7974 bound_to 7965
  154.4439  140.1021  156.6404 H   0  0  0  0  0  0  0  0  0  0  0  0  # atno 8008 bound_to 7997
  155.5507  140.3485  155.4449 H   0  0  0  0  0  0  0  0  0  0  0  0  # atno 8009 bound_to 7997
  156.0531  140.1308  157.0017 H   0  0  0  0  0  0  0  0  0  0  0  0  # atno 8010 bound_to 7997
  140.6948  143.3005  151.3294 H   0  0  0  0  0  0  0  0  0  0  0  0  # atno 10167 bound_to 10162
  156.0002  130.4711  150.4471 H   0  0  0  0  0  0  0  0  0  0  0  0  # atno 10718 bound_to 10713
  153.7754  135.3176  155.3358 H   0  0  0  0  0  0  0  0  0  0  0  0  # atno 10763 bound_to 10752
  154.8181  135.4622  154.0703 H   0  0  0  0  0  0  0  0  0  0  0  0  # atno 10764 bound_to 10752
  153.1976  135.6918  153.8357 H   0  0  0  0  0  0  0  0  0  0  0  0  # atno 10765 bound_to 10752
  139.9300  134.7598  156.1391 H   0  0  0  0  0  0  0  0  0  0  0  0  # atno 11005 bound_to 11000
  145.2041  139.2237  143.5177 LP  0  0  0  0  0  0  0  0  0  0  0  0  # atno 17320 bound_to 7965
  146.3467  140.1865  142.8589 LP  0  0  0  0  0  0  0  0  0  0  0  0  # atno 17321 bound_to 7965
  139.6391  144.0574  152.2540 LP  0  0  0  0  0  0  0  0  0  0  0  0  # atno 17342 bound_to 10162
  140.0074  144.6249  150.7677 LP  0  0  0  0  0  0  0  0  0  0  0  0  # atno 17343 bound_to 10162
  157.2507  131.0546  151.2381 LP  0  0  0  0  0  0  0  0  0  0  0  0  # atno 17370 bound_to 10713
  157.3531  130.7092  149.6453 LP  0  0  0  0  0  0  0  0  0  0  0  0  # atno 17371 bound_to 10713
  141.0882  133.6725  156.2483 LP  0  0  0  0  0  0  0  0  0  0  0  0  # atno 17394 bound_to 11000
  140.6229  134.5343  157.5550 LP  0  0  0  0  0  0  0  0  0  0  0  0  # atno 17395 bound_to 11000

$$$$
