AV-unprocessed.smi:2414|AV-procd|sdf|9538|dock7
  -GOLD-   2272013173D 1   1.00000     0.00000
 Structure written by MMmdl.
 43 44  0  0  0  0  0  0  0  0  1 V2000
  144.3654  134.0664  151.0220 C   0  0  0  0  0  0  0  0  0  0  0  0
  145.4003  133.5925  151.9851 C   0  0  0  0  0  0  0  0  0  0  0  0
  145.2286  133.2533  153.3042 C   0  0  0  0  0  0  0  0  0  0  0  0
  146.4050  132.8533  153.9421 N   0  0  0  0  0  0  0  0  0  0  0  0
  147.4630  132.8815  153.1267 C   0  0  0  0  0  0  0  0  0  0  0  0
  148.8564  132.5303  153.5534 C   0  0  2  0  0  0  0  0  0  0  0  0
  149.0108  131.0329  153.8533 C   0  0  0  0  0  0  0  0  0  0  0  0
  149.3910  133.4308  154.6900 C   0  0  0  0  0  0  0  0  0  0  0  0
  149.5820  134.8170  154.2733 N   0  0  0  0  0  0  0  0  0  0  0  0
  150.3336  135.7184  154.9185 C   0  0  0  0  0  0  0  0  0  0  0  0
  150.9162  135.4982  155.9804 O   0  0  0  0  0  0  0  0  0  0  0  0
  150.3935  136.8773  154.2498 N   0  0  0  0  0  0  0  0  0  0  0  0
  151.1603  138.0554  154.6460 C   0  0  0  0  0  0  0  0  0  0  0  0
  150.2832  139.1427  155.3089 C   0  0  1  0  0  0  0  0  0  0  0  0
  148.9666  139.3074  154.5300 C   0  0  0  0  0  0  0  0  0  0  0  0
  150.0062  138.9103  156.8080 C   0  0  0  0  0  0  0  0  0  0  0  0
  150.0908  140.3035  157.3917 C   0  0  0  0  0  0  0  0  0  0  0  0
  151.1941  140.9150  156.5413 C   0  0  0  0  0  0  0  0  0  0  0  0
  150.9599  140.4008  155.2355 O   0  0  0  0  0  0  0  0  0  0  0  0
  147.0632  133.4059  151.4950 S   0  0  0  0  0  0  0  0  0  0  0  0
  143.3785  134.0874  151.4845 H   0  0  0  0  0  0  0  0  0  0  0  0
  144.3165  133.4101  150.1531 H   0  0  0  0  0  0  0  0  0  0  0  0
  144.5941  135.0733  150.6734 H   0  0  0  0  0  0  0  0  0  0  0  0
  144.3083  133.2709  153.8692 H   0  0  0  0  0  0  0  0  0  0  0  0
  149.4886  132.7236  152.6859 H   0  0  0  0  0  0  0  0  0  0  0  0
  148.7229  130.4289  152.9924 H   0  0  0  0  0  0  0  0  0  0  0  0
  148.3876  130.7315  154.6958 H   0  0  0  0  0  0  0  0  0  0  0  0
  150.0441  130.7868  154.0990 H   0  0  0  0  0  0  0  0  0  0  0  0
  148.6751  133.4406  155.5124 H   0  0  0  0  0  0  0  0  0  0  0  0
  150.3204  133.0280  155.0959 H   0  0  0  0  0  0  0  0  0  0  0  0
  149.1428  135.0955  153.4082 H   0  0  0  0  0  0  0  0  0  0  0  0
  149.8850  136.9469  153.3805 H   0  0  0  0  0  0  0  0  0  0  0  0
  151.9192  137.7177  155.3522 H   0  0  0  0  0  0  0  0  0  0  0  0
  151.7044  138.4767  153.7989 H   0  0  0  0  0  0  0  0  0  0  0  0
  148.3818  138.3870  154.5442 H   0  0  0  0  0  0  0  0  0  0  0  0
  149.1552  139.5633  153.4871 H   0  0  0  0  0  0  0  0  0  0  0  0
  148.3483  140.0994  154.9538 H   0  0  0  0  0  0  0  0  0  0  0  0
  149.0462  138.4306  157.0005 H   0  0  0  0  0  0  0  0  0  0  0  0
  150.7728  138.2891  157.2684 H   0  0  0  0  0  0  0  0  0  0  0  0
  149.1532  140.8385  157.2370 H   0  0  0  0  0  0  0  0  0  0  0  0
  150.3168  140.3096  158.4581 H   0  0  0  0  0  0  0  0  0  0  0  0
  151.1824  142.0048  156.5525 H   0  0  0  0  0  0  0  0  0  0  0  0
  152.1733  140.5793  156.8859 H   0  0  0  0  0  0  0  0  0  0  0  0
  1  2  1  0  0  0  0
  1 21  1  0  0  0  0
  1 22  1  0  0  0  0
  1 23  1  0  0  0  0
  2 20  1  0  0  0  0
  2  3  2  0  0  0  0
  3  4  1  0  0  0  0
  3 24  1  0  0  0  0
  4  5  2  0  0  0  0
  5  6  1  0  0  0  0
  5 20  1  0  0  0  0
  6  7  1  0  0  0  0
  6  8  1  0  0  0  0
  6 25  1  0  0  0  0
  7 26  1  0  0  0  0
  7 27  1  0  0  0  0
  7 28  1  0  0  0  0
  8  9  1  0  0  0  0
  8 29  1  0  0  0  0
  8 30  1  0  0  0  0
  9 10  1  0  0  0  0
  9 31  1  0  0  0  0
 10 11  2  0  0  0  0
 10 12  1  0  0  0  0
 12 13  1  0  0  0  0
 12 32  1  0  0  0  0
 13 14  1  0  0  0  0
 13 33  1  0  0  0  0
 13 34  1  0  0  0  0
 14 19  1  0  0  0  0
 14 15  1  0  0  0  0
 14 16  1  0  0  0  0
 15 35  1  0  0  0  0
 15 36  1  0  0  0  0
 15 37  1  0  0  0  0
 16 17  1  0  0  0  0
 16 38  1  0  0  0  0
 16 39  1  0  0  0  0
 17 18  1  0  0  0  0
 17 40  1  0  0  0  0
 17 41  1  0  0  0  0
 18 19  1  0  0  0  0
 18 42  1  0  0  0  0
 18 43  1  0  0  0  0
M  END
> <s_m_source_file>
AV-unprocessed.smi

> <i_m_source_file_index>
2414

> <i_lp_mmshare_version>
43012

> <i_f3d_flags>
0

> <s_epik_input>
W0NIM11jMVtjSF1uYyhzMSlbQ0BIXShbQ0gzXSlbQ0gyXVtOSF1DKD1PKVtOSF1bQ0gyXVtDQEBdMihbQ0gzXSlbQ0gyXVtDSDJdW0NIMl1PMg==

> <s_epik_cmdline>
J2VwaWtfcHl0aG9uJywgJy1waCcsICc3LjAnLCAnLXRuJywgJzgnLCAnLW1hJywgJzIwMCcsICctbWV0YWxfYmluZGluZycsICctaW1hZScsICc8aW5maWxlLm1hZT4nLCAnLW9tYWUnLCAnPG91dGZpbGUubWFlPic=

> <r_epik_Ionization_Penalty>
0.000646956

> <r_epik_Ionization_Penalty_Charging>
0

> <r_epik_Ionization_Penalty_Neutral>
0.000646956

> <r_epik_State_Penalty>
0.000375727

> <r_epik_Charging_Adjusted_Penalty>
0.000375727

> <i_epik_Tot_Q>
0

> <i_epik_Tot_abs_Q>
0

> <r_epik_Metal_State_Penalty>
-0

> <b_epik_Metal_Only>
0

> <s_lp_Force_Field>
OPLS_2005

> <r_lp_Energy>
5.80605

> <b_lp_Chiralities_Consistent>
1

> <s_lp_Variant>
AV-unprocessed.smi:2414-1

> <Gold.Version>
5.8.1

> <Gold.Id.Protein>
6NUR|6NUR_protein|mol2

> <Gold.PLP.Fitness>
43.2976

> <Gold.PLP.PLP>
-32.8258

> <Gold.PLP.part.hbond>
-4.0000

> <Gold.PLP.part.metal>
0.0000

> <Gold.PLP.part.buried>
-3.2697

> <Gold.PLP.part.nonpolar>
-26.6647

> <Gold.PLP.part.repulsive>
0.2962

> <Gold.PLP.ligand.clash>
0.0000

> <Gold.PLP.ligand.torsion>
0.6777

> <Gold.PLP.Chemscore.Hbond>
2.9000

> <Gold.PLP.Chemscore.CHOScore>
1.0000

> <Gold.PLP.Chemscore.Metal>
0.0000

> <Gold.Chemscore.Hbonds>
donor molecule, donor type, donor heavy atom, donor atom, acceptor molecule, acceptor atom, score
      L1  H     9    31       P1  7948  0.95
      L1  H    12    32       P1  7948  1.00
      P1  H  7989  7998       L1    19  1.00
      L1  C     3    24       P1 10957  1.00

> <Gold.PLP.Chemscore.Internal.Correction>
0.1272

> <Gold.Rescore>
     Score         DG    S(hbond)    S(metal)    S(lipo)     H(rot)  DE(clash)    DE(int)     intcor
     14.81     -15.62       1.84        0.00      70.36       1.65       0.07       0.75       ----

> <Gold.Chemscore.Fitness>
14.8107

> <Gold.Chemscore.DG>
-15.6250

> <Gold.Chemscore.ZeroCoef>
-5.4800

> <Gold.Chemscore.Hbond>
1.8391

> <Gold.Chemscore.Metal>
0.0000

> <Gold.Chemscore.Lipo>
70.3582

> <Gold.Chemscore.Internal_Hbond>
0.0000

> <Gold.Chemscore.DEClash>
0.0659

> <Gold.Chemscore.DEInternal>
0.7483

> <Gold.Chemscore.Rot>
1.6522

> <Gold.Chemscore.Internal.Correction>
   9.000000E+99

> <Gold.Chemscore.Hbonds>
donor molecule, donor type, donor heavy atom, donor atom, acceptor molecule, acceptor atom, score
      L1  H     9    31       P1  7948  0.21
      L1  H    12    32       P1  7948  0.34
      P1  H  7989  7998       L1    19  0.89

> <Gold.Chemscore.Hbond.Weighted>
-6.1426

> <Gold.Chemscore.Metal.Weighted>
-0.0000

> <Gold.Chemscore.Lipo.Weighted>
-8.2319

> <Gold.Chemscore.Internal_Hbond.Weighted>
0.0000

> <Gold.Chemscore.DEClash.Weighted>
0.0659

> <Gold.Chemscore.DEInternal.Weighted>
0.7483

> <Gold.Chemscore.Rot.Weighted>
4.2295

> <Gold.Chemscore.Internal.Correction.Weighted>
   9.000000E+99

> <Gold.Protein.RotatedTorsions>
[ 6907 6896 6895 6894 ] final  119.24 input  -60.11 | X-H torsion
[ 7974 7965 7964 7962 ] final   -2.92 input  175.53 | X-H torsion
[ 8008 7997 7996 7995 ] final   45.24 input   59.86 | X-H torsion
[ 10167 10162 10161 10158 ] final  -46.62 input  -65.29 | X-H torsion
[ 10718 10713 10712 10709 ] final  159.57 input   66.30 | X-H torsion
[ 10763 10752 10751 10750 ] final  148.27 input  -60.55 | X-H torsion
[ 11005 11000 10999 10996 ] final  -63.98 input  -57.11 | X-H torsion

> <Gold.Protein.ActiveResidues>
 VAL166  LYS551  ARG553  GLY616  TRP617  ASP618  TYR619  PRO620  LYS621  CYS622 
 ASP623  PHE694  ASN695  SER759  ASP760  ASP761  ALA762  ILE779  LEU786  VAL792 
 PHE793  MET794  SER795  GLU796  ALA797  LYS798  CYS799  TRP800  GLU811  SER814 

> <Gold.Protein.RotatedAtoms>
  152.4486  133.7584  159.6732 H   0  0  0  0  0  0  0  0  0  0  0  0  # atno 6907 bound_to 6896
  150.8392  133.7954  159.3074 H   0  0  0  0  0  0  0  0  0  0  0  0  # atno 6908 bound_to 6896
  151.5584  135.1068  160.0018 H   0  0  0  0  0  0  0  0  0  0  0  0  # atno 6909 bound_to 6896
  146.2397  140.1644  142.8332 H   0  0  0  0  0  0  0  0  0  0  0  0  # atno 7974 bound_to 7965
  155.3326  140.3403  155.4239 H   0  0  0  0  0  0  0  0  0  0  0  0  # atno 8008 bound_to 7997
  156.1854  140.1678  156.8232 H   0  0  0  0  0  0  0  0  0  0  0  0  # atno 8009 bound_to 7997
  154.5380  140.0731  156.8444 H   0  0  0  0  0  0  0  0  0  0  0  0  # atno 8010 bound_to 7997
  140.6810  143.2822  151.3809 H   0  0  0  0  0  0  0  0  0  0  0  0  # atno 10167 bound_to 10162
  157.1623  131.0590  151.2226 H   0  0  0  0  0  0  0  0  0  0  0  0  # atno 10718 bound_to 10713
  154.0519  135.2881  155.3339 H   0  0  0  0  0  0  0  0  0  0  0  0  # atno 10763 bound_to 10752
  154.6863  135.5244  153.8335 H   0  0  0  0  0  0  0  0  0  0  0  0  # atno 10764 bound_to 10752
  153.0557  135.6594  154.0715 H   0  0  0  0  0  0  0  0  0  0  0  0  # atno 10765 bound_to 10752
  141.1410  133.6659  156.5763 H   0  0  0  0  0  0  0  0  0  0  0  0  # atno 11005 bound_to 11000
  145.0063  140.8676  143.5251 LP  0  0  0  0  0  0  0  0  0  0  0  0  # atno 17320 bound_to 7965
  145.1670  139.2425  143.5361 LP  0  0  0  0  0  0  0  0  0  0  0  0  # atno 17321 bound_to 7965
  139.6132  144.1055  152.2320 LP  0  0  0  0  0  0  0  0  0  0  0  0  # atno 17342 bound_to 10162
  140.0476  144.5958  150.7361 LP  0  0  0  0  0  0  0  0  0  0  0  0  # atno 17343 bound_to 10162
  157.4121  130.7390  149.6847 LP  0  0  0  0  0  0  0  0  0  0  0  0  # atno 17370 bound_to 10713
  155.9752  130.4093  150.3869 LP  0  0  0  0  0  0  0  0  0  0  0  0  # atno 17371 bound_to 10713
  140.3873  134.7471  157.4699 LP  0  0  0  0  0  0  0  0  0  0  0  0  # atno 17394 bound_to 11000
  140.0592  134.6019  155.8768 LP  0  0  0  0  0  0  0  0  0  0  0  0  # atno 17395 bound_to 11000

$$$$
