AV-unprocessed.smi:102|AV-procd|sdf|949|dock3
  -GOLD-   2262017473D 1   1.00000     0.00000
 Structure written by MMmdl.
 44 45  0  0  0  0  0  0  0  0  1 V2000
  151.3622  141.5236  158.5986 C   0  0  0  0  0  0  0  0  0  0  0  0
  151.9234  140.1146  158.4554 C   0  0  0  0  0  0  0  0  0  0  0  0
  153.0164  139.9096  157.9270 O   0  0  0  0  0  0  0  0  0  0  0  0
  151.1042  139.1799  158.9603 O   0  0  0  0  0  0  0  0  0  0  0  0
  151.4917  137.8164  158.9259 C   0  0  0  0  0  0  0  0  0  0  0  0
  150.3402  136.9785  158.3619 C   0  0  2  0  0  0  0  0  0  0  0  0
  150.1248  137.2975  156.9944 O   0  0  0  0  0  0  0  0  0  0  0  0
  148.8396  136.8991  156.6430 C   0  0  1  0  0  0  0  0  0  0  0  0
  148.9164  135.4789  156.1010 N   0  0  0  0  0  0  0  0  0  0  0  0
  148.7734  135.1787  154.7487 C   0  0  0  0  0  0  0  0  0  0  0  0
  148.7599  133.9137  154.2664 C   0  0  0  0  0  0  0  0  0  0  0  0
  148.6154  133.7091  152.9461 F   0  0  0  0  0  0  0  0  0  0  0  0
  148.8720  132.7716  155.1668 C   0  0  0  0  0  0  0  0  0  0  0  0
  148.8838  131.5913  154.8241 O   0  0  0  0  0  0  0  0  0  0  0  0
  148.9538  133.1129  156.5185 N   0  0  0  0  0  0  0  0  0  0  0  0
  148.9557  134.4118  157.0294 C   0  0  0  0  0  0  0  0  0  0  0  0
  148.9923  134.5848  158.2470 O   0  0  0  0  0  0  0  0  0  0  0  0
  147.9640  137.0377  157.9041 C   0  0  2  0  0  0  0  0  0  0  0  0
  147.0908  138.1550  157.7967 O   0  0  0  0  0  0  0  0  0  0  0  0
  147.5833  139.3725  157.5095 C   0  0  0  0  0  0  0  0  0  0  0  0
  146.5032  140.4456  157.4803 C   0  0  0  0  0  0  0  0  0  0  0  0
  148.7646  139.6429  157.2933 O   0  0  0  0  0  0  0  0  0  0  0  0
  148.9875  137.2941  159.0112 C   0  0  1  0  0  0  0  0  0  0  0  0
  148.7570  136.4359  160.1209 O   0  0  0  0  0  0  0  0  0  0  0  0
  147.6390  136.5681  160.8571 C   0  0  0  0  0  0  0  0  0  0  0  0
  147.6389  135.6662  162.0842 C   0  0  0  0  0  0  0  0  0  0  0  0
  146.6910  137.3128  160.6077 O   0  0  0  0  0  0  0  0  0  0  0  0
  149.0035  132.3546  157.1835 H   0  0  0  0  0  0  0  0  0  0  0  0
  150.2829  141.4975  158.7504 H   0  0  0  0  0  0  0  0  0  0  0  0
  151.5689  142.1065  157.7008 H   0  0  0  0  0  0  0  0  0  0  0  0
  151.8196  142.0263  159.4507 H   0  0  0  0  0  0  0  0  0  0  0  0
  152.3685  137.7162  158.2845 H   0  0  0  0  0  0  0  0  0  0  0  0
  151.7697  137.4663  159.9212 H   0  0  0  0  0  0  0  0  0  0  0  0
  150.5654  135.9149  158.4546 H   0  0  0  0  0  0  0  0  0  0  0  0
  148.4614  137.5127  155.8234 H   0  0  0  0  0  0  0  0  0  0  0  0
  148.6451  135.9674  154.0240 H   0  0  0  0  0  0  0  0  0  0  0  0
  147.3838  136.1331  158.0838 H   0  0  0  0  0  0  0  0  0  0  0  0
  145.5767  140.0461  157.0671 H   0  0  0  0  0  0  0  0  0  0  0  0
  146.8194  141.2875  156.8639 H   0  0  0  0  0  0  0  0  0  0  0  0
  146.3058  140.8100  158.4886 H   0  0  0  0  0  0  0  0  0  0  0  0
  148.9703  138.3447  159.3076 H   0  0  0  0  0  0  0  0  0  0  0  0
  148.6544  135.5147  162.4508 H   0  0  0  0  0  0  0  0  0  0  0  0
  147.2108  134.6947  161.8373 H   0  0  0  0  0  0  0  0  0  0  0  0
  147.0473  136.1124  162.8840 H   0  0  0  0  0  0  0  0  0  0  0  0
  1  2  1  0  0  0  0
  1 29  1  0  0  0  0
  1 30  1  0  0  0  0
  1 31  1  0  0  0  0
  2  3  2  0  0  0  0
  2  4  1  0  0  0  0
  4  5  1  0  0  0  0
  5  6  1  0  0  0  0
  5 32  1  0  0  0  0
  5 33  1  0  0  0  0
  6 23  1  0  0  0  0
  6  7  1  0  0  0  0
  6 34  1  0  0  0  0
  7  8  1  0  0  0  0
  8  9  1  0  0  0  0
  8 18  1  0  0  0  0
  8 35  1  0  0  0  0
  9 16  1  0  0  0  0
  9 10  1  0  0  0  0
 10 11  2  0  0  0  0
 10 36  1  0  0  0  0
 11 12  1  0  0  0  0
 11 13  1  0  0  0  0
 13 14  2  0  0  0  0
 13 15  1  0  0  0  0
 15 28  1  0  0  0  0
 15 16  1  0  0  0  0
 16 17  2  0  0  0  0
 18 19  1  0  0  0  0
 18 23  1  0  0  0  0
 18 37  1  0  0  0  0
 19 20  1  0  0  0  0
 20 21  1  0  0  0  0
 20 22  2  0  0  0  0
 21 38  1  0  0  0  0
 21 39  1  0  0  0  0
 21 40  1  0  0  0  0
 23 24  1  0  0  0  0
 23 41  1  0  0  0  0
 24 25  1  0  0  0  0
 25 26  1  0  0  0  0
 25 27  2  0  0  0  0
 26 42  1  0  0  0  0
 26 43  1  0  0  0  0
 26 44  1  0  0  0  0
M  END
> <s_m_source_file>
AV-unprocessed.smi

> <i_m_source_file_index>
102

> <i_lp_mmshare_version>
43012

> <i_f3d_flags>
0

> <s_epik_input>
W0NIM11DKD1PKU9bQ0gyXVtDQEBIXTFPW0NASF0oW0NAQEhdKE9DKD1PKVtDSDNdKVtDQEhdMU9DKD1PKVtDSDNdKW4yW2NIXWMoRiljKD1PKVtuSF1jMj1P

> <s_epik_cmdline>
J2VwaWtfcHl0aG9uJywgJy1waCcsICc3LjAnLCAnLXRuJywgJzgnLCAnLW1hJywgJzIwMCcsICctbWV0YWxfYmluZGluZycsICctaW1hZScsICc8aW5maWxlLm1hZT4nLCAnLW9tYWUnLCAnPG91dGZpbGUubWFlPic=

> <r_lp_tautomer_probability>
0.999537

> <r_epik_Ionization_Penalty>
0.058267

> <r_epik_Ionization_Penalty_Charging>
0.058267

> <r_epik_Ionization_Penalty_Neutral>
6.57791e-16

> <r_epik_State_Penalty>
0.0503774

> <r_epik_Charging_Adjusted_Penalty>
0.108644

> <i_epik_Tot_Q>
0

> <i_epik_Tot_abs_Q>
0

> <r_epik_Metal_State_Penalty>
2.6644

> <b_epik_Metal_Only>
0

> <s_epik_Chemistry_Notes>
This compound has an ester and may undergo hydrolysis at high or low pH. This compound contains an acetal/aminal-like group ( X-CH(R)-Y where X, Y are N, S, or O) that may be acid/base labile, releasing an aldehyde.

> <s_lp_Force_Field>
OPLS_2005

> <r_lp_Energy>
9.37948

> <b_lp_Chiralities_Consistent>
1

> <s_lp_Variant>
AV-unprocessed.smi:102-5

> <Gold.Version>
5.8.1

> <Gold.Id.Protein>
6NUR|6NUR_protein|mol2

> <Gold.PLP.Fitness>
38.0097

> <Gold.PLP.PLP>
-30.0276

> <Gold.PLP.part.hbond>
-3.1760

> <Gold.PLP.part.metal>
0.0000

> <Gold.PLP.part.buried>
-3.8876

> <Gold.PLP.part.nonpolar>
-22.2826

> <Gold.PLP.part.repulsive>
0.0553

> <Gold.PLP.ligand.clash>
2.4652

> <Gold.PLP.ligand.torsion>
0.9333

> <Gold.PLP.Chemscore.Hbond>
2.9920

> <Gold.PLP.Chemscore.CHOScore>
1.0000

> <Gold.PLP.Chemscore.Metal>
0.0000

> <Gold.Chemscore.Hbonds>
donor molecule, donor type, donor heavy atom, donor atom, acceptor molecule, acceptor atom, score
      P1  H  6896  6907       L1    17  0.76
      P1  H  6934  6947       L1    27  1.00
      P1  H  7997  8009       L1     3  1.00
      L1  C    10    36       P1  7948  1.00

> <Gold.PLP.Chemscore.Internal.Correction>
0.3378

> <Gold.Rescore>
     Score         DG    S(hbond)    S(metal)    S(lipo)     H(rot)  DE(clash)    DE(int)     intcor
     -0.04      -9.93       2.99        0.00      41.48       4.05       0.01       9.96       ----

> <Gold.Chemscore.Fitness>
-0.0370

> <Gold.Chemscore.DG>
-9.9332

> <Gold.Chemscore.ZeroCoef>
-5.4800

> <Gold.Chemscore.Hbond>
2.9859

> <Gold.Chemscore.Metal>
0.0000

> <Gold.Chemscore.Lipo>
41.4823

> <Gold.Chemscore.Internal_Hbond>
0.0000

> <Gold.Chemscore.DEClash>
0.0073

> <Gold.Chemscore.DEInternal>
9.9628

> <Gold.Chemscore.Rot>
4.0520

> <Gold.Chemscore.Internal.Correction>
   9.000000E+99

> <Gold.Chemscore.Hbonds>
donor molecule, donor type, donor heavy atom, donor atom, acceptor molecule, acceptor atom, score
      P1  H  6896  6907       L1    17  0.70
      P1  H  6934  6947       L1    27  0.74
      P1  H  7997  8009       L1     3  0.98

> <Gold.Chemscore.Hbond.Weighted>
-9.9730

> <Gold.Chemscore.Metal.Weighted>
-0.0000

> <Gold.Chemscore.Lipo.Weighted>
-4.8534

> <Gold.Chemscore.Internal_Hbond.Weighted>
0.0000

> <Gold.Chemscore.DEClash.Weighted>
0.0073

> <Gold.Chemscore.DEInternal.Weighted>
9.9628

> <Gold.Chemscore.Rot.Weighted>
10.3732

> <Gold.Chemscore.Internal.Correction.Weighted>
   9.000000E+99

> <Gold.Protein.RotatedTorsions>
[ 6907 6896 6895 6894 ] final -112.00 input  -60.11 | X-H torsion
[ 7974 7965 7964 7962 ] final  -38.06 input  175.53 | X-H torsion
[ 8008 7997 7996 7995 ] final  153.36 input   59.86 | X-H torsion
[ 10167 10162 10161 10158 ] final   77.55 input  -65.29 | X-H torsion
[ 10718 10713 10712 10709 ] final   -2.59 input   66.30 | X-H torsion
[ 10763 10752 10751 10750 ] final   -4.39 input  -60.55 | X-H torsion
[ 11005 11000 10999 10996 ] final   -3.97 input  -57.11 | X-H torsion

> <Gold.Protein.ActiveResidues>
 VAL166  LYS551  ARG553  GLY616  TRP617  ASP618  TYR619  PRO620  LYS621  CYS622 
 ASP623  PHE694  ASN695  SER759  ASP760  ASP761  ALA762  ILE779  LEU786  VAL792 
 PHE793  MET794  SER795  GLU796  ALA797  LYS798  CYS799  TRP800  GLU811  SER814 

> <Gold.Protein.RotatedAtoms>
  150.7728  133.9154  159.3381 H   0  0  0  0  0  0  0  0  0  0  0  0  # atno 6907 bound_to 6896
  151.7036  135.0924  160.0264 H   0  0  0  0  0  0  0  0  0  0  0  0  # atno 6908 bound_to 6896
  152.3753  133.6434  159.6154 H   0  0  0  0  0  0  0  0  0  0  0  0  # atno 6909 bound_to 6896
  146.0520  140.6468  142.9037 H   0  0  0  0  0  0  0  0  0  0  0  0  # atno 7974 bound_to 7965
  156.2585  140.1996  156.6478 H   0  0  0  0  0  0  0  0  0  0  0  0  # atno 8008 bound_to 7997
  154.6560  140.0566  157.0034 H   0  0  0  0  0  0  0  0  0  0  0  0  # atno 8009 bound_to 7997
  155.1347  140.3237  155.4468 H   0  0  0  0  0  0  0  0  0  0  0  0  # atno 8010 bound_to 7997
  139.9804  144.5831  150.7906 H   0  0  0  0  0  0  0  0  0  0  0  0  # atno 10167 bound_to 10162
  156.7886  130.5354  149.5739 H   0  0  0  0  0  0  0  0  0  0  0  0  # atno 10718 bound_to 10713
  153.3842  135.6999  153.6543 H   0  0  0  0  0  0  0  0  0  0  0  0  # atno 10763 bound_to 10752
  153.5142  135.3625  155.2601 H   0  0  0  0  0  0  0  0  0  0  0  0  # atno 10764 bound_to 10752
  154.8696  135.4142  154.3145 H   0  0  0  0  0  0  0  0  0  0  0  0  # atno 10765 bound_to 10752
  140.6751  133.9202  155.8519 H   0  0  0  0  0  0  0  0  0  0  0  0  # atno 11005 bound_to 11000
  144.7128  140.4100  143.7067 LP  0  0  0  0  0  0  0  0  0  0  0  0  # atno 17320 bound_to 7965
  145.6708  139.1599  143.2756 LP  0  0  0  0  0  0  0  0  0  0  0  0  # atno 17321 bound_to 7965
  140.7491  143.2933  151.3271 LP  0  0  0  0  0  0  0  0  0  0  0  0  # atno 17342 bound_to 10162
  139.6414  144.0532  152.2557 LP  0  0  0  0  0  0  0  0  0  0  0  0  # atno 17343 bound_to 10162
  156.1173  130.6084  151.0140 LP  0  0  0  0  0  0  0  0  0  0  0  0  # atno 17370 bound_to 10713
  157.6612  131.0880  150.7834 LP  0  0  0  0  0  0  0  0  0  0  0  0  # atno 17371 bound_to 10713
  141.0361  134.0687  157.3957 LP  0  0  0  0  0  0  0  0  0  0  0  0  # atno 17394 bound_to 11000
  139.8969  135.0148  156.7074 LP  0  0  0  0  0  0  0  0  0  0  0  0  # atno 17395 bound_to 11000

$$$$
