AV-unprocessed.smi:2278|AV-procd|sdf|9180|dock1
  -GOLD-   2272012393D 1   1.00000     0.00000
 Structure written by MMmdl.
 46 47  0  0  0  0  0  0  0  0  2 V2000
  151.4681  139.3574  156.9448 C   0  0  0  0  0  0  0  0  0  0  0  0
  150.1888  139.4226  156.1296 C   0  0  0  0  0  0  0  0  0  0  0  0
  150.2703  140.1430  154.9343 N   0  0  0  0  0  0  0  0  0  0  0  0
  149.2295  140.2544  154.1758 C   0  0  0  0  0  0  0  0  0  0  0  0
  148.0011  139.6667  154.5189 N   0  0  0  0  0  0  0  0  0  0  0  0
  146.8903  139.8736  153.5745 C   0  0  0  0  0  0  0  0  0  0  0  0
  146.6766  138.6547  152.6482 C   0  0  1  0  0  0  0  0  0  0  0  0
  147.8806  138.4103  151.9473 O   0  0  0  0  0  0  0  0  0  0  0  0
  146.3491  137.3817  153.4554 C   0  0  0  0  0  0  0  0  0  0  0  0
  146.2361  136.1756  152.5956 N   0  3  2  0  0  0  0  0  0  0  0  0
  145.2206  136.3163  151.5180 C   0  0  0  0  0  0  0  0  0  0  0  0
  145.2353  135.0985  150.5794 C   0  0  0  0  0  0  0  0  0  0  0  0
  145.0088  133.7916  151.3575 C   0  0  1  0  0  0  0  0  0  0  0  0
  145.0487  132.5659  150.4341 C   0  0  0  0  0  0  0  0  0  0  0  0
  146.0473  133.6895  152.4871 C   0  0  0  0  0  0  0  0  0  0  0  0
  146.0204  134.9369  153.3867 C   0  0  0  0  0  0  0  0  0  0  0  0
  147.8338  138.9493  155.6678 C   0  0  0  0  0  0  0  0  0  0  0  0
  146.7466  138.4481  155.9623 O   0  0  0  0  0  0  0  0  0  0  0  0
  149.0274  138.8299  156.5201 C   0  0  0  0  0  0  0  0  0  0  0  0
  148.8779  138.0362  157.8121 C   0  0  0  0  0  0  0  0  0  0  0  0
  151.7762  138.3220  157.0928 H   0  0  0  0  0  0  0  0  0  0  0  0
  151.3215  139.8208  157.9210 H   0  0  0  0  0  0  0  0  0  0  0  0
  152.2849  139.8802  156.4453 H   0  0  0  0  0  0  0  0  0  0  0  0
  149.2404  140.8086  153.2356 H   0  0  0  0  0  0  0  0  0  0  0  0
  145.9590  140.1428  154.0782 H   0  0  0  0  0  0  0  0  0  0  0  0
  147.1268  140.7519  152.9711 H   0  0  0  0  0  0  0  0  0  0  0  0
  145.8837  138.8614  151.9306 H   0  0  0  0  0  0  0  0  0  0  0  0
  148.5026  139.0872  152.1684 H   0  0  0  0  0  0  0  0  0  0  0  0
  147.1289  137.2361  154.2052 H   0  0  0  0  0  0  0  0  0  0  0  0
  145.4178  137.5067  154.0104 H   0  0  0  0  0  0  0  0  0  0  0  0
  144.2309  136.4326  151.9626 H   0  0  0  0  0  0  0  0  0  0  0  0
  145.4068  137.2149  150.9310 H   0  0  0  0  0  0  0  0  0  0  0  0
  144.4657  135.2164  149.8155 H   0  0  0  0  0  0  0  0  0  0  0  0
  146.1896  135.0566  150.0522 H   0  0  0  0  0  0  0  0  0  0  0  0
  144.0167  133.8331  151.8101 H   0  0  0  0  0  0  0  0  0  0  0  0
  146.0200  132.4651  149.9486 H   0  0  0  0  0  0  0  0  0  0  0  0
  144.2919  132.6393  149.6524 H   0  0  0  0  0  0  0  0  0  0  0  0
  144.8577  131.6483  150.9910 H   0  0  0  0  0  0  0  0  0  0  0  0
  145.8584  132.8001  153.0893 H   0  0  0  0  0  0  0  0  0  0  0  0
  147.0454  133.5686  152.0632 H   0  0  0  0  0  0  0  0  0  0  0  0
  146.7984  134.8442  154.1456 H   0  0  0  0  0  0  0  0  0  0  0  0
  145.0675  135.0020  153.9147 H   0  0  0  0  0  0  0  0  0  0  0  0
  148.1080  138.4836  158.4415 H   0  0  0  0  0  0  0  0  0  0  0  0
  149.7944  137.9928  158.3986 H   0  0  0  0  0  0  0  0  0  0  0  0
  148.5812  137.0104  157.5906 H   0  0  0  0  0  0  0  0  0  0  0  0
  147.1345  136.0674  152.1464 H   0  0  0  0  0  0  0  0  0  0  0  0
  1  2  1  0  0  0  0
  1 21  1  0  0  0  0
  1 22  1  0  0  0  0
  1 23  1  0  0  0  0
  2 19  2  0  0  0  0
  2  3  1  0  0  0  0
  3  4  2  0  0  0  0
  4  5  1  0  0  0  0
  4 24  1  0  0  0  0
  5  6  1  0  0  0  0
  5 17  1  0  0  0  0
  6  7  1  0  0  0  0
  6 25  1  0  0  0  0
  6 26  1  0  0  0  0
  7  8  1  0  0  0  0
  7  9  1  0  0  0  0
  7 27  1  0  0  0  0
  8 28  1  0  0  0  0
  9 10  1  0  0  0  0
  9 29  1  0  0  0  0
  9 30  1  0  0  0  0
 10 16  1  0  0  0  0
 10 11  1  0  0  0  0
 10 46  1  0  0  0  0
 11 12  1  0  0  0  0
 11 31  1  0  0  0  0
 11 32  1  0  0  0  0
 12 13  1  0  0  0  0
 12 33  1  0  0  0  0
 12 34  1  0  0  0  0
 13 14  1  0  0  0  0
 13 15  1  0  0  0  0
 13 35  1  0  0  0  0
 14 36  1  0  0  0  0
 14 37  1  0  0  0  0
 14 38  1  0  0  0  0
 15 16  1  0  0  0  0
 15 39  1  0  0  0  0
 15 40  1  0  0  0  0
 16 41  1  0  0  0  0
 16 42  1  0  0  0  0
 17 18  2  0  0  0  0
 17 19  1  0  0  0  0
 19 20  1  0  0  0  0
 20 43  1  0  0  0  0
 20 44  1  0  0  0  0
 20 45  1  0  0  0  0
M  CHG  1  10   1
M  END
> <s_m_source_file>
AV-unprocessed.smi

> <i_m_source_file_index>
2278

> <i_lp_mmshare_version>
43012

> <i_f3d_flags>
0

> <s_epik_input>
W0NIM11jMW5bY0hdbihjKD1PKWMxW0NIM10pW0NIMl1bQ0BIXShbT0hdKVtDSDJdTjJbQ0gyXVtDSDJdW0NIXShbQ0gzXSlbQ0gyXVtDSDJdMg==

> <s_epik_cmdline>
J2VwaWtfcHl0aG9uJywgJy1waCcsICc3LjAnLCAnLXRuJywgJzgnLCAnLW1hJywgJzIwMCcsICctbWV0YWxfYmluZGluZycsICctaW1hZScsICc8aW5maWxlLm1hZT4nLCAnLW9tYWUnLCAnPG91dGZpbGUubWFlPic=

> <r_lp_tautomer_probability>
1

> <r_epik_Ionization_Penalty>
0.00139489

> <r_epik_Ionization_Penalty_Charging>
0.00136819

> <r_epik_Ionization_Penalty_Neutral>
2.66975e-05

> <r_epik_State_Penalty>
0.000910892

> <r_epik_Charging_Adjusted_Penalty>
0.00227908

> <i_epik_Tot_Q>
1

> <i_epik_Tot_abs_Q>
1

> <r_epik_Metal_State_Penalty>
-0

> <b_epik_Metal_Only>
0

> <s_lp_Force_Field>
OPLS_2005

> <r_lp_Energy>
29.3235

> <b_lp_Chiralities_Consistent>
1

> <s_lp_Variant>
AV-unprocessed.smi:2278-2

> <Gold.Version>
5.8.1

> <Gold.Id.Protein>
6NUR|6NUR_protein|mol2

> <Gold.PLP.Fitness>
44.8437

> <Gold.PLP.PLP>
-28.7547

> <Gold.PLP.part.hbond>
-4.9908

> <Gold.PLP.part.metal>
0.0000

> <Gold.PLP.part.buried>
-0.2757

> <Gold.PLP.part.nonpolar>
-23.9621

> <Gold.PLP.part.repulsive>
0.1275

> <Gold.PLP.ligand.clash>
0.0000

> <Gold.PLP.ligand.torsion>
0.3072

> <Gold.PLP.Chemscore.Hbond>
4.8160

> <Gold.PLP.Chemscore.CHOScore>
0.7267

> <Gold.PLP.Chemscore.Metal>
0.0000

> <Gold.Chemscore.Hbonds>
donor molecule, donor type, donor heavy atom, donor atom, acceptor molecule, acceptor atom, score
      L1  H     8    28       P1  7957  0.59
      L1  H    10    46       P1  7948  2.00
      P1  H  7954  7966       L1     8  0.71
      P1  H  7989  7998       L1     3  0.61
      L1  C     4    24       P1  7957  0.98

> <Gold.PLP.Chemscore.Internal.Correction>
0.0755

> <Gold.Rescore>
     Score         DG    S(hbond)    S(metal)    S(lipo)     H(rot)  DE(clash)    DE(int)     intcor
     14.43     -17.68       3.02        0.00      66.13       2.20       1.54       1.71       ----

> <Gold.Chemscore.Fitness>
14.4280

> <Gold.Chemscore.DG>
-17.6799

> <Gold.Chemscore.ZeroCoef>
-5.4800

> <Gold.Chemscore.Hbond>
3.0212

> <Gold.Chemscore.Metal>
0.0000

> <Gold.Chemscore.Lipo>
66.1328

> <Gold.Chemscore.Internal_Hbond>
0.0000

> <Gold.Chemscore.DEClash>
1.5431

> <Gold.Chemscore.DEInternal>
1.7088

> <Gold.Chemscore.Rot>
2.1986

> <Gold.Chemscore.Internal.Correction>
   9.000000E+99

> <Gold.Chemscore.Hbonds>
donor molecule, donor type, donor heavy atom, donor atom, acceptor molecule, acceptor atom, score
      L1  H     8    28       P1  7957  0.60
      L1  H    10    46       P1  7948  1.00
      P1  H  7954  7966       L1     8  0.44
      P1  H  7989  7998       L1     3  0.07

> <Gold.Chemscore.Hbond.Weighted>
-10.0909

> <Gold.Chemscore.Metal.Weighted>
-0.0000

> <Gold.Chemscore.Lipo.Weighted>
-7.7375

> <Gold.Chemscore.Internal_Hbond.Weighted>
0.0000

> <Gold.Chemscore.DEClash.Weighted>
1.5431

> <Gold.Chemscore.DEInternal.Weighted>
1.7088

> <Gold.Chemscore.Rot.Weighted>
5.6285

> <Gold.Chemscore.Internal.Correction.Weighted>
   9.000000E+99

> <Gold.Protein.RotatedTorsions>
[ 6907 6896 6895 6894 ] final   45.82 input  -60.11 | X-H torsion
[ 7974 7965 7964 7962 ] final -102.82 input  175.53 | X-H torsion
[ 8008 7997 7996 7995 ] final  -88.53 input   59.86 | X-H torsion
[ 10167 10162 10161 10158 ] final   21.41 input  -65.29 | X-H torsion
[ 10718 10713 10712 10709 ] final  -43.13 input   66.30 | X-H torsion
[ 10763 10752 10751 10750 ] final   40.75 input  -60.55 | X-H torsion
[ 11005 11000 10999 10996 ] final  -36.37 input  -57.11 | X-H torsion

> <Gold.Protein.ActiveResidues>
 VAL166  LYS551  ARG553  GLY616  TRP617  ASP618  TYR619  PRO620  LYS621  CYS622 
 ASP623  PHE694  ASN695  SER759  ASP760  ASP761  ALA762  ILE779  LEU786  VAL792 
 PHE793  MET794  SER795  GLU796  ALA797  LYS798  CYS799  TRP800  GLU811  SER814 

> <Gold.Protein.RotatedAtoms>
  152.2491  134.8150  160.0448 H   0  0  0  0  0  0  0  0  0  0  0  0  # atno 6907 bound_to 6896
  151.8837  133.3495  159.3783 H   0  0  0  0  0  0  0  0  0  0  0  0  # atno 6908 bound_to 6896
  150.7078  134.4920  159.5564 H   0  0  0  0  0  0  0  0  0  0  0  0  # atno 6909 bound_to 6896
  145.2638  140.9277  143.3026 H   0  0  0  0  0  0  0  0  0  0  0  0  # atno 7974 bound_to 7965
  154.6758  140.0552  157.0214 H   0  0  0  0  0  0  0  0  0  0  0  0  # atno 8008 bound_to 7997
  155.1022  140.3230  155.4525 H   0  0  0  0  0  0  0  0  0  0  0  0  # atno 8009 bound_to 7997
  156.2675  140.2029  156.6148 H   0  0  0  0  0  0  0  0  0  0  0  0  # atno 8010 bound_to 7997
  140.5429  143.9645  150.6530 H   0  0  0  0  0  0  0  0  0  0  0  0  # atno 10167 bound_to 10162
  156.2523  130.4189  149.8636 H   0  0  0  0  0  0  0  0  0  0  0  0  # atno 10718 bound_to 10713
  152.9927  135.6182  154.2677 H   0  0  0  0  0  0  0  0  0  0  0  0  # atno 10763 bound_to 10752
  154.2411  135.2788  155.2855 H   0  0  0  0  0  0  0  0  0  0  0  0  # atno 10764 bound_to 10752
  154.5369  135.5772  153.6864 H   0  0  0  0  0  0  0  0  0  0  0  0  # atno 10765 bound_to 10752
  140.9869  133.7026  156.1781 H   0  0  0  0  0  0  0  0  0  0  0  0  # atno 11005 bound_to 11000
  144.9395  139.4205  143.6456 LP  0  0  0  0  0  0  0  0  0  0  0  0  # atno 17320 bound_to 7965
  146.3267  139.8348  142.8901 LP  0  0  0  0  0  0  0  0  0  0  0  0  # atno 17321 bound_to 7965
  140.3051  143.3235  152.0934 LP  0  0  0  0  0  0  0  0  0  0  0  0  # atno 17342 bound_to 10162
  139.4996  144.6672  151.6328 LP  0  0  0  0  0  0  0  0  0  0  0  0  # atno 17343 bound_to 10162
  156.6180  130.8614  151.3469 LP  0  0  0  0  0  0  0  0  0  0  0  0  # atno 17370 bound_to 10713
  157.7219  130.9570  150.1473 LP  0  0  0  0  0  0  0  0  0  0  0  0  # atno 17371 bound_to 10713
  140.7100  134.4472  157.5582 LP  0  0  0  0  0  0  0  0  0  0  0  0  # atno 17394 bound_to 11000
  139.8975  134.8636  156.2043 LP  0  0  0  0  0  0  0  0  0  0  0  0  # atno 17395 bound_to 11000

$$$$
