AV-unprocessed.smi:868|AV-procd|sdf|4002|dock6
  -GOLD-   22720 1483D 1   1.00000     0.00000
 Structure written by MMmdl.
 47 49  0  0  0  0  0  0  0  0  1 V2000
  147.0825  138.2784  163.6632 C   0  0  0  0  0  0  0  0  0  0  0  0
  146.7678  137.4634  162.3979 C   0  0  0  0  0  0  0  0  0  0  0  0
  146.2849  136.0553  162.7771 C   0  0  0  0  0  0  0  0  0  0  0  0
  147.9589  137.3754  161.4074 C   0  0  0  0  0  0  0  0  0  0  0  0
  147.6292  137.1530  159.9143 C   0  0  0  0  0  0  0  0  0  0  0  0
  148.8647  137.4733  159.0360 C   0  0  0  0  0  0  0  0  0  0  0  0
  149.6792  136.5983  158.7404 O   0  0  0  0  0  0  0  0  0  0  0  0
  148.9985  138.7496  158.6404 N   0  0  0  0  0  0  0  0  0  0  0  0
  150.1191  139.2768  157.8722 C   0  0  0  0  0  0  0  0  0  0  0  0
  150.5289  140.6718  158.3705 C   0  0  0  0  0  0  0  0  0  0  0  0
  151.9250  140.7000  158.9091 C   0  0  0  0  0  0  0  0  0  0  0  0
  152.7331  139.6329  158.9184 N   0  0  0  0  0  0  0  0  0  0  0  0
  153.9328  140.0795  159.4344 N   0  0  0  0  0  0  0  0  0  0  0  0
  153.7318  141.3739  159.6767 C   0  0  0  0  0  0  0  0  0  0  0  0
  152.4994  141.8227  159.3890 N   0  0  0  0  0  0  0  0  0  0  0  0
  151.9742  143.1747  159.4838 C   0  0  0  0  0  0  0  0  0  0  0  0
  152.7081  144.2081  158.6581 C   0  0  0  0  0  0  0  0  0  0  0  0
  152.9031  144.1585  160.1568 C   0  0  0  0  0  0  0  0  0  0  0  0
  146.9240  135.8258  159.5270 C   0  0  0  0  0  0  0  0  0  0  0  0
  145.9493  136.5948  158.6367 C   0  0  0  0  0  0  0  0  0  0  0  0
  146.3721  137.8702  159.3650 C   0  0  0  0  0  0  0  0  0  0  0  0
  147.9598  137.8878  164.1797 H   0  0  0  0  0  0  0  0  0  0  0  0
  146.2469  138.2526  164.3633 H   0  0  0  0  0  0  0  0  0  0  0  0
  147.2655  139.3265  163.4301 H   0  0  0  0  0  0  0  0  0  0  0  0
  145.9302  137.9495  161.8971 H   0  0  0  0  0  0  0  0  0  0  0  0
  147.0620  135.4969  163.3003 H   0  0  0  0  0  0  0  0  0  0  0  0
  146.0019  135.4841  161.8926 H   0  0  0  0  0  0  0  0  0  0  0  0
  145.4118  136.1004  163.4288 H   0  0  0  0  0  0  0  0  0  0  0  0
  148.5439  138.2909  161.5044 H   0  0  0  0  0  0  0  0  0  0  0  0
  148.6323  136.5861  161.7448 H   0  0  0  0  0  0  0  0  0  0  0  0
  148.2850  139.4079  158.9185 H   0  0  0  0  0  0  0  0  0  0  0  0
  150.9651  138.5886  157.9155 H   0  0  0  0  0  0  0  0  0  0  0  0
  149.8145  139.3305  156.8268 H   0  0  0  0  0  0  0  0  0  0  0  0
  150.4313  141.4027  157.5681 H   0  0  0  0  0  0  0  0  0  0  0  0
  149.8515  140.9995  159.1603 H   0  0  0  0  0  0  0  0  0  0  0  0
  154.5084  142.0128  160.0709 H   0  0  0  0  0  0  0  0  0  0  0  0
  150.8969  143.2237  159.6293 H   0  0  0  0  0  0  0  0  0  0  0  0
  153.5458  143.8905  158.0401 H   0  0  0  0  0  0  0  0  0  0  0  0
  152.1248  145.0348  158.2582 H   0  0  0  0  0  0  0  0  0  0  0  0
  152.4498  144.9519  160.7475 H   0  0  0  0  0  0  0  0  0  0  0  0
  153.8602  143.7934  160.5253 H   0  0  0  0  0  0  0  0  0  0  0  0
  147.5190  135.0887  158.9872 H   0  0  0  0  0  0  0  0  0  0  0  0
  146.4232  135.3572  160.3756 H   0  0  0  0  0  0  0  0  0  0  0  0
  146.2439  136.5909  157.5862 H   0  0  0  0  0  0  0  0  0  0  0  0
  144.9018  136.3218  158.7668 H   0  0  0  0  0  0  0  0  0  0  0  0
  145.6725  138.1507  160.1540 H   0  0  0  0  0  0  0  0  0  0  0  0
  146.5535  138.7131  158.6964 H   0  0  0  0  0  0  0  0  0  0  0  0
  1  2  1  0  0  0  0
  1 22  1  0  0  0  0
  1 23  1  0  0  0  0
  1 24  1  0  0  0  0
  2  3  1  0  0  0  0
  2  4  1  0  0  0  0
  2 25  1  0  0  0  0
  3 26  1  0  0  0  0
  3 27  1  0  0  0  0
  3 28  1  0  0  0  0
  4  5  1  0  0  0  0
  4 29  1  0  0  0  0
  4 30  1  0  0  0  0
  5 21  1  0  0  0  0
  5  6  1  0  0  0  0
  5 19  1  0  0  0  0
  6  7  2  0  0  0  0
  6  8  1  0  0  0  0
  8  9  1  0  0  0  0
  8 31  1  0  0  0  0
  9 10  1  0  0  0  0
  9 32  1  0  0  0  0
  9 33  1  0  0  0  0
 10 11  1  0  0  0  0
 10 34  1  0  0  0  0
 10 35  1  0  0  0  0
 11 15  1  0  0  0  0
 11 12  2  0  0  0  0
 12 13  1  0  0  0  0
 13 14  2  0  0  0  0
 14 15  1  0  0  0  0
 14 36  1  0  0  0  0
 15 16  1  0  0  0  0
 16 18  1  0  0  0  0
 16 17  1  0  0  0  0
 16 37  1  0  0  0  0
 17 18  1  0  0  0  0
 17 38  1  0  0  0  0
 17 39  1  0  0  0  0
 18 40  1  0  0  0  0
 18 41  1  0  0  0  0
 19 20  1  0  0  0  0
 19 42  1  0  0  0  0
 19 43  1  0  0  0  0
 20 21  1  0  0  0  0
 20 44  1  0  0  0  0
 20 45  1  0  0  0  0
 21 46  1  0  0  0  0
 21 47  1  0  0  0  0
M  END
> <s_m_source_file>
AV-unprocessed.smi

> <i_m_source_file_index>
868

> <i_lp_mmshare_version>
43012

> <i_f3d_flags>
0

> <s_epik_input>
W0NIM11bQ0hdKFtDSDNdKVtDSDJdQzEoW0NIMl1bQ0gyXVtDSDJdMSlDKD1PKVtOSF1bQ0gyXVtDSDJdYzJubltjSF1uMltDSF0zW0NIMl1bQ0gyXTM=

> <s_epik_cmdline>
J2VwaWtfcHl0aG9uJywgJy1waCcsICc3LjAnLCAnLXRuJywgJzgnLCAnLW1hJywgJzIwMCcsICctbWV0YWxfYmluZGluZycsICctaW1hZScsICc8aW5maWxlLm1hZT4nLCAnLW9tYWUnLCAnPG91dGZpbGUubWFlPic=

> <r_lp_tautomer_probability>
1

> <r_epik_Ionization_Penalty>
0.000232087

> <r_epik_Ionization_Penalty_Charging>
0

> <r_epik_Ionization_Penalty_Neutral>
0.000232087

> <r_epik_State_Penalty>
-0

> <r_epik_Charging_Adjusted_Penalty>
0

> <i_epik_Tot_Q>
0

> <i_epik_Tot_abs_Q>
0

> <r_epik_Metal_State_Penalty>
-0

> <b_epik_Metal_Only>
0

> <s_lp_Force_Field>
OPLS_2005

> <r_lp_Energy>
30.4352

> <b_lp_Chiralities_Consistent>
1

> <s_lp_Variant>
AV-unprocessed.smi:868-1

> <Gold.Version>
5.8.1

> <Gold.Id.Protein>
6NUR|6NUR_protein|mol2

> <Gold.PLP.Fitness>
40.9461

> <Gold.PLP.PLP>
-37.7960

> <Gold.PLP.part.hbond>
-2.0000

> <Gold.PLP.part.metal>
0.0000

> <Gold.PLP.part.buried>
-3.8779

> <Gold.PLP.part.nonpolar>
-31.9224

> <Gold.PLP.part.repulsive>
0.1592

> <Gold.PLP.ligand.clash>
0.0000

> <Gold.PLP.ligand.torsion>
1.8463

> <Gold.PLP.Chemscore.Hbond>
1.9920

> <Gold.PLP.Chemscore.CHOScore>
0.0000

> <Gold.PLP.Chemscore.Metal>
0.0000

> <Gold.Chemscore.Hbonds>
donor molecule, donor type, donor heavy atom, donor atom, acceptor molecule, acceptor atom, score
      P1  H  6896  6909       L1     7  0.15
      P1  H  7997  8008       L1    13  0.08

> <Gold.PLP.Chemscore.Internal.Correction>
0.8666

> <Gold.Rescore>
     Score         DG    S(hbond)    S(metal)    S(lipo)     H(rot)  DE(clash)    DE(int)     intcor
     10.81     -12.56       0.80        0.00      85.22       2.17       0.10       1.65       ----

> <Gold.Chemscore.Fitness>
10.8055

> <Gold.Chemscore.DG>
-12.5596

> <Gold.Chemscore.ZeroCoef>
-5.4800

> <Gold.Chemscore.Hbond>
0.7950

> <Gold.Chemscore.Metal>
0.0000

> <Gold.Chemscore.Lipo>
85.2163

> <Gold.Chemscore.Internal_Hbond>
0.0000

> <Gold.Chemscore.DEClash>
0.1010

> <Gold.Chemscore.DEInternal>
1.6532

> <Gold.Chemscore.Rot>
2.1664

> <Gold.Chemscore.Internal.Correction>
   9.000000E+99

> <Gold.Chemscore.Hbonds>
donor molecule, donor type, donor heavy atom, donor atom, acceptor molecule, acceptor atom, score
      P1  H  6896  6909       L1     7  0.17

> <Gold.Chemscore.Hbond.Weighted>
-2.6554

> <Gold.Chemscore.Metal.Weighted>
-0.0000

> <Gold.Chemscore.Lipo.Weighted>
-9.9703

> <Gold.Chemscore.Internal_Hbond.Weighted>
0.0000

> <Gold.Chemscore.DEClash.Weighted>
0.1010

> <Gold.Chemscore.DEInternal.Weighted>
1.6532

> <Gold.Chemscore.Rot.Weighted>
5.5461

> <Gold.Chemscore.Internal.Correction.Weighted>
   9.000000E+99

> <Gold.Protein.RotatedTorsions>
[ 6907 6896 6895 6894 ] final   51.06 input  -60.11 | X-H torsion
[ 7974 7965 7964 7962 ] final -107.27 input  175.53 | X-H torsion
[ 8008 7997 7996 7995 ] final -113.09 input   59.86 | X-H torsion
[ 10167 10162 10161 10158 ] final  -24.99 input  -65.29 | X-H torsion
[ 10718 10713 10712 10709 ] final  -56.69 input   66.30 | X-H torsion
[ 10763 10752 10751 10750 ] final -170.30 input  -60.55 | X-H torsion
[ 11005 11000 10999 10996 ] final -112.07 input  -57.11 | X-H torsion

> <Gold.Protein.ActiveResidues>
 VAL166  LYS551  ARG553  GLY616  TRP617  ASP618  TYR619  PRO620  LYS621  CYS622 
 ASP623  PHE694  ASN695  SER759  ASP760  ASP761  ALA762  ILE779  LEU786  VAL792 
 PHE793  MET794  SER795  GLU796  ALA797  LYS798  CYS799  TRP800  GLU811  SER814 

> <Gold.Protein.RotatedAtoms>
  152.3085  134.7526  160.0341 H   0  0  0  0  0  0  0  0  0  0  0  0  # atno 6907 bound_to 6896
  151.8014  133.3365  159.3536 H   0  0  0  0  0  0  0  0  0  0  0  0  # atno 6908 bound_to 6896
  150.7308  134.5680  159.5920 H   0  0  0  0  0  0  0  0  0  0  0  0  # atno 6909 bound_to 6896
  145.2074  140.9082  143.3334 H   0  0  0  0  0  0  0  0  0  0  0  0  # atno 7974 bound_to 7965
  155.0154  140.0393  157.2416 H   0  0  0  0  0  0  0  0  0  0  0  0  # atno 8008 bound_to 7997
  154.7424  140.2751  155.6338 H   0  0  0  0  0  0  0  0  0  0  0  0  # atno 8009 bound_to 7997
  156.2867  140.2663  156.2155 H   0  0  0  0  0  0  0  0  0  0  0  0  # atno 8010 bound_to 7997
  140.7287  143.4304  151.0811 H   0  0  0  0  0  0  0  0  0  0  0  0  # atno 10167 bound_to 10162
  156.1269  130.4162  150.0339 H   0  0  0  0  0  0  0  0  0  0  0  0  # atno 10718 bound_to 10713
  154.6430  135.2901  155.0080 H   0  0  0  0  0  0  0  0  0  0  0  0  # atno 10763 bound_to 10752
  154.1200  135.6549  153.4905 H   0  0  0  0  0  0  0  0  0  0  0  0  # atno 10764 bound_to 10752
  153.0336  135.5285  154.7305 H   0  0  0  0  0  0  0  0  0  0  0  0  # atno 10765 bound_to 10752
  141.0697  133.9401  157.2510 H   0  0  0  0  0  0  0  0  0  0  0  0  # atno 11005 bound_to 11000
  144.9889  139.3709  143.6225 LP  0  0  0  0  0  0  0  0  0  0  0  0  # atno 17320 bound_to 7965
  146.3405  139.9062  142.8787 LP  0  0  0  0  0  0  0  0  0  0  0  0  # atno 17321 bound_to 7965
  139.7960  143.8150  152.3157 LP  0  0  0  0  0  0  0  0  0  0  0  0  # atno 17342 bound_to 10162
  139.8151  144.7319  150.9646 LP  0  0  0  0  0  0  0  0  0  0  0  0  # atno 17343 bound_to 10162
  156.8263  130.9376  151.3639 LP  0  0  0  0  0  0  0  0  0  0  0  0  # atno 17370 bound_to 10713
  157.6449  130.8836  149.9520 LP  0  0  0  0  0  0  0  0  0  0  0  0  # atno 17371 bound_to 10713
  139.9511  135.0175  156.8995 LP  0  0  0  0  0  0  0  0  0  0  0  0  # atno 17394 bound_to 11000
  140.5700  134.0452  155.7427 LP  0  0  0  0  0  0  0  0  0  0  0  0  # atno 17395 bound_to 11000

$$$$
