AV-unprocessed.smi:69|AV-procd|sdf|654|dock5
  -GOLD-   2262016553D 1   1.00000     0.00000
 Structure written by MMmdl.
 32 34  0  0  0  0  0  0  0  0  1 V2000
  141.5524  139.0519  153.5192 N   0  0  0  0  0  0  0  0  0  0  0  0
  141.7366  137.7244  153.5327 C   0  0  0  0  0  0  0  0  0  0  0  0
  140.7448  136.9432  154.0199 N   0  0  0  0  0  0  0  0  0  0  0  0
  140.9057  135.6167  154.0455 C   0  0  0  0  0  0  0  0  0  0  0  0
  141.9544  134.8952  153.6420 N   0  0  0  0  0  0  0  0  0  0  0  0
  142.9564  135.6816  153.1505 C   0  0  0  0  0  0  0  0  0  0  0  0
  142.9207  137.1020  153.0624 C   0  0  0  0  0  0  0  0  0  0  0  0
  144.1042  137.5736  152.5127 N   0  0  0  0  0  0  0  0  0  0  0  0
  144.7982  136.4904  152.2911 C   0  0  0  0  0  0  0  0  0  0  0  0
  144.1889  135.3072  152.6478 N   0  0  0  0  0  0  0  0  0  0  0  0
  144.7625  133.9322  152.4982 C   0  0  1  0  0  0  0  0  0  0  0  0
  143.8761  133.1314  151.7799 O   0  0  0  0  0  0  0  0  0  0  0  0
  144.5622  132.3249  150.8188 C   0  0  1  0  0  0  0  0  0  0  0  0
  144.0608  132.7248  149.4148 C   0  0  0  0  0  0  0  0  0  0  0  0
  142.7979  132.1424  149.1716 O   0  0  0  0  0  0  0  0  0  0  0  0
  146.0580  132.5924  151.0815 C   0  0  1  0  0  0  0  0  0  0  0  0
  146.8610  132.5505  149.9170 O   0  0  0  0  0  0  0  0  0  0  0  0
  146.0731  133.9740  151.7156 C   0  0  2  0  0  0  0  0  0  0  0  0
  147.1958  134.0852  152.5692 O   0  0  0  0  0  0  0  0  0  0  0  0
  144.8632  133.5441  153.5136 H   0  0  0  0  0  0  0  0  0  0  0  0
  144.3459  131.2703  150.9965 H   0  0  0  0  0  0  0  0  0  0  0  0
  146.4241  131.8505  151.7937 H   0  0  0  0  0  0  0  0  0  0  0  0
  146.0390  134.7664  150.9655 H   0  0  0  0  0  0  0  0  0  0  0  0
  142.2780  139.6564  153.1616 H   0  0  0  0  0  0  0  0  0  0  0  0
  140.6905  139.4446  153.8684 H   0  0  0  0  0  0  0  0  0  0  0  0
  140.0769  135.0525  154.4468 H   0  0  0  0  0  0  0  0  0  0  0  0
  145.7856  136.5236  151.8538 H   0  0  0  0  0  0  0  0  0  0  0  0
  144.0198  133.8061  149.2905 H   0  0  0  0  0  0  0  0  0  0  0  0
  144.7250  132.3417  148.6403 H   0  0  0  0  0  0  0  0  0  0  0  0
  142.1421  132.8218  149.2077 H   0  0  0  0  0  0  0  0  0  0  0  0
  147.3518  131.7428  149.9183 H   0  0  0  0  0  0  0  0  0  0  0  0
  147.7332  134.8014  152.2681 H   0  0  0  0  0  0  0  0  0  0  0  0
  1  2  1  0  0  0  0
  1 24  1  0  0  0  0
  1 25  1  0  0  0  0
  2  7  1  0  0  0  0
  2  3  2  0  0  0  0
  3  4  1  0  0  0  0
  4  5  2  0  0  0  0
  4 26  1  0  0  0  0
  5  6  1  0  0  0  0
  6 10  1  0  0  0  0
  6  7  2  0  0  0  0
  7  8  1  0  0  0  0
  8  9  2  0  0  0  0
  9 10  1  0  0  0  0
  9 27  1  0  0  0  0
 10 11  1  0  0  0  0
 11 20  1  0  0  0  0
 11 18  1  0  0  0  0
 11 12  1  0  0  0  0
 12 13  1  0  0  0  0
 13 21  1  0  0  0  0
 13 14  1  0  0  0  0
 13 16  1  0  0  0  0
 14 15  1  0  0  0  0
 14 28  1  0  0  0  0
 14 29  1  0  0  0  0
 15 30  1  0  0  0  0
 16 22  1  0  0  0  0
 16 17  1  0  0  0  0
 16 18  1  0  0  0  0
 17 31  1  0  0  0  0
 18 23  1  0  0  0  0
 18 19  1  0  0  0  0
 19 32  1  0  0  0  0
M  END
> <s_m_source_file>
AV-unprocessed.smi

> <i_m_source_file_index>
69

> <i_lp_mmshare_version>
43012

> <i_f3d_flags>
0

> <s_epik_input>
bjFbY0hdbmMoW05IMl0pYyhjMTIpbltjSF1uMltDQEBIXTNPW0NASF0oW0NIMl1bT0hdKVtDQEBIXShbT0hdKVtDQEhdM1tPSF0=

> <s_epik_cmdline>
J2VwaWtfcHl0aG9uJywgJy1waCcsICc3LjAnLCAnLXRuJywgJzgnLCAnLW1hJywgJzIwMCcsICctbWV0YWxfYmluZGluZycsICctaW1hZScsICc8aW5maWxlLm1hZT4nLCAnLW9tYWUnLCAnPG91dGZpbGUubWFlPic=

> <r_lp_tautomer_probability>
1

> <r_epik_Ionization_Penalty>
0.000428445

> <r_epik_Ionization_Penalty_Charging>
0

> <r_epik_Ionization_Penalty_Neutral>
0.000428445

> <r_epik_State_Penalty>
-0

> <r_epik_Charging_Adjusted_Penalty>
0

> <i_epik_Tot_Q>
0

> <i_epik_Tot_abs_Q>
0

> <r_epik_Metal_State_Penalty>
-0

> <b_epik_Metal_Only>
0

> <s_epik_Chemistry_Notes>
This compound contains an acetal/aminal-like group ( X-CH(R)-Y where X, Y are N, S, or O) that may be acid/base labile, releasing an aldehyde.

> <s_lp_Force_Field>
OPLS_2005

> <r_lp_Energy>
41.5942

> <b_lp_Chiralities_Consistent>
1

> <s_lp_Variant>
AV-unprocessed.smi:69-12

> <Gold.Version>
5.8.1

> <Gold.Id.Protein>
6NUR|6NUR_protein|mol2

> <Gold.PLP.Fitness>
48.3938

> <Gold.PLP.PLP>
-31.6886

> <Gold.PLP.part.hbond>
-7.6833

> <Gold.PLP.part.metal>
0.0000

> <Gold.PLP.part.buried>
-8.3752

> <Gold.PLP.part.nonpolar>
-20.7816

> <Gold.PLP.part.repulsive>
4.5482

> <Gold.PLP.ligand.clash>
0.0000

> <Gold.PLP.ligand.torsion>
0.2210

> <Gold.PLP.Chemscore.Hbond>
4.9833

> <Gold.PLP.Chemscore.CHOScore>
0.7301

> <Gold.PLP.Chemscore.Metal>
0.0000

> <Gold.Chemscore.Hbonds>
donor molecule, donor type, donor heavy atom, donor atom, acceptor molecule, acceptor atom, score
      L1  H     1    24       P1 10175  1.00
      L1  H    15    30       P1 10186  1.00
      L1  H    17    31       P1 10747  0.98
      L1  H    19    32       P1  7948  1.00
      P1  H 10785 10796       L1    15  0.88
      L1  C     4    26       P1 11000  0.76

> <Gold.PLP.Chemscore.Internal.Correction>
0.0070

> <Gold.Rescore>
     Score         DG    S(hbond)    S(metal)    S(lipo)     H(rot)  DE(clash)    DE(int)     intcor
     12.55     -14.12       4.49        0.00      33.80       4.03       1.14       0.42       ----

> <Gold.Chemscore.Fitness>
12.5540

> <Gold.Chemscore.DG>
-14.1169

> <Gold.Chemscore.ZeroCoef>
-5.4800

> <Gold.Chemscore.Hbond>
4.4890

> <Gold.Chemscore.Metal>
0.0000

> <Gold.Chemscore.Lipo>
33.7993

> <Gold.Chemscore.Internal_Hbond>
0.0000

> <Gold.Chemscore.DEClash>
1.1415

> <Gold.Chemscore.DEInternal>
0.4214

> <Gold.Chemscore.Rot>
4.0277

> <Gold.Chemscore.Internal.Correction>
   9.000000E+99

> <Gold.Chemscore.Hbonds>
donor molecule, donor type, donor heavy atom, donor atom, acceptor molecule, acceptor atom, score
      L1  H     1    24       P1 10175  0.93
      L1  H    15    30       P1 10186  0.98
      L1  H    17    31       P1 10747  0.92
      L1  H    19    32       P1  7948  0.78
      P1  H 10785 10796       L1    15  0.42

> <Gold.Chemscore.Hbond.Weighted>
-14.9933

> <Gold.Chemscore.Metal.Weighted>
-0.0000

> <Gold.Chemscore.Lipo.Weighted>
-3.9545

> <Gold.Chemscore.Internal_Hbond.Weighted>
0.0000

> <Gold.Chemscore.DEClash.Weighted>
1.1415

> <Gold.Chemscore.DEInternal.Weighted>
0.4214

> <Gold.Chemscore.Rot.Weighted>
10.3110

> <Gold.Chemscore.Internal.Correction.Weighted>
   9.000000E+99

> <Gold.Protein.RotatedTorsions>
[ 6907 6896 6895 6894 ] final  -80.09 input  -60.11 | X-H torsion
[ 7974 7965 7964 7962 ] final    5.81 input  175.53 | X-H torsion
[ 8008 7997 7996 7995 ] final -111.82 input   59.86 | X-H torsion
[ 10167 10162 10161 10158 ] final -165.16 input  -65.29 | X-H torsion
[ 10718 10713 10712 10709 ] final    7.44 input   66.30 | X-H torsion
[ 10763 10752 10751 10750 ] final  -44.05 input  -60.55 | X-H torsion
[ 11005 11000 10999 10996 ] final  166.87 input  -57.11 | X-H torsion

> <Gold.Protein.ActiveResidues>
 VAL166  LYS551  ARG553  GLY616  TRP617  ASP618  TYR619  PRO620  LYS621  CYS622 
 ASP623  PHE694  ASN695  SER759  ASP760  ASP761  ALA762  ILE779  LEU786  VAL792 
 PHE793  MET794  SER795  GLU796  ALA797  LYS798  CYS799  TRP800  GLU811  SER814 

> <Gold.Protein.RotatedAtoms>
  150.6936  134.4023  159.5124 H   0  0  0  0  0  0  0  0  0  0  0  0  # atno 6907 bound_to 6896
  152.1794  134.8764  160.0537 H   0  0  0  0  0  0  0  0  0  0  0  0  # atno 6908 bound_to 6896
  151.9760  133.3707  159.4126 H   0  0  0  0  0  0  0  0  0  0  0  0  # atno 6909 bound_to 6896
  146.2438  140.0327  142.8388 H   0  0  0  0  0  0  0  0  0  0  0  0  # atno 7974 bound_to 7965
  154.9957  140.0394  157.2339 H   0  0  0  0  0  0  0  0  0  0  0  0  # atno 8008 bound_to 7997
  154.7588  140.2780  155.6208 H   0  0  0  0  0  0  0  0  0  0  0  0  # atno 8009 bound_to 7997
  156.2900  140.2632  156.2361 H   0  0  0  0  0  0  0  0  0  0  0  0  # atno 8010 bound_to 7997
  139.6201  144.0642  152.1924 H   0  0  0  0  0  0  0  0  0  0  0  0  # atno 10167 bound_to 10162
  156.9369  130.5847  149.5651 H   0  0  0  0  0  0  0  0  0  0  0  0  # atno 10718 bound_to 10713
  154.0057  135.6688  153.4762 H   0  0  0  0  0  0  0  0  0  0  0  0  # atno 10763 bound_to 10752
  153.0642  135.5010  154.8160 H   0  0  0  0  0  0  0  0  0  0  0  0  # atno 10764 bound_to 10752
  154.7026  135.3081  154.9282 H   0  0  0  0  0  0  0  0  0  0  0  0  # atno 10765 bound_to 10752
  140.2709  134.7828  157.3674 H   0  0  0  0  0  0  0  0  0  0  0  0  # atno 11005 bound_to 11000
  145.1140  140.9422  143.4640 LP  0  0  0  0  0  0  0  0  0  0  0  0  # atno 17320 bound_to 7965
  145.0548  139.3153  143.5910 LP  0  0  0  0  0  0  0  0  0  0  0  0  # atno 17321 bound_to 7965
  140.0281  144.6102  150.7510 LP  0  0  0  0  0  0  0  0  0  0  0  0  # atno 17342 bound_to 10162
  140.7376  143.2768  151.3718 LP  0  0  0  0  0  0  0  0  0  0  0  0  # atno 17343 bound_to 10162
  156.0422  130.5503  150.8797 LP  0  0  0  0  0  0  0  0  0  0  0  0  # atno 17370 bound_to 10713
  157.5810  131.0946  150.9270 LP  0  0  0  0  0  0  0  0  0  0  0  0  # atno 17371 bound_to 10713
  140.1374  134.5016  155.8057 LP  0  0  0  0  0  0  0  0  0  0  0  0  # atno 17394 bound_to 11000
  141.2177  133.6812  156.7149 LP  0  0  0  0  0  0  0  0  0  0  0  0  # atno 17395 bound_to 11000

$$$$
