AV-unprocessed.smi:610|AV-procd|sdf|3059|dock6
  -GOLD-   2262023583D 1   1.00000     0.00000
 Structure written by MMmdl.
 37 38  0  0  0  0  0  0  0  0  1 V2000
  146.3746  136.6471  155.2673 C   0  0  0  0  0  0  0  0  0  0  0  0
  146.8399  137.5312  154.1003 C   0  0  2  0  0  0  0  0  0  0  0  0
  146.1309  138.8987  154.1078 C   0  0  0  0  0  0  0  0  0  0  0  0
  147.0669  140.0020  154.2230 N   0  0  0  0  0  0  0  0  0  0  0  0
  147.1465  140.9318  155.2519 C   0  0  0  0  0  0  0  0  0  0  0  0
  148.1758  141.7871  154.9294 C   0  0  0  0  0  0  0  0  0  0  0  0
  148.7407  141.4043  153.7151 N   0  0  0  0  0  0  0  0  0  0  0  0
  148.0327  140.3405  153.3580 C   0  0  0  0  0  0  0  0  0  0  0  0
  146.5922  136.8498  152.8320 N   0  0  0  0  0  0  0  0  0  0  0  0
  145.4114  136.3586  152.4178 C   0  0  0  0  0  0  0  0  0  0  0  0
  144.3825  136.4710  153.0858 O   0  0  0  0  0  0  0  0  0  0  0  0
  145.3628  135.6347  151.0475 C   0  0  0  0  0  0  0  0  0  0  0  0
  145.7506  136.5142  149.9510 N   0  0  0  0  0  0  0  0  0  0  0  0
  146.2807  134.3813  151.0305 C   0  0  0  0  0  0  0  0  0  0  0  0
  145.3789  133.1657  150.7817 C   0  0  0  0  0  0  0  0  0  0  0  0
  143.9774  133.6173  151.1782 C   0  0  0  0  0  0  0  0  0  0  0  0
  143.9414  135.0900  150.7728 C   0  0  0  0  0  0  0  0  0  0  0  0
  146.5646  137.1320  156.2250 H   0  0  0  0  0  0  0  0  0  0  0  0
  146.9011  135.6921  155.2740 H   0  0  0  0  0  0  0  0  0  0  0  0
  145.3060  136.4383  155.2060 H   0  0  0  0  0  0  0  0  0  0  0  0
  147.9114  137.7067  154.2151 H   0  0  0  0  0  0  0  0  0  0  0  0
  145.5387  139.0326  153.2012 H   0  0  0  0  0  0  0  0  0  0  0  0
  145.4362  138.9579  154.9468 H   0  0  0  0  0  0  0  0  0  0  0  0
  146.4812  140.9100  156.1025 H   0  0  0  0  0  0  0  0  0  0  0  0
  148.5502  142.6419  155.4735 H   0  0  0  0  0  0  0  0  0  0  0  0
  148.2186  139.7963  152.4435 H   0  0  0  0  0  0  0  0  0  0  0  0
  147.3846  136.7260  152.2181 H   0  0  0  0  0  0  0  0  0  0  0  0
  145.8821  135.9617  149.1159 H   0  0  0  0  0  0  0  0  0  0  0  0
  144.9908  137.1489  149.7517 H   0  0  0  0  0  0  0  0  0  0  0  0
  147.0613  134.4352  150.2698 H   0  0  0  0  0  0  0  0  0  0  0  0
  146.8022  134.2513  151.9803 H   0  0  0  0  0  0  0  0  0  0  0  0
  145.3909  132.9151  149.7204 H   0  0  0  0  0  0  0  0  0  0  0  0
  145.7047  132.2831  151.3330 H   0  0  0  0  0  0  0  0  0  0  0  0
  143.1946  133.0300  150.6980 H   0  0  0  0  0  0  0  0  0  0  0  0
  143.8493  133.5245  152.2575 H   0  0  0  0  0  0  0  0  0  0  0  0
  143.1595  135.6325  151.3069 H   0  0  0  0  0  0  0  0  0  0  0  0
  143.6966  135.1556  149.7110 H   0  0  0  0  0  0  0  0  0  0  0  0
  1  2  1  0  0  0  0
  1 18  1  0  0  0  0
  1 19  1  0  0  0  0
  1 20  1  0  0  0  0
  2  3  1  0  0  0  0
  2  9  1  0  0  0  0
  2 21  1  0  0  0  0
  3  4  1  0  0  0  0
  3 22  1  0  0  0  0
  3 23  1  0  0  0  0
  4  8  1  0  0  0  0
  4  5  1  0  0  0  0
  5  6  2  0  0  0  0
  5 24  1  0  0  0  0
  6  7  1  0  0  0  0
  6 25  1  0  0  0  0
  7  8  2  0  0  0  0
  8 26  1  0  0  0  0
  9 10  1  0  0  0  0
  9 27  1  0  0  0  0
 10 11  2  0  0  0  0
 10 12  1  0  0  0  0
 12 17  1  0  0  0  0
 12 13  1  0  0  0  0
 12 14  1  0  0  0  0
 13 28  1  0  0  0  0
 13 29  1  0  0  0  0
 14 15  1  0  0  0  0
 14 30  1  0  0  0  0
 14 31  1  0  0  0  0
 15 16  1  0  0  0  0
 15 32  1  0  0  0  0
 15 33  1  0  0  0  0
 16 17  1  0  0  0  0
 16 34  1  0  0  0  0
 16 35  1  0  0  0  0
 17 36  1  0  0  0  0
 17 37  1  0  0  0  0
M  END
> <s_m_source_file>
AV-unprocessed.smi

> <i_m_source_file_index>
610

> <i_lp_mmshare_version>
43012

> <i_f3d_flags>
0

> <s_epik_input>
W2NIXTFuW2NIXVtjSF1uMVtDSDJdW0NAQEhdKFtDSDNdKVtOSF1DKD1PKUMyKFtOSDJdKVtDSDJdW0NIMl1bQ0gyXVtDSDJdMg==

> <s_epik_cmdline>
J2VwaWtfcHl0aG9uJywgJy1waCcsICc3LjAnLCAnLXRuJywgJzgnLCAnLW1hJywgJzIwMCcsICctbWV0YWxfYmluZGluZycsICctaW1hZScsICc8aW5maWxlLm1hZT4nLCAnLW9tYWUnLCAnPG91dGZpbGUubWFlPic=

> <r_lp_tautomer_probability>
1

> <r_epik_Ionization_Penalty>
1.91974

> <r_epik_Ionization_Penalty_Charging>
0.644069

> <r_epik_Ionization_Penalty_Neutral>
1.27567

> <r_epik_State_Penalty>
1.9806

> <r_epik_Charging_Adjusted_Penalty>
2.62467

> <i_epik_Tot_Q>
0

> <i_epik_Tot_abs_Q>
0

> <r_epik_Metal_State_Penalty>
1.61835

> <b_epik_Metal_Only>
0

> <s_lp_Force_Field>
OPLS_2005

> <r_lp_Energy>
21.9363

> <b_lp_Chiralities_Consistent>
1

> <s_lp_Variant>
AV-unprocessed.smi:610-7

> <Gold.Version>
5.8.1

> <Gold.Id.Protein>
6NUR|6NUR_protein|mol2

> <Gold.PLP.Fitness>
38.2167

> <Gold.PLP.PLP>
-23.1286

> <Gold.PLP.part.hbond>
-4.0000

> <Gold.PLP.part.metal>
0.0000

> <Gold.PLP.part.buried>
-1.9852

> <Gold.PLP.part.nonpolar>
-18.5358

> <Gold.PLP.part.repulsive>
0.3143

> <Gold.PLP.ligand.clash>
0.0000

> <Gold.PLP.ligand.torsion>
0.8141

> <Gold.PLP.Chemscore.Hbond>
3.5621

> <Gold.PLP.Chemscore.CHOScore>
1.9993

> <Gold.PLP.Chemscore.Metal>
0.0000

> <Gold.Chemscore.Hbonds>
donor molecule, donor type, donor heavy atom, donor atom, acceptor molecule, acceptor atom, score
      L1  H     9    27       P1  7948  1.00
      L1  H    13    28       P1  7921  1.00
      L1  H    13    29       P1 10171  1.00
      P1  H  8011  8017       L1     7  0.78
      L1  C     6    25       P1  8028  1.00
      L1  C     8    26       P1  7957  0.66

> <Gold.PLP.Chemscore.Internal.Correction>
0.0321

> <Gold.Rescore>
     Score         DG    S(hbond)    S(metal)    S(lipo)     H(rot)  DE(clash)    DE(int)     intcor
     14.21     -18.59       3.81        0.00      45.85       1.95       2.37       2.01       ----

> <Gold.Chemscore.Fitness>
14.2072

> <Gold.Chemscore.DG>
-18.5945

> <Gold.Chemscore.ZeroCoef>
-5.4800

> <Gold.Chemscore.Hbond>
3.8136

> <Gold.Chemscore.Metal>
0.0000

> <Gold.Chemscore.Lipo>
45.8468

> <Gold.Chemscore.Internal_Hbond>
0.0000

> <Gold.Chemscore.DEClash>
2.3728

> <Gold.Chemscore.DEInternal>
2.0145

> <Gold.Chemscore.Rot>
1.9480

> <Gold.Chemscore.Internal.Correction>
   9.000000E+99

> <Gold.Chemscore.Hbonds>
donor molecule, donor type, donor heavy atom, donor atom, acceptor molecule, acceptor atom, score
      L1  H     9    27       P1  7948  0.98
      L1  H    13    28       P1  7921  1.00
      L1  H    13    29       P1 10171  1.00
      P1  H  8011  8017       L1     7  0.72

> <Gold.Chemscore.Hbond.Weighted>
-12.7373

> <Gold.Chemscore.Metal.Weighted>
-0.0000

> <Gold.Chemscore.Lipo.Weighted>
-5.3641

> <Gold.Chemscore.Internal_Hbond.Weighted>
0.0000

> <Gold.Chemscore.DEClash.Weighted>
2.3728

> <Gold.Chemscore.DEInternal.Weighted>
2.0145

> <Gold.Chemscore.Rot.Weighted>
4.9869

> <Gold.Chemscore.Internal.Correction.Weighted>
   9.000000E+99

> <Gold.Protein.RotatedTorsions>
[ 6907 6896 6895 6894 ] final  -72.72 input  -60.11 | X-H torsion
[ 7974 7965 7964 7962 ] final  133.81 input  175.53 | X-H torsion
[ 8008 7997 7996 7995 ] final  -20.99 input   59.86 | X-H torsion
[ 10167 10162 10161 10158 ] final   -5.70 input  -65.29 | X-H torsion
[ 10718 10713 10712 10709 ] final  -97.30 input   66.30 | X-H torsion
[ 10763 10752 10751 10750 ] final  -21.87 input  -60.55 | X-H torsion
[ 11005 11000 10999 10996 ] final  -90.86 input  -57.11 | X-H torsion

> <Gold.Protein.ActiveResidues>
 VAL166  LYS551  ARG553  GLY616  TRP617  ASP618  TYR619  PRO620  LYS621  CYS622 
 ASP623  PHE694  ASN695  SER759  ASP760  ASP761  ALA762  ILE779  LEU786  VAL792 
 PHE793  MET794  SER795  GLU796  ALA797  LYS798  CYS799  TRP800  GLU811  SER814 

> <Gold.Protein.RotatedAtoms>
  150.7158  134.5121  159.5612 H   0  0  0  0  0  0  0  0  0  0  0  0  # atno 6907 bound_to 6896
  152.2695  134.7945  160.0426 H   0  0  0  0  0  0  0  0  0  0  0  0  # atno 6908 bound_to 6896
  151.8630  133.3425  159.3746 H   0  0  0  0  0  0  0  0  0  0  0  0  # atno 6909 bound_to 6896
  144.9827  139.4488  143.5378 H   0  0  0  0  0  0  0  0  0  0  0  0  # atno 7974 bound_to 7965
  154.4734  140.2047  155.9938 H   0  0  0  0  0  0  0  0  0  0  0  0  # atno 8008 bound_to 7997
  156.1049  140.3238  155.7963 H   0  0  0  0  0  0  0  0  0  0  0  0  # atno 8009 bound_to 7997
  155.4734  140.0533  157.2967 H   0  0  0  0  0  0  0  0  0  0  0  0  # atno 8010 bound_to 7997
  140.6972  143.6278  150.8551 H   0  0  0  0  0  0  0  0  0  0  0  0  # atno 10167 bound_to 10162
  156.0080  130.5188  150.6354 H   0  0  0  0  0  0  0  0  0  0  0  0  # atno 10718 bound_to 10713
  153.6430  135.6984  153.5235 H   0  0  0  0  0  0  0  0  0  0  0  0  # atno 10763 bound_to 10752
  153.2767  135.4198  155.1039 H   0  0  0  0  0  0  0  0  0  0  0  0  # atno 10764 bound_to 10752
  154.8495  135.3592  154.5974 H   0  0  0  0  0  0  0  0  0  0  0  0  # atno 10765 bound_to 10752
  141.1557  133.7719  156.9797 H   0  0  0  0  0  0  0  0  0  0  0  0  # atno 11005 bound_to 11000
  146.3412  139.9109  142.8780 LP  0  0  0  0  0  0  0  0  0  0  0  0  # atno 17320 bound_to 7965
  145.2398  141.0005  143.3942 LP  0  0  0  0  0  0  0  0  0  0  0  0  # atno 17321 bound_to 7965
  139.9997  143.5757  152.2880 LP  0  0  0  0  0  0  0  0  0  0  0  0  # atno 17342 bound_to 10162
  139.6442  144.7657  151.2277 LP  0  0  0  0  0  0  0  0  0  0  0  0  # atno 17343 bound_to 10162
  157.4144  131.0828  151.1190 LP  0  0  0  0  0  0  0  0  0  0  0  0  # atno 17370 bound_to 10713
  157.1811  130.6310  149.5672 LP  0  0  0  0  0  0  0  0  0  0  0  0  # atno 17371 bound_to 10713
  140.1074  134.9498  157.2014 LP  0  0  0  0  0  0  0  0  0  0  0  0  # atno 17394 bound_to 11000
  140.3239  134.2886  155.7241 LP  0  0  0  0  0  0  0  0  0  0  0  0  # atno 17395 bound_to 11000

$$$$
