AV-unprocessed.smi:1893|AV-procd|sdf|7671|dock6
  -GOLD-   22720 9403D 1   1.00000     0.00000
 Structure written by MMmdl.
 43 44  0  0  0  0  0  0  0  0  2 V2000
  148.5514  143.3702  159.1170 C   0  0  0  0  0  0  0  0  0  0  0  0
  150.0814  143.5702  159.0634 C   0  0  2  0  0  0  0  0  0  0  0  0
  150.4133  144.9412  159.6949 C   0  0  0  0  0  0  0  0  0  0  0  0
  151.9148  145.2348  159.6846 C   0  0  0  0  0  0  0  0  0  0  0  0
  152.4362  145.1367  158.2518 C   0  0  0  0  0  0  0  0  0  0  0  0
  152.1099  143.7607  157.6557 C   0  0  0  0  0  0  0  0  0  0  0  0
  150.6464  143.4700  157.6761 N   0  3  1  0  0  0  0  0  0  0  0  0
  150.3358  142.1873  156.9812 C   0  0  0  0  0  0  0  0  0  0  0  0
  151.3568  141.0707  157.2863 C   0  0  0  0  0  0  0  0  0  0  0  0
  151.0073  139.8342  156.5971 N   0  0  0  0  0  0  0  0  0  0  0  0
  151.5986  139.3847  155.4785 C   0  0  0  0  0  0  0  0  0  0  0  0
  152.5356  139.9719  154.9358 O   0  0  0  0  0  0  0  0  0  0  0  0
  151.0327  138.0848  154.8839 C   0  0  2  0  0  0  0  0  0  0  0  0
  149.5773  138.2315  154.3951 C   0  0  0  0  0  0  0  0  0  0  0  0
  151.1802  136.9906  155.8360 N   0  0  0  0  0  0  0  0  0  0  0  0
  150.7484  136.8832  157.0945 C   0  0  0  0  0  0  0  0  0  0  0  0
  151.0209  135.7158  157.6599 N   0  0  0  0  0  0  0  0  0  0  0  0
  151.6646  135.1041  156.6219 C   0  0  0  0  0  0  0  0  0  0  0  0
  151.7768  135.8186  155.5022 N   0  0  0  0  0  0  0  0  0  0  0  0
  148.1590  143.6349  160.0995 H   0  0  0  0  0  0  0  0  0  0  0  0
  148.2574  142.3347  158.9503 H   0  0  0  0  0  0  0  0  0  0  0  0
  148.0410  143.9949  158.3832 H   0  0  0  0  0  0  0  0  0  0  0  0
  150.5465  142.7930  159.6723 H   0  0  0  0  0  0  0  0  0  0  0  0
  149.8877  145.7314  159.1563 H   0  0  0  0  0  0  0  0  0  0  0  0
  150.0495  144.9782  160.7226 H   0  0  0  0  0  0  0  0  0  0  0  0
  152.1096  146.2274  160.0916 H   0  0  0  0  0  0  0  0  0  0  0  0
  152.4393  144.5233  160.3238 H   0  0  0  0  0  0  0  0  0  0  0  0
  151.9904  145.9210  157.6383 H   0  0  0  0  0  0  0  0  0  0  0  0
  153.5136  145.3040  158.2362 H   0  0  0  0  0  0  0  0  0  0  0  0
  152.4943  143.7414  156.6378 H   0  0  0  0  0  0  0  0  0  0  0  0
  152.6420  142.9826  158.2054 H   0  0  0  0  0  0  0  0  0  0  0  0
  149.3253  141.8655  157.2371 H   0  0  0  0  0  0  0  0  0  0  0  0
  150.3437  142.3254  155.9036 H   0  0  0  0  0  0  0  0  0  0  0  0
  152.3641  141.3840  157.0060 H   0  0  0  0  0  0  0  0  0  0  0  0
  151.3864  140.8378  158.3495 H   0  0  0  0  0  0  0  0  0  0  0  0
  150.2480  139.2921  156.9843 H   0  0  0  0  0  0  0  0  0  0  0  0
  151.6420  137.8375  154.0128 H   0  0  0  0  0  0  0  0  0  0  0  0
  149.4909  139.0200  153.6467 H   0  0  0  0  0  0  0  0  0  0  0  0
  148.8932  138.4727  155.2097 H   0  0  0  0  0  0  0  0  0  0  0  0
  149.2276  137.3068  153.9350 H   0  0  0  0  0  0  0  0  0  0  0  0
  150.2183  137.6733  157.6061 H   0  0  0  0  0  0  0  0  0  0  0  0
  152.0551  134.0994  156.6909 H   0  0  0  0  0  0  0  0  0  0  0  0
  150.1959  144.1987  157.1411 H   0  0  0  0  0  0  0  0  0  0  0  0
  1  2  1  0  0  0  0
  1 20  1  0  0  0  0
  1 21  1  0  0  0  0
  1 22  1  0  0  0  0
  2  7  1  0  0  0  0
  2  3  1  0  0  0  0
  2 23  1  0  0  0  0
  3  4  1  0  0  0  0
  3 24  1  0  0  0  0
  3 25  1  0  0  0  0
  4  5  1  0  0  0  0
  4 26  1  0  0  0  0
  4 27  1  0  0  0  0
  5  6  1  0  0  0  0
  5 28  1  0  0  0  0
  5 29  1  0  0  0  0
  6  7  1  0  0  0  0
  6 30  1  0  0  0  0
  6 31  1  0  0  0  0
  7  8  1  0  0  0  0
  7 43  1  0  0  0  0
  8  9  1  0  0  0  0
  8 32  1  0  0  0  0
  8 33  1  0  0  0  0
  9 10  1  0  0  0  0
  9 34  1  0  0  0  0
  9 35  1  0  0  0  0
 10 11  1  0  0  0  0
 10 36  1  0  0  0  0
 11 12  2  0  0  0  0
 11 13  1  0  0  0  0
 13 14  1  0  0  0  0
 13 15  1  0  0  0  0
 13 37  1  0  0  0  0
 14 38  1  0  0  0  0
 14 39  1  0  0  0  0
 14 40  1  0  0  0  0
 15 19  1  0  0  0  0
 15 16  1  0  0  0  0
 16 17  2  0  0  0  0
 16 41  1  0  0  0  0
 17 18  1  0  0  0  0
 18 19  2  0  0  0  0
 18 42  1  0  0  0  0
M  CHG  1   7   1
M  END
> <s_m_source_file>
AV-unprocessed.smi

> <i_m_source_file_index>
1893

> <i_lp_mmshare_version>
43012

> <i_f3d_flags>
0

> <s_epik_input>
W0NIM11bQ0BASF0xW0NIMl1bQ0gyXVtDSDJdW0NIMl1OMVtDSDJdW0NIMl1bTkhdQyg9TylbQ0BIXShbQ0gzXSluMltjSF1uW2NIXW4y

> <s_epik_cmdline>
J2VwaWtfcHl0aG9uJywgJy1waCcsICc3LjAnLCAnLXRuJywgJzgnLCAnLW1hJywgJzIwMCcsICctbWV0YWxfYmluZGluZycsICctaW1hZScsICc8aW5maWxlLm1hZT4nLCAnLW9tYWUnLCAnPG91dGZpbGUubWFlPic=

> <r_lp_tautomer_probability>
1

> <r_epik_Ionization_Penalty>
0.00266409

> <r_epik_Ionization_Penalty_Charging>
0.00265606

> <r_epik_Ionization_Penalty_Neutral>
8.02794e-06

> <r_epik_State_Penalty>
0.00184955

> <r_epik_Charging_Adjusted_Penalty>
0.00450561

> <i_epik_Tot_Q>
1

> <i_epik_Tot_abs_Q>
1

> <r_epik_Metal_State_Penalty>
-0

> <b_epik_Metal_Only>
0

> <s_lp_Force_Field>
OPLS_2005

> <r_lp_Energy>
24.7489

> <b_lp_Chiralities_Consistent>
1

> <s_lp_Variant>
AV-unprocessed.smi:1893-1

> <Gold.Version>
5.8.1

> <Gold.Id.Protein>
6NUR|6NUR_protein|mol2

> <Gold.PLP.Fitness>
46.8259

> <Gold.PLP.PLP>
-33.8647

> <Gold.PLP.part.hbond>
-5.0000

> <Gold.PLP.part.metal>
0.0000

> <Gold.PLP.part.buried>
-2.5479

> <Gold.PLP.part.nonpolar>
-27.4724

> <Gold.PLP.part.repulsive>
0.1624

> <Gold.PLP.ligand.clash>
0.0000

> <Gold.PLP.ligand.torsion>
0.5537

> <Gold.PLP.Chemscore.Hbond>
4.6463

> <Gold.PLP.Chemscore.CHOScore>
0.0000

> <Gold.PLP.Chemscore.Metal>
0.0000

> <Gold.Chemscore.Hbonds>
donor molecule, donor type, donor heavy atom, donor atom, acceptor molecule, acceptor atom, score
      L1  H     7    43       P1  8028  2.00
      P1  H  6896  6907       L1    17  0.22
      P1  H  7989  7998       L1    12  0.56
      P1  H  7997  8008       L1    12  0.70
      P1  H 10752 10763       L1    19  0.75

> <Gold.PLP.Chemscore.Internal.Correction>
0.1297

> <Gold.Rescore>
     Score         DG    S(hbond)    S(metal)    S(lipo)     H(rot)  DE(clash)    DE(int)     intcor
     17.67     -18.55       3.12        0.00      78.06       2.54       0.50       0.37       ----

> <Gold.Chemscore.Fitness>
17.6733

> <Gold.Chemscore.DG>
-18.5482

> <Gold.Chemscore.ZeroCoef>
-5.4800

> <Gold.Chemscore.Hbond>
3.1232

> <Gold.Chemscore.Metal>
0.0000

> <Gold.Chemscore.Lipo>
78.0615

> <Gold.Chemscore.Internal_Hbond>
0.0000

> <Gold.Chemscore.DEClash>
0.5031

> <Gold.Chemscore.DEInternal>
0.3718

> <Gold.Chemscore.Rot>
2.5377

> <Gold.Chemscore.Internal.Correction>
   9.000000E+99

> <Gold.Chemscore.Hbonds>
donor molecule, donor type, donor heavy atom, donor atom, acceptor molecule, acceptor atom, score
      L1  H     7    43       P1  8028  0.76
      P1  H  6896  6907       L1    17  0.22
      P1  H  7989  7998       L1    12  0.22
      P1  H  7997  8008       L1    12  0.70
      P1  H 10752 10763       L1    19  0.45

> <Gold.Chemscore.Hbond.Weighted>
-10.4316

> <Gold.Chemscore.Metal.Weighted>
-0.0000

> <Gold.Chemscore.Lipo.Weighted>
-9.1332

> <Gold.Chemscore.Internal_Hbond.Weighted>
0.0000

> <Gold.Chemscore.DEClash.Weighted>
0.5031

> <Gold.Chemscore.DEInternal.Weighted>
0.3718

> <Gold.Chemscore.Rot.Weighted>
6.4966

> <Gold.Chemscore.Internal.Correction.Weighted>
   9.000000E+99

> <Gold.Protein.RotatedTorsions>
[ 6907 6896 6895 6894 ] final  -59.23 input  -60.11 | X-H torsion
[ 7974 7965 7964 7962 ] final   18.17 input  175.53 | X-H torsion
[ 8008 7997 7996 7995 ] final  -17.96 input   59.86 | X-H torsion
[ 10167 10162 10161 10158 ] final -127.26 input  -65.29 | X-H torsion
[ 10718 10713 10712 10709 ] final  -99.09 input   66.30 | X-H torsion
[ 10763 10752 10751 10750 ] final   81.32 input  -60.55 | X-H torsion
[ 11005 11000 10999 10996 ] final   93.72 input  -57.11 | X-H torsion

> <Gold.Protein.ActiveResidues>
 VAL166  LYS551  ARG553  GLY616  TRP617  ASP618  TYR619  PRO620  LYS621  CYS622 
 ASP623  PHE694  ASN695  SER759  ASP760  ASP761  ALA762  ILE779  LEU786  VAL792 
 PHE793  MET794  SER795  GLU796  ALA797  LYS798  CYS799  TRP800  GLU811  SER814 

> <Gold.Protein.RotatedAtoms>
  150.7946  134.6996  159.6542 H   0  0  0  0  0  0  0  0  0  0  0  0  # atno 6907 bound_to 6896
  152.4057  134.6208  160.0060 H   0  0  0  0  0  0  0  0  0  0  0  0  # atno 6908 bound_to 6896
  151.6466  133.3286  159.3178 H   0  0  0  0  0  0  0  0  0  0  0  0  # atno 6909 bound_to 6896
  146.2194  139.8495  142.8625 H   0  0  0  0  0  0  0  0  0  0  0  0  # atno 7974 bound_to 7965
  154.4940  140.2128  155.9487 H   0  0  0  0  0  0  0  0  0  0  0  0  # atno 8008 bound_to 7997
  156.1345  140.3191  155.8367 H   0  0  0  0  0  0  0  0  0  0  0  0  # atno 8009 bound_to 7997
  155.4236  140.0498  157.3014 H   0  0  0  0  0  0  0  0  0  0  0  0  # atno 8010 bound_to 7997
  139.9627  143.5932  152.2439 H   0  0  0  0  0  0  0  0  0  0  0  0  # atno 10167 bound_to 10162
  156.0124  130.5267  150.6619 H   0  0  0  0  0  0  0  0  0  0  0  0  # atno 10718 bound_to 10713
  153.1107  135.4770  154.9029 H   0  0  0  0  0  0  0  0  0  0  0  0  # atno 10763 bound_to 10752
  154.7477  135.3098  154.8617 H   0  0  0  0  0  0  0  0  0  0  0  0  # atno 10764 bound_to 10752
  153.9207  135.6855  153.4801 H   0  0  0  0  0  0  0  0  0  0  0  0  # atno 10765 bound_to 10752
  139.8806  134.8805  156.3759 H   0  0  0  0  0  0  0  0  0  0  0  0  # atno 11005 bound_to 11000
  145.2816  141.0140  143.3714 LP  0  0  0  0  0  0  0  0  0  0  0  0  # atno 17320 bound_to 7965
  144.9146  139.4486  143.6570 LP  0  0  0  0  0  0  0  0  0  0  0  0  # atno 17321 bound_to 7965
  139.6541  144.7661  151.2090 LP  0  0  0  0  0  0  0  0  0  0  0  0  # atno 17342 bound_to 10162
  140.7548  143.6113  150.8602 LP  0  0  0  0  0  0  0  0  0  0  0  0  # atno 17343 bound_to 10162
  157.4359  131.0855  151.0992 LP  0  0  0  0  0  0  0  0  0  0  0  0  # atno 17370 bound_to 10713
  157.1551  130.6201  149.5594 LP  0  0  0  0  0  0  0  0  0  0  0  0  # atno 17371 bound_to 10713
  140.9432  133.7500  156.0174 LP  0  0  0  0  0  0  0  0  0  0  0  0  # atno 17394 bound_to 11000
  140.8194  134.3307  157.5386 LP  0  0  0  0  0  0  0  0  0  0  0  0  # atno 17395 bound_to 11000

$$$$
