AV-unprocessed.smi:767|AV-procd|sdf|3667|dock2
  -GOLD-   22720 1 73D 1   1.00000     0.00000
 Structure written by MMmdl.
 48 50  0  0  0  0  0  0  0  0  2 V2000
  151.3001  143.7653  158.4147 C   0  0  0  0  0  0  0  0  0  0  0  0
  151.0408  142.5127  157.6050 C   0  0  0  0  0  0  0  0  0  0  0  0
  151.7299  141.3052  157.8461 C   0  0  0  0  0  0  0  0  0  0  0  0
  151.4360  140.1759  157.0550 C   0  0  0  0  0  0  0  0  0  0  0  0
  150.4563  140.2739  156.0423 C   0  0  0  0  0  0  0  0  0  0  0  0
  150.0993  139.0656  155.1930 C   0  0  0  0  0  0  0  0  0  0  0  0
  148.8240  139.2590  154.3462 C   0  0  0  0  0  0  0  0  0  0  0  0
  148.3121  138.0132  153.7818 N   0  0  0  0  0  0  0  0  0  0  0  0
  147.1989  137.3836  154.1813 C   0  0  0  0  0  0  0  0  0  0  0  0
  146.4691  137.7792  155.0899 O   0  0  0  0  0  0  0  0  0  0  0  0
  146.9660  136.2844  153.4534 N   0  0  0  0  0  0  0  0  0  0  0  0
  145.8129  135.3984  153.6209 C   0  0  2  0  0  0  0  0  0  0  0  0
  146.2162  133.9117  153.7525 C   0  0  2  0  0  0  0  0  0  0  0  0
  147.6428  133.4635  153.9578 C   0  0  0  0  0  0  0  0  0  0  0  0
  148.0991  133.1218  152.5359 C   0  0  0  0  0  0  0  0  0  0  0  0
  147.1983  133.8266  151.6837 O   0  0  0  0  0  0  0  0  0  0  0  0
  145.9013  133.7599  152.2734 C   0  0  2  0  0  0  0  0  0  0  0  0
  145.0843  135.0682  152.2887 C   0  0  0  0  0  0  0  0  0  0  0  0
  143.5744  134.8589  152.4374 C   0  0  0  0  0  0  0  0  0  0  0  0
  145.2710  135.9981  151.0827 C   0  0  0  0  0  0  0  0  0  0  0  0
  149.8047  141.5093  155.8422 C   0  0  0  0  0  0  0  0  0  0  0  0
  150.1163  142.5692  156.6199 N   0  3  0  0  0  0  0  0  0  0  0  0
  151.7923  143.5243  159.3575 H   0  0  0  0  0  0  0  0  0  0  0  0
  150.3650  144.2777  158.6428 H   0  0  0  0  0  0  0  0  0  0  0  0
  151.9416  144.4488  157.8581 H   0  0  0  0  0  0  0  0  0  0  0  0
  152.4718  141.2407  158.6290 H   0  0  0  0  0  0  0  0  0  0  0  0
  151.9504  139.2426  157.2325 H   0  0  0  0  0  0  0  0  0  0  0  0
  150.9410  138.8320  154.5403 H   0  0  0  0  0  0  0  0  0  0  0  0
  149.9775  138.1986  155.8437 H   0  0  0  0  0  0  0  0  0  0  0  0
  148.0341  139.6713  154.9745 H   0  0  0  0  0  0  0  0  0  0  0  0
  148.9986  139.9887  153.5542 H   0  0  0  0  0  0  0  0  0  0  0  0
  148.8420  137.6046  153.0259 H   0  0  0  0  0  0  0  0  0  0  0  0
  147.6193  136.0452  152.7216 H   0  0  0  0  0  0  0  0  0  0  0  0
  145.1347  135.7110  154.4168 H   0  0  0  0  0  0  0  0  0  0  0  0
  145.4941  133.3676  154.3634 H   0  0  0  0  0  0  0  0  0  0  0  0
  148.2612  134.2458  154.3974 H   0  0  0  0  0  0  0  0  0  0  0  0
  147.7108  132.5930  154.6106 H   0  0  0  0  0  0  0  0  0  0  0  0
  149.1346  133.4049  152.3466 H   0  0  0  0  0  0  0  0  0  0  0  0
  147.9984  132.0516  152.3489 H   0  0  0  0  0  0  0  0  0  0  0  0
  145.3532  132.8499  152.0243 H   0  0  0  0  0  0  0  0  0  0  0  0
  143.1422  134.4054  151.5448 H   0  0  0  0  0  0  0  0  0  0  0  0
  143.0558  135.8019  152.6134 H   0  0  0  0  0  0  0  0  0  0  0  0
  143.3393  134.2022  153.2753 H   0  0  0  0  0  0  0  0  0  0  0  0
  144.8061  135.5875  150.1860 H   0  0  0  0  0  0  0  0  0  0  0  0
  146.3226  136.1577  150.8446 H   0  0  0  0  0  0  0  0  0  0  0  0
  144.8262  136.9769  151.2641 H   0  0  0  0  0  0  0  0  0  0  0  0
  149.0437  141.6791  155.0945 H   0  0  0  0  0  0  0  0  0  0  0  0
  149.6297  143.4514  156.4589 H   0  0  0  0  0  0  0  0  0  0  0  0
  1  2  1  0  0  0  0
  1 23  1  0  0  0  0
  1 24  1  0  0  0  0
  1 25  1  0  0  0  0
  2 22  1  0  0  0  0
  2  3  2  0  0  0  0
  3  4  1  0  0  0  0
  3 26  1  0  0  0  0
  4  5  2  0  0  0  0
  4 27  1  0  0  0  0
  5  6  1  0  0  0  0
  5 21  1  0  0  0  0
  6  7  1  0  0  0  0
  6 28  1  0  0  0  0
  6 29  1  0  0  0  0
  7  8  1  0  0  0  0
  7 30  1  0  0  0  0
  7 31  1  0  0  0  0
  8  9  1  0  0  0  0
  8 32  1  0  0  0  0
  9 10  2  0  0  0  0
  9 11  1  0  0  0  0
 11 12  1  0  0  0  0
 11 33  1  0  0  0  0
 12 18  1  0  0  0  0
 12 13  1  0  0  0  0
 12 34  1  0  0  0  0
 13 17  1  0  0  0  0
 13 14  1  0  0  0  0
 13 35  1  0  0  0  0
 14 15  1  0  0  0  0
 14 36  1  0  0  0  0
 14 37  1  0  0  0  0
 15 16  1  0  0  0  0
 15 38  1  0  0  0  0
 15 39  1  0  0  0  0
 16 17  1  0  0  0  0
 17 18  1  0  0  0  0
 17 40  1  0  0  0  0
 18 19  1  0  0  0  0
 18 20  1  0  0  0  0
 19 41  1  0  0  0  0
 19 42  1  0  0  0  0
 19 43  1  0  0  0  0
 20 44  1  0  0  0  0
 20 45  1  0  0  0  0
 20 46  1  0  0  0  0
 21 22  2  0  0  0  0
 21 47  1  0  0  0  0
 22 48  1  0  0  0  0
M  CHG  1  22   1
M  END
> <s_m_source_file>
AV-unprocessed.smi

> <i_m_source_file_index>
767

> <i_lp_mmshare_version>
43012

> <i_f3d_flags>
0

> <s_epik_input>
W0NIM11jMVtjSF1bY0hdYyhbY0hdbjEpW0NIMl1bQ0gyXVtOSF1DKD1PKVtOSF1bQ0BIXTJDKFtDSDNdKShbQ0gzXSlbQ0BIXShbQ0BASF0yMylPW0NIMl1bQ0gyXTM=

> <s_epik_cmdline>
J2VwaWtfcHl0aG9uJywgJy1waCcsICc3LjAnLCAnLXRuJywgJzgnLCAnLW1hJywgJzIwMCcsICctbWV0YWxfYmluZGluZycsICctaW1hZScsICc8aW5maWxlLm1hZT4nLCAnLW9tYWUnLCAnPG91dGZpbGUubWFlPic=

> <r_epik_Ionization_Penalty>
1.41853

> <r_epik_Ionization_Penalty_Charging>
1.41848

> <r_epik_Ionization_Penalty_Neutral>
5.17407e-05

> <r_epik_State_Penalty>
1.50205

> <r_epik_Charging_Adjusted_Penalty>
2.92053

> <i_epik_Tot_Q>
1

> <i_epik_Tot_abs_Q>
1

> <r_epik_Metal_State_Penalty>
1.5544

> <b_epik_Metal_Only>
0

> <s_lp_Force_Field>
OPLS_2005

> <r_lp_Energy>
40.587

> <b_lp_Chiralities_Consistent>
1

> <s_lp_Variant>
AV-unprocessed.smi:767-11

> <Gold.Version>
5.8.1

> <Gold.Id.Protein>
6NUR|6NUR_protein|mol2

> <Gold.PLP.Fitness>
45.2014

> <Gold.PLP.PLP>
-33.7300

> <Gold.PLP.part.hbond>
-3.0000

> <Gold.PLP.part.metal>
0.0000

> <Gold.PLP.part.buried>
-4.8187

> <Gold.PLP.part.nonpolar>
-26.8712

> <Gold.PLP.part.repulsive>
0.9072

> <Gold.PLP.ligand.clash>
0.0000

> <Gold.PLP.ligand.torsion>
0.3243

> <Gold.PLP.Chemscore.Hbond>
3.9760

> <Gold.PLP.Chemscore.CHOScore>
0.0000

> <Gold.PLP.Chemscore.Metal>
0.0000

> <Gold.Chemscore.Hbonds>
donor molecule, donor type, donor heavy atom, donor atom, acceptor molecule, acceptor atom, score
      L1  H     8    32       P1  7948  0.94
      L1  H    11    33       P1  7948  1.00
      L1  H    22    48       P1  8028  2.00

> <Gold.PLP.Chemscore.Internal.Correction>
0.1920

> <Gold.Rescore>
     Score         DG    S(hbond)    S(metal)    S(lipo)     H(rot)  DE(clash)    DE(int)     intcor
     21.20     -21.46       2.89        0.00      87.34       1.52       0.01       0.25       ----

> <Gold.Chemscore.Fitness>
21.2002

> <Gold.Chemscore.DG>
-21.4633

> <Gold.Chemscore.ZeroCoef>
-5.4800

> <Gold.Chemscore.Hbond>
2.8934

> <Gold.Chemscore.Metal>
0.0000

> <Gold.Chemscore.Lipo>
87.3402

> <Gold.Chemscore.Internal_Hbond>
0.0000

> <Gold.Chemscore.DEClash>
0.0090

> <Gold.Chemscore.DEInternal>
0.2542

> <Gold.Chemscore.Rot>
1.5233

> <Gold.Chemscore.Internal.Correction>
   9.000000E+99

> <Gold.Chemscore.Hbonds>
donor molecule, donor type, donor heavy atom, donor atom, acceptor molecule, acceptor atom, score
      L1  H     8    32       P1  7948  0.91
      L1  H    11    33       P1  7948  0.97
      L1  H    22    48       P1  8028  1.00

> <Gold.Chemscore.Hbond.Weighted>
-9.6641

> <Gold.Chemscore.Metal.Weighted>
-0.0000

> <Gold.Chemscore.Lipo.Weighted>
-10.2188

> <Gold.Chemscore.Internal_Hbond.Weighted>
0.0000

> <Gold.Chemscore.DEClash.Weighted>
0.0090

> <Gold.Chemscore.DEInternal.Weighted>
0.2542

> <Gold.Chemscore.Rot.Weighted>
3.8995

> <Gold.Chemscore.Internal.Correction.Weighted>
   9.000000E+99

> <Gold.Protein.RotatedTorsions>
[ 6907 6896 6895 6894 ] final  -56.27 input  -60.11 | X-H torsion
[ 7974 7965 7964 7962 ] final  158.67 input  175.53 | X-H torsion
[ 8008 7997 7996 7995 ] final -133.75 input   59.86 | X-H torsion
[ 10167 10162 10161 10158 ] final  -92.51 input  -65.29 | X-H torsion
[ 10718 10713 10712 10709 ] final   25.28 input   66.30 | X-H torsion
[ 10763 10752 10751 10750 ] final  -41.70 input  -60.55 | X-H torsion
[ 11005 11000 10999 10996 ] final  120.58 input  -57.11 | X-H torsion

> <Gold.Protein.ActiveResidues>
 VAL166  LYS551  ARG553  GLY616  TRP617  ASP618  TYR619  PRO620  LYS621  CYS622 
 ASP623  PHE694  ASN695  SER759  ASP760  ASP761  ALA762  ILE779  LEU786  VAL792 
 PHE793  MET794  SER795  GLU796  ALA797  LYS798  CYS799  TRP800  GLU811  SER814 

> <Gold.Protein.RotatedAtoms>
  150.8182  134.7375  159.6748 H   0  0  0  0  0  0  0  0  0  0  0  0  # atno 6907 bound_to 6896
  152.4299  134.5794  159.9953 H   0  0  0  0  0  0  0  0  0  0  0  0  # atno 6908 bound_to 6896
  151.5985  133.3321  159.3078 H   0  0  0  0  0  0  0  0  0  0  0  0  # atno 6909 bound_to 6896
  144.7832  139.7511  143.6251 H   0  0  0  0  0  0  0  0  0  0  0  0  # atno 7974 bound_to 7965
  155.3507  140.0477  157.3046 H   0  0  0  0  0  0  0  0  0  0  0  0  # atno 8008 bound_to 7997
  154.5229  140.2231  155.8907 H   0  0  0  0  0  0  0  0  0  0  0  0  # atno 8009 bound_to 7997
  156.1708  140.3096  155.8977 H   0  0  0  0  0  0  0  0  0  0  0  0  # atno 8010 bound_to 7997
  140.3340  143.2978  151.9909 H   0  0  0  0  0  0  0  0  0  0  0  0  # atno 10167 bound_to 10162
  157.1911  130.6847  149.6150 H   0  0  0  0  0  0  0  0  0  0  0  0  # atno 10718 bound_to 10713
  153.9669  135.6733  153.4746 H   0  0  0  0  0  0  0  0  0  0  0  0  # atno 10763 bound_to 10752
  153.0811  135.4923  154.8502 H   0  0  0  0  0  0  0  0  0  0  0  0  # atno 10764 bound_to 10752
  154.7241  135.3123  154.8960 H   0  0  0  0  0  0  0  0  0  0  0  0  # atno 10765 bound_to 10752
  139.9191  134.9635  156.7829 H   0  0  0  0  0  0  0  0  0  0  0  0  # atno 11005 bound_to 11000
  146.2051  139.5371  142.9717 LP  0  0  0  0  0  0  0  0  0  0  0  0  # atno 17320 bound_to 7965
  145.5992  141.0358  143.2028 LP  0  0  0  0  0  0  0  0  0  0  0  0  # atno 17321 bound_to 7965
  139.4851  144.6211  151.7253 LP  0  0  0  0  0  0  0  0  0  0  0  0  # atno 17342 bound_to 10162
  140.5370  144.0639  150.6074 LP  0  0  0  0  0  0  0  0  0  0  0  0  # atno 17343 bound_to 10162
  155.9711  130.4614  150.6108 LP  0  0  0  0  0  0  0  0  0  0  0  0  # atno 17370 bound_to 10713
  157.3859  131.0788  151.1436 LP  0  0  0  0  0  0  0  0  0  0  0  0  # atno 17371 bound_to 10713
  140.6530  133.9714  155.7765 LP  0  0  0  0  0  0  0  0  0  0  0  0  # atno 17394 bound_to 11000
  141.0695  134.0226  157.3546 LP  0  0  0  0  0  0  0  0  0  0  0  0  # atno 17395 bound_to 11000

$$$$
