AV-unprocessed.smi:2795|AV-procd|sdf|10779|dock4
  -GOLD-   2272015213D 1   1.00000     0.00000
 Structure written by MMmdl.
 37 38  0  0  0  0  0  0  0  0  2 V2000
  146.7777  142.0473  153.6664 C   0  0  0  0  0  0  0  0  0  0  0  0
  147.6579  140.8937  153.4596 N   0  0  0  0  0  0  0  0  0  0  0  0
  147.3556  139.9311  152.5795 C   0  0  0  0  0  0  0  0  0  0  0  0
  148.3428  139.0345  152.6297 N   0  3  0  0  0  0  0  0  0  0  0  0
  149.2809  139.4212  153.5464 C   0  0  0  0  0  0  0  0  0  0  0  0
  148.8556  140.6123  154.0818 C   0  0  0  0  0  0  0  0  0  0  0  0
  149.5018  141.4978  155.1050 C   0  0  0  0  0  0  0  0  0  0  0  0
  150.8213  140.9180  155.6547 C   0  0  0  0  0  0  0  0  0  0  0  0
  151.4098  141.7566  156.6965 N   0  0  0  0  0  0  0  0  0  0  0  0
  150.8245  142.0894  157.8592 C   0  0  0  0  0  0  0  0  0  0  0  0
  149.6710  141.7649  158.1442 O   0  0  0  0  0  0  0  0  0  0  0  0
  151.6779  142.8923  158.8520 C   0  0  1  0  0  0  0  0  0  0  0  0
  151.0011  144.2166  159.2760 C   0  0  0  0  0  0  0  0  0  0  0  0
  151.8386  144.9403  160.3360 C   0  0  0  0  0  0  0  0  0  0  0  0
  152.1425  143.9881  161.4965 C   0  0  0  0  0  0  0  0  0  0  0  0
  152.7690  142.6896  160.9671 C   0  0  0  0  0  0  0  0  0  0  0  0
  151.9005  142.0887  160.0124 O   0  0  0  0  0  0  0  0  0  0  0  0
  146.1055  142.1619  152.8148 H   0  0  0  0  0  0  0  0  0  0  0  0
  147.3754  142.9526  153.7684 H   0  0  0  0  0  0  0  0  0  0  0  0
  146.1945  141.8908  154.5740 H   0  0  0  0  0  0  0  0  0  0  0  0
  146.4851  139.8861  151.9497 H   0  0  0  0  0  0  0  0  0  0  0  0
  150.1699  138.8390  153.7405 H   0  0  0  0  0  0  0  0  0  0  0  0
  149.6750  142.4868  154.6807 H   0  0  0  0  0  0  0  0  0  0  0  0
  148.8000  141.6430  155.9267 H   0  0  0  0  0  0  0  0  0  0  0  0
  150.6350  139.9318  156.0801 H   0  0  0  0  0  0  0  0  0  0  0  0
  151.5311  140.7650  154.8401 H   0  0  0  0  0  0  0  0  0  0  0  0
  152.3557  142.0756  156.5429 H   0  0  0  0  0  0  0  0  0  0  0  0
  152.6352  143.1009  158.3710 H   0  0  0  0  0  0  0  0  0  0  0  0
  150.8639  144.8710  158.4141 H   0  0  0  0  0  0  0  0  0  0  0  0
  150.0065  144.0143  159.6772 H   0  0  0  0  0  0  0  0  0  0  0  0
  152.7724  145.2872  159.8918 H   0  0  0  0  0  0  0  0  0  0  0  0
  151.3142  145.8258  160.6965 H   0  0  0  0  0  0  0  0  0  0  0  0
  152.8116  144.4670  162.2119 H   0  0  0  0  0  0  0  0  0  0  0  0
  151.2218  143.7562  162.0335 H   0  0  0  0  0  0  0  0  0  0  0  0
  153.7442  142.8817  160.5171 H   0  0  0  0  0  0  0  0  0  0  0  0
  152.9288  141.9887  161.7866 H   0  0  0  0  0  0  0  0  0  0  0  0
  148.3895  138.1942  152.0673 H   0  0  0  0  0  0  0  0  0  0  0  0
  1  2  1  0  0  0  0
  1 18  1  0  0  0  0
  1 19  1  0  0  0  0
  1 20  1  0  0  0  0
  2  6  1  0  0  0  0
  2  3  1  0  0  0  0
  3  4  2  0  0  0  0
  3 21  1  0  0  0  0
  4  5  1  0  0  0  0
  4 37  1  0  0  0  0
  5  6  2  0  0  0  0
  5 22  1  0  0  0  0
  6  7  1  0  0  0  0
  7  8  1  0  0  0  0
  7 23  1  0  0  0  0
  7 24  1  0  0  0  0
  8  9  1  0  0  0  0
  8 25  1  0  0  0  0
  8 26  1  0  0  0  0
  9 10  1  0  0  0  0
  9 27  1  0  0  0  0
 10 11  2  0  0  0  0
 10 12  1  0  0  0  0
 12 17  1  0  0  0  0
 12 13  1  0  0  0  0
 12 28  1  0  0  0  0
 13 14  1  0  0  0  0
 13 29  1  0  0  0  0
 13 30  1  0  0  0  0
 14 15  1  0  0  0  0
 14 31  1  0  0  0  0
 14 32  1  0  0  0  0
 15 16  1  0  0  0  0
 15 33  1  0  0  0  0
 15 34  1  0  0  0  0
 16 17  1  0  0  0  0
 16 35  1  0  0  0  0
 16 36  1  0  0  0  0
M  CHG  1   4   1
M  END
> <s_m_source_file>
AV-unprocessed.smi

> <i_m_source_file_index>
2795

> <i_lp_mmshare_version>
43012

> <i_f3d_flags>
0

> <s_epik_input>
W0NIM11uMVtjSF1uW2NIXWMxW0NIMl1bQ0gyXVtOSF1DKD1PKVtDQEBIXTJbQ0gyXVtDSDJdW0NIMl1bQ0gyXU8y

> <s_epik_cmdline>
J2VwaWtfcHl0aG9uJywgJy1waCcsICc3LjAnLCAnLXRuJywgJzgnLCAnLW1hJywgJzIwMCcsICctbWV0YWxfYmluZGluZycsICctaW1hZScsICc8aW5maWxlLm1hZT4nLCAnLW9tYWUnLCAnPG91dGZpbGUubWFlPic=

> <r_lp_tautomer_probability>
1

> <r_epik_Ionization_Penalty>
0.154825

> <r_epik_Ionization_Penalty_Charging>
0

> <r_epik_Ionization_Penalty_Neutral>
0.154825

> <r_epik_State_Penalty>
0.144119

> <r_epik_Charging_Adjusted_Penalty>
0.144119

> <i_epik_Tot_Q>
1

> <i_epik_Tot_abs_Q>
1

> <r_epik_Metal_State_Penalty>
0.465431

> <b_epik_Metal_Only>
0

> <s_lp_Force_Field>
OPLS_2005

> <r_lp_Energy>
10.0187

> <b_lp_Chiralities_Consistent>
1

> <s_lp_Variant>
AV-unprocessed.smi:2795-2

> <Gold.Version>
5.8.1

> <Gold.Id.Protein>
6NUR|6NUR_protein|mol2

> <Gold.PLP.Fitness>
48.4369

> <Gold.PLP.PLP>
-40.4009

> <Gold.PLP.part.hbond>
-2.5134

> <Gold.PLP.part.metal>
0.0000

> <Gold.PLP.part.buried>
-2.9956

> <Gold.PLP.part.nonpolar>
-35.2080

> <Gold.PLP.part.repulsive>
0.2311

> <Gold.PLP.ligand.clash>
0.0000

> <Gold.PLP.ligand.torsion>
0.0474

> <Gold.PLP.Chemscore.Hbond>
1.9825

> <Gold.PLP.Chemscore.CHOScore>
0.7231

> <Gold.PLP.Chemscore.Metal>
0.0000

> <Gold.Chemscore.Hbonds>
donor molecule, donor type, donor heavy atom, donor atom, acceptor molecule, acceptor atom, score
      L1  H     4    37       P1  7948  2.00
      L1  C     3    21       P1 10175  0.08

> <Gold.PLP.Chemscore.Internal.Correction>
0.0140

> <Gold.Rescore>
     Score         DG    S(hbond)    S(metal)    S(lipo)     H(rot)  DE(clash)    DE(int)     intcor
     13.62     -14.71       0.98        0.00      90.92       1.82       0.67       0.42       ----

> <Gold.Chemscore.Fitness>
13.6173

> <Gold.Chemscore.DG>
-14.7093

> <Gold.Chemscore.ZeroCoef>
-5.4800

> <Gold.Chemscore.Hbond>
0.9755

> <Gold.Chemscore.Metal>
0.0000

> <Gold.Chemscore.Lipo>
90.9177

> <Gold.Chemscore.Internal_Hbond>
0.0000

> <Gold.Chemscore.DEClash>
0.6670

> <Gold.Chemscore.DEInternal>
0.4250

> <Gold.Chemscore.Rot>
1.8227

> <Gold.Chemscore.Internal.Correction>
   9.000000E+99

> <Gold.Chemscore.Hbonds>
donor molecule, donor type, donor heavy atom, donor atom, acceptor molecule, acceptor atom, score
      L1  H     4    37       P1  7948  0.89

> <Gold.Chemscore.Hbond.Weighted>
-3.2581

> <Gold.Chemscore.Metal.Weighted>
-0.0000

> <Gold.Chemscore.Lipo.Weighted>
-10.6374

> <Gold.Chemscore.Internal_Hbond.Weighted>
0.0000

> <Gold.Chemscore.DEClash.Weighted>
0.6670

> <Gold.Chemscore.DEInternal.Weighted>
0.4250

> <Gold.Chemscore.Rot.Weighted>
4.6662

> <Gold.Chemscore.Internal.Correction.Weighted>
   9.000000E+99

> <Gold.Protein.RotatedTorsions>
[ 6907 6896 6895 6894 ] final   -6.91 input  -60.11 | X-H torsion
[ 7974 7965 7964 7962 ] final  128.70 input  175.53 | X-H torsion
[ 8008 7997 7996 7995 ] final  122.48 input   59.86 | X-H torsion
[ 10167 10162 10161 10158 ] final  -67.47 input  -65.29 | X-H torsion
[ 10718 10713 10712 10709 ] final  -43.91 input   66.30 | X-H torsion
[ 10763 10752 10751 10750 ] final   -7.76 input  -60.55 | X-H torsion
[ 11005 11000 10999 10996 ] final  -91.63 input  -57.11 | X-H torsion

> <Gold.Protein.ActiveResidues>
 VAL166  LYS551  ARG553  GLY616  TRP617  ASP618  TYR619  PRO620  LYS621  CYS622 
 ASP623  PHE694  ASN695  SER759  ASP760  ASP761  ALA762  ILE779  LEU786  VAL792 
 PHE793  MET794  SER795  GLU796  ALA797  LYS798  CYS799  TRP800  GLU811  SER814 

> <Gold.Protein.RotatedAtoms>
  151.4580  135.1036  159.9716 H   0  0  0  0  0  0  0  0  0  0  0  0  # atno 6907 bound_to 6896
  152.4864  133.8379  159.7148 H   0  0  0  0  0  0  0  0  0  0  0  0  # atno 6908 bound_to 6896
  150.8977  133.7100  159.2914 H   0  0  0  0  0  0  0  0  0  0  0  0  # atno 6909 bound_to 6896
  145.0367  139.3998  143.5122 H   0  0  0  0  0  0  0  0  0  0  0  0  # atno 7974 bound_to 7965
  156.2729  140.2784  156.1475 H   0  0  0  0  0  0  0  0  0  0  0  0  # atno 8008 bound_to 7997
  155.0888  140.0388  157.2680 H   0  0  0  0  0  0  0  0  0  0  0  0  # atno 8009 bound_to 7997
  154.6905  140.2628  155.6823 H   0  0  0  0  0  0  0  0  0  0  0  0  # atno 8010 bound_to 7997
  140.5581  143.2312  151.6782 H   0  0  0  0  0  0  0  0  0  0  0  0  # atno 10167 bound_to 10162
  156.2440  130.4182  149.8726 H   0  0  0  0  0  0  0  0  0  0  0  0  # atno 10718 bound_to 10713
  153.4309  135.7012  153.6232 H   0  0  0  0  0  0  0  0  0  0  0  0  # atno 10763 bound_to 10752
  153.4647  135.3728  155.2358 H   0  0  0  0  0  0  0  0  0  0  0  0  # atno 10764 bound_to 10752
  154.8725  135.4028  154.3692 H   0  0  0  0  0  0  0  0  0  0  0  0  # atno 10765 bound_to 10752
  141.1540  133.7768  156.9907 H   0  0  0  0  0  0  0  0  0  0  0  0  # atno 11005 bound_to 11000
  146.3505  139.9947  142.8682 LP  0  0  0  0  0  0  0  0  0  0  0  0  # atno 17320 bound_to 7965
  145.1700  140.9716  143.4327 LP  0  0  0  0  0  0  0  0  0  0  0  0  # atno 17321 bound_to 7965
  139.5057  144.3708  152.0472 LP  0  0  0  0  0  0  0  0  0  0  0  0  # atno 17342 bound_to 10162
  140.2832  144.3837  150.6112 LP  0  0  0  0  0  0  0  0  0  0  0  0  # atno 17343 bound_to 10162
  156.6298  130.8661  151.3493 LP  0  0  0  0  0  0  0  0  0  0  0  0  # atno 17370 bound_to 10713
  157.7187  130.9531  150.1355 LP  0  0  0  0  0  0  0  0  0  0  0  0  # atno 17371 bound_to 10713
  140.1005  134.9538  157.1915 LP  0  0  0  0  0  0  0  0  0  0  0  0  # atno 17394 bound_to 11000
  140.3325  134.2794  155.7225 LP  0  0  0  0  0  0  0  0  0  0  0  0  # atno 17395 bound_to 11000

$$$$
