AV-unprocessed.smi:11|AV-procd|sdf|59|dock6
  -GOLD-   2262015173D 1   1.00000     0.00000
 Structure written by MMmdl.
 33 35  0  0  0  0  0  0  0  0  1 V2000
  155.2297  136.8303  158.4519 C   0  0  0  0  0  0  0  0  0  0  0  0
  153.9163  137.5807  158.1727 C   0  0  0  0  0  0  0  0  0  0  0  0
  153.1064  137.9860  159.4297 C   0  0  1  0  0  0  0  0  0  0  0  0
  152.7567  136.8142  160.1407 O   0  0  0  0  0  0  0  0  0  0  0  0
  153.9104  138.9223  160.3412 C   0  0  0  0  0  0  0  0  0  0  0  0
  153.6117  140.3059  159.7693 C   0  0  0  0  0  0  0  0  0  0  0  0
  152.2413  140.2224  159.2814 N   0  0  0  0  0  0  0  0  0  0  0  0
  151.7260  141.2167  158.4225 C   0  0  0  0  0  0  0  0  0  0  0  0
  150.8455  140.8410  157.4595 N   0  0  0  0  0  0  0  0  0  0  0  0
  150.3500  141.8042  156.6419 C   0  0  0  0  0  0  0  0  0  0  0  0
  150.6285  143.1306  156.6525 N   0  0  0  0  0  0  0  0  0  0  0  0
  151.5249  143.5306  157.6022 C   0  0  0  0  0  0  0  0  0  0  0  0
  151.9851  144.7579  157.8211 N   0  0  0  0  0  0  0  0  0  0  0  0
  152.8569  144.6572  158.8383 C   0  0  0  0  0  0  0  0  0  0  0  0
  153.0010  143.3062  159.3369 C   0  0  0  0  0  0  0  0  0  0  0  0
  152.0898  142.5909  158.4991 C   0  0  0  0  0  0  0  0  0  0  0  0
  151.8558  138.8269  159.1087 C   0  0  0  0  0  0  0  0  0  0  0  0
  155.7473  136.6095  157.5185 H   0  0  0  0  0  0  0  0  0  0  0  0
  155.0589  135.8815  158.9592 H   0  0  0  0  0  0  0  0  0  0  0  0
  155.9069  137.4232  159.0668 H   0  0  0  0  0  0  0  0  0  0  0  0
  154.1519  138.4766  157.5968 H   0  0  0  0  0  0  0  0  0  0  0  0
  153.2972  136.9635  157.5203 H   0  0  0  0  0  0  0  0  0  0  0  0
  153.0943  136.8859  161.0204 H   0  0  0  0  0  0  0  0  0  0  0  0
  153.5334  138.8730  161.3643 H   0  0  0  0  0  0  0  0  0  0  0  0
  154.9768  138.6959  160.3713 H   0  0  0  0  0  0  0  0  0  0  0  0
  153.7206  141.0866  160.5225 H   0  0  0  0  0  0  0  0  0  0  0  0
  154.2934  140.5253  158.9466 H   0  0  0  0  0  0  0  0  0  0  0  0
  149.6485  141.4724  155.8909 H   0  0  0  0  0  0  0  0  0  0  0  0
  153.3830  145.5262  159.2139 H   0  0  0  0  0  0  0  0  0  0  0  0
  153.6377  142.9472  160.1350 H   0  0  0  0  0  0  0  0  0  0  0  0
  151.4713  138.6280  158.1092 H   0  0  0  0  0  0  0  0  0  0  0  0
  151.0589  138.6125  159.8218 H   0  0  0  0  0  0  0  0  0  0  0  0
  150.1845  143.7379  155.9786 H   0  0  0  0  0  0  0  0  0  0  0  0
  1  2  1  0  0  0  0
  1 18  1  0  0  0  0
  1 19  1  0  0  0  0
  1 20  1  0  0  0  0
  2  3  1  0  0  0  0
  2 21  1  0  0  0  0
  2 22  1  0  0  0  0
  3 17  1  0  0  0  0
  3  4  1  0  0  0  0
  3  5  1  0  0  0  0
  4 23  1  0  0  0  0
  5  6  1  0  0  0  0
  5 24  1  0  0  0  0
  5 25  1  0  0  0  0
  6  7  1  0  0  0  0
  6 26  1  0  0  0  0
  6 27  1  0  0  0  0
  7  8  1  0  0  0  0
  7 17  1  0  0  0  0
  8 16  2  0  0  0  0
  8  9  1  0  0  0  0
  9 10  2  0  0  0  0
 10 11  1  0  0  0  0
 10 28  1  0  0  0  0
 11 12  1  0  0  0  0
 11 33  1  0  0  0  0
 12 16  1  0  0  0  0
 12 13  2  0  0  0  0
 13 14  1  0  0  0  0
 14 15  2  0  0  0  0
 14 29  1  0  0  0  0
 15 16  1  0  0  0  0
 15 30  1  0  0  0  0
 17 31  1  0  0  0  0
 17 32  1  0  0  0  0
M  END
> <s_m_source_file>
AV-unprocessed.smi

> <i_m_source_file_index>
11

> <i_lp_mmshare_version>
43012

> <i_f3d_flags>
0

> <s_epik_input>
W0NIM11bQ0gyXVtDQEBdMShbT0hdKVtDSDJdW0NIMl1OKFtDSDJdMSljKG5bY0hdbjIpYyhjMjMpW2NIXVtjSF1bbkhdMw==

> <s_epik_cmdline>
J2VwaWtfcHl0aG9uJywgJy1waCcsICc3LjAnLCAnLXRuJywgJzgnLCAnLW1hJywgJzIwMCcsICctbWV0YWxfYmluZGluZycsICctaW1hZScsICc8aW5maWxlLm1hZT4nLCAnLW9tYWUnLCAnPG91dGZpbGUubWFlPic=

> <r_lp_tautomer_probability>
1.75997e-05

> <r_epik_Ionization_Penalty>
5.31594

> <r_epik_Ionization_Penalty_Charging>
0

> <r_epik_Ionization_Penalty_Neutral>
5.31594

> <r_epik_State_Penalty>
7.79803

> <r_epik_Charging_Adjusted_Penalty>
7.79803

> <i_epik_Tot_Q>
0

> <i_epik_Tot_abs_Q>
0

> <r_epik_Metal_State_Penalty>
4.83511

> <b_epik_Metal_Only>
1

> <s_lp_Force_Field>
OPLS_2005

> <r_lp_Energy>
41.5281

> <b_lp_Chiralities_Consistent>
1

> <s_lp_Variant>
AV-unprocessed.smi:11-5

> <Gold.Version>
5.8.1

> <Gold.Id.Protein>
6NUR|6NUR_protein|mol2

> <Gold.PLP.Fitness>
36.7018

> <Gold.PLP.PLP>
-31.1925

> <Gold.PLP.part.hbond>
-2.0000

> <Gold.PLP.part.metal>
0.0000

> <Gold.PLP.part.buried>
-5.6662

> <Gold.PLP.part.nonpolar>
-23.7197

> <Gold.PLP.part.repulsive>
0.1707

> <Gold.PLP.ligand.clash>
0.0000

> <Gold.PLP.ligand.torsion>
0.2460

> <Gold.PLP.Chemscore.Hbond>
1.8960

> <Gold.PLP.Chemscore.CHOScore>
0.0000

> <Gold.PLP.Chemscore.Metal>
0.0000

> <Gold.Chemscore.Hbonds>
donor molecule, donor type, donor heavy atom, donor atom, acceptor molecule, acceptor atom, score
      L1  H    11    33       P1  8028  0.93
      P1  H  6896  6908       L1     4  1.00

> <Gold.PLP.Chemscore.Internal.Correction>
0.3132

> <Gold.Rescore>
     Score         DG    S(hbond)    S(metal)    S(lipo)     H(rot)  DE(clash)    DE(int)     intcor
     15.26     -16.42       1.99        0.00      68.04       1.43       0.03       1.13       ----

> <Gold.Chemscore.Fitness>
15.2565

> <Gold.Chemscore.DG>
-16.4171

> <Gold.Chemscore.ZeroCoef>
-5.4800

> <Gold.Chemscore.Hbond>
1.9861

> <Gold.Chemscore.Metal>
0.0000

> <Gold.Chemscore.Lipo>
68.0356

> <Gold.Chemscore.Internal_Hbond>
0.0000

> <Gold.Chemscore.DEClash>
0.0278

> <Gold.Chemscore.DEInternal>
1.1328

> <Gold.Chemscore.Rot>
1.4283

> <Gold.Chemscore.Internal.Correction>
   9.000000E+99

> <Gold.Chemscore.Hbonds>
donor molecule, donor type, donor heavy atom, donor atom, acceptor molecule, acceptor atom, score
      L1  H    11    33       P1  8028  0.91
      P1  H  6896  6908       L1     4  0.45

> <Gold.Chemscore.Hbond.Weighted>
-6.6335

> <Gold.Chemscore.Metal.Weighted>
-0.0000

> <Gold.Chemscore.Lipo.Weighted>
-7.9602

> <Gold.Chemscore.Internal_Hbond.Weighted>
0.0000

> <Gold.Chemscore.DEClash.Weighted>
0.0278

> <Gold.Chemscore.DEInternal.Weighted>
1.1328

> <Gold.Chemscore.Rot.Weighted>
3.6566

> <Gold.Chemscore.Internal.Correction.Weighted>
   9.000000E+99

> <Gold.Protein.RotatedTorsions>
[ 6907 6896 6895 6894 ] final  -88.81 input  -60.11 | X-H torsion
[ 7974 7965 7964 7962 ] final   17.90 input  175.53 | X-H torsion
[ 8008 7997 7996 7995 ] final  -65.50 input   59.86 | X-H torsion
[ 10167 10162 10161 10158 ] final  151.23 input  -65.29 | X-H torsion
[ 10718 10713 10712 10709 ] final  108.90 input   66.30 | X-H torsion
[ 10763 10752 10751 10750 ] final  -95.41 input  -60.55 | X-H torsion
[ 11005 11000 10999 10996 ] final   39.56 input  -57.11 | X-H torsion

> <Gold.Protein.ActiveResidues>
 VAL166  LYS551  ARG553  GLY616  TRP617  ASP618  TYR619  PRO620  LYS621  CYS622 
 ASP623  PHE694  ASN695  SER759  ASP760  ASP761  ALA762  ILE779  LEU786  VAL792 
 PHE793  MET794  SER795  GLU796  ALA797  LYS798  CYS799  TRP800  GLU811  SER814 

> <Gold.Protein.RotatedAtoms>
  150.6870  134.2684  159.4577 H   0  0  0  0  0  0  0  0  0  0  0  0  # atno 6907 bound_to 6896
  152.0608  134.9592  160.0584 H   0  0  0  0  0  0  0  0  0  0  0  0  # atno 6908 bound_to 6896
  152.1020  133.4220  159.4628 H   0  0  0  0  0  0  0  0  0  0  0  0  # atno 6909 bound_to 6896
  146.2203  139.8535  142.8618 H   0  0  0  0  0  0  0  0  0  0  0  0  # atno 7974 bound_to 7965
  154.4676  140.0932  156.7061 H   0  0  0  0  0  0  0  0  0  0  0  0  # atno 8008 bound_to 7997
  155.4814  140.3468  155.4322 H   0  0  0  0  0  0  0  0  0  0  0  0  # atno 8009 bound_to 7997
  156.0983  140.1415  156.9490 H   0  0  0  0  0  0  0  0  0  0  0  0  # atno 8010 bound_to 7997
  139.4842  144.5458  151.7487 H   0  0  0  0  0  0  0  0  0  0  0  0  # atno 10167 bound_to 10162
  157.6566  131.0903  150.6373 H   0  0  0  0  0  0  0  0  0  0  0  0  # atno 10718 bound_to 10713
  154.7145  135.5122  153.8717 H   0  0  0  0  0  0  0  0  0  0  0  0  # atno 10763 bound_to 10752
  153.0809  135.6631  154.0056 H   0  0  0  0  0  0  0  0  0  0  0  0  # atno 10764 bound_to 10752
  153.9891  135.3021  155.3393 H   0  0  0  0  0  0  0  0  0  0  0  0  # atno 10765 bound_to 10752
  140.2016  134.3863  155.8093 H   0  0  0  0  0  0  0  0  0  0  0  0  # atno 11005 bound_to 11000
  145.2777  141.0129  143.3735 LP  0  0  0  0  0  0  0  0  0  0  0  0  # atno 17320 bound_to 7965
  144.9174  139.4453  143.6557 LP  0  0  0  0  0  0  0  0  0  0  0  0  # atno 17321 bound_to 7965
  140.5004  144.1177  150.5970 LP  0  0  0  0  0  0  0  0  0  0  0  0  # atno 17342 bound_to 10162
  140.4069  143.2676  151.9880 LP  0  0  0  0  0  0  0  0  0  0  0  0  # atno 17343 bound_to 10162
  156.6679  130.4531  149.5666 LP  0  0  0  0  0  0  0  0  0  0  0  0  # atno 17370 bound_to 10713
  156.2019  130.6625  151.1176 LP  0  0  0  0  0  0  0  0  0  0  0  0  # atno 17371 bound_to 10713
  141.2227  133.7097  156.8268 LP  0  0  0  0  0  0  0  0  0  0  0  0  # atno 17394 bound_to 11000
  140.2048  134.8871  157.3209 LP  0  0  0  0  0  0  0  0  0  0  0  0  # atno 17395 bound_to 11000

$$$$
