AV-unprocessed.smi:2525|AV-procd|sdf|9928|dock4
  -GOLD-   2272013573D 1   1.00000     0.00000
 Structure written by MMmdl.
 44 45  0  0  0  0  0  0  0  0  1 V2000
  149.1198  140.8539  154.4271 C   0  0  0  0  0  0  0  0  0  0  0  0
  149.0337  140.0393  155.7312 C   0  0  0  0  0  0  0  0  0  0  0  0
  150.1860  140.2359  156.7596 C   0  0  0  0  0  0  0  0  0  0  0  0
  150.2401  141.7096  157.2069 C   0  0  0  0  0  0  0  0  0  0  0  0
  151.4542  142.0710  158.0769 C   0  0  0  0  0  0  0  0  0  0  0  0
  150.3113  139.1983  157.9114 C   0  0  1  0  0  0  0  0  0  0  0  0
  149.0776  138.5134  158.2807 N   0  0  0  0  0  0  0  0  0  0  0  0
  149.0244  137.3299  158.9081 C   0  0  0  0  0  0  0  0  0  0  0  0
  150.0287  136.7006  159.2446 O   0  0  0  0  0  0  0  0  0  0  0  0
  147.6184  136.7985  159.2104 C   0  0  0  0  0  0  0  0  0  0  0  0
  147.4536  136.4137  160.6021 N   0  0  0  0  0  0  0  0  0  0  0  0
  147.2132  135.1596  161.1255 C   0  0  0  0  0  0  0  0  0  0  0  0
  147.1585  135.3829  162.4716 C   0  0  0  0  0  0  0  0  0  0  0  0
  147.3618  136.7413  162.7082 N   0  0  0  0  0  0  0  0  0  0  0  0
  147.5382  137.3502  161.5777 N   0  0  0  0  0  0  0  0  0  0  0  0
  151.2155  138.3345  157.0254 C   0  0  2  0  0  0  0  0  0  0  0  0
  152.3170  137.5146  157.6844 C   0  0  0  0  0  0  0  0  0  0  0  0
  151.5574  139.6552  156.3191 C   0  0  1  0  0  0  0  0  0  0  0  0
  151.6930  139.5664  154.9084 O   0  0  0  0  0  0  0  0  0  0  0  0
  152.5018  138.4815  154.4906 C   0  0  0  0  0  0  0  0  0  0  0  0
  148.2153  140.7135  153.8349 H   0  0  0  0  0  0  0  0  0  0  0  0
  149.9563  140.5370  153.8051 H   0  0  0  0  0  0  0  0  0  0  0  0
  149.2233  141.9215  154.6073 H   0  0  0  0  0  0  0  0  0  0  0  0
  148.0757  140.2691  156.1974 H   0  0  0  0  0  0  0  0  0  0  0  0
  148.9553  138.9869  155.4580 H   0  0  0  0  0  0  0  0  0  0  0  0
  150.1879  142.3803  156.3497 H   0  0  0  0  0  0  0  0  0  0  0  0
  149.3460  141.9430  157.7861 H   0  0  0  0  0  0  0  0  0  0  0  0
  151.3804  143.1005  158.4278 H   0  0  0  0  0  0  0  0  0  0  0  0
  152.3897  141.9829  157.5253 H   0  0  0  0  0  0  0  0  0  0  0  0
  151.5193  141.4278  158.9547 H   0  0  0  0  0  0  0  0  0  0  0  0
  150.8689  139.5919  158.7655 H   0  0  0  0  0  0  0  0  0  0  0  0
  148.2089  138.9713  158.0452 H   0  0  0  0  0  0  0  0  0  0  0  0
  146.8821  137.5629  158.9572 H   0  0  0  0  0  0  0  0  0  0  0  0
  147.4079  135.9291  158.5858 H   0  0  0  0  0  0  0  0  0  0  0  0
  147.1120  134.2671  160.5262 H   0  0  0  0  0  0  0  0  0  0  0  0
  146.9923  134.6874  163.2812 H   0  0  0  0  0  0  0  0  0  0  0  0
  150.6134  137.7086  156.3642 H   0  0  0  0  0  0  0  0  0  0  0  0
  152.9827  138.1436  158.2758 H   0  0  0  0  0  0  0  0  0  0  0  0
  152.9248  136.9939  156.9452 H   0  0  0  0  0  0  0  0  0  0  0  0
  151.8973  136.7617  158.3517 H   0  0  0  0  0  0  0  0  0  0  0  0
  152.3928  140.1792  156.7903 H   0  0  0  0  0  0  0  0  0  0  0  0
  152.5984  138.4978  153.4052 H   0  0  0  0  0  0  0  0  0  0  0  0
  152.0607  137.5256  154.7711 H   0  0  0  0  0  0  0  0  0  0  0  0
  153.5033  138.5465  154.9180 H   0  0  0  0  0  0  0  0  0  0  0  0
  1  2  1  0  0  0  0
  1 21  1  0  0  0  0
  1 22  1  0  0  0  0
  1 23  1  0  0  0  0
  2  3  1  0  0  0  0
  2 24  1  0  0  0  0
  2 25  1  0  0  0  0
  3 18  1  0  0  0  0
  3  4  1  0  0  0  0
  3  6  1  0  0  0  0
  4  5  1  0  0  0  0
  4 26  1  0  0  0  0
  4 27  1  0  0  0  0
  5 28  1  0  0  0  0
  5 29  1  0  0  0  0
  5 30  1  0  0  0  0
  6  7  1  0  0  0  0
  6 16  1  0  0  0  0
  6 31  1  0  0  0  0
  7  8  1  0  0  0  0
  7 32  1  0  0  0  0
  8  9  2  0  0  0  0
  8 10  1  0  0  0  0
 10 11  1  0  0  0  0
 10 33  1  0  0  0  0
 10 34  1  0  0  0  0
 11 15  1  0  0  0  0
 11 12  1  0  0  0  0
 12 13  2  0  0  0  0
 12 35  1  0  0  0  0
 13 14  1  0  0  0  0
 13 36  1  0  0  0  0
 14 15  2  0  0  0  0
 16 17  1  0  0  0  0
 16 18  1  0  0  0  0
 16 37  1  0  0  0  0
 17 38  1  0  0  0  0
 17 39  1  0  0  0  0
 17 40  1  0  0  0  0
 18 19  1  0  0  0  0
 18 41  1  0  0  0  0
 19 20  1  0  0  0  0
 20 42  1  0  0  0  0
 20 43  1  0  0  0  0
 20 44  1  0  0  0  0
M  END
> <s_m_source_file>
AV-unprocessed.smi

> <i_m_source_file_index>
2525

> <i_lp_mmshare_version>
43012

> <i_f3d_flags>
0

> <s_epik_input>
W0NIM11PW0NAQEhdMVtDQEhdKFtDSDNdKVtDQEBIXShDMShbQ0gyXVtDSDNdKVtDSDJdW0NIM10pW05IXUMoPU8pW0NIMl1uMltjSF1bY0hdbm4y

> <s_epik_cmdline>
J2VwaWtfcHl0aG9uJywgJy1waCcsICc3LjAnLCAnLXRuJywgJzgnLCAnLW1hJywgJzIwMCcsICctbWV0YWxfYmluZGluZycsICctaW1hZScsICc8aW5maWxlLm1hZT4nLCAnLW9tYWUnLCAnPG91dGZpbGUubWFlPic=

> <r_lp_tautomer_probability>
1

> <r_epik_Ionization_Penalty>
1.18045e-06

> <r_epik_Ionization_Penalty_Charging>
0

> <r_epik_Ionization_Penalty_Neutral>
1.18045e-06

> <r_epik_State_Penalty>
-0

> <r_epik_Charging_Adjusted_Penalty>
0

> <i_epik_Tot_Q>
0

> <i_epik_Tot_abs_Q>
0

> <r_epik_Metal_State_Penalty>
-0

> <b_epik_Metal_Only>
0

> <s_lp_Force_Field>
OPLS_2005

> <r_lp_Energy>
27.7257

> <b_lp_Chiralities_Consistent>
1

> <s_lp_Variant>
AV-unprocessed.smi:2525-3

> <Gold.Version>
5.8.1

> <Gold.Id.Protein>
6NUR|6NUR_protein|mol2

> <Gold.PLP.Fitness>
44.7617

> <Gold.PLP.PLP>
-34.3554

> <Gold.PLP.part.hbond>
-4.1501

> <Gold.PLP.part.metal>
0.0000

> <Gold.PLP.part.buried>
-6.9154

> <Gold.PLP.part.nonpolar>
-24.1017

> <Gold.PLP.part.repulsive>
0.1941

> <Gold.PLP.ligand.clash>
0.0000

> <Gold.PLP.ligand.torsion>
0.6901

> <Gold.PLP.Chemscore.Hbond>
3.7280

> <Gold.PLP.Chemscore.CHOScore>
0.0000

> <Gold.PLP.Chemscore.Metal>
0.0000

> <Gold.Chemscore.Hbonds>
donor molecule, donor type, donor heavy atom, donor atom, acceptor molecule, acceptor atom, score
      P1  H  6896  6909       L1     9  0.96
      P1  H  6931  6943       L1    15  0.88
      P1  H  6934  6947       L1    15  0.78
      P1  H  7989  7998       L1    19  1.00

> <Gold.PLP.Chemscore.Internal.Correction>
0.6025

> <Gold.Rescore>
     Score         DG    S(hbond)    S(metal)    S(lipo)     H(rot)  DE(clash)    DE(int)     intcor
     17.13     -19.39       3.04        0.00      75.38       1.98       0.01       2.24       ----

> <Gold.Chemscore.Fitness>
17.1342

> <Gold.Chemscore.DG>
-19.3878

> <Gold.Chemscore.ZeroCoef>
-5.4800

> <Gold.Chemscore.Hbond>
3.0422

> <Gold.Chemscore.Metal>
0.0000

> <Gold.Chemscore.Lipo>
75.3832

> <Gold.Chemscore.Internal_Hbond>
0.0000

> <Gold.Chemscore.DEClash>
0.0088

> <Gold.Chemscore.DEInternal>
2.2448

> <Gold.Chemscore.Rot>
1.9817

> <Gold.Chemscore.Internal.Correction>
   9.000000E+99

> <Gold.Chemscore.Hbonds>
donor molecule, donor type, donor heavy atom, donor atom, acceptor molecule, acceptor atom, score
      P1  H  6896  6909       L1     9  0.91
      P1  H  6931  6943       L1    15  0.26
      P1  H  6934  6947       L1    15  0.64
      P1  H  7989  7998       L1    19  0.64

> <Gold.Chemscore.Hbond.Weighted>
-10.1610

> <Gold.Chemscore.Metal.Weighted>
-0.0000

> <Gold.Chemscore.Lipo.Weighted>
-8.8198

> <Gold.Chemscore.Internal_Hbond.Weighted>
0.0000

> <Gold.Chemscore.DEClash.Weighted>
0.0088

> <Gold.Chemscore.DEInternal.Weighted>
2.2448

> <Gold.Chemscore.Rot.Weighted>
5.0731

> <Gold.Chemscore.Internal.Correction.Weighted>
   9.000000E+99

> <Gold.Protein.RotatedTorsions>
[ 6907 6896 6895 6894 ] final   71.04 input  -60.11 | X-H torsion
[ 7974 7965 7964 7962 ] final   49.30 input  175.53 | X-H torsion
[ 8008 7997 7996 7995 ] final   68.36 input   59.86 | X-H torsion
[ 10167 10162 10161 10158 ] final   80.77 input  -65.29 | X-H torsion
[ 10718 10713 10712 10709 ] final  138.30 input   66.30 | X-H torsion
[ 10763 10752 10751 10750 ] final  116.20 input  -60.55 | X-H torsion
[ 11005 11000 10999 10996 ] final -111.01 input  -57.11 | X-H torsion

> <Gold.Protein.ActiveResidues>
 VAL166  LYS551  ARG553  GLY616  TRP617  ASP618  TYR619  PRO620  LYS621  CYS622 
 ASP623  PHE694  ASN695  SER759  ASP760  ASP761  ALA762  ILE779  LEU786  VAL792 
 PHE793  MET794  SER795  GLU796  ALA797  LYS798  CYS799  TRP800  GLU811  SER814 

> <Gold.Protein.RotatedAtoms>
  152.4786  134.4779  159.9655 H   0  0  0  0  0  0  0  0  0  0  0  0  # atno 6907 bound_to 6896
  151.4789  133.3545  159.2843 H   0  0  0  0  0  0  0  0  0  0  0  0  # atno 6908 bound_to 6896
  150.8842  134.8264  159.7308 H   0  0  0  0  0  0  0  0  0  0  0  0  # atno 6909 bound_to 6896
  146.0122  139.4556  142.9949 H   0  0  0  0  0  0  0  0  0  0  0  0  # atno 7974 bound_to 7965
  155.7070  140.3495  155.4957 H   0  0  0  0  0  0  0  0  0  0  0  0  # atno 8008 bound_to 7997
  155.9389  140.1098  157.1093 H   0  0  0  0  0  0  0  0  0  0  0  0  # atno 8009 bound_to 7997
  154.4099  140.1216  156.4888 H   0  0  0  0  0  0  0  0  0  0  0  0  # atno 8010 bound_to 7997
  139.9463  144.6056  150.8203 H   0  0  0  0  0  0  0  0  0  0  0  0  # atno 10167 bound_to 10162
  157.4268  131.1044  151.0294 H   0  0  0  0  0  0  0  0  0  0  0  0  # atno 10718 bound_to 10713
  153.5336  135.3573  155.2687 H   0  0  0  0  0  0  0  0  0  0  0  0  # atno 10763 bound_to 10752
  154.8724  135.4074  154.3123 H   0  0  0  0  0  0  0  0  0  0  0  0  # atno 10764 bound_to 10752
  153.3816  135.7068  153.6628 H   0  0  0  0  0  0  0  0  0  0  0  0  # atno 10765 bound_to 10752
  141.0759  133.9302  157.2391 H   0  0  0  0  0  0  0  0  0  0  0  0  # atno 11005 bound_to 11000
  145.7324  141.0037  143.1344 LP  0  0  0  0  0  0  0  0  0  0  0  0  # atno 17320 bound_to 7965
  144.6957  139.9000  143.7458 LP  0  0  0  0  0  0  0  0  0  0  0  0  # atno 17321 bound_to 7965
  140.7596  143.3133  151.2794 LP  0  0  0  0  0  0  0  0  0  0  0  0  # atno 17342 bound_to 10162
  139.6664  144.0098  152.2725 LP  0  0  0  0  0  0  0  0  0  0  0  0  # atno 17343 bound_to 10162
  157.1205  130.6060  149.5504 LP  0  0  0  0  0  0  0  0  0  0  0  0  # atno 17370 bound_to 10713
  155.9899  130.4948  150.7234 LP  0  0  0  0  0  0  0  0  0  0  0  0  # atno 17371 bound_to 10713
  139.9571  135.0163  156.9159 LP  0  0  0  0  0  0  0  0  0  0  0  0  # atno 17394 bound_to 11000
  140.5575  134.0567  155.7388 LP  0  0  0  0  0  0  0  0  0  0  0  0  # atno 17395 bound_to 11000

$$$$
