AV-unprocessed.smi:2902|AV-procd|sdf|11156|dock3
  -GOLD-   2272016 43D 1   1.00000     0.00000
 Structure written by MMmdl.
 47 48  0  0  0  0  0  0  0  0  1 V2000
  148.8263  133.3392  154.2460 C   0  0  0  0  0  0  0  0  0  0  0  0
  147.2986  133.3643  154.1144 C   0  0  0  0  0  0  0  0  0  0  0  0
  146.7887  134.5804  153.3186 C   0  0  1  0  0  0  0  0  0  0  0  0
  145.5046  134.2538  152.7889 O   0  0  0  0  0  0  0  0  0  0  0  0
  145.4192  133.0520  152.0278 C   0  0  0  0  0  0  0  0  0  0  0  0
  146.3729  133.0341  150.8292 C   0  0  0  0  0  0  0  0  0  0  0  0
  145.7260  132.0816  149.8164 C   0  0  0  0  0  0  0  0  0  0  0  0
  144.2408  131.9865  150.1994 C   0  0  0  0  0  0  0  0  0  0  0  0
  144.0429  132.9503  151.3729 C   0  0  0  0  0  0  0  0  0  0  0  0
  146.7033  135.8285  154.2098 C   0  0  0  0  0  0  0  0  0  0  0  0
  145.9135  135.8638  155.1535 O   0  0  0  0  0  0  0  0  0  0  0  0
  147.5288  136.8399  153.8951 N   0  0  0  0  0  0  0  0  0  0  0  0
  147.6636  138.0998  154.6279 C   0  0  2  0  0  0  0  0  0  0  0  0
  146.3595  138.8939  154.4445 C   0  0  0  0  0  0  0  0  0  0  0  0
  148.9229  138.8715  154.1453 C   0  0  1  0  0  0  0  0  0  0  0  0
  148.9012  140.3651  154.5251 C   0  0  0  0  0  0  0  0  0  0  0  0
  150.1484  138.2477  154.6328 N   0  0  0  0  0  0  0  0  0  0  0  0
  151.1857  137.7465  153.9587 C   0  0  0  0  0  0  0  0  0  0  0  0
  152.1150  137.1997  154.7296 N   0  0  0  0  0  0  0  0  0  0  0  0
  151.5471  137.4098  155.9542 C   0  0  0  0  0  0  0  0  0  0  0  0
  150.3679  138.0310  155.9528 N   0  0  0  0  0  0  0  0  0  0  0  0
  149.1516  132.4713  154.8200 H   0  0  0  0  0  0  0  0  0  0  0  0
  149.1927  134.2309  154.7550 H   0  0  0  0  0  0  0  0  0  0  0  0
  149.3063  133.2892  153.2684 H   0  0  0  0  0  0  0  0  0  0  0  0
  146.9638  132.4404  153.6403 H   0  0  0  0  0  0  0  0  0  0  0  0
  146.8634  133.3697  155.1153 H   0  0  0  0  0  0  0  0  0  0  0  0
  147.4839  134.7684  152.4980 H   0  0  0  0  0  0  0  0  0  0  0  0
  145.5747  132.1658  152.6464 H   0  0  0  0  0  0  0  0  0  0  0  0
  146.4344  134.0340  150.3971 H   0  0  0  0  0  0  0  0  0  0  0  0
  147.3851  132.7289  151.0943 H   0  0  0  0  0  0  0  0  0  0  0  0
  145.8588  132.4450  148.7967 H   0  0  0  0  0  0  0  0  0  0  0  0
  146.1877  131.0951  149.8739 H   0  0  0  0  0  0  0  0  0  0  0  0
  143.5840  132.2310  149.3639 H   0  0  0  0  0  0  0  0  0  0  0  0
  144.0067  130.9679  150.5120 H   0  0  0  0  0  0  0  0  0  0  0  0
  143.2714  132.6168  152.0676 H   0  0  0  0  0  0  0  0  0  0  0  0
  143.7439  133.9279  150.9916 H   0  0  0  0  0  0  0  0  0  0  0  0
  148.1318  136.7177  153.0946 H   0  0  0  0  0  0  0  0  0  0  0  0
  147.7690  137.8973  155.6953 H   0  0  0  0  0  0  0  0  0  0  0  0
  146.3456  139.7936  155.0589 H   0  0  0  0  0  0  0  0  0  0  0  0
  145.4947  138.2974  154.7373 H   0  0  0  0  0  0  0  0  0  0  0  0
  146.2187  139.1937  153.4056 H   0  0  0  0  0  0  0  0  0  0  0  0
  148.9566  138.8164  153.0561 H   0  0  0  0  0  0  0  0  0  0  0  0
  148.0947  140.8961  154.0204 H   0  0  0  0  0  0  0  0  0  0  0  0
  149.8322  140.8544  154.2371 H   0  0  0  0  0  0  0  0  0  0  0  0
  148.7714  140.5039  155.5988 H   0  0  0  0  0  0  0  0  0  0  0  0
  151.2562  137.7703  152.8812 H   0  0  0  0  0  0  0  0  0  0  0  0
  152.0160  137.0934  156.8743 H   0  0  0  0  0  0  0  0  0  0  0  0
  1  2  1  0  0  0  0
  1 22  1  0  0  0  0
  1 23  1  0  0  0  0
  1 24  1  0  0  0  0
  2  3  1  0  0  0  0
  2 25  1  0  0  0  0
  2 26  1  0  0  0  0
  3  4  1  0  0  0  0
  3 10  1  0  0  0  0
  3 27  1  0  0  0  0
  4  5  1  0  0  0  0
  5  9  1  0  0  0  0
  5  6  1  0  0  0  0
  5 28  1  0  0  0  0
  6  7  1  0  0  0  0
  6 29  1  0  0  0  0
  6 30  1  0  0  0  0
  7  8  1  0  0  0  0
  7 31  1  0  0  0  0
  7 32  1  0  0  0  0
  8  9  1  0  0  0  0
  8 33  1  0  0  0  0
  8 34  1  0  0  0  0
  9 35  1  0  0  0  0
  9 36  1  0  0  0  0
 10 11  2  0  0  0  0
 10 12  1  0  0  0  0
 12 13  1  0  0  0  0
 12 37  1  0  0  0  0
 13 14  1  0  0  0  0
 13 15  1  0  0  0  0
 13 38  1  0  0  0  0
 14 39  1  0  0  0  0
 14 40  1  0  0  0  0
 14 41  1  0  0  0  0
 15 16  1  0  0  0  0
 15 17  1  0  0  0  0
 15 42  1  0  0  0  0
 16 43  1  0  0  0  0
 16 44  1  0  0  0  0
 16 45  1  0  0  0  0
 17 21  1  0  0  0  0
 17 18  1  0  0  0  0
 18 19  2  0  0  0  0
 18 46  1  0  0  0  0
 19 20  1  0  0  0  0
 20 21  2  0  0  0  0
 20 47  1  0  0  0  0
M  END
> <s_m_source_file>
AV-unprocessed.smi

> <i_m_source_file_index>
2902

> <i_lp_mmshare_version>
43012

> <i_f3d_flags>
0

> <s_epik_input>
W0NIMl0xW0NIMl1bQ0gyXVtDSDJdW0NIXTFPW0NAQEhdKFtDSDJdW0NIM10pQyg9TylbTkhdW0NASF0oW0NIM10pW0NASF0oW0NIM10pbjJbY0hdbltjSF1uMg==

> <s_epik_cmdline>
J2VwaWtfcHl0aG9uJywgJy1waCcsICc3LjAnLCAnLXRuJywgJzgnLCAnLW1hJywgJzIwMCcsICctbWV0YWxfYmluZGluZycsICctaW1hZScsICc8aW5maWxlLm1hZT4nLCAnLW9tYWUnLCAnPG91dGZpbGUubWFlPic=

> <r_lp_tautomer_probability>
1

> <r_epik_Ionization_Penalty>
6.95617e-05

> <r_epik_Ionization_Penalty_Charging>
0

> <r_epik_Ionization_Penalty_Neutral>
6.95617e-05

> <r_epik_State_Penalty>
-0

> <r_epik_Charging_Adjusted_Penalty>
0

> <i_epik_Tot_Q>
0

> <i_epik_Tot_abs_Q>
0

> <r_epik_Metal_State_Penalty>
-0

> <b_epik_Metal_Only>
0

> <s_lp_Force_Field>
OPLS_2005

> <r_lp_Energy>
29.6491

> <b_lp_Chiralities_Consistent>
1

> <s_lp_Variant>
AV-unprocessed.smi:2902-6

> <Gold.Version>
5.8.1

> <Gold.Id.Protein>
6NUR|6NUR_protein|mol2

> <Gold.PLP.Fitness>
39.2148

> <Gold.PLP.PLP>
-31.7608

> <Gold.PLP.part.hbond>
-1.9519

> <Gold.PLP.part.metal>
0.0000

> <Gold.PLP.part.buried>
-1.9105

> <Gold.PLP.part.nonpolar>
-27.9899

> <Gold.PLP.part.repulsive>
0.2180

> <Gold.PLP.ligand.clash>
0.0000

> <Gold.PLP.ligand.torsion>
0.7638

> <Gold.PLP.Chemscore.Hbond>
1.9193

> <Gold.PLP.Chemscore.CHOScore>
0.9952

> <Gold.PLP.Chemscore.Metal>
0.0000

> <Gold.Chemscore.Hbonds>
donor molecule, donor type, donor heavy atom, donor atom, acceptor molecule, acceptor atom, score
      L1  H    12    37       P1  7948  1.00
      P1  H 10752 10765       L1    19  0.86
      L1  C    18    46       P1  7949  0.94

> <Gold.PLP.Chemscore.Internal.Correction>
0.2383

> <Gold.Rescore>
     Score         DG    S(hbond)    S(metal)    S(lipo)     H(rot)  DE(clash)    DE(int)     intcor
     12.56     -13.19       1.94        0.00      69.47       2.69       0.20       0.42       ----

> <Gold.Chemscore.Fitness>
12.5592

> <Gold.Chemscore.DG>
-13.1873

> <Gold.Chemscore.ZeroCoef>
-5.4800

> <Gold.Chemscore.Hbond>
1.9385

> <Gold.Chemscore.Metal>
0.0000

> <Gold.Chemscore.Lipo>
69.4708

> <Gold.Chemscore.Internal_Hbond>
0.0000

> <Gold.Chemscore.DEClash>
0.2047

> <Gold.Chemscore.DEInternal>
0.4233

> <Gold.Chemscore.Rot>
2.6935

> <Gold.Chemscore.Internal.Correction>
   9.000000E+99

> <Gold.Chemscore.Hbonds>
donor molecule, donor type, donor heavy atom, donor atom, acceptor molecule, acceptor atom, score
      L1  H    12    37       P1  7948  0.96
      P1  H 10752 10765       L1    19  0.80

> <Gold.Chemscore.Hbond.Weighted>
-6.4745

> <Gold.Chemscore.Metal.Weighted>
-0.0000

> <Gold.Chemscore.Lipo.Weighted>
-8.1281

> <Gold.Chemscore.Internal_Hbond.Weighted>
0.0000

> <Gold.Chemscore.DEClash.Weighted>
0.2047

> <Gold.Chemscore.DEInternal.Weighted>
0.4233

> <Gold.Chemscore.Rot.Weighted>
6.8954

> <Gold.Chemscore.Internal.Correction.Weighted>
   9.000000E+99

> <Gold.Protein.RotatedTorsions>
[ 6907 6896 6895 6894 ] final -132.94 input  -60.11 | X-H torsion
[ 7974 7965 7964 7962 ] final  -83.96 input  175.53 | X-H torsion
[ 8008 7997 7996 7995 ] final  -22.25 input   59.86 | X-H torsion
[ 10167 10162 10161 10158 ] final   65.11 input  -65.29 | X-H torsion
[ 10718 10713 10712 10709 ] final   39.43 input   66.30 | X-H torsion
[ 10763 10752 10751 10750 ] final  173.93 input  -60.55 | X-H torsion
[ 11005 11000 10999 10996 ] final -134.94 input  -57.11 | X-H torsion

> <Gold.Protein.ActiveResidues>
 VAL166  LYS551  ARG553  GLY616  TRP617  ASP618  TYR619  PRO620  LYS621  CYS622 
 ASP623  PHE694  ASN695  SER759  ASP760  ASP761  ALA762  ILE779  LEU786  VAL792 
 PHE793  MET794  SER795  GLU796  ALA797  LYS798  CYS799  TRP800  GLU811  SER814 

> <Gold.Protein.RotatedAtoms>
  150.9682  133.6372  159.2742 H   0  0  0  0  0  0  0  0  0  0  0  0  # atno 6907 bound_to 6896
  151.3670  135.0914  159.9463 H   0  0  0  0  0  0  0  0  0  0  0  0  # atno 6908 bound_to 6896
  152.5173  133.9244  159.7605 H   0  0  0  0  0  0  0  0  0  0  0  0  # atno 6909 bound_to 6896
  145.5130  140.9538  143.1697 H   0  0  0  0  0  0  0  0  0  0  0  0  # atno 7974 bound_to 7965
  154.4655  140.2013  156.0129 H   0  0  0  0  0  0  0  0  0  0  0  0  # atno 8008 bound_to 7997
  156.0919  140.3256  155.7799 H   0  0  0  0  0  0  0  0  0  0  0  0  # atno 8009 bound_to 7997
  155.4941  140.0548  157.2940 H   0  0  0  0  0  0  0  0  0  0  0  0  # atno 8010 bound_to 7997
  140.1148  144.4785  150.6956 H   0  0  0  0  0  0  0  0  0  0  0  0  # atno 10167 bound_to 10162
  157.3705  130.7698  149.7115 H   0  0  0  0  0  0  0  0  0  0  0  0  # atno 10718 bound_to 10713
  154.4468  135.2763  155.1809 H   0  0  0  0  0  0  0  0  0  0  0  0  # atno 10763 bound_to 10752
  154.3652  135.6120  153.5715 H   0  0  0  0  0  0  0  0  0  0  0  0  # atno 10764 bound_to 10752
  152.9844  135.5844  154.4806 H   0  0  0  0  0  0  0  0  0  0  0  0  # atno 10765 bound_to 10752
  140.8944  134.1770  157.4505 H   0  0  0  0  0  0  0  0  0  0  0  0  # atno 11005 bound_to 11000
  144.7717  139.6720  143.7192 LP  0  0  0  0  0  0  0  0  0  0  0  0  # atno 17320 bound_to 7965
  146.2154  139.5540  142.9653 LP  0  0  0  0  0  0  0  0  0  0  0  0  # atno 17321 bound_to 7965
  140.6905  143.2373  151.5144 LP  0  0  0  0  0  0  0  0  0  0  0  0  # atno 17342 bound_to 10162
  139.5600  144.2181  152.1675 LP  0  0  0  0  0  0  0  0  0  0  0  0  # atno 17343 bound_to 10162
  155.9754  130.4089  150.3848 LP  0  0  0  0  0  0  0  0  0  0  0  0  # atno 17370 bound_to 10713
  157.1938  131.0422  151.2686 LP  0  0  0  0  0  0  0  0  0  0  0  0  # atno 17371 bound_to 10713
  139.8734  134.9872  156.5358 LP  0  0  0  0  0  0  0  0  0  0  0  0  # atno 17394 bound_to 11000
  140.8307  133.8281  155.8981 LP  0  0  0  0  0  0  0  0  0  0  0  0  # atno 17395 bound_to 11000

$$$$
