AV-unprocessed.smi:1803|AV-procd|sdf|7289|dock6
  -GOLD-   22720 8543D 1   1.00000     0.00000
 Structure written by MMmdl.
 35 37  0  0  0  0  0  0  0  0  3 V2000
  151.7248  144.5925  159.6800 O   0  0  0  0  0  0  0  0  0  0  0  0
  151.9771  143.3889  159.7136 C   0  0  0  0  0  0  0  0  0  0  0  0
  152.9701  142.8535  160.4703 N   0  5  0  0  0  0  0  0  0  0  0  0
  153.5351  141.6642  160.1898 C   0  0  0  0  0  0  0  0  0  0  0  0
  153.3310  141.0246  159.0268 N   0  0  0  0  0  0  0  0  0  0  0  0
  154.0133  139.8188  158.9403 N   0  0  0  0  0  0  0  0  0  0  0  0
  154.7098  139.5736  160.0498 C   0  0  0  0  0  0  0  0  0  0  0  0
  154.5999  140.7961  161.2986 S   0  0  0  0  0  0  0  0  0  0  0  0
  151.2360  142.5490  158.9673 N   0  0  0  0  0  0  0  0  0  0  0  0
  150.1351  142.9292  158.0910 C   0  0  2  0  0  0  0  0  0  0  0  0
  148.8036  143.1770  158.8260 C   0  0  0  0  0  0  0  0  0  0  0  0
  147.7142  142.5981  157.9019 C   0  0  0  0  0  0  0  0  0  0  0  0
  148.4270  142.1589  156.6867 N   0  3  2  0  0  0  0  0  0  0  0  0
  147.7894  141.1006  155.8737 C   0  0  0  0  0  0  0  0  0  0  0  0
  148.6457  140.8383  154.6178 C   0  0  0  0  0  0  0  0  0  0  0  0
  150.1156  140.5382  154.9781 C   0  0  0  0  0  0  0  0  0  0  0  0
  150.6959  141.6282  155.8997 C   0  0  0  0  0  0  0  0  0  0  0  0
  149.7838  141.8011  157.1248 C   0  0  1  0  0  0  0  0  0  0  0  0
  155.2909  138.6674  160.1338 H   0  0  0  0  0  0  0  0  0  0  0  0
  151.4605  141.5660  159.0181 H   0  0  0  0  0  0  0  0  0  0  0  0
  150.4054  143.8195  157.5192 H   0  0  0  0  0  0  0  0  0  0  0  0
  148.7804  142.6657  159.7896 H   0  0  0  0  0  0  0  0  0  0  0  0
  148.6538  144.2403  159.0167 H   0  0  0  0  0  0  0  0  0  0  0  0
  147.2303  141.7468  158.3831 H   0  0  0  0  0  0  0  0  0  0  0  0
  146.9451  143.3304  157.6555 H   0  0  0  0  0  0  0  0  0  0  0  0
  147.6877  140.1887  156.4642 H   0  0  0  0  0  0  0  0  0  0  0  0
  146.7852  141.4141  155.5868 H   0  0  0  0  0  0  0  0  0  0  0  0
  148.2249  140.0117  154.0445 H   0  0  0  0  0  0  0  0  0  0  0  0
  148.6081  141.7134  153.9677 H   0  0  0  0  0  0  0  0  0  0  0  0
  150.1754  139.5709  155.4787 H   0  0  0  0  0  0  0  0  0  0  0  0
  150.7154  140.4545  154.0713 H   0  0  0  0  0  0  0  0  0  0  0  0
  151.7045  141.3578  156.2142 H   0  0  0  0  0  0  0  0  0  0  0  0
  150.7782  142.5699  155.3551 H   0  0  0  0  0  0  0  0  0  0  0  0
  149.7333  140.8590  157.6764 H   0  0  0  0  0  0  0  0  0  0  0  0
  148.5241  142.9753  156.1002 H   0  0  0  0  0  0  0  0  0  0  0  0
  1  2  2  0  0  0  0
  2  3  1  0  0  0  0
  2  9  1  0  0  0  0
  3  4  1  0  0  0  0
  4  8  1  0  0  0  0
  4  5  2  0  0  0  0
  5  6  1  0  0  0  0
  6  7  2  0  0  0  0
  7  8  1  0  0  0  0
  7 19  1  0  0  0  0
  9 10  1  0  0  0  0
  9 20  1  0  0  0  0
 10 18  1  0  0  0  0
 10 11  1  0  0  0  0
 10 21  1  0  0  0  0
 11 12  1  0  0  0  0
 11 22  1  0  0  0  0
 11 23  1  0  0  0  0
 12 13  1  0  0  0  0
 12 24  1  0  0  0  0
 12 25  1  0  0  0  0
 13 18  1  0  0  0  0
 13 14  1  0  0  0  0
 13 35  1  0  0  0  0
 14 15  1  0  0  0  0
 14 26  1  0  0  0  0
 14 27  1  0  0  0  0
 15 16  1  0  0  0  0
 15 28  1  0  0  0  0
 15 29  1  0  0  0  0
 16 17  1  0  0  0  0
 16 30  1  0  0  0  0
 16 31  1  0  0  0  0
 17 18  1  0  0  0  0
 17 32  1  0  0  0  0
 17 33  1  0  0  0  0
 18 34  1  0  0  0  0
M  CHG  1   3  -1
M  CHG  1  13   1
M  END
> <s_m_source_file>
AV-unprocessed.smi

> <i_m_source_file_index>
1803

> <i_lp_mmshare_version>
43012

> <i_f3d_flags>
0

> <s_epik_input>
czFbY0hdbm5jMVtOSF1DKD1PKVtOSF1bQ0BIXShbQ0gyXVtDSDJdMilbQ0BASF0oTjIzKVtDSDJdW0NIMl1bQ0gyXVtDSDJdMw==

> <s_epik_cmdline>
J2VwaWtfcHl0aG9uJywgJy1waCcsICc3LjAnLCAnLXRuJywgJzgnLCAnLW1hJywgJzIwMCcsICctbWV0YWxfYmluZGluZycsICctaW1hZScsICc8aW5maWxlLm1hZT4nLCAnLW9tYWUnLCAnPG91dGZpbGUubWFlPic=

> <r_lp_tautomer_probability>
1

> <r_epik_Ionization_Penalty>
3.78828

> <r_epik_Ionization_Penalty_Charging>
3.7591

> <r_epik_Ionization_Penalty_Neutral>
0.0291838

> <r_epik_State_Penalty>
3.757

> <r_epik_Charging_Adjusted_Penalty>
7.51609

> <i_epik_Tot_Q>
0

> <i_epik_Tot_abs_Q>
2

> <r_epik_Metal_State_Penalty>
0.558016

> <b_epik_Metal_Only>
1

> <s_lp_Force_Field>
OPLS_2005

> <r_lp_Energy>
28.5802

> <b_lp_Chiralities_Consistent>
1

> <s_lp_Variant>
AV-unprocessed.smi:1803-11

> <Gold.Version>
5.8.1

> <Gold.Id.Protein>
6NUR|6NUR_protein|mol2

> <Gold.PLP.Fitness>
36.5885

> <Gold.PLP.PLP>
-28.3472

> <Gold.PLP.part.hbond>
-2.2433

> <Gold.PLP.part.metal>
0.0000

> <Gold.PLP.part.buried>
-1.9404

> <Gold.PLP.part.nonpolar>
-23.3126

> <Gold.PLP.part.repulsive>
0.1423

> <Gold.PLP.ligand.clash>
0.0000

> <Gold.PLP.ligand.torsion>
0.3843

> <Gold.PLP.Chemscore.Hbond>
3.0000

> <Gold.PLP.Chemscore.CHOScore>
0.0000

> <Gold.PLP.Chemscore.Metal>
0.0000

> <Gold.Chemscore.Hbonds>
donor molecule, donor type, donor heavy atom, donor atom, acceptor molecule, acceptor atom, score
      L1  H    13    35       P1  8028  2.00
      P1  H  7997  8010       L1     6  1.00

> <Gold.PLP.Chemscore.Internal.Correction>
0.0099

> <Gold.Rescore>
     Score         DG    S(hbond)    S(metal)    S(lipo)     H(rot)  DE(clash)    DE(int)     intcor
     12.32     -12.86       0.96        0.00      57.55       1.00       0.07       0.47       ----

> <Gold.Chemscore.Fitness>
12.3197

> <Gold.Chemscore.DG>
-12.8555

> <Gold.Chemscore.ZeroCoef>
-5.4800

> <Gold.Chemscore.Hbond>
0.9587

> <Gold.Chemscore.Metal>
0.0000

> <Gold.Chemscore.Lipo>
57.5492

> <Gold.Chemscore.Internal_Hbond>
0.0000

> <Gold.Chemscore.DEClash>
0.0663

> <Gold.Chemscore.DEInternal>
0.4694

> <Gold.Chemscore.Rot>
1.0000

> <Gold.Chemscore.Internal.Correction>
   9.000000E+99

> <Gold.Chemscore.Hbonds>
donor molecule, donor type, donor heavy atom, donor atom, acceptor molecule, acceptor atom, score
      L1  H    13    35       P1  8028  0.96
      P1  H  7997  8010       L1     6  0.25

> <Gold.Chemscore.Hbond.Weighted>
-3.2022

> <Gold.Chemscore.Metal.Weighted>
-0.0000

> <Gold.Chemscore.Lipo.Weighted>
-6.7333

> <Gold.Chemscore.Internal_Hbond.Weighted>
0.0000

> <Gold.Chemscore.DEClash.Weighted>
0.0663

> <Gold.Chemscore.DEInternal.Weighted>
0.4694

> <Gold.Chemscore.Rot.Weighted>
2.5600

> <Gold.Chemscore.Internal.Correction.Weighted>
   9.000000E+99

> <Gold.Protein.RotatedTorsions>
[ 6907 6896 6895 6894 ] final  -51.47 input  -60.11 | X-H torsion
[ 7974 7965 7964 7962 ] final  -16.88 input  175.53 | X-H torsion
[ 8008 7997 7996 7995 ] final   15.48 input   59.86 | X-H torsion
[ 10167 10162 10161 10158 ] final   25.86 input  -65.29 | X-H torsion
[ 10718 10713 10712 10709 ] final    5.90 input   66.30 | X-H torsion
[ 10763 10752 10751 10750 ] final -129.28 input  -60.55 | X-H torsion
[ 11005 11000 10999 10996 ] final   78.30 input  -57.11 | X-H torsion

> <Gold.Protein.ActiveResidues>
 VAL166  LYS551  ARG553  GLY616  TRP617  ASP618  TYR619  PRO620  LYS621  CYS622 
 ASP623  PHE694  ASN695  SER759  ASP760  ASP761  ALA762  ILE779  LEU786  VAL792 
 PHE793  MET794  SER795  GLU796  ALA797  LYS798  CYS799  TRP800  GLU811  SER814 

> <Gold.Protein.RotatedAtoms>
  150.8608  134.7960  159.7081 H   0  0  0  0  0  0  0  0  0  0  0  0  # atno 6907 bound_to 6896
  152.4646  134.5102  159.9761 H   0  0  0  0  0  0  0  0  0  0  0  0  # atno 6908 bound_to 6896
  151.5207  133.3429  159.2936 H   0  0  0  0  0  0  0  0  0  0  0  0  # atno 6909 bound_to 6896
  146.1967  140.3699  142.8438 H   0  0  0  0  0  0  0  0  0  0  0  0  # atno 7974 bound_to 7965
  154.8632  140.2947  155.5526 H   0  0  0  0  0  0  0  0  0  0  0  0  # atno 8008 bound_to 7997
  156.3020  140.2474  156.3543 H   0  0  0  0  0  0  0  0  0  0  0  0  # atno 8009 bound_to 7997
  154.8895  140.0395  157.1819 H   0  0  0  0  0  0  0  0  0  0  0  0  # atno 8010 bound_to 7997
  140.5071  144.0220  150.6357 H   0  0  0  0  0  0  0  0  0  0  0  0  # atno 10167 bound_to 10162
  156.9143  130.5767  149.5647 H   0  0  0  0  0  0  0  0  0  0  0  0  # atno 10718 bound_to 10713
  154.8757  135.3900  154.3895 H   0  0  0  0  0  0  0  0  0  0  0  0  # atno 10763 bound_to 10752
  153.4632  135.7029  153.6043 H   0  0  0  0  0  0  0  0  0  0  0  0  # atno 10764 bound_to 10752
  153.4532  135.3829  155.2264 H   0  0  0  0  0  0  0  0  0  0  0  0  # atno 10765 bound_to 10752
  139.9218  134.7753  156.1632 H   0  0  0  0  0  0  0  0  0  0  0  0  # atno 11005 bound_to 11000
  144.8596  140.7120  143.6116 LP  0  0  0  0  0  0  0  0  0  0  0  0  # atno 17320 bound_to 7965
  145.3619  139.1679  143.4378 LP  0  0  0  0  0  0  0  0  0  0  0  0  # atno 17321 bound_to 7965
  140.3533  143.2950  152.0464 LP  0  0  0  0  0  0  0  0  0  0  0  0  # atno 17342 bound_to 10162
  139.4886  144.6358  151.6979 LP  0  0  0  0  0  0  0  0  0  0  0  0  # atno 17343 bound_to 10162
  156.0521  130.5589  150.9012 LP  0  0  0  0  0  0  0  0  0  0  0  0  # atno 17370 bound_to 10713
  157.5948  131.0943  150.9059 LP  0  0  0  0  0  0  0  0  0  0  0  0  # atno 17371 bound_to 10713
  141.0745  133.6782  156.2208 LP  0  0  0  0  0  0  0  0  0  0  0  0  # atno 17394 bound_to 11000
  140.6452  134.5125  157.5573 LP  0  0  0  0  0  0  0  0  0  0  0  0  # atno 17395 bound_to 11000

$$$$
