AV-unprocessed.smi:1213|AV-procd|sdf|5089|dock7
  -GOLD-   22720 4143D 1   1.00000     0.00000
 Structure written by MMmdl.
 36 37  0  0  0  0  0  0  0  0  3 V2000
  149.8964  137.2656  154.5220 N   0  5  0  0  0  0  0  0  0  0  0  0
  149.8504  138.5985  154.3349 C   0  0  0  0  0  0  0  0  0  0  0  0
  150.7942  139.3796  154.2320 O   0  0  0  0  0  0  0  0  0  0  0  0
  148.4157  139.1266  154.2256 C   0  0  0  0  0  0  0  0  0  0  0  0
  147.6080  138.2429  153.3480 N   0  3  2  0  0  0  0  0  0  0  0  0
  146.9039  138.9993  152.2821 C   0  0  0  0  0  0  0  0  0  0  0  0
  146.1984  138.0486  151.2992 C   0  0  0  0  0  0  0  0  0  0  0  0
  145.2272  137.0910  152.0177 C   0  0  2  0  0  0  0  0  0  0  0  0
  144.0474  137.7906  152.5259 N   0  0  0  0  0  0  0  0  0  0  0  0
  142.8986  137.2049  152.8947 C   0  0  0  0  0  0  0  0  0  0  0  0
  142.7063  135.9905  152.8312 O   0  0  0  0  0  0  0  0  0  0  0  0
  142.0076  138.1122  153.3313 N   0  0  0  0  0  0  0  0  0  0  0  0
  140.6849  137.8890  153.7964 C   0  0  0  0  0  0  0  0  0  0  0  0
  139.8487  138.8581  154.1864 N   0  0  0  0  0  0  0  0  0  0  0  0
  138.6128  138.3508  154.5955 C   0  0  0  0  0  0  0  0  0  0  0  0
  138.5254  136.9836  154.5105 C   0  0  0  0  0  0  0  0  0  0  0  0
  140.0009  136.2742  153.9112 S   0  0  0  0  0  0  0  0  0  0  0  0
  145.9616  136.3726  153.1627 C   0  0  0  0  0  0  0  0  0  0  0  0
  146.6764  137.3610  154.1018 C   0  0  0  0  0  0  0  0  0  0  0  0
  149.5412  136.6467  153.7838 H   0  0  0  0  0  0  0  0  0  0  0  0
  147.9302  139.2426  155.1970 H   0  0  0  0  0  0  0  0  0  0  0  0
  148.4813  140.1246  153.7901 H   0  0  0  0  0  0  0  0  0  0  0  0
  146.1846  139.6847  152.7331 H   0  0  0  0  0  0  0  0  0  0  0  0
  147.6198  139.6105  151.7314 H   0  0  0  0  0  0  0  0  0  0  0  0
  145.6785  138.6225  150.5316 H   0  0  0  0  0  0  0  0  0  0  0  0
  146.9522  137.4612  150.7732 H   0  0  0  0  0  0  0  0  0  0  0  0
  144.8880  136.3348  151.3073 H   0  0  0  0  0  0  0  0  0  0  0  0
  144.1168  138.7938  152.6159 H   0  0  0  0  0  0  0  0  0  0  0  0
  142.3098  139.0752  153.3333 H   0  0  0  0  0  0  0  0  0  0  0  0
  137.8495  139.0365  154.9329 H   0  0  0  0  0  0  0  0  0  0  0  0
  137.6857  136.3536  154.7636 H   0  0  0  0  0  0  0  0  0  0  0  0
  145.2655  135.7526  153.7294 H   0  0  0  0  0  0  0  0  0  0  0  0
  146.6998  135.6894  152.7407 H   0  0  0  0  0  0  0  0  0  0  0  0
  147.2210  136.7959  154.8587 H   0  0  0  0  0  0  0  0  0  0  0  0
  145.9470  137.9724  154.6350 H   0  0  0  0  0  0  0  0  0  0  0  0
  148.2713  137.6407  152.8811 H   0  0  0  0  0  0  0  0  0  0  0  0
  1  2  1  0  0  0  0
  1 20  1  0  0  0  0
  2  3  2  0  0  0  0
  2  4  1  0  0  0  0
  4  5  1  0  0  0  0
  4 21  1  0  0  0  0
  4 22  1  0  0  0  0
  5 19  1  0  0  0  0
  5  6  1  0  0  0  0
  5 36  1  0  0  0  0
  6  7  1  0  0  0  0
  6 23  1  0  0  0  0
  6 24  1  0  0  0  0
  7  8  1  0  0  0  0
  7 25  1  0  0  0  0
  7 26  1  0  0  0  0
  8  9  1  0  0  0  0
  8 18  1  0  0  0  0
  8 27  1  0  0  0  0
  9 10  1  0  0  0  0
  9 28  1  0  0  0  0
 10 11  2  0  0  0  0
 10 12  1  0  0  0  0
 12 13  1  0  0  0  0
 12 29  1  0  0  0  0
 13 17  1  0  0  0  0
 13 14  2  0  0  0  0
 14 15  1  0  0  0  0
 15 16  2  0  0  0  0
 15 30  1  0  0  0  0
 16 17  1  0  0  0  0
 16 31  1  0  0  0  0
 18 19  1  0  0  0  0
 18 32  1  0  0  0  0
 18 33  1  0  0  0  0
 19 34  1  0  0  0  0
 19 35  1  0  0  0  0
M  CHG  1   1  -1
M  CHG  1   5   1
M  END
> <s_m_source_file>
AV-unprocessed.smi

> <i_m_source_file_index>
1213

> <i_lp_mmshare_version>
43012

> <i_f3d_flags>
0

> <s_epik_input>
W05IMl1DKD1PKVtDSDJdTjFbQ0gyXVtDSDJdW0NIXShbQ0gyXVtDSDJdMSlbTkhdQyg9TylbTkhdYzJuW2NIXVtjSF1zMg==

> <s_epik_cmdline>
J2VwaWtfcHl0aG9uJywgJy1waCcsICc3LjAnLCAnLXRuJywgJzgnLCAnLW1hJywgJzIwMCcsICctbWV0YWxfYmluZGluZycsICctaW1hZScsICc8aW5maWxlLm1hZT4nLCAnLW9tYWUnLCAnPG91dGZpbGUubWFlPic=

> <r_lp_tautomer_probability>
0.999

> <r_epik_Ionization_Penalty>
5.73166

> <r_epik_Ionization_Penalty_Charging>
5.73152

> <r_epik_Ionization_Penalty_Neutral>
0.000139308

> <r_epik_State_Penalty>
6.57436

> <r_epik_Charging_Adjusted_Penalty>
12.3059

> <i_epik_Tot_Q>
0

> <i_epik_Tot_abs_Q>
2

> <r_epik_Metal_State_Penalty>
2.57084

> <b_epik_Metal_Only>
1

> <s_lp_Force_Field>
OPLS_2005

> <r_lp_Energy>
6.02298

> <b_lp_Chiralities_Consistent>
1

> <s_lp_Variant>
AV-unprocessed.smi:1213-6

> <Gold.Version>
5.8.1

> <Gold.Id.Protein>
6NUR|6NUR_protein|mol2

> <Gold.PLP.Fitness>
46.0036

> <Gold.PLP.PLP>
-30.1518

> <Gold.PLP.part.hbond>
-6.0000

> <Gold.PLP.part.metal>
0.0000

> <Gold.PLP.part.buried>
1.9410

> <Gold.PLP.part.nonpolar>
-26.7006

> <Gold.PLP.part.repulsive>
0.5805

> <Gold.PLP.ligand.clash>
0.0000

> <Gold.PLP.ligand.torsion>
1.0730

> <Gold.PLP.Chemscore.Hbond>
5.9920

> <Gold.PLP.Chemscore.CHOScore>
0.0000

> <Gold.PLP.Chemscore.Metal>
0.0000

> <Gold.Chemscore.Hbonds>
donor molecule, donor type, donor heavy atom, donor atom, acceptor molecule, acceptor atom, score
      L1  H     1    20       P1  7948  1.00
      L1  H     5    36       P1  7948  2.00
      L1  H     9    28       P1 10175  1.00
      L1  H    12    29       P1 10175  0.82
      P1  H  7989  7998       L1     3  1.00

> <Gold.PLP.Chemscore.Internal.Correction>
0.0218

> <Gold.Rescore>
     Score         DG    S(hbond)    S(metal)    S(lipo)     H(rot)  DE(clash)    DE(int)     intcor
     18.56     -22.81       4.78        0.00      56.11       2.04       1.98       2.27       ----

> <Gold.Chemscore.Fitness>
18.5597

> <Gold.Chemscore.DG>
-22.8078

> <Gold.Chemscore.ZeroCoef>
-5.4800

> <Gold.Chemscore.Hbond>
4.7823

> <Gold.Chemscore.Metal>
0.0000

> <Gold.Chemscore.Lipo>
56.1083

> <Gold.Chemscore.Internal_Hbond>
0.0000

> <Gold.Chemscore.DEClash>
1.9812

> <Gold.Chemscore.DEInternal>
2.2669

> <Gold.Chemscore.Rot>
2.0350

> <Gold.Chemscore.Internal.Correction>
   9.000000E+99

> <Gold.Chemscore.Hbonds>
donor molecule, donor type, donor heavy atom, donor atom, acceptor molecule, acceptor atom, score
      L1  H     1    20       P1  7948  0.71
      L1  H     5    36       P1  7948  1.00
      L1  H     9    28       P1 10175  0.99
      L1  H    12    29       P1 10175  0.77
      P1  H  7989  7998       L1     3  1.00

> <Gold.Chemscore.Hbond.Weighted>
-15.9727

> <Gold.Chemscore.Metal.Weighted>
-0.0000

> <Gold.Chemscore.Lipo.Weighted>
-6.5647

> <Gold.Chemscore.Internal_Hbond.Weighted>
0.0000

> <Gold.Chemscore.DEClash.Weighted>
1.9812

> <Gold.Chemscore.DEInternal.Weighted>
2.2669

> <Gold.Chemscore.Rot.Weighted>
5.2096

> <Gold.Chemscore.Internal.Correction.Weighted>
   9.000000E+99

> <Gold.Protein.RotatedTorsions>
[ 6907 6896 6895 6894 ] final   12.00 input  -60.11 | X-H torsion
[ 7974 7965 7964 7962 ] final   43.37 input  175.53 | X-H torsion
[ 8008 7997 7996 7995 ] final   53.03 input   59.86 | X-H torsion
[ 10167 10162 10161 10158 ] final  -87.54 input  -65.29 | X-H torsion
[ 10718 10713 10712 10709 ] final  132.29 input   66.30 | X-H torsion
[ 10763 10752 10751 10750 ] final  117.31 input  -60.55 | X-H torsion
[ 11005 11000 10999 10996 ] final  -40.11 input  -57.11 | X-H torsion

> <Gold.Protein.ActiveResidues>
 VAL166  LYS551  ARG553  GLY616  TRP617  ASP618  TYR619  PRO620  LYS621  CYS622 
 ASP623  PHE694  ASN695  SER759  ASP760  ASP761  ALA762  ILE779  LEU786  VAL792 
 PHE793  MET794  SER795  GLU796  ALA797  LYS798  CYS799  TRP800  GLU811  SER814 

> <Gold.Protein.RotatedAtoms>
  151.7633  135.0805  160.0348 H   0  0  0  0  0  0  0  0  0  0  0  0  # atno 6907 bound_to 6896
  152.3339  133.5984  159.5837 H   0  0  0  0  0  0  0  0  0  0  0  0  # atno 6908 bound_to 6896
  150.7438  133.9742  159.3597 H   0  0  0  0  0  0  0  0  0  0  0  0  # atno 6909 bound_to 6896
  146.0661  139.5194  142.9627 H   0  0  0  0  0  0  0  0  0  0  0  0  # atno 7974 bound_to 7965
  155.4615  140.3462  155.4313 H   0  0  0  0  0  0  0  0  0  0  0  0  # atno 8008 bound_to 7997
  156.1157  140.1473  156.9305 H   0  0  0  0  0  0  0  0  0  0  0  0  # atno 8009 bound_to 7997
  154.4788  140.0876  156.7305 H   0  0  0  0  0  0  0  0  0  0  0  0  # atno 8010 bound_to 7997
  140.3834  143.2738  151.9355 H   0  0  0  0  0  0  0  0  0  0  0  0  # atno 10167 bound_to 10162
  157.4885  131.1089  150.9588 H   0  0  0  0  0  0  0  0  0  0  0  0  # atno 10718 bound_to 10713
  153.5504  135.3541  155.2757 H   0  0  0  0  0  0  0  0  0  0  0  0  # atno 10763 bound_to 10752
  154.8707  135.4112  154.2944 H   0  0  0  0  0  0  0  0  0  0  0  0  # atno 10764 bound_to 10752
  153.3669  135.7062  153.6737 H   0  0  0  0  0  0  0  0  0  0  0  0  # atno 10765 bound_to 10752
  141.0151  133.6889  156.2277 H   0  0  0  0  0  0  0  0  0  0  0  0  # atno 11005 bound_to 11000
  145.6475  141.0271  143.1778 LP  0  0  0  0  0  0  0  0  0  0  0  0  # atno 17320 bound_to 7965
  144.7203  139.8052  143.7384 LP  0  0  0  0  0  0  0  0  0  0  0  0  # atno 17321 bound_to 7965
  139.4794  144.5796  151.7954 LP  0  0  0  0  0  0  0  0  0  0  0  0  # atno 17342 bound_to 10162
  140.4914  144.1305  150.5951 LP  0  0  0  0  0  0  0  0  0  0  0  0  # atno 17343 bound_to 10162
  157.0298  130.5706  149.5341 LP  0  0  0  0  0  0  0  0  0  0  0  0  # atno 17370 bound_to 10713
  156.0160  130.5254  150.8135 LP  0  0  0  0  0  0  0  0  0  0  0  0  # atno 17371 bound_to 10713
  140.6669  134.4909  157.5586 LP  0  0  0  0  0  0  0  0  0  0  0  0  # atno 17394 bound_to 11000
  139.9112  134.8341  156.1522 LP  0  0  0  0  0  0  0  0  0  0  0  0  # atno 17395 bound_to 11000

$$$$
