AV-unprocessed.smi:808|AV-procd|sdf|3804|dock5
  -GOLD-   22720 1243D 1   1.00000     0.00000
 Structure written by MMmdl.
 34 35  0  0  0  0  0  0  0  0  2 V2000
  150.0446  141.3935  157.8405 O   0  0  0  0  0  0  0  0  0  0  0  0
  150.2724  141.9648  156.7743 C   0  0  0  0  0  0  0  0  0  0  0  0
  149.6506  141.4376  155.4775 C   0  0  0  0  0  0  0  0  0  0  0  0
  150.0015  140.0485  155.2344 N   0  0  0  0  0  0  0  0  0  0  0  0
  149.9149  138.9823  156.1100 C   0  0  0  0  0  0  0  0  0  0  0  0
  150.3805  137.9076  155.4150 C   0  0  0  0  0  0  0  0  0  0  0  0
  150.5049  136.5049  155.9192 C   0  0  0  0  0  0  0  0  0  0  0  0
  149.7224  136.1236  156.8171 O   0  0  0  0  0  0  0  0  0  0  0  0
  151.3856  135.7694  155.4210 O   0  5  0  0  0  0  0  0  0  0  0  0
  150.7280  138.3795  154.1227 C   0  0  0  0  0  0  0  0  0  0  0  0
  150.4942  139.6811  154.0221 N   0  0  0  0  0  0  0  0  0  0  0  0
  151.0652  143.0437  156.6694 N   0  0  0  0  0  0  0  0  0  0  0  0
  151.7292  143.7208  157.7777 C   0  0  0  0  0  0  0  0  0  0  0  0
  152.4618  142.6808  158.6466 C   0  0  0  0  0  0  0  0  0  0  0  0
  153.1278  143.3360  159.8673 C   0  0  0  0  0  0  0  0  0  0  0  0
  152.1074  144.1266  160.7011 C   0  0  0  0  0  0  0  0  0  0  0  0
  151.3771  145.1694  159.8402 C   0  0  0  0  0  0  0  0  0  0  0  0
  150.7103  144.5180  158.6178 C   0  0  0  0  0  0  0  0  0  0  0  0
  148.5649  141.5236  155.5340 H   0  0  0  0  0  0  0  0  0  0  0  0
  149.9772  142.0420  154.6298 H   0  0  0  0  0  0  0  0  0  0  0  0
  149.5483  139.0810  157.1212 H   0  0  0  0  0  0  0  0  0  0  0  0
  151.1328  137.8398  153.2792 H   0  0  0  0  0  0  0  0  0  0  0  0
  151.1954  143.4436  155.7513 H   0  0  0  0  0  0  0  0  0  0  0  0
  152.4744  144.4112  157.3776 H   0  0  0  0  0  0  0  0  0  0  0  0
  151.7577  141.9195  158.9856 H   0  0  0  0  0  0  0  0  0  0  0  0
  153.2148  142.1612  158.0526 H   0  0  0  0  0  0  0  0  0  0  0  0
  153.6022  142.5731  160.4852 H   0  0  0  0  0  0  0  0  0  0  0  0
  153.9240  144.0034  159.5348 H   0  0  0  0  0  0  0  0  0  0  0  0
  151.3816  143.4400  161.1385 H   0  0  0  0  0  0  0  0  0  0  0  0
  152.6097  144.6185  161.5347 H   0  0  0  0  0  0  0  0  0  0  0  0
  150.6280  145.6879  160.4391 H   0  0  0  0  0  0  0  0  0  0  0  0
  152.0859  145.9285  159.5070 H   0  0  0  0  0  0  0  0  0  0  0  0
  150.2378  145.2881  158.0071 H   0  0  0  0  0  0  0  0  0  0  0  0
  149.9103  143.8563  158.9534 H   0  0  0  0  0  0  0  0  0  0  0  0
  1  2  2  0  0  0  0
  2  3  1  0  0  0  0
  2 12  1  0  0  0  0
  3  4  1  0  0  0  0
  3 19  1  0  0  0  0
  3 20  1  0  0  0  0
  4 11  1  0  0  0  0
  4  5  1  0  0  0  0
  5  6  2  0  0  0  0
  5 21  1  0  0  0  0
  6  7  1  0  0  0  0
  6 10  1  0  0  0  0
  7  8  2  0  0  0  0
  7  9  1  0  0  0  0
 10 11  2  0  0  0  0
 10 22  1  0  0  0  0
 12 13  1  0  0  0  0
 12 23  1  0  0  0  0
 13 18  1  0  0  0  0
 13 14  1  0  0  0  0
 13 24  1  0  0  0  0
 14 15  1  0  0  0  0
 14 25  1  0  0  0  0
 14 26  1  0  0  0  0
 15 16  1  0  0  0  0
 15 27  1  0  0  0  0
 15 28  1  0  0  0  0
 16 17  1  0  0  0  0
 16 29  1  0  0  0  0
 16 30  1  0  0  0  0
 17 18  1  0  0  0  0
 17 31  1  0  0  0  0
 17 32  1  0  0  0  0
 18 33  1  0  0  0  0
 18 34  1  0  0  0  0
M  CHG  1   9  -1
M  END
> <s_m_source_file>
AV-unprocessed.smi

> <i_m_source_file_index>
808

> <i_lp_mmshare_version>
43012

> <i_f3d_flags>
0

> <s_epik_input>
Tz1DKFtPSF0pYyhbY0hdbjEpW2NIXW4xW0NIMl1DKD1PKVtOSF1bQ0hdMltDSDJdW0NIMl1bQ0gyXVtDSDJdW0NIMl0y

> <s_epik_cmdline>
J2VwaWtfcHl0aG9uJywgJy1waCcsICc3LjAnLCAnLXRuJywgJzgnLCAnLW1hJywgJzIwMCcsICctbWV0YWxfYmluZGluZycsICctaW1hZScsICc8aW5maWxlLm1hZT4nLCAnLW9tYWUnLCAnPG91dGZpbGUubWFlPic=

> <r_epik_Ionization_Penalty>
0.00097052

> <r_epik_Ionization_Penalty_Charging>
0.000938868

> <r_epik_Ionization_Penalty_Neutral>
3.16514e-05

> <r_epik_State_Penalty>
0.000609423

> <r_epik_Charging_Adjusted_Penalty>
0.00154829

> <i_epik_Tot_Q>
-1

> <i_epik_Tot_abs_Q>
1

> <r_epik_Metal_State_Penalty>
-0

> <b_epik_Metal_Only>
0

> <s_lp_Force_Field>
OPLS_2005

> <r_lp_Energy>
12.0504

> <b_lp_Chiralities_Consistent>
1

> <s_lp_Variant>
AV-unprocessed.smi:808-1

> <Gold.Version>
5.8.1

> <Gold.Id.Protein>
6NUR|6NUR_protein|mol2

> <Gold.PLP.Fitness>
46.3310

> <Gold.PLP.PLP>
-35.8829

> <Gold.PLP.part.hbond>
-3.0000

> <Gold.PLP.part.metal>
0.0000

> <Gold.PLP.part.buried>
-5.6205

> <Gold.PLP.part.nonpolar>
-28.5358

> <Gold.PLP.part.repulsive>
0.6826

> <Gold.PLP.ligand.clash>
0.0000

> <Gold.PLP.ligand.torsion>
0.5565

> <Gold.PLP.Chemscore.Hbond>
3.0000

> <Gold.PLP.Chemscore.CHOScore>
0.8468

> <Gold.PLP.Chemscore.Metal>
0.0000

> <Gold.Chemscore.Hbonds>
donor molecule, donor type, donor heavy atom, donor atom, acceptor molecule, acceptor atom, score
      P1  H  7989  7998       L1    11  1.00
      P1  H 10752 10764       L1     9  2.00
      L1  C    10    22       P1  7949  0.90

> <Gold.PLP.Chemscore.Internal.Correction>
0.0207

> <Gold.Rescore>
     Score         DG    S(hbond)    S(metal)    S(lipo)     H(rot)  DE(clash)    DE(int)     intcor
     17.73     -18.88       1.98        0.00      92.74       1.59       0.02       1.13       ----

> <Gold.Chemscore.Fitness>
17.7272

> <Gold.Chemscore.DG>
-18.8822

> <Gold.Chemscore.ZeroCoef>
-5.4800

> <Gold.Chemscore.Hbond>
1.9828

> <Gold.Chemscore.Metal>
0.0000

> <Gold.Chemscore.Lipo>
92.7445

> <Gold.Chemscore.Internal_Hbond>
0.0000

> <Gold.Chemscore.DEClash>
0.0203

> <Gold.Chemscore.DEInternal>
1.1348

> <Gold.Chemscore.Rot>
1.5904

> <Gold.Chemscore.Internal.Correction>
   9.000000E+99

> <Gold.Chemscore.Hbonds>
donor molecule, donor type, donor heavy atom, donor atom, acceptor molecule, acceptor atom, score
      P1  H  7989  7998       L1    11  0.73
      P1  H 10752 10764       L1     9  1.00

> <Gold.Chemscore.Hbond.Weighted>
-6.6225

> <Gold.Chemscore.Metal.Weighted>
-0.0000

> <Gold.Chemscore.Lipo.Weighted>
-10.8511

> <Gold.Chemscore.Internal_Hbond.Weighted>
0.0000

> <Gold.Chemscore.DEClash.Weighted>
0.0203

> <Gold.Chemscore.DEInternal.Weighted>
1.1348

> <Gold.Chemscore.Rot.Weighted>
4.0714

> <Gold.Chemscore.Internal.Correction.Weighted>
   9.000000E+99

> <Gold.Protein.RotatedTorsions>
[ 6907 6896 6895 6894 ] final  -54.81 input  -60.11 | X-H torsion
[ 7974 7965 7964 7962 ] final  -48.39 input  175.53 | X-H torsion
[ 8008 7997 7996 7995 ] final -154.85 input   59.86 | X-H torsion
[ 10167 10162 10161 10158 ] final  146.77 input  -65.29 | X-H torsion
[ 10718 10713 10712 10709 ] final  162.35 input   66.30 | X-H torsion
[ 10763 10752 10751 10750 ] final  -49.75 input  -60.55 | X-H torsion
[ 11005 11000 10999 10996 ] final -174.74 input  -57.11 | X-H torsion

> <Gold.Protein.ActiveResidues>
 VAL166  LYS551  ARG553  GLY616  TRP617  ASP618  TYR619  PRO620  LYS621  CYS622 
 ASP623  PHE694  ASN695  SER759  ASP760  ASP761  ALA762  ILE779  LEU786  VAL792 
 PHE793  MET794  SER795  GLU796  ALA797  LYS798  CYS799  TRP800  GLU811  SER814 

> <Gold.Protein.RotatedAtoms>
  150.8305  134.7556  159.6849 H   0  0  0  0  0  0  0  0  0  0  0  0  # atno 6907 bound_to 6896
  152.4410  134.5587  159.9897 H   0  0  0  0  0  0  0  0  0  0  0  0  # atno 6908 bound_to 6896
  151.5749  133.3347  159.3032 H   0  0  0  0  0  0  0  0  0  0  0  0  # atno 6909 bound_to 6896
  145.9516  140.7566  142.9502 H   0  0  0  0  0  0  0  0  0  0  0  0  # atno 7974 bound_to 7965
  155.6928  140.0757  157.2441 H   0  0  0  0  0  0  0  0  0  0  0  0  # atno 8008 bound_to 7997
  154.4086  140.1661  156.2157 H   0  0  0  0  0  0  0  0  0  0  0  0  # atno 8009 bound_to 7997
  155.9437  140.3382  155.6352 H   0  0  0  0  0  0  0  0  0  0  0  0  # atno 8010 bound_to 7997
  139.4901  144.5805  151.6881 H   0  0  0  0  0  0  0  0  0  0  0  0  # atno 10167 bound_to 10162
  157.1237  131.0499  151.2403 H   0  0  0  0  0  0  0  0  0  0  0  0  # atno 10718 bound_to 10713
  154.0991  135.6566  153.4865 H   0  0  0  0  0  0  0  0  0  0  0  0  # atno 10763 bound_to 10752
  153.0295  135.5221  154.7304 H   0  0  0  0  0  0  0  0  0  0  0  0  # atno 10764 bound_to 10752
  154.6451  135.2993  155.0025 H   0  0  0  0  0  0  0  0  0  0  0  0  # atno 10765 bound_to 10752
  140.4711  134.6165  157.4882 H   0  0  0  0  0  0  0  0  0  0  0  0  # atno 11005 bound_to 11000
  144.6797  140.2444  143.7339 LP  0  0  0  0  0  0  0  0  0  0  0  0  # atno 17320 bound_to 7965
  145.8163  139.2024  143.1964 LP  0  0  0  0  0  0  0  0  0  0  0  0  # atno 17321 bound_to 7965
  140.5410  144.0579  150.6088 LP  0  0  0  0  0  0  0  0  0  0  0  0  # atno 17342 bound_to 10162
  140.3601  143.2913  152.0393 LP  0  0  0  0  0  0  0  0  0  0  0  0  # atno 17343 bound_to 10162
  157.4454  130.7568  149.7105 LP  0  0  0  0  0  0  0  0  0  0  0  0  # atno 17370 bound_to 10713
  155.9823  130.4011  150.3425 LP  0  0  0  0  0  0  0  0  0  0  0  0  # atno 17371 bound_to 10713
  139.9885  134.7023  155.9732 LP  0  0  0  0  0  0  0  0  0  0  0  0  # atno 17394 bound_to 11000
  141.1576  133.6541  156.4214 LP  0  0  0  0  0  0  0  0  0  0  0  0  # atno 17395 bound_to 11000

$$$$
