AV-unprocessed.smi:1005|AV-procd|sdf|4382|dock3
  -GOLD-   22720 2303D 1   1.00000     0.00000
 Structure written by MMmdl.
 58 60  0  0  0  0  0  0  0  0  4 V2000
  152.3718  143.6852  161.2327 C   0  0  0  0  0  0  0  0  0  0  0  0
  152.1321  142.8971  159.9564 C   0  0  0  0  0  0  0  0  0  0  0  0
  151.2054  143.4017  159.0161 C   0  0  0  0  0  0  0  0  0  0  0  0
  151.0097  142.6599  157.8574 C   0  0  0  0  0  0  0  0  0  0  0  0
  150.1810  142.8831  156.7557 N   0  3  0  0  0  0  0  0  0  0  0  0
  150.3352  141.8708  155.8579 C   0  0  0  0  0  0  0  0  0  0  0  0
  151.2531  141.0054  156.3692 N   0  0  0  0  0  0  0  0  0  0  0  0
  151.7883  139.7551  155.8136 C   0  0  0  0  0  0  0  0  0  0  0  0
  150.6944  138.8489  155.2141 C   0  0  2  0  0  0  0  0  0  0  0  0
  150.2160  139.4267  154.0146 O   0  0  0  0  0  0  0  0  0  0  0  0
  149.5109  138.6550  156.1828 C   0  0  0  0  0  0  0  0  0  0  0  0
  149.0636  137.2372  156.2525 N   0  3  1  0  0  0  0  0  0  0  0  0
  148.3111  136.8831  157.4831 C   0  0  0  0  0  0  0  0  0  0  0  0
  146.8473  137.3561  157.4061 C   0  0  0  0  0  0  0  0  0  0  0  0
  146.2360  136.8404  156.2300 O   0  0  0  0  0  0  0  0  0  0  0  0
  146.8738  137.2870  155.0376 C   0  0  2  0  0  0  0  0  0  0  0  0
  146.0831  136.7242  153.8416 C   0  0  0  0  0  0  0  0  0  0  0  0
  146.6001  137.2034  152.5337 N   0  3  0  0  0  0  0  0  0  0  0  0
  145.8472  136.6723  151.3739 C   0  0  0  0  0  0  0  0  0  0  0  0
  146.7051  138.6785  152.4820 C   0  0  0  0  0  0  0  0  0  0  0  0
  148.3316  136.7783  155.0458 C   0  0  0  0  0  0  0  0  0  0  0  0
  151.6977  141.4548  157.6172 C   0  0  0  0  0  0  0  0  0  0  0  0
  152.6112  140.9412  158.5344 C   0  0  0  0  0  0  0  0  0  0  0  0
  152.8258  141.6822  159.7186 C   0  0  0  0  0  0  0  0  0  0  0  0
  153.8203  141.1498  160.7363 C   0  0  0  0  0  0  0  0  0  0  0  0
  151.7772  144.5991  161.2554 H   0  0  0  0  0  0  0  0  0  0  0  0
  153.4211  143.9690  161.3166 H   0  0  0  0  0  0  0  0  0  0  0  0
  152.1023  143.0906  162.1059 H   0  0  0  0  0  0  0  0  0  0  0  0
  150.6731  144.3253  159.1910 H   0  0  0  0  0  0  0  0  0  0  0  0
  149.8241  141.7752  154.9106 H   0  0  0  0  0  0  0  0  0  0  0  0
  152.5399  140.0088  155.0648 H   0  0  0  0  0  0  0  0  0  0  0  0
  152.3141  139.2375  156.6174 H   0  0  0  0  0  0  0  0  0  0  0  0
  151.1377  137.8855  154.9656 H   0  0  0  0  0  0  0  0  0  0  0  0
  149.3631  139.8015  154.1751 H   0  0  0  0  0  0  0  0  0  0  0  0
  149.7771  139.0082  157.1791 H   0  0  0  0  0  0  0  0  0  0  0  0
  148.6867  139.2886  155.8515 H   0  0  0  0  0  0  0  0  0  0  0  0
  148.3291  135.7975  157.5887 H   0  0  0  0  0  0  0  0  0  0  0  0
  148.7946  137.2816  158.3741 H   0  0  0  0  0  0  0  0  0  0  0  0
  146.2943  136.9957  158.2736 H   0  0  0  0  0  0  0  0  0  0  0  0
  146.7760  138.4441  157.4210 H   0  0  0  0  0  0  0  0  0  0  0  0
  146.8728  138.3768  155.0054 H   0  0  0  0  0  0  0  0  0  0  0  0
  146.0897  135.6330  153.8545 H   0  0  0  0  0  0  0  0  0  0  0  0
  145.0396  137.0234  153.9526 H   0  0  0  0  0  0  0  0  0  0  0  0
  144.8057  136.9954  151.4029 H   0  0  0  0  0  0  0  0  0  0  0  0
  145.8665  135.5835  151.3470 H   0  0  0  0  0  0  0  0  0  0  0  0
  146.2843  137.0259  150.4394 H   0  0  0  0  0  0  0  0  0  0  0  0
  145.7245  139.1447  152.5848 H   0  0  0  0  0  0  0  0  0  0  0  0
  147.1409  139.0024  151.5362 H   0  0  0  0  0  0  0  0  0  0  0  0
  147.3470  139.0494  153.2818 H   0  0  0  0  0  0  0  0  0  0  0  0
  148.8583  137.0856  154.1417 H   0  0  0  0  0  0  0  0  0  0  0  0
  148.3361  135.6873  155.0424 H   0  0  0  0  0  0  0  0  0  0  0  0
  153.1387  140.0168  158.3539 H   0  0  0  0  0  0  0  0  0  0  0  0
  154.2533  140.2023  160.4140 H   0  0  0  0  0  0  0  0  0  0  0  0
  153.3340  140.9830  161.6976 H   0  0  0  0  0  0  0  0  0  0  0  0
  154.6373  141.8576  160.8789 H   0  0  0  0  0  0  0  0  0  0  0  0
  147.5466  136.8588  152.4539 H   0  0  0  0  0  0  0  0  0  0  0  0
  149.9199  136.7003  156.2741 H   0  0  0  0  0  0  0  0  0  0  0  0
  149.5559  143.6681  156.6232 H   0  0  0  0  0  0  0  0  0  0  0  0
  1  2  1  0  0  0  0
  1 26  1  0  0  0  0
  1 27  1  0  0  0  0
  1 28  1  0  0  0  0
  2 24  1  0  0  0  0
  2  3  2  0  0  0  0
  3  4  1  0  0  0  0
  3 29  1  0  0  0  0
  4 22  2  0  0  0  0
  4  5  1  0  0  0  0
  5  6  2  0  0  0  0
  5 58  1  0  0  0  0
  6  7  1  0  0  0  0
  6 30  1  0  0  0  0
  7  8  1  0  0  0  0
  7 22  1  0  0  0  0
  8  9  1  0  0  0  0
  8 31  1  0  0  0  0
  8 32  1  0  0  0  0
  9 10  1  0  0  0  0
  9 11  1  0  0  0  0
  9 33  1  0  0  0  0
 10 34  1  0  0  0  0
 11 12  1  0  0  0  0
 11 35  1  0  0  0  0
 11 36  1  0  0  0  0
 12 21  1  0  0  0  0
 12 13  1  0  0  0  0
 12 57  1  0  0  0  0
 13 14  1  0  0  0  0
 13 37  1  0  0  0  0
 13 38  1  0  0  0  0
 14 15  1  0  0  0  0
 14 39  1  0  0  0  0
 14 40  1  0  0  0  0
 15 16  1  0  0  0  0
 16 17  1  0  0  0  0
 16 21  1  0  0  0  0
 16 41  1  0  0  0  0
 17 18  1  0  0  0  0
 17 42  1  0  0  0  0
 17 43  1  0  0  0  0
 18 19  1  0  0  0  0
 18 20  1  0  0  0  0
 18 56  1  0  0  0  0
 19 44  1  0  0  0  0
 19 45  1  0  0  0  0
 19 46  1  0  0  0  0
 20 47  1  0  0  0  0
 20 48  1  0  0  0  0
 20 49  1  0  0  0  0
 21 50  1  0  0  0  0
 21 51  1  0  0  0  0
 22 23  1  0  0  0  0
 23 24  2  0  0  0  0
 23 52  1  0  0  0  0
 24 25  1  0  0  0  0
 25 53  1  0  0  0  0
 25 54  1  0  0  0  0
 25 55  1  0  0  0  0
M  CHG  1   5   1
M  CHG  1  12   1
M  CHG  1  18   1
M  END
> <s_m_source_file>
AV-unprocessed.smi

> <i_m_source_file_index>
1005

> <i_lp_mmshare_version>
43012

> <i_f3d_flags>
0

> <s_epik_input>
W0NIM11jKFtjSF0xKWMoW0NIM10pW2NIXWMoYzEyKW4oW2NIXW4yKVtDSDJdW0NASF0oW09IXSlbQ0gyXU4zW0NIMl1bQ0gyXU9bQ0BIXShbQ0gyXTMpW0NIMl1OKFtDSDNdKVtDSDNd

> <s_epik_cmdline>
J2VwaWtfcHl0aG9uJywgJy1waCcsICc3LjAnLCAnLXRuJywgJzgnLCAnLW1hJywgJzIwMCcsICctbWV0YWxfYmluZGluZycsICctaW1hZScsICc8aW5maWxlLm1hZT4nLCAnLW9tYWUnLCAnPG91dGZpbGUubWFlPic=

> <r_epik_Ionization_Penalty>
2.30802

> <r_epik_Ionization_Penalty_Charging>
2.30798

> <r_epik_Ionization_Penalty_Neutral>
3.4851e-05

> <r_epik_State_Penalty>
2.52618

> <r_epik_Charging_Adjusted_Penalty>
4.83416

> <i_epik_Tot_Q>
3

> <i_epik_Tot_abs_Q>
3

> <r_epik_Metal_State_Penalty>
6.53149

> <b_epik_Metal_Only>
0

> <s_lp_Force_Field>
OPLS_2005

> <r_lp_Energy>
46.1367

> <b_lp_Chiralities_Consistent>
1

> <s_lp_Variant>
AV-unprocessed.smi:1005-21

> <Gold.Version>
5.8.1

> <Gold.Id.Protein>
6NUR|6NUR_protein|mol2

> <Gold.PLP.Fitness>
55.5623

> <Gold.PLP.PLP>
-42.5160

> <Gold.PLP.part.hbond>
-4.0000

> <Gold.PLP.part.metal>
0.0000

> <Gold.PLP.part.buried>
-3.1619

> <Gold.PLP.part.nonpolar>
-35.3389

> <Gold.PLP.part.repulsive>
0.0850

> <Gold.PLP.ligand.clash>
0.0000

> <Gold.PLP.ligand.torsion>
1.0558

> <Gold.PLP.Chemscore.Hbond>
5.0000

> <Gold.PLP.Chemscore.CHOScore>
0.0000

> <Gold.PLP.Chemscore.Metal>
0.0000

> <Gold.Chemscore.Hbonds>
donor molecule, donor type, donor heavy atom, donor atom, acceptor molecule, acceptor atom, score
      L1  H     5    58       P1  8028  2.00
      L1  H    18    56       P1  7948  2.00
      P1  H  7989  7998       L1    10  0.89

> <Gold.PLP.Chemscore.Internal.Correction>
0.1580

> <Gold.Rescore>
     Score         DG    S(hbond)    S(metal)    S(lipo)     H(rot)  DE(clash)    DE(int)     intcor
     19.11     -20.42       2.49        0.00     112.45       2.56       0.29       1.02       ----

> <Gold.Chemscore.Fitness>
19.1087

> <Gold.Chemscore.DG>
-20.4221

> <Gold.Chemscore.ZeroCoef>
-5.4800

> <Gold.Chemscore.Hbond>
2.4941

> <Gold.Chemscore.Metal>
0.0000

> <Gold.Chemscore.Lipo>
112.4521

> <Gold.Chemscore.Internal_Hbond>
0.0000

> <Gold.Chemscore.DEClash>
0.2911

> <Gold.Chemscore.DEInternal>
1.0222

> <Gold.Chemscore.Rot>
2.5566

> <Gold.Chemscore.Internal.Correction>
   9.000000E+99

> <Gold.Chemscore.Hbonds>
donor molecule, donor type, donor heavy atom, donor atom, acceptor molecule, acceptor atom, score
      L1  H     5    58       P1  8028  0.91
      L1  H    18    56       P1  7948  0.99
      P1  H  7989  7998       L1    10  0.38

> <Gold.Chemscore.Hbond.Weighted>
-8.3301

> <Gold.Chemscore.Metal.Weighted>
-0.0000

> <Gold.Chemscore.Lipo.Weighted>
-13.1569

> <Gold.Chemscore.Internal_Hbond.Weighted>
0.0000

> <Gold.Chemscore.DEClash.Weighted>
0.2911

> <Gold.Chemscore.DEInternal.Weighted>
1.0222

> <Gold.Chemscore.Rot.Weighted>
6.5450

> <Gold.Chemscore.Internal.Correction.Weighted>
   9.000000E+99

> <Gold.Protein.RotatedTorsions>
[ 6907 6896 6895 6894 ] final -114.16 input  -60.11 | X-H torsion
[ 7974 7965 7964 7962 ] final   67.39 input  175.53 | X-H torsion
[ 8008 7997 7996 7995 ] final -118.32 input   59.86 | X-H torsion
[ 10167 10162 10161 10158 ] final -165.89 input  -65.29 | X-H torsion
[ 10718 10713 10712 10709 ] final  -60.17 input   66.30 | X-H torsion
[ 10763 10752 10751 10750 ] final  -48.49 input  -60.55 | X-H torsion
[ 11005 11000 10999 10996 ] final -159.22 input  -57.11 | X-H torsion

> <Gold.Protein.ActiveResidues>
 VAL166  LYS551  ARG553  GLY616  TRP617  ASP618  TYR619  PRO620  LYS621  CYS622 
 ASP623  PHE694  ASN695  SER759  ASP760  ASP761  ALA762  ILE779  LEU786  VAL792 
 PHE793  MET794  SER795  GLU796  ALA797  LYS798  CYS799  TRP800  GLU811  SER814 

> <Gold.Protein.RotatedAtoms>
  150.7882  133.8840  159.3293 H   0  0  0  0  0  0  0  0  0  0  0  0  # atno 6907 bound_to 6896
  151.6685  135.0977  160.0203 H   0  0  0  0  0  0  0  0  0  0  0  0  # atno 6908 bound_to 6896
  152.3950  133.6695  159.6304 H   0  0  0  0  0  0  0  0  0  0  0  0  # atno 6909 bound_to 6896
  145.8153  139.3054  143.1075 H   0  0  0  0  0  0  0  0  0  0  0  0  # atno 7974 bound_to 7965
  155.0978  140.0395  157.2688 H   0  0  0  0  0  0  0  0  0  0  0  0  # atno 8008 bound_to 7997
  154.6781  140.2627  155.6911 H   0  0  0  0  0  0  0  0  0  0  0  0  # atno 8009 bound_to 7997
  156.2684  140.2784  156.1316 H   0  0  0  0  0  0  0  0  0  0  0  0  # atno 8010 bound_to 7997
  139.6152  144.0735  152.1880 H   0  0  0  0  0  0  0  0  0  0  0  0  # atno 10167 bound_to 10162
  156.1009  130.4186  150.0817 H   0  0  0  0  0  0  0  0  0  0  0  0  # atno 10718 bound_to 10713
  154.0787  135.6594  153.4834 H   0  0  0  0  0  0  0  0  0  0  0  0  # atno 10763 bound_to 10752
  153.0364  135.5174  154.7495 H   0  0  0  0  0  0  0  0  0  0  0  0  # atno 10764 bound_to 10752
  154.6584  135.3011  154.9866 H   0  0  0  0  0  0  0  0  0  0  0  0  # atno 10765 bound_to 10752
  140.6450  134.4511  157.5234 H   0  0  0  0  0  0  0  0  0  0  0  0  # atno 11005 bound_to 11000
  145.9734  140.8742  143.0151 LP  0  0  0  0  0  0  0  0  0  0  0  0  # atno 17320 bound_to 7965
  144.6753  140.1977  143.7390 LP  0  0  0  0  0  0  0  0  0  0  0  0  # atno 17321 bound_to 7965
  140.0363  144.6042  150.7447 LP  0  0  0  0  0  0  0  0  0  0  0  0  # atno 17342 bound_to 10162
  140.7346  143.2731  151.3827 LP  0  0  0  0  0  0  0  0  0  0  0  0  # atno 17343 bound_to 10162
  156.8805  130.9555  151.3600 LP  0  0  0  0  0  0  0  0  0  0  0  0  # atno 17370 bound_to 10713
  157.6179  130.8632  149.9059 LP  0  0  0  0  0  0  0  0  0  0  0  0  # atno 17371 bound_to 10713
  139.9066  134.8435  156.1682 LP  0  0  0  0  0  0  0  0  0  0  0  0  # atno 17394 bound_to 11000
  141.0579  133.6856  156.1895 LP  0  0  0  0  0  0  0  0  0  0  0  0  # atno 17395 bound_to 11000

$$$$
