AV-unprocessed.smi:693|AV-procd|sdf|3373|dock10
  -GOLD-   22720 0353D 1   1.00000     0.00000
 Structure written by MMmdl.
 46 47  0  0  0  0  0  0  0  0  1 V2000
  150.4474  145.1104  160.0819 C   0  0  0  0  0  0  0  0  0  0  0  0
  151.5422  144.0657  160.1425 C   0  0  0  0  0  0  0  0  0  0  0  0
  152.0891  143.6761  161.3827 C   0  0  0  0  0  0  0  0  0  0  0  0
  153.1063  142.7020  161.3913 C   0  0  0  0  0  0  0  0  0  0  0  0
  153.5361  142.1580  160.1636 C   0  0  0  0  0  0  0  0  0  0  0  0
  154.6233  141.1030  160.1145 C   0  0  0  0  0  0  0  0  0  0  0  0
  154.2630  139.8645  160.9504 C   0  0  0  0  0  0  0  0  0  0  0  0
  153.2988  139.0145  160.2616 N   0  0  0  0  0  0  0  0  0  0  0  0
  153.4695  138.4861  159.0375 C   0  0  0  0  0  0  0  0  0  0  0  0
  154.4980  138.6703  158.3844 O   0  0  0  0  0  0  0  0  0  0  0  0
  152.4410  137.7150  158.6012 N   0  0  0  0  0  0  0  0  0  0  0  0
  151.2217  137.3822  159.3553 C   0  0  0  0  0  0  0  0  0  0  0  0
  150.0612  138.2243  158.7999 C   0  0  0  0  0  0  0  0  0  0  0  0
  149.8876  137.9987  157.2855 C   0  0  0  0  0  0  0  0  0  0  0  0
  151.2209  138.1521  156.5100 C   0  0  2  0  0  0  0  0  0  0  0  0
  151.1089  137.7848  155.0126 C   0  0  0  0  0  0  0  0  0  0  0  0
  150.2413  138.7518  154.2002 C   0  0  0  0  0  0  0  0  0  0  0  0
  149.3854  138.2143  153.3275 N   0  0  0  0  0  0  0  0  0  0  0  0
  150.3240  139.9660  154.3723 O   0  0  0  0  0  0  0  0  0  0  0  0
  152.3197  137.3087  157.1952 C   0  0  0  0  0  0  0  0  0  0  0  0
  152.9234  142.6165  158.9784 C   0  0  0  0  0  0  0  0  0  0  0  0
  151.9477  143.5498  158.9609 N   0  0  0  0  0  0  0  0  0  0  0  0
  149.6303  144.8415  160.7519 H   0  0  0  0  0  0  0  0  0  0  0  0
  150.0414  145.2073  159.0741 H   0  0  0  0  0  0  0  0  0  0  0  0
  150.8372  146.0814  160.3874 H   0  0  0  0  0  0  0  0  0  0  0  0
  151.7372  144.1125  162.3060 H   0  0  0  0  0  0  0  0  0  0  0  0
  153.5454  142.3783  162.3236 H   0  0  0  0  0  0  0  0  0  0  0  0
  154.7914  140.8232  159.0738 H   0  0  0  0  0  0  0  0  0  0  0  0
  155.5584  141.5365  160.4711 H   0  0  0  0  0  0  0  0  0  0  0  0
  155.1585  139.2741  161.1455 H   0  0  0  0  0  0  0  0  0  0  0  0
  153.8688  140.1609  161.9240 H   0  0  0  0  0  0  0  0  0  0  0  0
  152.4363  138.8145  160.7469 H   0  0  0  0  0  0  0  0  0  0  0  0
  151.0022  136.3205  159.2331 H   0  0  0  0  0  0  0  0  0  0  0  0
  151.3085  137.5355  160.4309 H   0  0  0  0  0  0  0  0  0  0  0  0
  149.1357  137.9784  159.3208 H   0  0  0  0  0  0  0  0  0  0  0  0
  150.2537  139.2808  158.9919 H   0  0  0  0  0  0  0  0  0  0  0  0
  149.4895  136.9966  157.1208 H   0  0  0  0  0  0  0  0  0  0  0  0
  149.1371  138.6935  156.9091 H   0  0  0  0  0  0  0  0  0  0  0  0
  151.5261  139.1983  156.5742 H   0  0  0  0  0  0  0  0  0  0  0  0
  152.1048  137.7536  154.5676 H   0  0  0  0  0  0  0  0  0  0  0  0
  150.7019  136.7785  154.9055 H   0  0  0  0  0  0  0  0  0  0  0  0
  148.7900  138.8103  152.7710 H   0  0  0  0  0  0  0  0  0  0  0  0
  149.3347  137.2107  153.2295 H   0  0  0  0  0  0  0  0  0  0  0  0
  153.2634  137.4062  156.6566 H   0  0  0  0  0  0  0  0  0  0  0  0
  152.0666  136.2484  157.1458 H   0  0  0  0  0  0  0  0  0  0  0  0
  153.2209  142.2216  158.0180 H   0  0  0  0  0  0  0  0  0  0  0  0
  1  2  1  0  0  0  0
  1 23  1  0  0  0  0
  1 24  1  0  0  0  0
  1 25  1  0  0  0  0
  2 22  1  0  0  0  0
  2  3  2  0  0  0  0
  3  4  1  0  0  0  0
  3 26  1  0  0  0  0
  4  5  2  0  0  0  0
  4 27  1  0  0  0  0
  5  6  1  0  0  0  0
  5 21  1  0  0  0  0
  6  7  1  0  0  0  0
  6 28  1  0  0  0  0
  6 29  1  0  0  0  0
  7  8  1  0  0  0  0
  7 30  1  0  0  0  0
  7 31  1  0  0  0  0
  8  9  1  0  0  0  0
  8 32  1  0  0  0  0
  9 10  2  0  0  0  0
  9 11  1  0  0  0  0
 11 20  1  0  0  0  0
 11 12  1  0  0  0  0
 12 13  1  0  0  0  0
 12 33  1  0  0  0  0
 12 34  1  0  0  0  0
 13 14  1  0  0  0  0
 13 35  1  0  0  0  0
 13 36  1  0  0  0  0
 14 15  1  0  0  0  0
 14 37  1  0  0  0  0
 14 38  1  0  0  0  0
 15 16  1  0  0  0  0
 15 20  1  0  0  0  0
 15 39  1  0  0  0  0
 16 17  1  0  0  0  0
 16 40  1  0  0  0  0
 16 41  1  0  0  0  0
 17 18  1  0  0  0  0
 17 19  2  0  0  0  0
 18 42  1  0  0  0  0
 18 43  1  0  0  0  0
 20 44  1  0  0  0  0
 20 45  1  0  0  0  0
 21 22  2  0  0  0  0
 21 46  1  0  0  0  0
M  END
> <s_m_source_file>
AV-unprocessed.smi

> <i_m_source_file_index>
693

> <i_lp_mmshare_version>
43012

> <i_f3d_flags>
0

> <s_epik_input>
W0NIM11jMVtjSF1bY0hdYyhbY0hdbjEpW0NIMl1bQ0gyXVtOSF1DKD1PKU4yW0NIMl1bQ0gyXVtDSDJdW0NASF0oW0NIMl0yKVtDSDJdQyg9TylbTkgyXQ==

> <s_epik_cmdline>
J2VwaWtfcHl0aG9uJywgJy1waCcsICc3LjAnLCAnLXRuJywgJzgnLCAnLW1hJywgJzIwMCcsICctbWV0YWxfYmluZGluZycsICctaW1hZScsICc8aW5maWxlLm1hZT4nLCAnLW9tYWUnLCAnPG91dGZpbGUubWFlPic=

> <r_epik_Ionization_Penalty>
0.056948

> <r_epik_Ionization_Penalty_Charging>
0

> <r_epik_Ionization_Penalty_Neutral>
0.056948

> <r_epik_State_Penalty>
0.0490937

> <r_epik_Charging_Adjusted_Penalty>
0.0490937

> <i_epik_Tot_Q>
0

> <i_epik_Tot_abs_Q>
0

> <r_epik_Metal_State_Penalty>
0.0447689

> <b_epik_Metal_Only>
0

> <s_lp_Force_Field>
OPLS_2005

> <r_lp_Energy>
26.3335

> <b_lp_Chiralities_Consistent>
1

> <s_lp_Variant>
AV-unprocessed.smi:693-2

> <Gold.Version>
5.8.1

> <Gold.Id.Protein>
6NUR|6NUR_protein|mol2

> <Gold.PLP.Fitness>
52.2942

> <Gold.PLP.PLP>
-43.2512

> <Gold.PLP.part.hbond>
-4.0000

> <Gold.PLP.part.metal>
0.0000

> <Gold.PLP.part.buried>
-7.1914

> <Gold.PLP.part.nonpolar>
-32.3255

> <Gold.PLP.part.repulsive>
0.2920

> <Gold.PLP.ligand.clash>
0.0000

> <Gold.PLP.ligand.torsion>
0.4073

> <Gold.PLP.Chemscore.Hbond>
3.2640

> <Gold.PLP.Chemscore.CHOScore>
0.0000

> <Gold.PLP.Chemscore.Metal>
0.0000

> <Gold.Chemscore.Hbonds>
donor molecule, donor type, donor heavy atom, donor atom, acceptor molecule, acceptor atom, score
      L1  H    18    42       P1  7957  0.27
      L1  H    18    43       P1  7948  0.61
      P1  H  7989  7998       L1    19  1.00
      P1  H  7997  8009       L1    10  1.00

> <Gold.PLP.Chemscore.Internal.Correction>
0.0657

> <Gold.Rescore>
     Score         DG    S(hbond)    S(metal)    S(lipo)     H(rot)  DE(clash)    DE(int)     intcor
     21.65     -22.78       3.05        0.00     110.00       2.25       0.10       1.03       ----

> <Gold.Chemscore.Fitness>
21.6509

> <Gold.Chemscore.DG>
-22.7802

> <Gold.Chemscore.ZeroCoef>
-5.4800

> <Gold.Chemscore.Hbond>
3.0517

> <Gold.Chemscore.Metal>
0.0000

> <Gold.Chemscore.Lipo>
110.0044

> <Gold.Chemscore.Internal_Hbond>
0.0000

> <Gold.Chemscore.DEClash>
0.0962

> <Gold.Chemscore.DEInternal>
1.0331

> <Gold.Chemscore.Rot>
2.2512

> <Gold.Chemscore.Internal.Correction>
   9.000000E+99

> <Gold.Chemscore.Hbonds>
donor molecule, donor type, donor heavy atom, donor atom, acceptor molecule, acceptor atom, score
      L1  H    18    42       P1  7957  0.27
      L1  H    18    43       P1  7948  0.57
      P1  H  7989  7998       L1    19  0.95
      P1  H  7997  8009       L1    10  1.00

> <Gold.Chemscore.Hbond.Weighted>
-10.1928

> <Gold.Chemscore.Metal.Weighted>
-0.0000

> <Gold.Chemscore.Lipo.Weighted>
-12.8705

> <Gold.Chemscore.Internal_Hbond.Weighted>
0.0000

> <Gold.Chemscore.DEClash.Weighted>
0.0962

> <Gold.Chemscore.DEInternal.Weighted>
1.0331

> <Gold.Chemscore.Rot.Weighted>
5.7631

> <Gold.Chemscore.Internal.Correction.Weighted>
   9.000000E+99

> <Gold.Protein.RotatedTorsions>
[ 6907 6896 6895 6894 ] final   76.68 input  -60.11 | X-H torsion
[ 7974 7965 7964 7962 ] final -161.52 input  175.53 | X-H torsion
[ 8008 7997 7996 7995 ] final  132.49 input   59.86 | X-H torsion
[ 10167 10162 10161 10158 ] final   -6.48 input  -65.29 | X-H torsion
[ 10718 10713 10712 10709 ] final  -67.06 input   66.30 | X-H torsion
[ 10763 10752 10751 10750 ] final  158.44 input  -60.55 | X-H torsion
[ 11005 11000 10999 10996 ] final  -95.99 input  -57.11 | X-H torsion

> <Gold.Protein.ActiveResidues>
 VAL166  LYS551  ARG553  GLY616  TRP617  ASP618  TYR619  PRO620  LYS621  CYS622 
 ASP623  PHE694  ASN695  SER759  ASP760  ASP761  ALA762  ILE779  LEU786  VAL792 
 PHE793  MET794  SER795  GLU796  ALA797  LYS798  CYS799  TRP800  GLU811  SER814 

> <Gold.Protein.RotatedAtoms>
  152.5084  134.3932  159.9390 H   0  0  0  0  0  0  0  0  0  0  0  0  # atno 6907 bound_to 6896
  151.3893  133.3788  159.2727 H   0  0  0  0  0  0  0  0  0  0  0  0  # atno 6908 bound_to 6896
  150.9445  134.8871  159.7692 H   0  0  0  0  0  0  0  0  0  0  0  0  # atno 6909 bound_to 6896
  144.7388  140.3386  143.6139 H   0  0  0  0  0  0  0  0  0  0  0  0  # atno 7974 bound_to 7965
  156.2983  140.2545  156.3097 H   0  0  0  0  0  0  0  0  0  0  0  0  # atno 8008 bound_to 7997
  154.9338  140.0398  157.2080 H   0  0  0  0  0  0  0  0  0  0  0  0  # atno 8009 bound_to 7997
  154.8192  140.2857  155.5803 H   0  0  0  0  0  0  0  0  0  0  0  0  # atno 8010 bound_to 7997
  140.6998  143.6189  150.8631 H   0  0  0  0  0  0  0  0  0  0  0  0  # atno 10167 bound_to 10162
  156.0578  130.4272  150.1799 H   0  0  0  0  0  0  0  0  0  0  0  0  # atno 10718 bound_to 10713
  154.2161  135.2784  155.2941 H   0  0  0  0  0  0  0  0  0  0  0  0  # atno 10763 bound_to 10752
  154.5740  135.5610  153.7125 H   0  0  0  0  0  0  0  0  0  0  0  0  # atno 10764 bound_to 10752
  153.0053  135.6328  154.2300 H   0  0  0  0  0  0  0  0  0  0  0  0  # atno 10765 bound_to 10752
  141.1425  133.8066  157.0511 H   0  0  0  0  0  0  0  0  0  0  0  0  # atno 11005 bound_to 11000
  145.7398  139.1761  143.2382 LP  0  0  0  0  0  0  0  0  0  0  0  0  # atno 17320 bound_to 7965
  146.1143  140.7390  142.9488 LP  0  0  0  0  0  0  0  0  0  0  0  0  # atno 17321 bound_to 7965
  139.9910  143.5846  152.2910 LP  0  0  0  0  0  0  0  0  0  0  0  0  # atno 17342 bound_to 10162
  139.6502  144.7660  151.2164 LP  0  0  0  0  0  0  0  0  0  0  0  0  # atno 17343 bound_to 10162
  156.9873  130.9882  151.3423 LP  0  0  0  0  0  0  0  0  0  0  0  0  # atno 17370 bound_to 10713
  157.5562  130.8215  149.8208 LP  0  0  0  0  0  0  0  0  0  0  0  0  # atno 17371 bound_to 10713
  140.0631  134.9744  157.1340 LP  0  0  0  0  0  0  0  0  0  0  0  0  # atno 17394 bound_to 11000
  140.3819  134.2278  155.7170 LP  0  0  0  0  0  0  0  0  0  0  0  0  # atno 17395 bound_to 11000

$$$$
