AV-unprocessed.smi:1022|AV-procd|sdf|4460|dock3
  -GOLD-   22720 2433D 1   1.00000     0.00000
 Structure written by MMmdl.
 32 33  0  0  0  0  0  0  0  0  2 V2000
  145.7177  138.1410  156.0900 C   0  0  0  0  0  0  0  0  0  0  0  0
  146.4600  138.4019  154.9119 O   0  0  0  0  0  0  0  0  0  0  0  0
  146.2423  139.7119  154.4131 C   0  0  0  0  0  0  0  0  0  0  0  0
  147.1057  139.9379  153.1584 C   0  0  2  0  0  0  0  0  0  0  0  0
  146.8018  138.9089  152.0593 C   0  0  0  0  0  0  0  0  0  0  0  0
  148.5244  139.8650  153.5000 N   0  0  0  0  0  0  0  0  0  0  0  0
  149.1484  140.5795  154.4481 C   0  0  0  0  0  0  0  0  0  0  0  0
  148.5164  141.4000  155.1176 O   0  0  0  0  0  0  0  0  0  0  0  0
  150.4649  140.2930  154.5673 N   0  5  0  0  0  0  0  0  0  0  0  0
  151.0739  140.4193  155.7579 C   0  0  0  0  0  0  0  0  0  0  0  0
  152.0455  139.5885  156.1612 N   0  0  0  0  0  0  0  0  0  0  0  0
  152.5348  139.8948  157.4228 N   0  0  0  0  0  0  0  0  0  0  0  0
  151.9189  140.9511  157.9593 C   0  0  0  0  0  0  0  0  0  0  0  0
  152.2675  141.4790  159.3110 C   0  0  0  0  0  0  0  0  0  0  0  0
  152.7006  142.9147  159.5127 C   0  0  0  0  0  0  0  0  0  0  0  0
  153.7005  141.7981  159.6705 C   0  0  0  0  0  0  0  0  0  0  0  0
  150.6692  141.6568  156.9472 S   0  0  0  0  0  0  0  0  0  0  0  0
  145.9205  137.1268  156.4336 H   0  0  0  0  0  0  0  0  0  0  0  0
  144.6457  138.2268  155.9079 H   0  0  0  0  0  0  0  0  0  0  0  0
  145.9936  138.8290  156.8902 H   0  0  0  0  0  0  0  0  0  0  0  0
  145.1848  139.8296  154.1701 H   0  0  0  0  0  0  0  0  0  0  0  0
  146.4836  140.4527  155.1775 H   0  0  0  0  0  0  0  0  0  0  0  0
  146.8928  140.9305  152.7576 H   0  0  0  0  0  0  0  0  0  0  0  0
  145.7589  138.9632  151.7462 H   0  0  0  0  0  0  0  0  0  0  0  0
  146.9928  137.8917  152.4034 H   0  0  0  0  0  0  0  0  0  0  0  0
  147.4177  139.0841  151.1769 H   0  0  0  0  0  0  0  0  0  0  0  0
  149.0841  139.2077  152.9769 H   0  0  0  0  0  0  0  0  0  0  0  0
  151.6383  141.0256  160.0743 H   0  0  0  0  0  0  0  0  0  0  0  0
  152.8014  143.5510  158.6359 H   0  0  0  0  0  0  0  0  0  0  0  0
  152.3629  143.4178  160.4165 H   0  0  0  0  0  0  0  0  0  0  0  0
  154.0307  141.5561  160.6785 H   0  0  0  0  0  0  0  0  0  0  0  0
  154.4534  141.6854  158.8927 H   0  0  0  0  0  0  0  0  0  0  0  0
  1  2  1  0  0  0  0
  1 18  1  0  0  0  0
  1 19  1  0  0  0  0
  1 20  1  0  0  0  0
  2  3  1  0  0  0  0
  3  4  1  0  0  0  0
  3 21  1  0  0  0  0
  3 22  1  0  0  0  0
  4  5  1  0  0  0  0
  4  6  1  0  0  0  0
  4 23  1  0  0  0  0
  5 24  1  0  0  0  0
  5 25  1  0  0  0  0
  5 26  1  0  0  0  0
  6  7  1  0  0  0  0
  6 27  1  0  0  0  0
  7  8  2  0  0  0  0
  7  9  1  0  0  0  0
  9 10  1  0  0  0  0
 10 17  1  0  0  0  0
 10 11  2  0  0  0  0
 11 12  1  0  0  0  0
 12 13  2  0  0  0  0
 13 14  1  0  0  0  0
 13 17  1  0  0  0  0
 14 16  1  0  0  0  0
 14 15  1  0  0  0  0
 14 28  1  0  0  0  0
 15 16  1  0  0  0  0
 15 29  1  0  0  0  0
 15 30  1  0  0  0  0
 16 31  1  0  0  0  0
 16 32  1  0  0  0  0
M  CHG  1   9  -1
M  END
> <s_m_source_file>
AV-unprocessed.smi

> <i_m_source_file_index>
1022

> <i_lp_mmshare_version>
43012

> <i_f3d_flags>
0

> <s_epik_input>
W0NIM11PW0NIMl1bQ0BIXShbQ0gzXSlbTkhdQyg9TylbTkhdYzFubmMoczEpW0NIXTJbQ0gyXVtDSDJdMg==

> <s_epik_cmdline>
J2VwaWtfcHl0aG9uJywgJy1waCcsICc3LjAnLCAnLXRuJywgJzgnLCAnLW1hJywgJzIwMCcsICctbWV0YWxfYmluZGluZycsICctaW1hZScsICc8aW5maWxlLm1hZT4nLCAnLW9tYWUnLCAnPG91dGZpbGUubWFlPic=

> <r_lp_tautomer_probability>
1

> <r_epik_Ionization_Penalty>
3.79487

> <r_epik_Ionization_Penalty_Charging>
3.64217

> <r_epik_Ionization_Penalty_Neutral>
0.152695

> <r_epik_State_Penalty>
3.6409

> <r_epik_Charging_Adjusted_Penalty>
7.28307

> <i_epik_Tot_Q>
-1

> <i_epik_Tot_abs_Q>
1

> <r_epik_Metal_State_Penalty>
0.534129

> <b_epik_Metal_Only>
1

> <s_lp_Force_Field>
OPLS_2005

> <r_lp_Energy>
-0.766609

> <b_lp_Chiralities_Consistent>
1

> <s_lp_Variant>
AV-unprocessed.smi:1022-3

> <Gold.Version>
5.8.1

> <Gold.Id.Protein>
6NUR|6NUR_protein|mol2

> <Gold.PLP.Fitness>
37.4076

> <Gold.PLP.PLP>
-31.3298

> <Gold.PLP.part.hbond>
-3.1165

> <Gold.PLP.part.metal>
0.0000

> <Gold.PLP.part.buried>
-2.9880

> <Gold.PLP.part.nonpolar>
-25.4567

> <Gold.PLP.part.repulsive>
0.3984

> <Gold.PLP.ligand.clash>
0.0000

> <Gold.PLP.ligand.torsion>
0.5322

> <Gold.PLP.Chemscore.Hbond>
2.3208

> <Gold.PLP.Chemscore.CHOScore>
0.0000

> <Gold.PLP.Chemscore.Metal>
0.0000

> <Gold.Chemscore.Hbonds>
donor molecule, donor type, donor heavy atom, donor atom, acceptor molecule, acceptor atom, score
      L1  H     6    27       P1  7957  0.19
      P1  H  7989  7998       L1     9  1.00
      P1  H  7997  8010       L1    12  0.86

> <Gold.PLP.Chemscore.Internal.Correction>
0.1797

> <Gold.Rescore>
     Score         DG    S(hbond)    S(metal)    S(lipo)     H(rot)  DE(clash)    DE(int)     intcor
      9.60     -13.16       1.29        0.00      65.79       1.69       0.52       3.04       ----

> <Gold.Chemscore.Fitness>
9.6015

> <Gold.Chemscore.DG>
-13.1625

> <Gold.Chemscore.ZeroCoef>
-5.4800

> <Gold.Chemscore.Hbond>
1.2923

> <Gold.Chemscore.Metal>
0.0000

> <Gold.Chemscore.Lipo>
65.7929

> <Gold.Chemscore.Internal_Hbond>
0.0000

> <Gold.Chemscore.DEClash>
0.5201

> <Gold.Chemscore.DEInternal>
3.0409

> <Gold.Chemscore.Rot>
1.6921

> <Gold.Chemscore.Internal.Correction>
   9.000000E+99

> <Gold.Chemscore.Hbonds>
donor molecule, donor type, donor heavy atom, donor atom, acceptor molecule, acceptor atom, score
      L1  H     6    27       P1  7957  0.18
      P1  H  7989  7998       L1     9  0.39
      P1  H  7997  8010       L1    12  0.15

> <Gold.Chemscore.Hbond.Weighted>
-4.3164

> <Gold.Chemscore.Metal.Weighted>
-0.0000

> <Gold.Chemscore.Lipo.Weighted>
-7.6978

> <Gold.Chemscore.Internal_Hbond.Weighted>
0.0000

> <Gold.Chemscore.DEClash.Weighted>
0.5201

> <Gold.Chemscore.DEInternal.Weighted>
3.0409

> <Gold.Chemscore.Rot.Weighted>
4.3317

> <Gold.Chemscore.Internal.Correction.Weighted>
   9.000000E+99

> <Gold.Protein.RotatedTorsions>
[ 6907 6896 6895 6894 ] final -133.28 input  -60.11 | X-H torsion
[ 7974 7965 7964 7962 ] final   99.26 input  175.53 | X-H torsion
[ 8008 7997 7996 7995 ] final   41.03 input   59.86 | X-H torsion
[ 10167 10162 10161 10158 ] final  133.45 input  -65.29 | X-H torsion
[ 10718 10713 10712 10709 ] final -103.34 input   66.30 | X-H torsion
[ 10763 10752 10751 10750 ] final   98.65 input  -60.55 | X-H torsion
[ 11005 11000 10999 10996 ] final   -1.61 input  -57.11 | X-H torsion

> <Gold.Protein.ActiveResidues>
 VAL166  LYS551  ARG553  GLY616  TRP617  ASP618  TYR619  PRO620  LYS621  CYS622 
 ASP623  PHE694  ASN695  SER759  ASP760  ASP761  ALA762  ILE779  LEU786  VAL792 
 PHE793  MET794  SER795  GLU796  ALA797  LYS798  CYS799  TRP800  GLU811  SER814 

> <Gold.Protein.RotatedAtoms>
  150.9721  133.6333  159.2736 H   0  0  0  0  0  0  0  0  0  0  0  0  # atno 6907 bound_to 6896
  151.3618  135.0904  159.9446 H   0  0  0  0  0  0  0  0  0  0  0  0  # atno 6908 bound_to 6896
  152.5186  133.9293  159.7627 H   0  0  0  0  0  0  0  0  0  0  0  0  # atno 6909 bound_to 6896
  145.4012  139.2347  143.3299 H   0  0  0  0  0  0  0  0  0  0  0  0  # atno 7974 bound_to 7965
  155.2629  140.3360  155.4271 H   0  0  0  0  0  0  0  0  0  0  0  0  # atno 8008 bound_to 7997
  156.2167  140.1792  156.7615 H   0  0  0  0  0  0  0  0  0  0  0  0  # atno 8009 bound_to 7997
  154.5764  140.0661  156.9024 H   0  0  0  0  0  0  0  0  0  0  0  0  # atno 8010 bound_to 7997
  139.5296  144.6615  151.4998 H   0  0  0  0  0  0  0  0  0  0  0  0  # atno 10167 bound_to 10162
  156.0261  130.5462  150.7238 H   0  0  0  0  0  0  0  0  0  0  0  0  # atno 10718 bound_to 10713
  153.2917  135.4141  155.1173 H   0  0  0  0  0  0  0  0  0  0  0  0  # atno 10763 bound_to 10752
  154.8522  135.3520  154.5972 H   0  0  0  0  0  0  0  0  0  0  0  0  # atno 10764 bound_to 10752
  153.6395  135.7057  153.5305 H   0  0  0  0  0  0  0  0  0  0  0  0  # atno 10765 bound_to 10752
  140.6492  133.9420  155.8370 H   0  0  0  0  0  0  0  0  0  0  0  0  # atno 11005 bound_to 11000
  146.2751  140.4709  142.8799 LP  0  0  0  0  0  0  0  0  0  0  0  0  # atno 17320 bound_to 7965
  144.8373  140.6802  143.6252 LP  0  0  0  0  0  0  0  0  0  0  0  0  # atno 17321 bound_to 7965
  140.6465  143.8783  150.6743 LP  0  0  0  0  0  0  0  0  0  0  0  0  # atno 17342 bound_to 10162
  140.2134  143.3865  152.1700 LP  0  0  0  0  0  0  0  0  0  0  0  0  # atno 17343 bound_to 10162
  157.4847  131.0905  151.0496 LP  0  0  0  0  0  0  0  0  0  0  0  0  # atno 17370 bound_to 10713
  157.0919  130.5946  149.5441 LP  0  0  0  0  0  0  0  0  0  0  0  0  # atno 17371 bound_to 10713
  141.0549  134.0430  157.3735 LP  0  0  0  0  0  0  0  0  0  0  0  0  # atno 17394 bound_to 11000
  139.9052  135.0177  156.7453 LP  0  0  0  0  0  0  0  0  0  0  0  0  # atno 17395 bound_to 11000

$$$$
