AV-unprocessed.smi:72|AV-procd|sdf|703|dock5
  -GOLD-   2262017 23D 1   1.00000     0.00000
 Structure written by MMmdl.
 30 31  0  0  0  0  0  0  0  0  2 V2000
  146.0565  138.3163  151.5976 N   0  0  0  0  0  0  0  0  0  0  0  0
  146.8370  139.1245  152.3981 C   0  0  0  0  0  0  0  0  0  0  0  0
  148.0508  138.6224  152.8300 N   0  3  0  0  0  0  0  0  0  0  0  0
  148.9100  139.2708  153.6273 C   0  0  0  0  0  0  0  0  0  0  0  0
  148.5872  140.4613  154.0889 N   0  0  0  0  0  0  0  0  0  0  0  0
  149.5634  141.2138  154.9595 C   0  0  2  0  0  0  0  0  0  0  0  0
  150.7328  140.4612  154.9957 O   0  0  0  0  0  0  0  0  0  0  0  0
  151.2871  140.5242  156.3023 C   0  0  2  0  0  0  0  0  0  0  0  0
  152.1997  139.3119  156.5452 C   0  0  0  0  0  0  0  0  0  0  0  0
  153.2457  139.2989  155.5979 O   0  0  0  0  0  0  0  0  0  0  0  0
  150.0462  140.5497  157.2021 C   0  0  1  0  0  0  0  0  0  0  0  0
  150.3500  141.1541  158.4430 O   0  0  0  0  0  0  0  0  0  0  0  0
  149.0677  141.4076  156.4084 C   0  0  2  0  0  0  0  0  0  0  0  0
  147.7251  141.0149  156.6324 O   0  0  0  0  0  0  0  0  0  0  0  0
  147.4042  141.0956  153.6267 C   0  0  0  0  0  0  0  0  0  0  0  0
  147.1321  142.2479  153.9597 O   0  0  0  0  0  0  0  0  0  0  0  0
  146.5665  140.3369  152.7956 N   0  0  0  0  0  0  0  0  0  0  0  0
  149.7613  142.1766  154.4892 H   0  0  0  0  0  0  0  0  0  0  0  0
  151.8382  141.4617  156.4075 H   0  0  0  0  0  0  0  0  0  0  0  0
  149.6588  139.5401  157.3491 H   0  0  0  0  0  0  0  0  0  0  0  0
  149.1851  142.4631  156.6594 H   0  0  0  0  0  0  0  0  0  0  0  0
  145.1607  138.6035  151.2282 H   0  0  0  0  0  0  0  0  0  0  0  0
  146.3127  137.3798  151.3198 H   0  0  0  0  0  0  0  0  0  0  0  0
  149.8642  138.8184  153.8663 H   0  0  0  0  0  0  0  0  0  0  0  0
  152.6560  139.3773  157.5333 H   0  0  0  0  0  0  0  0  0  0  0  0
  151.6391  138.3775  156.5078 H   0  0  0  0  0  0  0  0  0  0  0  0
  153.0031  138.7236  154.8882 H   0  0  0  0  0  0  0  0  0  0  0  0
  150.9151  140.5749  158.9311 H   0  0  0  0  0  0  0  0  0  0  0  0
  147.2390  141.1298  155.8296 H   0  0  0  0  0  0  0  0  0  0  0  0
  148.3087  137.6988  152.5129 H   0  0  0  0  0  0  0  0  0  0  0  0
  1  2  1  0  0  0  0
  1 22  1  0  0  0  0
  1 23  1  0  0  0  0
  2 17  2  0  0  0  0
  2  3  1  0  0  0  0
  3  4  2  0  0  0  0
  3 30  1  0  0  0  0
  4  5  1  0  0  0  0
  4 24  1  0  0  0  0
  5  6  1  0  0  0  0
  5 15  1  0  0  0  0
  6 18  1  0  0  0  0
  6 13  1  0  0  0  0
  6  7  1  0  0  0  0
  7  8  1  0  0  0  0
  8 19  1  0  0  0  0
  8  9  1  0  0  0  0
  8 11  1  0  0  0  0
  9 10  1  0  0  0  0
  9 25  1  0  0  0  0
  9 26  1  0  0  0  0
 10 27  1  0  0  0  0
 11 20  1  0  0  0  0
 11 12  1  0  0  0  0
 11 13  1  0  0  0  0
 12 28  1  0  0  0  0
 13 21  1  0  0  0  0
 13 14  1  0  0  0  0
 14 29  1  0  0  0  0
 15 16  2  0  0  0  0
 15 17  1  0  0  0  0
M  CHG  1   3   1
M  END
> <s_m_source_file>
AV-unprocessed.smi

> <i_m_source_file_index>
72

> <i_lp_mmshare_version>
43012

> <i_f3d_flags>
0

> <s_epik_input>
W05IMl1jMW5bY0hdbihjKD1PKW4xKVtDQEBIXTJPW0NASF0oW0NIMl1bT0hdKVtDQEBIXShbT0hdKVtDQEhdMltPSF0=

> <s_epik_cmdline>
J2VwaWtfcHl0aG9uJywgJy1waCcsICc3LjAnLCAnLXRuJywgJzgnLCAnLW1hJywgJzIwMCcsICctbWV0YWxfYmluZGluZycsICctaW1hZScsICc8aW5maWxlLm1hZT4nLCAnLW9tYWUnLCAnPG91dGZpbGUubWFlPic=

> <r_lp_tautomer_probability>
4.77166e-05

> <r_epik_Ionization_Penalty>
0.104979

> <r_epik_Ionization_Penalty_Charging>
0.0999619

> <r_epik_Ionization_Penalty_Neutral>
0.00501745

> <r_epik_State_Penalty>
2.51541

> <r_epik_Charging_Adjusted_Penalty>
2.61537

> <i_epik_Tot_Q>
1

> <i_epik_Tot_abs_Q>
1

> <r_epik_Metal_State_Penalty>
3.53763

> <b_epik_Metal_Only>
0

> <s_epik_Chemistry_Notes>
This compound contains an acetal/aminal-like group ( X-CH(R)-Y where X, Y are N, S, or O) that may be acid/base labile, releasing an aldehyde.

> <s_lp_Force_Field>
OPLS_2005

> <r_lp_Energy>
34.5598

> <b_lp_Chiralities_Consistent>
1

> <s_lp_Variant>
AV-unprocessed.smi:72-41

> <Gold.Version>
5.8.1

> <Gold.Id.Protein>
6NUR|6NUR_protein|mol2

> <Gold.PLP.Fitness>
39.6503

> <Gold.PLP.PLP>
-24.9466

> <Gold.PLP.part.hbond>
-4.9711

> <Gold.PLP.part.metal>
0.0000

> <Gold.PLP.part.buried>
-1.1538

> <Gold.PLP.part.nonpolar>
-20.4584

> <Gold.PLP.part.repulsive>
2.1275

> <Gold.PLP.ligand.clash>
0.0000

> <Gold.PLP.ligand.torsion>
0.1997

> <Gold.PLP.Chemscore.Hbond>
4.9920

> <Gold.PLP.Chemscore.CHOScore>
0.0000

> <Gold.PLP.Chemscore.Metal>
0.0000

> <Gold.Chemscore.Hbonds>
donor molecule, donor type, donor heavy atom, donor atom, acceptor molecule, acceptor atom, score
      L1  H     1    22       P1 10171  1.00
      L1  H     3    30       P1  7948  2.00
      P1  H  7989  7998       L1     7  1.00
      P1  H  7997  8009       L1    10  1.00

> <Gold.PLP.Chemscore.Internal.Correction>
0.1271

> <Gold.Rescore>
     Score         DG    S(hbond)    S(metal)    S(lipo)     H(rot)  DE(clash)    DE(int)     intcor
      7.36      -9.75       3.74        0.00      19.12       4.08       1.99       0.40       ----

> <Gold.Chemscore.Fitness>
7.3649

> <Gold.Chemscore.DG>
-9.7544

> <Gold.Chemscore.ZeroCoef>
-5.4800

> <Gold.Chemscore.Hbond>
3.7358

> <Gold.Chemscore.Metal>
0.0000

> <Gold.Chemscore.Lipo>
19.1206

> <Gold.Chemscore.Internal_Hbond>
0.0000

> <Gold.Chemscore.DEClash>
1.9865

> <Gold.Chemscore.DEInternal>
0.4031

> <Gold.Chemscore.Rot>
4.0783

> <Gold.Chemscore.Internal.Correction>
   9.000000E+99

> <Gold.Chemscore.Hbonds>
donor molecule, donor type, donor heavy atom, donor atom, acceptor molecule, acceptor atom, score
      L1  H     1    22       P1 10171  0.94
      L1  H     3    30       P1  7948  1.00
      P1  H  7989  7998       L1     7  0.53
      P1  H  7997  8009       L1    10  0.89

> <Gold.Chemscore.Hbond.Weighted>
-12.4777

> <Gold.Chemscore.Metal.Weighted>
-0.0000

> <Gold.Chemscore.Lipo.Weighted>
-2.2371

> <Gold.Chemscore.Internal_Hbond.Weighted>
0.0000

> <Gold.Chemscore.DEClash.Weighted>
1.9865

> <Gold.Chemscore.DEInternal.Weighted>
0.4031

> <Gold.Chemscore.Rot.Weighted>
10.4404

> <Gold.Chemscore.Internal.Correction.Weighted>
   9.000000E+99

> <Gold.Protein.RotatedTorsions>
[ 6907 6896 6895 6894 ] final  -96.31 input  -60.11 | X-H torsion
[ 7974 7965 7964 7962 ] final   11.73 input  175.53 | X-H torsion
[ 8008 7997 7996 7995 ] final -131.54 input   59.86 | X-H torsion
[ 10167 10162 10161 10158 ] final  -21.10 input  -65.29 | X-H torsion
[ 10718 10713 10712 10709 ] final  -27.84 input   66.30 | X-H torsion
[ 10763 10752 10751 10750 ] final  -36.90 input  -60.55 | X-H torsion
[ 11005 11000 10999 10996 ] final   90.17 input  -57.11 | X-H torsion

> <Gold.Protein.ActiveResidues>
 VAL166  LYS551  ARG553  GLY616  TRP617  ASP618  TYR619  PRO620  LYS621  CYS622 
 ASP623  PHE694  ASN695  SER759  ASP760  ASP761  ALA762  ILE779  LEU786  VAL792 
 PHE793  MET794  SER795  GLU796  ALA797  LYS798  CYS799  TRP800  GLU811  SER814 

> <Gold.Protein.RotatedAtoms>
  150.6985  134.1523  159.4144 H   0  0  0  0  0  0  0  0  0  0  0  0  # atno 6907 bound_to 6896
  151.9506  135.0168  160.0551 H   0  0  0  0  0  0  0  0  0  0  0  0  # atno 6908 bound_to 6896
  152.2014  133.4809  159.5097 H   0  0  0  0  0  0  0  0  0  0  0  0  # atno 6909 bound_to 6896
  146.2365  139.9441  142.8479 H   0  0  0  0  0  0  0  0  0  0  0  0  # atno 7974 bound_to 7965
  155.3140  140.0459  157.3036 H   0  0  0  0  0  0  0  0  0  0  0  0  # atno 8008 bound_to 7997
  154.5417  140.2290  155.8596 H   0  0  0  0  0  0  0  0  0  0  0  0  # atno 8009 bound_to 7997
  156.1887  140.3056  155.9295 H   0  0  0  0  0  0  0  0  0  0  0  0  # atno 8010 bound_to 7997
  140.7280  143.4659  151.0314 H   0  0  0  0  0  0  0  0  0  0  0  0  # atno 10167 bound_to 10162
  156.4329  130.4449  149.7105 H   0  0  0  0  0  0  0  0  0  0  0  0  # atno 10718 bound_to 10713
  153.8874  135.6815  153.4763 H   0  0  0  0  0  0  0  0  0  0  0  0  # atno 10763 bound_to 10752
  153.1200  135.4744  154.9177 H   0  0  0  0  0  0  0  0  0  0  0  0  # atno 10764 bound_to 10752
  154.7639  135.3218  154.8277 H   0  0  0  0  0  0  0  0  0  0  0  0  # atno 10765 bound_to 10752
  139.8861  134.8597  156.3246 H   0  0  0  0  0  0  0  0  0  0  0  0  # atno 11005 bound_to 11000
  145.1924  140.9817  143.4203 LP  0  0  0  0  0  0  0  0  0  0  0  0  # atno 17320 bound_to 7965
  144.9845  139.3750  143.6245 LP  0  0  0  0  0  0  0  0  0  0  0  0  # atno 17321 bound_to 7965
  139.8347  143.7643  152.3180 LP  0  0  0  0  0  0  0  0  0  0  0  0  # atno 17342 bound_to 10162
  139.7771  144.7457  151.0141 LP  0  0  0  0  0  0  0  0  0  0  0  0  # atno 17343 bound_to 10162
  156.4000  130.7670  151.2677 LP  0  0  0  0  0  0  0  0  0  0  0  0  # atno 17370 bound_to 10713
  157.7508  131.0242  150.3868 LP  0  0  0  0  0  0  0  0  0  0  0  0  # atno 17371 bound_to 10713
  140.9764  133.7295  156.0608 LP  0  0  0  0  0  0  0  0  0  0  0  0  # atno 17394 bound_to 11000
  140.7806  134.3730  157.5488 LP  0  0  0  0  0  0  0  0  0  0  0  0  # atno 17395 bound_to 11000

$$$$
