AV-unprocessed.smi:2078|AV-procd|sdf|8463|dock4
  -GOLD-   2272011163D 1   1.00000     0.00000
 Structure written by MMmdl.
 42 43  0  0  0  0  0  0  0  0  2 V2000
  143.8443  132.0907  149.5594 C   0  0  0  0  0  0  0  0  0  0  0  0
  144.2707  133.1931  150.4669 C   0  0  0  0  0  0  0  0  0  0  0  0
  145.3389  134.0455  150.4587 C   0  0  0  0  0  0  0  0  0  0  0  0
  145.1213  134.8412  151.6148 C   0  0  0  0  0  0  0  0  0  0  0  0
  146.0281  135.8721  151.9710 N   0  0  0  0  0  0  0  0  0  0  0  0
  145.7319  137.0841  152.4701 C   0  0  0  0  0  0  0  0  0  0  0  0
  144.5959  137.4992  152.7023 O   0  0  0  0  0  0  0  0  0  0  0  0
  146.8387  137.8098  152.6870 N   0  0  0  0  0  0  0  0  0  0  0  0
  146.8483  139.1653  153.2246 C   0  0  0  0  0  0  0  0  0  0  0  0
  148.2420  139.5526  153.7560 C   0  0  0  0  0  0  0  0  0  0  0  0
  149.0813  138.3656  154.0557 N   0  3  1  0  0  0  0  0  0  0  0  0
  150.5036  138.7271  154.2869 C   0  0  0  0  0  0  0  0  0  0  0  0
  151.3734  137.4717  154.4576 C   0  0  0  0  0  0  0  0  0  0  0  0
  150.8458  136.5890  155.5954 C   0  0  0  0  0  0  0  0  0  0  0  0
  149.3642  136.2475  155.3628 C   0  0  1  0  0  0  0  0  0  0  0  0
  148.8007  135.3885  156.5036 C   0  0  0  0  0  0  0  0  0  0  0  0
  148.5419  137.5375  155.1681 C   0  0  0  0  0  0  0  0  0  0  0  0
  144.0207  134.5048  152.2698 N   0  0  0  0  0  0  0  0  0  0  0  0
  143.4699  133.4467  151.5372 O   0  0  0  0  0  0  0  0  0  0  0  0
  144.5671  131.9447  148.7565 H   0  0  0  0  0  0  0  0  0  0  0  0
  142.8777  132.3145  149.1082 H   0  0  0  0  0  0  0  0  0  0  0  0
  143.7535  131.1526  150.1072 H   0  0  0  0  0  0  0  0  0  0  0  0
  146.1433  134.0901  149.7393 H   0  0  0  0  0  0  0  0  0  0  0  0
  147.0052  135.6640  151.8286 H   0  0  0  0  0  0  0  0  0  0  0  0
  147.7337  137.3941  152.4728 H   0  0  0  0  0  0  0  0  0  0  0  0
  146.5055  139.8556  152.4533 H   0  0  0  0  0  0  0  0  0  0  0  0
  146.1171  139.2156  154.0316 H   0  0  0  0  0  0  0  0  0  0  0  0
  148.7323  140.1605  152.9942 H   0  0  0  0  0  0  0  0  0  0  0  0
  148.1684  140.1797  154.6461 H   0  0  0  0  0  0  0  0  0  0  0  0
  150.8797  139.3083  153.4441 H   0  0  0  0  0  0  0  0  0  0  0  0
  150.5799  139.3629  155.1706 H   0  0  0  0  0  0  0  0  0  0  0  0
  151.3850  136.9032  153.5266 H   0  0  0  0  0  0  0  0  0  0  0  0
  152.4062  137.7584  154.6574 H   0  0  0  0  0  0  0  0  0  0  0  0
  151.4395  135.6765  155.6629 H   0  0  0  0  0  0  0  0  0  0  0  0
  150.9640  137.1091  156.5473 H   0  0  0  0  0  0  0  0  0  0  0  0
  149.2931  135.6611  154.4452 H   0  0  0  0  0  0  0  0  0  0  0  0
  148.8397  135.9178  157.4565 H   0  0  0  0  0  0  0  0  0  0  0  0
  149.3662  134.4627  156.6140 H   0  0  0  0  0  0  0  0  0  0  0  0
  147.7613  135.1179  156.3157 H   0  0  0  0  0  0  0  0  0  0  0  0
  148.5382  138.1249  156.0880 H   0  0  0  0  0  0  0  0  0  0  0  0
  147.5057  137.2689  154.9654 H   0  0  0  0  0  0  0  0  0  0  0  0
  149.0699  137.7900  153.2260 H   0  0  0  0  0  0  0  0  0  0  0  0
  1  2  1  0  0  0  0
  1 20  1  0  0  0  0
  1 21  1  0  0  0  0
  1 22  1  0  0  0  0
  2 19  1  0  0  0  0
  2  3  2  0  0  0  0
  3  4  1  0  0  0  0
  3 23  1  0  0  0  0
  4  5  1  0  0  0  0
  4 18  2  0  0  0  0
  5  6  1  0  0  0  0
  5 24  1  0  0  0  0
  6  7  2  0  0  0  0
  6  8  1  0  0  0  0
  8  9  1  0  0  0  0
  8 25  1  0  0  0  0
  9 10  1  0  0  0  0
  9 26  1  0  0  0  0
  9 27  1  0  0  0  0
 10 11  1  0  0  0  0
 10 28  1  0  0  0  0
 10 29  1  0  0  0  0
 11 17  1  0  0  0  0
 11 12  1  0  0  0  0
 11 42  1  0  0  0  0
 12 13  1  0  0  0  0
 12 30  1  0  0  0  0
 12 31  1  0  0  0  0
 13 14  1  0  0  0  0
 13 32  1  0  0  0  0
 13 33  1  0  0  0  0
 14 15  1  0  0  0  0
 14 34  1  0  0  0  0
 14 35  1  0  0  0  0
 15 16  1  0  0  0  0
 15 17  1  0  0  0  0
 15 36  1  0  0  0  0
 16 37  1  0  0  0  0
 16 38  1  0  0  0  0
 16 39  1  0  0  0  0
 17 40  1  0  0  0  0
 17 41  1  0  0  0  0
 18 19  1  0  0  0  0
M  CHG  1  11   1
M  END
> <s_m_source_file>
AV-unprocessed.smi

> <i_m_source_file_index>
2078

> <i_lp_mmshare_version>
43012

> <i_f3d_flags>
0

> <s_epik_input>
W0NIM11jMVtjSF1jKG5vMSlbTkhdQyg9TylbTkhdW0NIMl1bQ0gyXU4yW0NIMl1bQ0gyXVtDSDJdW0NAQEhdKFtDSDNdKVtDSDJdMg==

> <s_epik_cmdline>
J2VwaWtfcHl0aG9uJywgJy1waCcsICc3LjAnLCAnLXRuJywgJzgnLCAnLW1hJywgJzIwMCcsICctbWV0YWxfYmluZGluZycsICctaW1hZScsICc8aW5maWxlLm1hZT4nLCAnLW9tYWUnLCAnPG91dGZpbGUubWFlPic=

> <r_epik_Ionization_Penalty>
0.00216453

> <r_epik_Ionization_Penalty_Charging>
0.00212879

> <r_epik_Ionization_Penalty_Neutral>
3.57418e-05

> <r_epik_State_Penalty>
0.00146033

> <r_epik_Charging_Adjusted_Penalty>
0.00358912

> <i_epik_Tot_Q>
1

> <i_epik_Tot_abs_Q>
1

> <r_epik_Metal_State_Penalty>
0.0215827

> <b_epik_Metal_Only>
0

> <s_lp_Force_Field>
OPLS_2005

> <r_lp_Energy>
12.7312

> <b_lp_Chiralities_Consistent>
1

> <s_lp_Variant>
AV-unprocessed.smi:2078-1

> <Gold.Version>
5.8.1

> <Gold.Id.Protein>
6NUR|6NUR_protein|mol2

> <Gold.PLP.Fitness>
37.5284

> <Gold.PLP.PLP>
-26.9623

> <Gold.PLP.part.hbond>
-3.0363

> <Gold.PLP.part.metal>
0.0000

> <Gold.PLP.part.buried>
-1.8338

> <Gold.PLP.part.nonpolar>
-23.8057

> <Gold.PLP.part.repulsive>
0.7409

> <Gold.PLP.ligand.clash>
0.0000

> <Gold.PLP.ligand.torsion>
0.7326

> <Gold.PLP.Chemscore.Hbond>
4.0000

> <Gold.PLP.Chemscore.CHOScore>
0.0000

> <Gold.PLP.Chemscore.Metal>
0.0000

> <Gold.Chemscore.Hbonds>
donor molecule, donor type, donor heavy atom, donor atom, acceptor molecule, acceptor atom, score
      L1  H     5    24       P1  7948  1.00
      L1  H     8    25       P1  7948  1.00
      L1  H    11    42       P1  7948  1.92

> <Gold.PLP.Chemscore.Internal.Correction>
0.0313

> <Gold.Rescore>
     Score         DG    S(hbond)    S(metal)    S(lipo)     H(rot)  DE(clash)    DE(int)     intcor
     17.75     -18.80       2.78        0.00      68.82       1.57       0.14       0.90       ----

> <Gold.Chemscore.Fitness>
17.7525

> <Gold.Chemscore.DG>
-18.7966

> <Gold.Chemscore.ZeroCoef>
-5.4800

> <Gold.Chemscore.Hbond>
2.7794

> <Gold.Chemscore.Metal>
0.0000

> <Gold.Chemscore.Lipo>
68.8189

> <Gold.Chemscore.Internal_Hbond>
0.0000

> <Gold.Chemscore.DEClash>
0.1394

> <Gold.Chemscore.DEInternal>
0.9048

> <Gold.Chemscore.Rot>
1.5697

> <Gold.Chemscore.Internal.Correction>
   9.000000E+99

> <Gold.Chemscore.Hbonds>
donor molecule, donor type, donor heavy atom, donor atom, acceptor molecule, acceptor atom, score
      L1  H     5    24       P1  7948  0.93
      L1  H     8    25       P1  7948  1.00
      L1  H    11    42       P1  7948  0.90

> <Gold.Chemscore.Hbond.Weighted>
-9.2833

> <Gold.Chemscore.Metal.Weighted>
-0.0000

> <Gold.Chemscore.Lipo.Weighted>
-8.0518

> <Gold.Chemscore.Internal_Hbond.Weighted>
0.0000

> <Gold.Chemscore.DEClash.Weighted>
0.1394

> <Gold.Chemscore.DEInternal.Weighted>
0.9048

> <Gold.Chemscore.Rot.Weighted>
4.0185

> <Gold.Chemscore.Internal.Correction.Weighted>
   9.000000E+99

> <Gold.Protein.RotatedTorsions>
[ 6907 6896 6895 6894 ] final  -21.55 input  -60.11 | X-H torsion
[ 7974 7965 7964 7962 ] final -125.05 input  175.53 | X-H torsion
[ 8008 7997 7996 7995 ] final   28.96 input   59.86 | X-H torsion
[ 10167 10162 10161 10158 ] final  155.42 input  -65.29 | X-H torsion
[ 10718 10713 10712 10709 ] final  101.52 input   66.30 | X-H torsion
[ 10763 10752 10751 10750 ] final  -56.37 input  -60.55 | X-H torsion
[ 11005 11000 10999 10996 ] final   92.84 input  -57.11 | X-H torsion

> <Gold.Protein.ActiveResidues>
 VAL166  LYS551  ARG553  GLY616  TRP617  ASP618  TYR619  PRO620  LYS621  CYS622 
 ASP623  PHE694  ASN695  SER759  ASP760  ASP761  ALA762  ILE779  LEU786  VAL792 
 PHE793  MET794  SER795  GLU796  ALA797  LYS798  CYS799  TRP800  GLU811  SER814 

> <Gold.Protein.RotatedAtoms>
  151.2317  135.0557  159.8989 H   0  0  0  0  0  0  0  0  0  0  0  0  # atno 6907 bound_to 6896
  152.5404  134.0530  159.8128 H   0  0  0  0  0  0  0  0  0  0  0  0  # atno 6908 bound_to 6896
  151.0711  133.5417  159.2658 H   0  0  0  0  0  0  0  0  0  0  0  0  # atno 6909 bound_to 6896
  145.0016  140.7825  143.4493 H   0  0  0  0  0  0  0  0  0  0  0  0  # atno 7974 bound_to 7965
  155.0669  140.3196  155.4643 H   0  0  0  0  0  0  0  0  0  0  0  0  # atno 8008 bound_to 7997
  156.2800  140.2119  156.5741 H   0  0  0  0  0  0  0  0  0  0  0  0  # atno 8009 bound_to 7997
  154.7086  140.0500  157.0516 H   0  0  0  0  0  0  0  0  0  0  0  0  # atno 8010 bound_to 7997
  139.4821  144.5100  151.8039 H   0  0  0  0  0  0  0  0  0  0  0  0  # atno 10167 bound_to 10162
  157.6827  131.0728  150.5265 H   0  0  0  0  0  0  0  0  0  0  0  0  # atno 10718 bound_to 10713
  154.2055  135.6403  153.5100 H   0  0  0  0  0  0  0  0  0  0  0  0  # atno 10763 bound_to 10752
  153.0002  135.5461  154.6270 H   0  0  0  0  0  0  0  0  0  0  0  0  # atno 10764 bound_to 10752
  154.5694  135.2915  155.0816 H   0  0  0  0  0  0  0  0  0  0  0  0  # atno 10765 bound_to 10752
  139.8818  134.8756  156.3631 H   0  0  0  0  0  0  0  0  0  0  0  0  # atno 11005 bound_to 11000
  145.2145  139.2188  143.5125 LP  0  0  0  0  0  0  0  0  0  0  0  0  # atno 17320 bound_to 7965
  146.3453  140.1990  142.8589 LP  0  0  0  0  0  0  0  0  0  0  0  0  # atno 17321 bound_to 7965
  140.4602  144.1732  150.5905 LP  0  0  0  0  0  0  0  0  0  0  0  0  # atno 17342 bound_to 10162
  140.4492  143.2494  151.9370 LP  0  0  0  0  0  0  0  0  0  0  0  0  # atno 17343 bound_to 10162
  156.5576  130.4247  149.6078 LP  0  0  0  0  0  0  0  0  0  0  0  0  # atno 17370 bound_to 10713
  156.2848  130.7091  151.1925 LP  0  0  0  0  0  0  0  0  0  0  0  0  # atno 17371 bound_to 10713
  140.9515  133.7447  156.0279 LP  0  0  0  0  0  0  0  0  0  0  0  0  # atno 17394 bound_to 11000
  140.8099  134.3411  157.5415 LP  0  0  0  0  0  0  0  0  0  0  0  0  # atno 17395 bound_to 11000

$$$$
