AV-unprocessed.smi:69|AV-procd|sdf|652|dock4
  -GOLD-   2262016553D 1   1.00000     0.00000
 Structure written by MMmdl.
 32 34  0  0  0  0  0  0  0  0  1 V2000
  139.7387  136.6760  155.1445 N   0  0  0  0  0  0  0  0  0  0  0  0
  140.8320  136.9298  154.4123 C   0  0  0  0  0  0  0  0  0  0  0  0
  140.8612  138.0621  153.6704 N   0  0  0  0  0  0  0  0  0  0  0  0
  141.9423  138.3394  152.9334 C   0  0  0  0  0  0  0  0  0  0  0  0
  143.0686  137.6326  152.8015 N   0  0  0  0  0  0  0  0  0  0  0  0
  143.0330  136.4902  153.5488 C   0  0  0  0  0  0  0  0  0  0  0  0
  141.9590  136.0702  154.3799 C   0  0  0  0  0  0  0  0  0  0  0  0
  142.2816  134.8681  154.9947 N   0  0  0  0  0  0  0  0  0  0  0  0
  143.4814  134.5996  154.5516 C   0  0  0  0  0  0  0  0  0  0  0  0
  144.0016  135.5160  153.6596 N   0  0  0  0  0  0  0  0  0  0  0  0
  145.3362  135.5346  152.9764 C   0  0  1  0  0  0  0  0  0  0  0  0
  145.6400  134.2428  152.5507 O   0  0  0  0  0  0  0  0  0  0  0  0
  145.1570  134.0609  151.2262 C   0  0  2  0  0  0  0  0  0  0  0  0
  145.8692  132.8699  150.5681 C   0  0  0  0  0  0  0  0  0  0  0  0
  147.2213  132.8321  150.9726 O   0  0  0  0  0  0  0  0  0  0  0  0
  145.4871  135.4091  150.5788 C   0  0  1  0  0  0  0  0  0  0  0  0
  144.5993  135.6701  149.5100 O   0  0  0  0  0  0  0  0  0  0  0  0
  145.2792  136.4142  151.7113 C   0  0  2  0  0  0  0  0  0  0  0  0
  146.3051  137.3859  151.7048 O   0  0  0  0  0  0  0  0  0  0  0  0
  146.0288  135.8753  153.7475 H   0  0  0  0  0  0  0  0  0  0  0  0
  144.0756  133.9112  151.2415 H   0  0  0  0  0  0  0  0  0  0  0  0
  146.5210  135.4182  150.2291 H   0  0  0  0  0  0  0  0  0  0  0  0
  144.3088  136.9087  151.6399 H   0  0  0  0  0  0  0  0  0  0  0  0
  139.6954  135.8382  155.7068 H   0  0  0  0  0  0  0  0  0  0  0  0
  138.9614  137.3202  155.1311 H   0  0  0  0  0  0  0  0  0  0  0  0
  141.8987  139.2590  152.3686 H   0  0  0  0  0  0  0  0  0  0  0  0
  144.0176  133.7178  154.8706 H   0  0  0  0  0  0  0  0  0  0  0  0
  145.4069  131.9349  150.8856 H   0  0  0  0  0  0  0  0  0  0  0  0
  145.7976  132.9148  149.4810 H   0  0  0  0  0  0  0  0  0  0  0  0
  147.6469  132.1135  150.5306 H   0  0  0  0  0  0  0  0  0  0  0  0
  145.0830  135.6142  148.6998 H   0  0  0  0  0  0  0  0  0  0  0  0
  147.1303  136.9479  151.8491 H   0  0  0  0  0  0  0  0  0  0  0  0
  1  2  1  0  0  0  0
  1 24  1  0  0  0  0
  1 25  1  0  0  0  0
  2  7  1  0  0  0  0
  2  3  2  0  0  0  0
  3  4  1  0  0  0  0
  4  5  2  0  0  0  0
  4 26  1  0  0  0  0
  5  6  1  0  0  0  0
  6 10  1  0  0  0  0
  6  7  2  0  0  0  0
  7  8  1  0  0  0  0
  8  9  2  0  0  0  0
  9 10  1  0  0  0  0
  9 27  1  0  0  0  0
 10 11  1  0  0  0  0
 11 20  1  0  0  0  0
 11 18  1  0  0  0  0
 11 12  1  0  0  0  0
 12 13  1  0  0  0  0
 13 21  1  0  0  0  0
 13 14  1  0  0  0  0
 13 16  1  0  0  0  0
 14 15  1  0  0  0  0
 14 28  1  0  0  0  0
 14 29  1  0  0  0  0
 15 30  1  0  0  0  0
 16 22  1  0  0  0  0
 16 17  1  0  0  0  0
 16 18  1  0  0  0  0
 17 31  1  0  0  0  0
 18 23  1  0  0  0  0
 18 19  1  0  0  0  0
 19 32  1  0  0  0  0
M  END
> <s_m_source_file>
AV-unprocessed.smi

> <i_m_source_file_index>
69

> <i_lp_mmshare_version>
43012

> <i_f3d_flags>
0

> <s_epik_input>
bjFbY0hdbmMoW05IMl0pYyhjMTIpbltjSF1uMltDQEBIXTNPW0NASF0oW0NIMl1bT0hdKVtDQEBIXShbT0hdKVtDQEhdM1tPSF0=

> <s_epik_cmdline>
J2VwaWtfcHl0aG9uJywgJy1waCcsICc3LjAnLCAnLXRuJywgJzgnLCAnLW1hJywgJzIwMCcsICctbWV0YWxfYmluZGluZycsICctaW1hZScsICc8aW5maWxlLm1hZT4nLCAnLW9tYWUnLCAnPG91dGZpbGUubWFlPic=

> <r_lp_tautomer_probability>
1

> <r_epik_Ionization_Penalty>
0.000428445

> <r_epik_Ionization_Penalty_Charging>
0

> <r_epik_Ionization_Penalty_Neutral>
0.000428445

> <r_epik_State_Penalty>
-0

> <r_epik_Charging_Adjusted_Penalty>
0

> <i_epik_Tot_Q>
0

> <i_epik_Tot_abs_Q>
0

> <r_epik_Metal_State_Penalty>
-0

> <b_epik_Metal_Only>
0

> <s_epik_Chemistry_Notes>
This compound contains an acetal/aminal-like group ( X-CH(R)-Y where X, Y are N, S, or O) that may be acid/base labile, releasing an aldehyde.

> <s_lp_Force_Field>
OPLS_2005

> <r_lp_Energy>
31.7018

> <b_lp_Chiralities_Consistent>
1

> <s_lp_Variant>
AV-unprocessed.smi:69-10

> <Gold.Version>
5.8.1

> <Gold.Id.Protein>
6NUR|6NUR_protein|mol2

> <Gold.PLP.Fitness>
40.3406

> <Gold.PLP.PLP>
-21.3686

> <Gold.PLP.part.hbond>
-6.0894

> <Gold.PLP.part.metal>
0.0000

> <Gold.PLP.part.buried>
-0.4450

> <Gold.PLP.part.nonpolar>
-17.6758

> <Gold.PLP.part.repulsive>
2.3645

> <Gold.PLP.ligand.clash>
0.0183

> <Gold.PLP.ligand.torsion>
0.7729

> <Gold.PLP.Chemscore.Hbond>
4.4480

> <Gold.PLP.Chemscore.CHOScore>
2.3873

> <Gold.PLP.Chemscore.Metal>
0.0000

> <Gold.Chemscore.Hbonds>
donor molecule, donor type, donor heavy atom, donor atom, acceptor molecule, acceptor atom, score
      L1  H     1    24       P1 11000  1.00
      L1  H    15    30       P1 10747  1.00
      L1  H    17    31       P1  7921  1.00
      L1  H    19    32       P1  7948  1.00
      P1  H 11000 11005       L1     8  0.43
      L1  C     4    26       P1 10160  1.00
      L1  C     4    26       P1 10175  0.73
      L1  C     9    27       P1 10957  0.65

> <Gold.PLP.Chemscore.Internal.Correction>
0.0304

> <Gold.Rescore>
     Score         DG    S(hbond)    S(metal)    S(lipo)     H(rot)  DE(clash)    DE(int)     intcor
     10.15     -12.43       4.20        0.00      27.58       4.03       0.39       1.90       ----

> <Gold.Chemscore.Fitness>
10.1498

> <Gold.Chemscore.DG>
-12.4330

> <Gold.Chemscore.ZeroCoef>
-5.4800

> <Gold.Chemscore.Hbond>
4.2029

> <Gold.Chemscore.Metal>
0.0000

> <Gold.Chemscore.Lipo>
27.5752

> <Gold.Chemscore.Internal_Hbond>
0.0000

> <Gold.Chemscore.DEClash>
0.3865

> <Gold.Chemscore.DEInternal>
1.8966

> <Gold.Chemscore.Rot>
4.0277

> <Gold.Chemscore.Internal.Correction>
   9.000000E+99

> <Gold.Chemscore.Hbonds>
donor molecule, donor type, donor heavy atom, donor atom, acceptor molecule, acceptor atom, score
      L1  H     1    24       P1 11000  0.54
      L1  H    15    30       P1 10747  0.98
      L1  H    17    31       P1  7921  0.97
      L1  H    19    32       P1  7948  0.99
      P1  H 11000 11005       L1     8  0.39

> <Gold.Chemscore.Hbond.Weighted>
-14.0377

> <Gold.Chemscore.Metal.Weighted>
-0.0000

> <Gold.Chemscore.Lipo.Weighted>
-3.2263

> <Gold.Chemscore.Internal_Hbond.Weighted>
0.0000

> <Gold.Chemscore.DEClash.Weighted>
0.3865

> <Gold.Chemscore.DEInternal.Weighted>
1.8966

> <Gold.Chemscore.Rot.Weighted>
10.3110

> <Gold.Chemscore.Internal.Correction.Weighted>
   9.000000E+99

> <Gold.Protein.RotatedTorsions>
[ 6907 6896 6895 6894 ] final  162.04 input  -60.11 | X-H torsion
[ 7974 7965 7964 7962 ] final  -76.28 input  175.53 | X-H torsion
[ 8008 7997 7996 7995 ] final   15.01 input   59.86 | X-H torsion
[ 10167 10162 10161 10158 ] final  120.34 input  -65.29 | X-H torsion
[ 10718 10713 10712 10709 ] final  -42.68 input   66.30 | X-H torsion
[ 10763 10752 10751 10750 ] final -119.80 input  -60.55 | X-H torsion
[ 11005 11000 10999 10996 ] final  -35.91 input  -57.11 | X-H torsion

> <Gold.Protein.ActiveResidues>
 VAL166  LYS551  ARG553  GLY616  TRP617  ASP618  TYR619  PRO620  LYS621  CYS622 
 ASP623  PHE694  ASN695  SER759  ASP760  ASP761  ALA762  ILE779  LEU786  VAL792 
 PHE793  MET794  SER795  GLU796  ALA797  LYS798  CYS799  TRP800  GLU811  SER814 

> <Gold.Protein.RotatedAtoms>
  151.9464  133.3653  159.3983 H   0  0  0  0  0  0  0  0  0  0  0  0  # atno 6907 bound_to 6896
  150.6989  134.4386  159.5291 H   0  0  0  0  0  0  0  0  0  0  0  0  # atno 6908 bound_to 6896
  152.2051  134.8552  160.0554 H   0  0  0  0  0  0  0  0  0  0  0  0  # atno 6909 bound_to 6896
  145.6150  140.9377  143.1169 H   0  0  0  0  0  0  0  0  0  0  0  0  # atno 7974 bound_to 7965
  154.8566  140.2938  155.5565 H   0  0  0  0  0  0  0  0  0  0  0  0  # atno 8008 bound_to 7997
  156.3018  140.2486  156.3466 H   0  0  0  0  0  0  0  0  0  0  0  0  # atno 8009 bound_to 7997
  154.8963  140.0393  157.1857 H   0  0  0  0  0  0  0  0  0  0  0  0  # atno 8010 bound_to 7997
  139.5988  144.7050  151.3111 H   0  0  0  0  0  0  0  0  0  0  0  0  # atno 10167 bound_to 10162
  156.2570  130.4193  149.8584 H   0  0  0  0  0  0  0  0  0  0  0  0  # atno 10718 bound_to 10713
  154.8627  135.4225  154.2357 H   0  0  0  0  0  0  0  0  0  0  0  0  # atno 10763 bound_to 10752
  153.3333  135.6989  153.6935 H   0  0  0  0  0  0  0  0  0  0  0  0  # atno 10764 bound_to 10752
  153.5943  135.3549  155.2895 H   0  0  0  0  0  0  0  0  0  0  0  0  # atno 10765 bound_to 10752
  140.9834  133.7044  156.1723 H   0  0  0  0  0  0  0  0  0  0  0  0  # atno 11005 bound_to 11000
  144.7254  139.7892  143.7367 LP  0  0  0  0  0  0  0  0  0  0  0  0  # atno 17320 bound_to 7965
  146.1475  139.4549  143.0070 LP  0  0  0  0  0  0  0  0  0  0  0  0  # atno 17321 bound_to 7965
  140.7233  143.7074  150.7797 LP  0  0  0  0  0  0  0  0  0  0  0  0  # atno 17342 bound_to 10162
  140.0646  143.5121  152.2611 LP  0  0  0  0  0  0  0  0  0  0  0  0  # atno 17343 bound_to 10162
  156.6113  130.8588  151.3455 LP  0  0  0  0  0  0  0  0  0  0  0  0  # atno 17370 bound_to 10713
  157.7236  130.9592  150.1542 LP  0  0  0  0  0  0  0  0  0  0  0  0  # atno 17371 bound_to 10713
  140.7152  134.4418  157.5579 LP  0  0  0  0  0  0  0  0  0  0  0  0  # atno 17394 bound_to 11000
  139.8960  134.8670  156.2108 LP  0  0  0  0  0  0  0  0  0  0  0  0  # atno 17395 bound_to 11000

$$$$
