AV-unprocessed.smi:1537|AV-procd|sdf|6191|dock9
  -GOLD-   22720 6353D 1   1.00000     0.00000
 Structure written by MMmdl.
 43 43  0  0  0  0  0  0  0  0  1 V2000
  152.6207  141.9814  159.8606 C   0  0  0  0  0  0  0  0  0  0  0  0
  152.3440  140.6920  159.0807 C   0  0  0  0  0  0  0  0  0  0  0  0
  151.5462  140.9329  157.8433 C   0  0  0  0  0  0  0  0  0  0  0  0
  151.2478  139.9751  156.9619 N   0  0  0  0  0  0  0  0  0  0  0  0
  150.5284  140.4574  155.8630 C   0  0  0  0  0  0  0  0  0  0  0  0
  150.1060  139.5186  154.7708 C   0  0  0  0  0  0  0  0  0  0  0  0
  148.6339  139.7417  154.4215 C   0  0  0  0  0  0  0  0  0  0  0  0
  147.9574  140.5339  155.0776 O   0  0  0  0  0  0  0  0  0  0  0  0
  148.1496  139.0336  153.3881 N   0  0  0  0  0  0  0  0  0  0  0  0
  146.7740  139.0847  152.8974 C   0  0  1  0  0  0  0  0  0  0  0  0
  146.8179  139.0646  151.3604 C   0  0  0  0  0  0  0  0  0  0  0  0
  145.9820  137.8539  153.3684 C   0  0  0  0  0  0  0  0  0  0  0  0
  146.5567  136.9207  153.9308 O   0  0  0  0  0  0  0  0  0  0  0  0
  144.6623  137.8744  153.1109 N   0  0  0  0  0  0  0  0  0  0  0  0
  143.6523  136.8602  153.4359 C   0  0  0  0  0  0  0  0  0  0  0  0
  143.9537  135.6323  152.5590 C   0  0  0  0  0  0  0  0  0  0  0  0
  142.2366  137.3775  153.1046 C   0  0  0  0  0  0  0  0  0  0  0  0
  143.7486  136.4496  154.9203 C   0  0  0  0  0  0  0  0  0  0  0  0
  150.2866  141.8076  155.9273 C   0  0  0  0  0  0  0  0  0  0  0  0
  150.9663  142.5232  157.3626 S   0  0  0  0  0  0  0  0  0  0  0  0
  153.2013  141.7751  160.7598 H   0  0  0  0  0  0  0  0  0  0  0  0
  151.6912  142.4623  160.1667 H   0  0  0  0  0  0  0  0  0  0  0  0
  153.1834  142.6935  159.2560 H   0  0  0  0  0  0  0  0  0  0  0  0
  153.2846  140.2127  158.8068 H   0  0  0  0  0  0  0  0  0  0  0  0
  151.8048  139.9844  159.7113 H   0  0  0  0  0  0  0  0  0  0  0  0
  150.7146  139.6595  153.8764 H   0  0  0  0  0  0  0  0  0  0  0  0
  150.2496  138.4823  155.0797 H   0  0  0  0  0  0  0  0  0  0  0  0
  148.7790  138.4044  152.9108 H   0  0  0  0  0  0  0  0  0  0  0  0
  146.2898  140.0019  153.2388 H   0  0  0  0  0  0  0  0  0  0  0  0
  145.8146  139.1058  150.9343 H   0  0  0  0  0  0  0  0  0  0  0  0
  147.3053  138.1659  150.9786 H   0  0  0  0  0  0  0  0  0  0  0  0
  147.3679  139.9246  150.9767 H   0  0  0  0  0  0  0  0  0  0  0  0
  144.3122  138.6957  152.6396 H   0  0  0  0  0  0  0  0  0  0  0  0
  143.2394  134.8287  152.7422 H   0  0  0  0  0  0  0  0  0  0  0  0
  144.9503  135.2361  152.7581 H   0  0  0  0  0  0  0  0  0  0  0  0
  143.9039  135.8784  151.4976 H   0  0  0  0  0  0  0  0  0  0  0  0
  142.1659  137.7029  152.0660 H   0  0  0  0  0  0  0  0  0  0  0  0
  141.9490  138.2198  153.7338 H   0  0  0  0  0  0  0  0  0  0  0  0
  141.4891  136.5979  153.2549 H   0  0  0  0  0  0  0  0  0  0  0  0
  143.0670  135.6285  155.1445 H   0  0  0  0  0  0  0  0  0  0  0  0
  143.4910  137.2688  155.5913 H   0  0  0  0  0  0  0  0  0  0  0  0
  144.7556  136.1183  155.1759 H   0  0  0  0  0  0  0  0  0  0  0  0
  149.7584  142.4236  155.2144 H   0  0  0  0  0  0  0  0  0  0  0  0
  1  2  1  0  0  0  0
  1 21  1  0  0  0  0
  1 22  1  0  0  0  0
  1 23  1  0  0  0  0
  2  3  1  0  0  0  0
  2 24  1  0  0  0  0
  2 25  1  0  0  0  0
  3 20  1  0  0  0  0
  3  4  2  0  0  0  0
  4  5  1  0  0  0  0
  5  6  1  0  0  0  0
  5 19  2  0  0  0  0
  6  7  1  0  0  0  0
  6 26  1  0  0  0  0
  6 27  1  0  0  0  0
  7  8  2  0  0  0  0
  7  9  1  0  0  0  0
  9 10  1  0  0  0  0
  9 28  1  0  0  0  0
 10 11  1  0  0  0  0
 10 12  1  0  0  0  0
 10 29  1  0  0  0  0
 11 30  1  0  0  0  0
 11 31  1  0  0  0  0
 11 32  1  0  0  0  0
 12 13  2  0  0  0  0
 12 14  1  0  0  0  0
 14 15  1  0  0  0  0
 14 33  1  0  0  0  0
 15 16  1  0  0  0  0
 15 17  1  0  0  0  0
 15 18  1  0  0  0  0
 16 34  1  0  0  0  0
 16 35  1  0  0  0  0
 16 36  1  0  0  0  0
 17 37  1  0  0  0  0
 17 38  1  0  0  0  0
 17 39  1  0  0  0  0
 18 40  1  0  0  0  0
 18 41  1  0  0  0  0
 18 42  1  0  0  0  0
 19 20  1  0  0  0  0
 19 43  1  0  0  0  0
M  END
> <s_m_source_file>
AV-unprocessed.smi

> <i_m_source_file_index>
1537

> <i_lp_mmshare_version>
43012

> <i_f3d_flags>
0

> <s_epik_input>
W0NIM11bQ0gyXWMxbmMoW2NIXXMxKVtDSDJdQyg9TylbTkhdW0NASF0oW0NIM10pQyg9TylbTkhdQyhbQ0gzXSkoW0NIM10pW0NIM10=

> <s_epik_cmdline>
J2VwaWtfcHl0aG9uJywgJy1waCcsICc3LjAnLCAnLXRuJywgJzgnLCAnLW1hJywgJzIwMCcsICctbWV0YWxfYmluZGluZycsICctaW1hZScsICc8aW5maWxlLm1hZT4nLCAnLW9tYWUnLCAnPG91dGZpbGUubWFlPic=

> <r_lp_tautomer_probability>
1

> <r_epik_Ionization_Penalty>
4.05444e-05

> <r_epik_Ionization_Penalty_Charging>
0

> <r_epik_Ionization_Penalty_Neutral>
4.05444e-05

> <r_epik_State_Penalty>
-0

> <r_epik_Charging_Adjusted_Penalty>
0

> <i_epik_Tot_Q>
0

> <i_epik_Tot_abs_Q>
0

> <r_epik_Metal_State_Penalty>
-0

> <b_epik_Metal_Only>
0

> <s_lp_Force_Field>
OPLS_2005

> <r_lp_Energy>
-2.34744

> <b_lp_Chiralities_Consistent>
1

> <s_lp_Variant>
AV-unprocessed.smi:1537-2

> <Gold.Version>
5.8.1

> <Gold.Id.Protein>
6NUR|6NUR_protein|mol2

> <Gold.PLP.Fitness>
40.0076

> <Gold.PLP.PLP>
-35.2726

> <Gold.PLP.part.hbond>
-2.2812

> <Gold.PLP.part.metal>
0.0000

> <Gold.PLP.part.buried>
-3.6067

> <Gold.PLP.part.nonpolar>
-30.5458

> <Gold.PLP.part.repulsive>
0.2212

> <Gold.PLP.ligand.clash>
0.0000

> <Gold.PLP.ligand.torsion>
0.6890

> <Gold.PLP.Chemscore.Hbond>
1.1630

> <Gold.PLP.Chemscore.CHOScore>
0.8576

> <Gold.PLP.Chemscore.Metal>
0.0000

> <Gold.Chemscore.Hbonds>
donor molecule, donor type, donor heavy atom, donor atom, acceptor molecule, acceptor atom, score
      L1  H     9    28       P1  7948  0.09
      L1  H    14    33       P1 10175  1.00
      L1  C    19    43       P1  8028  0.92

> <Gold.PLP.Chemscore.Internal.Correction>
0.0513

> <Gold.Rescore>
     Score         DG    S(hbond)    S(metal)    S(lipo)     H(rot)  DE(clash)    DE(int)     intcor
     14.61     -16.46       1.80        0.00      83.37       1.88       0.17       1.67       ----

> <Gold.Chemscore.Fitness>
14.6119

> <Gold.Chemscore.DG>
-16.4575

> <Gold.Chemscore.ZeroCoef>
-5.4800

> <Gold.Chemscore.Hbond>
1.8045

> <Gold.Chemscore.Metal>
0.0000

> <Gold.Chemscore.Lipo>
83.3721

> <Gold.Chemscore.Internal_Hbond>
0.0000

> <Gold.Chemscore.DEClash>
0.1746

> <Gold.Chemscore.DEInternal>
1.6710

> <Gold.Chemscore.Rot>
1.8766

> <Gold.Chemscore.Internal.Correction>
   9.000000E+99

> <Gold.Chemscore.Hbonds>
donor molecule, donor type, donor heavy atom, donor atom, acceptor molecule, acceptor atom, score
      L1  H     9    28       P1  7948  0.11
      L1  H    14    33       P1 10175  0.99

> <Gold.Chemscore.Hbond.Weighted>
-6.0272

> <Gold.Chemscore.Metal.Weighted>
-0.0000

> <Gold.Chemscore.Lipo.Weighted>
-9.7545

> <Gold.Chemscore.Internal_Hbond.Weighted>
0.0000

> <Gold.Chemscore.DEClash.Weighted>
0.1746

> <Gold.Chemscore.DEInternal.Weighted>
1.6710

> <Gold.Chemscore.Rot.Weighted>
4.8042

> <Gold.Chemscore.Internal.Correction.Weighted>
   9.000000E+99

> <Gold.Protein.RotatedTorsions>
[ 6907 6896 6895 6894 ] final  -76.43 input  -60.11 | X-H torsion
[ 7974 7965 7964 7962 ] final   22.91 input  175.53 | X-H torsion
[ 8008 7997 7996 7995 ] final  133.47 input   59.86 | X-H torsion
[ 10167 10162 10161 10158 ] final  -77.18 input  -65.29 | X-H torsion
[ 10718 10713 10712 10709 ] final   37.79 input   66.30 | X-H torsion
[ 10763 10752 10751 10750 ] final -122.53 input  -60.55 | X-H torsion
[ 11005 11000 10999 10996 ] final  -71.16 input  -57.11 | X-H torsion

> <Gold.Protein.ActiveResidues>
 VAL166  LYS551  ARG553  GLY616  TRP617  ASP618  TYR619  PRO620  LYS621  CYS622 
 ASP623  PHE694  ASN695  SER759  ASP760  ASP761  ALA762  ILE779  LEU786  VAL792 
 PHE793  MET794  SER795  GLU796  ALA797  LYS798  CYS799  TRP800  GLU811  SER814 

> <Gold.Protein.RotatedAtoms>
  150.7028  134.4574  159.5364 H   0  0  0  0  0  0  0  0  0  0  0  0  # atno 6907 bound_to 6896
  152.2255  134.8369  160.0489 H   0  0  0  0  0  0  0  0  0  0  0  0  # atno 6908 bound_to 6896
  151.9204  133.3549  159.3932 H   0  0  0  0  0  0  0  0  0  0  0  0  # atno 6909 bound_to 6896
  146.2008  139.7818  142.8763 H   0  0  0  0  0  0  0  0  0  0  0  0  # atno 7974 bound_to 7965
  156.2992  140.2520  156.3259 H   0  0  0  0  0  0  0  0  0  0  0  0  # atno 8008 bound_to 7997
  154.9191  140.0401  157.2007 H   0  0  0  0  0  0  0  0  0  0  0  0  # atno 8009 bound_to 7997
  154.8329  140.2878  155.5715 H   0  0  0  0  0  0  0  0  0  0  0  0  # atno 8010 bound_to 7997
  140.4792  143.2406  151.8084 H   0  0  0  0  0  0  0  0  0  0  0  0  # atno 10167 bound_to 10162
  157.3511  130.7599  149.6979 H   0  0  0  0  0  0  0  0  0  0  0  0  # atno 10718 bound_to 10713
  154.8691  135.4130  154.2796 H   0  0  0  0  0  0  0  0  0  0  0  0  # atno 10763 bound_to 10752
  153.3691  135.7007  153.6657 H   0  0  0  0  0  0  0  0  0  0  0  0  # atno 10764 bound_to 10752
  153.5526  135.3626  155.2738 H   0  0  0  0  0  0  0  0  0  0  0  0  # atno 10765 bound_to 10752
  141.1587  133.6810  156.6863 H   0  0  0  0  0  0  0  0  0  0  0  0  # atno 11005 bound_to 11000
  145.3491  141.0304  143.3349 LP  0  0  0  0  0  0  0  0  0  0  0  0  # atno 17320 bound_to 7965
  144.8679  139.5081  143.6782 LP  0  0  0  0  0  0  0  0  0  0  0  0  # atno 17321 bound_to 7965
  139.4830  144.4794  151.9326 LP  0  0  0  0  0  0  0  0  0  0  0  0  # atno 17342 bound_to 10162
  140.3879  144.2653  150.5902 LP  0  0  0  0  0  0  0  0  0  0  0  0  # atno 17343 bound_to 10162
  155.9722  130.4140  150.4111 LP  0  0  0  0  0  0  0  0  0  0  0  0  # atno 17370 bound_to 10713
  157.2174  131.0474  151.2565 LP  0  0  0  0  0  0  0  0  0  0  0  0  # atno 17371 bound_to 10713
  140.3064  134.8122  157.4140 LP  0  0  0  0  0  0  0  0  0  0  0  0  # atno 17394 bound_to 11000
  140.1217  134.5211  155.8178 LP  0  0  0  0  0  0  0  0  0  0  0  0  # atno 17395 bound_to 11000

$$$$
