AV-unprocessed.smi:1645|AV-procd|sdf|6612|dock1
  -GOLD-   22720 7313D 1   1.00000     0.00000
 Structure written by MMmdl.
 56 59  0  0  0  0  0  0  0  0  3 V2000
  146.5965  139.7529  153.7158 O   0  0  0  0  0  0  0  0  0  0  0  0
  147.4575  138.9690  153.3175 C   0  0  0  0  0  0  0  0  0  0  0  0
  148.7605  139.0104  153.6458 N   0  0  0  0  0  0  0  0  0  0  0  0
  149.4188  139.8897  154.5483 C   0  0  0  0  0  0  0  0  0  0  0  0
  150.5967  139.4315  155.1738 C   0  0  0  0  0  0  0  0  0  0  0  0
  151.2750  140.2610  156.0903 C   0  0  0  0  0  0  0  0  0  0  0  0
  150.7654  141.5502  156.3885 C   0  0  0  0  0  0  0  0  0  0  0  0
  151.3777  142.4534  157.2877 N   0  0  0  0  0  0  0  0  0  0  0  0
  151.2785  143.8780  156.9519 C   0  0  0  0  0  0  0  0  0  0  0  0
  152.3182  144.7113  157.7200 C   0  0  0  0  0  0  0  0  0  0  0  0
  152.2291  144.4511  159.2297 C   0  0  0  0  0  0  0  0  0  0  0  0
  152.3791  142.9489  159.5057 C   0  0  0  0  0  0  0  0  0  0  0  0
  151.3429  142.1306  158.7158 C   0  0  0  0  0  0  0  0  0  0  0  0
  149.6246  141.9394  155.7691 N   0  3  0  0  0  0  0  0  0  0  0  0
  148.9442  141.1794  154.8847 C   0  0  0  0  0  0  0  0  0  0  0  0
  147.1996  137.9646  152.4682 N   0  0  0  0  0  0  0  0  0  0  0  0
  145.8768  137.6484  151.9337 C   0  0  2  0  0  0  0  0  0  0  0  0
  144.8008  137.5035  153.0183 C   0  0  0  0  0  0  0  0  0  0  0  0
  143.8094  136.4653  152.4623 C   0  0  0  0  0  0  0  0  0  0  0  0
  144.3476  136.0427  151.1500 N   0  3  2  0  0  0  0  0  0  0  0  0
  143.9446  134.6952  150.6720 C   0  0  0  0  0  0  0  0  0  0  0  0
  144.7403  133.5639  151.3442 C   0  0  0  0  0  0  0  0  0  0  0  0
  146.2468  133.8047  151.2039 C   0  0  0  0  0  0  0  0  0  0  0  0
  146.6095  135.1633  151.8125 C   0  0  0  0  0  0  0  0  0  0  0  0
  145.8018  136.3178  151.1654 C   0  0  2  0  0  0  0  0  0  0  0  0
  149.3587  138.3483  153.1735 H   0  0  0  0  0  0  0  0  0  0  0  0
  150.9847  138.4476  154.9534 H   0  0  0  0  0  0  0  0  0  0  0  0
  152.1715  139.8822  156.5573 H   0  0  0  0  0  0  0  0  0  0  0  0
  151.4190  144.0544  155.8856 H   0  0  0  0  0  0  0  0  0  0  0  0
  150.2725  144.2217  157.1963 H   0  0  0  0  0  0  0  0  0  0  0  0
  153.3193  144.4623  157.3651 H   0  0  0  0  0  0  0  0  0  0  0  0
  152.1725  145.7719  157.5134 H   0  0  0  0  0  0  0  0  0  0  0  0
  153.0033  145.0107  159.7554 H   0  0  0  0  0  0  0  0  0  0  0  0
  151.2708  144.8055  159.6114 H   0  0  0  0  0  0  0  0  0  0  0  0
  153.3844  142.6280  159.2286 H   0  0  0  0  0  0  0  0  0  0  0  0
  152.2755  142.7515  160.5730 H   0  0  0  0  0  0  0  0  0  0  0  0
  150.3404  142.3228  159.1003 H   0  0  0  0  0  0  0  0  0  0  0  0
  151.5559  141.0728  158.8715 H   0  0  0  0  0  0  0  0  0  0  0  0
  148.0456  141.6351  154.4973 H   0  0  0  0  0  0  0  0  0  0  0  0
  147.9635  137.3691  152.1832 H   0  0  0  0  0  0  0  0  0  0  0  0
  145.5653  138.4524  151.2632 H   0  0  0  0  0  0  0  0  0  0  0  0
  145.2325  137.1345  153.9500 H   0  0  0  0  0  0  0  0  0  0  0  0
  144.3190  138.4574  153.2358 H   0  0  0  0  0  0  0  0  0  0  0  0
  143.7357  135.6188  153.1459 H   0  0  0  0  0  0  0  0  0  0  0  0
  142.8090  136.8809  152.3385 H   0  0  0  0  0  0  0  0  0  0  0  0
  142.8733  134.5556  150.8214 H   0  0  0  0  0  0  0  0  0  0  0  0
  144.1138  134.6591  149.5952 H   0  0  0  0  0  0  0  0  0  0  0  0
  144.4740  133.4905  152.3990 H   0  0  0  0  0  0  0  0  0  0  0  0
  144.4738  132.6071  150.8943 H   0  0  0  0  0  0  0  0  0  0  0  0
  146.8025  133.0094  151.7017 H   0  0  0  0  0  0  0  0  0  0  0  0
  146.5341  133.7779  150.1518 H   0  0  0  0  0  0  0  0  0  0  0  0
  146.4245  135.1286  152.8869 H   0  0  0  0  0  0  0  0  0  0  0  0
  147.6788  135.3393  151.6927 H   0  0  0  0  0  0  0  0  0  0  0  0
  146.1441  136.4521  150.1383 H   0  0  0  0  0  0  0  0  0  0  0  0
  143.9595  136.7019  150.4902 H   0  0  0  0  0  0  0  0  0  0  0  0
  149.2551  142.8657  155.9842 H   0  0  0  0  0  0  0  0  0  0  0  0
  1  2  2  0  0  0  0
  2  3  1  0  0  0  0
  2 16  1  0  0  0  0
  3  4  1  0  0  0  0
  3 26  1  0  0  0  0
  4 15  1  0  0  0  0
  4  5  2  0  0  0  0
  5  6  1  0  0  0  0
  5 27  1  0  0  0  0
  6  7  2  0  0  0  0
  6 28  1  0  0  0  0
  7  8  1  0  0  0  0
  7 14  1  0  0  0  0
  8 13  1  0  0  0  0
  8  9  1  0  0  0  0
  9 10  1  0  0  0  0
  9 29  1  0  0  0  0
  9 30  1  0  0  0  0
 10 11  1  0  0  0  0
 10 31  1  0  0  0  0
 10 32  1  0  0  0  0
 11 12  1  0  0  0  0
 11 33  1  0  0  0  0
 11 34  1  0  0  0  0
 12 13  1  0  0  0  0
 12 35  1  0  0  0  0
 12 36  1  0  0  0  0
 13 37  1  0  0  0  0
 13 38  1  0  0  0  0
 14 15  2  0  0  0  0
 14 56  1  0  0  0  0
 15 39  1  0  0  0  0
 16 17  1  0  0  0  0
 16 40  1  0  0  0  0
 17 25  1  0  0  0  0
 17 18  1  0  0  0  0
 17 41  1  0  0  0  0
 18 19  1  0  0  0  0
 18 42  1  0  0  0  0
 18 43  1  0  0  0  0
 19 20  1  0  0  0  0
 19 44  1  0  0  0  0
 19 45  1  0  0  0  0
 20 25  1  0  0  0  0
 20 21  1  0  0  0  0
 20 55  1  0  0  0  0
 21 22  1  0  0  0  0
 21 46  1  0  0  0  0
 21 47  1  0  0  0  0
 22 23  1  0  0  0  0
 22 48  1  0  0  0  0
 22 49  1  0  0  0  0
 23 24  1  0  0  0  0
 23 50  1  0  0  0  0
 23 51  1  0  0  0  0
 24 25  1  0  0  0  0
 24 52  1  0  0  0  0
 24 53  1  0  0  0  0
 25 54  1  0  0  0  0
M  CHG  1  14   1
M  CHG  1  20   1
M  END
> <s_m_source_file>
AV-unprocessed.smi

> <i_m_source_file_index>
1645

> <i_lp_mmshare_version>
43012

> <i_f3d_flags>
0

> <s_epik_input>
W0NIMl0xW0NIMl1bQ0gyXVtDSDJdW0NASF0oTjEyKVtDQEBIXShbQ0gyXVtDSDJdMilbTkhdQyg9TylbTkhdYzNbY0hdW2NIXWMobltjSF0zKU40W0NIMl1bQ0gyXVtDSDJdW0NIMl1bQ0gyXTQ=

> <s_epik_cmdline>
J2VwaWtfcHl0aG9uJywgJy1waCcsICc3LjAnLCAnLXRuJywgJzgnLCAnLW1hJywgJzIwMCcsICctbWV0YWxfYmluZGluZycsICctaW1hZScsICc8aW5maWxlLm1hZT4nLCAnLW9tYWUnLCAnPG91dGZpbGUubWFlPic=

> <r_lp_tautomer_probability>
0.999994

> <r_epik_Ionization_Penalty>
1.26838

> <r_epik_Ionization_Penalty_Charging>
1.26836

> <r_epik_Ionization_Penalty_Neutral>
1.95562e-05

> <r_epik_State_Penalty>
1.33841

> <r_epik_Charging_Adjusted_Penalty>
2.60677

> <i_epik_Tot_Q>
2

> <i_epik_Tot_abs_Q>
2

> <r_epik_Metal_State_Penalty>
1.40601

> <b_epik_Metal_Only>
0

> <s_lp_Force_Field>
OPLS_2005

> <r_lp_Energy>
60.1024

> <b_lp_Chiralities_Consistent>
1

> <s_lp_Variant>
AV-unprocessed.smi:1645-13

> <Gold.Version>
5.8.1

> <Gold.Id.Protein>
6NUR|6NUR_protein|mol2

> <Gold.PLP.Fitness>
58.3349

> <Gold.PLP.PLP>
-48.3225

> <Gold.PLP.part.hbond>
-4.1393

> <Gold.PLP.part.metal>
0.0000

> <Gold.PLP.part.buried>
3.3574

> <Gold.PLP.part.nonpolar>
-48.1781

> <Gold.PLP.part.repulsive>
0.4794

> <Gold.PLP.ligand.clash>
0.0000

> <Gold.PLP.ligand.torsion>
1.1249

> <Gold.PLP.Chemscore.Hbond>
3.9920

> <Gold.PLP.Chemscore.CHOScore>
0.0000

> <Gold.PLP.Chemscore.Metal>
0.0000

> <Gold.Chemscore.Hbonds>
donor molecule, donor type, donor heavy atom, donor atom, acceptor molecule, acceptor atom, score
      L1  H    14    56       P1  8028  2.00
      L1  H    16    40       P1  7948  0.98
      L1  H    20    55       P1 10171  0.99

> <Gold.PLP.Chemscore.Internal.Correction>
0.2861

> <Gold.Rescore>
     Score         DG    S(hbond)    S(metal)    S(lipo)     H(rot)  DE(clash)    DE(int)     intcor
     22.62     -28.01       2.92        0.00     131.14       1.00       2.16       3.24       ----

> <Gold.Chemscore.Fitness>
22.6174

> <Gold.Chemscore.DG>
-28.0092

> <Gold.Chemscore.ZeroCoef>
-5.4800

> <Gold.Chemscore.Hbond>
2.9178

> <Gold.Chemscore.Metal>
0.0000

> <Gold.Chemscore.Lipo>
131.1420

> <Gold.Chemscore.Internal_Hbond>
0.0000

> <Gold.Chemscore.DEClash>
2.1567

> <Gold.Chemscore.DEInternal>
3.2351

> <Gold.Chemscore.Rot>
1.0000

> <Gold.Chemscore.Internal.Correction>
   9.000000E+99

> <Gold.Chemscore.Hbonds>
donor molecule, donor type, donor heavy atom, donor atom, acceptor molecule, acceptor atom, score
      L1  H     3    26       P1  7948  0.01
      L1  H    14    56       P1  8028  0.98
      L1  H    16    40       P1  7948  0.92
      L1  H    20    55       P1 10171  0.91

> <Gold.Chemscore.Hbond.Weighted>
-9.7456

> <Gold.Chemscore.Metal.Weighted>
-0.0000

> <Gold.Chemscore.Lipo.Weighted>
-15.3436

> <Gold.Chemscore.Internal_Hbond.Weighted>
0.0000

> <Gold.Chemscore.DEClash.Weighted>
2.1567

> <Gold.Chemscore.DEInternal.Weighted>
3.2351

> <Gold.Chemscore.Rot.Weighted>
2.5600

> <Gold.Chemscore.Internal.Correction.Weighted>
   9.000000E+99

> <Gold.Protein.RotatedTorsions>
[ 6907 6896 6895 6894 ] final   11.21 input  -60.11 | X-H torsion
[ 7974 7965 7964 7962 ] final   36.71 input  175.53 | X-H torsion
[ 8008 7997 7996 7995 ] final   15.71 input   59.86 | X-H torsion
[ 10167 10162 10161 10158 ] final  136.34 input  -65.29 | X-H torsion
[ 10718 10713 10712 10709 ] final   36.77 input   66.30 | X-H torsion
[ 10763 10752 10751 10750 ] final -111.40 input  -60.55 | X-H torsion
[ 11005 11000 10999 10996 ] final -114.10 input  -57.11 | X-H torsion

> <Gold.Protein.ActiveResidues>
 VAL166  LYS551  ARG553  GLY616  TRP617  ASP618  TYR619  PRO620  LYS621  CYS622 
 ASP623  PHE694  ASN695  SER759  ASP760  ASP761  ALA762  ILE779  LEU786  VAL792 
 PHE793  MET794  SER795  GLU796  ALA797  LYS798  CYS799  TRP800  GLU811  SER814 

> <Gold.Protein.RotatedAtoms>
  151.7507  135.0833  160.0330 H   0  0  0  0  0  0  0  0  0  0  0  0  # atno 6907 bound_to 6896
  152.3419  133.6072  159.5890 H   0  0  0  0  0  0  0  0  0  0  0  0  # atno 6908 bound_to 6896
  150.7484  133.9626  159.3562 H   0  0  0  0  0  0  0  0  0  0  0  0  # atno 6909 bound_to 6896
  146.1191  139.5984  142.9301 H   0  0  0  0  0  0  0  0  0  0  0  0  # atno 7974 bound_to 7965
  154.8666  140.2952  155.5507 H   0  0  0  0  0  0  0  0  0  0  0  0  # atno 8008 bound_to 7997
  156.3021  140.2468  156.3581 H   0  0  0  0  0  0  0  0  0  0  0  0  # atno 8009 bound_to 7997
  154.8862  140.0396  157.1800 H   0  0  0  0  0  0  0  0  0  0  0  0  # atno 8010 bound_to 7997
  139.5183  144.6469  151.5413 H   0  0  0  0  0  0  0  0  0  0  0  0  # atno 10167 bound_to 10162
  157.3389  130.7537  149.6898 H   0  0  0  0  0  0  0  0  0  0  0  0  # atno 10718 bound_to 10713
  154.8298  135.4529  154.1033 H   0  0  0  0  0  0  0  0  0  0  0  0  # atno 10763 bound_to 10752
  153.2316  135.6906  153.7890 H   0  0  0  0  0  0  0  0  0  0  0  0  # atno 10764 bound_to 10752
  153.7271  135.3333  155.3254 H   0  0  0  0  0  0  0  0  0  0  0  0  # atno 10765 bound_to 10752
  141.0573  133.9592  157.2731 H   0  0  0  0  0  0  0  0  0  0  0  0  # atno 11005 bound_to 11000
  145.5503  141.0414  143.2282 LP  0  0  0  0  0  0  0  0  0  0  0  0  # atno 17320 bound_to 7965
  144.7581  139.7025  143.7246 LP  0  0  0  0  0  0  0  0  0  0  0  0  # atno 17321 bound_to 7965
  140.6258  143.9171  150.6563 LP  0  0  0  0  0  0  0  0  0  0  0  0  # atno 17342 bound_to 10162
  140.2459  143.3629  152.1447 LP  0  0  0  0  0  0  0  0  0  0  0  0  # atno 17343 bound_to 10162
  155.9705  130.4173  150.4275 LP  0  0  0  0  0  0  0  0  0  0  0  0  # atno 17370 bound_to 10713
  157.2319  131.0506  151.2487 LP  0  0  0  0  0  0  0  0  0  0  0  0  # atno 17371 bound_to 10713
  139.9401  135.0192  156.8682 LP  0  0  0  0  0  0  0  0  0  0  0  0  # atno 17394 bound_to 11000
  140.5938  134.0236  155.7510 LP  0  0  0  0  0  0  0  0  0  0  0  0  # atno 17395 bound_to 11000

$$$$
