AV-unprocessed.smi:2454|AV-procd|sdf|9695|dock5
  -GOLD-   2272013333D 1   1.00000     0.00000
 Structure written by MMmdl.
 42 43  0  0  0  0  0  0  0  0  1 V2000
  150.4418  140.8308  155.6384 C   0  0  0  0  0  0  0  0  0  0  0  0
  151.1658  139.8233  154.9544 O   0  0  0  0  0  0  0  0  0  0  0  0
  150.4948  138.5715  154.9568 C   0  0  0  0  0  0  0  0  0  0  0  0
  150.5509  137.8681  156.3018 C   0  0  0  0  0  0  0  0  0  0  0  0
  149.3649  137.5504  156.9971 C   0  0  0  0  0  0  0  0  0  0  0  0
  149.4948  136.9030  158.2467 C   0  0  0  0  0  0  0  0  0  0  0  0
  148.2671  136.5931  158.9024 N   0  0  0  0  0  0  0  0  0  0  0  0
  147.9214  136.6343  160.2071 C   0  0  0  0  0  0  0  0  0  0  0  0
  148.7279  136.9803  161.0689 O   0  0  0  0  0  0  0  0  0  0  0  0
  146.6607  136.2718  160.4942 N   0  0  0  0  0  0  0  0  0  0  0  0
  146.0452  136.2615  161.8190 C   0  0  2  0  0  0  0  0  0  0  0  0
  146.9109  135.4436  162.7957 C   0  0  0  0  0  0  0  0  0  0  0  0
  146.8782  133.9395  162.4757 C   0  0  0  0  0  0  0  0  0  0  0  0
  145.4368  133.4083  162.4335 C   0  0  0  0  0  0  0  0  0  0  0  0
  144.5655  134.1943  161.4306 C   0  0  1  0  0  0  0  0  0  0  0  0
  143.1212  133.6557  161.3743 C   0  0  0  0  0  0  0  0  0  0  0  0
  143.1110  132.3492  161.1067 F   0  0  0  0  0  0  0  0  0  0  0  0
  142.5115  133.8614  162.5418 F   0  0  0  0  0  0  0  0  0  0  0  0
  142.4324  134.2945  160.4285 F   0  0  0  0  0  0  0  0  0  0  0  0
  144.6068  135.7043  161.7603 C   0  0  0  0  0  0  0  0  0  0  0  0
  150.7310  136.6089  158.7251 N   0  0  0  0  0  0  0  0  0  0  0  0
  151.7896  136.9532  157.9885 C   0  0  0  0  0  0  0  0  0  0  0  0
  151.7680  137.5670  156.8056 N   0  0  0  0  0  0  0  0  0  0  0  0
  150.9963  141.7684  155.6030 H   0  0  0  0  0  0  0  0  0  0  0  0
  150.2932  140.5671  156.6862 H   0  0  0  0  0  0  0  0  0  0  0  0
  149.4676  140.9988  155.1775 H   0  0  0  0  0  0  0  0  0  0  0  0
  149.4468  138.7148  154.6889 H   0  0  0  0  0  0  0  0  0  0  0  0
  150.9369  137.9154  154.2053 H   0  0  0  0  0  0  0  0  0  0  0  0
  148.3965  137.7959  156.5854 H   0  0  0  0  0  0  0  0  0  0  0  0
  147.5435  136.2462  158.2897 H   0  0  0  0  0  0  0  0  0  0  0  0
  146.0695  135.9997  159.7211 H   0  0  0  0  0  0  0  0  0  0  0  0
  146.0078  137.2888  162.1859 H   0  0  0  0  0  0  0  0  0  0  0  0
  147.9397  135.8059  162.7840 H   0  0  0  0  0  0  0  0  0  0  0  0
  146.5468  135.5989  163.8121 H   0  0  0  0  0  0  0  0  0  0  0  0
  147.3656  133.7530  161.5179 H   0  0  0  0  0  0  0  0  0  0  0  0
  147.4525  133.3909  163.2228 H   0  0  0  0  0  0  0  0  0  0  0  0
  145.4508  132.3506  162.1696 H   0  0  0  0  0  0  0  0  0  0  0  0
  144.9993  133.4707  163.4307 H   0  0  0  0  0  0  0  0  0  0  0  0
  144.9979  134.0557  160.4383 H   0  0  0  0  0  0  0  0  0  0  0  0
  144.1244  135.8746  162.7236 H   0  0  0  0  0  0  0  0  0  0  0  0
  144.0216  136.2656  161.0309 H   0  0  0  0  0  0  0  0  0  0  0  0
  152.7610  136.7090  158.3922 H   0  0  0  0  0  0  0  0  0  0  0  0
  1  2  1  0  0  0  0
  1 24  1  0  0  0  0
  1 25  1  0  0  0  0
  1 26  1  0  0  0  0
  2  3  1  0  0  0  0
  3  4  1  0  0  0  0
  3 27  1  0  0  0  0
  3 28  1  0  0  0  0
  4 23  1  0  0  0  0
  4  5  2  0  0  0  0
  5  6  1  0  0  0  0
  5 29  1  0  0  0  0
  6  7  1  0  0  0  0
  6 21  2  0  0  0  0
  7  8  1  0  0  0  0
  7 30  1  0  0  0  0
  8  9  2  0  0  0  0
  8 10  1  0  0  0  0
 10 11  1  0  0  0  0
 10 31  1  0  0  0  0
 11 20  1  0  0  0  0
 11 12  1  0  0  0  0
 11 32  1  0  0  0  0
 12 13  1  0  0  0  0
 12 33  1  0  0  0  0
 12 34  1  0  0  0  0
 13 14  1  0  0  0  0
 13 35  1  0  0  0  0
 13 36  1  0  0  0  0
 14 15  1  0  0  0  0
 14 37  1  0  0  0  0
 14 38  1  0  0  0  0
 15 16  1  0  0  0  0
 15 20  1  0  0  0  0
 15 39  1  0  0  0  0
 16 17  1  0  0  0  0
 16 18  1  0  0  0  0
 16 19  1  0  0  0  0
 20 40  1  0  0  0  0
 20 41  1  0  0  0  0
 21 22  1  0  0  0  0
 22 23  2  0  0  0  0
 22 42  1  0  0  0  0
M  END
> <s_m_source_file>
AV-unprocessed.smi

> <i_m_source_file_index>
2454

> <i_lp_mmshare_version>
43012

> <i_f3d_flags>
0

> <s_epik_input>
W0NIM11PW0NIMl1jMVtjSF1jKG5bY0hdbjEpW05IXUMoPU8pW05IXVtDQEBIXTJbQ0gyXVtDSDJdW0NIMl1bQ0BASF0oQyhGKShGKUYpW0NIMl0y

> <s_epik_cmdline>
J2VwaWtfcHl0aG9uJywgJy1waCcsICc3LjAnLCAnLXRuJywgJzgnLCAnLW1hJywgJzIwMCcsICctbWV0YWxfYmluZGluZycsICctaW1hZScsICc8aW5maWxlLm1hZT4nLCAnLW9tYWUnLCAnPG91dGZpbGUubWFlPic=

> <r_lp_tautomer_probability>
1

> <r_epik_Ionization_Penalty>
3.01554e-05

> <r_epik_Ionization_Penalty_Charging>
0

> <r_epik_Ionization_Penalty_Neutral>
3.01554e-05

> <r_epik_State_Penalty>
-0

> <r_epik_Charging_Adjusted_Penalty>
0

> <i_epik_Tot_Q>
0

> <i_epik_Tot_abs_Q>
0

> <r_epik_Metal_State_Penalty>
-0

> <b_epik_Metal_Only>
0

> <s_lp_Force_Field>
OPLS_2005

> <r_lp_Energy>
13.8487

> <b_lp_Chiralities_Consistent>
1

> <s_lp_Variant>
AV-unprocessed.smi:2454-1

> <Gold.Version>
5.8.1

> <Gold.Id.Protein>
6NUR|6NUR_protein|mol2

> <Gold.PLP.Fitness>
41.4284

> <Gold.PLP.PLP>
-33.3462

> <Gold.PLP.part.hbond>
-3.2760

> <Gold.PLP.part.metal>
0.0000

> <Gold.PLP.part.buried>
-5.8107

> <Gold.PLP.part.nonpolar>
-25.6162

> <Gold.PLP.part.repulsive>
0.2723

> <Gold.PLP.ligand.clash>
0.0000

> <Gold.PLP.ligand.torsion>
0.3882

> <Gold.PLP.Chemscore.Hbond>
2.9440

> <Gold.PLP.Chemscore.CHOScore>
0.0000

> <Gold.PLP.Chemscore.Metal>
0.0000

> <Gold.Chemscore.Hbonds>
donor molecule, donor type, donor heavy atom, donor atom, acceptor molecule, acceptor atom, score
      P1  H  6896  6908       L1    21  0.91
      P1  H  6931  6943       L1     9  1.00
      P1  H  7989  7998       L1     2  0.80

> <Gold.PLP.Chemscore.Internal.Correction>
0.0266

> <Gold.Rescore>
     Score         DG    S(hbond)    S(metal)    S(lipo)     H(rot)  DE(clash)    DE(int)     intcor
     16.50     -18.10       2.63        0.00      67.89       1.60       0.01       1.60       ----

> <Gold.Chemscore.Fitness>
16.4995

> <Gold.Chemscore.DG>
-18.1030

> <Gold.Chemscore.ZeroCoef>
-5.4800

> <Gold.Chemscore.Hbond>
2.6302

> <Gold.Chemscore.Metal>
0.0000

> <Gold.Chemscore.Lipo>
67.8911

> <Gold.Chemscore.Internal_Hbond>
0.0000

> <Gold.Chemscore.DEClash>
0.0064

> <Gold.Chemscore.DEInternal>
1.5970

> <Gold.Chemscore.Rot>
1.6035

> <Gold.Chemscore.Internal.Correction>
   9.000000E+99

> <Gold.Chemscore.Hbonds>
donor molecule, donor type, donor heavy atom, donor atom, acceptor molecule, acceptor atom, score
      P1  H  6896  6908       L1    21  0.76
      P1  H  6931  6943       L1     9  0.91
      P1  H  7989  7998       L1     2  0.12

> <Gold.Chemscore.Hbond.Weighted>
-8.7848

> <Gold.Chemscore.Metal.Weighted>
-0.0000

> <Gold.Chemscore.Lipo.Weighted>
-7.9433

> <Gold.Chemscore.Internal_Hbond.Weighted>
0.0000

> <Gold.Chemscore.DEClash.Weighted>
0.0064

> <Gold.Chemscore.DEInternal.Weighted>
1.5970

> <Gold.Chemscore.Rot.Weighted>
4.1050

> <Gold.Chemscore.Internal.Correction.Weighted>
   9.000000E+99

> <Gold.Protein.RotatedTorsions>
[ 6907 6896 6895 6894 ] final -164.16 input  -60.11 | X-H torsion
[ 7974 7965 7964 7962 ] final -106.03 input  175.53 | X-H torsion
[ 8008 7997 7996 7995 ] final   52.32 input   59.86 | X-H torsion
[ 10167 10162 10161 10158 ] final -172.87 input  -65.29 | X-H torsion
[ 10718 10713 10712 10709 ] final -179.05 input   66.30 | X-H torsion
[ 10763 10752 10751 10750 ] final   53.59 input  -60.55 | X-H torsion
[ 11005 11000 10999 10996 ] final -108.63 input  -57.11 | X-H torsion

> <Gold.Protein.ActiveResidues>
 VAL166  LYS551  ARG553  GLY616  TRP617  ASP618  TYR619  PRO620  LYS621  CYS622 
 ASP623  PHE694  ASN695  SER759  ASP760  ASP761  ALA762  ILE779  LEU786  VAL792 
 PHE793  MET794  SER795  GLU796  ALA797  LYS798  CYS799  TRP800  GLU811  SER814 

> <Gold.Protein.RotatedAtoms>
  151.4075  133.3738  159.2739 H   0  0  0  0  0  0  0  0  0  0  0  0  # atno 6907 bound_to 6896
  150.9388  134.8800  159.7609 H   0  0  0  0  0  0  0  0  0  0  0  0  # atno 6908 bound_to 6896
  152.5062  134.4024  159.9473 H   0  0  0  0  0  0  0  0  0  0  0  0  # atno 6909 bound_to 6896
  145.2230  140.9141  143.3249 H   0  0  0  0  0  0  0  0  0  0  0  0  # atno 7974 bound_to 7965
  155.4499  140.3458  155.4299 H   0  0  0  0  0  0  0  0  0  0  0  0  # atno 8008 bound_to 7997
  156.1227  140.1491  156.9212 H   0  0  0  0  0  0  0  0  0  0  0  0  # atno 8009 bound_to 7997
  154.4835  140.0862  156.7412 H   0  0  0  0  0  0  0  0  0  0  0  0  # atno 8010 bound_to 7997
  139.5720  144.1620  152.1397 H   0  0  0  0  0  0  0  0  0  0  0  0  # atno 10167 bound_to 10162
  156.8533  130.9726  151.3090 H   0  0  0  0  0  0  0  0  0  0  0  0  # atno 10718 bound_to 10713
  152.9796  135.5774  154.4766 H   0  0  0  0  0  0  0  0  0  0  0  0  # atno 10763 bound_to 10752
  154.4321  135.2774  155.1907 H   0  0  0  0  0  0  0  0  0  0  0  0  # atno 10764 bound_to 10752
  154.3612  135.6188  153.5745 H   0  0  0  0  0  0  0  0  0  0  0  0  # atno 10765 bound_to 10752
  141.0891  133.9086  157.2117 H   0  0  0  0  0  0  0  0  0  0  0  0  # atno 11005 bound_to 11000
  144.9748  139.3843  143.6291 LP  0  0  0  0  0  0  0  0  0  0  0  0  # atno 17320 bound_to 7965
  146.3371  139.8862  142.8816 LP  0  0  0  0  0  0  0  0  0  0  0  0  # atno 17321 bound_to 7965
  140.1155  144.5419  150.6897 LP  0  0  0  0  0  0  0  0  0  0  0  0  # atno 17342 bound_to 10162
  140.7004  143.2431  151.4881 LP  0  0  0  0  0  0  0  0  0  0  0  0  # atno 17343 bound_to 10162
  157.6291  130.8715  149.9242 LP  0  0  0  0  0  0  0  0  0  0  0  0  # atno 17370 bound_to 10713
  156.0816  130.3672  150.0569 LP  0  0  0  0  0  0  0  0  0  0  0  0  # atno 17371 bound_to 10713
  139.9714  135.0127  156.9521 LP  0  0  0  0  0  0  0  0  0  0  0  0  # atno 17394 bound_to 11000
  140.5293  134.0829  155.7312 LP  0  0  0  0  0  0  0  0  0  0  0  0  # atno 17395 bound_to 11000

$$$$
