AV-unprocessed.smi:1619|AV-procd|sdf|6488|dock6
  -GOLD-   22720 7153D 1   1.00000     0.00000
 Structure written by MMmdl.
 44 46  0  0  0  0  0  0  0  0  2 V2000
  152.5826  143.7244  160.5338 C   0  0  0  0  0  0  0  0  0  0  0  0
  152.3599  142.7059  159.4298 C   0  0  0  0  0  0  0  0  0  0  0  0
  151.4490  143.0056  158.3921 C   0  0  0  0  0  0  0  0  0  0  0  0
  151.2119  142.0851  157.3482 C   0  0  0  0  0  0  0  0  0  0  0  0
  150.3763  142.1698  156.2480 N   0  0  0  0  0  0  0  0  0  0  0  0
  150.5950  141.0008  155.6539 C   0  0  0  0  0  0  0  0  0  0  0  0
  151.4856  140.1719  156.2326 N   0  0  0  0  0  0  0  0  0  0  0  0
  151.8882  138.8572  155.7670 C   0  0  0  0  0  0  0  0  0  0  0  0
  150.9722  138.3126  154.6528 C   0  0  1  0  0  0  0  0  0  0  0  0
  151.6187  137.2014  154.0665 O   0  0  0  0  0  0  0  0  0  0  0  0
  149.5802  137.8712  155.1557 C   0  0  0  0  0  0  0  0  0  0  0  0
  148.5232  138.0892  154.1402 N   0  3  0  0  0  0  0  0  0  0  0  0
  147.1802  137.6415  154.5587 C   0  0  0  0  0  0  0  0  0  0  0  0
  146.2139  138.4263  153.6782 C   0  0  0  0  0  0  0  0  0  0  0  0
  146.8922  139.7876  153.5603 C   0  0  0  0  0  0  0  0  0  0  0  0
  148.3940  139.4821  153.6460 C   0  0  0  0  0  0  0  0  0  0  0  0
  151.9172  140.8462  157.3701 C   0  0  0  0  0  0  0  0  0  0  0  0
  152.8249  140.5357  158.3982 C   0  0  0  0  0  0  0  0  0  0  0  0
  153.0511  141.4677  159.4327 C   0  0  0  0  0  0  0  0  0  0  0  0
  154.0351  141.1242  160.5374 C   0  0  0  0  0  0  0  0  0  0  0  0
  151.9622  144.6095  160.3906 H   0  0  0  0  0  0  0  0  0  0  0  0
  153.6241  144.0457  160.5524 H   0  0  0  0  0  0  0  0  0  0  0  0
  152.3343  143.2964  161.5052 H   0  0  0  0  0  0  0  0  0  0  0  0
  150.9217  143.9484  158.3904 H   0  0  0  0  0  0  0  0  0  0  0  0
  150.0834  140.7347  154.7402 H   0  0  0  0  0  0  0  0  0  0  0  0
  152.9184  138.9229  155.4142 H   0  0  0  0  0  0  0  0  0  0  0  0
  151.8927  138.1756  156.6193 H   0  0  0  0  0  0  0  0  0  0  0  0
  150.8633  139.0791  153.8855 H   0  0  0  0  0  0  0  0  0  0  0  0
  151.2132  137.0219  153.2313 H   0  0  0  0  0  0  0  0  0  0  0  0
  149.6110  136.8132  155.4208 H   0  0  0  0  0  0  0  0  0  0  0  0
  149.3014  138.4090  156.0629 H   0  0  0  0  0  0  0  0  0  0  0  0
  147.0634  136.5626  154.4536 H   0  0  0  0  0  0  0  0  0  0  0  0
  147.0142  137.9001  155.6060 H   0  0  0  0  0  0  0  0  0  0  0  0
  146.1436  137.9591  152.6950 H   0  0  0  0  0  0  0  0  0  0  0  0
  145.2088  138.4861  154.0974 H   0  0  0  0  0  0  0  0  0  0  0  0
  146.6208  140.3131  152.6441 H   0  0  0  0  0  0  0  0  0  0  0  0
  146.5975  140.4162  154.4019 H   0  0  0  0  0  0  0  0  0  0  0  0
  148.8899  140.1988  154.3030 H   0  0  0  0  0  0  0  0  0  0  0  0
  148.8668  139.5515  152.6658 H   0  0  0  0  0  0  0  0  0  0  0  0
  153.3421  139.5877  158.3925 H   0  0  0  0  0  0  0  0  0  0  0  0
  154.5058  140.1559  160.3646 H   0  0  0  0  0  0  0  0  0  0  0  0
  153.5274  141.0828  161.5014 H   0  0  0  0  0  0  0  0  0  0  0  0
  154.8252  141.8734  160.5938 H   0  0  0  0  0  0  0  0  0  0  0  0
  148.7654  137.5248  153.3378 H   0  0  0  0  0  0  0  0  0  0  0  0
  1  2  1  0  0  0  0
  1 21  1  0  0  0  0
  1 22  1  0  0  0  0
  1 23  1  0  0  0  0
  2 19  1  0  0  0  0
  2  3  2  0  0  0  0
  3  4  1  0  0  0  0
  3 24  1  0  0  0  0
  4 17  2  0  0  0  0
  4  5  1  0  0  0  0
  5  6  2  0  0  0  0
  6  7  1  0  0  0  0
  6 25  1  0  0  0  0
  7  8  1  0  0  0  0
  7 17  1  0  0  0  0
  8  9  1  0  0  0  0
  8 26  1  0  0  0  0
  8 27  1  0  0  0  0
  9 10  1  0  0  0  0
  9 11  1  0  0  0  0
  9 28  1  0  0  0  0
 10 29  1  0  0  0  0
 11 12  1  0  0  0  0
 11 30  1  0  0  0  0
 11 31  1  0  0  0  0
 12 16  1  0  0  0  0
 12 13  1  0  0  0  0
 12 44  1  0  0  0  0
 13 14  1  0  0  0  0
 13 32  1  0  0  0  0
 13 33  1  0  0  0  0
 14 15  1  0  0  0  0
 14 34  1  0  0  0  0
 14 35  1  0  0  0  0
 15 16  1  0  0  0  0
 15 36  1  0  0  0  0
 15 37  1  0  0  0  0
 16 38  1  0  0  0  0
 16 39  1  0  0  0  0
 17 18  1  0  0  0  0
 18 19  2  0  0  0  0
 18 40  1  0  0  0  0
 19 20  1  0  0  0  0
 20 41  1  0  0  0  0
 20 42  1  0  0  0  0
 20 43  1  0  0  0  0
M  CHG  1  12   1
M  END
> <s_m_source_file>
AV-unprocessed.smi

> <i_m_source_file_index>
1619

> <i_lp_mmshare_version>
43012

> <i_f3d_flags>
0

> <s_epik_input>
W0NIM11jKFtjSF0xKWMoW0NIM10pW2NIXWMoYzEyKW4oW2NIXW4yKVtDSDJdW0NASF0oW09IXSlbQ0gyXU4zW0NIMl1bQ0gyXVtDSDJdW0NIMl0z

> <s_epik_cmdline>
J2VwaWtfcHl0aG9uJywgJy1waCcsICc3LjAnLCAnLXRuJywgJzgnLCAnLW1hJywgJzIwMCcsICctbWV0YWxfYmluZGluZycsICctaW1hZScsICc8aW5maWxlLm1hZT4nLCAnLW9tYWUnLCAnPG91dGZpbGUubWFlPic=

> <r_epik_Ionization_Penalty>
0.0947557

> <r_epik_Ionization_Penalty_Charging>
0.00674132

> <r_epik_Ionization_Penalty_Neutral>
0.0880144

> <r_epik_State_Penalty>
0.0806172

> <r_epik_Charging_Adjusted_Penalty>
0.0873585

> <i_epik_Tot_Q>
1

> <i_epik_Tot_abs_Q>
1

> <r_epik_Metal_State_Penalty>
8.03852e-05

> <b_epik_Metal_Only>
0

> <s_lp_Force_Field>
OPLS_2005

> <r_lp_Energy>
32.1533

> <b_lp_Chiralities_Consistent>
1

> <s_lp_Variant>
AV-unprocessed.smi:1619-2

> <Gold.Version>
5.8.1

> <Gold.Id.Protein>
6NUR|6NUR_protein|mol2

> <Gold.PLP.Fitness>
50.1569

> <Gold.PLP.PLP>
-39.4626

> <Gold.PLP.part.hbond>
-3.0000

> <Gold.PLP.part.metal>
0.0000

> <Gold.PLP.part.buried>
-1.3398

> <Gold.PLP.part.nonpolar>
-35.1585

> <Gold.PLP.part.repulsive>
0.5408

> <Gold.PLP.ligand.clash>
0.0000

> <Gold.PLP.ligand.torsion>
0.6518

> <Gold.PLP.Chemscore.Hbond>
3.9913

> <Gold.PLP.Chemscore.CHOScore>
0.0000

> <Gold.PLP.Chemscore.Metal>
0.0000

> <Gold.Chemscore.Hbonds>
donor molecule, donor type, donor heavy atom, donor atom, acceptor molecule, acceptor atom, score
      L1  H    10    29       P1  7949  0.99
      L1  H    12    44       P1  7948  2.00
      P1  H 10752 10765       L1    10  0.99

> <Gold.PLP.Chemscore.Internal.Correction>
0.0241

> <Gold.Rescore>
     Score         DG    S(hbond)    S(metal)    S(lipo)     H(rot)  DE(clash)    DE(int)     intcor
     19.65     -20.79       2.47        0.00     104.53       2.02       0.15       0.99       ----

> <Gold.Chemscore.Fitness>
19.6499

> <Gold.Chemscore.DG>
-20.7882

> <Gold.Chemscore.ZeroCoef>
-5.4800

> <Gold.Chemscore.Hbond>
2.4720

> <Gold.Chemscore.Metal>
0.0000

> <Gold.Chemscore.Lipo>
104.5268

> <Gold.Chemscore.Internal_Hbond>
0.0000

> <Gold.Chemscore.DEClash>
0.1494

> <Gold.Chemscore.DEInternal>
0.9889

> <Gold.Chemscore.Rot>
2.0227

> <Gold.Chemscore.Internal.Correction>
   9.000000E+99

> <Gold.Chemscore.Hbonds>
donor molecule, donor type, donor heavy atom, donor atom, acceptor molecule, acceptor atom, score
      L1  H    10    29       P1  7949  0.53
      L1  H    12    44       P1  7948  0.99
      P1  H 10752 10765       L1    10  0.36

> <Gold.Chemscore.Hbond.Weighted>
-8.2565

> <Gold.Chemscore.Metal.Weighted>
-0.0000

> <Gold.Chemscore.Lipo.Weighted>
-12.2296

> <Gold.Chemscore.Internal_Hbond.Weighted>
0.0000

> <Gold.Chemscore.DEClash.Weighted>
0.1494

> <Gold.Chemscore.DEInternal.Weighted>
0.9889

> <Gold.Chemscore.Rot.Weighted>
5.1780

> <Gold.Chemscore.Internal.Correction.Weighted>
   9.000000E+99

> <Gold.Protein.RotatedTorsions>
[ 6907 6896 6895 6894 ] final  116.16 input  -60.11 | X-H torsion
[ 7974 7965 7964 7962 ] final  -19.62 input  175.53 | X-H torsion
[ 8008 7997 7996 7995 ] final  -68.13 input   59.86 | X-H torsion
[ 10167 10162 10161 10158 ] final   31.36 input  -65.29 | X-H torsion
[ 10718 10713 10712 10709 ] final -136.49 input   66.30 | X-H torsion
[ 10763 10752 10751 10750 ] final  160.73 input  -60.55 | X-H torsion
[ 11005 11000 10999 10996 ] final  113.53 input  -57.11 | X-H torsion

> <Gold.Protein.ActiveResidues>
 VAL166  LYS551  ARG553  GLY616  TRP617  ASP618  TYR619  PRO620  LYS621  CYS622 
 ASP623  PHE694  ASN695  SER759  ASP760  ASP761  ALA762  ILE779  LEU786  VAL792 
 PHE793  MET794  SER795  GLU796  ALA797  LYS798  CYS799  TRP800  GLU811  SER814 

> <Gold.Protein.RotatedAtoms>
  152.4696  133.7999  159.6946 H   0  0  0  0  0  0  0  0  0  0  0  0  # atno 6907 bound_to 6896
  150.8678  133.7540  159.2977 H   0  0  0  0  0  0  0  0  0  0  0  0  # atno 6908 bound_to 6896
  151.5085  135.1067  159.9899 H   0  0  0  0  0  0  0  0  0  0  0  0  # atno 6909 bound_to 6896
  146.1832  140.4087  142.8486 H   0  0  0  0  0  0  0  0  0  0  0  0  # atno 7974 bound_to 7965
  154.4846  140.0879  156.7458 H   0  0  0  0  0  0  0  0  0  0  0  0  # atno 8008 bound_to 7997
  155.4382  140.3452  155.4269 H   0  0  0  0  0  0  0  0  0  0  0  0  # atno 8009 bound_to 7997
  156.1243  140.1483  156.9147 H   0  0  0  0  0  0  0  0  0  0  0  0  # atno 8010 bound_to 7997
  140.4595  144.0927  150.6209 H   0  0  0  0  0  0  0  0  0  0  0  0  # atno 10167 bound_to 10162
  156.2777  130.7302  151.1290 H   0  0  0  0  0  0  0  0  0  0  0  0  # atno 10718 bound_to 10713
  154.2520  135.2771  155.2813 H   0  0  0  0  0  0  0  0  0  0  0  0  # atno 10763 bound_to 10752
  154.5457  135.5690  153.6881 H   0  0  0  0  0  0  0  0  0  0  0  0  # atno 10764 bound_to 10752
  152.9979  135.6262  154.2667 H   0  0  0  0  0  0  0  0  0  0  0  0  # atno 10765 bound_to 10752
  139.8955  134.9551  156.6753 H   0  0  0  0  0  0  0  0  0  0  0  0  # atno 11005 bound_to 11000
  144.8350  140.6768  143.6266 LP  0  0  0  0  0  0  0  0  0  0  0  0  # atno 17320 bound_to 7965
  145.4016  139.1596  143.4174 LP  0  0  0  0  0  0  0  0  0  0  0  0  # atno 17321 bound_to 7965
  140.4110  143.2657  151.9832 LP  0  0  0  0  0  0  0  0  0  0  0  0  # atno 17342 bound_to 10162
  139.4805  144.5915  151.7763 LP  0  0  0  0  0  0  0  0  0  0  0  0  # atno 17343 bound_to 10162
  157.7304  131.0616  150.5726 LP  0  0  0  0  0  0  0  0  0  0  0  0  # atno 17370 bound_to 10713
  156.5829  130.4309  149.5969 LP  0  0  0  0  0  0  0  0  0  0  0  0  # atno 17371 bound_to 10713
  140.7341  133.9033  155.8232 LP  0  0  0  0  0  0  0  0  0  0  0  0  # atno 17394 bound_to 11000
  141.0130  134.0995  157.4202 LP  0  0  0  0  0  0  0  0  0  0  0  0  # atno 17395 bound_to 11000

$$$$
