AV-unprocessed.smi:1914|AV-procd|sdf|7757|dock3
  -GOLD-   22720 9493D 1   1.00000     0.00000
 Structure written by MMmdl.
 44 45  0  0  0  0  0  0  0  0  2 V2000
  145.6182  135.8444  150.7733 C   0  0  0  0  0  0  0  0  0  0  0  0
  145.1524  134.8120  151.8158 C   0  0  1  0  0  0  0  0  0  0  0  0
  145.3043  133.3598  151.3265 C   0  0  0  0  0  0  0  0  0  0  0  0
  146.7756  132.9222  151.3318 C   0  0  0  0  0  0  0  0  0  0  0  0
  147.4178  133.1612  152.7072 C   0  0  0  0  0  0  0  0  0  0  0  0
  147.2821  134.5807  153.1249 N   0  3  2  0  0  0  0  0  0  0  0  0
  148.0219  134.8650  154.3800 C   0  0  0  0  0  0  0  0  0  0  0  0
  147.4568  134.0942  155.5899 C   0  0  0  0  0  0  0  0  0  0  0  0
  148.1611  134.4439  156.8173 N   0  0  0  0  0  0  0  0  0  0  0  0
  147.5867  134.5589  158.0243 C   0  0  0  0  0  0  0  0  0  0  0  0
  146.3789  134.4064  158.2113 O   0  0  0  0  0  0  0  0  0  0  0  0
  148.5206  134.9116  159.1898 C   0  0  0  0  0  0  0  0  0  0  0  0
  147.8230  134.9614  160.4855 N   0  0  0  0  0  0  0  0  0  0  0  0
  147.3393  133.7437  161.0039 C   0  0  0  0  0  0  0  0  0  0  0  0
  146.6926  133.6795  162.1784 C   0  0  0  0  0  0  0  0  0  0  0  0
  146.4958  134.9040  162.9177 C   0  0  0  0  0  0  0  0  0  0  0  0
  146.9578  136.0736  162.4330 C   0  0  0  0  0  0  0  0  0  0  0  0
  147.6688  136.1479  161.1513 C   0  0  0  0  0  0  0  0  0  0  0  0
  148.1019  137.2108  160.7042 O   0  0  0  0  0  0  0  0  0  0  0  0
  145.8543  134.9995  153.1769 C   0  0  0  0  0  0  0  0  0  0  0  0
  146.6855  135.7640  150.5673 H   0  0  0  0  0  0  0  0  0  0  0  0
  145.4259  136.8610  151.1173 H   0  0  0  0  0  0  0  0  0  0  0  0
  145.0881  135.7142  149.8293 H   0  0  0  0  0  0  0  0  0  0  0  0
  144.0875  134.9917  151.9699 H   0  0  0  0  0  0  0  0  0  0  0  0
  144.7351  132.6996  151.9824 H   0  0  0  0  0  0  0  0  0  0  0  0
  144.8765  133.2426  150.3302 H   0  0  0  0  0  0  0  0  0  0  0  0
  146.8480  131.8668  151.0679 H   0  0  0  0  0  0  0  0  0  0  0  0
  147.3300  133.4662  150.5665 H   0  0  0  0  0  0  0  0  0  0  0  0
  146.9575  132.5151  153.4567 H   0  0  0  0  0  0  0  0  0  0  0  0
  148.4724  132.8880  152.6578 H   0  0  0  0  0  0  0  0  0  0  0  0
  149.0812  134.6491  154.2322 H   0  0  0  0  0  0  0  0  0  0  0  0
  147.9548  135.9310  154.6030 H   0  0  0  0  0  0  0  0  0  0  0  0
  146.4018  134.3347  155.7245 H   0  0  0  0  0  0  0  0  0  0  0  0
  147.5139  133.0151  155.4447 H   0  0  0  0  0  0  0  0  0  0  0  0
  149.1577  134.5942  156.7489 H   0  0  0  0  0  0  0  0  0  0  0  0
  149.3407  134.1922  159.2376 H   0  0  0  0  0  0  0  0  0  0  0  0
  148.9921  135.8697  158.9675 H   0  0  0  0  0  0  0  0  0  0  0  0
  147.5332  132.8732  160.3943 H   0  0  0  0  0  0  0  0  0  0  0  0
  146.3321  132.7366  162.5625 H   0  0  0  0  0  0  0  0  0  0  0  0
  145.9770  134.8819  163.8647 H   0  0  0  0  0  0  0  0  0  0  0  0
  146.8019  136.9791  163.0007 H   0  0  0  0  0  0  0  0  0  0  0  0
  145.7669  136.0412  153.4827 H   0  0  0  0  0  0  0  0  0  0  0  0
  145.3406  134.4118  153.9397 H   0  0  0  0  0  0  0  0  0  0  0  0
  147.7246  135.1294  152.4018 H   0  0  0  0  0  0  0  0  0  0  0  0
  1  2  1  0  0  0  0
  1 21  1  0  0  0  0
  1 22  1  0  0  0  0
  1 23  1  0  0  0  0
  2 20  1  0  0  0  0
  2  3  1  0  0  0  0
  2 24  1  0  0  0  0
  3  4  1  0  0  0  0
  3 25  1  0  0  0  0
  3 26  1  0  0  0  0
  4  5  1  0  0  0  0
  4 27  1  0  0  0  0
  4 28  1  0  0  0  0
  5  6  1  0  0  0  0
  5 29  1  0  0  0  0
  5 30  1  0  0  0  0
  6  7  1  0  0  0  0
  6 20  1  0  0  0  0
  6 44  1  0  0  0  0
  7  8  1  0  0  0  0
  7 31  1  0  0  0  0
  7 32  1  0  0  0  0
  8  9  1  0  0  0  0
  8 33  1  0  0  0  0
  8 34  1  0  0  0  0
  9 10  1  0  0  0  0
  9 35  1  0  0  0  0
 10 11  2  0  0  0  0
 10 12  1  0  0  0  0
 12 13  1  0  0  0  0
 12 36  1  0  0  0  0
 12 37  1  0  0  0  0
 13 18  1  0  0  0  0
 13 14  1  0  0  0  0
 14 15  2  0  0  0  0
 14 38  1  0  0  0  0
 15 16  1  0  0  0  0
 15 39  1  0  0  0  0
 16 17  2  0  0  0  0
 16 40  1  0  0  0  0
 17 18  1  0  0  0  0
 17 41  1  0  0  0  0
 18 19  2  0  0  0  0
 20 42  1  0  0  0  0
 20 43  1  0  0  0  0
M  CHG  1   6   1
M  END
> <s_m_source_file>
AV-unprocessed.smi

> <i_m_source_file_index>
1914

> <i_lp_mmshare_version>
43012

> <i_f3d_flags>
0

> <s_epik_input>
W0NIM11bQ0BASF0xW0NIMl1bQ0gyXVtDSDJdTihbQ0gyXTEpW0NIMl1bQ0gyXVtOSF1DKD1PKVtDSDJdbjJbY0hdW2NIXVtjSF1bY0hdYzI9Tw==

> <s_epik_cmdline>
J2VwaWtfcHl0aG9uJywgJy1waCcsICc3LjAnLCAnLXRuJywgJzgnLCAnLW1hJywgJzIwMCcsICctbWV0YWxfYmluZGluZycsICctaW1hZScsICc8aW5maWxlLm1hZT4nLCAnLW9tYWUnLCAnPG91dGZpbGUubWFlPic=

> <r_lp_tautomer_probability>
1

> <r_epik_Ionization_Penalty>
0.00192477

> <r_epik_Ionization_Penalty_Charging>
0.00192469

> <r_epik_Ionization_Penalty_Neutral>
8.16761e-08

> <r_epik_State_Penalty>
0.00131115

> <r_epik_Charging_Adjusted_Penalty>
0.00323584

> <i_epik_Tot_Q>
1

> <i_epik_Tot_abs_Q>
1

> <r_epik_Metal_State_Penalty>
-0

> <b_epik_Metal_Only>
0

> <s_lp_Force_Field>
OPLS_2005

> <r_lp_Energy>
26.9479

> <b_lp_Chiralities_Consistent>
1

> <s_lp_Variant>
AV-unprocessed.smi:1914-2

> <Gold.Version>
5.8.1

> <Gold.Id.Protein>
6NUR|6NUR_protein|mol2

> <Gold.PLP.Fitness>
42.4864

> <Gold.PLP.PLP>
-32.0730

> <Gold.PLP.part.hbond>
-3.0000

> <Gold.PLP.part.metal>
0.0000

> <Gold.PLP.part.buried>
0.0917

> <Gold.PLP.part.nonpolar>
-29.2492

> <Gold.PLP.part.repulsive>
0.0203

> <Gold.PLP.ligand.clash>
0.0000

> <Gold.PLP.ligand.torsion>
0.2407

> <Gold.PLP.Chemscore.Hbond>
3.6000

> <Gold.PLP.Chemscore.CHOScore>
0.0000

> <Gold.PLP.Chemscore.Metal>
0.0000

> <Gold.Chemscore.Hbonds>
donor molecule, donor type, donor heavy atom, donor atom, acceptor molecule, acceptor atom, score
      L1  H     6    44       P1  7948  2.00
      P1  H  6931  6943       L1    19  0.83
      P1  H  6934  6947       L1    19  0.70

> <Gold.PLP.Chemscore.Internal.Correction>
0.0948

> <Gold.Rescore>
     Score         DG    S(hbond)    S(metal)    S(lipo)     H(rot)  DE(clash)    DE(int)     intcor
     17.63     -18.14       2.65        0.00      73.32       1.86       0.17       0.34       ----

> <Gold.Chemscore.Fitness>
17.6280

> <Gold.Chemscore.DG>
-18.1365

> <Gold.Chemscore.ZeroCoef>
-5.4800

> <Gold.Chemscore.Hbond>
2.6456

> <Gold.Chemscore.Metal>
0.0000

> <Gold.Chemscore.Lipo>
73.3184

> <Gold.Chemscore.Internal_Hbond>
0.0000

> <Gold.Chemscore.DEClash>
0.1682

> <Gold.Chemscore.DEInternal>
0.3403

> <Gold.Chemscore.Rot>
1.8586

> <Gold.Chemscore.Internal.Correction>
   9.000000E+99

> <Gold.Chemscore.Hbonds>
donor molecule, donor type, donor heavy atom, donor atom, acceptor molecule, acceptor atom, score
      L1  H     6    44       P1  7948  0.94
      P1  H  6931  6943       L1    19  0.75
      P1  H  6934  6947       L1    19  0.64

> <Gold.Chemscore.Hbond.Weighted>
-8.8364

> <Gold.Chemscore.Metal.Weighted>
-0.0000

> <Gold.Chemscore.Lipo.Weighted>
-8.5783

> <Gold.Chemscore.Internal_Hbond.Weighted>
0.0000

> <Gold.Chemscore.DEClash.Weighted>
0.1682

> <Gold.Chemscore.DEInternal.Weighted>
0.3403

> <Gold.Chemscore.Rot.Weighted>
4.7581

> <Gold.Chemscore.Internal.Correction.Weighted>
   9.000000E+99

> <Gold.Protein.RotatedTorsions>
[ 6907 6896 6895 6894 ] final   65.31 input  -60.11 | X-H torsion
[ 7974 7965 7964 7962 ] final  -39.27 input  175.53 | X-H torsion
[ 8008 7997 7996 7995 ] final -115.98 input   59.86 | X-H torsion
[ 10167 10162 10161 10158 ] final  -18.81 input  -65.29 | X-H torsion
[ 10718 10713 10712 10709 ] final  -97.27 input   66.30 | X-H torsion
[ 10763 10752 10751 10750 ] final  120.74 input  -60.55 | X-H torsion
[ 11005 11000 10999 10996 ] final   -7.54 input  -57.11 | X-H torsion

> <Gold.Protein.ActiveResidues>
 VAL166  LYS551  ARG553  GLY616  TRP617  ASP618  TYR619  PRO620  LYS621  CYS622 
 ASP623  PHE694  ASN695  SER759  ASP760  ASP761  ALA762  ILE779  LEU786  VAL792 
 PHE793  MET794  SER795  GLU796  ALA797  LYS798  CYS799  TRP800  GLU811  SER814 

> <Gold.Protein.RotatedAtoms>
  152.4398  134.5614  159.9895 H   0  0  0  0  0  0  0  0  0  0  0  0  # atno 6907 bound_to 6896
  151.5715  133.3383  159.2998 H   0  0  0  0  0  0  0  0  0  0  0  0  # atno 6908 bound_to 6896
  150.8302  134.7585  159.6911 H   0  0  0  0  0  0  0  0  0  0  0  0  # atno 6909 bound_to 6896
  146.0411  140.6607  142.9086 H   0  0  0  0  0  0  0  0  0  0  0  0  # atno 7974 bound_to 7965
  155.0606  140.0393  157.2575 H   0  0  0  0  0  0  0  0  0  0  0  0  # atno 8008 bound_to 7997
  154.7063  140.2683  155.6647 H   0  0  0  0  0  0  0  0  0  0  0  0  # atno 8009 bound_to 7997
  156.2776  140.2730  156.1690 H   0  0  0  0  0  0  0  0  0  0  0  0  # atno 8010 bound_to 7997
  140.7262  143.4880  151.0029 H   0  0  0  0  0  0  0  0  0  0  0  0  # atno 10167 bound_to 10162
  156.0080  130.5187  150.6350 H   0  0  0  0  0  0  0  0  0  0  0  0  # atno 10718 bound_to 10713
  153.6031  135.3444  155.2952 H   0  0  0  0  0  0  0  0  0  0  0  0  # atno 10763 bound_to 10752
  154.8632  135.4232  154.2391 H   0  0  0  0  0  0  0  0  0  0  0  0  # atno 10764 bound_to 10752
  153.3224  135.7039  153.7091 H   0  0  0  0  0  0  0  0  0  0  0  0  # atno 10765 bound_to 10752
  140.7139  133.8885  155.8771 H   0  0  0  0  0  0  0  0  0  0  0  0  # atno 11005 bound_to 11000
  144.7075  140.3910  143.7106 LP  0  0  0  0  0  0  0  0  0  0  0  0  # atno 17320 bound_to 7965
  145.6882  139.1633  143.2662 LP  0  0  0  0  0  0  0  0  0  0  0  0  # atno 17321 bound_to 7965
  139.8583  143.7348  152.3175 LP  0  0  0  0  0  0  0  0  0  0  0  0  # atno 17342 bound_to 10162
  139.7554  144.7522  151.0443 LP  0  0  0  0  0  0  0  0  0  0  0  0  # atno 17343 bound_to 10162
  157.4141  131.0827  151.1193 LP  0  0  0  0  0  0  0  0  0  0  0  0  # atno 17370 bound_to 10713
  157.1816  130.6312  149.5674 LP  0  0  0  0  0  0  0  0  0  0  0  0  # atno 17371 bound_to 10713
  141.0061  134.1084  157.4269 LP  0  0  0  0  0  0  0  0  0  0  0  0  # atno 17394 bound_to 11000
  139.8865  135.0081  156.6500 LP  0  0  0  0  0  0  0  0  0  0  0  0  # atno 17395 bound_to 11000

$$$$
