AV-unprocessed.smi:673|AV-procd|sdf|3298|dock1
  -GOLD-   22720 0263D 1   1.00000     0.00000
 Structure written by MMmdl.
 45 46  0  0  0  0  0  0  0  0  1 V2000
  150.6693  137.4272  156.1086 C   0  0  0  0  0  0  0  0  0  0  0  0
  151.3797  138.7315  155.7131 C   0  0  1  0  0  0  0  0  0  0  0  0
  150.8399  139.3446  154.3990 C   0  0  0  0  0  0  0  0  0  0  0  0
  149.6289  140.1287  154.5752 N   0  0  0  0  0  0  0  0  0  0  0  0
  148.4660  139.8146  155.1490 C   0  0  0  0  0  0  0  0  0  0  0  0
  147.5754  140.7962  155.1265 N   0  0  0  0  0  0  0  0  0  0  0  0
  148.3037  141.7502  154.4737 C   0  0  0  0  0  0  0  0  0  0  0  0
  149.5401  141.4007  154.1196 N   0  0  0  0  0  0  0  0  0  0  0  0
  151.2866  139.6815  156.8189 N   0  0  0  0  0  0  0  0  0  0  0  0
  152.1973  139.8515  157.7935 C   0  0  0  0  0  0  0  0  0  0  0  0
  153.2325  139.1844  157.8434 O   0  0  0  0  0  0  0  0  0  0  0  0
  151.9139  140.8546  158.6665 N   0  0  0  0  0  0  0  0  0  0  0  0
  152.6564  141.0864  159.9225 C   0  0  0  0  0  0  0  0  0  0  0  0
  152.7783  142.5641  160.3452 C   0  0  0  0  0  0  0  0  0  0  0  0
  153.2110  143.5244  159.2162 C   0  0  0  0  0  0  0  0  0  0  0  0
  152.0797  144.0948  158.3172 C   0  0  0  0  0  0  0  0  0  0  0  0
  151.0875  144.9448  159.1431 C   0  0  0  0  0  0  0  0  0  0  0  0
  152.7327  145.0354  157.2837 C   0  0  0  0  0  0  0  0  0  0  0  0
  151.3230  142.9903  157.5355 C   0  0  0  0  0  0  0  0  0  0  0  0
  150.8239  141.7964  158.3725 C   0  0  0  0  0  0  0  0  0  0  0  0
  150.7081  136.6997  155.2973 H   0  0  0  0  0  0  0  0  0  0  0  0
  149.6208  137.5955  156.3569 H   0  0  0  0  0  0  0  0  0  0  0  0
  151.1438  136.9735  156.9795 H   0  0  0  0  0  0  0  0  0  0  0  0
  152.4333  138.4920  155.5602 H   0  0  0  0  0  0  0  0  0  0  0  0
  151.5962  139.9706  153.9232 H   0  0  0  0  0  0  0  0  0  0  0  0
  150.6206  138.5463  153.6891 H   0  0  0  0  0  0  0  0  0  0  0  0
  148.2693  138.8514  155.5965 H   0  0  0  0  0  0  0  0  0  0  0  0
  147.9108  142.7314  154.2521 H   0  0  0  0  0  0  0  0  0  0  0  0
  150.4756  140.2826  156.8303 H   0  0  0  0  0  0  0  0  0  0  0  0
  152.1874  140.5102  160.7209 H   0  0  0  0  0  0  0  0  0  0  0  0
  153.6790  140.7159  159.8386 H   0  0  0  0  0  0  0  0  0  0  0  0
  151.8610  142.9014  160.8235 H   0  0  0  0  0  0  0  0  0  0  0  0
  153.5283  142.6108  161.1356 H   0  0  0  0  0  0  0  0  0  0  0  0
  153.7273  144.3653  159.6812 H   0  0  0  0  0  0  0  0  0  0  0  0
  153.9651  143.0323  158.6002 H   0  0  0  0  0  0  0  0  0  0  0  0
  150.3678  145.4479  158.4963 H   0  0  0  0  0  0  0  0  0  0  0  0
  151.6061  145.7174  159.7116 H   0  0  0  0  0  0  0  0  0  0  0  0
  150.5096  144.3527  159.8506 H   0  0  0  0  0  0  0  0  0  0  0  0
  151.9893  145.4725  156.6157 H   0  0  0  0  0  0  0  0  0  0  0  0
  153.4566  144.5065  156.6626 H   0  0  0  0  0  0  0  0  0  0  0  0
  153.2598  145.8580  157.7682 H   0  0  0  0  0  0  0  0  0  0  0  0
  150.4650  143.4430  157.0369 H   0  0  0  0  0  0  0  0  0  0  0  0
  151.9512  142.6137  156.7269 H   0  0  0  0  0  0  0  0  0  0  0  0
  150.0325  141.2854  157.8211 H   0  0  0  0  0  0  0  0  0  0  0  0
  150.3336  142.1238  159.2885 H   0  0  0  0  0  0  0  0  0  0  0  0
  1  2  1  0  0  0  0
  1 21  1  0  0  0  0
  1 22  1  0  0  0  0
  1 23  1  0  0  0  0
  2  3  1  0  0  0  0
  2  9  1  0  0  0  0
  2 24  1  0  0  0  0
  3  4  1  0  0  0  0
  3 25  1  0  0  0  0
  3 26  1  0  0  0  0
  4  8  1  0  0  0  0
  4  5  1  0  0  0  0
  5  6  2  0  0  0  0
  5 27  1  0  0  0  0
  6  7  1  0  0  0  0
  7  8  2  0  0  0  0
  7 28  1  0  0  0  0
  9 10  1  0  0  0  0
  9 29  1  0  0  0  0
 10 11  2  0  0  0  0
 10 12  1  0  0  0  0
 12 20  1  0  0  0  0
 12 13  1  0  0  0  0
 13 14  1  0  0  0  0
 13 30  1  0  0  0  0
 13 31  1  0  0  0  0
 14 15  1  0  0  0  0
 14 32  1  0  0  0  0
 14 33  1  0  0  0  0
 15 16  1  0  0  0  0
 15 34  1  0  0  0  0
 15 35  1  0  0  0  0
 16 17  1  0  0  0  0
 16 18  1  0  0  0  0
 16 19  1  0  0  0  0
 17 36  1  0  0  0  0
 17 37  1  0  0  0  0
 17 38  1  0  0  0  0
 18 39  1  0  0  0  0
 18 40  1  0  0  0  0
 18 41  1  0  0  0  0
 19 20  1  0  0  0  0
 19 42  1  0  0  0  0
 19 43  1  0  0  0  0
 20 44  1  0  0  0  0
 20 45  1  0  0  0  0
M  END
> <s_m_source_file>
AV-unprocessed.smi

> <i_m_source_file_index>
673

> <i_lp_mmshare_version>
43012

> <i_f3d_flags>
0

> <s_epik_input>
bjFbY0hdbltjSF1uMVtDSDJdW0NAQEhdKFtDSDNdKVtOSF1DKD1PKU4oW0NIMl1bQ0gyXTIpW0NIMl1bQ0gyXVtDSDJdQzIoW0NIM10pW0NIM10=

> <s_epik_cmdline>
J2VwaWtfcHl0aG9uJywgJy1waCcsICc3LjAnLCAnLXRuJywgJzgnLCAnLW1hJywgJzIwMCcsICctbWV0YWxfYmluZGluZycsICctaW1hZScsICc8aW5maWxlLm1hZT4nLCAnLW9tYWUnLCAnPG91dGZpbGUubWFlPic=

> <r_lp_tautomer_probability>
1

> <r_epik_Ionization_Penalty>
0.000118908

> <r_epik_Ionization_Penalty_Charging>
0

> <r_epik_Ionization_Penalty_Neutral>
0.000118908

> <r_epik_State_Penalty>
-0

> <r_epik_Charging_Adjusted_Penalty>
0

> <i_epik_Tot_Q>
0

> <i_epik_Tot_abs_Q>
0

> <r_epik_Metal_State_Penalty>
-0

> <b_epik_Metal_Only>
0

> <s_lp_Force_Field>
OPLS_2005

> <r_lp_Energy>
39.1702

> <b_lp_Chiralities_Consistent>
1

> <s_lp_Variant>
AV-unprocessed.smi:673-2

> <Gold.Version>
5.8.1

> <Gold.Id.Protein>
6NUR|6NUR_protein|mol2

> <Gold.PLP.Fitness>
44.4183

> <Gold.PLP.PLP>
-41.9524

> <Gold.PLP.part.hbond>
-3.0000

> <Gold.PLP.part.metal>
0.0000

> <Gold.PLP.part.buried>
-3.0621

> <Gold.PLP.part.nonpolar>
-35.4534

> <Gold.PLP.part.repulsive>
0.3411

> <Gold.PLP.ligand.clash>
3.0542

> <Gold.PLP.ligand.torsion>
0.6355

> <Gold.PLP.Chemscore.Hbond>
1.6037

> <Gold.PLP.Chemscore.CHOScore>
0.6280

> <Gold.PLP.Chemscore.Metal>
0.0000

> <Gold.Chemscore.Hbonds>
donor molecule, donor type, donor heavy atom, donor atom, acceptor molecule, acceptor atom, score
      P1  H  7997  8009       L1    11  1.00
      P1  H  8011  8017       L1     8  0.63
      L1  C     7    28       P1  8028  0.65

> <Gold.PLP.Chemscore.Internal.Correction>
0.0958

> <Gold.Rescore>
     Score         DG    S(hbond)    S(metal)    S(lipo)     H(rot)  DE(clash)    DE(int)     intcor
     15.96     -18.51       1.42        0.00     111.67       1.86       1.78       0.77       ----

> <Gold.Chemscore.Fitness>
15.9638

> <Gold.Chemscore.DG>
-18.5099

> <Gold.Chemscore.ZeroCoef>
-5.4800

> <Gold.Chemscore.Hbond>
1.4161

> <Gold.Chemscore.Metal>
0.0000

> <Gold.Chemscore.Lipo>
111.6701

> <Gold.Chemscore.Internal_Hbond>
0.0000

> <Gold.Chemscore.DEClash>
1.7776

> <Gold.Chemscore.DEInternal>
0.7685

> <Gold.Chemscore.Rot>
1.8614

> <Gold.Chemscore.Internal.Correction>
   9.000000E+99

> <Gold.Chemscore.Hbonds>
donor molecule, donor type, donor heavy atom, donor atom, acceptor molecule, acceptor atom, score
      P1  H  7997  8009       L1    11  0.85
      P1  H  8011  8017       L1     8  0.23

> <Gold.Chemscore.Hbond.Weighted>
-4.7298

> <Gold.Chemscore.Metal.Weighted>
-0.0000

> <Gold.Chemscore.Lipo.Weighted>
-13.0654

> <Gold.Chemscore.Internal_Hbond.Weighted>
0.0000

> <Gold.Chemscore.DEClash.Weighted>
1.7776

> <Gold.Chemscore.DEInternal.Weighted>
0.7685

> <Gold.Chemscore.Rot.Weighted>
4.7653

> <Gold.Chemscore.Internal.Correction.Weighted>
   9.000000E+99

> <Gold.Protein.RotatedTorsions>
[ 6907 6896 6895 6894 ] final -173.07 input  -60.11 | X-H torsion
[ 7974 7965 7964 7962 ] final  -95.74 input  175.53 | X-H torsion
[ 8008 7997 7996 7995 ] final  150.57 input   59.86 | X-H torsion
[ 10167 10162 10161 10158 ] final  -94.14 input  -65.29 | X-H torsion
[ 10718 10713 10712 10709 ] final   22.76 input   66.30 | X-H torsion
[ 10763 10752 10751 10750 ] final -176.90 input  -60.55 | X-H torsion
[ 11005 11000 10999 10996 ] final  -81.89 input  -57.11 | X-H torsion

> <Gold.Protein.ActiveResidues>
 VAL166  LYS551  ARG553  GLY616  TRP617  ASP618  TYR619  PRO620  LYS621  CYS622 
 ASP623  PHE694  ASN695  SER759  ASP760  ASP761  ALA762  ILE779  LEU786  VAL792 
 PHE793  MET794  SER795  GLU796  ALA797  LYS798  CYS799  TRP800  GLU811  SER814 

> <Gold.Protein.RotatedAtoms>
  151.5502  133.3418  159.2951 H   0  0  0  0  0  0  0  0  0  0  0  0  # atno 6907 bound_to 6896
  150.8483  134.7802  159.6999 H   0  0  0  0  0  0  0  0  0  0  0  0  # atno 6908 bound_to 6896
  152.4535  134.5349  159.9873 H   0  0  0  0  0  0  0  0  0  0  0  0  # atno 6909 bound_to 6896
  145.3561  140.9484  143.2527 H   0  0  0  0  0  0  0  0  0  0  0  0  # atno 7974 bound_to 7965
  156.2710  140.2071  156.6038 H   0  0  0  0  0  0  0  0  0  0  0  0  # atno 8008 bound_to 7997
  154.6885  140.0532  157.0363 H   0  0  0  0  0  0  0  0  0  0  0  0  # atno 8009 bound_to 7997
  155.0899  140.3195  155.4579 H   0  0  0  0  0  0  0  0  0  0  0  0  # atno 8010 bound_to 7997
  140.3175  143.3068  152.0082 H   0  0  0  0  0  0  0  0  0  0  0  0  # atno 10167 bound_to 10162
  157.1568  130.6699  149.6030 H   0  0  0  0  0  0  0  0  0  0  0  0  # atno 10718 bound_to 10713
  154.5667  135.2824  155.0867 H   0  0  0  0  0  0  0  0  0  0  0  0  # atno 10763 bound_to 10752
  154.2255  135.6383  153.5162 H   0  0  0  0  0  0  0  0  0  0  0  0  # atno 10764 bound_to 10752
  153.0045  135.5524  154.6278 H   0  0  0  0  0  0  0  0  0  0  0  0  # atno 10765 bound_to 10752
  141.1665  133.7218  156.8490 H   0  0  0  0  0  0  0  0  0  0  0  0  # atno 11005 bound_to 11000
  144.8681  139.5078  143.6781 LP  0  0  0  0  0  0  0  0  0  0  0  0  # atno 17320 bound_to 7965
  146.2947  139.7243  142.9135 LP  0  0  0  0  0  0  0  0  0  0  0  0  # atno 17321 bound_to 7965
  139.4881  144.6337  151.7019 LP  0  0  0  0  0  0  0  0  0  0  0  0  # atno 17342 bound_to 10162
  140.5513  144.0420  150.6128 LP  0  0  0  0  0  0  0  0  0  0  0  0  # atno 17343 bound_to 10162
  155.9760  130.4725  150.6502 LP  0  0  0  0  0  0  0  0  0  0  0  0  # atno 17370 bound_to 10713
  157.4169  131.0831  151.1168 LP  0  0  0  0  0  0  0  0  0  0  0  0  # atno 17371 bound_to 10713
  140.1929  134.8952  157.3081 LP  0  0  0  0  0  0  0  0  0  0  0  0  # atno 17394 bound_to 11000
  140.2270  134.3954  155.7539 LP  0  0  0  0  0  0  0  0  0  0  0  0  # atno 17395 bound_to 11000

$$$$
