AV-unprocessed.smi:2379|AV-procd|sdf|9453|dock3
  -GOLD-   2272013 83D 1   1.00000     0.00000
 Structure written by MMmdl.
 53 55  0  0  0  0  0  0  0  0  2 V2000
  152.2121  145.5609  160.3811 C   0  0  0  0  0  0  0  0  0  0  0  0
  152.0607  144.2384  159.6594 C   0  0  0  0  0  0  0  0  0  0  0  0
  152.8287  143.1202  160.0361 C   0  0  0  0  0  0  0  0  0  0  0  0
  152.6423  141.9165  159.3289 C   0  0  0  0  0  0  0  0  0  0  0  0
  153.4361  140.6764  159.6822 C   0  0  0  0  0  0  0  0  0  0  0  0
  151.7662  141.7896  158.3090 N   0  0  0  0  0  0  0  0  0  0  0  0
  151.0207  142.8597  157.9378 C   0  0  0  0  0  0  0  0  0  0  0  0
  150.0662  142.8260  156.8864 N   0  0  0  0  0  0  0  0  0  0  0  0
  149.4696  141.7502  156.3433 C   0  0  0  0  0  0  0  0  0  0  0  0
  149.7013  140.5789  156.6435 O   0  0  0  0  0  0  0  0  0  0  0  0
  148.5750  142.1086  155.4102 N   0  0  0  0  0  0  0  0  0  0  0  0
  147.7677  141.1839  154.6138 C   0  0  2  0  0  0  0  0  0  0  0  0
  147.1048  141.9235  153.4388 C   0  0  0  0  0  0  0  0  0  0  0  0
  145.9665  142.8517  153.9037 C   0  0  0  0  0  0  0  0  0  0  0  0
  144.9538  142.1111  154.7012 N   0  3  2  0  0  0  0  0  0  0  0  0
  143.7734  142.9467  155.0457 C   0  0  0  0  0  0  0  0  0  0  0  0
  144.1308  144.4390  155.1975 C   0  0  2  0  0  0  0  0  0  0  0  0
  143.1659  145.1972  156.0882 C   0  0  0  0  0  0  0  0  0  0  0  0
  143.4553  146.6450  155.7098 C   0  0  0  0  0  0  0  0  0  0  0  0
  143.7856  146.6138  154.3263 O   0  0  0  0  0  0  0  0  0  0  0  0
  144.0527  145.2760  153.9173 C   0  0  0  0  0  0  0  0  0  0  0  0
  145.5718  141.4555  155.8835 C   0  0  0  0  0  0  0  0  0  0  0  0
  146.6837  140.4829  155.4571 C   0  0  0  0  0  0  0  0  0  0  0  0
  151.1425  144.1030  158.5984 C   0  0  0  0  0  0  0  0  0  0  0  0
  153.1594  145.6087  160.9190 H   0  0  0  0  0  0  0  0  0  0  0  0
  151.4026  145.6927  161.0992 H   0  0  0  0  0  0  0  0  0  0  0  0
  152.1832  146.3896  159.6732 H   0  0  0  0  0  0  0  0  0  0  0  0
  153.5414  143.1829  160.8457 H   0  0  0  0  0  0  0  0  0  0  0  0
  153.8523  140.7508  160.6873 H   0  0  0  0  0  0  0  0  0  0  0  0
  154.2582  140.5428  158.9791 H   0  0  0  0  0  0  0  0  0  0  0  0
  152.8029  139.7892  159.6440 H   0  0  0  0  0  0  0  0  0  0  0  0
  149.8027  143.7256  156.5127 H   0  0  0  0  0  0  0  0  0  0  0  0
  148.4566  143.0937  155.2242 H   0  0  0  0  0  0  0  0  0  0  0  0
  148.4395  140.4275  154.2038 H   0  0  0  0  0  0  0  0  0  0  0  0
  147.8493  142.4927  152.8807 H   0  0  0  0  0  0  0  0  0  0  0  0
  146.7002  141.1904  152.7397 H   0  0  0  0  0  0  0  0  0  0  0  0
  146.3650  143.6771  154.4959 H   0  0  0  0  0  0  0  0  0  0  0  0
  145.4928  143.2926  153.0257 H   0  0  0  0  0  0  0  0  0  0  0  0
  142.9685  142.7987  154.3239 H   0  0  0  0  0  0  0  0  0  0  0  0
  143.3717  142.6150  156.0043 H   0  0  0  0  0  0  0  0  0  0  0  0
  145.1305  144.5348  155.6253 H   0  0  0  0  0  0  0  0  0  0  0  0
  142.1342  144.9454  155.8377 H   0  0  0  0  0  0  0  0  0  0  0  0
  143.3167  145.0010  157.1502 H   0  0  0  0  0  0  0  0  0  0  0  0
  142.6112  147.3067  155.9052 H   0  0  0  0  0  0  0  0  0  0  0  0
  144.3163  147.0192  156.2651 H   0  0  0  0  0  0  0  0  0  0  0  0
  144.9721  145.2272  153.3335 H   0  0  0  0  0  0  0  0  0  0  0  0
  143.2287  144.9444  153.2842 H   0  0  0  0  0  0  0  0  0  0  0  0
  145.9721  142.2147  156.5572 H   0  0  0  0  0  0  0  0  0  0  0  0
  144.8231  140.9045  156.4489 H   0  0  0  0  0  0  0  0  0  0  0  0
  146.2429  139.6754  154.8710 H   0  0  0  0  0  0  0  0  0  0  0  0
  147.1209  140.0077  156.3357 H   0  0  0  0  0  0  0  0  0  0  0  0
  150.5405  144.9474  158.2948 H   0  0  0  0  0  0  0  0  0  0  0  0
  144.6129  141.3749  154.0995 H   0  0  0  0  0  0  0  0  0  0  0  0
  1  2  1  0  0  0  0
  1 25  1  0  0  0  0
  1 26  1  0  0  0  0
  1 27  1  0  0  0  0
  2 24  1  0  0  0  0
  2  3  2  0  0  0  0
  3  4  1  0  0  0  0
  3 28  1  0  0  0  0
  4  5  1  0  0  0  0
  4  6  2  0  0  0  0
  5 29  1  0  0  0  0
  5 30  1  0  0  0  0
  5 31  1  0  0  0  0
  6  7  1  0  0  0  0
  7  8  1  0  0  0  0
  7 24  2  0  0  0  0
  8  9  1  0  0  0  0
  8 32  1  0  0  0  0
  9 10  2  0  0  0  0
  9 11  1  0  0  0  0
 11 12  1  0  0  0  0
 11 33  1  0  0  0  0
 12 23  1  0  0  0  0
 12 13  1  0  0  0  0
 12 34  1  0  0  0  0
 13 14  1  0  0  0  0
 13 35  1  0  0  0  0
 13 36  1  0  0  0  0
 14 15  1  0  0  0  0
 14 37  1  0  0  0  0
 14 38  1  0  0  0  0
 15 16  1  0  0  0  0
 15 22  1  0  0  0  0
 15 53  1  0  0  0  0
 16 17  1  0  0  0  0
 16 39  1  0  0  0  0
 16 40  1  0  0  0  0
 17 21  1  0  0  0  0
 17 18  1  0  0  0  0
 17 41  1  0  0  0  0
 18 19  1  0  0  0  0
 18 42  1  0  0  0  0
 18 43  1  0  0  0  0
 19 20  1  0  0  0  0
 19 44  1  0  0  0  0
 19 45  1  0  0  0  0
 20 21  1  0  0  0  0
 21 46  1  0  0  0  0
 21 47  1  0  0  0  0
 22 23  1  0  0  0  0
 22 48  1  0  0  0  0
 22 49  1  0  0  0  0
 23 50  1  0  0  0  0
 23 51  1  0  0  0  0
 24 52  1  0  0  0  0
M  CHG  1  15   1
M  END
> <s_m_source_file>
AV-unprocessed.smi

> <i_m_source_file_index>
2379

> <i_lp_mmshare_version>
43012

> <i_f3d_flags>
0

> <s_epik_input>
W0NIM11jMVtjSF1jKFtDSDNdKW5jKFtjSF0xKVtOSF1DKD1PKVtOSF1bQ0hdMltDSDJdW0NIMl1OKFtDSDJdW0NIMl0yKVtDSDJdW0NAQEhdM1tDSDJdW0NIMl1PW0NIMl0z

> <s_epik_cmdline>
J2VwaWtfcHl0aG9uJywgJy1waCcsICc3LjAnLCAnLXRuJywgJzgnLCAnLW1hJywgJzIwMCcsICctbWV0YWxfYmluZGluZycsICctaW1hZScsICc8aW5maWxlLm1hZT4nLCAnLW9tYWUnLCAnPG91dGZpbGUubWFlPic=

> <r_epik_Ionization_Penalty>
0.00766556

> <r_epik_Ionization_Penalty_Charging>
0.00747775

> <r_epik_Ionization_Penalty_Neutral>
0.00018781

> <r_epik_State_Penalty>
0.00558817

> <r_epik_Charging_Adjusted_Penalty>
0.0130659

> <i_epik_Tot_Q>
1

> <i_epik_Tot_abs_Q>
1

> <r_epik_Metal_State_Penalty>
-0

> <b_epik_Metal_Only>
0

> <s_lp_Force_Field>
OPLS_2005

> <r_lp_Energy>
34.3762

> <b_lp_Chiralities_Consistent>
1

> <s_lp_Variant>
AV-unprocessed.smi:2379-3

> <Gold.Version>
5.8.1

> <Gold.Id.Protein>
6NUR|6NUR_protein|mol2

> <Gold.PLP.Fitness>
56.7348

> <Gold.PLP.PLP>
-46.7384

> <Gold.PLP.part.hbond>
-4.0000

> <Gold.PLP.part.metal>
0.0000

> <Gold.PLP.part.buried>
-7.1518

> <Gold.PLP.part.nonpolar>
-36.9451

> <Gold.PLP.part.repulsive>
0.1978

> <Gold.PLP.ligand.clash>
0.0000

> <Gold.PLP.ligand.torsion>
0.9641

> <Gold.PLP.Chemscore.Hbond>
3.9585

> <Gold.PLP.Chemscore.CHOScore>
0.0000

> <Gold.PLP.Chemscore.Metal>
0.0000

> <Gold.Chemscore.Hbonds>
donor molecule, donor type, donor heavy atom, donor atom, acceptor molecule, acceptor atom, score
      L1  H     8    32       P1  8028  1.00
      L1  H    11    33       P1  8028  0.98
      L1  H    15    53       P1 10175  1.92

> <Gold.PLP.Chemscore.Internal.Correction>
0.0491

> <Gold.Rescore>
     Score         DG    S(hbond)    S(metal)    S(lipo)     H(rot)  DE(clash)    DE(int)     intcor
     21.43     -24.15       2.71        0.00     112.26       1.37       0.44       2.29       ----

> <Gold.Chemscore.Fitness>
21.4280

> <Gold.Chemscore.DG>
-24.1543

> <Gold.Chemscore.ZeroCoef>
-5.4800

> <Gold.Chemscore.Hbond>
2.7106

> <Gold.Chemscore.Metal>
0.0000

> <Gold.Chemscore.Lipo>
112.2611

> <Gold.Chemscore.Internal_Hbond>
0.0000

> <Gold.Chemscore.DEClash>
0.4363

> <Gold.Chemscore.DEInternal>
2.2900

> <Gold.Chemscore.Rot>
1.3725

> <Gold.Chemscore.Internal.Correction>
   9.000000E+99

> <Gold.Chemscore.Hbonds>
donor molecule, donor type, donor heavy atom, donor atom, acceptor molecule, acceptor atom, score
      L1  H     8    32       P1  8028  0.96
      L1  H    11    33       P1  8028  0.92
      L1  H    15    53       P1 10175  0.40

> <Gold.Chemscore.Hbond.Weighted>
-9.0533

> <Gold.Chemscore.Metal.Weighted>
-0.0000

> <Gold.Chemscore.Lipo.Weighted>
-13.1346

> <Gold.Chemscore.Internal_Hbond.Weighted>
0.0000

> <Gold.Chemscore.DEClash.Weighted>
0.4363

> <Gold.Chemscore.DEInternal.Weighted>
2.2900

> <Gold.Chemscore.Rot.Weighted>
3.5136

> <Gold.Chemscore.Internal.Correction.Weighted>
   9.000000E+99

> <Gold.Protein.RotatedTorsions>
[ 6907 6896 6895 6894 ] final  118.64 input  -60.11 | X-H torsion
[ 7974 7965 7964 7962 ] final  -62.99 input  175.53 | X-H torsion
[ 8008 7997 7996 7995 ] final  -42.38 input   59.86 | X-H torsion
[ 10167 10162 10161 10158 ] final  106.99 input  -65.29 | X-H torsion
[ 10718 10713 10712 10709 ] final  -17.18 input   66.30 | X-H torsion
[ 10763 10752 10751 10750 ] final  120.89 input  -60.55 | X-H torsion
[ 11005 11000 10999 10996 ] final -120.05 input  -57.11 | X-H torsion

> <Gold.Protein.ActiveResidues>
 VAL166  LYS551  ARG553  GLY616  TRP617  ASP618  TYR619  PRO620  LYS621  CYS622 
 ASP623  PHE694  ASN695  SER759  ASP760  ASP761  ALA762  ILE779  LEU786  VAL792 
 PHE793  MET794  SER795  GLU796  ALA797  LYS798  CYS799  TRP800  GLU811  SER814 

> <Gold.Protein.RotatedAtoms>
  152.4528  133.7664  159.6774 H   0  0  0  0  0  0  0  0  0  0  0  0  # atno 6907 bound_to 6896
  150.8445  133.7873  159.3054 H   0  0  0  0  0  0  0  0  0  0  0  0  # atno 6908 bound_to 6896
  151.5487  135.1070  159.9996 H   0  0  0  0  0  0  0  0  0  0  0  0  # atno 6909 bound_to 6896
  145.7846  140.8743  143.0313 H   0  0  0  0  0  0  0  0  0  0  0  0  # atno 7974 bound_to 7965
  154.3999  140.1475  156.3346 H   0  0  0  0  0  0  0  0  0  0  0  0  # atno 8008 bound_to 7997
  155.8412  140.3462  155.5612 H   0  0  0  0  0  0  0  0  0  0  0  0  # atno 8009 bound_to 7997
  155.8084  140.0880  157.1908 H   0  0  0  0  0  0  0  0  0  0  0  0  # atno 8010 bound_to 7997
  139.6964  144.7101  151.1261 H   0  0  0  0  0  0  0  0  0  0  0  0  # atno 10167 bound_to 10162
  156.5771  130.4764  149.6337 H   0  0  0  0  0  0  0  0  0  0  0  0  # atno 10718 bound_to 10713
  153.6055  135.3440  155.2960 H   0  0  0  0  0  0  0  0  0  0  0  0  # atno 10763 bound_to 10752
  154.8628  135.4238  154.2366 H   0  0  0  0  0  0  0  0  0  0  0  0  # atno 10764 bound_to 10752
  153.3204  135.7038  153.7107 H   0  0  0  0  0  0  0  0  0  0  0  0  # atno 10765 bound_to 10752
  141.0172  134.0178  157.3334 H   0  0  0  0  0  0  0  0  0  0  0  0  # atno 11005 bound_to 11000
  144.6791  140.0037  143.7484 LP  0  0  0  0  0  0  0  0  0  0  0  0  # atno 17320 bound_to 7965
  146.0039  139.3114  143.0911 LP  0  0  0  0  0  0  0  0  0  0  0  0  # atno 17321 bound_to 7965
  140.7697  143.5486  150.9230 LP  0  0  0  0  0  0  0  0  0  0  0  0  # atno 17342 bound_to 10162
  139.9166  143.6656  152.3105 LP  0  0  0  0  0  0  0  0  0  0  0  0  # atno 17343 bound_to 10162
  156.2664  130.6992  151.1776 LP  0  0  0  0  0  0  0  0  0  0  0  0  # atno 17370 bound_to 10713
  157.7335  131.0590  150.5574 LP  0  0  0  0  0  0  0  0  0  0  0  0  # atno 17371 bound_to 10713
  139.9124  135.0192  156.7745 LP  0  0  0  0  0  0  0  0  0  0  0  0  # atno 17394 bound_to 11000
  140.6635  133.9623  155.7817 LP  0  0  0  0  0  0  0  0  0  0  0  0  # atno 17395 bound_to 11000

$$$$
