AV-unprocessed.smi:326|AV-procd|sdf|2344|dock2
  -GOLD-   2262022253D 1   1.00000     0.00000
 Structure written by MMmdl.
 44 45  0  0  0  0  0  0  0  0  1 V2000
  146.9882  136.2274  161.3776 C   0  0  0  0  0  0  0  0  0  0  0  0
  147.6635  137.2092  160.6121 O   0  0  0  0  0  0  0  0  0  0  0  0
  148.5404  136.6438  159.6523 C   0  0  0  0  0  0  0  0  0  0  0  0
  147.8146  136.4963  158.3050 C   0  0  0  0  0  0  0  0  0  0  0  0
  148.6990  136.8039  157.1752 N   0  0  0  0  0  0  0  0  0  0  0  0
  149.3040  138.0472  157.2598 N   0  0  0  0  0  0  0  0  0  0  0  0
  150.1221  138.4372  156.3363 C   0  0  0  0  0  0  0  0  0  0  0  0
  150.7936  139.7651  156.3919 C   0  0  0  0  0  0  0  0  0  0  0  0
  151.1251  140.3696  155.3706 O   0  0  0  0  0  0  0  0  0  0  0  0
  151.0098  140.2493  157.6284 N   0  0  0  0  0  0  0  0  0  0  0  0
  151.6427  141.5272  157.9387 C   0  0  2  0  0  0  0  0  0  0  0  0
  151.7986  141.7059  159.4624 C   0  0  0  0  0  0  0  0  0  0  0  0
  152.3984  143.0786  159.8077 C   0  0  0  0  0  0  0  0  0  0  0  0
  151.5682  144.2301  159.2088 C   0  0  1  0  0  0  0  0  0  0  0  0
  152.1774  145.5978  159.5488 C   0  0  0  0  0  0  0  0  0  0  0  0
  151.4136  144.0453  157.6868 C   0  0  0  0  0  0  0  0  0  0  0  0
  150.8083  142.6750  157.3424 C   0  0  0  0  0  0  0  0  0  0  0  0
  150.4199  137.5850  155.1977 C   0  0  0  0  0  0  0  0  0  0  0  0
  149.8234  136.3749  155.1292 C   0  0  0  0  0  0  0  0  0  0  0  0
  148.8962  135.9078  156.1611 C   0  0  0  0  0  0  0  0  0  0  0  0
  148.3461  134.8078  156.1207 O   0  0  0  0  0  0  0  0  0  0  0  0
  146.3356  136.7140  162.1023 H   0  0  0  0  0  0  0  0  0  0  0  0
  147.6924  135.6005  161.9260 H   0  0  0  0  0  0  0  0  0  0  0  0
  146.3708  135.5899  160.7433 H   0  0  0  0  0  0  0  0  0  0  0  0
  149.4066  137.2951  159.5287 H   0  0  0  0  0  0  0  0  0  0  0  0
  148.9098  135.6755  159.9939 H   0  0  0  0  0  0  0  0  0  0  0  0
  147.3794  135.4993  158.2176 H   0  0  0  0  0  0  0  0  0  0  0  0
  146.9648  137.1805  158.2836 H   0  0  0  0  0  0  0  0  0  0  0  0
  150.7074  139.6890  158.4124 H   0  0  0  0  0  0  0  0  0  0  0  0
  152.6315  141.5519  157.4761 H   0  0  0  0  0  0  0  0  0  0  0  0
  150.8275  141.6021  159.9485 H   0  0  0  0  0  0  0  0  0  0  0  0
  152.4335  140.9196  159.8724 H   0  0  0  0  0  0  0  0  0  0  0  0
  152.4596  143.1865  160.8912 H   0  0  0  0  0  0  0  0  0  0  0  0
  153.4225  143.1295  159.4352 H   0  0  0  0  0  0  0  0  0  0  0  0
  150.5731  144.1940  159.6549 H   0  0  0  0  0  0  0  0  0  0  0  0
  153.1748  145.7054  159.1212 H   0  0  0  0  0  0  0  0  0  0  0  0
  152.2611  145.7335  160.6275 H   0  0  0  0  0  0  0  0  0  0  0  0
  151.5602  146.4095  159.1624 H   0  0  0  0  0  0  0  0  0  0  0  0
  150.7837  144.8353  157.2763 H   0  0  0  0  0  0  0  0  0  0  0  0
  152.3861  144.1434  157.2020 H   0  0  0  0  0  0  0  0  0  0  0  0
  150.7420  142.5660  156.2591 H   0  0  0  0  0  0  0  0  0  0  0  0
  149.7861  142.6269  157.7210 H   0  0  0  0  0  0  0  0  0  0  0  0
  151.1008  137.9033  154.4216 H   0  0  0  0  0  0  0  0  0  0  0  0
  150.0363  135.7308  154.2888 H   0  0  0  0  0  0  0  0  0  0  0  0
  1  2  1  0  0  0  0
  1 22  1  0  0  0  0
  1 23  1  0  0  0  0
  1 24  1  0  0  0  0
  2  3  1  0  0  0  0
  3  4  1  0  0  0  0
  3 25  1  0  0  0  0
  3 26  1  0  0  0  0
  4  5  1  0  0  0  0
  4 27  1  0  0  0  0
  4 28  1  0  0  0  0
  5 20  1  0  0  0  0
  5  6  1  0  0  0  0
  6  7  2  0  0  0  0
  7  8  1  0  0  0  0
  7 18  1  0  0  0  0
  8  9  2  0  0  0  0
  8 10  1  0  0  0  0
 10 11  1  0  0  0  0
 10 29  1  0  0  0  0
 11 17  1  0  0  0  0
 11 12  1  0  0  0  0
 11 30  1  0  0  0  0
 12 13  1  0  0  0  0
 12 31  1  0  0  0  0
 12 32  1  0  0  0  0
 13 14  1  0  0  0  0
 13 33  1  0  0  0  0
 13 34  1  0  0  0  0
 14 15  1  0  0  0  0
 14 16  1  0  0  0  0
 14 35  1  0  0  0  0
 15 36  1  0  0  0  0
 15 37  1  0  0  0  0
 15 38  1  0  0  0  0
 16 17  1  0  0  0  0
 16 39  1  0  0  0  0
 16 40  1  0  0  0  0
 17 41  1  0  0  0  0
 17 42  1  0  0  0  0
 18 19  2  0  0  0  0
 18 43  1  0  0  0  0
 19 20  1  0  0  0  0
 19 44  1  0  0  0  0
 20 21  2  0  0  0  0
M  END
> <s_m_source_file>
AV-unprocessed.smi

> <i_m_source_file_index>
326

> <i_lp_mmshare_version>
43012

> <i_f3d_flags>
0

> <s_epik_input>
W0NIM11PW0NIMl1bQ0gyXW4xbmMoW2NIXVtjSF1jMT1PKUMoPU8pW05IXVtDQEBIXTJbQ0gyXVtDSDJdW0NAQEhdKFtDSDNdKVtDSDJdW0NIMl0y

> <s_epik_cmdline>
J2VwaWtfcHl0aG9uJywgJy1waCcsICc3LjAnLCAnLXRuJywgJzgnLCAnLW1hJywgJzIwMCcsICctbWV0YWxfYmluZGluZycsICctaW1hZScsICc8aW5maWxlLm1hZT4nLCAnLW9tYWUnLCAnPG91dGZpbGUubWFlPic=

> <r_lp_tautomer_probability>
1

> <r_epik_Ionization_Penalty>
6.47102e-07

> <r_epik_Ionization_Penalty_Charging>
6.8576e-09

> <r_epik_Ionization_Penalty_Neutral>
6.40245e-07

> <r_epik_State_Penalty>
-0

> <r_epik_Charging_Adjusted_Penalty>
6.8576e-09

> <i_epik_Tot_Q>
0

> <i_epik_Tot_abs_Q>
0

> <r_epik_Metal_State_Penalty>
-0

> <b_epik_Metal_Only>
0

> <s_lp_Force_Field>
OPLS_2005

> <r_lp_Energy>
29.5472

> <b_lp_Chiralities_Consistent>
1

> <s_lp_Variant>
AV-unprocessed.smi:326-1

> <Gold.Version>
5.8.1

> <Gold.Id.Protein>
6NUR|6NUR_protein|mol2

> <Gold.PLP.Fitness>
40.8756

> <Gold.PLP.PLP>
-34.4699

> <Gold.PLP.part.hbond>
-3.0000

> <Gold.PLP.part.metal>
0.0000

> <Gold.PLP.part.buried>
-4.6655

> <Gold.PLP.part.nonpolar>
-26.9050

> <Gold.PLP.part.repulsive>
0.1057

> <Gold.PLP.ligand.clash>
0.0000

> <Gold.PLP.ligand.torsion>
0.8775

> <Gold.PLP.Chemscore.Hbond>
2.6960

> <Gold.PLP.Chemscore.CHOScore>
0.0000

> <Gold.PLP.Chemscore.Metal>
0.0000

> <Gold.Chemscore.Hbonds>
donor molecule, donor type, donor heavy atom, donor atom, acceptor molecule, acceptor atom, score
      P1  H  6931  6943       L1     2  0.55
      P1  H  6934  6947       L1     2  0.94
      P1  H  7989  7998       L1     9  0.99

> <Gold.PLP.Chemscore.Internal.Correction>
0.0726

> <Gold.Rescore>
     Score         DG    S(hbond)    S(metal)    S(lipo)     H(rot)  DE(clash)    DE(int)     intcor
     19.63     -20.43       2.15        0.00     100.34       1.55       0.02       0.78       ----

> <Gold.Chemscore.Fitness>
19.6311

> <Gold.Chemscore.DG>
-20.4315

> <Gold.Chemscore.ZeroCoef>
-5.4800

> <Gold.Chemscore.Hbond>
2.1480

> <Gold.Chemscore.Metal>
0.0000

> <Gold.Chemscore.Lipo>
100.3358

> <Gold.Chemscore.Internal_Hbond>
0.0000

> <Gold.Chemscore.DEClash>
0.0235

> <Gold.Chemscore.DEInternal>
0.7769

> <Gold.Chemscore.Rot>
1.5478

> <Gold.Chemscore.Internal.Correction>
   9.000000E+99

> <Gold.Chemscore.Hbonds>
donor molecule, donor type, donor heavy atom, donor atom, acceptor molecule, acceptor atom, score
      P1  H  6931  6943       L1     2  0.13
      P1  H  6934  6947       L1     2  0.86
      P1  H  7989  7998       L1     9  0.91

> <Gold.Chemscore.Hbond.Weighted>
-7.1744

> <Gold.Chemscore.Metal.Weighted>
-0.0000

> <Gold.Chemscore.Lipo.Weighted>
-11.7393

> <Gold.Chemscore.Internal_Hbond.Weighted>
0.0000

> <Gold.Chemscore.DEClash.Weighted>
0.0235

> <Gold.Chemscore.DEInternal.Weighted>
0.7769

> <Gold.Chemscore.Rot.Weighted>
3.9623

> <Gold.Chemscore.Internal.Correction.Weighted>
   9.000000E+99

> <Gold.Protein.RotatedTorsions>
[ 6907 6896 6895 6894 ] final    4.65 input  -60.11 | X-H torsion
[ 7974 7965 7964 7962 ] final  171.58 input  175.53 | X-H torsion
[ 8008 7997 7996 7995 ] final  -27.16 input   59.86 | X-H torsion
[ 10167 10162 10161 10158 ] final   97.46 input  -65.29 | X-H torsion
[ 10718 10713 10712 10709 ] final -123.61 input   66.30 | X-H torsion
[ 10763 10752 10751 10750 ] final  178.33 input  -60.55 | X-H torsion
[ 11005 11000 10999 10996 ] final  110.27 input  -57.11 | X-H torsion

> <Gold.Protein.ActiveResidues>
 VAL166  LYS551  ARG553  GLY616  TRP617  ASP618  TYR619  PRO620  LYS621  CYS622 
 ASP623  PHE694  ASN695  SER759  ASP760  ASP761  ALA762  ILE779  LEU786  VAL792 
 PHE793  MET794  SER795  GLU796  ALA797  LYS798  CYS799  TRP800  GLU811  SER814 

> <Gold.Protein.RotatedAtoms>
  151.6447  135.1008  160.0148 H   0  0  0  0  0  0  0  0  0  0  0  0  # atno 6907 bound_to 6896
  152.4034  133.6848  159.6344 H   0  0  0  0  0  0  0  0  0  0  0  0  # atno 6908 bound_to 6896
  150.7931  133.8668  159.3288 H   0  0  0  0  0  0  0  0  0  0  0  0  # atno 6909 bound_to 6896
  144.7291  139.9371  143.6427 H   0  0  0  0  0  0  0  0  0  0  0  0  # atno 7974 bound_to 7965
  154.4390  140.1880  156.0888 H   0  0  0  0  0  0  0  0  0  0  0  0  # atno 8008 bound_to 7997
  156.0382  140.3323  155.7188 H   0  0  0  0  0  0  0  0  0  0  0  0  # atno 8009 bound_to 7997
  155.5739  140.0615  157.2790 H   0  0  0  0  0  0  0  0  0  0  0  0  # atno 8010 bound_to 7997
  139.7799  144.6892  151.0037 H   0  0  0  0  0  0  0  0  0  0  0  0  # atno 10167 bound_to 10162
  156.1517  130.6539  150.9922 H   0  0  0  0  0  0  0  0  0  0  0  0  # atno 10718 bound_to 10713
  154.5063  135.2786  155.1379 H   0  0  0  0  0  0  0  0  0  0  0  0  # atno 10763 bound_to 10752
  154.2993  135.6251  153.5421 H   0  0  0  0  0  0  0  0  0  0  0  0  # atno 10764 bound_to 10752
  152.9911  135.5693  154.5518 H   0  0  0  0  0  0  0  0  0  0  0  0  # atno 10765 bound_to 10752
  139.8878  134.9480  156.6253 H   0  0  0  0  0  0  0  0  0  0  0  0  # atno 11005 bound_to 11000
  146.0813  139.3801  143.0463 LP  0  0  0  0  0  0  0  0  0  0  0  0  # atno 17320 bound_to 7965
  145.7837  140.9845  143.1085 LP  0  0  0  0  0  0  0  0  0  0  0  0  # atno 17321 bound_to 7965
  140.7818  143.4494  151.0434 LP  0  0  0  0  0  0  0  0  0  0  0  0  # atno 17342 bound_to 10162
  139.8175  143.7865  152.3175 LP  0  0  0  0  0  0  0  0  0  0  0  0  # atno 17343 bound_to 10162
  157.6662  131.0871  150.7723 LP  0  0  0  0  0  0  0  0  0  0  0  0  # atno 17370 bound_to 10713
  156.7791  130.4853  149.5404 LP  0  0  0  0  0  0  0  0  0  0  0  0  # atno 17371 bound_to 10713
  140.7708  133.8740  155.8490 LP  0  0  0  0  0  0  0  0  0  0  0  0  # atno 17394 bound_to 11000
  140.9843  134.1363  157.4466 LP  0  0  0  0  0  0  0  0  0  0  0  0  # atno 17395 bound_to 11000

$$$$
