AV-unprocessed.smi:192|AV-procd|sdf|1495|dock4
  -GOLD-   2262019323D 1   1.00000     0.00000
 Structure written by MMmdl.
 58 60  0  0  0  0  0  0  0  0  1 V2000
  152.6312  142.3732  160.9442 C   0  0  0  0  0  0  0  0  0  0  0  0
  153.2264  142.2350  159.5353 C   0  0  0  0  0  0  0  0  0  0  0  0
  152.2050  142.4304  158.3899 C   0  0  0  0  0  0  0  0  0  0  0  0
  151.3427  143.6935  158.6105 C   0  0  0  0  0  0  0  0  0  0  0  0
  152.1572  144.9855  158.7743 C   0  0  0  0  0  0  0  0  0  0  0  0
  151.3092  141.1737  158.2378 C   0  0  0  0  0  0  0  0  0  0  0  0
  151.2688  140.6260  156.8805 N   0  0  0  0  0  0  0  0  0  0  0  0
  152.2122  139.5689  156.5220 C   0  0  0  0  0  0  0  0  0  0  0  0
  152.4688  139.4519  155.0086 C   0  0  0  0  0  0  0  0  0  0  0  0
  152.2065  138.1142  154.4556 C   0  0  0  0  0  0  0  0  0  0  0  0
  152.0007  137.0618  154.0212 N   0  0  0  0  0  0  0  0  0  0  0  0
  150.0713  140.5349  156.2530 C   0  0  0  0  0  0  0  0  0  0  0  0
  149.4037  141.6934  156.0229 N   0  0  0  0  0  0  0  0  0  0  0  0
  148.2055  141.6722  155.4324 C   0  0  0  0  0  0  0  0  0  0  0  0
  147.5112  140.6221  154.9907 N   0  0  0  0  0  0  0  0  0  0  0  0
  148.1886  139.4564  155.1975 C   0  0  0  0  0  0  0  0  0  0  0  0
  149.4632  139.3214  155.8176 C   0  0  0  0  0  0  0  0  0  0  0  0
  149.8289  137.9809  155.8517 N   0  0  0  0  0  0  0  0  0  0  0  0
  148.8219  137.3589  155.3035 C   0  0  0  0  0  0  0  0  0  0  0  0
  147.8046  138.1709  154.8573 N   0  0  0  0  0  0  0  0  0  0  0  0
  146.5715  137.7479  154.2618 C   0  0  0  0  0  0  0  0  0  0  0  0
  146.3555  136.2937  153.8383 C   0  0  0  0  0  0  0  0  0  0  0  0
  145.4496  136.7744  152.6814 C   0  0  0  0  0  0  0  0  0  0  0  0
  145.6363  136.0667  151.3278 C   0  0  0  0  0  0  0  0  0  0  0  0
  147.0007  135.9208  150.9916 O   0  0  0  0  0  0  0  0  0  0  0  0
  143.9420  136.8915  152.9917 C   0  0  0  0  0  0  0  0  0  0  0  0
  143.2739  137.7513  152.0918 O   0  0  0  0  0  0  0  0  0  0  0  0
  146.2205  138.1070  152.8160 C   0  0  0  0  0  0  0  0  0  0  0  0
  153.4150  142.3020  161.6985 H   0  0  0  0  0  0  0  0  0  0  0  0
  151.9029  141.5930  161.1613 H   0  0  0  0  0  0  0  0  0  0  0  0
  152.1399  143.3383  161.0705 H   0  0  0  0  0  0  0  0  0  0  0  0
  154.0185  142.9791  159.4496 H   0  0  0  0  0  0  0  0  0  0  0  0
  153.7169  141.2662  159.4347 H   0  0  0  0  0  0  0  0  0  0  0  0
  152.7665  142.5834  157.4680 H   0  0  0  0  0  0  0  0  0  0  0  0
  150.6333  143.8076  157.7899 H   0  0  0  0  0  0  0  0  0  0  0  0
  150.7410  143.5780  159.5107 H   0  0  0  0  0  0  0  0  0  0  0  0
  151.5037  145.8219  159.0230 H   0  0  0  0  0  0  0  0  0  0  0  0
  152.6901  145.2526  157.8625 H   0  0  0  0  0  0  0  0  0  0  0  0
  152.8900  144.8896  159.5760 H   0  0  0  0  0  0  0  0  0  0  0  0
  151.6678  140.3983  158.9157 H   0  0  0  0  0  0  0  0  0  0  0  0
  150.2910  141.3875  158.5530 H   0  0  0  0  0  0  0  0  0  0  0  0
  153.1575  139.7462  157.0363 H   0  0  0  0  0  0  0  0  0  0  0  0
  151.8404  138.6180  156.9046 H   0  0  0  0  0  0  0  0  0  0  0  0
  151.8766  140.1768  154.4501 H   0  0  0  0  0  0  0  0  0  0  0  0
  153.5148  139.6765  154.8004 H   0  0  0  0  0  0  0  0  0  0  0  0
  147.7341  142.6343  155.2960 H   0  0  0  0  0  0  0  0  0  0  0  0
  148.7982  136.2833  155.2039 H   0  0  0  0  0  0  0  0  0  0  0  0
  145.7834  138.0721  154.9434 H   0  0  0  0  0  0  0  0  0  0  0  0
  147.2735  135.8196  153.4857 H   0  0  0  0  0  0  0  0  0  0  0  0
  145.8616  135.6747  154.5877 H   0  0  0  0  0  0  0  0  0  0  0  0
  145.1645  135.0836  151.3259 H   0  0  0  0  0  0  0  0  0  0  0  0
  145.1638  136.6334  150.5250 H   0  0  0  0  0  0  0  0  0  0  0  0
  147.5238  136.2546  151.7040 H   0  0  0  0  0  0  0  0  0  0  0  0
  143.4519  135.9193  152.9362 H   0  0  0  0  0  0  0  0  0  0  0  0
  143.7768  137.2531  154.0071 H   0  0  0  0  0  0  0  0  0  0  0  0
  143.7380  138.5738  152.0610 H   0  0  0  0  0  0  0  0  0  0  0  0
  145.6106  139.0049  152.7102 H   0  0  0  0  0  0  0  0  0  0  0  0
  147.1047  138.1620  152.1779 H   0  0  0  0  0  0  0  0  0  0  0  0
  1  2  1  0  0  0  0
  1 29  1  0  0  0  0
  1 30  1  0  0  0  0
  1 31  1  0  0  0  0
  2  3  1  0  0  0  0
  2 32  1  0  0  0  0
  2 33  1  0  0  0  0
  3  4  1  0  0  0  0
  3  6  1  0  0  0  0
  3 34  1  0  0  0  0
  4  5  1  0  0  0  0
  4 35  1  0  0  0  0
  4 36  1  0  0  0  0
  5 37  1  0  0  0  0
  5 38  1  0  0  0  0
  5 39  1  0  0  0  0
  6  7  1  0  0  0  0
  6 40  1  0  0  0  0
  6 41  1  0  0  0  0
  7  8  1  0  0  0  0
  7 12  1  0  0  0  0
  8  9  1  0  0  0  0
  8 42  1  0  0  0  0
  8 43  1  0  0  0  0
  9 10  1  0  0  0  0
  9 44  1  0  0  0  0
  9 45  1  0  0  0  0
 10 11  3  0  0  0  0
 12 17  1  0  0  0  0
 12 13  2  0  0  0  0
 13 14  1  0  0  0  0
 14 15  2  0  0  0  0
 14 46  1  0  0  0  0
 15 16  1  0  0  0  0
 16 20  1  0  0  0  0
 16 17  2  0  0  0  0
 17 18  1  0  0  0  0
 18 19  2  0  0  0  0
 19 20  1  0  0  0  0
 19 47  1  0  0  0  0
 20 21  1  0  0  0  0
 21 28  1  0  0  0  0
 21 22  1  0  0  0  0
 21 48  1  0  0  0  0
 22 23  1  0  0  0  0
 22 49  1  0  0  0  0
 22 50  1  0  0  0  0
 23 24  1  0  0  0  0
 23 26  1  0  0  0  0
 23 28  1  0  0  0  0
 24 25  1  0  0  0  0
 24 51  1  0  0  0  0
 24 52  1  0  0  0  0
 25 53  1  0  0  0  0
 26 27  1  0  0  0  0
 26 54  1  0  0  0  0
 26 55  1  0  0  0  0
 27 56  1  0  0  0  0
 28 57  1  0  0  0  0
 28 58  1  0  0  0  0
M  END
> <s_m_source_file>
AV-unprocessed.smi

> <i_m_source_file_index>
192

> <i_lp_mmshare_version>
43012

> <i_f3d_flags>
0

> <s_epik_input>
W0NIM11bQ0gyXVtDSF0oW0NIMl1bQ0gzXSlbQ0gyXU4oW0NIMl1bQ0gyXUMjTiljKG5bY0hdbjEpYyhjMTIpbltjSF1uMltDSF0oW0NIMl0zKVtDSDJdQzMoW0NIMl1bT0hdKVtDSDJdW09IXQ==

> <s_epik_cmdline>
J2VwaWtfcHl0aG9uJywgJy1waCcsICc3LjAnLCAnLXRuJywgJzgnLCAnLW1hJywgJzIwMCcsICctbWV0YWxfYmluZGluZycsICctaW1hZScsICc8aW5maWxlLm1hZT4nLCAnLW9tYWUnLCAnPG91dGZpbGUubWFlPic=

> <r_lp_tautomer_probability>
1

> <r_epik_Ionization_Penalty>
0.000545077

> <r_epik_Ionization_Penalty_Charging>
0

> <r_epik_Ionization_Penalty_Neutral>
0.000545077

> <r_epik_State_Penalty>
0.000259443

> <r_epik_Charging_Adjusted_Penalty>
0.000259443

> <i_epik_Tot_Q>
0

> <i_epik_Tot_abs_Q>
0

> <r_epik_Metal_State_Penalty>
-0

> <b_epik_Metal_Only>
0

> <s_lp_Force_Field>
OPLS_2005

> <r_lp_Energy>
36.5324

> <b_lp_Chiralities_Consistent>
1

> <s_lp_Variant>
AV-unprocessed.smi:192-1

> <Gold.Version>
5.8.1

> <Gold.Id.Protein>
6NUR|6NUR_protein|mol2

> <Gold.PLP.Fitness>
48.7672

> <Gold.PLP.PLP>
-42.1405

> <Gold.PLP.part.hbond>
-3.8527

> <Gold.PLP.part.metal>
0.0000

> <Gold.PLP.part.buried>
-5.5546

> <Gold.PLP.part.nonpolar>
-34.5511

> <Gold.PLP.part.repulsive>
1.3174

> <Gold.PLP.ligand.clash>
0.0000

> <Gold.PLP.ligand.torsion>
2.6013

> <Gold.PLP.Chemscore.Hbond>
2.3680

> <Gold.PLP.Chemscore.CHOScore>
0.8915

> <Gold.PLP.Chemscore.Metal>
0.0000

> <Gold.Chemscore.Hbonds>
donor molecule, donor type, donor heavy atom, donor atom, acceptor molecule, acceptor atom, score
      L1  H    25    53       P1  7948  0.37
      L1  H    27    56       P1 10175  0.90
      P1  H 10752 10764       L1    11  1.00
      L1  C    14    46       P1  8028  0.88

> <Gold.PLP.Chemscore.Internal.Correction>
2.0509

> <Gold.Rescore>
     Score         DG    S(hbond)    S(metal)    S(lipo)     H(rot)  DE(clash)    DE(int)     intcor
      9.87     -13.97       2.31        0.00      99.90       4.27       0.35       3.75       ----

> <Gold.Chemscore.Fitness>
9.8714

> <Gold.Chemscore.DG>
-13.9655

> <Gold.Chemscore.ZeroCoef>
-5.4800

> <Gold.Chemscore.Hbond>
2.3111

> <Gold.Chemscore.Metal>
0.0000

> <Gold.Chemscore.Lipo>
99.8982

> <Gold.Chemscore.Internal_Hbond>
0.0000

> <Gold.Chemscore.DEClash>
0.3463

> <Gold.Chemscore.DEInternal>
3.7477

> <Gold.Chemscore.Rot>
4.2663

> <Gold.Chemscore.Internal.Correction>
   9.000000E+99

> <Gold.Chemscore.Hbonds>
donor molecule, donor type, donor heavy atom, donor atom, acceptor molecule, acceptor atom, score
      L1  H    25    53       P1  7948  0.37
      L1  H    27    56       P1 10175  0.88
      P1  H 10752 10764       L1    11  0.97

> <Gold.Chemscore.Hbond.Weighted>
-7.7192

> <Gold.Chemscore.Metal.Weighted>
-0.0000

> <Gold.Chemscore.Lipo.Weighted>
-11.6881

> <Gold.Chemscore.Internal_Hbond.Weighted>
0.0000

> <Gold.Chemscore.DEClash.Weighted>
0.3463

> <Gold.Chemscore.DEInternal.Weighted>
3.7477

> <Gold.Chemscore.Rot.Weighted>
10.9218

> <Gold.Chemscore.Internal.Correction.Weighted>
   9.000000E+99

> <Gold.Protein.RotatedTorsions>
[ 6907 6896 6895 6894 ] final   45.30 input  -60.11 | X-H torsion
[ 7974 7965 7964 7962 ] final  -71.38 input  175.53 | X-H torsion
[ 8008 7997 7996 7995 ] final -173.30 input   59.86 | X-H torsion
[ 10167 10162 10161 10158 ] final -146.07 input  -65.29 | X-H torsion
[ 10718 10713 10712 10709 ] final  -91.43 input   66.30 | X-H torsion
[ 10763 10752 10751 10750 ] final  -93.07 input  -60.55 | X-H torsion
[ 11005 11000 10999 10996 ] final  -90.21 input  -57.11 | X-H torsion

> <Gold.Protein.ActiveResidues>
 VAL166  LYS551  ARG553  GLY616  TRP617  ASP618  TYR619  PRO620  LYS621  CYS622 
 ASP623  PHE694  ASN695  SER759  ASP760  ASP761  ALA762  ILE779  LEU786  VAL792 
 PHE793  MET794  SER795  GLU796  ALA797  LYS798  CYS799  TRP800  GLU811  SER814 

> <Gold.Protein.RotatedAtoms>
  152.2428  134.8211  160.0457 H   0  0  0  0  0  0  0  0  0  0  0  0  # atno 6907 bound_to 6896
  151.8919  133.3513  159.3809 H   0  0  0  0  0  0  0  0  0  0  0  0  # atno 6908 bound_to 6896
  150.7059  134.4841  159.5528 H   0  0  0  0  0  0  0  0  0  0  0  0  # atno 6909 bound_to 6896
  145.6788  140.9195  143.0843 H   0  0  0  0  0  0  0  0  0  0  0  0  # atno 7974 bound_to 7965
  155.9556  140.1134  157.0940 H   0  0  0  0  0  0  0  0  0  0  0  0  # atno 8008 bound_to 7997
  154.4120  140.1192  156.5177 H   0  0  0  0  0  0  0  0  0  0  0  0  # atno 8009 bound_to 7997
  155.6786  140.3473  155.4849 H   0  0  0  0  0  0  0  0  0  0  0  0  # atno 8010 bound_to 7997
  139.7747  143.8187  152.2630 H   0  0  0  0  0  0  0  0  0  0  0  0  # atno 10167 bound_to 10162
  155.9994  130.4948  150.5473 H   0  0  0  0  0  0  0  0  0  0  0  0  # atno 10718 bound_to 10713
  154.6923  135.5208  153.8409 H   0  0  0  0  0  0  0  0  0  0  0  0  # atno 10763 bound_to 10752
  153.0641  135.6579  154.0404 H   0  0  0  0  0  0  0  0  0  0  0  0  # atno 10764 bound_to 10752
  154.0276  135.2988  155.3352 H   0  0  0  0  0  0  0  0  0  0  0  0  # atno 10765 bound_to 10752
  141.1570  133.7678  156.9705 H   0  0  0  0  0  0  0  0  0  0  0  0  # atno 11005 bound_to 11000
  144.7033  139.8669  143.7438 LP  0  0  0  0  0  0  0  0  0  0  0  0  # atno 17320 bound_to 7965
  146.0982  139.3976  143.0363 LP  0  0  0  0  0  0  0  0  0  0  0  0  # atno 17321 bound_to 7965
  139.8231  144.7287  150.9546 LP  0  0  0  0  0  0  0  0  0  0  0  0  # atno 17342 bound_to 10162
  140.7816  143.4140  151.0947 LP  0  0  0  0  0  0  0  0  0  0  0  0  # atno 17343 bound_to 10162
  157.3401  131.0715  151.1794 LP  0  0  0  0  0  0  0  0  0  0  0  0  # atno 17370 bound_to 10713
  157.2646  130.6675  149.5990 LP  0  0  0  0  0  0  0  0  0  0  0  0  # atno 17371 bound_to 10713
  140.1132  134.9464  157.2096 LP  0  0  0  0  0  0  0  0  0  0  0  0  # atno 17394 bound_to 11000
  140.3167  134.2963  155.7255 LP  0  0  0  0  0  0  0  0  0  0  0  0  # atno 17395 bound_to 11000

$$$$
