AV-unprocessed.smi:3330|AV-procd|sdf|12805|dock7
  -GOLD-   2272019173D 1   1.00000     0.00000
 Structure written by MMmdl.
 38 39  0  0  0  0  0  0  0  0  1 V2000
  150.4036  140.2782  158.2487 C   0  0  0  0  0  0  0  0  0  0  0  0
  151.5988  140.8666  157.4732 C   0  0  2  0  0  0  0  0  0  0  0  0
  152.4434  141.6044  158.4091 N   0  0  0  0  0  0  0  0  0  0  0  0
  152.7148  140.8533  159.6245 C   0  0  0  0  0  0  0  0  0  0  0  0
  153.8325  141.5535  160.4113 C   0  0  0  0  0  0  0  0  0  0  0  0
  153.2834  142.5365  161.3480 N   0  0  0  0  0  0  0  0  0  0  0  0
  153.6101  142.6073  162.6449 C   0  0  0  0  0  0  0  0  0  0  0  0
  154.3915  141.8842  163.2621 O   0  0  0  0  0  0  0  0  0  0  0  0
  152.8522  143.7597  163.2672 C   0  0  0  0  0  0  0  0  0  0  0  0
  152.1376  144.2286  162.0995 N   0  0  0  0  0  0  0  0  0  0  0  0
  152.4113  143.5030  161.0076 C   0  0  0  0  0  0  0  0  0  0  0  0
  151.9399  143.7020  159.8888 O   0  0  0  0  0  0  0  0  0  0  0  0
  151.1684  141.8276  156.3314 C   0  0  2  0  0  0  0  0  0  0  0  0
  150.5187  143.1278  156.8436 C   0  0  0  0  0  0  0  0  0  0  0  0
  150.2715  141.1633  155.3904 N   0  0  0  0  0  0  0  0  0  0  0  0
  149.0126  141.5605  154.9889 C   0  0  0  0  0  0  0  0  0  0  0  0
  148.5639  140.6441  154.0815 C   0  0  0  0  0  0  0  0  0  0  0  0
  149.6332  139.7111  153.9868 C   0  0  0  0  0  0  0  0  0  0  0  0
  150.6533  140.0237  154.7689 N   0  0  0  0  0  0  0  0  0  0  0  0
  149.7846  139.6503  157.6088 H   0  0  0  0  0  0  0  0  0  0  0  0
  149.7688  141.0650  158.6578 H   0  0  0  0  0  0  0  0  0  0  0  0
  150.7260  139.6484  159.0776 H   0  0  0  0  0  0  0  0  0  0  0  0
  152.1756  140.0514  157.0334 H   0  0  0  0  0  0  0  0  0  0  0  0
  152.0311  142.5006  158.6253 H   0  0  0  0  0  0  0  0  0  0  0  0
  151.8141  140.7805  160.2340 H   0  0  0  0  0  0  0  0  0  0  0  0
  153.0217  139.8387  159.3666 H   0  0  0  0  0  0  0  0  0  0  0  0
  154.4239  140.8156  160.9570 H   0  0  0  0  0  0  0  0  0  0  0  0
  154.5271  142.0404  159.7241 H   0  0  0  0  0  0  0  0  0  0  0  0
  152.1702  143.4193  164.0471 H   0  0  0  0  0  0  0  0  0  0  0  0
  153.5266  144.5212  163.6600 H   0  0  0  0  0  0  0  0  0  0  0  0
  151.5107  145.0199  162.1181 H   0  0  0  0  0  0  0  0  0  0  0  0
  152.0602  142.1136  155.7707 H   0  0  0  0  0  0  0  0  0  0  0  0
  151.2275  143.7399  157.4003 H   0  0  0  0  0  0  0  0  0  0  0  0
  149.6704  142.9213  157.4969 H   0  0  0  0  0  0  0  0  0  0  0  0
  150.1580  143.7364  156.0138 H   0  0  0  0  0  0  0  0  0  0  0  0
  148.5476  142.4554  155.3753 H   0  0  0  0  0  0  0  0  0  0  0  0
  147.6175  140.6427  153.5617 H   0  0  0  0  0  0  0  0  0  0  0  0
  149.6988  138.8227  153.3762 H   0  0  0  0  0  0  0  0  0  0  0  0
  1  2  1  0  0  0  0
  1 20  1  0  0  0  0
  1 21  1  0  0  0  0
  1 22  1  0  0  0  0
  2  3  1  0  0  0  0
  2 13  1  0  0  0  0
  2 23  1  0  0  0  0
  3  4  1  0  0  0  0
  3 24  1  0  0  0  0
  4  5  1  0  0  0  0
  4 25  1  0  0  0  0
  4 26  1  0  0  0  0
  5  6  1  0  0  0  0
  5 27  1  0  0  0  0
  5 28  1  0  0  0  0
  6 11  1  0  0  0  0
  6  7  1  0  0  0  0
  7  8  2  0  0  0  0
  7  9  1  0  0  0  0
  9 10  1  0  0  0  0
  9 29  1  0  0  0  0
  9 30  1  0  0  0  0
 10 11  1  0  0  0  0
 10 31  1  0  0  0  0
 11 12  2  0  0  0  0
 13 14  1  0  0  0  0
 13 15  1  0  0  0  0
 13 32  1  0  0  0  0
 14 33  1  0  0  0  0
 14 34  1  0  0  0  0
 14 35  1  0  0  0  0
 15 19  1  0  0  0  0
 15 16  1  0  0  0  0
 16 17  2  0  0  0  0
 16 36  1  0  0  0  0
 17 18  1  0  0  0  0
 17 37  1  0  0  0  0
 18 19  2  0  0  0  0
 18 38  1  0  0  0  0
M  END
> <s_m_source_file>
AV-unprocessed.smi

> <i_m_source_file_index>
3330

> <i_lp_mmshare_version>
43012

> <i_f3d_flags>
0

> <s_epik_input>
bjFbY0hdW2NIXVtjSF1uMVtDQEBIXShbQ0gzXSlbQ0BIXShbQ0gzXSlbTkhdW0NIMl1bQ0gyXU4yQyg9TylbQ0gyXVtOSF1DMj1P

> <s_epik_cmdline>
J2VwaWtfcHl0aG9uJywgJy1waCcsICc3LjAnLCAnLXRuJywgJzgnLCAnLW1hJywgJzIwMCcsICctbWV0YWxfYmluZGluZycsICctaW1hZScsICc8aW5maWxlLm1hZT4nLCAnLW9tYWUnLCAnPG91dGZpbGUubWFlPic=

> <r_lp_tautomer_probability>
1

> <r_epik_Ionization_Penalty>
2.2997

> <r_epik_Ionization_Penalty_Charging>
0

> <r_epik_Ionization_Penalty_Neutral>
2.2997

> <r_epik_State_Penalty>
2.44917

> <r_epik_Charging_Adjusted_Penalty>
2.44917

> <i_epik_Tot_Q>
0

> <i_epik_Tot_abs_Q>
0

> <r_epik_Metal_State_Penalty>
2.52438

> <b_epik_Metal_Only>
0

> <s_lp_Force_Field>
OPLS_2005

> <r_lp_Energy>
24.6484

> <b_lp_Chiralities_Consistent>
1

> <s_lp_Variant>
AV-unprocessed.smi:3330-5

> <Gold.Version>
5.8.1

> <Gold.Id.Protein>
6NUR|6NUR_protein|mol2

> <Gold.PLP.Fitness>
45.3892

> <Gold.PLP.PLP>
-38.7423

> <Gold.PLP.part.hbond>
-3.8840

> <Gold.PLP.part.metal>
0.0000

> <Gold.PLP.part.buried>
2.1035

> <Gold.PLP.part.nonpolar>
-36.4547

> <Gold.PLP.part.repulsive>
0.1874

> <Gold.PLP.ligand.clash>
0.0000

> <Gold.PLP.ligand.torsion>
0.4157

> <Gold.PLP.Chemscore.Hbond>
1.0000

> <Gold.PLP.Chemscore.CHOScore>
1.4580

> <Gold.PLP.Chemscore.Metal>
0.0000

> <Gold.Chemscore.Hbonds>
donor molecule, donor type, donor heavy atom, donor atom, acceptor molecule, acceptor atom, score
      P1  H  7989  7998       L1    19  0.60
      L1  C    16    36       P1  8028  1.00
      L1  C    18    38       P1  7957  0.33

> <Gold.PLP.Chemscore.Internal.Correction>
0.1044

> <Gold.Rescore>
     Score         DG    S(hbond)    S(metal)    S(lipo)     H(rot)  DE(clash)    DE(int)     intcor
      4.02      -7.73       0.17        0.00      70.99       2.60       1.84       1.87       ----

> <Gold.Chemscore.Fitness>
4.0165

> <Gold.Chemscore.DG>
-7.7260

> <Gold.Chemscore.ZeroCoef>
-5.4800

> <Gold.Chemscore.Hbond>
0.1749

> <Gold.Chemscore.Metal>
0.0000

> <Gold.Chemscore.Lipo>
70.9891

> <Gold.Chemscore.Internal_Hbond>
0.0000

> <Gold.Chemscore.DEClash>
1.8414

> <Gold.Chemscore.DEInternal>
1.8681

> <Gold.Chemscore.Rot>
2.5952

> <Gold.Chemscore.Internal.Correction>
   9.000000E+99

> <Gold.Chemscore.Hbonds>
donor molecule, donor type, donor heavy atom, donor atom, acceptor molecule, acceptor atom, score
      P1  H  7989  7998       L1    19  0.01

> <Gold.Chemscore.Hbond.Weighted>
-0.5840

> <Gold.Chemscore.Metal.Weighted>
-0.0000

> <Gold.Chemscore.Lipo.Weighted>
-8.3057

> <Gold.Chemscore.Internal_Hbond.Weighted>
0.0000

> <Gold.Chemscore.DEClash.Weighted>
1.8414

> <Gold.Chemscore.DEInternal.Weighted>
1.8681

> <Gold.Chemscore.Rot.Weighted>
6.6437

> <Gold.Chemscore.Internal.Correction.Weighted>
   9.000000E+99

> <Gold.Protein.RotatedTorsions>
[ 6907 6896 6895 6894 ] final  -92.94 input  -60.11 | X-H torsion
[ 7974 7965 7964 7962 ] final   85.39 input  175.53 | X-H torsion
[ 8008 7997 7996 7995 ] final  155.99 input   59.86 | X-H torsion
[ 10167 10162 10161 10158 ] final -122.19 input  -65.29 | X-H torsion
[ 10718 10713 10712 10709 ] final  124.64 input   66.30 | X-H torsion
[ 10763 10752 10751 10750 ] final   72.18 input  -60.55 | X-H torsion
[ 11005 11000 10999 10996 ] final -105.71 input  -57.11 | X-H torsion

> <Gold.Protein.ActiveResidues>
 VAL166  LYS551  ARG553  GLY616  TRP617  ASP618  TYR619  PRO620  LYS621  CYS622 
 ASP623  PHE694  ASN695  SER759  ASP760  ASP761  ALA762  ILE779  LEU786  VAL792 
 PHE793  MET794  SER795  GLU796  ALA797  LYS798  CYS799  TRP800  GLU811  SER814 

> <Gold.Protein.RotatedAtoms>
  150.6914  134.2044  159.4334 H   0  0  0  0  0  0  0  0  0  0  0  0  # atno 6907 bound_to 6896
  152.0008  134.9927  160.0574 H   0  0  0  0  0  0  0  0  0  0  0  0  # atno 6908 bound_to 6896
  152.1580  133.4529  159.4883 H   0  0  0  0  0  0  0  0  0  0  0  0  # atno 6909 bound_to 6896
  145.5862  139.2331  143.2325 H   0  0  0  0  0  0  0  0  0  0  0  0  # atno 7974 bound_to 7965
  156.2447  140.1924  156.6887 H   0  0  0  0  0  0  0  0  0  0  0  0  # atno 8008 bound_to 7997
  154.6268  140.0601  156.9709 H   0  0  0  0  0  0  0  0  0  0  0  0  # atno 8009 bound_to 7997
  155.1774  140.3273  155.4384 H   0  0  0  0  0  0  0  0  0  0  0  0  # atno 8010 bound_to 7997
  140.0169  143.5384  152.2238 H   0  0  0  0  0  0  0  0  0  0  0  0  # atno 10167 bound_to 10162
  157.5568  131.1091  150.8607 H   0  0  0  0  0  0  0  0  0  0  0  0  # atno 10718 bound_to 10713
  153.0443  135.5109  154.7706 H   0  0  0  0  0  0  0  0  0  0  0  0  # atno 10763 bound_to 10752
  154.6618  135.2940  154.9859 H   0  0  0  0  0  0  0  0  0  0  0  0  # atno 10764 bound_to 10752
  154.0707  135.6678  153.4876 H   0  0  0  0  0  0  0  0  0  0  0  0  # atno 10765 bound_to 10752
  141.1040  133.8831  157.1767 H   0  0  0  0  0  0  0  0  0  0  0  0  # atno 11005 bound_to 11000
  146.1680  140.6688  142.9246 LP  0  0  0  0  0  0  0  0  0  0  0  0  # atno 17320 bound_to 7965
  144.7372  140.4840  143.6895 LP  0  0  0  0  0  0  0  0  0  0  0  0  # atno 17321 bound_to 7965
  139.6166  144.7620  151.2832 LP  0  0  0  0  0  0  0  0  0  0  0  0  # atno 17342 bound_to 10162
  140.7358  143.6725  150.8069 LP  0  0  0  0  0  0  0  0  0  0  0  0  # atno 17343 bound_to 10162
  156.9116  130.5283  149.5280 LP  0  0  0  0  0  0  0  0  0  0  0  0  # atno 17370 bound_to 10713
  156.0626  130.5676  150.9224 LP  0  0  0  0  0  0  0  0  0  0  0  0  # atno 17371 bound_to 10713
  139.9903  135.0067  156.9958 LP  0  0  0  0  0  0  0  0  0  0  0  0  # atno 17394 bound_to 11000
  140.4949  134.1155  155.7239 LP  0  0  0  0  0  0  0  0  0  0  0  0  # atno 17395 bound_to 11000

$$$$
