AV-unprocessed.smi:109|AV-procd|sdf|1058|dock7
  -GOLD-   2262018133D 1   1.00000     0.00000
 Structure written by MMmdl.
 58 61  0  0  0  0  0  0  0  0  1 V2000
  146.8567  125.3826  154.1236 O   0  0  0  0  0  0  0  0  0  0  0  0
  147.9669  126.2375  153.9556 C   0  0  0  0  0  0  0  0  0  0  0  0
  147.9716  127.3101  155.0565 C   0  0  0  0  0  0  0  0  0  0  0  0
  149.0740  128.3742  154.8574 C   0  0  1  0  0  0  0  0  0  0  0  0
  148.7022  129.6069  155.5514 N   0  0  0  0  0  0  0  0  0  0  0  0
  148.7079  130.8048  154.9253 C   0  0  0  0  0  0  0  0  0  0  0  0
  149.5854  131.7827  155.2728 N   0  0  0  0  0  0  0  0  0  0  0  0
  149.5710  132.9549  154.6309 C   0  0  0  0  0  0  0  0  0  0  0  0
  148.7796  133.3492  153.6304 N   0  0  0  0  0  0  0  0  0  0  0  0
  147.8977  132.3692  153.2788 C   0  0  0  0  0  0  0  0  0  0  0  0
  147.7980  131.0811  153.8726 C   0  0  0  0  0  0  0  0  0  0  0  0
  146.7896  130.3553  153.2520 N   0  0  0  0  0  0  0  0  0  0  0  0
  146.3266  131.1705  152.3422 C   0  0  0  0  0  0  0  0  0  0  0  0
  146.9323  132.4096  152.2973 N   0  0  0  0  0  0  0  0  0  0  0  0
  146.6672  133.5707  151.3900 C   0  0  1  0  0  0  0  0  0  0  0  0
  146.0911  133.0779  150.2148 O   0  0  0  0  0  0  0  0  0  0  0  0
  144.6860  133.2761  150.2758 C   0  0  2  0  0  0  0  0  0  0  0  0
  143.9739  133.0166  148.9311 C   0  0  0  0  0  0  0  0  0  0  0  0
  142.7688  132.2911  149.0563 O   0  0  0  0  0  0  0  0  0  0  0  0
  144.5315  134.6224  150.9955 C   0  0  2  0  0  0  0  0  0  0  0  0
  144.7239  135.7189  150.1185 O   0  0  0  0  0  0  0  0  0  0  0  0
  145.6403  134.5214  152.0463 C   0  0  2  0  0  0  0  0  0  0  0  0
  146.1873  135.7787  152.3969 O   0  0  0  0  0  0  0  0  0  0  0  0
  150.4927  127.9040  155.2832 C   0  0  0  0  0  0  0  0  0  0  0  0
  151.5968  128.9125  154.8967 C   0  0  0  0  0  0  0  0  0  0  0  0
  152.9729  128.4673  155.4186 C   0  0  0  0  0  0  0  0  0  0  0  0
  153.3281  127.0581  154.9196 C   0  0  0  0  0  0  0  0  0  0  0  0
  152.2361  126.0453  155.2975 C   0  0  0  0  0  0  0  0  0  0  0  0
  150.8592  126.4898  154.7774 C   0  0  0  0  0  0  0  0  0  0  0  0
  147.6468  134.0101  151.1974 H   0  0  0  0  0  0  0  0  0  0  0  0
  144.3090  132.5129  150.9594 H   0  0  0  0  0  0  0  0  0  0  0  0
  143.5470  134.7216  151.4540 H   0  0  0  0  0  0  0  0  0  0  0  0
  145.2368  134.0522  152.9453 H   0  0  0  0  0  0  0  0  0  0  0  0
  146.7680  125.1832  155.0431 H   0  0  0  0  0  0  0  0  0  0  0  0
  148.8808  125.6442  153.9931 H   0  0  0  0  0  0  0  0  0  0  0  0
  147.9126  126.6912  152.9656 H   0  0  0  0  0  0  0  0  0  0  0  0
  146.9921  127.7880  155.1010 H   0  0  0  0  0  0  0  0  0  0  0  0
  148.1085  126.8079  156.0132 H   0  0  0  0  0  0  0  0  0  0  0  0
  149.1072  128.5837  153.7875 H   0  0  0  0  0  0  0  0  0  0  0  0
  148.4281  129.4977  156.5172 H   0  0  0  0  0  0  0  0  0  0  0  0
  150.2980  133.6797  154.9664 H   0  0  0  0  0  0  0  0  0  0  0  0
  145.5258  130.8814  151.6777 H   0  0  0  0  0  0  0  0  0  0  0  0
  143.7627  133.9637  148.4341 H   0  0  0  0  0  0  0  0  0  0  0  0
  144.6344  132.4549  148.2701 H   0  0  0  0  0  0  0  0  0  0  0  0
  142.0485  132.9029  149.0683 H   0  0  0  0  0  0  0  0  0  0  0  0
  145.2183  135.4208  149.3702 H   0  0  0  0  0  0  0  0  0  0  0  0
  147.0568  135.8381  152.0312 H   0  0  0  0  0  0  0  0  0  0  0  0
  150.4994  127.8602  156.3733 H   0  0  0  0  0  0  0  0  0  0  0  0
  151.6517  129.0250  153.8142 H   0  0  0  0  0  0  0  0  0  0  0  0
  151.3582  129.8979  155.2982 H   0  0  0  0  0  0  0  0  0  0  0  0
  153.7376  129.1772  155.1022 H   0  0  0  0  0  0  0  0  0  0  0  0
  152.9721  128.4795  156.5092 H   0  0  0  0  0  0  0  0  0  0  0  0
  153.4529  127.0743  153.8361 H   0  0  0  0  0  0  0  0  0  0  0  0
  154.2861  126.7458  155.3366 H   0  0  0  0  0  0  0  0  0  0  0  0
  152.4851  125.0630  154.8950 H   0  0  0  0  0  0  0  0  0  0  0  0
  152.1995  125.9343  156.3819 H   0  0  0  0  0  0  0  0  0  0  0  0
  150.1046  125.7680  155.0913 H   0  0  0  0  0  0  0  0  0  0  0  0
  150.8721  126.4708  153.6874 H   0  0  0  0  0  0  0  0  0  0  0  0
  1  2  1  0  0  0  0
  1 34  1  0  0  0  0
  2  3  1  0  0  0  0
  2 35  1  0  0  0  0
  2 36  1  0  0  0  0
  3  4  1  0  0  0  0
  3 37  1  0  0  0  0
  3 38  1  0  0  0  0
  4  5  1  0  0  0  0
  4 24  1  0  0  0  0
  4 39  1  0  0  0  0
  5  6  1  0  0  0  0
  5 40  1  0  0  0  0
  6 11  1  0  0  0  0
  6  7  2  0  0  0  0
  7  8  1  0  0  0  0
  8  9  2  0  0  0  0
  8 41  1  0  0  0  0
  9 10  1  0  0  0  0
 10 14  1  0  0  0  0
 10 11  2  0  0  0  0
 11 12  1  0  0  0  0
 12 13  2  0  0  0  0
 13 14  1  0  0  0  0
 13 42  1  0  0  0  0
 14 15  1  0  0  0  0
 15 30  1  0  0  0  0
 15 22  1  0  0  0  0
 15 16  1  0  0  0  0
 16 17  1  0  0  0  0
 17 31  1  0  0  0  0
 17 18  1  0  0  0  0
 17 20  1  0  0  0  0
 18 19  1  0  0  0  0
 18 43  1  0  0  0  0
 18 44  1  0  0  0  0
 19 45  1  0  0  0  0
 20 32  1  0  0  0  0
 20 21  1  0  0  0  0
 20 22  1  0  0  0  0
 21 46  1  0  0  0  0
 22 33  1  0  0  0  0
 22 23  1  0  0  0  0
 23 47  1  0  0  0  0
 24 29  1  0  0  0  0
 24 25  1  0  0  0  0
 24 48  1  0  0  0  0
 25 26  1  0  0  0  0
 25 49  1  0  0  0  0
 25 50  1  0  0  0  0
 26 27  1  0  0  0  0
 26 51  1  0  0  0  0
 26 52  1  0  0  0  0
 27 28  1  0  0  0  0
 27 53  1  0  0  0  0
 27 54  1  0  0  0  0
 28 29  1  0  0  0  0
 28 55  1  0  0  0  0
 28 56  1  0  0  0  0
 29 57  1  0  0  0  0
 29 58  1  0  0  0  0
M  END
> <s_m_source_file>
AV-unprocessed.smi

> <i_m_source_file_index>
109

> <i_lp_mmshare_version>
43012

> <i_f3d_flags>
0

> <s_epik_input>
W0NIMl0xW0NIMl1bQ0gyXVtDSDJdW0NIMl1bQ0hdMVtDQEhdKFtDSDJdW0NIMl1bT0hdKVtOSF1jKG5bY0hdbjIpYyhjMjMpbltjSF1uM1tDQEBIXTRPW0NASF0oW0NIMl1bT0hdKVtDQEBIXShbT0hdKVtDQEhdNFtPSF0=

> <s_epik_cmdline>
J2VwaWtfcHl0aG9uJywgJy1waCcsICc3LjAnLCAnLXRuJywgJzgnLCAnLW1hJywgJzIwMCcsICctbWV0YWxfYmluZGluZycsICctaW1hZScsICc8aW5maWxlLm1hZT4nLCAnLW9tYWUnLCAnPG91dGZpbGUubWFlPic=

> <r_lp_tautomer_probability>
1

> <r_epik_Ionization_Penalty>
0.000793976

> <r_epik_Ionization_Penalty_Charging>
0

> <r_epik_Ionization_Penalty_Neutral>
0.000793976

> <r_epik_State_Penalty>
-0

> <r_epik_Charging_Adjusted_Penalty>
0

> <i_epik_Tot_Q>
0

> <i_epik_Tot_abs_Q>
0

> <r_epik_Metal_State_Penalty>
-0

> <b_epik_Metal_Only>
0

> <s_epik_Chemistry_Notes>
This compound contains an acetal/aminal-like group ( X-CH(R)-Y where X, Y are N, S, or O) that may be acid/base labile, releasing an aldehyde.

> <s_lp_Force_Field>
OPLS_2005

> <r_lp_Energy>
57.9674

> <b_lp_Chiralities_Consistent>
1

> <s_lp_Variant>
AV-unprocessed.smi:109-28

> <Gold.Version>
5.8.1

> <Gold.Id.Protein>
6NUR|6NUR_protein|mol2

> <Gold.PLP.Fitness>
51.8615

> <Gold.PLP.PLP>
-44.4637

> <Gold.PLP.part.hbond>
-7.0000

> <Gold.PLP.part.metal>
0.0000

> <Gold.PLP.part.buried>
-5.5460

> <Gold.PLP.part.nonpolar>
-33.4552

> <Gold.PLP.part.repulsive>
1.7079

> <Gold.PLP.ligand.clash>
0.0000

> <Gold.PLP.ligand.torsion>
2.3573

> <Gold.PLP.Chemscore.Hbond>
3.9663

> <Gold.PLP.Chemscore.CHOScore>
0.0000

> <Gold.PLP.Chemscore.Metal>
0.0000

> <Gold.Chemscore.Hbonds>
donor molecule, donor type, donor heavy atom, donor atom, acceptor molecule, acceptor atom, score
      L1  H    19    45       P1 10186  1.00
      L1  H    21    46       P1  7921  0.96
      L1  H    23    47       P1  7948  1.00
      P1  H 10785 10796       L1    19  0.55

> <Gold.PLP.Chemscore.Internal.Correction>
0.2136

> <Gold.Rescore>
     Score         DG    S(hbond)    S(metal)    S(lipo)     H(rot)  DE(clash)    DE(int)     intcor
      7.94     -10.67       3.62        0.00      60.52       5.47       0.19       2.54       ----

> <Gold.Chemscore.Fitness>
7.9440

> <Gold.Chemscore.DG>
-10.6725

> <Gold.Chemscore.ZeroCoef>
-5.4800

> <Gold.Chemscore.Hbond>
3.6244

> <Gold.Chemscore.Metal>
0.0000

> <Gold.Chemscore.Lipo>
60.5181

> <Gold.Chemscore.Internal_Hbond>
0.0000

> <Gold.Chemscore.DEClash>
0.1879

> <Gold.Chemscore.DEInternal>
2.5407

> <Gold.Chemscore.Rot>
5.4662

> <Gold.Chemscore.Internal.Correction>
   9.000000E+99

> <Gold.Chemscore.Hbonds>
donor molecule, donor type, donor heavy atom, donor atom, acceptor molecule, acceptor atom, score
      L1  H    19    45       P1 10186  1.00
      L1  H    21    46       P1  7921  0.91
      L1  H    23    47       P1  7948  0.99
      P1  H 10785 10796       L1    19  0.38

> <Gold.Chemscore.Hbond.Weighted>
-12.1054

> <Gold.Chemscore.Metal.Weighted>
-0.0000

> <Gold.Chemscore.Lipo.Weighted>
-7.0806

> <Gold.Chemscore.Internal_Hbond.Weighted>
0.0000

> <Gold.Chemscore.DEClash.Weighted>
0.1879

> <Gold.Chemscore.DEInternal.Weighted>
2.5407

> <Gold.Chemscore.Rot.Weighted>
13.9935

> <Gold.Chemscore.Internal.Correction.Weighted>
   9.000000E+99

> <Gold.Protein.RotatedTorsions>
[ 6907 6896 6895 6894 ] final  -56.11 input  -60.11 | X-H torsion
[ 7974 7965 7964 7962 ] final -131.96 input  175.53 | X-H torsion
[ 8008 7997 7996 7995 ] final  136.27 input   59.86 | X-H torsion
[ 10167 10162 10161 10158 ] final  -46.39 input  -65.29 | X-H torsion
[ 10718 10713 10712 10709 ] final   86.52 input   66.30 | X-H torsion
[ 10763 10752 10751 10750 ] final   -2.99 input  -60.55 | X-H torsion
[ 11005 11000 10999 10996 ] final   -6.05 input  -57.11 | X-H torsion

> <Gold.Protein.ActiveResidues>
 VAL166  LYS551  ARG553  GLY616  TRP617  ASP618  TYR619  PRO620  LYS621  CYS622 
 ASP623  PHE694  ASN695  SER759  ASP760  ASP761  ALA762  ILE779  LEU786  VAL792 
 PHE793  MET794  SER795  GLU796  ALA797  LYS798  CYS799  TRP800  GLU811  SER814 

> <Gold.Protein.RotatedAtoms>
  150.8195  134.7395  159.6759 H   0  0  0  0  0  0  0  0  0  0  0  0  # atno 6907 bound_to 6896
  152.4311  134.5772  159.9947 H   0  0  0  0  0  0  0  0  0  0  0  0  # atno 6908 bound_to 6896
  151.5960  133.3324  159.3073 H   0  0  0  0  0  0  0  0  0  0  0  0  # atno 6909 bound_to 6896
  144.9330  140.7150  143.4894 H   0  0  0  0  0  0  0  0  0  0  0  0  # atno 7974 bound_to 7965
  156.3004  140.2449  156.3718 H   0  0  0  0  0  0  0  0  0  0  0  0  # atno 8008 bound_to 7997
  154.8781  140.0413  157.1785 H   0  0  0  0  0  0  0  0  0  0  0  0  # atno 8009 bound_to 7997
  154.8724  140.2937  155.5477 H   0  0  0  0  0  0  0  0  0  0  0  0  # atno 8010 bound_to 7997
  140.6819  143.2833  151.3776 H   0  0  0  0  0  0  0  0  0  0  0  0  # atno 10167 bound_to 10162
  157.6929  131.0219  150.2985 H   0  0  0  0  0  0  0  0  0  0  0  0  # atno 10718 bound_to 10713
  153.3654  135.6992  153.6679 H   0  0  0  0  0  0  0  0  0  0  0  0  # atno 10763 bound_to 10752
  153.5351  135.3584  155.2694 H   0  0  0  0  0  0  0  0  0  0  0  0  # atno 10764 bound_to 10752
  154.8674  135.4190  154.2920 H   0  0  0  0  0  0  0  0  0  0  0  0  # atno 10765 bound_to 10752
  140.6978  133.9016  155.8662 H   0  0  0  0  0  0  0  0  0  0  0  0  # atno 11005 bound_to 11000
  145.3112  139.1818  143.4638 LP  0  0  0  0  0  0  0  0  0  0  0  0  # atno 17320 bound_to 7965
  146.3255  140.3116  142.8627 LP  0  0  0  0  0  0  0  0  0  0  0  0  # atno 17321 bound_to 7965
  139.6148  144.1025  152.2335 LP  0  0  0  0  0  0  0  0  0  0  0  0  # atno 17342 bound_to 10162
  140.0451  144.5977  150.7380 LP  0  0  0  0  0  0  0  0  0  0  0  0  # atno 17343 bound_to 10162
  156.3505  130.3830  149.7333 LP  0  0  0  0  0  0  0  0  0  0  0  0  # atno 17370 bound_to 10713
  156.4812  130.8042  151.3056 LP  0  0  0  0  0  0  0  0  0  0  0  0  # atno 17371 bound_to 10713
  141.0189  134.0917  157.4142 LP  0  0  0  0  0  0  0  0  0  0  0  0  # atno 17394 bound_to 11000
  139.8905  135.0112  156.6741 LP  0  0  0  0  0  0  0  0  0  0  0  0  # atno 17395 bound_to 11000

$$$$
