AV-unprocessed.smi:1978|AV-procd|sdf|8013|dock8
  -GOLD-   2272010203D 1   1.00000     0.00000
 Structure written by MMmdl.
 44 45  0  0  0  0  0  0  0  0  3 V2000
  153.2137  142.0652  160.3460 C   0  0  0  0  0  0  0  0  0  0  0  0
  152.3237  142.4244  159.2060 C   0  0  0  0  0  0  0  0  0  0  0  0
  151.4644  141.6975  158.4315 C   0  0  0  0  0  0  0  0  0  0  0  0
  150.9373  142.6682  157.5385 C   0  0  0  0  0  0  0  0  0  0  0  0
  149.9826  142.3022  156.5532 N   0  0  0  0  0  0  0  0  0  0  0  0
  150.0214  141.2764  155.6837 C   0  0  0  0  0  0  0  0  0  0  0  0
  150.9876  140.5044  155.6703 O   0  0  0  0  0  0  0  0  0  0  0  0
  148.9146  141.2292  154.8917 N   0  5  0  0  0  0  0  0  0  0  0  0
  148.5005  140.0682  154.1021 C   0  0  0  0  0  0  0  0  0  0  0  0
  147.1531  140.3462  153.3530 C   0  0  1  0  0  0  0  0  0  0  0  0
  146.7739  139.2268  152.3522 C   0  0  0  0  0  0  0  0  0  0  0  0
  145.9769  140.6846  154.2373 N   0  3  1  0  0  0  0  0  0  0  0  0
  145.6266  139.6509  155.2631 C   0  0  0  0  0  0  0  0  0  0  0  0
  144.2299  139.8936  155.8504 C   0  0  0  0  0  0  0  0  0  0  0  0
  144.1457  141.2896  156.4699 C   0  0  0  0  0  0  0  0  0  0  0  0
  144.5202  142.3405  155.4203 C   0  0  0  0  0  0  0  0  0  0  0  0
  145.9118  142.0790  154.8030 C   0  0  2  0  0  0  0  0  0  0  0  0
  146.2054  143.1871  153.7701 C   0  0  0  0  0  0  0  0  0  0  0  0
  151.4366  143.8777  157.7460 N   0  0  0  0  0  0  0  0  0  0  0  0
  152.3271  143.7276  158.8154 O   0  0  0  0  0  0  0  0  0  0  0  0
  153.0487  141.0343  160.6598 H   0  0  0  0  0  0  0  0  0  0  0  0
  153.0250  142.7133  161.2019 H   0  0  0  0  0  0  0  0  0  0  0  0
  154.2616  142.1705  160.0653 H   0  0  0  0  0  0  0  0  0  0  0  0
  151.2455  140.6421  158.4967 H   0  0  0  0  0  0  0  0  0  0  0  0
  149.1669  142.8937  156.4963 H   0  0  0  0  0  0  0  0  0  0  0  0
  149.2613  139.7957  153.3704 H   0  0  0  0  0  0  0  0  0  0  0  0
  148.3839  139.1845  154.7302 H   0  0  0  0  0  0  0  0  0  0  0  0
  147.3096  141.2122  152.7132 H   0  0  0  0  0  0  0  0  0  0  0  0
  147.5012  139.1447  151.5422 H   0  0  0  0  0  0  0  0  0  0  0  0
  145.8127  139.4394  151.8833 H   0  0  0  0  0  0  0  0  0  0  0  0
  146.7004  138.2417  152.8148 H   0  0  0  0  0  0  0  0  0  0  0  0
  145.6428  138.6514  154.8321 H   0  0  0  0  0  0  0  0  0  0  0  0
  146.3608  139.6560  156.0700 H   0  0  0  0  0  0  0  0  0  0  0  0
  143.4758  139.7867  155.0692 H   0  0  0  0  0  0  0  0  0  0  0  0
  144.0059  139.1385  156.6046 H   0  0  0  0  0  0  0  0  0  0  0  0
  143.1396  141.4752  156.8475 H   0  0  0  0  0  0  0  0  0  0  0  0
  144.8206  141.3600  157.3240 H   0  0  0  0  0  0  0  0  0  0  0  0
  143.7652  142.3484  154.6326 H   0  0  0  0  0  0  0  0  0  0  0  0
  144.4943  143.3296  155.8794 H   0  0  0  0  0  0  0  0  0  0  0  0
  146.6496  142.1621  155.6024 H   0  0  0  0  0  0  0  0  0  0  0  0
  146.0091  144.1735  154.1911 H   0  0  0  0  0  0  0  0  0  0  0  0
  145.5834  143.0802  152.8809 H   0  0  0  0  0  0  0  0  0  0  0  0
  147.2494  143.1942  153.4589 H   0  0  0  0  0  0  0  0  0  0  0  0
  145.2026  140.6595  153.5900 H   0  0  0  0  0  0  0  0  0  0  0  0
  1  2  1  0  0  0  0
  1 21  1  0  0  0  0
  1 22  1  0  0  0  0
  1 23  1  0  0  0  0
  2 20  1  0  0  0  0
  2  3  2  0  0  0  0
  3  4  1  0  0  0  0
  3 24  1  0  0  0  0
  4  5  1  0  0  0  0
  4 19  2  0  0  0  0
  5  6  1  0  0  0  0
  5 25  1  0  0  0  0
  6  7  2  0  0  0  0
  6  8  1  0  0  0  0
  8  9  1  0  0  0  0
  9 10  1  0  0  0  0
  9 26  1  0  0  0  0
  9 27  1  0  0  0  0
 10 11  1  0  0  0  0
 10 12  1  0  0  0  0
 10 28  1  0  0  0  0
 11 29  1  0  0  0  0
 11 30  1  0  0  0  0
 11 31  1  0  0  0  0
 12 17  1  0  0  0  0
 12 13  1  0  0  0  0
 12 44  1  0  0  0  0
 13 14  1  0  0  0  0
 13 32  1  0  0  0  0
 13 33  1  0  0  0  0
 14 15  1  0  0  0  0
 14 34  1  0  0  0  0
 14 35  1  0  0  0  0
 15 16  1  0  0  0  0
 15 36  1  0  0  0  0
 15 37  1  0  0  0  0
 16 17  1  0  0  0  0
 16 38  1  0  0  0  0
 16 39  1  0  0  0  0
 17 18  1  0  0  0  0
 17 40  1  0  0  0  0
 18 41  1  0  0  0  0
 18 42  1  0  0  0  0
 18 43  1  0  0  0  0
 19 20  1  0  0  0  0
M  CHG  1   8  -1
M  CHG  1  12   1
M  END
> <s_m_source_file>
AV-unprocessed.smi

> <i_m_source_file_index>
1978

> <i_lp_mmshare_version>
43012

> <i_f3d_flags>
0

> <s_epik_input>
W0NIM11jMVtjSF1jKG5vMSlbTkhdQyg9TylbTkhdW0NIMl1bQ0BIXShbQ0gzXSlOMltDSDJdW0NIMl1bQ0gyXVtDSDJdW0NASF0yW0NIM10=

> <s_epik_cmdline>
J2VwaWtfcHl0aG9uJywgJy1waCcsICc3LjAnLCAnLXRuJywgJzgnLCAnLW1hJywgJzIwMCcsICctbWV0YWxfYmluZGluZycsICctaW1hZScsICc8aW5maWxlLm1hZT4nLCAnLW9tYWUnLCAnPG91dGZpbGUubWFlPic=

> <r_epik_Ionization_Penalty>
6.7666

> <r_epik_Ionization_Penalty_Charging>
6.7666

> <r_epik_Ionization_Penalty_Neutral>
5.77131e-06

> <r_epik_State_Penalty>
6.79217

> <r_epik_Charging_Adjusted_Penalty>
13.5588

> <i_epik_Tot_Q>
0

> <i_epik_Tot_abs_Q>
2

> <r_epik_Metal_State_Penalty>
2.72569

> <b_epik_Metal_Only>
1

> <s_lp_Force_Field>
OPLS_2005

> <r_lp_Energy>
22.3243

> <b_lp_Chiralities_Consistent>
1

> <s_lp_Variant>
AV-unprocessed.smi:1978-22

> <Gold.Version>
5.8.1

> <Gold.Id.Protein>
6NUR|6NUR_protein|mol2

> <Gold.PLP.Fitness>
45.2200

> <Gold.PLP.PLP>
-35.8335

> <Gold.PLP.part.hbond>
-3.0000

> <Gold.PLP.part.metal>
0.0000

> <Gold.PLP.part.buried>
-4.0249

> <Gold.PLP.part.nonpolar>
-29.0049

> <Gold.PLP.part.repulsive>
0.3825

> <Gold.PLP.ligand.clash>
0.0000

> <Gold.PLP.ligand.torsion>
0.7654

> <Gold.PLP.Chemscore.Hbond>
3.5520

> <Gold.PLP.Chemscore.CHOScore>
0.0000

> <Gold.PLP.Chemscore.Metal>
0.0000

> <Gold.Chemscore.Hbonds>
donor molecule, donor type, donor heavy atom, donor atom, acceptor molecule, acceptor atom, score
      L1  H     5    25       P1  8028  0.64
      L1  H    12    44       P1 10175  2.00
      P1  H  7989  7998       L1     7  0.28

> <Gold.PLP.Chemscore.Internal.Correction>
0.2614

> <Gold.Rescore>
     Score         DG    S(hbond)    S(metal)    S(lipo)     H(rot)  DE(clash)    DE(int)     intcor
     14.55     -16.32       1.93        0.00      70.92       1.52       0.04       1.73       ----

> <Gold.Chemscore.Fitness>
14.5464

> <Gold.Chemscore.DG>
-16.3186

> <Gold.Chemscore.ZeroCoef>
-5.4800

> <Gold.Chemscore.Hbond>
1.9250

> <Gold.Chemscore.Metal>
0.0000

> <Gold.Chemscore.Lipo>
70.9198

> <Gold.Chemscore.Internal_Hbond>
0.0000

> <Gold.Chemscore.DEClash>
0.0392

> <Gold.Chemscore.DEInternal>
1.7330

> <Gold.Chemscore.Rot>
1.5190

> <Gold.Chemscore.Internal.Correction>
   9.000000E+99

> <Gold.Chemscore.Hbonds>
donor molecule, donor type, donor heavy atom, donor atom, acceptor molecule, acceptor atom, score
      L1  H     5    25       P1  8028  0.60
      L1  H    12    44       P1 10175  0.96
      P1  H  7989  7998       L1     7  0.05

> <Gold.Chemscore.Hbond.Weighted>
-6.4296

> <Gold.Chemscore.Metal.Weighted>
-0.0000

> <Gold.Chemscore.Lipo.Weighted>
-8.2976

> <Gold.Chemscore.Internal_Hbond.Weighted>
0.0000

> <Gold.Chemscore.DEClash.Weighted>
0.0392

> <Gold.Chemscore.DEInternal.Weighted>
1.7330

> <Gold.Chemscore.Rot.Weighted>
3.8886

> <Gold.Chemscore.Internal.Correction.Weighted>
   9.000000E+99

> <Gold.Protein.RotatedTorsions>
[ 6907 6896 6895 6894 ] final -146.67 input  -60.11 | X-H torsion
[ 7974 7965 7964 7962 ] final   70.45 input  175.53 | X-H torsion
[ 8008 7997 7996 7995 ] final   -4.09 input   59.86 | X-H torsion
[ 10167 10162 10161 10158 ] final  -41.31 input  -65.29 | X-H torsion
[ 10718 10713 10712 10709 ] final   87.03 input   66.30 | X-H torsion
[ 10763 10752 10751 10750 ] final -106.72 input  -60.55 | X-H torsion
[ 11005 11000 10999 10996 ] final  159.53 input  -57.11 | X-H torsion

> <Gold.Protein.ActiveResidues>
 VAL166  LYS551  ARG553  GLY616  TRP617  ASP618  TYR619  PRO620  LYS621  CYS622 
 ASP623  PHE694  ASN695  SER759  ASP760  ASP761  ALA762  ILE779  LEU786  VAL792 
 PHE793  MET794  SER795  GLU796  ALA797  LYS798  CYS799  TRP800  GLU811  SER814 

> <Gold.Protein.RotatedAtoms>
  151.1449  133.4946  159.2595 H   0  0  0  0  0  0  0  0  0  0  0  0  # atno 6907 bound_to 6896
  151.1616  135.0275  159.8722 H   0  0  0  0  0  0  0  0  0  0  0  0  # atno 6908 bound_to 6896
  152.5463  134.1322  159.8497 H   0  0  0  0  0  0  0  0  0  0  0  0  # atno 6909 bound_to 6896
  145.7780  139.2874  143.1282 H   0  0  0  0  0  0  0  0  0  0  0  0  # atno 7974 bound_to 7965
  154.6179  140.2492  155.7586 H   0  0  0  0  0  0  0  0  0  0  0  0  # atno 8008 bound_to 7997
  156.2410  140.2932  156.0392 H   0  0  0  0  0  0  0  0  0  0  0  0  # atno 8009 bound_to 7997
  155.1944  140.0392  157.2896 H   0  0  0  0  0  0  0  0  0  0  0  0  # atno 8010 bound_to 7997
  140.7007  143.3102  151.3048 H   0  0  0  0  0  0  0  0  0  0  0  0  # atno 10167 bound_to 10162
  157.6936  131.0239  150.3062 H   0  0  0  0  0  0  0  0  0  0  0  0  # atno 10718 bound_to 10713
  154.8030  135.4701  154.0322 H   0  0  0  0  0  0  0  0  0  0  0  0  # atno 10763 bound_to 10752
  153.1813  135.6841  153.8481 H   0  0  0  0  0  0  0  0  0  0  0  0  # atno 10764 bound_to 10752
  153.8030  135.3227  155.3370 H   0  0  0  0  0  0  0  0  0  0  0  0  # atno 10765 bound_to 10752
  140.1971  134.8365  157.2976 H   0  0  0  0  0  0  0  0  0  0  0  0  # atno 11005 bound_to 11000
  146.0103  140.8442  142.9974 LP  0  0  0  0  0  0  0  0  0  0  0  0  # atno 17320 bound_to 7965
  144.6801  140.2479  143.7335 LP  0  0  0  0  0  0  0  0  0  0  0  0  # atno 17321 bound_to 7965
  139.6522  144.0342  152.2634 LP  0  0  0  0  0  0  0  0  0  0  0  0  # atno 17342 bound_to 10162
  139.9881  144.6381  150.7839 LP  0  0  0  0  0  0  0  0  0  0  0  0  # atno 17343 bound_to 10162
  156.3570  130.3840  149.7282 LP  0  0  0  0  0  0  0  0  0  0  0  0  # atno 17370 bound_to 10713
  156.4741  130.8010  151.3027 LP  0  0  0  0  0  0  0  0  0  0  0  0  # atno 17371 bound_to 10713
  140.2095  134.4155  155.7620 LP  0  0  0  0  0  0  0  0  0  0  0  0  # atno 17394 bound_to 11000
  141.2227  133.7111  156.8316 LP  0  0  0  0  0  0  0  0  0  0  0  0  # atno 17395 bound_to 11000

$$$$
