AV-unprocessed.smi:287|AV-procd|sdf|2195|dock1
  -GOLD-   2262021593D 1   1.00000     0.00000
 Structure written by MMmdl.
 55 58  0  0  0  0  0  0  0  0  1 V2000
  151.2988  130.2941  155.1906 C   0  0  0  0  0  0  0  0  0  0  0  0
  150.4158  129.2487  154.6003 C   0  0  0  0  0  0  0  0  0  0  0  0
  149.2069  129.2813  153.9686 C   0  0  0  0  0  0  0  0  0  0  0  0
  148.8619  127.9360  153.6384 C   0  0  0  0  0  0  0  0  0  0  0  0
  147.6026  127.4735  152.9175 C   0  0  1  0  0  0  0  0  0  0  0  0
  147.9763  126.9080  151.5377 C   0  0  0  0  0  0  0  0  0  0  0  0
  146.9457  126.4191  153.5946 O   0  0  0  0  0  0  0  0  0  0  0  0
  146.5518  128.5975  152.7630 C   0  0  0  0  0  0  0  0  0  0  0  0
  146.9977  129.6748  151.8886 N   0  0  0  0  0  0  0  0  0  0  0  0
  146.1836  130.7076  151.5867 C   0  0  0  0  0  0  0  0  0  0  0  0
  144.9618  130.3633  151.1175 N   0  0  0  0  0  0  0  0  0  0  0  0
  144.0789  131.3094  150.7928 C   0  0  0  0  0  0  0  0  0  0  0  0
  144.2162  132.6332  150.8624 N   0  0  0  0  0  0  0  0  0  0  0  0
  145.4450  132.9994  151.3303 C   0  0  0  0  0  0  0  0  0  0  0  0
  146.4833  132.0974  151.7107 C   0  0  0  0  0  0  0  0  0  0  0  0
  147.5927  132.8233  152.1248 N   0  0  0  0  0  0  0  0  0  0  0  0
  147.2303  134.0687  151.9954 C   0  0  0  0  0  0  0  0  0  0  0  0
  145.9486  134.2749  151.5379 N   0  0  0  0  0  0  0  0  0  0  0  0
  145.3179  135.6176  151.2789 C   0  0  1  0  0  0  0  0  0  0  0  0
  144.3676  135.8542  152.2671 O   0  0  0  0  0  0  0  0  0  0  0  0
  144.9439  136.6237  153.3124 C   0  0  2  0  0  0  0  0  0  0  0  0
  143.8368  137.3539  154.0877 C   0  0  0  0  0  0  0  0  0  0  0  0
  143.0028  138.0583  153.1927 O   0  0  0  0  0  0  0  0  0  0  0  0
  145.8902  137.5727  152.5595 C   0  0  1  0  0  0  0  0  0  0  0  0
  147.0138  137.8824  153.3591 O   0  0  0  0  0  0  0  0  0  0  0  0
  146.3101  136.7935  151.3085 C   0  0  2  0  0  0  0  0  0  0  0  0
  146.1703  137.6070  150.1611 O   0  0  0  0  0  0  0  0  0  0  0  0
  149.9213  127.1841  154.0850 C   0  0  0  0  0  0  0  0  0  0  0  0
  150.2416  125.7262  154.0484 C   0  0  0  0  0  0  0  0  0  0  0  0
  150.8640  127.9702  154.6758 O   0  0  0  0  0  0  0  0  0  0  0  0
  144.8296  135.4910  150.3115 H   0  0  0  0  0  0  0  0  0  0  0  0
  145.5050  135.9683  153.9786 H   0  0  0  0  0  0  0  0  0  0  0  0
  145.3652  138.4904  152.2883 H   0  0  0  0  0  0  0  0  0  0  0  0
  147.3378  136.4336  151.3422 H   0  0  0  0  0  0  0  0  0  0  0  0
  150.7895  131.2572  155.2279 H   0  0  0  0  0  0  0  0  0  0  0  0
  152.2054  130.4134  154.5974 H   0  0  0  0  0  0  0  0  0  0  0  0
  151.5902  130.0273  156.2067 H   0  0  0  0  0  0  0  0  0  0  0  0
  148.6287  130.1720  153.7715 H   0  0  0  0  0  0  0  0  0  0  0  0
  148.4655  127.6634  150.9216 H   0  0  0  0  0  0  0  0  0  0  0  0
  147.0961  126.5623  150.9945 H   0  0  0  0  0  0  0  0  0  0  0  0
  148.6622  126.0643  151.6270 H   0  0  0  0  0  0  0  0  0  0  0  0
  147.0269  126.5636  154.5249 H   0  0  0  0  0  0  0  0  0  0  0  0
  145.6519  128.1681  152.3210 H   0  0  0  0  0  0  0  0  0  0  0  0
  146.2671  128.9976  153.7372 H   0  0  0  0  0  0  0  0  0  0  0  0
  147.8936  129.5313  151.4450 H   0  0  0  0  0  0  0  0  0  0  0  0
  143.1263  130.9562  150.4269 H   0  0  0  0  0  0  0  0  0  0  0  0
  147.8995  134.8829  152.2329 H   0  0  0  0  0  0  0  0  0  0  0  0
  143.2129  136.6329  154.6169 H   0  0  0  0  0  0  0  0  0  0  0  0
  144.2538  138.0318  154.8331 H   0  0  0  0  0  0  0  0  0  0  0  0
  143.2477  138.9708  153.2069 H   0  0  0  0  0  0  0  0  0  0  0  0
  147.7542  137.3899  153.0391 H   0  0  0  0  0  0  0  0  0  0  0  0
  145.2488  137.7193  149.9839 H   0  0  0  0  0  0  0  0  0  0  0  0
  150.1068  125.3260  153.0435 H   0  0  0  0  0  0  0  0  0  0  0  0
  149.5910  125.1716  154.7246 H   0  0  0  0  0  0  0  0  0  0  0  0
  151.2738  125.5404  154.3468 H   0  0  0  0  0  0  0  0  0  0  0  0
  1  2  1  0  0  0  0
  1 35  1  0  0  0  0
  1 36  1  0  0  0  0
  1 37  1  0  0  0  0
  2 30  1  0  0  0  0
  2  3  2  0  0  0  0
  3  4  1  0  0  0  0
  3 38  1  0  0  0  0
  4  5  1  0  0  0  0
  4 28  2  0  0  0  0
  5  6  1  0  0  0  0
  5  7  1  0  0  0  0
  5  8  1  0  0  0  0
  6 39  1  0  0  0  0
  6 40  1  0  0  0  0
  6 41  1  0  0  0  0
  7 42  1  0  0  0  0
  8  9  1  0  0  0  0
  8 43  1  0  0  0  0
  8 44  1  0  0  0  0
  9 10  1  0  0  0  0
  9 45  1  0  0  0  0
 10 15  1  0  0  0  0
 10 11  2  0  0  0  0
 11 12  1  0  0  0  0
 12 13  2  0  0  0  0
 12 46  1  0  0  0  0
 13 14  1  0  0  0  0
 14 18  1  0  0  0  0
 14 15  2  0  0  0  0
 15 16  1  0  0  0  0
 16 17  2  0  0  0  0
 17 18  1  0  0  0  0
 17 47  1  0  0  0  0
 18 19  1  0  0  0  0
 19 31  1  0  0  0  0
 19 26  1  0  0  0  0
 19 20  1  0  0  0  0
 20 21  1  0  0  0  0
 21 32  1  0  0  0  0
 21 22  1  0  0  0  0
 21 24  1  0  0  0  0
 22 23  1  0  0  0  0
 22 48  1  0  0  0  0
 22 49  1  0  0  0  0
 23 50  1  0  0  0  0
 24 33  1  0  0  0  0
 24 25  1  0  0  0  0
 24 26  1  0  0  0  0
 25 51  1  0  0  0  0
 26 34  1  0  0  0  0
 26 27  1  0  0  0  0
 27 52  1  0  0  0  0
 28 29  1  0  0  0  0
 28 30  1  0  0  0  0
 29 53  1  0  0  0  0
 29 54  1  0  0  0  0
 29 55  1  0  0  0  0
M  END
> <s_m_source_file>
AV-unprocessed.smi

> <i_m_source_file_index>
287

> <i_lp_mmshare_version>
43012

> <i_f3d_flags>
0

> <s_epik_input>
W0NIM11jMVtjSF1jKGMobzEpW0NIM10pW0NAQF0oW0NIM10pKFtPSF0pW0NIMl1bTkhdYyhuW2NIXW4yKWMoYzIzKW5bY0hdbjNbQ0BASF00T1tDQEhdKFtDSDJdW09IXSlbQ0BASF0oW09IXSlbQ0BIXTRbT0hd

> <s_epik_cmdline>
J2VwaWtfcHl0aG9uJywgJy1waCcsICc3LjAnLCAnLXRuJywgJzgnLCAnLW1hJywgJzIwMCcsICctbWV0YWxfYmluZGluZycsICctaW1hZScsICc8aW5maWxlLm1hZT4nLCAnLW9tYWUnLCAnPG91dGZpbGUubWFlPic=

> <r_lp_tautomer_probability>
1

> <r_epik_Ionization_Penalty>
0.000992612

> <r_epik_Ionization_Penalty_Charging>
0

> <r_epik_Ionization_Penalty_Neutral>
0.000992612

> <r_epik_State_Penalty>
-0

> <r_epik_Charging_Adjusted_Penalty>
0

> <i_epik_Tot_Q>
0

> <i_epik_Tot_abs_Q>
0

> <r_epik_Metal_State_Penalty>
-0

> <b_epik_Metal_Only>
0

> <s_epik_Chemistry_Notes>
This compound contains an acetal/aminal-like group ( X-CH(R)-Y where X, Y are N, S, or O) that may be acid/base labile, releasing an aldehyde.

> <s_lp_Force_Field>
OPLS_2005

> <r_lp_Energy>
36.8397

> <b_lp_Chiralities_Consistent>
1

> <s_lp_Variant>
AV-unprocessed.smi:287-19

> <Gold.Version>
5.8.1

> <Gold.Id.Protein>
6NUR|6NUR_protein|mol2

> <Gold.PLP.Fitness>
51.0798

> <Gold.PLP.PLP>
-36.9894

> <Gold.PLP.part.hbond>
-5.9722

> <Gold.PLP.part.metal>
0.0000

> <Gold.PLP.part.buried>
0.3871

> <Gold.PLP.part.nonpolar>
-33.3727

> <Gold.PLP.part.repulsive>
1.3344

> <Gold.PLP.ligand.clash>
0.0000

> <Gold.PLP.ligand.torsion>
1.0214

> <Gold.PLP.Chemscore.Hbond>
4.1409

> <Gold.PLP.Chemscore.CHOScore>
1.1731

> <Gold.PLP.Chemscore.Metal>
0.0000

> <Gold.Chemscore.Hbonds>
donor molecule, donor type, donor heavy atom, donor atom, acceptor molecule, acceptor atom, score
      L1  H     9    45       P1 10747  0.60
      L1  H    23    50       P1 10175  1.00
      L1  H    25    51       P1  7948  0.99
      L1  H    27    52       P1 10171  1.00
      P1  H  7954  7966       L1    27  0.56
      L1  C    12    46       P1 10952  0.99
      L1  C    17    47       P1  7948  0.19

> <Gold.PLP.Chemscore.Internal.Correction>
0.1912

> <Gold.Rescore>
     Score         DG    S(hbond)    S(metal)    S(lipo)     H(rot)  DE(clash)    DE(int)     intcor
      7.61     -11.51       3.38        0.00      70.34       5.27       2.97       0.92       ----

> <Gold.Chemscore.Fitness>
7.6149

> <Gold.Chemscore.DG>
-11.5091

> <Gold.Chemscore.ZeroCoef>
-5.4800

> <Gold.Chemscore.Hbond>
3.3781

> <Gold.Chemscore.Metal>
0.0000

> <Gold.Chemscore.Lipo>
70.3424

> <Gold.Chemscore.Internal_Hbond>
0.0000

> <Gold.Chemscore.DEClash>
2.9713

> <Gold.Chemscore.DEInternal>
0.9229

> <Gold.Chemscore.Rot>
5.2672

> <Gold.Chemscore.Internal.Correction>
   9.000000E+99

> <Gold.Chemscore.Hbonds>
donor molecule, donor type, donor heavy atom, donor atom, acceptor molecule, acceptor atom, score
      L1  H     9    45       P1 10747  0.46
      L1  H    23    50       P1 10175  0.97
      L1  H    25    51       P1  7948  0.92
      L1  H    27    52       P1 10171  0.97
      P1  H  7954  7966       L1    27  0.08

> <Gold.Chemscore.Hbond.Weighted>
-11.2829

> <Gold.Chemscore.Metal.Weighted>
-0.0000

> <Gold.Chemscore.Lipo.Weighted>
-8.2301

> <Gold.Chemscore.Internal_Hbond.Weighted>
0.0000

> <Gold.Chemscore.DEClash.Weighted>
2.9713

> <Gold.Chemscore.DEInternal.Weighted>
0.9229

> <Gold.Chemscore.Rot.Weighted>
13.4839

> <Gold.Chemscore.Internal.Correction.Weighted>
   9.000000E+99

> <Gold.Protein.RotatedTorsions>
[ 6907 6896 6895 6894 ] final   73.93 input  -60.11 | X-H torsion
[ 7974 7965 7964 7962 ] final -119.05 input  175.53 | X-H torsion
[ 8008 7997 7996 7995 ] final   44.65 input   59.86 | X-H torsion
[ 10167 10162 10161 10158 ] final  -59.77 input  -65.29 | X-H torsion
[ 10718 10713 10712 10709 ] final -172.40 input   66.30 | X-H torsion
[ 10763 10752 10751 10750 ] final  -78.81 input  -60.55 | X-H torsion
[ 11005 11000 10999 10996 ] final   -2.85 input  -57.11 | X-H torsion

> <Gold.Protein.ActiveResidues>
 VAL166  LYS551  ARG553  GLY616  TRP617  ASP618  TYR619  PRO620  LYS621  CYS622 
 ASP623  PHE694  ASN695  SER759  ASP760  ASP761  ALA762  ILE779  LEU786  VAL792 
 PHE793  MET794  SER795  GLU796  ALA797  LYS798  CYS799  TRP800  GLU811  SER814 

> <Gold.Protein.RotatedAtoms>
  152.4949  134.4347  159.9523 H   0  0  0  0  0  0  0  0  0  0  0  0  # atno 6907 bound_to 6896
  151.4328  133.3659  159.2779 H   0  0  0  0  0  0  0  0  0  0  0  0  # atno 6908 bound_to 6896
  150.9142  134.8583  159.7506 H   0  0  0  0  0  0  0  0  0  0  0  0  # atno 6909 bound_to 6896
  145.0668  140.8330  143.4119 H   0  0  0  0  0  0  0  0  0  0  0  0  # atno 7974 bound_to 7965
  155.3228  140.3398  155.4241 H   0  0  0  0  0  0  0  0  0  0  0  0  # atno 8008 bound_to 7997
  156.1901  140.1694  156.8146 H   0  0  0  0  0  0  0  0  0  0  0  0  # atno 8009 bound_to 7997
  154.5431  140.0720  156.8528 H   0  0  0  0  0  0  0  0  0  0  0  0  # atno 8010 bound_to 7997
  140.6114  143.2388  151.5701 H   0  0  0  0  0  0  0  0  0  0  0  0  # atno 10167 bound_to 10162
  156.7551  130.9392  151.3116 H   0  0  0  0  0  0  0  0  0  0  0  0  # atno 10718 bound_to 10713
  154.5306  135.5717  153.6756 H   0  0  0  0  0  0  0  0  0  0  0  0  # atno 10763 bound_to 10752
  152.9938  135.6204  154.2633 H   0  0  0  0  0  0  0  0  0  0  0  0  # atno 10764 bound_to 10752
  154.2559  135.2857  155.2777 H   0  0  0  0  0  0  0  0  0  0  0  0  # atno 10765 bound_to 10752
  140.6629  133.9304  155.8447 H   0  0  0  0  0  0  0  0  0  0  0  0  # atno 11005 bound_to 11000
  145.1340  139.2613  143.5524 LP  0  0  0  0  0  0  0  0  0  0  0  0  # atno 17320 bound_to 7965
  146.3527  140.0999  142.8608 LP  0  0  0  0  0  0  0  0  0  0  0  0  # atno 17321 bound_to 7965
  139.5364  144.2769  152.1260 LP  0  0  0  0  0  0  0  0  0  0  0  0  # atno 17342 bound_to 10162
  140.1969  144.4696  150.6450 LP  0  0  0  0  0  0  0  0  0  0  0  0  # atno 17343 bound_to 10162
  157.6760  130.9095  150.0151 LP  0  0  0  0  0  0  0  0  0  0  0  0  # atno 17370 bound_to 10713
  156.1376  130.3642  149.9633 LP  0  0  0  0  0  0  0  0  0  0  0  0  # atno 17371 bound_to 10713
  141.0451  134.0565  157.3853 LP  0  0  0  0  0  0  0  0  0  0  0  0  # atno 17394 bound_to 11000
  139.9007  135.0163  156.7254 LP  0  0  0  0  0  0  0  0  0  0  0  0  # atno 17395 bound_to 11000

$$$$
