AV-unprocessed.smi:1247|AV-procd|sdf|5247|dock4
  -GOLD-   22720 4353D 1   1.00000     0.00000
 Structure written by MMmdl.
 47 48  0  0  0  0  0  0  0  0  2 V2000
  152.2252  141.1051  159.0864 C   0  0  0  0  0  0  0  0  0  0  0  0
  151.8833  140.5962  157.7170 C   0  0  0  0  0  0  0  0  0  0  0  0
  150.7223  140.8776  156.9396 C   0  0  0  0  0  0  0  0  0  0  0  0
  150.9408  140.1553  155.7983 C   0  0  0  0  0  0  0  0  0  0  0  0
  150.1575  140.0571  154.6911 N   0  0  0  0  0  0  0  0  0  0  0  0
  148.8303  140.2415  154.5819 C   0  0  0  0  0  0  0  0  0  0  0  0
  148.0646  140.5020  155.5103 O   0  0  0  0  0  0  0  0  0  0  0  0
  148.4227  140.0934  153.3131 N   0  0  0  0  0  0  0  0  0  0  0  0
  147.0428  140.2262  152.8610 C   0  0  0  0  0  0  0  0  0  0  0  0
  146.4920  138.8876  152.3341 C   0  0  0  0  0  0  0  0  0  0  0  0
  145.3065  138.4280  153.0988 N   0  3  1  0  0  0  0  0  0  0  0  0
  144.7721  137.1394  152.5978 C   0  0  0  0  0  0  0  0  0  0  0  0
  143.5034  136.7245  153.3688 C   0  0  2  0  0  0  0  0  0  0  0  0
  142.2607  137.5544  153.0003 C   0  0  0  0  0  0  0  0  0  0  0  0
  143.7579  136.7266  154.7736 O   0  0  0  0  0  0  0  0  0  0  0  0
  144.2440  137.9618  155.2929 C   0  0  1  0  0  0  0  0  0  0  0  0
  144.4657  137.7848  156.7991 C   0  0  0  0  0  0  0  0  0  0  0  0
  145.5406  138.3518  154.5609 C   0  0  0  0  0  0  0  0  0  0  0  0
  152.1520  139.5060  155.9078 N   0  0  0  0  0  0  0  0  0  0  0  0
  152.8312  138.6258  154.9761 C   0  0  0  0  0  0  0  0  0  0  0  0
  152.7276  139.7788  157.0983 N   0  0  0  0  0  0  0  0  0  0  0  0
  151.5037  141.8503  159.4217 H   0  0  0  0  0  0  0  0  0  0  0  0
  153.2114  141.5703  159.0991 H   0  0  0  0  0  0  0  0  0  0  0  0
  152.2283  140.2944  159.8154 H   0  0  0  0  0  0  0  0  0  0  0  0
  149.8847  141.5090  157.1948 H   0  0  0  0  0  0  0  0  0  0  0  0
  150.6444  139.8087  153.8425 H   0  0  0  0  0  0  0  0  0  0  0  0
  149.1158  139.8792  152.6107 H   0  0  0  0  0  0  0  0  0  0  0  0
  146.4328  140.6174  153.6760 H   0  0  0  0  0  0  0  0  0  0  0  0
  147.0168  140.9748  152.0688 H   0  0  0  0  0  0  0  0  0  0  0  0
  146.2128  139.0273  151.2886 H   0  0  0  0  0  0  0  0  0  0  0  0
  147.2592  138.1115  152.3461 H   0  0  0  0  0  0  0  0  0  0  0  0
  144.5508  137.2108  151.5320 H   0  0  0  0  0  0  0  0  0  0  0  0
  145.5381  136.3704  152.7101 H   0  0  0  0  0  0  0  0  0  0  0  0
  143.2792  135.6904  153.1054 H   0  0  0  0  0  0  0  0  0  0  0  0
  142.0113  137.4287  151.9464 H   0  0  0  0  0  0  0  0  0  0  0  0
  142.4067  138.6205  153.1719 H   0  0  0  0  0  0  0  0  0  0  0  0
  141.3950  137.2374  153.5822 H   0  0  0  0  0  0  0  0  0  0  0  0
  143.4950  138.7414  155.1522 H   0  0  0  0  0  0  0  0  0  0  0  0
  144.8343  138.7048  157.2534 H   0  0  0  0  0  0  0  0  0  0  0  0
  145.1919  136.9971  157.0017 H   0  0  0  0  0  0  0  0  0  0  0  0
  143.5356  137.5167  157.3010 H   0  0  0  0  0  0  0  0  0  0  0  0
  146.3252  137.6216  154.7668 H   0  0  0  0  0  0  0  0  0  0  0  0
  145.8931  139.3108  154.9394 H   0  0  0  0  0  0  0  0  0  0  0  0
  152.3166  138.6100  154.0155 H   0  0  0  0  0  0  0  0  0  0  0  0
  152.8558  137.6135  155.3807 H   0  0  0  0  0  0  0  0  0  0  0  0
  153.8534  138.9718  154.8197 H   0  0  0  0  0  0  0  0  0  0  0  0
  144.5806  139.1137  152.9470 H   0  0  0  0  0  0  0  0  0  0  0  0
  1  2  1  0  0  0  0
  1 22  1  0  0  0  0
  1 23  1  0  0  0  0
  1 24  1  0  0  0  0
  2 21  2  0  0  0  0
  2  3  1  0  0  0  0
  3  4  2  0  0  0  0
  3 25  1  0  0  0  0
  4  5  1  0  0  0  0
  4 19  1  0  0  0  0
  5  6  1  0  0  0  0
  5 26  1  0  0  0  0
  6  7  2  0  0  0  0
  6  8  1  0  0  0  0
  8  9  1  0  0  0  0
  8 27  1  0  0  0  0
  9 10  1  0  0  0  0
  9 28  1  0  0  0  0
  9 29  1  0  0  0  0
 10 11  1  0  0  0  0
 10 30  1  0  0  0  0
 10 31  1  0  0  0  0
 11 18  1  0  0  0  0
 11 12  1  0  0  0  0
 11 47  1  0  0  0  0
 12 13  1  0  0  0  0
 12 32  1  0  0  0  0
 12 33  1  0  0  0  0
 13 14  1  0  0  0  0
 13 15  1  0  0  0  0
 13 34  1  0  0  0  0
 14 35  1  0  0  0  0
 14 36  1  0  0  0  0
 14 37  1  0  0  0  0
 15 16  1  0  0  0  0
 16 17  1  0  0  0  0
 16 18  1  0  0  0  0
 16 38  1  0  0  0  0
 17 39  1  0  0  0  0
 17 40  1  0  0  0  0
 17 41  1  0  0  0  0
 18 42  1  0  0  0  0
 18 43  1  0  0  0  0
 19 20  1  0  0  0  0
 19 21  1  0  0  0  0
 20 44  1  0  0  0  0
 20 45  1  0  0  0  0
 20 46  1  0  0  0  0
M  CHG  1  11   1
M  END
> <s_m_source_file>
AV-unprocessed.smi

> <i_m_source_file_index>
1247

> <i_lp_mmshare_version>
43012

> <i_f3d_flags>
0

> <s_epik_input>
W0NIM11jMVtjSF1jKG4objEpW0NIM10pW05IXUMoPU8pW05IXVtDSDJdW0NIMl1OMltDSDJdW0NAQEhdKFtDSDNdKU9bQ0BASF0oW0NIM10pW0NIMl0y

> <s_epik_cmdline>
J2VwaWtfcHl0aG9uJywgJy1waCcsICc3LjAnLCAnLXRuJywgJzgnLCAnLW1hJywgJzIwMCcsICctbWV0YWxfYmluZGluZycsICctaW1hZScsICc8aW5maWxlLm1hZT4nLCAnLW9tYWUnLCAnPG91dGZpbGUubWFlPic=

> <r_lp_tautomer_probability>
1

> <r_epik_Ionization_Penalty>
0.663902

> <r_epik_Ionization_Penalty_Charging>
0.663826

> <r_epik_Ionization_Penalty_Neutral>
7.65444e-05

> <r_epik_State_Penalty>
0.683414

> <r_epik_Charging_Adjusted_Penalty>
1.34724

> <i_epik_Tot_Q>
1

> <i_epik_Tot_abs_Q>
1

> <r_epik_Metal_State_Penalty>
0.683419

> <b_epik_Metal_Only>
0

> <s_lp_Force_Field>
OPLS_2005

> <r_lp_Energy>
19.2404

> <b_lp_Chiralities_Consistent>
1

> <s_lp_Variant>
AV-unprocessed.smi:1247-5

> <Gold.Version>
5.8.1

> <Gold.Id.Protein>
6NUR|6NUR_protein|mol2

> <Gold.PLP.Fitness>
42.6462

> <Gold.PLP.PLP>
-31.7287

> <Gold.PLP.part.hbond>
-2.7156

> <Gold.PLP.part.metal>
0.0000

> <Gold.PLP.part.buried>
-2.8699

> <Gold.PLP.part.nonpolar>
-27.3781

> <Gold.PLP.part.repulsive>
1.3554

> <Gold.PLP.ligand.clash>
0.0000

> <Gold.PLP.ligand.torsion>
0.5246

> <Gold.PLP.Chemscore.Hbond>
3.9833

> <Gold.PLP.Chemscore.CHOScore>
0.0000

> <Gold.PLP.Chemscore.Metal>
0.0000

> <Gold.Chemscore.Hbonds>
donor molecule, donor type, donor heavy atom, donor atom, acceptor molecule, acceptor atom, score
      L1  H     8    27       P1  7957  0.96
      L1  H    11    47       P1 10175  2.00
      P1  H  7997  8009       L1    21  1.00

> <Gold.PLP.Chemscore.Internal.Correction>
0.0167

> <Gold.Rescore>
     Score         DG    S(hbond)    S(metal)    S(lipo)     H(rot)  DE(clash)    DE(int)     intcor
     16.96     -17.81       2.79        0.00      58.96       1.52       0.23       0.62       ----

> <Gold.Chemscore.Fitness>
16.9615

> <Gold.Chemscore.DG>
-17.8077

> <Gold.Chemscore.ZeroCoef>
-5.4800

> <Gold.Chemscore.Hbond>
2.7923

> <Gold.Chemscore.Metal>
0.0000

> <Gold.Chemscore.Lipo>
58.9590

> <Gold.Chemscore.Internal_Hbond>
0.0000

> <Gold.Chemscore.DEClash>
0.2260

> <Gold.Chemscore.DEInternal>
0.6201

> <Gold.Chemscore.Rot>
1.5221

> <Gold.Chemscore.Internal.Correction>
   9.000000E+99

> <Gold.Chemscore.Hbonds>
donor molecule, donor type, donor heavy atom, donor atom, acceptor molecule, acceptor atom, score
      L1  H     8    27       P1  7957  0.87
      L1  H    11    47       P1 10175  1.00
      P1  H  7997  8009       L1    21  0.45

> <Gold.Chemscore.Hbond.Weighted>
-9.3262

> <Gold.Chemscore.Metal.Weighted>
-0.0000

> <Gold.Chemscore.Lipo.Weighted>
-6.8982

> <Gold.Chemscore.Internal_Hbond.Weighted>
0.0000

> <Gold.Chemscore.DEClash.Weighted>
0.2260

> <Gold.Chemscore.DEInternal.Weighted>
0.6201

> <Gold.Chemscore.Rot.Weighted>
3.8967

> <Gold.Chemscore.Internal.Correction.Weighted>
   9.000000E+99

> <Gold.Protein.RotatedTorsions>
[ 6907 6896 6895 6894 ] final  134.63 input  -60.11 | X-H torsion
[ 7974 7965 7964 7962 ] final  156.07 input  175.53 | X-H torsion
[ 8008 7997 7996 7995 ] final  176.75 input   59.86 | X-H torsion
[ 10167 10162 10161 10158 ] final   77.67 input  -65.29 | X-H torsion
[ 10718 10713 10712 10709 ] final  149.96 input   66.30 | X-H torsion
[ 10763 10752 10751 10750 ] final -150.96 input  -60.55 | X-H torsion
[ 11005 11000 10999 10996 ] final   98.41 input  -57.11 | X-H torsion

> <Gold.Protein.ActiveResidues>
 VAL166  LYS551  ARG553  GLY616  TRP617  ASP618  TYR619  PRO620  LYS621  CYS622 
 ASP623  PHE694  ASN695  SER759  ASP760  ASP761  ALA762  ILE779  LEU786  VAL792 
 PHE793  MET794  SER795  GLU796  ALA797  LYS798  CYS799  TRP800  GLU811  SER814 

> <Gold.Protein.RotatedAtoms>
  152.3092  133.5735  159.5669 H   0  0  0  0  0  0  0  0  0  0  0  0  # atno 6907 bound_to 6896
  150.7315  134.0177  159.3700 H   0  0  0  0  0  0  0  0  0  0  0  0  # atno 6908 bound_to 6896
  151.8071  135.0692  160.0459 H   0  0  0  0  0  0  0  0  0  0  0  0  # atno 6909 bound_to 6896
  144.7986  139.7153  143.6191 H   0  0  0  0  0  0  0  0  0  0  0  0  # atno 7974 bound_to 7965
  156.0731  140.1375  156.9804 H   0  0  0  0  0  0  0  0  0  0  0  0  # atno 8008 bound_to 7997
  154.4542  140.0967  156.6761 H   0  0  0  0  0  0  0  0  0  0  0  0  # atno 8009 bound_to 7997
  155.5196  140.3456  155.4406 H   0  0  0  0  0  0  0  0  0  0  0  0  # atno 8010 bound_to 7997
  139.9791  144.5839  150.7916 H   0  0  0  0  0  0  0  0  0  0  0  0  # atno 10167 bound_to 10162
  157.2895  131.0850  151.1472 H   0  0  0  0  0  0  0  0  0  0  0  0  # atno 10718 bound_to 10713
  154.8087  135.3271  154.7362 H   0  0  0  0  0  0  0  0  0  0  0  0  # atno 10763 bound_to 10752
  153.8015  135.6903  153.4859 H   0  0  0  0  0  0  0  0  0  0  0  0  # atno 10764 bound_to 10752
  153.1851  135.4572  155.0023 H   0  0  0  0  0  0  0  0  0  0  0  0  # atno 10765 bound_to 10752
  139.8772  134.9048  156.4452 H   0  0  0  0  0  0  0  0  0  0  0  0  # atno 11005 bound_to 11000
  146.2261  139.5725  142.9586 LP  0  0  0  0  0  0  0  0  0  0  0  0  # atno 17320 bound_to 7965
  145.5611  141.0404  143.2226 LP  0  0  0  0  0  0  0  0  0  0  0  0  # atno 17321 bound_to 7965
  140.7495  143.2940  151.3254 LP  0  0  0  0  0  0  0  0  0  0  0  0  # atno 17342 bound_to 10162
  139.6423  144.0516  152.2564 LP  0  0  0  0  0  0  0  0  0  0  0  0  # atno 17343 bound_to 10162
  157.2874  130.6779  149.6096 LP  0  0  0  0  0  0  0  0  0  0  0  0  # atno 17370 bound_to 10713
  155.9666  130.4431  150.5408 LP  0  0  0  0  0  0  0  0  0  0  0  0  # atno 17371 bound_to 10713
  140.8971  133.7806  155.9637 LP  0  0  0  0  0  0  0  0  0  0  0  0  # atno 17394 bound_to 11000
  140.8691  134.2748  157.5199 LP  0  0  0  0  0  0  0  0  0  0  0  0  # atno 17395 bound_to 11000

$$$$
