AV-unprocessed.smi:665|AV-procd|sdf|3253|dock3
  -GOLD-   22720 0203D 1   1.00000     0.00000
 Structure written by MMmdl.
 43 44  0  0  0  0  0  0  0  0  1 V2000
  146.2917  130.2408  151.9083 C   0  0  0  0  0  0  0  0  0  0  0  0
  145.7249  131.4888  151.3906 N   0  0  0  0  0  0  0  0  0  0  0  0
  144.6100  131.3931  150.5407 C   0  0  0  0  0  0  0  0  0  0  0  0
  144.0250  132.4819  150.0227 C   0  0  0  0  0  0  0  0  0  0  0  0
  144.5654  133.7771  150.3597 C   0  0  0  0  0  0  0  0  0  0  0  0
  145.6354  133.8934  151.1864 C   0  0  0  0  0  0  0  0  0  0  0  0
  146.2253  135.1124  151.5650 N   0  0  0  0  0  0  0  0  0  0  0  0
  145.6409  136.2533  151.9760 C   0  0  0  0  0  0  0  0  0  0  0  0
  144.4310  136.4333  152.1127 O   0  0  0  0  0  0  0  0  0  0  0  0
  146.5631  137.1880  152.2484 N   0  0  0  0  0  0  0  0  0  0  0  0
  146.2981  138.5315  152.7569 C   0  0  0  0  0  0  0  0  0  0  0  0
  147.0434  139.5734  151.9058 C   0  0  0  0  0  0  0  0  0  0  0  0
  146.8493  140.9956  152.4628 C   0  0  0  0  0  0  0  0  0  0  0  0
  147.2523  141.1359  153.9523 C   0  0  0  0  0  0  0  0  0  0  0  0
  148.7841  141.0362  154.1198 C   0  0  0  0  0  0  0  0  0  0  0  0
  146.8097  142.5219  154.4601 C   0  0  0  0  0  0  0  0  0  0  0  0
  146.5341  140.0450  154.7854 C   0  0  0  0  0  0  0  0  0  0  0  0
  146.7291  138.6229  154.2302 C   0  0  0  0  0  0  0  0  0  0  0  0
  146.2806  132.6870  151.7409 C   0  0  0  0  0  0  0  0  0  0  0  0
  147.2652  132.7407  152.4821 O   0  0  0  0  0  0  0  0  0  0  0  0
  145.7586  129.3572  151.5557 H   0  0  0  0  0  0  0  0  0  0  0  0
  146.2552  130.2278  152.9986 H   0  0  0  0  0  0  0  0  0  0  0  0
  147.3333  130.1355  151.6016 H   0  0  0  0  0  0  0  0  0  0  0  0
  144.2635  130.3900  150.3385 H   0  0  0  0  0  0  0  0  0  0  0  0
  143.1677  132.3931  149.3718 H   0  0  0  0  0  0  0  0  0  0  0  0
  144.0904  134.6371  149.9171 H   0  0  0  0  0  0  0  0  0  0  0  0
  147.2349  135.1035  151.5661 H   0  0  0  0  0  0  0  0  0  0  0  0
  147.5328  136.9458  152.1068 H   0  0  0  0  0  0  0  0  0  0  0  0
  145.2307  138.7540  152.7048 H   0  0  0  0  0  0  0  0  0  0  0  0
  148.1060  139.3319  151.8624 H   0  0  0  0  0  0  0  0  0  0  0  0
  146.6832  139.5354  150.8769 H   0  0  0  0  0  0  0  0  0  0  0  0
  147.4087  141.7061  151.8531 H   0  0  0  0  0  0  0  0  0  0  0  0
  145.7987  141.2660  152.3465 H   0  0  0  0  0  0  0  0  0  0  0  0
  149.0741  141.1489  155.1651 H   0  0  0  0  0  0  0  0  0  0  0  0
  149.2940  141.8176  153.5553 H   0  0  0  0  0  0  0  0  0  0  0  0
  149.1810  140.0812  153.7775 H   0  0  0  0  0  0  0  0  0  0  0  0
  147.0683  142.6617  155.5104 H   0  0  0  0  0  0  0  0  0  0  0  0
  145.7311  142.6557  154.3694 H   0  0  0  0  0  0  0  0  0  0  0  0
  147.2863  143.3235  153.8947 H   0  0  0  0  0  0  0  0  0  0  0  0
  146.8699  140.0813  155.8226 H   0  0  0  0  0  0  0  0  0  0  0  0
  145.4640  140.2566  154.8110 H   0  0  0  0  0  0  0  0  0  0  0  0
  146.1497  137.9184  154.8282 H   0  0  0  0  0  0  0  0  0  0  0  0
  147.7719  138.3219  154.3352 H   0  0  0  0  0  0  0  0  0  0  0  0
  1  2  1  0  0  0  0
  1 21  1  0  0  0  0
  1 22  1  0  0  0  0
  1 23  1  0  0  0  0
  2 19  1  0  0  0  0
  2  3  1  0  0  0  0
  3  4  2  0  0  0  0
  3 24  1  0  0  0  0
  4  5  1  0  0  0  0
  4 25  1  0  0  0  0
  5  6  2  0  0  0  0
  5 26  1  0  0  0  0
  6  7  1  0  0  0  0
  6 19  1  0  0  0  0
  7  8  1  0  0  0  0
  7 27  1  0  0  0  0
  8  9  2  0  0  0  0
  8 10  1  0  0  0  0
 10 11  1  0  0  0  0
 10 28  1  0  0  0  0
 11 18  1  0  0  0  0
 11 12  1  0  0  0  0
 11 29  1  0  0  0  0
 12 13  1  0  0  0  0
 12 30  1  0  0  0  0
 12 31  1  0  0  0  0
 13 14  1  0  0  0  0
 13 32  1  0  0  0  0
 13 33  1  0  0  0  0
 14 15  1  0  0  0  0
 14 16  1  0  0  0  0
 14 17  1  0  0  0  0
 15 34  1  0  0  0  0
 15 35  1  0  0  0  0
 15 36  1  0  0  0  0
 16 37  1  0  0  0  0
 16 38  1  0  0  0  0
 16 39  1  0  0  0  0
 17 18  1  0  0  0  0
 17 40  1  0  0  0  0
 17 41  1  0  0  0  0
 18 42  1  0  0  0  0
 18 43  1  0  0  0  0
 19 20  2  0  0  0  0
M  END
> <s_m_source_file>
AV-unprocessed.smi

> <i_m_source_file_index>
665

> <i_lp_mmshare_version>
43012

> <i_f3d_flags>
0

> <s_epik_input>
W0NIM11uMVtjSF1bY0hdW2NIXWMoYzE9TylbTkhdQyg9TylbTkhdW0NIXShbQ0gyXVtDSDJdMilbQ0gyXVtDSDJdQzIoW0NIM10pW0NIM10=

> <s_epik_cmdline>
J2VwaWtfcHl0aG9uJywgJy1waCcsICc3LjAnLCAnLXRuJywgJzgnLCAnLW1hJywgJzIwMCcsICctbWV0YWxfYmluZGluZycsICctaW1hZScsICc8aW5maWxlLm1hZT4nLCAnLW9tYWUnLCAnPG91dGZpbGUubWFlPic=

> <r_lp_tautomer_probability>
1

> <r_epik_Ionization_Penalty>
2.65253e-05

> <r_epik_Ionization_Penalty_Charging>
5.1221e-06

> <r_epik_Ionization_Penalty_Neutral>
2.14032e-05

> <r_epik_State_Penalty>
-0

> <r_epik_Charging_Adjusted_Penalty>
5.1221e-06

> <i_epik_Tot_Q>
0

> <i_epik_Tot_abs_Q>
0

> <r_epik_Metal_State_Penalty>
-0

> <b_epik_Metal_Only>
0

> <s_lp_Force_Field>
OPLS_2005

> <r_lp_Energy>
25.5106

> <b_lp_Chiralities_Consistent>
1

> <s_lp_Variant>
AV-unprocessed.smi:665-1

> <Gold.Version>
5.8.1

> <Gold.Id.Protein>
6NUR|6NUR_protein|mol2

> <Gold.PLP.Fitness>
40.0024

> <Gold.PLP.PLP>
-35.2082

> <Gold.PLP.part.hbond>
-2.0000

> <Gold.PLP.part.metal>
0.0000

> <Gold.PLP.part.buried>
0.3290

> <Gold.PLP.part.nonpolar>
-34.0677

> <Gold.PLP.part.repulsive>
0.4432

> <Gold.PLP.ligand.clash>
0.0000

> <Gold.PLP.ligand.torsion>
0.4961

> <Gold.PLP.Chemscore.Hbond>
1.9280

> <Gold.PLP.Chemscore.CHOScore>
0.0000

> <Gold.PLP.Chemscore.Metal>
0.0000

> <Gold.Chemscore.Hbonds>
donor molecule, donor type, donor heavy atom, donor atom, acceptor molecule, acceptor atom, score
      L1  H     7    27       P1  7948  0.93
      L1  H    10    28       P1  7948  1.00

> <Gold.PLP.Chemscore.Internal.Correction>
0.0024

> <Gold.Rescore>
     Score         DG    S(hbond)    S(metal)    S(lipo)     H(rot)  DE(clash)    DE(int)     intcor
     18.00     -19.10       1.81        0.00      86.60       1.00       0.61       0.50       ----

> <Gold.Chemscore.Fitness>
17.9964

> <Gold.Chemscore.DG>
-19.1021

> <Gold.Chemscore.ZeroCoef>
-5.4800

> <Gold.Chemscore.Hbond>
1.8112

> <Gold.Chemscore.Metal>
0.0000

> <Gold.Chemscore.Lipo>
86.6029

> <Gold.Chemscore.Internal_Hbond>
0.0000

> <Gold.Chemscore.DEClash>
0.6067

> <Gold.Chemscore.DEInternal>
0.4990

> <Gold.Chemscore.Rot>
1.0000

> <Gold.Chemscore.Internal.Correction>
   9.000000E+99

> <Gold.Chemscore.Hbonds>
donor molecule, donor type, donor heavy atom, donor atom, acceptor molecule, acceptor atom, score
      L1  H     7    27       P1  7948  0.73
      L1  H    10    28       P1  7948  0.98

> <Gold.Chemscore.Hbond.Weighted>
-6.0496

> <Gold.Chemscore.Metal.Weighted>
-0.0000

> <Gold.Chemscore.Lipo.Weighted>
-10.1325

> <Gold.Chemscore.Internal_Hbond.Weighted>
0.0000

> <Gold.Chemscore.DEClash.Weighted>
0.6067

> <Gold.Chemscore.DEInternal.Weighted>
0.4990

> <Gold.Chemscore.Rot.Weighted>
2.5600

> <Gold.Chemscore.Internal.Correction.Weighted>
   9.000000E+99

> <Gold.Protein.RotatedTorsions>
[ 6907 6896 6895 6894 ] final  160.15 input  -60.11 | X-H torsion
[ 7974 7965 7964 7962 ] final  102.48 input  175.53 | X-H torsion
[ 8008 7997 7996 7995 ] final -108.41 input   59.86 | X-H torsion
[ 10167 10162 10161 10158 ] final  -27.13 input  -65.29 | X-H torsion
[ 10718 10713 10712 10709 ] final  104.07 input   66.30 | X-H torsion
[ 10763 10752 10751 10750 ] final -151.93 input  -60.55 | X-H torsion
[ 11005 11000 10999 10996 ] final   71.82 input  -57.11 | X-H torsion

> <Gold.Protein.ActiveResidues>
 VAL166  LYS551  ARG553  GLY616  TRP617  ASP618  TYR619  PRO620  LYS621  CYS622 
 ASP623  PHE694  ASN695  SER759  ASP760  ASP761  ALA762  ILE779  LEU786  VAL792 
 PHE793  MET794  SER795  GLU796  ALA797  LYS798  CYS799  TRP800  GLU811  SER814 

> <Gold.Protein.RotatedAtoms>
  151.9750  133.3738  159.4085 H   0  0  0  0  0  0  0  0  0  0  0  0  # atno 6907 bound_to 6896
  150.6943  134.4099  159.5166 H   0  0  0  0  0  0  0  0  0  0  0  0  # atno 6908 bound_to 6896
  152.1809  134.8754  160.0577 H   0  0  0  0  0  0  0  0  0  0  0  0  # atno 6909 bound_to 6896
  145.3585  139.2423  143.3519 H   0  0  0  0  0  0  0  0  0  0  0  0  # atno 7974 bound_to 7965
  154.9438  140.0402  157.2110 H   0  0  0  0  0  0  0  0  0  0  0  0  # atno 8008 bound_to 7997
  154.8043  140.2857  155.5877 H   0  0  0  0  0  0  0  0  0  0  0  0  # atno 8009 bound_to 7997
  156.2965  140.2549  156.2918 H   0  0  0  0  0  0  0  0  0  0  0  0  # atno 8010 bound_to 7997
  140.7279  143.4119  151.1091 H   0  0  0  0  0  0  0  0  0  0  0  0  # atno 10167 bound_to 10162
  157.6752  131.0795  150.5651 H   0  0  0  0  0  0  0  0  0  0  0  0  # atno 10718 bound_to 10713
  154.8027  135.3248  154.7510 H   0  0  0  0  0  0  0  0  0  0  0  0  # atno 10763 bound_to 10752
  153.8175  135.6890  153.4836 H   0  0  0  0  0  0  0  0  0  0  0  0  # atno 10764 bound_to 10752
  153.1753  135.4607  154.9900 H   0  0  0  0  0  0  0  0  0  0  0  0  # atno 10765 bound_to 10752
  139.9523  134.7205  156.0833 H   0  0  0  0  0  0  0  0  0  0  0  0  # atno 11005 bound_to 11000
  146.2937  140.4215  142.8730 LP  0  0  0  0  0  0  0  0  0  0  0  0  # atno 17320 bound_to 7965
  144.8664  140.7211  143.6075 LP  0  0  0  0  0  0  0  0  0  0  0  0  # atno 17321 bound_to 7965
  139.7754  143.8433  152.3128 LP  0  0  0  0  0  0  0  0  0  0  0  0  # atno 17342 bound_to 10162
  139.8366  144.7229  150.9383 LP  0  0  0  0  0  0  0  0  0  0  0  0  # atno 17343 bound_to 10162
  156.5953  130.4340  149.5919 LP  0  0  0  0  0  0  0  0  0  0  0  0  # atno 17370 bound_to 10713
  156.2550  130.6929  151.1679 LP  0  0  0  0  0  0  0  0  0  0  0  0  # atno 17371 bound_to 10713
  141.1188  133.6619  156.3163 LP  0  0  0  0  0  0  0  0  0  0  0  0  # atno 17394 bound_to 11000
  140.5690  134.5859  157.5453 LP  0  0  0  0  0  0  0  0  0  0  0  0  # atno 17395 bound_to 11000

$$$$
