AV-unprocessed.smi:1199|AV-procd|sdf|5018|dock1
  -GOLD-   22720 4 33D 1   1.00000     0.00000
 Structure written by MMmdl.
 41 42  0  0  0  0  0  0  0  0  1 V2000
  148.2086  145.2055  161.0518 C   0  0  0  0  0  0  0  0  0  0  0  0
  148.2355  144.0527  160.0397 C   0  0  2  0  0  0  0  0  0  0  0  0
  149.5814  143.9965  159.2823 C   0  0  0  0  0  0  0  0  0  0  0  0
  150.5800  143.0846  159.8438 N   0  0  0  0  0  0  0  0  0  0  0  0
  151.4972  143.7425  160.7703 C   0  0  0  0  0  0  0  0  0  0  0  0
  152.5116  142.7484  161.3607 C   0  0  0  0  0  0  0  0  0  0  0  0
  153.2286  142.1162  160.3050 O   0  0  0  0  0  0  0  0  0  0  0  0
  152.3752  141.4346  159.3909 C   0  0  0  0  0  0  0  0  0  0  0  0
  151.3537  142.4229  158.8006 C   0  0  0  0  0  0  0  0  0  0  0  0
  147.1404  144.2203  159.0858 N   0  0  0  0  0  0  0  0  0  0  0  0
  146.1941  143.3080  158.8139 C   0  0  0  0  0  0  0  0  0  0  0  0
  146.0544  142.2599  159.4451 O   0  0  0  0  0  0  0  0  0  0  0  0
  145.2666  143.6230  157.6346 C   0  0  0  0  0  0  0  0  0  0  0  0
  145.7487  143.0154  156.3862 N   0  0  0  0  0  0  0  0  0  0  0  0
  146.8476  142.1850  156.5449 N   0  0  0  0  0  0  0  0  0  0  0  0
  147.3839  141.6227  155.5152 C   0  0  0  0  0  0  0  0  0  0  0  0
  148.4737  140.8121  155.7168 O   0  0  0  0  0  0  0  0  0  0  0  0
  146.8576  141.8375  154.1851 C   0  0  0  0  0  0  0  0  0  0  0  0
  145.7809  142.6408  154.0412 C   0  0  0  0  0  0  0  0  0  0  0  0
  145.1446  143.2904  155.1882 C   0  0  0  0  0  0  0  0  0  0  0  0
  144.1581  144.0199  155.0873 O   0  0  0  0  0  0  0  0  0  0  0  0
  149.1833  141.2262  155.2500 H   0  0  0  0  0  0  0  0  0  0  0  0
  149.0102  145.1018  161.7835 H   0  0  0  0  0  0  0  0  0  0  0  0
  147.2650  145.2259  161.5981 H   0  0  0  0  0  0  0  0  0  0  0  0
  148.3304  146.1714  160.5603 H   0  0  0  0  0  0  0  0  0  0  0  0
  148.1067  143.1306  160.6076 H   0  0  0  0  0  0  0  0  0  0  0  0
  149.3687  143.6894  158.2572 H   0  0  0  0  0  0  0  0  0  0  0  0
  150.0025  145.0000  159.2090 H   0  0  0  0  0  0  0  0  0  0  0  0
  152.0303  144.5444  160.2575 H   0  0  0  0  0  0  0  0  0  0  0  0
  150.9480  144.2074  161.5873 H   0  0  0  0  0  0  0  0  0  0  0  0
  153.2160  143.2660  162.0116 H   0  0  0  0  0  0  0  0  0  0  0  0
  152.0051  141.9967  161.9685 H   0  0  0  0  0  0  0  0  0  0  0  0
  152.9801  140.9945  158.5979 H   0  0  0  0  0  0  0  0  0  0  0  0
  151.8684  140.6137  159.9007 H   0  0  0  0  0  0  0  0  0  0  0  0
  150.6848  141.8866  158.1265 H   0  0  0  0  0  0  0  0  0  0  0  0
  151.8751  143.1678  158.1975 H   0  0  0  0  0  0  0  0  0  0  0  0
  147.1634  145.0537  158.5165 H   0  0  0  0  0  0  0  0  0  0  0  0
  144.2683  143.2568  157.8802 H   0  0  0  0  0  0  0  0  0  0  0  0
  145.1629  144.7026  157.5078 H   0  0  0  0  0  0  0  0  0  0  0  0
  147.3215  141.3622  153.3333 H   0  0  0  0  0  0  0  0  0  0  0  0
  145.3780  142.8109  153.0534 H   0  0  0  0  0  0  0  0  0  0  0  0
  1  2  1  0  0  0  0
  1 23  1  0  0  0  0
  1 24  1  0  0  0  0
  1 25  1  0  0  0  0
  2  3  1  0  0  0  0
  2 10  1  0  0  0  0
  2 26  1  0  0  0  0
  3  4  1  0  0  0  0
  3 27  1  0  0  0  0
  3 28  1  0  0  0  0
  4  9  1  0  0  0  0
  4  5  1  0  0  0  0
  5  6  1  0  0  0  0
  5 29  1  0  0  0  0
  5 30  1  0  0  0  0
  6  7  1  0  0  0  0
  6 31  1  0  0  0  0
  6 32  1  0  0  0  0
  7  8  1  0  0  0  0
  8  9  1  0  0  0  0
  8 33  1  0  0  0  0
  8 34  1  0  0  0  0
  9 35  1  0  0  0  0
  9 36  1  0  0  0  0
 10 11  1  0  0  0  0
 10 37  1  0  0  0  0
 11 12  2  0  0  0  0
 11 13  1  0  0  0  0
 13 38  1  0  0  0  0
 13 39  1  0  0  0  0
 13 14  1  0  0  0  0
 14 15  1  0  0  0  0
 14 20  1  0  0  0  0
 15 16  2  0  0  0  0
 16 17  1  0  0  0  0
 16 18  1  0  0  0  0
 17 22  1  0  0  0  0
 18 40  1  0  0  0  0
 18 19  2  0  0  0  0
 19 41  1  0  0  0  0
 19 20  1  0  0  0  0
 20 21  2  0  0  0  0
M  END
> <s_m_source_file>
AV-unprocessed.smi

> <i_m_source_file_index>
1199

> <i_lp_mmshare_version>
43012

> <i_f3d_flags>
0

> <s_epik_input>
W0NIMl0xW0NIMl1PW0NIMl1bQ0gyXU4xW0NIMl1bQ0BASF0oW0NIM10pW05IXUMoPU8pW0NIMl1uMltuSF1jKD1PKVtjSF1bY0hdYzI9Tw==

> <s_epik_cmdline>
J2VwaWtfcHl0aG9uJywgJy1waCcsICc3LjAnLCAnLXRuJywgJzgnLCAnLW1hJywgJzIwMCcsICctbWV0YWxfYmluZGluZycsICctaW1hZScsICc8aW5maWxlLm1hZT4nLCAnLW9tYWUnLCAnPG91dGZpbGUubWFlPic=

> <r_epik_Ionization_Penalty>
2.36432

> <r_epik_Ionization_Penalty_Charging>
3.67277e-08

> <r_epik_Ionization_Penalty_Neutral>
2.36432

> <r_epik_State_Penalty>
1.96081

> <r_epik_Charging_Adjusted_Penalty>
1.96081

> <i_epik_Tot_Q>
0

> <i_epik_Tot_abs_Q>
0

> <r_epik_Metal_State_Penalty>
1.96081

> <b_epik_Metal_Only>
0

> <s_lp_Force_Field>
OPLS_2005

> <r_lp_Energy>
35.6953

> <b_lp_Chiralities_Consistent>
1

> <s_lp_Variant>
AV-unprocessed.smi:1199-5

> <Gold.Version>
5.8.1

> <Gold.Id.Protein>
6NUR|6NUR_protein|mol2

> <Gold.PLP.Fitness>
40.4227

> <Gold.PLP.PLP>
-37.1129

> <Gold.PLP.part.hbond>
-2.9212

> <Gold.PLP.part.metal>
0.0000

> <Gold.PLP.part.buried>
-6.2224

> <Gold.PLP.part.nonpolar>
-29.0121

> <Gold.PLP.part.repulsive>
0.4892

> <Gold.PLP.ligand.clash>
0.0000

> <Gold.PLP.ligand.torsion>
1.3917

> <Gold.PLP.Chemscore.Hbond>
1.9920

> <Gold.PLP.Chemscore.CHOScore>
0.0000

> <Gold.PLP.Chemscore.Metal>
0.0000

> <Gold.Chemscore.Hbonds>
donor molecule, donor type, donor heavy atom, donor atom, acceptor molecule, acceptor atom, score
      L1  H    10    37       P1  8029  1.00
      P1  H  6934  6946       L1    12  0.89

> <Gold.PLP.Chemscore.Internal.Correction>
0.1173

> <Gold.Rescore>
     Score         DG    S(hbond)    S(metal)    S(lipo)     H(rot)  DE(clash)    DE(int)     intcor
     11.51     -13.07       1.96        0.00      73.42       2.94       0.05       1.50       ----

> <Gold.Chemscore.Fitness>
11.5119

> <Gold.Chemscore.DG>
-13.0687

> <Gold.Chemscore.ZeroCoef>
-5.4800

> <Gold.Chemscore.Hbond>
1.9565

> <Gold.Chemscore.Metal>
0.0000

> <Gold.Chemscore.Lipo>
73.4177

> <Gold.Chemscore.Internal_Hbond>
0.0000

> <Gold.Chemscore.DEClash>
0.0532

> <Gold.Chemscore.DEInternal>
1.5037

> <Gold.Chemscore.Rot>
2.9437

> <Gold.Chemscore.Internal.Correction>
   9.000000E+99

> <Gold.Chemscore.Hbonds>
donor molecule, donor type, donor heavy atom, donor atom, acceptor molecule, acceptor atom, score
      L1  H    10    37       P1  8029  0.94
      P1  H  6934  6946       L1    12  0.87

> <Gold.Chemscore.Hbond.Weighted>
-6.5348

> <Gold.Chemscore.Metal.Weighted>
-0.0000

> <Gold.Chemscore.Lipo.Weighted>
-8.5899

> <Gold.Chemscore.Internal_Hbond.Weighted>
0.0000

> <Gold.Chemscore.DEClash.Weighted>
0.0532

> <Gold.Chemscore.DEInternal.Weighted>
1.5037

> <Gold.Chemscore.Rot.Weighted>
7.5359

> <Gold.Chemscore.Internal.Correction.Weighted>
   9.000000E+99

> <Gold.Protein.RotatedTorsions>
[ 6907 6896 6895 6894 ] final  -55.89 input  -60.11 | X-H torsion
[ 7974 7965 7964 7962 ] final  117.60 input  175.53 | X-H torsion
[ 8008 7997 7996 7995 ] final -177.08 input   59.86 | X-H torsion
[ 10167 10162 10161 10158 ] final -111.37 input  -65.29 | X-H torsion
[ 10718 10713 10712 10709 ] final  -66.46 input   66.30 | X-H torsion
[ 10763 10752 10751 10750 ] final  149.35 input  -60.55 | X-H torsion
[ 11005 11000 10999 10996 ] final  -69.63 input  -57.11 | X-H torsion

> <Gold.Protein.ActiveResidues>
 VAL166  LYS551  ARG553  GLY616  TRP617  ASP618  TYR619  PRO620  LYS621  CYS622 
 ASP623  PHE694  ASN695  SER759  ASP760  ASP761  ALA762  ILE779  LEU786  VAL792 
 PHE793  MET794  SER795  GLU796  ALA797  LYS798  CYS799  TRP800  GLU811  SER814 

> <Gold.Protein.RotatedAtoms>
  150.8213  134.7422  159.6774 H   0  0  0  0  0  0  0  0  0  0  0  0  # atno 6907 bound_to 6896
  152.4328  134.5741  159.9939 H   0  0  0  0  0  0  0  0  0  0  0  0  # atno 6908 bound_to 6896
  151.5924  133.3327  159.3066 H   0  0  0  0  0  0  0  0  0  0  0  0  # atno 6909 bound_to 6896
  145.1654  139.3131  143.4495 H   0  0  0  0  0  0  0  0  0  0  0  0  # atno 7974 bound_to 7965
  156.0027  140.1224  157.0532 H   0  0  0  0  0  0  0  0  0  0  0  0  # atno 8008 bound_to 7997
  154.4248  140.1103  156.5788 H   0  0  0  0  0  0  0  0  0  0  0  0  # atno 8009 bound_to 7997
  155.6190  140.3472  155.4648 H   0  0  0  0  0  0  0  0  0  0  0  0  # atno 8010 bound_to 7997
  140.1344  143.4333  152.1605 H   0  0  0  0  0  0  0  0  0  0  0  0  # atno 10167 bound_to 10162
  156.0611  130.4262  150.1712 H   0  0  0  0  0  0  0  0  0  0  0  0  # atno 10718 bound_to 10713
  154.0698  135.2867  155.3310 H   0  0  0  0  0  0  0  0  0  0  0  0  # atno 10763 bound_to 10752
  154.6754  135.5283  153.8196 H   0  0  0  0  0  0  0  0  0  0  0  0  # atno 10764 bound_to 10752
  153.0490  135.6568  154.0880 H   0  0  0  0  0  0  0  0  0  0  0  0  # atno 10765 bound_to 10752
  141.1558  133.6769  156.6629 H   0  0  0  0  0  0  0  0  0  0  0  0  # atno 11005 bound_to 11000
  146.3476  140.1779  142.8589 LP  0  0  0  0  0  0  0  0  0  0  0  0  # atno 17320 bound_to 7965
  145.0288  140.8854  143.5122 LP  0  0  0  0  0  0  0  0  0  0  0  0  # atno 17321 bound_to 7965
  139.5503  144.7332  151.4454 LP  0  0  0  0  0  0  0  0  0  0  0  0  # atno 17342 bound_to 10162
  140.6798  143.8107  150.7106 LP  0  0  0  0  0  0  0  0  0  0  0  0  # atno 17343 bound_to 10162
  156.9780  130.9855  151.3444 LP  0  0  0  0  0  0  0  0  0  0  0  0  # atno 17370 bound_to 10713
  157.5620  130.8252  149.8278 LP  0  0  0  0  0  0  0  0  0  0  0  0  # atno 17371 bound_to 10713
  140.3233  134.7989  157.4270 LP  0  0  0  0  0  0  0  0  0  0  0  0  # atno 17394 bound_to 11000
  140.1078  134.5386  155.8293 LP  0  0  0  0  0  0  0  0  0  0  0  0  # atno 17395 bound_to 11000

$$$$
