AV-unprocessed.smi:906|AV-procd|sdf|4105|dock4
  -GOLD-   22720 2 03D 1   1.00000     0.00000
 Structure written by MMmdl.
 48 49  0  0  0  0  0  0  0  0  2 V2000
  151.7548  146.0387  159.8550 C   0  0  0  0  0  0  0  0  0  0  0  0
  151.7875  144.6223  159.3206 C   0  0  0  0  0  0  0  0  0  0  0  0
  150.6965  144.0948  158.5981 C   0  0  0  0  0  0  0  0  0  0  0  0
  150.7829  142.7714  158.1256 C   0  0  0  0  0  0  0  0  0  0  0  0
  151.9498  142.0271  158.3965 C   0  0  0  0  0  0  0  0  0  0  0  0
  152.0863  140.5867  157.9346 C   0  0  0  0  0  0  0  0  0  0  0  0
  150.8157  139.7457  158.1609 C   0  0  0  0  0  0  0  0  0  0  0  0
  150.5071  138.8972  157.0124 N   0  0  0  0  0  0  0  0  0  0  0  0
  149.2970  138.3977  156.7051 C   0  0  0  0  0  0  0  0  0  0  0  0
  148.3018  138.6027  157.4007 O   0  0  0  0  0  0  0  0  0  0  0  0
  149.2485  137.7297  155.5260 N   0  0  0  0  0  0  0  0  0  0  0  0
  150.4080  137.3172  154.7221 C   0  0  0  0  0  0  0  0  0  0  0  0
  150.6133  135.7983  154.8768 C   0  0  0  0  0  0  0  0  0  0  0  0
  149.3782  135.0431  154.5262 N   0  3  0  0  0  0  0  0  0  0  0  0
  149.5677  133.5610  154.5449 C   0  0  1  0  0  0  0  0  0  0  0  0
  150.0279  133.0163  155.9129 C   0  0  0  0  0  0  0  0  0  0  0  0
  148.3328  132.8146  153.9935 C   0  0  0  0  0  0  0  0  0  0  0  0
  147.8308  133.4807  152.9535 F   0  0  0  0  0  0  0  0  0  0  0  0
  148.6963  131.6022  153.5760 F   0  0  0  0  0  0  0  0  0  0  0  0
  147.3825  132.6748  154.9166 F   0  0  0  0  0  0  0  0  0  0  0  0
  148.1694  135.5518  155.2359 C   0  0  0  0  0  0  0  0  0  0  0  0
  148.0251  137.0733  155.0568 C   0  0  0  0  0  0  0  0  0  0  0  0
  152.9837  142.6492  159.1275 C   0  0  0  0  0  0  0  0  0  0  0  0
  152.9106  143.9183  159.5822 N   0  0  0  0  0  0  0  0  0  0  0  0
  150.8271  146.5431  159.5833 H   0  0  0  0  0  0  0  0  0  0  0  0
  152.5866  146.6163  159.4508 H   0  0  0  0  0  0  0  0  0  0  0  0
  151.8347  146.0348  160.9424 H   0  0  0  0  0  0  0  0  0  0  0  0
  149.8135  144.6876  158.4105 H   0  0  0  0  0  0  0  0  0  0  0  0
  149.9627  142.3343  157.5749 H   0  0  0  0  0  0  0  0  0  0  0  0
  152.3511  140.5744  156.8765 H   0  0  0  0  0  0  0  0  0  0  0  0
  152.9255  140.1306  158.4608 H   0  0  0  0  0  0  0  0  0  0  0  0
  150.9559  139.1016  159.0291 H   0  0  0  0  0  0  0  0  0  0  0  0
  149.9729  140.3962  158.4008 H   0  0  0  0  0  0  0  0  0  0  0  0
  151.2680  138.7067  156.3771 H   0  0  0  0  0  0  0  0  0  0  0  0
  150.2179  137.5622  153.6759 H   0  0  0  0  0  0  0  0  0  0  0  0
  151.3313  137.8362  154.9791 H   0  0  0  0  0  0  0  0  0  0  0  0
  151.4362  135.4815  154.2348 H   0  0  0  0  0  0  0  0  0  0  0  0
  150.9042  135.5698  155.9030 H   0  0  0  0  0  0  0  0  0  0  0  0
  150.3699  133.3459  153.8370 H   0  0  0  0  0  0  0  0  0  0  0  0
  150.2845  131.9593  155.8400 H   0  0  0  0  0  0  0  0  0  0  0  0
  149.2492  133.1045  156.6705 H   0  0  0  0  0  0  0  0  0  0  0  0
  150.9126  133.5380  156.2778 H   0  0  0  0  0  0  0  0  0  0  0  0
  147.2713  135.0645  154.8610 H   0  0  0  0  0  0  0  0  0  0  0  0
  148.2362  135.3270  156.3010 H   0  0  0  0  0  0  0  0  0  0  0  0
  147.1328  137.4300  155.5737 H   0  0  0  0  0  0  0  0  0  0  0  0
  147.8697  137.3142  154.0043 H   0  0  0  0  0  0  0  0  0  0  0  0
  153.8903  142.1112  159.3619 H   0  0  0  0  0  0  0  0  0  0  0  0
  149.2215  135.2645  153.5530 H   0  0  0  0  0  0  0  0  0  0  0  0
  1  2  1  0  0  0  0
  1 25  1  0  0  0  0
  1 26  1  0  0  0  0
  1 27  1  0  0  0  0
  2 24  1  0  0  0  0
  2  3  2  0  0  0  0
  3  4  1  0  0  0  0
  3 28  1  0  0  0  0
  4  5  2  0  0  0  0
  4 29  1  0  0  0  0
  5  6  1  0  0  0  0
  5 23  1  0  0  0  0
  6  7  1  0  0  0  0
  6 30  1  0  0  0  0
  6 31  1  0  0  0  0
  7  8  1  0  0  0  0
  7 32  1  0  0  0  0
  7 33  1  0  0  0  0
  8  9  1  0  0  0  0
  8 34  1  0  0  0  0
  9 10  2  0  0  0  0
  9 11  1  0  0  0  0
 11 22  1  0  0  0  0
 11 12  1  0  0  0  0
 12 13  1  0  0  0  0
 12 35  1  0  0  0  0
 12 36  1  0  0  0  0
 13 14  1  0  0  0  0
 13 37  1  0  0  0  0
 13 38  1  0  0  0  0
 14 15  1  0  0  0  0
 14 21  1  0  0  0  0
 14 48  1  0  0  0  0
 15 16  1  0  0  0  0
 15 17  1  0  0  0  0
 15 39  1  0  0  0  0
 16 40  1  0  0  0  0
 16 41  1  0  0  0  0
 16 42  1  0  0  0  0
 17 18  1  0  0  0  0
 17 19  1  0  0  0  0
 17 20  1  0  0  0  0
 21 22  1  0  0  0  0
 21 43  1  0  0  0  0
 21 44  1  0  0  0  0
 22 45  1  0  0  0  0
 22 46  1  0  0  0  0
 23 24  2  0  0  0  0
 23 47  1  0  0  0  0
M  CHG  1  14   1
M  END
> <s_m_source_file>
AV-unprocessed.smi

> <i_m_source_file_index>
906

> <i_lp_mmshare_version>
43012

> <i_f3d_flags>
0

> <s_epik_input>
W0NIM11jMVtjSF1bY0hdYyhbY0hdbjEpW0NIMl1bQ0gyXVtOSF1DKD1PKU4yW0NIMl1bQ0gyXU4oW0NASF0oW0NIM10pQyhGKShGKUYpW0NIMl1bQ0gyXTI=

> <s_epik_cmdline>
J2VwaWtfcHl0aG9uJywgJy1waCcsICc3LjAnLCAnLXRuJywgJzgnLCAnLW1hJywgJzIwMCcsICctbWV0YWxfYmluZGluZycsICctaW1hZScsICc8aW5maWxlLm1hZT4nLCAnLW9tYWUnLCAnPG91dGZpbGUubWFlPic=

> <r_epik_Ionization_Penalty>
2.02136

> <r_epik_Ionization_Penalty_Charging>
1.96814

> <r_epik_Ionization_Penalty_Neutral>
0.0532286

> <r_epik_State_Penalty>
2.14285

> <r_epik_Charging_Adjusted_Penalty>
4.11098

> <i_epik_Tot_Q>
1

> <i_epik_Tot_abs_Q>
1

> <r_epik_Metal_State_Penalty>
2.1406

> <b_epik_Metal_Only>
0

> <s_lp_Force_Field>
OPLS_2005

> <r_lp_Energy>
51.1917

> <b_lp_Chiralities_Consistent>
1

> <s_lp_Variant>
AV-unprocessed.smi:906-6

> <Gold.Version>
5.8.1

> <Gold.Id.Protein>
6NUR|6NUR_protein|mol2

> <Gold.PLP.Fitness>
44.3715

> <Gold.PLP.PLP>
-39.9454

> <Gold.PLP.part.hbond>
-1.0000

> <Gold.PLP.part.metal>
0.0000

> <Gold.PLP.part.buried>
-2.7058

> <Gold.PLP.part.nonpolar>
-34.9538

> <Gold.PLP.part.repulsive>
0.0314

> <Gold.PLP.ligand.clash>
0.0073

> <Gold.PLP.ligand.torsion>
1.2266

> <Gold.PLP.Chemscore.Hbond>
2.0000

> <Gold.PLP.Chemscore.CHOScore>
0.0000

> <Gold.PLP.Chemscore.Metal>
0.0000

> <Gold.Chemscore.Hbonds>
donor molecule, donor type, donor heavy atom, donor atom, acceptor molecule, acceptor atom, score
      L1  H    14    48       P1  7948  2.00

> <Gold.PLP.Chemscore.Internal.Correction>
0.8866

> <Gold.Rescore>
     Score         DG    S(hbond)    S(metal)    S(lipo)     H(rot)  DE(clash)    DE(int)     intcor
     14.11     -16.48       0.94        0.00     102.50       1.62       0.01       2.36       ----

> <Gold.Chemscore.Fitness>
14.1122

> <Gold.Chemscore.DG>
-16.4822

> <Gold.Chemscore.ZeroCoef>
-5.4800

> <Gold.Chemscore.Hbond>
0.9431

> <Gold.Chemscore.Metal>
0.0000

> <Gold.Chemscore.Lipo>
102.4975

> <Gold.Chemscore.Internal_Hbond>
0.0000

> <Gold.Chemscore.DEClash>
0.0147

> <Gold.Chemscore.DEInternal>
2.3553

> <Gold.Chemscore.Rot>
1.6171

> <Gold.Chemscore.Internal.Correction>
   9.000000E+99

> <Gold.Chemscore.Hbonds>
donor molecule, donor type, donor heavy atom, donor atom, acceptor molecule, acceptor atom, score
      L1  H    14    48       P1  7948  0.30

> <Gold.Chemscore.Hbond.Weighted>
-3.1498

> <Gold.Chemscore.Metal.Weighted>
-0.0000

> <Gold.Chemscore.Lipo.Weighted>
-11.9922

> <Gold.Chemscore.Internal_Hbond.Weighted>
0.0000

> <Gold.Chemscore.DEClash.Weighted>
0.0147

> <Gold.Chemscore.DEInternal.Weighted>
2.3553

> <Gold.Chemscore.Rot.Weighted>
4.1398

> <Gold.Chemscore.Internal.Correction.Weighted>
   9.000000E+99

> <Gold.Protein.RotatedTorsions>
[ 6907 6896 6895 6894 ] final   96.19 input  -60.11 | X-H torsion
[ 7974 7965 7964 7962 ] final -150.67 input  175.53 | X-H torsion
[ 8008 7997 7996 7995 ] final   27.58 input   59.86 | X-H torsion
[ 10167 10162 10161 10158 ] final  -32.16 input  -65.29 | X-H torsion
[ 10718 10713 10712 10709 ] final   88.54 input   66.30 | X-H torsion
[ 10763 10752 10751 10750 ] final   35.64 input  -60.55 | X-H torsion
[ 11005 11000 10999 10996 ] final   35.94 input  -57.11 | X-H torsion

> <Gold.Protein.ActiveResidues>
 VAL166  LYS551  ARG553  GLY616  TRP617  ASP618  TYR619  PRO620  LYS621  CYS622 
 ASP623  PHE694  ASN695  SER759  ASP760  ASP761  ALA762  ILE779  LEU786  VAL792 
 PHE793  MET794  SER795  GLU796  ALA797  LYS798  CYS799  TRP800  GLU811  SER814 

> <Gold.Protein.RotatedAtoms>
  152.5437  134.0925  159.8282 H   0  0  0  0  0  0  0  0  0  0  0  0  # atno 6907 bound_to 6896
  151.1013  133.5234  159.2617 H   0  0  0  0  0  0  0  0  0  0  0  0  # atno 6908 bound_to 6896
  151.1988  135.0443  159.8918 H   0  0  0  0  0  0  0  0  0  0  0  0  # atno 6909 bound_to 6896
  144.7894  140.4901  143.5783 H   0  0  0  0  0  0  0  0  0  0  0  0  # atno 7974 bound_to 7965
  155.0452  140.3174  155.4710 H   0  0  0  0  0  0  0  0  0  0  0  0  # atno 8008 bound_to 7997
  156.2846  140.2156  156.5520 H   0  0  0  0  0  0  0  0  0  0  0  0  # atno 8009 bound_to 7997
  154.7256  140.0486  157.0667 H   0  0  0  0  0  0  0  0  0  0  0  0  # atno 8010 bound_to 7997
  140.7225  143.3716  151.1768 H   0  0  0  0  0  0  0  0  0  0  0  0  # atno 10167 bound_to 10162
  157.6950  131.0299  150.3291 H   0  0  0  0  0  0  0  0  0  0  0  0  # atno 10718 bound_to 10713
  153.0110  135.6328  154.1859 H   0  0  0  0  0  0  0  0  0  0  0  0  # atno 10763 bound_to 10752
  154.1601  135.2824  155.3113 H   0  0  0  0  0  0  0  0  0  0  0  0  # atno 10764 bound_to 10752
  154.5988  135.5594  153.7413 H   0  0  0  0  0  0  0  0  0  0  0  0  # atno 10765 bound_to 10752
  140.2376  134.3453  155.7938 H   0  0  0  0  0  0  0  0  0  0  0  0  # atno 11005 bound_to 11000
  145.5834  139.1490  143.3222 LP  0  0  0  0  0  0  0  0  0  0  0  0  # atno 17320 bound_to 7965
  146.2140  140.5963  142.9047 LP  0  0  0  0  0  0  0  0  0  0  0  0  # atno 17321 bound_to 7965
  139.7288  143.9105  152.3012 LP  0  0  0  0  0  0  0  0  0  0  0  0  # atno 17342 bound_to 10162
  139.8887  144.6977  150.8794 LP  0  0  0  0  0  0  0  0  0  0  0  0  # atno 17343 bound_to 10162
  156.3767  130.3873  149.7133 LP  0  0  0  0  0  0  0  0  0  0  0  0  # atno 17370 bound_to 10713
  156.4529  130.7915  151.2936 LP  0  0  0  0  0  0  0  0  0  0  0  0  # atno 17371 bound_to 10713
  141.2213  133.7280  156.8833 LP  0  0  0  0  0  0  0  0  0  0  0  0  # atno 17394 bound_to 11000
  140.1686  134.9116  157.2805 LP  0  0  0  0  0  0  0  0  0  0  0  0  # atno 17395 bound_to 11000

$$$$
