AV-unprocessed.smi:158|AV-procd|sdf|1338|dock10
  -GOLD-   2262019 33D 1   1.00000     0.00000
 Structure written by MMmdl.
 31 33  0  0  0  0  0  0  0  0  1 V2000
  153.6539  137.3884  162.1379 N   0  0  0  0  0  0  0  0  0  0  0  0
  153.9884  137.7988  160.9060 C   0  0  0  0  0  0  0  0  0  0  0  0
  155.1814  138.4145  160.7338 N   0  0  0  0  0  0  0  0  0  0  0  0
  155.5526  138.8403  159.5202 C   0  0  0  0  0  0  0  0  0  0  0  0
  157.0899  139.6140  159.4125 Cl  0  0  0  0  0  0  0  0  0  0  0  0
  154.8647  138.7350  158.3791 N   0  0  0  0  0  0  0  0  0  0  0  0
  153.6616  138.1141  158.5465 C   0  0  0  0  0  0  0  0  0  0  0  0
  153.1520  137.6191  159.7769 C   0  0  0  0  0  0  0  0  0  0  0  0
  151.9009  137.0516  159.5777 N   0  0  0  0  0  0  0  0  0  0  0  0
  151.6875  137.2054  158.2981 C   0  0  0  0  0  0  0  0  0  0  0  0
  152.6962  137.8333  157.5998 N   0  0  0  0  0  0  0  0  0  0  0  0
  152.7320  138.1441  156.1346 C   0  0  1  0  0  0  0  0  0  0  0  0
  151.9388  137.2029  155.4769 O   0  0  0  0  0  0  0  0  0  0  0  0
  151.0505  137.8535  154.5746 C   0  0  1  0  0  0  0  0  0  0  0  0
  149.7906  136.9932  154.3860 C   0  0  0  0  0  0  0  0  0  0  0  0
  148.8102  137.7036  153.6594 O   0  0  0  0  0  0  0  0  0  0  0  0
  150.8061  139.2258  155.2107 C   0  0  2  0  0  0  0  0  0  0  0  0
  150.4563  140.1996  154.2472 O   0  0  0  0  0  0  0  0  0  0  0  0
  152.1602  139.5383  155.8226 C   0  0  1  0  0  0  0  0  0  0  0  0
  152.0630  140.2975  156.9166 F   0  0  0  0  0  0  0  0  0  0  0  0
  153.7807  138.0379  155.8549 H   0  0  0  0  0  0  0  0  0  0  0  0
  151.5847  137.9630  153.6286 H   0  0  0  0  0  0  0  0  0  0  0  0
  150.0398  139.1685  155.9838 H   0  0  0  0  0  0  0  0  0  0  0  0
  152.8242  140.0341  155.1131 H   0  0  0  0  0  0  0  0  0  0  0  0
  152.7685  136.9272  162.2903 H   0  0  0  0  0  0  0  0  0  0  0  0
  154.2868  137.5395  162.9100 H   0  0  0  0  0  0  0  0  0  0  0  0
  150.7808  136.8587  157.8240 H   0  0  0  0  0  0  0  0  0  0  0  0
  150.0359  136.0909  153.8254 H   0  0  0  0  0  0  0  0  0  0  0  0
  149.3820  136.6743  155.3452 H   0  0  0  0  0  0  0  0  0  0  0  0
  148.7059  137.2926  152.8148 H   0  0  0  0  0  0  0  0  0  0  0  0
  149.5541  140.4464  154.3804 H   0  0  0  0  0  0  0  0  0  0  0  0
  1  2  1  0  0  0  0
  1 25  1  0  0  0  0
  1 26  1  0  0  0  0
  2  8  1  0  0  0  0
  2  3  2  0  0  0  0
  3  4  1  0  0  0  0
  4  5  1  0  0  0  0
  4  6  2  0  0  0  0
  6  7  1  0  0  0  0
  7 11  1  0  0  0  0
  7  8  2  0  0  0  0
  8  9  1  0  0  0  0
  9 10  2  0  0  0  0
 10 11  1  0  0  0  0
 10 27  1  0  0  0  0
 11 12  1  0  0  0  0
 12 21  1  0  0  0  0
 12 19  1  0  0  0  0
 12 13  1  0  0  0  0
 13 14  1  0  0  0  0
 14 22  1  0  0  0  0
 14 15  1  0  0  0  0
 14 17  1  0  0  0  0
 15 16  1  0  0  0  0
 15 28  1  0  0  0  0
 15 29  1  0  0  0  0
 16 30  1  0  0  0  0
 17 23  1  0  0  0  0
 17 18  1  0  0  0  0
 17 19  1  0  0  0  0
 18 31  1  0  0  0  0
 19 24  1  0  0  0  0
 19 20  1  0  0  0  0
M  END
> <s_m_source_file>
AV-unprocessed.smi

> <i_m_source_file_index>
158

> <i_lp_mmshare_version>
43012

> <i_f3d_flags>
0

> <s_epik_input>
Q2xjKG4xKW5jKFtOSDJdKWMoYzEyKW5bY0hdbjJbQ0BASF0zT1tDQEhdKFtDSDJdW09IXSlbQ0BASF0oW09IXSlbQ0BASF0zRg==

> <s_epik_cmdline>
J2VwaWtfcHl0aG9uJywgJy1waCcsICc3LjAnLCAnLXRuJywgJzgnLCAnLW1hJywgJzIwMCcsICctbWV0YWxfYmluZGluZycsICctaW1hZScsICc8aW5maWxlLm1hZT4nLCAnLW9tYWUnLCAnPG91dGZpbGUubWFlPic=

> <r_lp_tautomer_probability>
1

> <r_epik_Ionization_Penalty>
6.51543e-05

> <r_epik_Ionization_Penalty_Charging>
0

> <r_epik_Ionization_Penalty_Neutral>
6.51543e-05

> <r_epik_State_Penalty>
-0

> <r_epik_Charging_Adjusted_Penalty>
0

> <i_epik_Tot_Q>
0

> <i_epik_Tot_abs_Q>
0

> <r_epik_Metal_State_Penalty>
-0

> <b_epik_Metal_Only>
0

> <s_epik_Chemistry_Notes>
This compound contains an acetal/aminal-like group ( X-CH(R)-Y where X, Y are N, S, or O) that may be acid/base labile, releasing an aldehyde.

> <s_lp_Force_Field>
OPLS_2005

> <r_lp_Energy>
35.9184

> <b_lp_Chiralities_Consistent>
1

> <s_lp_Variant>
AV-unprocessed.smi:158-16

> <Gold.Version>
5.8.1

> <Gold.Id.Protein>
6NUR|6NUR_protein|mol2

> <Gold.PLP.Fitness>
37.3408

> <Gold.PLP.PLP>
-24.0851

> <Gold.PLP.part.hbond>
-4.9259

> <Gold.PLP.part.metal>
0.0000

> <Gold.PLP.part.buried>
-1.6049

> <Gold.PLP.part.nonpolar>
-17.4686

> <Gold.PLP.part.repulsive>
0.0799

> <Gold.PLP.ligand.clash>
0.0000

> <Gold.PLP.ligand.torsion>
0.7685

> <Gold.PLP.Chemscore.Hbond>
4.9199

> <Gold.PLP.Chemscore.CHOScore>
0.0000

> <Gold.PLP.Chemscore.Metal>
0.0000

> <Gold.Chemscore.Hbonds>
donor molecule, donor type, donor heavy atom, donor atom, acceptor molecule, acceptor atom, score
      L1  H    16    30       P1  7948  0.75
      P1  H  6896  6909       L1     9  1.00
      P1  H  7989  7998       L1    18  1.00
      P1  H  7997  8009       L1     6  1.00
      P1  H 10752 10765       L1    13  0.89

> <Gold.PLP.Chemscore.Internal.Correction>
0.0331

> <Gold.Rescore>
     Score         DG    S(hbond)    S(metal)    S(lipo)     H(rot)  DE(clash)    DE(int)     intcor
     14.03     -16.13       4.29        0.00      37.04       3.12       1.36       0.75       ----

> <Gold.Chemscore.Fitness>
14.0286

> <Gold.Chemscore.DG>
-16.1311

> <Gold.Chemscore.ZeroCoef>
-5.4800

> <Gold.Chemscore.Hbond>
4.2851

> <Gold.Chemscore.Metal>
0.0000

> <Gold.Chemscore.Lipo>
37.0414

> <Gold.Chemscore.Internal_Hbond>
0.0000

> <Gold.Chemscore.DEClash>
1.3563

> <Gold.Chemscore.DEInternal>
0.7462

> <Gold.Chemscore.Rot>
3.1230

> <Gold.Chemscore.Internal.Correction>
   9.000000E+99

> <Gold.Chemscore.Hbonds>
donor molecule, donor type, donor heavy atom, donor atom, acceptor molecule, acceptor atom, score
      L1  H    16    30       P1  7948  0.72
      P1  H  6896  6909       L1     9  0.54
      P1  H  7989  7998       L1    18  0.87
      P1  H  7997  8009       L1     6  0.91
      P1  H 10752 10765       L1    13  0.66

> <Gold.Chemscore.Hbond.Weighted>
-14.3122

> <Gold.Chemscore.Metal.Weighted>
-0.0000

> <Gold.Chemscore.Lipo.Weighted>
-4.3338

> <Gold.Chemscore.Internal_Hbond.Weighted>
0.0000

> <Gold.Chemscore.DEClash.Weighted>
1.3563

> <Gold.Chemscore.DEInternal.Weighted>
0.7462

> <Gold.Chemscore.Rot.Weighted>
7.9950

> <Gold.Chemscore.Internal.Correction.Weighted>
   9.000000E+99

> <Gold.Protein.RotatedTorsions>
[ 6907 6896 6895 6894 ] final  114.46 input  -60.11 | X-H torsion
[ 7974 7965 7964 7962 ] final  -34.26 input  175.53 | X-H torsion
[ 8008 7997 7996 7995 ] final  127.37 input   59.86 | X-H torsion
[ 10167 10162 10161 10158 ] final -159.10 input  -65.29 | X-H torsion
[ 10718 10713 10712 10709 ] final  -80.16 input   66.30 | X-H torsion
[ 10763 10752 10751 10750 ] final -172.92 input  -60.55 | X-H torsion
[ 11005 11000 10999 10996 ] final   63.22 input  -57.11 | X-H torsion

> <Gold.Protein.ActiveResidues>
 VAL166  LYS551  ARG553  GLY616  TRP617  ASP618  TYR619  PRO620  LYS621  CYS622 
 ASP623  PHE694  ASN695  SER759  ASP760  ASP761  ALA762  ILE779  LEU786  VAL792 
 PHE793  MET794  SER795  GLU796  ALA797  LYS798  CYS799  TRP800  GLU811  SER814 

> <Gold.Protein.RotatedAtoms>
  152.4801  133.8233  159.7064 H   0  0  0  0  0  0  0  0  0  0  0  0  # atno 6907 bound_to 6896
  150.8844  133.7318  159.2929 H   0  0  0  0  0  0  0  0  0  0  0  0  # atno 6908 bound_to 6896
  151.4811  135.1056  159.9830 H   0  0  0  0  0  0  0  0  0  0  0  0  # atno 6909 bound_to 6896
  146.0843  140.6017  142.8893 H   0  0  0  0  0  0  0  0  0  0  0  0  # atno 7974 bound_to 7965
  156.2889  140.2670  156.2261 H   0  0  0  0  0  0  0  0  0  0  0  0  # atno 8008 bound_to 7997
  155.0119  140.0387  157.2421 H   0  0  0  0  0  0  0  0  0  0  0  0  # atno 8009 bound_to 7997
  154.7511  140.2743  155.6297 H   0  0  0  0  0  0  0  0  0  0  0  0  # atno 8010 bound_to 7997
  139.6641  143.9860  152.2244 H   0  0  0  0  0  0  0  0  0  0  0  0  # atno 10167 bound_to 10162
  156.0076  130.4566  150.3758 H   0  0  0  0  0  0  0  0  0  0  0  0  # atno 10718 bound_to 10713
  154.6138  135.2867  155.0402 H   0  0  0  0  0  0  0  0  0  0  0  0  # atno 10763 bound_to 10752
  154.1622  135.6486  153.4992 H   0  0  0  0  0  0  0  0  0  0  0  0  # atno 10764 bound_to 10752
  153.0206  135.5381  154.6902 H   0  0  0  0  0  0  0  0  0  0  0  0  # atno 10765 bound_to 10752
  140.0039  134.6399  155.9886 H   0  0  0  0  0  0  0  0  0  0  0  0  # atno 11005 bound_to 11000
  144.7315  140.4685  143.6934 LP  0  0  0  0  0  0  0  0  0  0  0  0  # atno 17320 bound_to 7965
  145.6158  139.1518  143.3050 LP  0  0  0  0  0  0  0  0  0  0  0  0  # atno 17321 bound_to 7965
  139.9607  144.6559  150.8082 LP  0  0  0  0  0  0  0  0  0  0  0  0  # atno 17342 bound_to 10162
  140.7592  143.3124  151.2814 LP  0  0  0  0  0  0  0  0  0  0  0  0  # atno 17343 bound_to 10162
  157.1841  131.0399  151.2734 LP  0  0  0  0  0  0  0  0  0  0  0  0  # atno 17370 bound_to 10713
  157.4120  130.7390  149.6846 LP  0  0  0  0  0  0  0  0  0  0  0  0  # atno 17371 bound_to 10713
  141.1662  133.6537  156.4489 LP  0  0  0  0  0  0  0  0  0  0  0  0  # atno 17394 bound_to 11000
  140.4677  134.6782  157.5115 LP  0  0  0  0  0  0  0  0  0  0  0  0  # atno 17395 bound_to 11000

$$$$
