AV-unprocessed.smi:2442|AV-procd|sdf|9627|dock2
  -GOLD-   2272013263D 1   1.00000     0.00000
 Structure written by MMmdl.
 47 48  0  0  0  0  0  0  0  0  2 V2000
  151.7681  139.0376  154.7919 C   0  0  0  0  0  0  0  0  0  0  0  0
  150.4444  138.5658  154.9871 O   0  0  0  0  0  0  0  0  0  0  0  0
  149.4453  139.3260  154.3164 C   0  0  2  0  0  0  0  0  0  0  0  0
  149.4739  140.7850  154.8201 C   0  0  0  0  0  0  0  0  0  0  0  0
  148.3192  141.6116  154.2353 C   0  0  0  0  0  0  0  0  0  0  0  0
  146.9647  140.9603  154.5451 C   0  0  0  0  0  0  0  0  0  0  0  0
  146.9195  139.5150  154.0283 C   0  0  0  0  0  0  0  0  0  0  0  0
  148.0743  138.6685  154.5987 C   0  0  1  0  0  0  0  0  0  0  0  0
  148.0227  137.3377  153.9974 N   0  0  0  0  0  0  0  0  0  0  0  0
  147.4084  136.2688  154.5230 C   0  0  0  0  0  0  0  0  0  0  0  0
  146.7830  136.2778  155.5837 O   0  0  0  0  0  0  0  0  0  0  0  0
  147.5630  135.1808  153.7558 N   0  0  0  0  0  0  0  0  0  0  0  0
  147.0111  133.8663  154.0612 C   0  0  0  0  0  0  0  0  0  0  0  0
  146.9925  132.9550  152.8215 C   0  0  0  0  0  0  0  0  0  0  0  0
  145.7752  133.2039  151.9448 C   0  0  0  0  0  0  0  0  0  0  0  0
  145.4007  134.5335  151.6469 C   0  0  0  0  0  0  0  0  0  0  0  0
  144.2713  134.7726  150.8392 C   0  0  0  0  0  0  0  0  0  0  0  0
  143.5582  133.7325  150.3587 N   0  3  0  0  0  0  0  0  0  0  0  0
  143.8766  132.4462  150.6173 C   0  0  0  0  0  0  0  0  0  0  0  0
  144.9965  132.1386  151.4208 C   0  0  0  0  0  0  0  0  0  0  0  0
  145.3361  130.6843  151.6974 C   0  0  0  0  0  0  0  0  0  0  0  0
  152.4651  138.3888  155.3219 H   0  0  0  0  0  0  0  0  0  0  0  0
  151.9015  140.0492  155.1747 H   0  0  0  0  0  0  0  0  0  0  0  0
  152.0385  139.0242  153.7354 H   0  0  0  0  0  0  0  0  0  0  0  0
  149.6209  139.3104  153.2387 H   0  0  0  0  0  0  0  0  0  0  0  0
  149.4102  140.7953  155.9091 H   0  0  0  0  0  0  0  0  0  0  0  0
  150.4190  141.2620  154.5625 H   0  0  0  0  0  0  0  0  0  0  0  0
  148.3457  142.6241  154.6389 H   0  0  0  0  0  0  0  0  0  0  0  0
  148.4440  141.7044  153.1556 H   0  0  0  0  0  0  0  0  0  0  0  0
  146.7900  140.9707  155.6217 H   0  0  0  0  0  0  0  0  0  0  0  0
  146.1598  141.5416  154.0943 H   0  0  0  0  0  0  0  0  0  0  0  0
  145.9615  139.0634  154.2898 H   0  0  0  0  0  0  0  0  0  0  0  0
  146.9692  139.5229  152.9384 H   0  0  0  0  0  0  0  0  0  0  0  0
  147.9335  138.5990  155.6794 H   0  0  0  0  0  0  0  0  0  0  0  0
  148.5084  137.2205  153.1206 H   0  0  0  0  0  0  0  0  0  0  0  0
  148.0936  135.2696  152.9014 H   0  0  0  0  0  0  0  0  0  0  0  0
  147.5835  133.4094  154.8696 H   0  0  0  0  0  0  0  0  0  0  0  0
  145.9973  134.0009  154.4397 H   0  0  0  0  0  0  0  0  0  0  0  0
  147.8942  133.1229  152.2309 H   0  0  0  0  0  0  0  0  0  0  0  0
  147.0262  131.9049  153.1122 H   0  0  0  0  0  0  0  0  0  0  0  0
  145.9723  135.3646  152.0339 H   0  0  0  0  0  0  0  0  0  0  0  0
  143.9199  135.7566  150.5655 H   0  0  0  0  0  0  0  0  0  0  0  0
  143.2269  131.7050  150.1748 H   0  0  0  0  0  0  0  0  0  0  0  0
  144.5585  130.0198  151.3196 H   0  0  0  0  0  0  0  0  0  0  0  0
  145.4358  130.5031  152.7676 H   0  0  0  0  0  0  0  0  0  0  0  0
  146.2739  130.4137  151.2116 H   0  0  0  0  0  0  0  0  0  0  0  0
  142.7437  133.9264  149.7752 H   0  0  0  0  0  0  0  0  0  0  0  0
  1  2  1  0  0  0  0
  1 22  1  0  0  0  0
  1 23  1  0  0  0  0
  1 24  1  0  0  0  0
  2  3  1  0  0  0  0
  3  8  1  0  0  0  0
  3  4  1  0  0  0  0
  3 25  1  0  0  0  0
  4  5  1  0  0  0  0
  4 26  1  0  0  0  0
  4 27  1  0  0  0  0
  5  6  1  0  0  0  0
  5 28  1  0  0  0  0
  5 29  1  0  0  0  0
  6  7  1  0  0  0  0
  6 30  1  0  0  0  0
  6 31  1  0  0  0  0
  7  8  1  0  0  0  0
  7 32  1  0  0  0  0
  7 33  1  0  0  0  0
  8  9  1  0  0  0  0
  8 34  1  0  0  0  0
  9 10  1  0  0  0  0
  9 35  1  0  0  0  0
 10 11  2  0  0  0  0
 10 12  1  0  0  0  0
 12 13  1  0  0  0  0
 12 36  1  0  0  0  0
 13 14  1  0  0  0  0
 13 37  1  0  0  0  0
 13 38  1  0  0  0  0
 14 15  1  0  0  0  0
 14 39  1  0  0  0  0
 14 40  1  0  0  0  0
 15 20  1  0  0  0  0
 15 16  2  0  0  0  0
 16 17  1  0  0  0  0
 16 41  1  0  0  0  0
 17 18  2  0  0  0  0
 17 42  1  0  0  0  0
 18 19  1  0  0  0  0
 18 47  1  0  0  0  0
 19 20  2  0  0  0  0
 19 43  1  0  0  0  0
 20 21  1  0  0  0  0
 21 44  1  0  0  0  0
 21 45  1  0  0  0  0
 21 46  1  0  0  0  0
M  CHG  1  18   1
M  END
> <s_m_source_file>
AV-unprocessed.smi

> <i_m_source_file_index>
2442

> <i_lp_mmshare_version>
43012

> <i_f3d_flags>
0

> <s_epik_input>
W0NIM11PW0NAQEhdMVtDSDJdW0NIMl1bQ0gyXVtDSDJdW0NASF0xW05IXUMoPU8pW05IXVtDSDJdW0NIMl1jMltjSF1bY0hdbltjSF1jMltDSDNd

> <s_epik_cmdline>
J2VwaWtfcHl0aG9uJywgJy1waCcsICc3LjAnLCAnLXRuJywgJzgnLCAnLW1hJywgJzIwMCcsICctbWV0YWxfYmluZGluZycsICctaW1hZScsICc8aW5maWxlLm1hZT4nLCAnLW9tYWUnLCAnPG91dGZpbGUubWFlPic=

> <r_epik_Ionization_Penalty>
1.07145

> <r_epik_Ionization_Penalty_Charging>
1.0714

> <r_epik_Ionization_Penalty_Neutral>
4.9109e-05

> <r_epik_State_Penalty>
1.12601

> <r_epik_Charging_Adjusted_Penalty>
2.19741

> <i_epik_Tot_Q>
1

> <i_epik_Tot_abs_Q>
1

> <r_epik_Metal_State_Penalty>
1.2173

> <b_epik_Metal_Only>
0

> <s_lp_Force_Field>
OPLS_2005

> <r_lp_Energy>
14.7728

> <b_lp_Chiralities_Consistent>
1

> <s_lp_Variant>
AV-unprocessed.smi:2442-5

> <Gold.Version>
5.8.1

> <Gold.Id.Protein>
6NUR|6NUR_protein|mol2

> <Gold.PLP.Fitness>
46.1290

> <Gold.PLP.PLP>
-35.8134

> <Gold.PLP.part.hbond>
-3.0000

> <Gold.PLP.part.metal>
0.0000

> <Gold.PLP.part.buried>
-4.5099

> <Gold.PLP.part.nonpolar>
-29.1492

> <Gold.PLP.part.repulsive>
0.1588

> <Gold.PLP.ligand.clash>
0.0000

> <Gold.PLP.ligand.torsion>
0.7643

> <Gold.PLP.Chemscore.Hbond>
3.9200

> <Gold.PLP.Chemscore.CHOScore>
0.0000

> <Gold.PLP.Chemscore.Metal>
0.0000

> <Gold.Chemscore.Hbonds>
donor molecule, donor type, donor heavy atom, donor atom, acceptor molecule, acceptor atom, score
      L1  H     9    35       P1  7948  0.99
      L1  H    12    36       P1  7948  1.00
      L1  H    18    47       P1 10186  2.00

> <Gold.PLP.Chemscore.Internal.Correction>
0.0843

> <Gold.Rescore>
     Score         DG    S(hbond)    S(metal)    S(lipo)     H(rot)  DE(clash)    DE(int)     intcor
     20.45     -21.28       2.86        0.00      91.16       1.72       0.05       0.78       ----

> <Gold.Chemscore.Fitness>
20.4501

> <Gold.Chemscore.DG>
-21.2805

> <Gold.Chemscore.ZeroCoef>
-5.4800

> <Gold.Chemscore.Hbond>
2.8591

> <Gold.Chemscore.Metal>
0.0000

> <Gold.Chemscore.Lipo>
91.1572

> <Gold.Chemscore.Internal_Hbond>
0.0000

> <Gold.Chemscore.DEClash>
0.0485

> <Gold.Chemscore.DEInternal>
0.7819

> <Gold.Chemscore.Rot>
1.7244

> <Gold.Chemscore.Internal.Correction>
   9.000000E+99

> <Gold.Chemscore.Hbonds>
donor molecule, donor type, donor heavy atom, donor atom, acceptor molecule, acceptor atom, score
      L1  H     9    35       P1  7948  0.94
      L1  H    12    36       P1  7948  0.93
      L1  H    18    47       P1 10186  0.96

> <Gold.Chemscore.Hbond.Weighted>
-9.5495

> <Gold.Chemscore.Metal.Weighted>
-0.0000

> <Gold.Chemscore.Lipo.Weighted>
-10.6654

> <Gold.Chemscore.Internal_Hbond.Weighted>
0.0000

> <Gold.Chemscore.DEClash.Weighted>
0.0485

> <Gold.Chemscore.DEInternal.Weighted>
0.7819

> <Gold.Chemscore.Rot.Weighted>
4.4145

> <Gold.Chemscore.Internal.Correction.Weighted>
   9.000000E+99

> <Gold.Protein.RotatedTorsions>
[ 6907 6896 6895 6894 ] final -160.72 input  -60.11 | X-H torsion
[ 7974 7965 7964 7962 ] final  171.01 input  175.53 | X-H torsion
[ 8008 7997 7996 7995 ] final   32.85 input   59.86 | X-H torsion
[ 10167 10162 10161 10158 ] final -139.51 input  -65.29 | X-H torsion
[ 10718 10713 10712 10709 ] final   91.91 input   66.30 | X-H torsion
[ 10763 10752 10751 10750 ] final   20.38 input  -60.55 | X-H torsion
[ 11005 11000 10999 10996 ] final  -38.52 input  -57.11 | X-H torsion

> <Gold.Protein.ActiveResidues>
 VAL166  LYS551  ARG553  GLY616  TRP617  ASP618  TYR619  PRO620  LYS621  CYS622 
 ASP623  PHE694  ASN695  SER759  ASP760  ASP761  ALA762  ILE779  LEU786  VAL792 
 PHE793  MET794  SER795  GLU796  ALA797  LYS798  CYS799  TRP800  GLU811  SER814 

> <Gold.Protein.RotatedAtoms>
  151.3535  133.3916  159.2682 H   0  0  0  0  0  0  0  0  0  0  0  0  # atno 6907 bound_to 6896
  150.9782  134.9143  159.7839 H   0  0  0  0  0  0  0  0  0  0  0  0  # atno 6908 bound_to 6896
  152.5208  134.3498  159.9299 H   0  0  0  0  0  0  0  0  0  0  0  0  # atno 6909 bound_to 6896
  144.7307  139.9287  143.6423 H   0  0  0  0  0  0  0  0  0  0  0  0  # atno 7974 bound_to 7965
  155.1291  140.3255  155.4478 H   0  0  0  0  0  0  0  0  0  0  0  0  # atno 8008 bound_to 7997
  156.2640  140.2013  156.6360 H   0  0  0  0  0  0  0  0  0  0  0  0  # atno 8009 bound_to 7997
  154.6626  140.0545  157.0065 H   0  0  0  0  0  0  0  0  0  0  0  0  # atno 8010 bound_to 7997
  139.8372  143.7369  152.2664 H   0  0  0  0  0  0  0  0  0  0  0  0  # atno 10167 bound_to 10162
  157.6959  131.0424  150.3801 H   0  0  0  0  0  0  0  0  0  0  0  0  # atno 10718 bound_to 10713
  153.1082  135.6690  153.9548 H   0  0  0  0  0  0  0  0  0  0  0  0  # atno 10763 bound_to 10752
  153.9099  135.3026  155.3450 H   0  0  0  0  0  0  0  0  0  0  0  0  # atno 10764 bound_to 10752
  154.7503  135.5038  153.9353 H   0  0  0  0  0  0  0  0  0  0  0  0  # atno 10765 bound_to 10752
  141.0033  133.6944  156.2064 H   0  0  0  0  0  0  0  0  0  0  0  0  # atno 11005 bound_to 11000
  146.0874  139.3863  143.0427 LP  0  0  0  0  0  0  0  0  0  0  0  0  # atno 17320 bound_to 7965
  145.7758  140.9877  143.1125 LP  0  0  0  0  0  0  0  0  0  0  0  0  # atno 17321 bound_to 7965
  139.7595  144.7511  151.0386 LP  0  0  0  0  0  0  0  0  0  0  0  0  # atno 17342 bound_to 10162
  140.7801  143.4768  151.0072 LP  0  0  0  0  0  0  0  0  0  0  0  0  # atno 17343 bound_to 10162
  156.4216  130.3954  149.6821 LP  0  0  0  0  0  0  0  0  0  0  0  0  # atno 17370 bound_to 10713
  156.4070  130.7703  151.2714 LP  0  0  0  0  0  0  0  0  0  0  0  0  # atno 17371 bound_to 10713
  140.6853  134.4724  157.5589 LP  0  0  0  0  0  0  0  0  0  0  0  0  # atno 17394 bound_to 11000
  139.9050  134.8469  156.1741 LP  0  0  0  0  0  0  0  0  0  0  0  0  # atno 17395 bound_to 11000

$$$$
