AV-unprocessed.smi:21|AV-procd|sdf|160|dock3
  -GOLD-   2262015393D 1   1.00000     0.00000
 Structure written by MMmdl.
 61 64  0  0  0  0  0  0  0  0  1 V2000
  149.2619  128.8563  155.4297 C   0  0  0  0  0  0  0  0  0  0  0  0
  149.4576  130.1847  155.8886 O   0  0  0  0  0  0  0  0  0  0  0  0
  150.0716  131.0275  154.9237 C   0  0  2  0  0  0  0  0  0  0  0  0
  150.3084  132.4463  155.4675 C   0  0  0  0  0  0  0  0  0  0  0  0
  149.7391  133.3657  154.3783 C   0  0  2  0  0  0  0  0  0  0  0  0
  149.3572  134.7751  154.8867 C   0  0  0  0  0  0  0  0  0  0  0  0
  150.3164  135.3311  155.8423 N   0  0  0  0  0  0  0  0  0  0  0  0
  150.2269  134.8883  157.2304 C   0  0  0  0  0  0  0  0  0  0  0  0
  150.8113  136.5734  155.5963 C   0  0  0  0  0  0  0  0  0  0  0  0
  151.3364  136.8465  154.3714 N   0  0  0  0  0  0  0  0  0  0  0  0
  151.8746  138.0418  154.1145 C   0  0  0  0  0  0  0  0  0  0  0  0
  151.9908  139.0947  154.9241 N   0  0  0  0  0  0  0  0  0  0  0  0
  151.4476  138.8384  156.1478 C   0  0  0  0  0  0  0  0  0  0  0  0
  150.8329  137.6221  156.5617 C   0  0  0  0  0  0  0  0  0  0  0  0
  150.3694  137.7537  157.8661 N   0  0  0  0  0  0  0  0  0  0  0  0
  150.7091  138.9653  158.2097 C   0  0  0  0  0  0  0  0  0  0  0  0
  151.3886  139.6765  157.2474 N   0  0  0  0  0  0  0  0  0  0  0  0
  151.8928  141.0329  157.3645 C   0  0  0  0  0  0  0  0  0  0  0  0
  151.7628  141.6535  158.7842 C   0  0  1  0  0  0  0  0  0  0  0  0
  152.6203  140.8314  159.7772 C   0  0  0  0  0  0  0  0  0  0  0  0
  153.9495  140.6920  159.3186 O   0  0  0  0  0  0  0  0  0  0  0  0
  152.1337  143.1671  158.8305 C   0  0  2  0  0  0  0  0  0  0  0  0
  151.8442  143.8600  160.1544 C   0  0  0  0  0  0  0  0  0  0  0  0
  151.8579  145.3307  159.7650 C   0  0  0  0  0  0  0  0  0  0  0  0
  151.2555  145.3639  158.4821 O   0  0  0  0  0  0  0  0  0  0  0  0
  151.3525  144.0818  157.8704 C   0  0  0  0  0  0  0  0  0  0  0  0
  148.6264  132.6054  153.8325 N   0  0  0  0  0  0  0  0  0  0  0  0
  148.1356  133.1033  152.5543 C   0  0  0  0  0  0  0  0  0  0  0  0
  149.1277  131.2459  153.7342 C   0  0  0  0  0  0  0  0  0  0  0  0
  150.9997  130.5812  154.5615 H   0  0  0  0  0  0  0  0  0  0  0  0
  150.4971  133.4676  153.5996 H   0  0  0  0  0  0  0  0  0  0  0  0
  148.7843  128.2667  156.2120 H   0  0  0  0  0  0  0  0  0  0  0  0
  150.2070  128.3745  155.1772 H   0  0  0  0  0  0  0  0  0  0  0  0
  148.6142  128.8337  154.5525 H   0  0  0  0  0  0  0  0  0  0  0  0
  149.7591  132.5892  156.3997 H   0  0  0  0  0  0  0  0  0  0  0  0
  151.3627  132.6362  155.6677 H   0  0  0  0  0  0  0  0  0  0  0  0
  149.3133  135.4682  154.0471 H   0  0  0  0  0  0  0  0  0  0  0  0
  148.3481  134.7539  155.2919 H   0  0  0  0  0  0  0  0  0  0  0  0
  151.1725  135.0482  157.7497 H   0  0  0  0  0  0  0  0  0  0  0  0
  149.9972  133.8236  157.2776 H   0  0  0  0  0  0  0  0  0  0  0  0
  149.4425  135.4279  157.7620 H   0  0  0  0  0  0  0  0  0  0  0  0
  152.2759  138.1699  153.1201 H   0  0  0  0  0  0  0  0  0  0  0  0
  150.4885  139.3680  159.1875 H   0  0  0  0  0  0  0  0  0  0  0  0
  152.9368  141.0052  157.0515 H   0  0  0  0  0  0  0  0  0  0  0  0
  151.3756  141.6600  156.6372 H   0  0  0  0  0  0  0  0  0  0  0  0
  150.7261  141.5608  159.1104 H   0  0  0  0  0  0  0  0  0  0  0  0
  152.6246  141.2966  160.7635 H   0  0  0  0  0  0  0  0  0  0  0  0
  152.2321  139.8215  159.9008 H   0  0  0  0  0  0  0  0  0  0  0  0
  154.4096  140.1071  159.9014 H   0  0  0  0  0  0  0  0  0  0  0  0
  153.1995  143.2781  158.6240 H   0  0  0  0  0  0  0  0  0  0  0  0
  150.8567  143.5817  160.5250 H   0  0  0  0  0  0  0  0  0  0  0  0
  152.5787  143.6378  160.9289 H   0  0  0  0  0  0  0  0  0  0  0  0
  151.3236  145.9620  160.4753 H   0  0  0  0  0  0  0  0  0  0  0  0
  152.8826  145.6953  159.6841 H   0  0  0  0  0  0  0  0  0  0  0  0
  151.8407  144.1769  156.9018 H   0  0  0  0  0  0  0  0  0  0  0  0
  150.3405  143.7112  157.7055 H   0  0  0  0  0  0  0  0  0  0  0  0
  147.3469  132.4560  152.1692 H   0  0  0  0  0  0  0  0  0  0  0  0
  148.9337  133.1431  151.8118 H   0  0  0  0  0  0  0  0  0  0  0  0
  147.7160  134.1036  152.6574 H   0  0  0  0  0  0  0  0  0  0  0  0
  149.6973  131.1268  152.8108 H   0  0  0  0  0  0  0  0  0  0  0  0
  148.3118  130.5230  153.7077 H   0  0  0  0  0  0  0  0  0  0  0  0
  1  2  1  0  0  0  0
  1 32  1  0  0  0  0
  1 33  1  0  0  0  0
  1 34  1  0  0  0  0
  2  3  1  0  0  0  0
  3 30  1  0  0  0  0
  3 29  1  0  0  0  0
  3  4  1  0  0  0  0
  4  5  1  0  0  0  0
  4 35  1  0  0  0  0
  4 36  1  0  0  0  0
  5 31  1  0  0  0  0
  5  6  1  0  0  0  0
  5 27  1  0  0  0  0
  6  7  1  0  0  0  0
  6 37  1  0  0  0  0
  6 38  1  0  0  0  0
  7  8  1  0  0  0  0
  7  9  1  0  0  0  0
  8 39  1  0  0  0  0
  8 40  1  0  0  0  0
  8 41  1  0  0  0  0
  9 14  1  0  0  0  0
  9 10  2  0  0  0  0
 10 11  1  0  0  0  0
 11 12  2  0  0  0  0
 11 42  1  0  0  0  0
 12 13  1  0  0  0  0
 13 17  1  0  0  0  0
 13 14  2  0  0  0  0
 14 15  1  0  0  0  0
 15 16  2  0  0  0  0
 16 17  1  0  0  0  0
 16 43  1  0  0  0  0
 17 18  1  0  0  0  0
 18 19  1  0  0  0  0
 18 44  1  0  0  0  0
 18 45  1  0  0  0  0
 19 20  1  0  0  0  0
 19 22  1  0  0  0  0
 19 46  1  0  0  0  0
 20 21  1  0  0  0  0
 20 47  1  0  0  0  0
 20 48  1  0  0  0  0
 21 49  1  0  0  0  0
 22 26  1  0  0  0  0
 22 23  1  0  0  0  0
 22 50  1  0  0  0  0
 23 24  1  0  0  0  0
 23 51  1  0  0  0  0
 23 52  1  0  0  0  0
 24 25  1  0  0  0  0
 24 53  1  0  0  0  0
 24 54  1  0  0  0  0
 25 26  1  0  0  0  0
 26 55  1  0  0  0  0
 26 56  1  0  0  0  0
 27 28  1  0  0  0  0
 27 29  1  0  0  0  0
 28 57  1  0  0  0  0
 28 58  1  0  0  0  0
 28 59  1  0  0  0  0
 29 60  1  0  0  0  0
 29 61  1  0  0  0  0
M  END
> <s_m_source_file>
AV-unprocessed.smi

> <i_m_source_file_index>
21

> <i_lp_mmshare_version>
43012

> <i_f3d_flags>
0

> <s_epik_input>
W0NIM11PW0NASF0xW0NIMl1bQ0BIXShOKFtDSDNdKVtDSDJdMSlbQ0gyXU4oW0NIM10pYyhuW2NIXW4yKWMoYzIzKW5bY0hdbjNbQ0gyXVtDQEhdKFtDSDJdW09IXSlbQ0BASF00W0NIMl1bQ0gyXU9bQ0gyXTQ=

> <s_epik_cmdline>
J2VwaWtfcHl0aG9uJywgJy1waCcsICc3LjAnLCAnLXRuJywgJzgnLCAnLW1hJywgJzIwMCcsICctbWV0YWxfYmluZGluZycsICctaW1hZScsICc8aW5maWxlLm1hZT4nLCAnLW9tYWUnLCAnPG91dGZpbGUubWFlPic=

> <r_lp_tautomer_probability>
1

> <r_epik_Ionization_Penalty>
2.17574

> <r_epik_Ionization_Penalty_Charging>
0

> <r_epik_Ionization_Penalty_Neutral>
2.17574

> <r_epik_State_Penalty>
2.31336

> <r_epik_Charging_Adjusted_Penalty>
2.31336

> <i_epik_Tot_Q>
0

> <i_epik_Tot_abs_Q>
0

> <r_epik_Metal_State_Penalty>
2.31025

> <b_epik_Metal_Only>
0

> <s_lp_Force_Field>
OPLS_2005

> <r_lp_Energy>
69.8382

> <b_lp_Chiralities_Consistent>
1

> <s_lp_Variant>
AV-unprocessed.smi:21-40

> <Gold.Version>
5.8.1

> <Gold.Id.Protein>
6NUR|6NUR_protein|mol2

> <Gold.PLP.Fitness>
50.5419

> <Gold.PLP.PLP>
-46.0902

> <Gold.PLP.part.hbond>
-2.9551

> <Gold.PLP.part.metal>
0.0000

> <Gold.PLP.part.buried>
-4.7946

> <Gold.PLP.part.nonpolar>
-39.1770

> <Gold.PLP.part.repulsive>
1.2409

> <Gold.PLP.ligand.clash>
0.0000

> <Gold.PLP.ligand.torsion>
1.0631

> <Gold.PLP.Chemscore.Hbond>
1.8541

> <Gold.PLP.Chemscore.CHOScore>
0.0267

> <Gold.PLP.Chemscore.Metal>
0.0000

> <Gold.Chemscore.Hbonds>
donor molecule, donor type, donor heavy atom, donor atom, acceptor molecule, acceptor atom, score
      P1  H  7989  7998       L1    12  0.34
      P1  H  7997  8008       L1    21  0.13
      P1  H 10752 10764       L1    10  1.00

> <Gold.PLP.Chemscore.Internal.Correction>
0.9354

> <Gold.Rescore>
     Score         DG    S(hbond)    S(metal)    S(lipo)     H(rot)  DE(clash)    DE(int)     intcor
      8.17     -12.35       0.31        0.00     115.45       3.00       1.04       3.13       ----

> <Gold.Chemscore.Fitness>
8.1746

> <Gold.Chemscore.DG>
-12.3456

> <Gold.Chemscore.ZeroCoef>
-5.4800

> <Gold.Chemscore.Hbond>
0.3132

> <Gold.Chemscore.Metal>
0.0000

> <Gold.Chemscore.Lipo>
115.4493

> <Gold.Chemscore.Internal_Hbond>
0.0000

> <Gold.Chemscore.DEClash>
1.0444

> <Gold.Chemscore.DEInternal>
3.1266

> <Gold.Chemscore.Rot>
3.0031

> <Gold.Chemscore.Internal.Correction>
   9.000000E+99

> <Gold.Chemscore.Hbonds>
donor molecule, donor type, donor heavy atom, donor atom, acceptor molecule, acceptor atom, score
      P1  H  7989  7998       L1    12  0.11
      P1  H  7997  8008       L1    21  0.04
      P1  H 10752 10764       L1    10  0.13

> <Gold.Chemscore.Hbond.Weighted>
-1.0460

> <Gold.Chemscore.Metal.Weighted>
-0.0000

> <Gold.Chemscore.Lipo.Weighted>
-13.5076

> <Gold.Chemscore.Internal_Hbond.Weighted>
0.0000

> <Gold.Chemscore.DEClash.Weighted>
1.0444

> <Gold.Chemscore.DEInternal.Weighted>
3.1266

> <Gold.Chemscore.Rot.Weighted>
7.6880

> <Gold.Chemscore.Internal.Correction.Weighted>
   9.000000E+99

> <Gold.Protein.RotatedTorsions>
[ 6907 6896 6895 6894 ] final   71.22 input  -60.11 | X-H torsion
[ 7974 7965 7964 7962 ] final -167.41 input  175.53 | X-H torsion
[ 8008 7997 7996 7995 ] final -102.85 input   59.86 | X-H torsion
[ 10167 10162 10161 10158 ] final -101.28 input  -65.29 | X-H torsion
[ 10718 10713 10712 10709 ] final  118.70 input   66.30 | X-H torsion
[ 10763 10752 10751 10750 ] final  -80.12 input  -60.55 | X-H torsion
[ 11005 11000 10999 10996 ] final  176.42 input  -57.11 | X-H torsion

> <Gold.Protein.ActiveResidues>
 VAL166  LYS551  ARG553  GLY616  TRP617  ASP618  TYR619  PRO620  LYS621  CYS622 
 ASP623  PHE694  ASN695  SER759  ASP760  ASP761  ALA762  ILE779  LEU786  VAL792 
 PHE793  MET794  SER795  GLU796  ALA797  LYS798  CYS799  TRP800  GLU811  SER814 

> <Gold.Protein.RotatedAtoms>
  152.4796  134.4753  159.9648 H   0  0  0  0  0  0  0  0  0  0  0  0  # atno 6907 bound_to 6896
  151.4762  133.3551  159.2839 H   0  0  0  0  0  0  0  0  0  0  0  0  # atno 6908 bound_to 6896
  150.8860  134.8283  159.7320 H   0  0  0  0  0  0  0  0  0  0  0  0  # atno 6909 bound_to 6896
  144.7224  140.2523  143.6277 H   0  0  0  0  0  0  0  0  0  0  0  0  # atno 7974 bound_to 7965
  154.8625  140.0426  157.1674 H   0  0  0  0  0  0  0  0  0  0  0  0  # atno 8008 bound_to 7997
  154.8825  140.2974  155.5396 H   0  0  0  0  0  0  0  0  0  0  0  0  # atno 8009 bound_to 7997
  156.2998  140.2408  156.3829 H   0  0  0  0  0  0  0  0  0  0  0  0  # atno 8010 bound_to 7997
  140.2430  143.3525  152.0784 H   0  0  0  0  0  0  0  0  0  0  0  0  # atno 10167 bound_to 10162
  157.6012  131.1050  150.7793 H   0  0  0  0  0  0  0  0  0  0  0  0  # atno 10718 bound_to 10713
  154.5472  135.5672  153.6890 H   0  0  0  0  0  0  0  0  0  0  0  0  # atno 10763 bound_to 10752
  152.9979  135.6242  154.2423 H   0  0  0  0  0  0  0  0  0  0  0  0  # atno 10764 bound_to 10752
  154.2356  135.2864  155.2853 H   0  0  0  0  0  0  0  0  0  0  0  0  # atno 10765 bound_to 10752
  140.3729  134.7014  157.4403 H   0  0  0  0  0  0  0  0  0  0  0  0  # atno 11005 bound_to 11000
  145.8216  139.2046  143.1934 LP  0  0  0  0  0  0  0  0  0  0  0  0  # atno 17320 bound_to 7965
  146.0509  140.8070  142.9782 LP  0  0  0  0  0  0  0  0  0  0  0  0  # atno 17321 bound_to 7965
  139.5071  144.6826  151.5970 LP  0  0  0  0  0  0  0  0  0  0  0  0  # atno 17342 bound_to 10162
  140.6099  143.9455  150.6445 LP  0  0  0  0  0  0  0  0  0  0  0  0  # atno 17343 bound_to 10162
  156.8191  130.4978  149.5345 LP  0  0  0  0  0  0  0  0  0  0  0  0  # atno 17370 bound_to 10713
  156.1086  130.6023  151.0011 LP  0  0  0  0  0  0  0  0  0  0  0  0  # atno 17371 bound_to 10713
  140.0537  134.6093  155.8830 LP  0  0  0  0  0  0  0  0  0  0  0  0  # atno 17394 bound_to 11000
  141.1948  133.6584  156.5615 LP  0  0  0  0  0  0  0  0  0  0  0  0  # atno 17395 bound_to 11000

$$$$
