AV-unprocessed.smi:2784|AV-procd|sdf|10737|dock1
  -GOLD-   2272015173D 1   1.00000     0.00000
 Structure written by MMmdl.
 31 32  0  0  0  0  0  0  0  0  1 V2000
  153.6822  141.6256  161.4687 C   0  0  0  0  0  0  0  0  0  0  0  0
  153.5836  141.9757  160.0979 O   0  0  0  0  0  0  0  0  0  0  0  0
  152.4030  142.6991  159.7774 C   0  0  1  0  0  0  0  0  0  0  0  0
  152.3701  144.0740  160.4583 C   0  0  0  0  0  0  0  0  0  0  0  0
  151.6020  144.9618  159.4859 C   0  0  0  0  0  0  0  0  0  0  0  0
  152.0717  144.4886  158.1114 C   0  0  0  0  0  0  0  0  0  0  0  0
  152.3499  142.9817  158.2581 C   0  0  2  0  0  0  0  0  0  0  0  0
  151.2977  142.2087  157.6027 N   0  0  0  0  0  0  0  0  0  0  0  0
  151.4166  140.9415  157.1793 C   0  0  0  0  0  0  0  0  0  0  0  0
  152.4710  140.3101  157.3028 O   0  0  0  0  0  0  0  0  0  0  0  0
  150.2389  140.5195  156.5826 N   0  0  0  0  0  0  0  0  0  0  0  0
  150.2993  139.6825  155.5929 C   0  0  0  0  0  0  0  0  0  0  0  0
  151.3642  139.0853  154.9232 N   0  0  0  0  0  0  0  0  0  0  0  0
  150.8535  138.2880  153.9375 C   0  0  0  0  0  0  0  0  0  0  0  0
  149.5275  138.3769  153.9812 C   0  0  0  0  0  0  0  0  0  0  0  0
  149.1590  139.2230  154.9841 O   0  0  0  0  0  0  0  0  0  0  0  0
  154.6018  141.0648  161.6351 H   0  0  0  0  0  0  0  0  0  0  0  0
  152.8461  140.9957  161.7749 H   0  0  0  0  0  0  0  0  0  0  0  0
  153.7090  142.5078  162.1091 H   0  0  0  0  0  0  0  0  0  0  0  0
  151.5189  142.1313  160.0759 H   0  0  0  0  0  0  0  0  0  0  0  0
  151.9143  144.0427  161.4481 H   0  0  0  0  0  0  0  0  0  0  0  0
  153.3850  144.4580  160.5708 H   0  0  0  0  0  0  0  0  0  0  0  0
  150.5309  144.7846  159.5918 H   0  0  0  0  0  0  0  0  0  0  0  0
  151.7850  146.0238  159.6505 H   0  0  0  0  0  0  0  0  0  0  0  0
  151.3522  144.7243  157.3263 H   0  0  0  0  0  0  0  0  0  0  0  0
  153.0007  145.0006  157.8570 H   0  0  0  0  0  0  0  0  0  0  0  0
  153.3085  142.7569  157.7859 H   0  0  0  0  0  0  0  0  0  0  0  0
  150.4119  142.6724  157.4611 H   0  0  0  0  0  0  0  0  0  0  0  0
  152.3531  139.1951  155.0981 H   0  0  0  0  0  0  0  0  0  0  0  0
  151.5125  137.7269  153.2915 H   0  0  0  0  0  0  0  0  0  0  0  0
  148.7424  137.9232  153.3946 H   0  0  0  0  0  0  0  0  0  0  0  0
  1  2  1  0  0  0  0
  1 17  1  0  0  0  0
  1 18  1  0  0  0  0
  1 19  1  0  0  0  0
  2  3  1  0  0  0  0
  3  7  1  0  0  0  0
  3  4  1  0  0  0  0
  3 20  1  0  0  0  0
  4  5  1  0  0  0  0
  4 21  1  0  0  0  0
  4 22  1  0  0  0  0
  5  6  1  0  0  0  0
  5 23  1  0  0  0  0
  5 24  1  0  0  0  0
  6  7  1  0  0  0  0
  6 25  1  0  0  0  0
  6 26  1  0  0  0  0
  7  8  1  0  0  0  0
  7 27  1  0  0  0  0
  8 28  1  0  0  0  0
  8  9  1  0  0  0  0
  9 11  1  0  0  0  0
  9 10  2  0  0  0  0
 11 12  2  0  0  0  0
 12 16  1  0  0  0  0
 12 13  1  0  0  0  0
 13 29  1  0  0  0  0
 13 14  1  0  0  0  0
 14 30  1  0  0  0  0
 14 15  2  0  0  0  0
 15 31  1  0  0  0  0
 15 16  1  0  0  0  0
M  END
> <s_m_source_file>
AV-unprocessed.smi

> <i_m_source_file_index>
2784

> <i_lp_mmshare_version>
43012

> <i_f3d_flags>
0

> <s_epik_input>
W0NIM11PW0NAQEhdMVtDSDJdW0NIMl1bQ0gyXVtDQEhdMVtOSF1DKD1PKVtOSF1jMm5bY0hdW2NIXW8y

> <s_epik_cmdline>
J2VwaWtfcHl0aG9uJywgJy1waCcsICc3LjAnLCAnLXRuJywgJzgnLCAnLW1hJywgJzIwMCcsICctbWV0YWxfYmluZGluZycsICctaW1hZScsICc8aW5maWxlLm1hZT4nLCAnLW9tYWUnLCAnPG91dGZpbGUubWFlPic=

> <r_lp_tautomer_probability>
0.107061

> <r_epik_Ionization_Penalty>
1.29244

> <r_epik_Ionization_Penalty_Charging>
1.29208

> <r_epik_Ionization_Penalty_Neutral>
0.000359742

> <r_epik_State_Penalty>
2.59896

> <r_epik_Charging_Adjusted_Penalty>
3.89105

> <i_epik_Tot_Q>
0

> <i_epik_Tot_abs_Q>
0

> <r_epik_Metal_State_Penalty>
3.62496

> <b_epik_Metal_Only>
0

> <s_lp_Force_Field>
OPLS_2005

> <r_lp_Energy>
42.837

> <b_lp_Chiralities_Consistent>
1

> <s_lp_Variant>
AV-unprocessed.smi:2784-12

> <Gold.Version>
5.8.1

> <Gold.Id.Protein>
6NUR|6NUR_protein|mol2

> <Gold.PLP.Fitness>
39.9337

> <Gold.PLP.PLP>
-32.2582

> <Gold.PLP.part.hbond>
-1.0000

> <Gold.PLP.part.metal>
0.0000

> <Gold.PLP.part.buried>
-3.9720

> <Gold.PLP.part.nonpolar>
-27.5756

> <Gold.PLP.part.repulsive>
0.2829

> <Gold.PLP.ligand.clash>
0.0000

> <Gold.PLP.ligand.torsion>
0.5491

> <Gold.PLP.Chemscore.Hbond>
1.0000

> <Gold.PLP.Chemscore.CHOScore>
1.9126

> <Gold.PLP.Chemscore.Metal>
0.0000

> <Gold.Chemscore.Hbonds>
donor molecule, donor type, donor heavy atom, donor atom, acceptor molecule, acceptor atom, score
      P1  H  7997  8008       L1    10  0.98
      L1  C    14    30       P1  7949  1.00
      L1  C    15    31       P1  7948  0.93

> <Gold.PLP.Chemscore.Internal.Correction>
0.0359

> <Gold.Rescore>
     Score         DG    S(hbond)    S(metal)    S(lipo)     H(rot)  DE(clash)    DE(int)     intcor
     14.94     -15.47       0.94        0.00      87.39       1.32       0.04       0.48       ----

> <Gold.Chemscore.Fitness>
14.9445

> <Gold.Chemscore.DG>
-15.4654

> <Gold.Chemscore.ZeroCoef>
-5.4800

> <Gold.Chemscore.Hbond>
0.9427

> <Gold.Chemscore.Metal>
0.0000

> <Gold.Chemscore.Lipo>
87.3936

> <Gold.Chemscore.Internal_Hbond>
0.0000

> <Gold.Chemscore.DEClash>
0.0417

> <Gold.Chemscore.DEInternal>
0.4793

> <Gold.Chemscore.Rot>
1.3235

> <Gold.Chemscore.Internal.Correction>
   9.000000E+99

> <Gold.Chemscore.Hbonds>
donor molecule, donor type, donor heavy atom, donor atom, acceptor molecule, acceptor atom, score
      P1  H  7997  8008       L1    10  0.88

> <Gold.Chemscore.Hbond.Weighted>
-3.1486

> <Gold.Chemscore.Metal.Weighted>
-0.0000

> <Gold.Chemscore.Lipo.Weighted>
-10.2250

> <Gold.Chemscore.Internal_Hbond.Weighted>
0.0000

> <Gold.Chemscore.DEClash.Weighted>
0.0417

> <Gold.Chemscore.DEInternal.Weighted>
0.4793

> <Gold.Chemscore.Rot.Weighted>
3.3882

> <Gold.Chemscore.Internal.Correction.Weighted>
   9.000000E+99

> <Gold.Protein.RotatedTorsions>
[ 6907 6896 6895 6894 ] final  -67.44 input  -60.11 | X-H torsion
[ 7974 7965 7964 7962 ] final  -38.29 input  175.53 | X-H torsion
[ 8008 7997 7996 7995 ] final  -62.35 input   59.86 | X-H torsion
[ 10167 10162 10161 10158 ] final   85.45 input  -65.29 | X-H torsion
[ 10718 10713 10712 10709 ] final   89.31 input   66.30 | X-H torsion
[ 10763 10752 10751 10750 ] final   77.86 input  -60.55 | X-H torsion
[ 11005 11000 10999 10996 ] final  104.17 input  -57.11 | X-H torsion

> <Gold.Protein.ActiveResidues>
 VAL166  LYS551  ARG553  GLY616  TRP617  ASP618  TYR619  PRO620  LYS621  CYS622 
 ASP623  PHE694  ASN695  SER759  ASP760  ASP761  ALA762  ILE779  LEU786  VAL792 
 PHE793  MET794  SER795  GLU796  ALA797  LYS798  CYS799  TRP800  GLU811  SER814 

> <Gold.Protein.RotatedAtoms>
  150.7409  134.5881  159.5972 H   0  0  0  0  0  0  0  0  0  0  0  0  # atno 6907 bound_to 6896
  152.3276  134.7297  160.0307 H   0  0  0  0  0  0  0  0  0  0  0  0  # atno 6908 bound_to 6896
  151.7792  133.3312  159.3503 H   0  0  0  0  0  0  0  0  0  0  0  0  # atno 6909 bound_to 6896
  146.0499  140.6495  142.9047 H   0  0  0  0  0  0  0  0  0  0  0  0  # atno 7974 bound_to 7965
  154.4495  140.0998  156.6574 H   0  0  0  0  0  0  0  0  0  0  0  0  # atno 8008 bound_to 7997
  155.5331  140.3482  155.4412 H   0  0  0  0  0  0  0  0  0  0  0  0  # atno 8009 bound_to 7997
  156.0650  140.1335  156.9885 H   0  0  0  0  0  0  0  0  0  0  0  0  # atno 8010 bound_to 7997
  139.8976  144.6349  150.8671 H   0  0  0  0  0  0  0  0  0  0  0  0  # atno 10167 bound_to 10162
  157.6954  131.0328  150.3406 H   0  0  0  0  0  0  0  0  0  0  0  0  # atno 10718 bound_to 10713
  153.0831  135.4898  154.8542 H   0  0  0  0  0  0  0  0  0  0  0  0  # atno 10763 bound_to 10752
  154.7176  135.3032  154.9102 H   0  0  0  0  0  0  0  0  0  0  0  0  # atno 10764 bound_to 10752
  153.9776  135.6793  153.4802 H   0  0  0  0  0  0  0  0  0  0  0  0  # atno 10765 bound_to 10752
  139.8789  134.9290  156.5320 H   0  0  0  0  0  0  0  0  0  0  0  0  # atno 11005 bound_to 11000
  144.7117  140.4064  143.7075 LP  0  0  0  0  0  0  0  0  0  0  0  0  # atno 17320 bound_to 7965
  145.6742  139.1605  143.2737 LP  0  0  0  0  0  0  0  0  0  0  0  0  # atno 17321 bound_to 7965
  140.7714  143.3461  151.2107 LP  0  0  0  0  0  0  0  0  0  0  0  0  # atno 17342 bound_to 10162
  139.7054  143.9464  152.2924 LP  0  0  0  0  0  0  0  0  0  0  0  0  # atno 17343 bound_to 10162
  156.3867  130.3890  149.7060 LP  0  0  0  0  0  0  0  0  0  0  0  0  # atno 17370 bound_to 10713
  156.4424  130.7867  151.2889 LP  0  0  0  0  0  0  0  0  0  0  0  0  # atno 17371 bound_to 10713
  140.8373  133.8232  155.9041 LP  0  0  0  0  0  0  0  0  0  0  0  0  # atno 17394 bound_to 11000
  140.9271  134.2069  157.4889 LP  0  0  0  0  0  0  0  0  0  0  0  0  # atno 17395 bound_to 11000

$$$$
