AV-unprocessed.smi:3348|AV-procd|sdf|12924|dock7
  -GOLD-   2272019353D 1   1.00000     0.00000
 Structure written by MMmdl.
 46 47  0  0  0  0  0  0  0  0  1 V2000
  145.7585  135.7164  152.9305 C   0  0  0  0  0  0  0  0  0  0  0  0
  145.5791  136.2265  151.4901 C   0  0  1  0  0  0  0  0  0  0  0  0
  144.4363  135.4943  150.7433 C   0  0  0  0  0  0  0  0  0  0  0  0
  144.6268  134.0566  150.6676 N   0  0  0  0  0  0  0  0  0  0  0  0
  143.8175  133.1145  150.0677 C   0  0  0  0  0  0  0  0  0  0  0  0
  144.4124  131.8979  150.2416 C   0  0  0  0  0  0  0  0  0  0  0  0
  145.5992  132.2025  150.9646 C   0  0  0  0  0  0  0  0  0  0  0  0
  145.7272  133.4957  151.2143 N   0  0  0  0  0  0  0  0  0  0  0  0
  145.3654  137.6769  151.5225 N   0  0  0  0  0  0  0  0  0  0  0  0
  146.5657  138.4967  151.3633 C   0  0  0  0  0  0  0  0  0  0  0  0
  146.9679  139.1497  152.6961 C   0  0  0  0  0  0  0  0  0  0  0  0
  148.2402  138.7051  153.1520 O   0  0  0  0  0  0  0  0  0  0  0  0
  148.7110  139.3203  154.3466 C   0  0  2  0  0  0  0  0  0  0  0  0
  148.5532  140.8426  154.1743 C   0  0  0  0  0  0  0  0  0  0  0  0
  149.1409  141.6070  155.3690 C   0  0  0  0  0  0  0  0  0  0  0  0
  150.6141  141.2331  155.5871 C   0  0  0  0  0  0  0  0  0  0  0  0
  150.7814  139.7150  155.7580 C   0  0  0  0  0  0  0  0  0  0  0  0
  150.1912  138.9333  154.5665 C   0  0  1  0  0  0  0  0  0  0  0  0
  150.3639  137.4201  154.7740 C   0  0  0  0  0  0  0  0  0  0  0  0
  146.0369  134.6626  152.9539 H   0  0  0  0  0  0  0  0  0  0  0  0
  144.8421  135.8328  153.5099 H   0  0  0  0  0  0  0  0  0  0  0  0
  146.5487  136.2655  153.4435 H   0  0  0  0  0  0  0  0  0  0  0  0
  146.5110  136.0261  150.9599 H   0  0  0  0  0  0  0  0  0  0  0  0
  143.4832  135.6850  151.2391 H   0  0  0  0  0  0  0  0  0  0  0  0
  144.3364  135.8630  149.7222 H   0  0  0  0  0  0  0  0  0  0  0  0
  142.8958  133.3849  149.5739 H   0  0  0  0  0  0  0  0  0  0  0  0
  144.0550  130.9369  149.9027 H   0  0  0  0  0  0  0  0  0  0  0  0
  146.3675  131.5271  151.3111 H   0  0  0  0  0  0  0  0  0  0  0  0
  144.6780  137.9405  150.8236 H   0  0  0  0  0  0  0  0  0  0  0  0
  147.3841  137.9042  150.9545 H   0  0  0  0  0  0  0  0  0  0  0  0
  146.3765  139.2957  150.6478 H   0  0  0  0  0  0  0  0  0  0  0  0
  146.9729  140.2364  152.6002 H   0  0  0  0  0  0  0  0  0  0  0  0
  146.2263  138.9165  153.4609 H   0  0  0  0  0  0  0  0  0  0  0  0
  148.1343  139.0030  155.2178 H   0  0  0  0  0  0  0  0  0  0  0  0
  149.0542  141.1611  153.2591 H   0  0  0  0  0  0  0  0  0  0  0  0
  147.5005  141.0998  154.0532 H   0  0  0  0  0  0  0  0  0  0  0  0
  149.0498  142.6811  155.2049 H   0  0  0  0  0  0  0  0  0  0  0  0
  148.5666  141.3801  156.2679 H   0  0  0  0  0  0  0  0  0  0  0  0
  151.2079  141.5732  154.7380 H   0  0  0  0  0  0  0  0  0  0  0  0
  151.0029  141.7514  156.4640 H   0  0  0  0  0  0  0  0  0  0  0  0
  151.8397  139.4775  155.8724 H   0  0  0  0  0  0  0  0  0  0  0  0
  150.2945  139.4000  156.6821 H   0  0  0  0  0  0  0  0  0  0  0  0
  150.7515  139.2117  153.6726 H   0  0  0  0  0  0  0  0  0  0  0  0
  149.8071  137.0737  155.6453 H   0  0  0  0  0  0  0  0  0  0  0  0
  151.4124  137.1620  154.9242 H   0  0  0  0  0  0  0  0  0  0  0  0
  150.0116  136.8580  153.9090 H   0  0  0  0  0  0  0  0  0  0  0  0
  1  2  1  0  0  0  0
  1 20  1  0  0  0  0
  1 21  1  0  0  0  0
  1 22  1  0  0  0  0
  2  3  1  0  0  0  0
  2  9  1  0  0  0  0
  2 23  1  0  0  0  0
  3  4  1  0  0  0  0
  3 24  1  0  0  0  0
  3 25  1  0  0  0  0
  4  8  1  0  0  0  0
  4  5  1  0  0  0  0
  5  6  2  0  0  0  0
  5 26  1  0  0  0  0
  6  7  1  0  0  0  0
  6 27  1  0  0  0  0
  7  8  2  0  0  0  0
  7 28  1  0  0  0  0
  9 10  1  0  0  0  0
  9 29  1  0  0  0  0
 10 11  1  0  0  0  0
 10 30  1  0  0  0  0
 10 31  1  0  0  0  0
 11 12  1  0  0  0  0
 11 32  1  0  0  0  0
 11 33  1  0  0  0  0
 12 13  1  0  0  0  0
 13 18  1  0  0  0  0
 13 14  1  0  0  0  0
 13 34  1  0  0  0  0
 14 15  1  0  0  0  0
 14 35  1  0  0  0  0
 14 36  1  0  0  0  0
 15 16  1  0  0  0  0
 15 37  1  0  0  0  0
 15 38  1  0  0  0  0
 16 17  1  0  0  0  0
 16 39  1  0  0  0  0
 16 40  1  0  0  0  0
 17 18  1  0  0  0  0
 17 41  1  0  0  0  0
 17 42  1  0  0  0  0
 18 19  1  0  0  0  0
 18 43  1  0  0  0  0
 19 44  1  0  0  0  0
 19 45  1  0  0  0  0
 19 46  1  0  0  0  0
M  END
> <s_m_source_file>
AV-unprocessed.smi

> <i_m_source_file_index>
3348

> <i_lp_mmshare_version>
43012

> <i_f3d_flags>
0

> <s_epik_input>
bjFbY0hdW2NIXVtjSF1uMVtDSDJdW0NAQEhdKFtDSDNdKVtOSF1bQ0gyXVtDSDJdT1tDQEBIXTJbQ0gyXVtDSDJdW0NIMl1bQ0gyXVtDQEhdMltDSDNd

> <s_epik_cmdline>
J2VwaWtfcHl0aG9uJywgJy1waCcsICc3LjAnLCAnLXRuJywgJzgnLCAnLW1hJywgJzIwMCcsICctbWV0YWxfYmluZGluZycsICctaW1hZScsICc8aW5maWxlLm1hZT4nLCAnLW9tYWUnLCAnPG91dGZpbGUubWFlPic=

> <r_lp_tautomer_probability>
1

> <r_epik_Ionization_Penalty>
2.46945

> <r_epik_Ionization_Penalty_Charging>
0

> <r_epik_Ionization_Penalty_Neutral>
2.46945

> <r_epik_State_Penalty>
2.6322

> <r_epik_Charging_Adjusted_Penalty>
2.6322

> <i_epik_Tot_Q>
0

> <i_epik_Tot_abs_Q>
0

> <r_epik_Metal_State_Penalty>
2.63217

> <b_epik_Metal_Only>
0

> <s_lp_Force_Field>
OPLS_2005

> <r_lp_Energy>
18.9542

> <b_lp_Chiralities_Consistent>
1

> <s_lp_Variant>
AV-unprocessed.smi:3348-10

> <Gold.Version>
5.8.1

> <Gold.Id.Protein>
6NUR|6NUR_protein|mol2

> <Gold.PLP.Fitness>
44.8088

> <Gold.PLP.PLP>
-38.2430

> <Gold.PLP.part.hbond>
-0.9277

> <Gold.PLP.part.metal>
0.0000

> <Gold.PLP.part.buried>
-3.1146

> <Gold.PLP.part.nonpolar>
-38.4626

> <Gold.PLP.part.repulsive>
3.8856

> <Gold.PLP.ligand.clash>
0.0000

> <Gold.PLP.ligand.torsion>
1.2525

> <Gold.PLP.Chemscore.Hbond>
1.0000

> <Gold.PLP.Chemscore.CHOScore>
2.0000

> <Gold.PLP.Chemscore.Metal>
0.0000

> <Gold.Chemscore.Hbonds>
donor molecule, donor type, donor heavy atom, donor atom, acceptor molecule, acceptor atom, score
      L1  H     9    29       P1 10171  0.80
      L1  C     5    26       P1 10186  1.00
      L1  C     7    28       P1 10747  0.11

> <Gold.PLP.Chemscore.Internal.Correction>
0.0708

> <Gold.Rescore>
     Score         DG    S(hbond)    S(metal)    S(lipo)     H(rot)  DE(clash)    DE(int)     intcor
     12.03     -15.99       1.00        0.00      99.00       1.72       1.75       2.21       ----

> <Gold.Chemscore.Fitness>
12.0275

> <Gold.Chemscore.DG>
-15.9851

> <Gold.Chemscore.ZeroCoef>
-5.4800

> <Gold.Chemscore.Hbond>
0.9985

> <Gold.Chemscore.Metal>
0.0000

> <Gold.Chemscore.Lipo>
98.9971

> <Gold.Chemscore.Internal_Hbond>
0.0000

> <Gold.Chemscore.DEClash>
1.7456

> <Gold.Chemscore.DEInternal>
2.2120

> <Gold.Chemscore.Rot>
1.7237

> <Gold.Chemscore.Internal.Correction>
   9.000000E+99

> <Gold.Chemscore.Hbonds>
donor molecule, donor type, donor heavy atom, donor atom, acceptor molecule, acceptor atom, score
      L1  H     9    29       P1 10171  0.79

> <Gold.Chemscore.Hbond.Weighted>
-3.3351

> <Gold.Chemscore.Metal.Weighted>
-0.0000

> <Gold.Chemscore.Lipo.Weighted>
-11.5827

> <Gold.Chemscore.Internal_Hbond.Weighted>
0.0000

> <Gold.Chemscore.DEClash.Weighted>
1.7456

> <Gold.Chemscore.DEInternal.Weighted>
2.2120

> <Gold.Chemscore.Rot.Weighted>
4.4126

> <Gold.Chemscore.Internal.Correction.Weighted>
   9.000000E+99

> <Gold.Protein.RotatedTorsions>
[ 6907 6896 6895 6894 ] final   61.97 input  -60.11 | X-H torsion
[ 7974 7965 7964 7962 ] final  142.61 input  175.53 | X-H torsion
[ 8008 7997 7996 7995 ] final -160.64 input   59.86 | X-H torsion
[ 10167 10162 10161 10158 ] final  -16.28 input  -65.29 | X-H torsion
[ 10718 10713 10712 10709 ] final   96.97 input   66.30 | X-H torsion
[ 10763 10752 10751 10750 ] final   -0.65 input  -60.55 | X-H torsion
[ 11005 11000 10999 10996 ] final -122.49 input  -57.11 | X-H torsion

> <Gold.Protein.ActiveResidues>
 VAL166  LYS551  ARG553  GLY616  TRP617  ASP618  TYR619  PRO620  LYS621  CYS622 
 ASP623  PHE694  ASN695  SER759  ASP760  ASP761  ALA762  ILE779  LEU786  VAL792 
 PHE793  MET794  SER795  GLU796  ALA797  LYS798  CYS799  TRP800  GLU811  SER814 

> <Gold.Protein.RotatedAtoms>
  152.4133  134.6086  160.0019 H   0  0  0  0  0  0  0  0  0  0  0  0  # atno 6907 bound_to 6896
  151.6257  133.3330  159.3105 H   0  0  0  0  0  0  0  0  0  0  0  0  # atno 6908 bound_to 6896
  150.8023  134.7164  159.6678 H   0  0  0  0  0  0  0  0  0  0  0  0  # atno 6909 bound_to 6896
  144.8993  139.5446  143.5761 H   0  0  0  0  0  0  0  0  0  0  0  0  # atno 7974 bound_to 7965
  155.7804  140.0864  157.2062 H   0  0  0  0  0  0  0  0  0  0  0  0  # atno 8008 bound_to 7997
  154.3990  140.1509  156.3103 H   0  0  0  0  0  0  0  0  0  0  0  0  # atno 8009 bound_to 7997
  155.8659  140.3428  155.5791 H   0  0  0  0  0  0  0  0  0  0  0  0  # atno 8010 bound_to 7997
  140.7231  143.5132  150.9724 H   0  0  0  0  0  0  0  0  0  0  0  0  # atno 10167 bound_to 10162
  157.6919  131.0595  150.4572 H   0  0  0  0  0  0  0  0  0  0  0  0  # atno 10718 bound_to 10713
  153.3346  135.6977  153.6918 H   0  0  0  0  0  0  0  0  0  0  0  0  # atno 10763 bound_to 10752
  153.5707  135.3517  155.2837 H   0  0  0  0  0  0  0  0  0  0  0  0  # atno 10764 bound_to 10752
  154.8625  135.4271  154.2544 H   0  0  0  0  0  0  0  0  0  0  0  0  # atno 10765 bound_to 10752
  140.9991  134.0429  157.3560 H   0  0  0  0  0  0  0  0  0  0  0  0  # atno 11005 bound_to 11000
  146.3099  139.7709  142.9028 LP  0  0  0  0  0  0  0  0  0  0  0  0  # atno 17320 bound_to 7965
  145.3645  141.0332  143.3266 LP  0  0  0  0  0  0  0  0  0  0  0  0  # atno 17321 bound_to 7965
  139.8846  143.7029  152.3153 LP  0  0  0  0  0  0  0  0  0  0  0  0  # atno 17342 bound_to 10162
  139.7323  144.7579  151.0782 LP  0  0  0  0  0  0  0  0  0  0  0  0  # atno 17343 bound_to 10162
  156.4919  130.4097  149.6402 LP  0  0  0  0  0  0  0  0  0  0  0  0  # atno 17370 bound_to 10713
  156.3409  130.7381  151.2326 LP  0  0  0  0  0  0  0  0  0  0  0  0  # atno 17371 bound_to 10713
  139.9029  135.0171  156.7355 LP  0  0  0  0  0  0  0  0  0  0  0  0  # atno 17394 bound_to 11000
  140.6918  133.9383  155.7971 LP  0  0  0  0  0  0  0  0  0  0  0  0  # atno 17395 bound_to 11000

$$$$
