AV-unprocessed.smi:3227|AV-procd|sdf|12318|dock1
  -GOLD-   2272018163D 1   1.00000     0.00000
 Structure written by MMmdl.
 38 39  0  0  0  0  0  0  0  0  2 V2000
  146.2371  142.2553  156.1872 C   0  0  0  0  0  0  0  0  0  0  0  0
  146.6181  142.2331  154.7797 N   0  0  0  0  0  0  0  0  0  0  0  0
  145.8480  143.0678  153.8653 C   0  0  0  0  0  0  0  0  0  0  0  0
  147.1553  141.0239  154.2822 C   0  0  0  0  0  0  0  0  0  0  0  0
  146.4478  140.3576  153.3352 N   0  3  0  0  0  0  0  0  0  0  0  0
  146.8374  139.1893  152.7840 C   0  0  0  0  0  0  0  0  0  0  0  0
  148.0499  138.6009  153.1826 C   0  0  0  0  0  0  0  0  0  0  0  0
  148.8350  139.2482  154.1555 C   0  0  0  0  0  0  0  0  0  0  0  0
  148.3897  140.4678  154.7265 C   0  0  0  0  0  0  0  0  0  0  0  0
  149.1846  141.1803  155.6672 N   0  0  0  0  0  0  0  0  0  0  0  0
  150.5109  141.0909  155.8749 C   0  0  0  0  0  0  0  0  0  0  0  0
  151.2773  140.3944  155.2107 O   0  0  0  0  0  0  0  0  0  0  0  0
  151.0589  141.9281  157.0291 C   0  0  0  0  0  0  0  0  0  0  0  0
  149.9685  142.4796  157.7506 O   0  0  0  0  0  0  0  0  0  0  0  0
  150.3656  143.1057  158.9568 C   0  0  0  0  0  0  0  0  0  0  0  0
  151.0078  144.4344  158.6217 C   0  0  0  0  0  0  0  0  0  0  0  0
  152.5070  144.5396  158.4618 C   0  0  0  0  0  0  0  0  0  0  0  0
  151.8306  145.1771  159.6494 C   0  0  0  0  0  0  0  0  0  0  0  0
  146.9722  142.8146  156.7660 H   0  0  0  0  0  0  0  0  0  0  0  0
  146.1624  141.2492  156.6022 H   0  0  0  0  0  0  0  0  0  0  0  0
  145.2690  142.7396  156.3204 H   0  0  0  0  0  0  0  0  0  0  0  0
  146.3643  143.1833  152.9115 H   0  0  0  0  0  0  0  0  0  0  0  0
  145.7071  144.0626  154.2889 H   0  0  0  0  0  0  0  0  0  0  0  0
  144.8644  142.6344  153.6809 H   0  0  0  0  0  0  0  0  0  0  0  0
  146.1739  138.7677  152.0431 H   0  0  0  0  0  0  0  0  0  0  0  0
  148.3796  137.6713  152.7417 H   0  0  0  0  0  0  0  0  0  0  0  0
  149.7802  138.8073  154.4336 H   0  0  0  0  0  0  0  0  0  0  0  0
  148.6736  141.7276  156.3451 H   0  0  0  0  0  0  0  0  0  0  0  0
  151.6700  141.3049  157.6842 H   0  0  0  0  0  0  0  0  0  0  0  0
  151.6941  142.7184  156.6265 H   0  0  0  0  0  0  0  0  0  0  0  0
  149.5039  143.2775  159.6033 H   0  0  0  0  0  0  0  0  0  0  0  0
  151.0745  142.4769  159.4976 H   0  0  0  0  0  0  0  0  0  0  0  0
  150.4158  145.0495  157.9467 H   0  0  0  0  0  0  0  0  0  0  0  0
  153.0998  143.6449  158.6417 H   0  0  0  0  0  0  0  0  0  0  0  0
  152.8828  145.1989  157.6822 H   0  0  0  0  0  0  0  0  0  0  0  0
  151.7551  146.2625  159.6631 H   0  0  0  0  0  0  0  0  0  0  0  0
  151.9761  144.7081  160.6204 H   0  0  0  0  0  0  0  0  0  0  0  0
  145.5639  140.7607  153.0243 H   0  0  0  0  0  0  0  0  0  0  0  0
  1  2  1  0  0  0  0
  1 19  1  0  0  0  0
  1 20  1  0  0  0  0
  1 21  1  0  0  0  0
  2  3  1  0  0  0  0
  2  4  1  0  0  0  0
  3 22  1  0  0  0  0
  3 23  1  0  0  0  0
  3 24  1  0  0  0  0
  4  9  1  0  0  0  0
  4  5  2  0  0  0  0
  5  6  1  0  0  0  0
  5 38  1  0  0  0  0
  6  7  2  0  0  0  0
  6 25  1  0  0  0  0
  7  8  1  0  0  0  0
  7 26  1  0  0  0  0
  8  9  2  0  0  0  0
  8 27  1  0  0  0  0
  9 10  1  0  0  0  0
 10 11  1  0  0  0  0
 10 28  1  0  0  0  0
 11 12  2  0  0  0  0
 11 13  1  0  0  0  0
 13 14  1  0  0  0  0
 13 29  1  0  0  0  0
 13 30  1  0  0  0  0
 14 15  1  0  0  0  0
 15 16  1  0  0  0  0
 15 31  1  0  0  0  0
 15 32  1  0  0  0  0
 16 18  1  0  0  0  0
 16 17  1  0  0  0  0
 16 33  1  0  0  0  0
 17 18  1  0  0  0  0
 17 34  1  0  0  0  0
 17 35  1  0  0  0  0
 18 36  1  0  0  0  0
 18 37  1  0  0  0  0
M  CHG  1   5   1
M  END
> <s_m_source_file>
AV-unprocessed.smi

> <i_m_source_file_index>
3227

> <i_lp_mmshare_version>
43012

> <i_f3d_flags>
0

> <s_epik_input>
W0NIM11OKFtDSDNdKWMxbltjSF1bY0hdW2NIXWMxW05IXUMoPU8pW0NIMl1PW0NIMl1bQ0hdMltDSDJdW0NIMl0y

> <s_epik_cmdline>
J2VwaWtfcHl0aG9uJywgJy1waCcsICc3LjAnLCAnLXRuJywgJzgnLCAnLW1hJywgJzIwMCcsICctbWV0YWxfYmluZGluZycsICctaW1hZScsICc8aW5maWxlLm1hZT4nLCAnLW9tYWUnLCAnPG91dGZpbGUubWFlPic=

> <r_lp_tautomer_probability>
0.999994

> <r_epik_Ionization_Penalty>
0.625506

> <r_epik_Ionization_Penalty_Charging>
0.625505

> <r_epik_Ionization_Penalty_Neutral>
1.06265e-06

> <r_epik_State_Penalty>
0.641902

> <r_epik_Charging_Adjusted_Penalty>
1.26741

> <i_epik_Tot_Q>
1

> <i_epik_Tot_abs_Q>
1

> <r_epik_Metal_State_Penalty>
0.821585

> <b_epik_Metal_Only>
0

> <s_lp_Force_Field>
OPLS_2005

> <r_lp_Energy>
27.1321

> <b_lp_Chiralities_Consistent>
1

> <s_lp_Variant>
AV-unprocessed.smi:3227-2

> <Gold.Version>
5.8.1

> <Gold.Id.Protein>
6NUR|6NUR_protein|mol2

> <Gold.PLP.Fitness>
46.4067

> <Gold.PLP.PLP>
-38.1592

> <Gold.PLP.part.hbond>
-2.0000

> <Gold.PLP.part.metal>
0.0000

> <Gold.PLP.part.buried>
-2.2963

> <Gold.PLP.part.nonpolar>
-35.9284

> <Gold.PLP.part.repulsive>
0.5298

> <Gold.PLP.ligand.clash>
0.0000

> <Gold.PLP.ligand.torsion>
1.3730

> <Gold.PLP.Chemscore.Hbond>
2.9520

> <Gold.PLP.Chemscore.CHOScore>
0.0000

> <Gold.PLP.Chemscore.Metal>
0.0000

> <Gold.Chemscore.Hbonds>
donor molecule, donor type, donor heavy atom, donor atom, acceptor molecule, acceptor atom, score
      L1  H     5    38       P1 10175  1.98
      P1  H  7989  7998       L1    12  0.98

> <Gold.PLP.Chemscore.Internal.Correction>
2.1376

> <Gold.Rescore>
     Score         DG    S(hbond)    S(metal)    S(lipo)     H(rot)  DE(clash)    DE(int)     intcor
     14.49     -18.04       1.79        0.00      90.02       1.54       0.56       2.98       ----

> <Gold.Chemscore.Fitness>
14.4909

> <Gold.Chemscore.DG>
-18.0358

> <Gold.Chemscore.ZeroCoef>
-5.4800

> <Gold.Chemscore.Hbond>
1.7860

> <Gold.Chemscore.Metal>
0.0000

> <Gold.Chemscore.Lipo>
90.0158

> <Gold.Chemscore.Internal_Hbond>
0.0000

> <Gold.Chemscore.DEClash>
0.5644

> <Gold.Chemscore.DEInternal>
2.9805

> <Gold.Chemscore.Rot>
1.5396

> <Gold.Chemscore.Internal.Correction>
   9.000000E+99

> <Gold.Chemscore.Hbonds>
donor molecule, donor type, donor heavy atom, donor atom, acceptor molecule, acceptor atom, score
      L1  H     5    38       P1 10175  0.55
      P1  H  7989  7998       L1    12  0.90

> <Gold.Chemscore.Hbond.Weighted>
-5.9653

> <Gold.Chemscore.Metal.Weighted>
-0.0000

> <Gold.Chemscore.Lipo.Weighted>
-10.5318

> <Gold.Chemscore.Internal_Hbond.Weighted>
0.0000

> <Gold.Chemscore.DEClash.Weighted>
0.5644

> <Gold.Chemscore.DEInternal.Weighted>
2.9805

> <Gold.Chemscore.Rot.Weighted>
3.9413

> <Gold.Chemscore.Internal.Correction.Weighted>
   9.000000E+99

> <Gold.Protein.RotatedTorsions>
[ 6907 6896 6895 6894 ] final   69.70 input  -60.11 | X-H torsion
[ 7974 7965 7964 7962 ] final  110.55 input  175.53 | X-H torsion
[ 8008 7997 7996 7995 ] final  171.65 input   59.86 | X-H torsion
[ 10167 10162 10161 10158 ] final  -53.58 input  -65.29 | X-H torsion
[ 10718 10713 10712 10709 ] final  -32.78 input   66.30 | X-H torsion
[ 10763 10752 10751 10750 ] final   13.28 input  -60.55 | X-H torsion
[ 11005 11000 10999 10996 ] final  -36.87 input  -57.11 | X-H torsion

> <Gold.Protein.ActiveResidues>
 VAL166  LYS551  ARG553  GLY616  TRP617  ASP618  TYR619  PRO620  LYS621  CYS622 
 ASP623  PHE694  ASN695  SER759  ASP760  ASP761  ALA762  ILE779  LEU786  VAL792 
 PHE793  MET794  SER795  GLU796  ALA797  LYS798  CYS799  TRP800  GLU811  SER814 

> <Gold.Protein.RotatedAtoms>
  152.4703  134.4976  159.9714 H   0  0  0  0  0  0  0  0  0  0  0  0  # atno 6907 bound_to 6896
  151.5005  133.3499  159.2876 H   0  0  0  0  0  0  0  0  0  0  0  0  # atno 6908 bound_to 6896
  150.8709  134.8111  159.7216 H   0  0  0  0  0  0  0  0  0  0  0  0  # atno 6909 bound_to 6896
  145.2535  139.2730  143.4055 H   0  0  0  0  0  0  0  0  0  0  0  0  # atno 7974 bound_to 7965
  156.1251  140.1506  156.9148 H   0  0  0  0  0  0  0  0  0  0  0  0  # atno 8008 bound_to 7997
  154.4865  140.0863  156.7539 H   0  0  0  0  0  0  0  0  0  0  0  0  # atno 8009 bound_to 7997
  155.4358  140.3429  155.4287 H   0  0  0  0  0  0  0  0  0  0  0  0  # atno 8010 bound_to 7997
  140.6477  143.2545  151.4813 H   0  0  0  0  0  0  0  0  0  0  0  0  # atno 10167 bound_to 10162
  156.3707  130.4339  149.7548 H   0  0  0  0  0  0  0  0  0  0  0  0  # atno 10718 bound_to 10713
  153.1737  135.6816  153.8572 H   0  0  0  0  0  0  0  0  0  0  0  0  # atno 10763 bound_to 10752
  153.7927  135.3167  155.3381 H   0  0  0  0  0  0  0  0  0  0  0  0  # atno 10764 bound_to 10752
  154.8015  135.4775  154.0380 H   0  0  0  0  0  0  0  0  0  0  0  0  # atno 10765 bound_to 10752
  140.9908  133.7006  156.1846 H   0  0  0  0  0  0  0  0  0  0  0  0  # atno 11005 bound_to 11000
  146.3296  140.2932  142.8616 LP  0  0  0  0  0  0  0  0  0  0  0  0  # atno 17320 bound_to 7965
  144.9482  140.8150  143.5588 LP  0  0  0  0  0  0  0  0  0  0  0  0  # atno 17321 bound_to 7965
  139.5689  144.1976  152.1806 LP  0  0  0  0  0  0  0  0  0  0  0  0  # atno 17342 bound_to 10162
  140.1266  144.5325  150.6829 LP  0  0  0  0  0  0  0  0  0  0  0  0  # atno 17343 bound_to 10162
  156.4676  130.7981  151.3000 LP  0  0  0  0  0  0  0  0  0  0  0  0  # atno 17370 bound_to 10713
  157.7483  131.0046  150.3082 LP  0  0  0  0  0  0  0  0  0  0  0  0  # atno 17371 bound_to 10713
  140.7043  134.4530  157.5585 LP  0  0  0  0  0  0  0  0  0  0  0  0  # atno 17394 bound_to 11000
  139.8991  134.8598  156.1972 LP  0  0  0  0  0  0  0  0  0  0  0  0  # atno 17395 bound_to 11000

$$$$
