AV-unprocessed.smi:409|AV-procd|sdf|2505|dock9
  -GOLD-   2262022453D 1   1.00000     0.00000
 Structure written by MMmdl.
 35 36  0  0  0  0  0  0  0  0  1 V2000
  152.4183  139.8388  157.1168 O   0  0  0  0  0  0  0  0  0  0  0  0
  151.2234  139.6692  157.3646 C   0  0  0  0  0  0  0  0  0  0  0  0
  150.4959  138.4009  156.8961 C   0  0  0  0  0  0  0  0  0  0  0  0
  149.5302  138.6563  155.8173 N   0  0  0  0  0  0  0  0  0  0  0  0
  148.2202  138.2127  155.9304 C   0  0  0  0  0  0  0  0  0  0  0  0
  147.2833  138.4024  154.9714 C   0  0  0  0  0  0  0  0  0  0  0  0
  147.6208  139.1038  153.7375 C   0  0  0  0  0  0  0  0  0  0  0  0
  146.8430  139.3258  152.8123 O   0  0  0  0  0  0  0  0  0  0  0  0
  148.9484  139.5326  153.6604 N   0  0  0  0  0  0  0  0  0  0  0  0
  149.9194  139.3389  154.6442 C   0  0  0  0  0  0  0  0  0  0  0  0
  151.0648  139.7549  154.4729 O   0  0  0  0  0  0  0  0  0  0  0  0
  150.4873  140.5455  158.0653 N   0  0  0  0  0  0  0  0  0  0  0  0
  150.9715  141.8097  158.6108 C   0  0  0  0  0  0  0  0  0  0  0  0
  151.2849  142.8085  157.4771 C   0  0  0  0  0  0  0  0  0  0  0  0
  151.8696  144.1191  158.0284 C   0  0  0  0  0  0  0  0  0  0  0  0
  153.1142  143.8564  158.8907 C   0  0  0  0  0  0  0  0  0  0  0  0
  152.8039  142.8663  160.0242 C   0  0  0  0  0  0  0  0  0  0  0  0
  152.2214  141.5541  159.4745 C   0  0  0  0  0  0  0  0  0  0  0  0
  149.2294  140.0207  152.8224 H   0  0  0  0  0  0  0  0  0  0  0  0
  151.2478  137.6820  156.5678 H   0  0  0  0  0  0  0  0  0  0  0  0
  149.9956  137.9270  157.7433 H   0  0  0  0  0  0  0  0  0  0  0  0
  147.9258  137.6836  156.8258 H   0  0  0  0  0  0  0  0  0  0  0  0
  146.2789  138.0320  155.1177 H   0  0  0  0  0  0  0  0  0  0  0  0
  149.5158  140.3232  158.2275 H   0  0  0  0  0  0  0  0  0  0  0  0
  150.1991  142.2368  159.2537 H   0  0  0  0  0  0  0  0  0  0  0  0
  151.9942  142.3629  156.7780 H   0  0  0  0  0  0  0  0  0  0  0  0
  150.3827  143.0257  156.9043 H   0  0  0  0  0  0  0  0  0  0  0  0
  152.1222  144.7882  157.2054 H   0  0  0  0  0  0  0  0  0  0  0  0
  151.1140  144.6329  158.6237 H   0  0  0  0  0  0  0  0  0  0  0  0
  153.9146  143.4582  158.2660 H   0  0  0  0  0  0  0  0  0  0  0  0
  153.4840  144.7943  159.3063 H   0  0  0  0  0  0  0  0  0  0  0  0
  153.7096  142.6602  160.5955 H   0  0  0  0  0  0  0  0  0  0  0  0
  152.0951  143.3175  160.7198 H   0  0  0  0  0  0  0  0  0  0  0  0
  151.9744  140.8881  160.3022 H   0  0  0  0  0  0  0  0  0  0  0  0
  152.9823  141.0429  158.8829 H   0  0  0  0  0  0  0  0  0  0  0  0
  1  2  2  0  0  0  0
  2  3  1  0  0  0  0
  2 12  1  0  0  0  0
  3  4  1  0  0  0  0
  3 20  1  0  0  0  0
  3 21  1  0  0  0  0
  4 10  1  0  0  0  0
  4  5  1  0  0  0  0
  5  6  2  0  0  0  0
  5 22  1  0  0  0  0
  6  7  1  0  0  0  0
  6 23  1  0  0  0  0
  7  8  2  0  0  0  0
  7  9  1  0  0  0  0
  9 19  1  0  0  0  0
  9 10  1  0  0  0  0
 10 11  2  0  0  0  0
 12 13  1  0  0  0  0
 12 24  1  0  0  0  0
 13 18  1  0  0  0  0
 13 14  1  0  0  0  0
 13 25  1  0  0  0  0
 14 15  1  0  0  0  0
 14 26  1  0  0  0  0
 14 27  1  0  0  0  0
 15 16  1  0  0  0  0
 15 28  1  0  0  0  0
 15 29  1  0  0  0  0
 16 17  1  0  0  0  0
 16 30  1  0  0  0  0
 16 31  1  0  0  0  0
 17 18  1  0  0  0  0
 17 32  1  0  0  0  0
 17 33  1  0  0  0  0
 18 34  1  0  0  0  0
 18 35  1  0  0  0  0
M  END
> <s_m_source_file>
AV-unprocessed.smi

> <i_m_source_file_index>
409

> <i_lp_mmshare_version>
43012

> <i_f3d_flags>
0

> <s_epik_input>
W0NIMl0xW0NIMl1bQ0gyXVtDSDJdW0NIMl1bQ0hdMVtOSF1DKD1PKVtDSDJdbjJbY0hdW2NIXWMoPU8pW25IXWMyPU8=

> <s_epik_cmdline>
J2VwaWtfcHl0aG9uJywgJy1waCcsICc3LjAnLCAnLXRuJywgJzgnLCAnLW1hJywgJzIwMCcsICctbWV0YWxfYmluZGluZycsICctaW1hZScsICc8aW5maWxlLm1hZT4nLCAnLW9tYWUnLCAnPG91dGZpbGUubWFlPic=

> <r_lp_tautomer_probability>
0.999537

> <r_epik_Ionization_Penalty>
0.00309578

> <r_epik_Ionization_Penalty_Charging>
0.00309576

> <r_epik_Ionization_Penalty_Neutral>
1.90469e-08

> <r_epik_State_Penalty>
0.00217825

> <r_epik_Charging_Adjusted_Penalty>
0.00527401

> <i_epik_Tot_Q>
0

> <i_epik_Tot_abs_Q>
0

> <r_epik_Metal_State_Penalty>
0.362603

> <b_epik_Metal_Only>
0

> <s_lp_Force_Field>
OPLS_2005

> <r_lp_Energy>
8.21917

> <b_lp_Chiralities_Consistent>
1

> <s_lp_Variant>
AV-unprocessed.smi:409-1

> <Gold.Version>
5.8.1

> <Gold.Id.Protein>
6NUR|6NUR_protein|mol2

> <Gold.PLP.Fitness>
38.8042

> <Gold.PLP.PLP>
-30.2429

> <Gold.PLP.part.hbond>
-2.9998

> <Gold.PLP.part.metal>
0.0000

> <Gold.PLP.part.buried>
-4.9078

> <Gold.PLP.part.nonpolar>
-22.5812

> <Gold.PLP.part.repulsive>
0.9991

> <Gold.PLP.ligand.clash>
0.0000

> <Gold.PLP.ligand.torsion>
0.2218

> <Gold.PLP.Chemscore.Hbond>
3.0000

> <Gold.PLP.Chemscore.CHOScore>
0.0000

> <Gold.PLP.Chemscore.Metal>
0.0000

> <Gold.Chemscore.Hbonds>
donor molecule, donor type, donor heavy atom, donor atom, acceptor molecule, acceptor atom, score
      L1  H     9    19       P1  7957  1.00
      P1  H  7989  7998       L1    11  1.00
      P1  H  7997  8010       L1     1  1.00

> <Gold.PLP.Chemscore.Internal.Correction>
0.0048

> <Gold.Rescore>
     Score         DG    S(hbond)    S(metal)    S(lipo)     H(rot)  DE(clash)    DE(int)     intcor
     17.43     -19.71       2.98        0.00      73.85       1.70       0.05       2.23       ----

> <Gold.Chemscore.Fitness>
17.4284

> <Gold.Chemscore.DG>
-19.7069

> <Gold.Chemscore.ZeroCoef>
-5.4800

> <Gold.Chemscore.Hbond>
2.9769

> <Gold.Chemscore.Metal>
0.0000

> <Gold.Chemscore.Lipo>
73.8452

> <Gold.Chemscore.Internal_Hbond>
0.0000

> <Gold.Chemscore.DEClash>
0.0513

> <Gold.Chemscore.DEInternal>
2.2272

> <Gold.Chemscore.Rot>
1.7015

> <Gold.Chemscore.Internal.Correction>
   9.000000E+99

> <Gold.Chemscore.Hbonds>
donor molecule, donor type, donor heavy atom, donor atom, acceptor molecule, acceptor atom, score
      L1  H     9    19       P1  7957  0.95
      P1  H  7989  7998       L1    11  0.98
      P1  H  7997  8010       L1     1  0.93

> <Gold.Chemscore.Hbond.Weighted>
-9.9430

> <Gold.Chemscore.Metal.Weighted>
-0.0000

> <Gold.Chemscore.Lipo.Weighted>
-8.6399

> <Gold.Chemscore.Internal_Hbond.Weighted>
0.0000

> <Gold.Chemscore.DEClash.Weighted>
0.0513

> <Gold.Chemscore.DEInternal.Weighted>
2.2272

> <Gold.Chemscore.Rot.Weighted>
4.3559

> <Gold.Chemscore.Internal.Correction.Weighted>
   9.000000E+99

> <Gold.Protein.RotatedTorsions>
[ 6907 6896 6895 6894 ] final   96.63 input  -60.11 | X-H torsion
[ 7974 7965 7964 7962 ] final   11.05 input  175.53 | X-H torsion
[ 8008 7997 7996 7995 ] final   60.16 input   59.86 | X-H torsion
[ 10167 10162 10161 10158 ] final  -26.30 input  -65.29 | X-H torsion
[ 10718 10713 10712 10709 ] final  163.68 input   66.30 | X-H torsion
[ 10763 10752 10751 10750 ] final  -57.28 input  -60.55 | X-H torsion
[ 11005 11000 10999 10996 ] final  -40.34 input  -57.11 | X-H torsion

> <Gold.Protein.ActiveResidues>
 VAL166  LYS551  ARG553  GLY616  TRP617  ASP618  TYR619  PRO620  LYS621  CYS622 
 ASP623  PHE694  ASN695  SER759  ASP760  ASP761  ALA762  ILE779  LEU786  VAL792 
 PHE793  MET794  SER795  GLU796  ALA797  LYS798  CYS799  TRP800  GLU811  SER814 

> <Gold.Protein.RotatedAtoms>
  152.5433  134.0857  159.8254 H   0  0  0  0  0  0  0  0  0  0  0  0  # atno 6907 bound_to 6896
  151.0952  133.5277  159.2620 H   0  0  0  0  0  0  0  0  0  0  0  0  # atno 6908 bound_to 6896
  151.2053  135.0468  159.8943 H   0  0  0  0  0  0  0  0  0  0  0  0  # atno 6909 bound_to 6896
  146.2378  139.9544  142.8466 H   0  0  0  0  0  0  0  0  0  0  0  0  # atno 7974 bound_to 7965
  155.5779  140.3491  155.4532 H   0  0  0  0  0  0  0  0  0  0  0  0  # atno 8008 bound_to 7997
  156.0395  140.1293  157.0196 H   0  0  0  0  0  0  0  0  0  0  0  0  # atno 8009 bound_to 7997
  154.4386  140.1027  156.6202 H   0  0  0  0  0  0  0  0  0  0  0  0  # atno 8010 bound_to 7997
  140.7283  143.4190  151.0982 H   0  0  0  0  0  0  0  0  0  0  0  0  # atno 10167 bound_to 10162
  157.1051  131.0453  151.2481 H   0  0  0  0  0  0  0  0  0  0  0  0  # atno 10718 bound_to 10713
  154.2199  135.6379  153.5141 H   0  0  0  0  0  0  0  0  0  0  0  0  # atno 10763 bound_to 10752
  152.9971  135.5494  154.6125 H   0  0  0  0  0  0  0  0  0  0  0  0  # atno 10764 bound_to 10752
  154.5583  135.2907  155.0917 H   0  0  0  0  0  0  0  0  0  0  0  0  # atno 10765 bound_to 10752
  141.0167  133.6882  156.2308 H   0  0  0  0  0  0  0  0  0  0  0  0  # atno 11005 bound_to 11000
  145.1831  140.9776  143.4255 LP  0  0  0  0  0  0  0  0  0  0  0  0  # atno 17320 bound_to 7965
  144.9924  139.3676  143.6208 LP  0  0  0  0  0  0  0  0  0  0  0  0  # atno 17321 bound_to 7965
  139.7833  143.8323  152.3141 LP  0  0  0  0  0  0  0  0  0  0  0  0  # atno 17342 bound_to 10162
  139.8282  144.7265  150.9484 LP  0  0  0  0  0  0  0  0  0  0  0  0  # atno 17343 bound_to 10162
  157.4607  130.7651  149.7233 LP  0  0  0  0  0  0  0  0  0  0  0  0  # atno 17370 bound_to 10713
  155.9864  130.3975  150.3215 LP  0  0  0  0  0  0  0  0  0  0  0  0  # atno 17371 bound_to 10713
  140.6642  134.4936  157.5585 LP  0  0  0  0  0  0  0  0  0  0  0  0  # atno 17394 bound_to 11000
  139.9121  134.8322  156.1491 LP  0  0  0  0  0  0  0  0  0  0  0  0  # atno 17395 bound_to 11000

$$$$
