AV-unprocessed.smi:141|AV-procd|sdf|1188|dock9
  -GOLD-   2262018343D 1   1.00000     0.00000
 Structure written by MMmdl.
 56 59  0  0  0  0  0  0  0  0  1 V2000
  155.0111  138.9372  158.9354 O   0  0  0  0  0  0  0  0  0  0  0  0
  154.1546  138.4401  159.6695 C   0  0  0  0  0  0  0  0  0  0  0  0
  152.7393  138.1909  159.1056 C   0  0  0  0  0  0  0  0  0  0  0  0
  152.1198  139.3924  158.5019 N   0  0  0  0  0  0  0  0  0  0  0  0
  151.5652  139.2911  157.2014 C   0  0  0  0  0  0  0  0  0  0  0  0
  151.5773  138.2253  156.5835 O   0  0  0  0  0  0  0  0  0  0  0  0
  151.0024  140.5224  156.6583 C   0  0  0  0  0  0  0  0  0  0  0  0
  150.4622  140.5209  155.4278 F   0  0  0  0  0  0  0  0  0  0  0  0
  151.0210  141.6679  157.3701 C   0  0  0  0  0  0  0  0  0  0  0  0
  151.5617  141.7512  158.6401 N   0  0  0  0  0  0  0  0  0  0  0  0
  151.5849  143.0577  159.4018 C   0  0  1  0  0  0  0  0  0  0  0  0
  152.9283  143.7669  159.1945 C   0  0  0  0  0  0  0  0  0  0  0  0
  152.6136  144.7004  158.0461 C   0  0  0  0  0  0  0  0  0  0  0  0
  151.1660  145.0727  158.3445 C   0  0  0  0  0  0  0  0  0  0  0  0
  150.5836  143.8973  158.9018 O   0  0  0  0  0  0  0  0  0  0  0  0
  152.1404  140.6064  159.2297 C   0  0  0  0  0  0  0  0  0  0  0  0
  152.6614  140.6686  160.3454 O   0  0  0  0  0  0  0  0  0  0  0  0
  154.4187  138.1033  160.9558 N   0  0  0  0  0  0  0  0  0  0  0  0
  153.4812  137.4549  161.8826 C   0  0  0  0  0  0  0  0  0  0  0  0
  153.9604  136.0162  162.1479 C   0  0  0  0  0  0  0  0  0  0  0  0
  155.4050  135.9982  162.6965 C   0  0  0  0  0  0  0  0  0  0  0  0
  155.9352  134.5600  162.8913 C   0  0  0  0  0  0  0  0  0  0  0  0
  154.9171  133.6477  163.5502 C   0  0  0  0  0  0  0  0  0  0  0  0
  154.5580  132.4285  162.9382 C   0  0  0  0  0  0  0  0  0  0  0  0
  153.6192  131.5777  163.5537 C   0  0  0  0  0  0  0  0  0  0  0  0
  153.0380  131.9425  164.7837 C   0  0  0  0  0  0  0  0  0  0  0  0
  153.3967  133.1580  165.3986 C   0  0  0  0  0  0  0  0  0  0  0  0
  154.3347  134.0096  164.7830 C   0  0  0  0  0  0  0  0  0  0  0  0
  156.3365  136.8418  161.7984 C   0  0  0  0  0  0  0  0  0  0  0  0
  155.7525  138.2447  161.5530 C   0  0  0  0  0  0  0  0  0  0  0  0
  152.7889  137.3826  158.3743 H   0  0  0  0  0  0  0  0  0  0  0  0
  152.1072  137.7995  159.9039 H   0  0  0  0  0  0  0  0  0  0  0  0
  150.5985  142.5505  156.9134 H   0  0  0  0  0  0  0  0  0  0  0  0
  151.3694  142.8093  160.4423 H   0  0  0  0  0  0  0  0  0  0  0  0
  153.1642  144.3352  160.0951 H   0  0  0  0  0  0  0  0  0  0  0  0
  153.7425  143.0697  158.9928 H   0  0  0  0  0  0  0  0  0  0  0  0
  153.2764  145.5647  158.0012 H   0  0  0  0  0  0  0  0  0  0  0  0
  152.6811  144.1675  157.0970 H   0  0  0  0  0  0  0  0  0  0  0  0
  151.1258  145.8695  159.0886 H   0  0  0  0  0  0  0  0  0  0  0  0
  150.6258  145.4066  157.4584 H   0  0  0  0  0  0  0  0  0  0  0  0
  153.4575  138.0171  162.8174 H   0  0  0  0  0  0  0  0  0  0  0  0
  152.4510  137.4403  161.5311 H   0  0  0  0  0  0  0  0  0  0  0  0
  153.2885  135.5281  162.8547 H   0  0  0  0  0  0  0  0  0  0  0  0
  153.9064  135.4427  161.2212 H   0  0  0  0  0  0  0  0  0  0  0  0
  155.3819  136.4938  163.6689 H   0  0  0  0  0  0  0  0  0  0  0  0
  156.2318  134.1222  161.9371 H   0  0  0  0  0  0  0  0  0  0  0  0
  156.8409  134.5620  163.4996 H   0  0  0  0  0  0  0  0  0  0  0  0
  155.0032  132.1414  161.9966 H   0  0  0  0  0  0  0  0  0  0  0  0
  153.3460  130.6450  163.0828 H   0  0  0  0  0  0  0  0  0  0  0  0
  152.3189  131.2896  165.2559 H   0  0  0  0  0  0  0  0  0  0  0  0
  152.9529  133.4366  166.3430 H   0  0  0  0  0  0  0  0  0  0  0  0
  154.6082  134.9396  165.2601 H   0  0  0  0  0  0  0  0  0  0  0  0
  157.3210  136.9277  162.2596 H   0  0  0  0  0  0  0  0  0  0  0  0
  156.4848  136.3401  160.8409 H   0  0  0  0  0  0  0  0  0  0  0  0
  156.4370  138.8265  160.9349 H   0  0  0  0  0  0  0  0  0  0  0  0
  155.6715  138.7884  162.4953 H   0  0  0  0  0  0  0  0  0  0  0  0
  1  2  2  0  0  0  0
  2  3  1  0  0  0  0
  2 18  1  0  0  0  0
  3  4  1  0  0  0  0
  3 31  1  0  0  0  0
  3 32  1  0  0  0  0
  4 16  1  0  0  0  0
  4  5  1  0  0  0  0
  5  6  2  0  0  0  0
  5  7  1  0  0  0  0
  7  8  1  0  0  0  0
  7  9  2  0  0  0  0
  9 10  1  0  0  0  0
  9 33  1  0  0  0  0
 10 11  1  0  0  0  0
 10 16  1  0  0  0  0
 11 15  1  0  0  0  0
 11 12  1  0  0  0  0
 11 34  1  0  0  0  0
 12 13  1  0  0  0  0
 12 35  1  0  0  0  0
 12 36  1  0  0  0  0
 13 14  1  0  0  0  0
 13 37  1  0  0  0  0
 13 38  1  0  0  0  0
 14 15  1  0  0  0  0
 14 39  1  0  0  0  0
 14 40  1  0  0  0  0
 16 17  2  0  0  0  0
 18 30  1  0  0  0  0
 18 19  1  0  0  0  0
 19 20  1  0  0  0  0
 19 41  1  0  0  0  0
 19 42  1  0  0  0  0
 20 21  1  0  0  0  0
 20 43  1  0  0  0  0
 20 44  1  0  0  0  0
 21 22  1  0  0  0  0
 21 29  1  0  0  0  0
 21 45  1  0  0  0  0
 22 23  1  0  0  0  0
 22 46  1  0  0  0  0
 22 47  1  0  0  0  0
 23 28  1  0  0  0  0
 23 24  2  0  0  0  0
 24 25  1  0  0  0  0
 24 48  1  0  0  0  0
 25 26  2  0  0  0  0
 25 49  1  0  0  0  0
 26 27  1  0  0  0  0
 26 50  1  0  0  0  0
 27 28  2  0  0  0  0
 27 51  1  0  0  0  0
 28 52  1  0  0  0  0
 29 30  1  0  0  0  0
 29 53  1  0  0  0  0
 29 54  1  0  0  0  0
 30 55  1  0  0  0  0
 30 56  1  0  0  0  0
M  END
> <s_m_source_file>
AV-unprocessed.smi

> <i_m_source_file_index>
141

> <i_lp_mmshare_version>
43012

> <i_f3d_flags>
0

> <s_epik_input>
W2NIXTFbY0hdW2NIXVtjSF1bY0hdYzFbQ0gyXVtDSF0oW0NIMl1bQ0gyXTIpW0NIMl1bQ0gyXU4yQyg9TylbQ0gyXW4zYyg9TyljKEYpW2NIXW4oYzM9TylbQ0BASF00W0NIMl1bQ0gyXVtDSDJdTzQ=

> <s_epik_cmdline>
J2VwaWtfcHl0aG9uJywgJy1waCcsICc3LjAnLCAnLXRuJywgJzgnLCAnLW1hJywgJzIwMCcsICctbWV0YWxfYmluZGluZycsICctaW1hZScsICc8aW5maWxlLm1hZT4nLCAnLW9tYWUnLCAnPG91dGZpbGUubWFlPic=

> <r_lp_tautomer_probability>
1

> <r_epik_Ionization_Penalty>
3.78313e-08

> <r_epik_Ionization_Penalty_Charging>
4.95074e-09

> <r_epik_Ionization_Penalty_Neutral>
3.28806e-08

> <r_epik_State_Penalty>
-0

> <r_epik_Charging_Adjusted_Penalty>
4.95074e-09

> <i_epik_Tot_Q>
0

> <i_epik_Tot_abs_Q>
0

> <r_epik_Metal_State_Penalty>
-0

> <b_epik_Metal_Only>
0

> <s_epik_Chemistry_Notes>
This compound contains an acetal/aminal-like group ( X-CH(R)-Y where X, Y are N, S, or O) that may be acid/base labile, releasing an aldehyde.

> <s_lp_Force_Field>
OPLS_2005

> <r_lp_Energy>
51.0645

> <b_lp_Chiralities_Consistent>
1

> <s_lp_Variant>
AV-unprocessed.smi:141-2

> <Gold.Version>
5.8.1

> <Gold.Id.Protein>
6NUR|6NUR_protein|mol2

> <Gold.PLP.Fitness>
52.4801

> <Gold.PLP.PLP>
-51.2528

> <Gold.PLP.part.hbond>
-1.0000

> <Gold.PLP.part.metal>
0.0000

> <Gold.PLP.part.buried>
-5.0157

> <Gold.PLP.part.nonpolar>
-45.2703

> <Gold.PLP.part.repulsive>
0.1215

> <Gold.PLP.ligand.clash>
0.0000

> <Gold.PLP.ligand.torsion>
0.9178

> <Gold.PLP.Chemscore.Hbond>
1.0000

> <Gold.PLP.Chemscore.CHOScore>
0.0000

> <Gold.PLP.Chemscore.Metal>
0.0000

> <Gold.Chemscore.Hbonds>
donor molecule, donor type, donor heavy atom, donor atom, acceptor molecule, acceptor atom, score
      P1  H  7997  8010       L1     1  1.00

> <Gold.PLP.Chemscore.Internal.Correction>
0.0630

> <Gold.Rescore>
     Score         DG    S(hbond)    S(metal)    S(lipo)     H(rot)  DE(clash)    DE(int)     intcor
     16.70     -18.97       0.99        0.00     127.30       1.85       0.12       2.14       ----

> <Gold.Chemscore.Fitness>
16.7033

> <Gold.Chemscore.DG>
-18.9668

> <Gold.Chemscore.ZeroCoef>
-5.4800

> <Gold.Chemscore.Hbond>
0.9937

> <Gold.Chemscore.Metal>
0.0000

> <Gold.Chemscore.Lipo>
127.2967

> <Gold.Chemscore.Internal_Hbond>
0.0000

> <Gold.Chemscore.DEClash>
0.1240

> <Gold.Chemscore.DEInternal>
2.1395

> <Gold.Chemscore.Rot>
1.8461

> <Gold.Chemscore.Internal.Correction>
   9.000000E+99

> <Gold.Chemscore.Hbonds>
donor molecule, donor type, donor heavy atom, donor atom, acceptor molecule, acceptor atom, score
      P1  H  7997  8010       L1     1  0.99

> <Gold.Chemscore.Hbond.Weighted>
-3.3191

> <Gold.Chemscore.Metal.Weighted>
-0.0000

> <Gold.Chemscore.Lipo.Weighted>
-14.8937

> <Gold.Chemscore.Internal_Hbond.Weighted>
0.0000

> <Gold.Chemscore.DEClash.Weighted>
0.1240

> <Gold.Chemscore.DEInternal.Weighted>
2.1395

> <Gold.Chemscore.Rot.Weighted>
4.7260

> <Gold.Chemscore.Internal.Correction.Weighted>
   9.000000E+99

> <Gold.Protein.RotatedTorsions>
[ 6907 6896 6895 6894 ] final   33.53 input  -60.11 | X-H torsion
[ 7974 7965 7964 7962 ] final -106.05 input  175.53 | X-H torsion
[ 8008 7997 7996 7995 ] final    6.72 input   59.86 | X-H torsion
[ 10167 10162 10161 10158 ] final -129.16 input  -65.29 | X-H torsion
[ 10718 10713 10712 10709 ] final  109.45 input   66.30 | X-H torsion
[ 10763 10752 10751 10750 ] final   77.87 input  -60.55 | X-H torsion
[ 11005 11000 10999 10996 ] final   16.73 input  -57.11 | X-H torsion

> <Gold.Protein.ActiveResidues>
 VAL166  LYS551  ARG553  GLY616  TRP617  ASP618  TYR619  PRO620  LYS621  CYS622 
 ASP623  PHE694  ASN695  SER759  ASP760  ASP761  ALA762  ILE779  LEU786  VAL792 
 PHE793  MET794  SER795  GLU796  ALA797  LYS798  CYS799  TRP800  GLU811  SER814 

> <Gold.Protein.RotatedAtoms>
  152.0897  134.9415  160.0571 H   0  0  0  0  0  0  0  0  0  0  0  0  # atno 6907 bound_to 6896
  152.0671  133.4084  159.4451 H   0  0  0  0  0  0  0  0  0  0  0  0  # atno 6908 bound_to 6896
  150.6836  134.3054  159.4767 H   0  0  0  0  0  0  0  0  0  0  0  0  # atno 6909 bound_to 6896
  145.2228  140.9141  143.3250 H   0  0  0  0  0  0  0  0  0  0  0  0  # atno 7974 bound_to 7965
  154.7447  140.2755  155.6343 H   0  0  0  0  0  0  0  0  0  0  0  0  # atno 8008 bound_to 7997
  156.2882  140.2690  156.2110 H   0  0  0  0  0  0  0  0  0  0  0  0  # atno 8009 bound_to 7997
  155.0213  140.0371  157.2428 H   0  0  0  0  0  0  0  0  0  0  0  0  # atno 8010 bound_to 7997
  139.9427  143.6144  152.2499 H   0  0  0  0  0  0  0  0  0  0  0  0  # atno 10167 bound_to 10162
  157.6540  131.0914  150.6456 H   0  0  0  0  0  0  0  0  0  0  0  0  # atno 10718 bound_to 10713
  153.0831  135.4898  154.8542 H   0  0  0  0  0  0  0  0  0  0  0  0  # atno 10763 bound_to 10752
  154.7176  135.3032  154.9101 H   0  0  0  0  0  0  0  0  0  0  0  0  # atno 10764 bound_to 10752
  153.9775  135.6794  153.4802 H   0  0  0  0  0  0  0  0  0  0  0  0  # atno 10765 bound_to 10752
  140.4439  134.1293  155.7694 H   0  0  0  0  0  0  0  0  0  0  0  0  # atno 11005 bound_to 11000
  144.9750  139.3841  143.6290 LP  0  0  0  0  0  0  0  0  0  0  0  0  # atno 17320 bound_to 7965
  146.3372  139.8864  142.8816 LP  0  0  0  0  0  0  0  0  0  0  0  0  # atno 17321 bound_to 7965
  139.6691  144.7661  151.1817 LP  0  0  0  0  0  0  0  0  0  0  0  0  # atno 17342 bound_to 10162
  140.7606  143.5892  150.8814 LP  0  0  0  0  0  0  0  0  0  0  0  0  # atno 17343 bound_to 10162
  156.6764  130.4554  149.5641 LP  0  0  0  0  0  0  0  0  0  0  0  0  # atno 17370 bound_to 10713
  156.1960  130.6590  151.1115 LP  0  0  0  0  0  0  0  0  0  0  0  0  # atno 17371 bound_to 10713
  141.1694  133.8639  157.1618 LP  0  0  0  0  0  0  0  0  0  0  0  0  # atno 17394 bound_to 11000
  140.0051  135.0011  157.0276 LP  0  0  0  0  0  0  0  0  0  0  0  0  # atno 17395 bound_to 11000

$$$$
