AV-unprocessed.smi:1435|AV-procd|sdf|5858|dock6
  -GOLD-   22720 5533D 1   1.00000     0.00000
 Structure written by MMmdl.
 44 45  0  0  0  0  0  0  0  0  2 V2000
  149.1411  132.2421  155.2455 O   0  0  0  0  0  0  0  0  0  0  0  0
  149.3238  133.3659  154.7772 C   0  0  0  0  0  0  0  0  0  0  0  0
  150.2781  134.3401  155.4698 C   0  0  0  0  0  0  0  0  0  0  0  0
  149.5502  135.5691  156.0424 C   0  0  0  0  0  0  0  0  0  0  0  0
  150.2224  137.1470  155.3512 S   0  0  0  0  0  0  0  0  0  0  0  0
  151.4563  136.8384  154.6124 O   0  0  0  0  0  0  0  0  0  0  0  0
  149.1292  137.8481  154.6597 O   0  0  0  0  0  0  0  0  0  0  0  0
  150.6691  138.0868  156.8866 C   0  0  0  0  0  0  0  0  0  0  0  0
  149.8800  139.3973  157.0038 C   0  0  0  0  0  0  0  0  0  0  0  0
  150.7045  140.4639  156.2672 C   0  0  0  0  0  0  0  0  0  0  0  0
  152.1019  139.8652  156.0492 C   0  0  0  0  0  0  0  0  0  0  0  0
  152.1259  138.5552  156.8403 C   0  0  0  0  0  0  0  0  0  0  0  0
  148.7058  133.8152  153.6746 N   0  0  0  0  0  0  0  0  0  0  0  0
  147.6999  133.0744  152.9244 C   0  0  0  0  0  0  0  0  0  0  0  0
  146.3929  133.8754  152.8017 C   0  0  0  0  0  0  0  0  0  0  0  0
  145.5671  133.4437  151.6062 C   0  0  0  0  0  0  0  0  0  0  0  0
  146.0569  132.4716  150.7064 C   0  0  0  0  0  0  0  0  0  0  0  0
  145.2638  132.0881  149.6047 C   0  0  0  0  0  0  0  0  0  0  0  0
  143.9989  132.6857  149.4281 C   0  0  0  0  0  0  0  0  0  0  0  0
  143.5636  133.6119  150.3103 N   0  3  0  0  0  0  0  0  0  0  0  0
  144.2927  134.0061  151.3776 C   0  0  0  0  0  0  0  0  0  0  0  0
  150.7673  133.8012  156.2815 H   0  0  0  0  0  0  0  0  0  0  0  0
  151.0709  134.6531  154.7889 H   0  0  0  0  0  0  0  0  0  0  0  0
  148.4791  135.5242  155.8454 H   0  0  0  0  0  0  0  0  0  0  0  0
  149.6775  135.6019  157.1241 H   0  0  0  0  0  0  0  0  0  0  0  0
  150.4926  137.4281  157.7371 H   0  0  0  0  0  0  0  0  0  0  0  0
  148.8640  139.3226  156.6172 H   0  0  0  0  0  0  0  0  0  0  0  0
  149.8013  139.6719  158.0564 H   0  0  0  0  0  0  0  0  0  0  0  0
  150.2488  140.7133  155.3081 H   0  0  0  0  0  0  0  0  0  0  0  0
  150.7530  141.3834  156.8516 H   0  0  0  0  0  0  0  0  0  0  0  0
  152.2508  139.6591  154.9886 H   0  0  0  0  0  0  0  0  0  0  0  0
  152.8959  140.5438  156.3621 H   0  0  0  0  0  0  0  0  0  0  0  0
  152.4712  138.7549  157.8556 H   0  0  0  0  0  0  0  0  0  0  0  0
  152.8007  137.8161  156.4074 H   0  0  0  0  0  0  0  0  0  0  0  0
  148.9158  134.7517  153.3604 H   0  0  0  0  0  0  0  0  0  0  0  0
  148.1024  132.8623  151.9335 H   0  0  0  0  0  0  0  0  0  0  0  0
  147.5164  132.1092  153.3998 H   0  0  0  0  0  0  0  0  0  0  0  0
  145.7896  133.7580  153.7031 H   0  0  0  0  0  0  0  0  0  0  0  0
  146.6125  134.9408  152.7190 H   0  0  0  0  0  0  0  0  0  0  0  0
  147.0283  132.0235  150.8580 H   0  0  0  0  0  0  0  0  0  0  0  0
  145.6211  131.3460  148.9055 H   0  0  0  0  0  0  0  0  0  0  0  0
  143.3273  132.4524  148.6149 H   0  0  0  0  0  0  0  0  0  0  0  0
  143.8375  134.7533  152.0117 H   0  0  0  0  0  0  0  0  0  0  0  0
  142.6450  134.0314  150.1641 H   0  0  0  0  0  0  0  0  0  0  0  0
  1  2  2  0  0  0  0
  2  3  1  0  0  0  0
  2 13  1  0  0  0  0
  3  4  1  0  0  0  0
  3 22  1  0  0  0  0
  3 23  1  0  0  0  0
  4  5  1  0  0  0  0
  4 24  1  0  0  0  0
  4 25  1  0  0  0  0
  5  6  2  0  0  0  0
  5  7  2  0  0  0  0
  5  8  1  0  0  0  0
  8 12  1  0  0  0  0
  8  9  1  0  0  0  0
  8 26  1  0  0  0  0
  9 10  1  0  0  0  0
  9 27  1  0  0  0  0
  9 28  1  0  0  0  0
 10 11  1  0  0  0  0
 10 29  1  0  0  0  0
 10 30  1  0  0  0  0
 11 12  1  0  0  0  0
 11 31  1  0  0  0  0
 11 32  1  0  0  0  0
 12 33  1  0  0  0  0
 12 34  1  0  0  0  0
 13 14  1  0  0  0  0
 13 35  1  0  0  0  0
 14 15  1  0  0  0  0
 14 36  1  0  0  0  0
 14 37  1  0  0  0  0
 15 16  1  0  0  0  0
 15 38  1  0  0  0  0
 15 39  1  0  0  0  0
 16 21  1  0  0  0  0
 16 17  2  0  0  0  0
 17 18  1  0  0  0  0
 17 40  1  0  0  0  0
 18 19  2  0  0  0  0
 18 41  1  0  0  0  0
 19 20  1  0  0  0  0
 19 42  1  0  0  0  0
 20 21  2  0  0  0  0
 20 44  1  0  0  0  0
 21 43  1  0  0  0  0
M  CHG  1  20   1
M  END
> <s_m_source_file>
AV-unprocessed.smi

> <i_m_source_file_index>
1435

> <i_lp_mmshare_version>
43012

> <i_f3d_flags>
0

> <s_epik_input>
W0NIMl0xW0NIMl1bQ0gyXVtDSDJdW0NIXTFTKD1PKSg9TylbQ0gyXVtDSDJdQyg9TylbTkhdW0NIMl1bQ0gyXWMyW2NIXVtjSF1bY0hdbltjSF0y

> <s_epik_cmdline>
J2VwaWtfcHl0aG9uJywgJy1waCcsICc3LjAnLCAnLXRuJywgJzgnLCAnLW1hJywgJzIwMCcsICctbWV0YWxfYmluZGluZycsICctaW1hZScsICc8aW5maWxlLm1hZT4nLCAnLW9tYWUnLCAnPG91dGZpbGUubWFlPic=

> <r_epik_Ionization_Penalty>
2.2792

> <r_epik_Ionization_Penalty_Charging>
2.2792

> <r_epik_Ionization_Penalty_Neutral>
6.52611e-08

> <r_epik_State_Penalty>
2.42836

> <r_epik_Charging_Adjusted_Penalty>
4.70756

> <i_epik_Tot_Q>
1

> <i_epik_Tot_abs_Q>
1

> <r_epik_Metal_State_Penalty>
2.44099

> <b_epik_Metal_Only>
0

> <s_lp_Force_Field>
OPLS_2005

> <r_lp_Energy>
17.5712

> <b_lp_Chiralities_Consistent>
1

> <s_lp_Variant>
AV-unprocessed.smi:1435-2

> <Gold.Version>
5.8.1

> <Gold.Id.Protein>
6NUR|6NUR_protein|mol2

> <Gold.PLP.Fitness>
46.8913

> <Gold.PLP.PLP>
-36.6750

> <Gold.PLP.part.hbond>
-3.0000

> <Gold.PLP.part.metal>
0.0000

> <Gold.PLP.part.buried>
-5.6320

> <Gold.PLP.part.nonpolar>
-28.8146

> <Gold.PLP.part.repulsive>
1.1679

> <Gold.PLP.ligand.clash>
0.0000

> <Gold.PLP.ligand.torsion>
0.7393

> <Gold.PLP.Chemscore.Hbond>
3.8000

> <Gold.PLP.Chemscore.CHOScore>
0.0000

> <Gold.PLP.Chemscore.Metal>
0.0000

> <Gold.Chemscore.Hbonds>
donor molecule, donor type, donor heavy atom, donor atom, acceptor molecule, acceptor atom, score
      L1  H    13    35       P1  7948  0.86
      L1  H    20    44       P1 10186  2.00
      P1  H 10752 10763       L1     6  1.00

> <Gold.PLP.Chemscore.Internal.Correction>
0.2948

> <Gold.Rescore>
     Score         DG    S(hbond)    S(metal)    S(lipo)     H(rot)  DE(clash)    DE(int)     intcor
     16.45     -17.26       2.11        0.00      87.41       2.14       0.07       0.74       ----

> <Gold.Chemscore.Fitness>
16.4510

> <Gold.Chemscore.DG>
-17.2580

> <Gold.Chemscore.ZeroCoef>
-5.4800

> <Gold.Chemscore.Hbond>
2.1052

> <Gold.Chemscore.Metal>
0.0000

> <Gold.Chemscore.Lipo>
87.4100

> <Gold.Chemscore.Internal_Hbond>
0.0000

> <Gold.Chemscore.DEClash>
0.0650

> <Gold.Chemscore.DEInternal>
0.7420

> <Gold.Chemscore.Rot>
2.1408

> <Gold.Chemscore.Internal.Correction>
   9.000000E+99

> <Gold.Chemscore.Hbonds>
donor molecule, donor type, donor heavy atom, donor atom, acceptor molecule, acceptor atom, score
      L1  H    13    35       P1  7948  0.18
      L1  H    20    44       P1 10186  0.98
      P1  H 10752 10763       L1     6  1.00

> <Gold.Chemscore.Hbond.Weighted>
-7.0315

> <Gold.Chemscore.Metal.Weighted>
-0.0000

> <Gold.Chemscore.Lipo.Weighted>
-10.2270

> <Gold.Chemscore.Internal_Hbond.Weighted>
0.0000

> <Gold.Chemscore.DEClash.Weighted>
0.0650

> <Gold.Chemscore.DEInternal.Weighted>
0.7420

> <Gold.Chemscore.Rot.Weighted>
5.4805

> <Gold.Chemscore.Internal.Correction.Weighted>
   9.000000E+99

> <Gold.Protein.RotatedTorsions>
[ 6907 6896 6895 6894 ] final  136.81 input  -60.11 | X-H torsion
[ 7974 7965 7964 7962 ] final  167.35 input  175.53 | X-H torsion
[ 8008 7997 7996 7995 ] final  131.70 input   59.86 | X-H torsion
[ 10167 10162 10161 10158 ] final  102.64 input  -65.29 | X-H torsion
[ 10718 10713 10712 10709 ] final   -8.06 input   66.30 | X-H torsion
[ 10763 10752 10751 10750 ] final   44.60 input  -60.55 | X-H torsion
[ 11005 11000 10999 10996 ] final   99.14 input  -57.11 | X-H torsion

> <Gold.Protein.ActiveResidues>
 VAL166  LYS551  ARG553  GLY616  TRP617  ASP618  TYR619  PRO620  LYS621  CYS622 
 ASP623  PHE694  ASN695  SER759  ASP760  ASP761  ALA762  ILE779  LEU786  VAL792 
 PHE793  MET794  SER795  GLU796  ALA797  LYS798  CYS799  TRP800  GLU811  SER814 

> <Gold.Protein.RotatedAtoms>
  152.2852  133.5508  159.5522 H   0  0  0  0  0  0  0  0  0  0  0  0  # atno 6907 bound_to 6896
  150.7212  134.0507  159.3806 H   0  0  0  0  0  0  0  0  0  0  0  0  # atno 6908 bound_to 6896
  151.8416  135.0588  160.0499 H   0  0  0  0  0  0  0  0  0  0  0  0  # atno 6909 bound_to 6896
  144.7427  139.8748  143.6392 H   0  0  0  0  0  0  0  0  0  0  0  0  # atno 7974 bound_to 7965
  156.2973  140.2565  156.2968 H   0  0  0  0  0  0  0  0  0  0  0  0  # atno 8008 bound_to 7997
  154.9456  140.0395  157.2137 H   0  0  0  0  0  0  0  0  0  0  0  0  # atno 8009 bound_to 7997
  154.8084  140.2840  155.5875 H   0  0  0  0  0  0  0  0  0  0  0  0  # atno 8010 bound_to 7997
  139.7332  144.7030  151.0689 H   0  0  0  0  0  0  0  0  0  0  0  0  # atno 10167 bound_to 10162
  156.7081  130.5114  149.5899 H   0  0  0  0  0  0  0  0  0  0  0  0  # atno 10718 bound_to 10713
  152.9838  135.6065  154.3301 H   0  0  0  0  0  0  0  0  0  0  0  0  # atno 10763 bound_to 10752
  154.3005  135.2773  155.2615 H   0  0  0  0  0  0  0  0  0  0  0  0  # atno 10764 bound_to 10752
  154.4870  135.5902  153.6487 H   0  0  0  0  0  0  0  0  0  0  0  0  # atno 10765 bound_to 10752
  139.8771  134.9082  156.4561 H   0  0  0  0  0  0  0  0  0  0  0  0  # atno 11005 bound_to 11000
  146.1254  139.4279  143.0202 LP  0  0  0  0  0  0  0  0  0  0  0  0  # atno 17320 bound_to 7965
  145.7243  141.0064  143.1386 LP  0  0  0  0  0  0  0  0  0  0  0  0  # atno 17321 bound_to 7965
  140.7774  143.5016  150.9764 LP  0  0  0  0  0  0  0  0  0  0  0  0  # atno 17342 bound_to 10162
  139.8705  143.7199  152.3166 LP  0  0  0  0  0  0  0  0  0  0  0  0  # atno 17343 bound_to 10162
  156.1680  130.6418  151.0802 LP  0  0  0  0  0  0  0  0  0  0  0  0  # atno 17370 bound_to 10713
  157.6947  131.0798  150.7005 LP  0  0  0  0  0  0  0  0  0  0  0  0  # atno 17371 bound_to 10713
  140.8897  133.7857  155.9558 LP  0  0  0  0  0  0  0  0  0  0  0  0  # atno 17394 bound_to 11000
  140.8767  134.2661  157.5164 LP  0  0  0  0  0  0  0  0  0  0  0  0  # atno 17395 bound_to 11000

$$$$
