AV-unprocessed.smi:1499|AV-procd|sdf|6061|dock9
  -GOLD-   22720 6183D 1   1.00000     0.00000
 Structure written by MMmdl.
 41 42  0  0  0  0  0  0  0  0  2 V2000
  147.6939  127.8965  151.5852 C   0  0  0  0  0  0  0  0  0  0  0  0
  146.4281  128.7659  151.5818 C   0  0  0  0  0  0  0  0  0  0  0  0
  146.7312  130.2191  151.5539 N   0  3  0  0  0  0  0  0  0  0  0  0
  147.1734  130.7239  152.8825 C   0  0  0  0  0  0  0  0  0  0  0  0
  147.4897  132.2312  152.8418 C   0  0  0  0  0  0  0  0  0  0  0  0
  146.3120  132.9528  152.3388 N   0  0  0  0  0  0  0  0  0  0  0  0
  145.4350  133.6608  153.0937 C   0  0  0  0  0  0  0  0  0  0  0  0
  145.3535  133.5277  154.3151 O   0  0  0  0  0  0  0  0  0  0  0  0
  144.6058  134.4464  152.3804 N   0  0  0  0  0  0  0  0  0  0  0  0
  143.6233  135.3422  152.8729 C   0  0  0  0  0  0  0  0  0  0  0  0
  142.5723  134.9830  153.7563 C   0  0  0  0  0  0  0  0  0  0  0  0
  141.8036  136.0243  154.0355 N   0  0  0  0  0  0  0  0  0  0  0  0
  142.3437  137.0576  153.3413 N   0  0  0  0  0  0  0  0  0  0  0  0
  141.7332  138.3730  153.4163 C   0  0  0  0  0  0  0  0  0  0  0  0
  141.8858  138.9736  154.8149 C   0  0  0  0  0  0  0  0  0  0  0  0
  142.5360  140.1363  154.9111 N   0  0  0  0  0  0  0  0  0  0  0  0
  141.4219  138.3956  155.7953 O   0  0  0  0  0  0  0  0  0  0  0  0
  143.4586  136.6752  152.6208 C   0  0  0  0  0  0  0  0  0  0  0  0
  145.9958  132.5380  150.9691 C   0  0  0  0  0  0  0  0  0  0  0  0
  145.6388  131.0402  150.9614 C   0  0  0  0  0  0  0  0  0  0  0  0
  147.4350  126.8445  151.7076 H   0  0  0  0  0  0  0  0  0  0  0  0
  148.3583  128.1700  152.4050 H   0  0  0  0  0  0  0  0  0  0  0  0
  148.2525  127.9822  150.6534 H   0  0  0  0  0  0  0  0  0  0  0  0
  145.7824  128.5021  150.7428 H   0  0  0  0  0  0  0  0  0  0  0  0
  145.8653  128.5378  152.4882 H   0  0  0  0  0  0  0  0  0  0  0  0
  146.3920  130.5310  153.6198 H   0  0  0  0  0  0  0  0  0  0  0  0
  148.0580  130.1747  153.2070 H   0  0  0  0  0  0  0  0  0  0  0  0
  147.8213  132.5592  153.8269 H   0  0  0  0  0  0  0  0  0  0  0  0
  148.3327  132.4171  152.1744 H   0  0  0  0  0  0  0  0  0  0  0  0
  144.7120  134.4218  151.3767 H   0  0  0  0  0  0  0  0  0  0  0  0
  142.3448  134.0220  154.1939 H   0  0  0  0  0  0  0  0  0  0  0  0
  142.1840  139.0321  152.6723 H   0  0  0  0  0  0  0  0  0  0  0  0
  140.6759  138.2813  153.1642 H   0  0  0  0  0  0  0  0  0  0  0  0
  142.6543  140.5737  155.8137 H   0  0  0  0  0  0  0  0  0  0  0  0
  142.9007  140.5774  154.0793 H   0  0  0  0  0  0  0  0  0  0  0  0
  144.0099  137.3735  152.0085 H   0  0  0  0  0  0  0  0  0  0  0  0
  145.1838  133.1212  150.5316 H   0  0  0  0  0  0  0  0  0  0  0  0
  146.8621  132.7192  150.3313 H   0  0  0  0  0  0  0  0  0  0  0  0
  145.4452  130.7276  149.9359 H   0  0  0  0  0  0  0  0  0  0  0  0
  144.7170  130.8779  151.5227 H   0  0  0  0  0  0  0  0  0  0  0  0
  147.5293  130.3305  150.9449 H   0  0  0  0  0  0  0  0  0  0  0  0
  1  2  1  0  0  0  0
  1 21  1  0  0  0  0
  1 22  1  0  0  0  0
  1 23  1  0  0  0  0
  2  3  1  0  0  0  0
  2 24  1  0  0  0  0
  2 25  1  0  0  0  0
  3 20  1  0  0  0  0
  3  4  1  0  0  0  0
  3 41  1  0  0  0  0
  4  5  1  0  0  0  0
  4 26  1  0  0  0  0
  4 27  1  0  0  0  0
  5  6  1  0  0  0  0
  5 28  1  0  0  0  0
  5 29  1  0  0  0  0
  6  7  1  0  0  0  0
  6 19  1  0  0  0  0
  7  8  2  0  0  0  0
  7  9  1  0  0  0  0
  9 10  1  0  0  0  0
  9 30  1  0  0  0  0
 10 18  2  0  0  0  0
 10 11  1  0  0  0  0
 11 12  2  0  0  0  0
 11 31  1  0  0  0  0
 12 13  1  0  0  0  0
 13 14  1  0  0  0  0
 13 18  1  0  0  0  0
 14 15  1  0  0  0  0
 14 32  1  0  0  0  0
 14 33  1  0  0  0  0
 15 16  1  0  0  0  0
 15 17  2  0  0  0  0
 16 34  1  0  0  0  0
 16 35  1  0  0  0  0
 18 36  1  0  0  0  0
 19 20  1  0  0  0  0
 19 37  1  0  0  0  0
 19 38  1  0  0  0  0
 20 39  1  0  0  0  0
 20 40  1  0  0  0  0
M  CHG  1   3   1
M  END
> <s_m_source_file>
AV-unprocessed.smi

> <i_m_source_file_index>
1499

> <i_lp_mmshare_version>
43012

> <i_f3d_flags>
0

> <s_epik_input>
W0NIM11bQ0gyXU4xW0NIMl1bQ0gyXU4oW0NIMl1bQ0gyXTEpQyg9TylbTkhdYzJbY0hdbm4oW2NIXTIpW0NIMl1DKD1PKVtOSDJd

> <s_epik_cmdline>
J2VwaWtfcHl0aG9uJywgJy1waCcsICc3LjAnLCAnLXRuJywgJzgnLCAnLW1hJywgJzIwMCcsICctbWV0YWxfYmluZGluZycsICctaW1hZScsICc8aW5maWxlLm1hZT4nLCAnLW9tYWUnLCAnPG91dGZpbGUubWFlPic=

> <r_lp_tautomer_probability>
1

> <r_epik_Ionization_Penalty>
0.390351

> <r_epik_Ionization_Penalty_Charging>
0.390326

> <r_epik_Ionization_Penalty_Neutral>
2.46507e-05

> <r_epik_State_Penalty>
0.388987

> <r_epik_Charging_Adjusted_Penalty>
0.779313

> <i_epik_Tot_Q>
1

> <i_epik_Tot_abs_Q>
1

> <r_epik_Metal_State_Penalty>
0.388988

> <b_epik_Metal_Only>
0

> <s_lp_Force_Field>
OPLS_2005

> <r_lp_Energy>
52.2824

> <b_lp_Chiralities_Consistent>
1

> <s_lp_Variant>
AV-unprocessed.smi:1499-1

> <Gold.Version>
5.8.1

> <Gold.Id.Protein>
6NUR|6NUR_protein|mol2

> <Gold.PLP.Fitness>
42.7623

> <Gold.PLP.PLP>
-32.7798

> <Gold.PLP.part.hbond>
-2.0000

> <Gold.PLP.part.metal>
0.0000

> <Gold.PLP.part.buried>
-4.9255

> <Gold.PLP.part.nonpolar>
-26.2271

> <Gold.PLP.part.repulsive>
0.2438

> <Gold.PLP.ligand.clash>
0.0000

> <Gold.PLP.ligand.torsion>
1.0207

> <Gold.PLP.Chemscore.Hbond>
1.9760

> <Gold.PLP.Chemscore.CHOScore>
2.0000

> <Gold.PLP.Chemscore.Metal>
0.0000

> <Gold.Chemscore.Hbonds>
donor molecule, donor type, donor heavy atom, donor atom, acceptor molecule, acceptor atom, score
      L1  H     3    41       P1 10747  1.00
      L1  H    16    35       P1 10175  1.00
      L1  C    11    31       P1 10957  1.00
      L1  C    18    36       P1 10171  1.00

> <Gold.PLP.Chemscore.Internal.Correction>
0.0958

> <Gold.Rescore>
     Score         DG    S(hbond)    S(metal)    S(lipo)     H(rot)  DE(clash)    DE(int)     intcor
     14.59     -15.66       1.98        0.00      70.88       1.85       0.05       1.02       ----

> <Gold.Chemscore.Fitness>
14.5931

> <Gold.Chemscore.DG>
-15.6585

> <Gold.Chemscore.ZeroCoef>
-5.4800

> <Gold.Chemscore.Hbond>
1.9849

> <Gold.Chemscore.Metal>
0.0000

> <Gold.Chemscore.Lipo>
70.8812

> <Gold.Chemscore.Internal_Hbond>
0.0000

> <Gold.Chemscore.DEClash>
0.0482

> <Gold.Chemscore.DEInternal>
1.0172

> <Gold.Chemscore.Rot>
1.8532

> <Gold.Chemscore.Internal.Correction>
   9.000000E+99

> <Gold.Chemscore.Hbonds>
donor molecule, donor type, donor heavy atom, donor atom, acceptor molecule, acceptor atom, score
      L1  H     3    41       P1 10747  1.00
      L1  H    16    35       P1 10175  0.85

> <Gold.Chemscore.Hbond.Weighted>
-6.6295

> <Gold.Chemscore.Metal.Weighted>
-0.0000

> <Gold.Chemscore.Lipo.Weighted>
-8.2931

> <Gold.Chemscore.Internal_Hbond.Weighted>
0.0000

> <Gold.Chemscore.DEClash.Weighted>
0.0482

> <Gold.Chemscore.DEInternal.Weighted>
1.0172

> <Gold.Chemscore.Rot.Weighted>
4.7441

> <Gold.Chemscore.Internal.Correction.Weighted>
   9.000000E+99

> <Gold.Protein.RotatedTorsions>
[ 6907 6896 6895 6894 ] final  -60.33 input  -60.11 | X-H torsion
[ 7974 7965 7964 7962 ] final -139.70 input  175.53 | X-H torsion
[ 8008 7997 7996 7995 ] final   63.10 input   59.86 | X-H torsion
[ 10167 10162 10161 10158 ] final  135.04 input  -65.29 | X-H torsion
[ 10718 10713 10712 10709 ] final  -39.74 input   66.30 | X-H torsion
[ 10763 10752 10751 10750 ] final -176.13 input  -60.55 | X-H torsion
[ 11005 11000 10999 10996 ] final  -58.41 input  -57.11 | X-H torsion

> <Gold.Protein.ActiveResidues>
 VAL166  LYS551  ARG553  GLY616  TRP617  ASP618  TYR619  PRO620  LYS621  CYS622 
 ASP623  PHE694  ASN695  SER759  ASP760  ASP761  ALA762  ILE779  LEU786  VAL792 
 PHE793  MET794  SER795  GLU796  ALA797  LYS798  CYS799  TRP800  GLU811  SER814 

> <Gold.Protein.RotatedAtoms>
  150.7864  134.6851  159.6465 H   0  0  0  0  0  0  0  0  0  0  0  0  # atno 6907 bound_to 6896
  152.3961  134.6360  160.0097 H   0  0  0  0  0  0  0  0  0  0  0  0  # atno 6908 bound_to 6896
  151.6645  133.3279  159.3218 H   0  0  0  0  0  0  0  0  0  0  0  0  # atno 6909 bound_to 6896
  144.8656  140.6287  143.5300 H   0  0  0  0  0  0  0  0  0  0  0  0  # atno 7974 bound_to 7965
  155.6249  140.3496  155.4664 H   0  0  0  0  0  0  0  0  0  0  0  0  # atno 8008 bound_to 7997
  156.0050  140.1221  157.0534 H   0  0  0  0  0  0  0  0  0  0  0  0  # atno 8009 bound_to 7997
  154.4261  140.1093  156.5735 H   0  0  0  0  0  0  0  0  0  0  0  0  # atno 8010 bound_to 7997
  139.5233  144.6537  151.5225 H   0  0  0  0  0  0  0  0  0  0  0  0  # atno 10167 bound_to 10162
  156.2890  130.4226  149.8258 H   0  0  0  0  0  0  0  0  0  0  0  0  # atno 10718 bound_to 10713
  154.5761  135.2832  155.0779 H   0  0  0  0  0  0  0  0  0  0  0  0  # atno 10763 bound_to 10752
  154.2133  135.6404  153.5126 H   0  0  0  0  0  0  0  0  0  0  0  0  # atno 10764 bound_to 10752
  153.0073  135.5497  154.6400 H   0  0  0  0  0  0  0  0  0  0  0  0  # atno 10765 bound_to 10752
  141.1206  133.6612  156.4916 H   0  0  0  0  0  0  0  0  0  0  0  0  # atno 11005 bound_to 11000
  145.4229  139.1561  143.4064 LP  0  0  0  0  0  0  0  0  0  0  0  0  # atno 17320 bound_to 7965
  146.2893  140.4340  142.8746 LP  0  0  0  0  0  0  0  0  0  0  0  0  # atno 17321 bound_to 7965
  140.6353  143.8995  150.6642 LP  0  0  0  0  0  0  0  0  0  0  0  0  # atno 17342 bound_to 10162
  140.2313  143.3734  152.1563 LP  0  0  0  0  0  0  0  0  0  0  0  0  # atno 17343 bound_to 10162
  156.5677  130.8411  151.3347 LP  0  0  0  0  0  0  0  0  0  0  0  0  # atno 17370 bound_to 10713
  157.7337  130.9734  150.1991 LP  0  0  0  0  0  0  0  0  0  0  0  0  # atno 17371 bound_to 10713
  140.4518  134.6921  157.5043 LP  0  0  0  0  0  0  0  0  0  0  0  0  # atno 17394 bound_to 11000
  140.0160  134.6618  155.9309 LP  0  0  0  0  0  0  0  0  0  0  0  0  # atno 17395 bound_to 11000

$$$$
