AV-unprocessed.smi:2310|AV-procd|sdf|9255|dock8
  -GOLD-   2272012473D 1   1.00000     0.00000
 Structure written by MMmdl.
 45 46  0  0  0  0  0  0  0  0  1 V2000
  147.5287  133.7736  153.7187 C   0  0  0  0  0  0  0  0  0  0  0  0
  149.0097  133.4544  153.4676 C   0  0  0  0  0  0  0  0  0  0  0  0
  149.9469  133.9495  154.5846 C   0  0  2  0  0  0  0  0  0  0  0  0
  149.4793  133.4609  155.9646 C   0  0  0  0  0  0  0  0  0  0  0  0
  150.5775  132.9732  156.8147 C   0  0  0  0  0  0  0  0  0  0  0  0
  151.4405  132.5894  157.4825 N   0  0  0  0  0  0  0  0  0  0  0  0
  150.0107  135.4110  154.5715 N   0  0  0  0  0  0  0  0  0  0  0  0
  150.5004  136.1853  155.5507 C   0  0  0  0  0  0  0  0  0  0  0  0
  150.9540  135.7456  156.6067 O   0  0  0  0  0  0  0  0  0  0  0  0
  150.4454  137.4838  155.2097 N   0  0  0  0  0  0  0  0  0  0  0  0
  150.8978  138.6124  155.9486 C   0  0  0  0  0  0  0  0  0  0  0  0
  151.7496  138.5147  157.0739 C   0  0  0  0  0  0  0  0  0  0  0  0
  152.1277  139.6882  157.7531 C   0  0  0  0  0  0  0  0  0  0  0  0
  151.6350  140.9346  157.3019 C   0  0  0  0  0  0  0  0  0  0  0  0
  151.9910  142.1352  157.9482 N   0  0  0  0  0  0  0  0  0  0  0  0
  152.5821  142.1460  159.2793 C   0  0  0  0  0  0  0  0  0  0  0  0
  152.2100  143.5039  159.8866 C   0  0  0  0  0  0  0  0  0  0  0  0
  151.8838  144.3793  158.6765 C   0  0  0  0  0  0  0  0  0  0  0  0
  151.2958  143.3843  157.6776 C   0  0  0  0  0  0  0  0  0  0  0  0
  150.8131  141.0269  156.2305 N   0  0  0  0  0  0  0  0  0  0  0  0
  150.4502  139.9019  155.5774 C   0  0  0  0  0  0  0  0  0  0  0  0
  149.5237  140.1091  154.3925 C   0  0  0  0  0  0  0  0  0  0  0  0
  146.9160  133.4548  152.8754 H   0  0  0  0  0  0  0  0  0  0  0  0
  147.3758  134.8447  153.8539 H   0  0  0  0  0  0  0  0  0  0  0  0
  147.1535  133.2663  154.6079 H   0  0  0  0  0  0  0  0  0  0  0  0
  149.1300  132.3785  153.3340 H   0  0  0  0  0  0  0  0  0  0  0  0
  149.3086  133.9114  152.5236 H   0  0  0  0  0  0  0  0  0  0  0  0
  150.9343  133.5230  154.3987 H   0  0  0  0  0  0  0  0  0  0  0  0
  148.9628  134.2570  156.5015 H   0  0  0  0  0  0  0  0  0  0  0  0
  148.7717  132.6390  155.8533 H   0  0  0  0  0  0  0  0  0  0  0  0
  149.6641  135.8684  153.7410 H   0  0  0  0  0  0  0  0  0  0  0  0
  150.1199  137.6825  154.2753 H   0  0  0  0  0  0  0  0  0  0  0  0
  152.1102  137.5647  157.4367 H   0  0  0  0  0  0  0  0  0  0  0  0
  152.7880  139.6145  158.6042 H   0  0  0  0  0  0  0  0  0  0  0  0
  152.2157  141.3289  159.9018 H   0  0  0  0  0  0  0  0  0  0  0  0
  153.6638  142.0474  159.1840 H   0  0  0  0  0  0  0  0  0  0  0  0
  151.3185  143.3949  160.5056 H   0  0  0  0  0  0  0  0  0  0  0  0
  153.0014  143.9193  160.5109 H   0  0  0  0  0  0  0  0  0  0  0  0
  151.2023  145.1976  158.9109 H   0  0  0  0  0  0  0  0  0  0  0  0
  152.8022  144.8089  158.2744 H   0  0  0  0  0  0  0  0  0  0  0  0
  151.4419  143.7132  156.6481 H   0  0  0  0  0  0  0  0  0  0  0  0
  150.2270  143.2509  157.8507 H   0  0  0  0  0  0  0  0  0  0  0  0
  149.9871  139.7345  153.4794 H   0  0  0  0  0  0  0  0  0  0  0  0
  149.2924  141.1648  154.2443 H   0  0  0  0  0  0  0  0  0  0  0  0
  148.5843  139.5777  154.5471 H   0  0  0  0  0  0  0  0  0  0  0  0
  1  2  1  0  0  0  0
  1 23  1  0  0  0  0
  1 24  1  0  0  0  0
  1 25  1  0  0  0  0
  2  3  1  0  0  0  0
  2 26  1  0  0  0  0
  2 27  1  0  0  0  0
  3  4  1  0  0  0  0
  3  7  1  0  0  0  0
  3 28  1  0  0  0  0
  4  5  1  0  0  0  0
  4 29  1  0  0  0  0
  4 30  1  0  0  0  0
  5  6  3  0  0  0  0
  7  8  1  0  0  0  0
  7 31  1  0  0  0  0
  8  9  2  0  0  0  0
  8 10  1  0  0  0  0
 10 11  1  0  0  0  0
 10 32  1  0  0  0  0
 11 21  1  0  0  0  0
 11 12  2  0  0  0  0
 12 13  1  0  0  0  0
 12 33  1  0  0  0  0
 13 14  2  0  0  0  0
 13 34  1  0  0  0  0
 14 15  1  0  0  0  0
 14 20  1  0  0  0  0
 15 19  1  0  0  0  0
 15 16  1  0  0  0  0
 16 17  1  0  0  0  0
 16 35  1  0  0  0  0
 16 36  1  0  0  0  0
 17 18  1  0  0  0  0
 17 37  1  0  0  0  0
 17 38  1  0  0  0  0
 18 19  1  0  0  0  0
 18 39  1  0  0  0  0
 18 40  1  0  0  0  0
 19 41  1  0  0  0  0
 19 42  1  0  0  0  0
 20 21  2  0  0  0  0
 21 22  1  0  0  0  0
 22 43  1  0  0  0  0
 22 44  1  0  0  0  0
 22 45  1  0  0  0  0
M  END
> <s_m_source_file>
AV-unprocessed.smi

> <i_m_source_file_index>
2310

> <i_lp_mmshare_version>
43012

> <i_f3d_flags>
0

> <s_epik_input>
TiNDW0NIMl1bQ0BASF0oW0NIMl1bQ0gzXSlbTkhdQyg9TylbTkhdYzFbY0hdW2NIXWMobmMxW0NIM10pTjJbQ0gyXVtDSDJdW0NIMl1bQ0gyXTI=

> <s_epik_cmdline>
J2VwaWtfcHl0aG9uJywgJy1waCcsICc3LjAnLCAnLXRuJywgJzgnLCAnLW1hJywgJzIwMCcsICctbWV0YWxfYmluZGluZycsICctaW1hZScsICc8aW5maWxlLm1hZT4nLCAnLW9tYWUnLCAnPG91dGZpbGUubWFlPic=

> <r_lp_tautomer_probability>
1

> <r_epik_Ionization_Penalty>
0.281354

> <r_epik_Ionization_Penalty_Charging>
0

> <r_epik_Ionization_Penalty_Neutral>
0.281354

> <r_epik_State_Penalty>
0.273364

> <r_epik_Charging_Adjusted_Penalty>
0.273364

> <i_epik_Tot_Q>
0

> <i_epik_Tot_abs_Q>
0

> <r_epik_Metal_State_Penalty>
0.18752

> <b_epik_Metal_Only>
0

> <s_lp_Force_Field>
OPLS_2005

> <r_lp_Energy>
30.6963

> <b_lp_Chiralities_Consistent>
1

> <s_lp_Variant>
AV-unprocessed.smi:2310-1

> <Gold.Version>
5.8.1

> <Gold.Id.Protein>
6NUR|6NUR_protein|mol2

> <Gold.PLP.Fitness>
41.8322

> <Gold.PLP.PLP>
-37.5868

> <Gold.PLP.part.hbond>
-2.0520

> <Gold.PLP.part.metal>
0.0000

> <Gold.PLP.part.buried>
-4.3693

> <Gold.PLP.part.nonpolar>
-31.2807

> <Gold.PLP.part.repulsive>
0.1448

> <Gold.PLP.ligand.clash>
0.0000

> <Gold.PLP.ligand.torsion>
0.9815

> <Gold.PLP.Chemscore.Hbond>
2.0000

> <Gold.PLP.Chemscore.CHOScore>
0.0000

> <Gold.PLP.Chemscore.Metal>
0.0000

> <Gold.Chemscore.Hbonds>
donor molecule, donor type, donor heavy atom, donor atom, acceptor molecule, acceptor atom, score
      L1  H     7    31       P1  7948  1.00
      P1  H  6896  6907       L1     6  1.00

> <Gold.PLP.Chemscore.Internal.Correction>
0.2085

> <Gold.Rescore>
     Score         DG    S(hbond)    S(metal)    S(lipo)     H(rot)  DE(clash)    DE(int)     intcor
     13.55     -18.47       1.73        0.00      93.28       1.45       0.09       4.83       ----

> <Gold.Chemscore.Fitness>
13.5476

> <Gold.Chemscore.DG>
-18.4671

> <Gold.Chemscore.ZeroCoef>
-5.4800

> <Gold.Chemscore.Hbond>
1.7316

> <Gold.Chemscore.Metal>
0.0000

> <Gold.Chemscore.Lipo>
93.2780

> <Gold.Chemscore.Internal_Hbond>
0.0000

> <Gold.Chemscore.DEClash>
0.0910

> <Gold.Chemscore.DEInternal>
4.8284

> <Gold.Chemscore.Rot>
1.4492

> <Gold.Chemscore.Internal.Correction>
   9.000000E+99

> <Gold.Chemscore.Hbonds>
donor molecule, donor type, donor heavy atom, donor atom, acceptor molecule, acceptor atom, score
      L1  H     7    31       P1  7948  0.25
      P1  H  6896  6907       L1     6  0.62

> <Gold.Chemscore.Hbond.Weighted>
-5.7835

> <Gold.Chemscore.Metal.Weighted>
-0.0000

> <Gold.Chemscore.Lipo.Weighted>
-10.9135

> <Gold.Chemscore.Internal_Hbond.Weighted>
0.0000

> <Gold.Chemscore.DEClash.Weighted>
0.0910

> <Gold.Chemscore.DEInternal.Weighted>
4.8284

> <Gold.Chemscore.Rot.Weighted>
3.7100

> <Gold.Chemscore.Internal.Correction.Weighted>
   9.000000E+99

> <Gold.Protein.RotatedTorsions>
[ 6907 6896 6895 6894 ] final -153.79 input  -60.11 | X-H torsion
[ 7974 7965 7964 7962 ] final   22.21 input  175.53 | X-H torsion
[ 8008 7997 7996 7995 ] final -151.70 input   59.86 | X-H torsion
[ 10167 10162 10161 10158 ] final  171.96 input  -65.29 | X-H torsion
[ 10718 10713 10712 10709 ] final  -22.17 input   66.30 | X-H torsion
[ 10763 10752 10751 10750 ] final  -26.10 input  -60.55 | X-H torsion
[ 11005 11000 10999 10996 ] final  133.69 input  -57.11 | X-H torsion

> <Gold.Protein.ActiveResidues>
 VAL166  LYS551  ARG553  GLY616  TRP617  ASP618  TYR619  PRO620  LYS621  CYS622 
 ASP623  PHE694  ASN695  SER759  ASP760  ASP761  ALA762  ILE779  LEU786  VAL792 
 PHE793  MET794  SER795  GLU796  ALA797  LYS798  CYS799  TRP800  GLU811  SER814 

> <Gold.Protein.RotatedAtoms>
  151.2478  133.4366  159.2609 H   0  0  0  0  0  0  0  0  0  0  0  0  # atno 6907 bound_to 6896
  151.0645  134.9759  159.8287 H   0  0  0  0  0  0  0  0  0  0  0  0  # atno 6908 bound_to 6896
  152.5403  134.2427  159.8921 H   0  0  0  0  0  0  0  0  0  0  0  0  # atno 6909 bound_to 6896
  146.2039  139.7918  142.8741 H   0  0  0  0  0  0  0  0  0  0  0  0  # atno 7974 bound_to 7965
  155.6435  140.0704  157.2611 H   0  0  0  0  0  0  0  0  0  0  0  0  # atno 8008 bound_to 7997
  154.4178  140.1746  156.1647 H   0  0  0  0  0  0  0  0  0  0  0  0  # atno 8009 bound_to 7997
  155.9836  140.3351  155.6689 H   0  0  0  0  0  0  0  0  0  0  0  0  # atno 8010 bound_to 7997
  139.5062  144.3427  152.0002 H   0  0  0  0  0  0  0  0  0  0  0  0  # atno 10167 bound_to 10162
  156.5082  130.4604  149.6663 H   0  0  0  0  0  0  0  0  0  0  0  0  # atno 10718 bound_to 10713
  153.7105  135.6951  153.5039 H   0  0  0  0  0  0  0  0  0  0  0  0  # atno 10763 bound_to 10752
  153.2276  135.4348  155.0559 H   0  0  0  0  0  0  0  0  0  0  0  0  # atno 10764 bound_to 10752
  154.8316  135.3476  154.6641 H   0  0  0  0  0  0  0  0  0  0  0  0  # atno 10765 bound_to 10752
  139.9868  134.9529  156.9761 H   0  0  0  0  0  0  0  0  0  0  0  0  # atno 11005 bound_to 11000
  145.3390  141.0283  143.3403 LP  0  0  0  0  0  0  0  0  0  0  0  0  # atno 17320 bound_to 7965
  144.8745  139.4990  143.6752 LP  0  0  0  0  0  0  0  0  0  0  0  0  # atno 17321 bound_to 7965
  140.2864  144.3802  150.6102 LP  0  0  0  0  0  0  0  0  0  0  0  0  # atno 17342 bound_to 10162
  140.5979  143.2167  151.7128 LP  0  0  0  0  0  0  0  0  0  0  0  0  # atno 17343 bound_to 10162
  156.3266  130.7309  151.2231 LP  0  0  0  0  0  0  0  0  0  0  0  0  # atno 17370 bound_to 10713
  157.7454  131.0441  150.4777 LP  0  0  0  0  0  0  0  0  0  0  0  0  # atno 17371 bound_to 10713
  140.4987  134.1119  155.7246 LP  0  0  0  0  0  0  0  0  0  0  0  0  # atno 17394 bound_to 11000
  141.1531  133.8932  157.2047 LP  0  0  0  0  0  0  0  0  0  0  0  0  # atno 17395 bound_to 11000

$$$$
