AV-unprocessed.smi:910|AV-procd|sdf|4131|dock10
  -GOLD-   22720 2 33D 1   1.00000     0.00000
 Structure written by MMmdl.
 47 48  0  0  0  0  0  0  0  0  2 V2000
  149.5358  132.0415  152.9987 C   0  0  0  0  0  0  0  0  0  0  0  0
  149.9608  133.1005  153.9669 C   0  0  0  0  0  0  0  0  0  0  0  0
  149.8606  134.4667  153.8455 N   0  3  0  0  0  0  0  0  0  0  0  0
  150.3610  135.0481  154.9331 C   0  0  0  0  0  0  0  0  0  0  0  0
  150.4108  136.4466  155.1339 N   0  0  0  0  0  0  0  0  0  0  0  0
  151.4156  137.1172  155.7172 C   0  0  0  0  0  0  0  0  0  0  0  0
  152.4532  136.5993  156.1313 O   0  0  0  0  0  0  0  0  0  0  0  0
  151.1531  138.4302  155.7974 N   0  0  0  0  0  0  0  0  0  0  0  0
  152.0267  139.4252  156.4113 C   0  0  0  0  0  0  0  0  0  0  0  0
  152.2163  139.1593  157.9115 C   0  0  0  0  0  0  0  0  0  0  0  0
  152.9640  140.2225  158.4820 O   0  0  0  0  0  0  0  0  0  0  0  0
  152.2260  141.0582  159.3628 C   0  0  1  0  0  0  0  0  0  0  0  0
  153.0870  141.3633  160.6067 C   0  0  0  0  0  0  0  0  0  0  0  0
  152.4021  142.3785  161.5331 C   0  0  0  0  0  0  0  0  0  0  0  0
  152.0578  143.6693  160.7768 C   0  0  0  0  0  0  0  0  0  0  0  0
  151.1937  143.3710  159.5421 C   0  0  0  0  0  0  0  0  0  0  0  0
  151.8713  142.3547  158.6006 C   0  0  2  0  0  0  0  0  0  0  0  0
  150.9831  142.0714  157.3780 C   0  0  0  0  0  0  0  0  0  0  0  0
  150.8070  134.1119  155.8133 O   0  0  0  0  0  0  0  0  0  0  0  0
  150.5482  132.9041  155.1982 C   0  0  0  0  0  0  0  0  0  0  0  0
  150.9350  131.6688  155.9391 C   0  0  0  0  0  0  0  0  0  0  0  0
  150.3354  131.3207  152.8263 H   0  0  0  0  0  0  0  0  0  0  0  0
  149.2655  132.4705  152.0338 H   0  0  0  0  0  0  0  0  0  0  0  0
  148.6704  131.4930  153.3711 H   0  0  0  0  0  0  0  0  0  0  0  0
  149.4603  134.9208  153.0342 H   0  0  0  0  0  0  0  0  0  0  0  0
  150.2770  138.7682  155.4266 H   0  0  0  0  0  0  0  0  0  0  0  0
  152.9905  139.4722  155.9013 H   0  0  0  0  0  0  0  0  0  0  0  0
  151.5583  140.4001  156.2750 H   0  0  0  0  0  0  0  0  0  0  0  0
  151.2429  139.1063  158.4006 H   0  0  0  0  0  0  0  0  0  0  0  0
  152.7082  138.1980  158.0632 H   0  0  0  0  0  0  0  0  0  0  0  0
  151.2983  140.5679  159.6655 H   0  0  0  0  0  0  0  0  0  0  0  0
  153.2937  140.4503  161.1644 H   0  0  0  0  0  0  0  0  0  0  0  0
  154.0545  141.7564  160.2916 H   0  0  0  0  0  0  0  0  0  0  0  0
  151.4922  141.9412  161.9461 H   0  0  0  0  0  0  0  0  0  0  0  0
  153.0494  142.6052  162.3807 H   0  0  0  0  0  0  0  0  0  0  0  0
  151.5346  144.3598  161.4388 H   0  0  0  0  0  0  0  0  0  0  0  0
  152.9765  144.1707  160.4695 H   0  0  0  0  0  0  0  0  0  0  0  0
  150.2251  142.9857  159.8639 H   0  0  0  0  0  0  0  0  0  0  0  0
  150.9927  144.2992  159.0063 H   0  0  0  0  0  0  0  0  0  0  0  0
  152.7994  142.8007  158.2393 H   0  0  0  0  0  0  0  0  0  0  0  0
  150.0396  141.6102  157.6714 H   0  0  0  0  0  0  0  0  0  0  0  0
  151.4768  141.3993  156.6756 H   0  0  0  0  0  0  0  0  0  0  0  0
  150.7511  142.9908  156.8401 H   0  0  0  0  0  0  0  0  0  0  0  0
  150.2826  130.8359  155.6759 H   0  0  0  0  0  0  0  0  0  0  0  0
  150.8654  131.8221  157.0161 H   0  0  0  0  0  0  0  0  0  0  0  0
  151.9600  131.3831  155.7030 H   0  0  0  0  0  0  0  0  0  0  0  0
  149.6127  136.9779  154.8190 H   0  0  0  0  0  0  0  0  0  0  0  0
  1 22  1  0  0  0  0
  1 23  1  0  0  0  0
  1 24  1  0  0  0  0
  1  2  1  0  0  0  0
  2  3  1  0  0  0  0
  2 20  2  0  0  0  0
  3 25  1  0  0  0  0
  3  4  2  0  0  0  0
  4 19  1  0  0  0  0
  4  5  1  0  0  0  0
  5  6  1  0  0  0  0
  5 47  1  0  0  0  0
  6  8  1  0  0  0  0
  6  7  2  0  0  0  0
  8  9  1  0  0  0  0
  8 26  1  0  0  0  0
  9 10  1  0  0  0  0
  9 27  1  0  0  0  0
  9 28  1  0  0  0  0
 10 11  1  0  0  0  0
 10 29  1  0  0  0  0
 10 30  1  0  0  0  0
 11 12  1  0  0  0  0
 12 17  1  0  0  0  0
 12 13  1  0  0  0  0
 12 31  1  0  0  0  0
 13 14  1  0  0  0  0
 13 32  1  0  0  0  0
 13 33  1  0  0  0  0
 14 15  1  0  0  0  0
 14 34  1  0  0  0  0
 14 35  1  0  0  0  0
 15 16  1  0  0  0  0
 15 36  1  0  0  0  0
 15 37  1  0  0  0  0
 16 17  1  0  0  0  0
 16 38  1  0  0  0  0
 16 39  1  0  0  0  0
 17 18  1  0  0  0  0
 17 40  1  0  0  0  0
 18 41  1  0  0  0  0
 18 42  1  0  0  0  0
 18 43  1  0  0  0  0
 19 20  1  0  0  0  0
 20 21  1  0  0  0  0
 21 44  1  0  0  0  0
 21 45  1  0  0  0  0
 21 46  1  0  0  0  0
M  CHG  1   3   1
M  END
> <s_m_source_file>
AV-unprocessed.smi

> <i_m_source_file_index>
910

> <i_lp_mmshare_version>
43012

> <i_f3d_flags>
0

> <s_epik_input>
W0NIM11jMW5jKG9jMVtDSDNdKVtOSF1DKD1PKVtOSF1bQ0gyXVtDSDJdT1tDQEBIXTJbQ0gyXVtDSDJdW0NIMl1bQ0gyXVtDQEhdMltDSDNd

> <s_epik_cmdline>
J2VwaWtfcHl0aG9uJywgJy1waCcsICc3LjAnLCAnLXRuJywgJzgnLCAnLW1hJywgJzIwMCcsICctbWV0YWxfYmluZGluZycsICctaW1hZScsICc8aW5maWxlLm1hZT4nLCAnLW9tYWUnLCAnPG91dGZpbGUubWFlPic=

> <r_epik_Ionization_Penalty>
7.32931

> <r_epik_Ionization_Penalty_Charging>
7.12214

> <r_epik_Ionization_Penalty_Neutral>
0.207166

> <r_epik_State_Penalty>
2.61278

> <r_epik_Charging_Adjusted_Penalty>
9.73492

> <i_epik_Tot_Q>
1

> <i_epik_Tot_abs_Q>
1

> <r_epik_Metal_State_Penalty>
2.64585

> <b_epik_Metal_Only>
0

> <s_lp_Force_Field>
OPLS_2005

> <r_lp_Energy>
16.7683

> <b_lp_Chiralities_Consistent>
1

> <s_lp_Variant>
AV-unprocessed.smi:910-16

> <Gold.Version>
5.8.1

> <Gold.Id.Protein>
6NUR|6NUR_protein|mol2

> <Gold.PLP.Fitness>
49.3125

> <Gold.PLP.PLP>
-39.9644

> <Gold.PLP.part.hbond>
-3.0000

> <Gold.PLP.part.metal>
0.0000

> <Gold.PLP.part.buried>
-4.1117

> <Gold.PLP.part.nonpolar>
-32.5063

> <Gold.PLP.part.repulsive>
0.1476

> <Gold.PLP.ligand.clash>
0.0000

> <Gold.PLP.ligand.torsion>
1.2580

> <Gold.PLP.Chemscore.Hbond>
3.9440

> <Gold.PLP.Chemscore.CHOScore>
0.0000

> <Gold.PLP.Chemscore.Metal>
0.0000

> <Gold.Chemscore.Hbonds>
donor molecule, donor type, donor heavy atom, donor atom, acceptor molecule, acceptor atom, score
      L1  H     3    25       P1  7948  0.40
      P1  H  7997  8010       L1    11  0.41
      P1  H 10752 10763       L1     7  0.86

> <Gold.PLP.Chemscore.Internal.Correction>
0.0322

> <Gold.Rescore>
     Score         DG    S(hbond)    S(metal)    S(lipo)     H(rot)  DE(clash)    DE(int)     intcor
     20.21     -21.78       2.76        0.00      97.68       1.69       0.08       1.49       ----

> <Gold.Chemscore.Fitness>
20.2064

> <Gold.Chemscore.DG>
-21.7754

> <Gold.Chemscore.ZeroCoef>
-5.4800

> <Gold.Chemscore.Hbond>
2.7563

> <Gold.Chemscore.Metal>
0.0000

> <Gold.Chemscore.Lipo>
97.6775

> <Gold.Chemscore.Internal_Hbond>
0.0000

> <Gold.Chemscore.DEClash>
0.0818

> <Gold.Chemscore.DEInternal>
1.4872

> <Gold.Chemscore.Rot>
1.6949

> <Gold.Chemscore.Internal.Correction>
   9.000000E+99

> <Gold.Chemscore.Hbonds>
donor molecule, donor type, donor heavy atom, donor atom, acceptor molecule, acceptor atom, score
      P1  H  7997  8010       L1    11  0.04
      P1  H 10752 10763       L1     7  0.47

> <Gold.Chemscore.Hbond.Weighted>
-9.2061

> <Gold.Chemscore.Metal.Weighted>
-0.0000

> <Gold.Chemscore.Lipo.Weighted>
-11.4283

> <Gold.Chemscore.Internal_Hbond.Weighted>
0.0000

> <Gold.Chemscore.DEClash.Weighted>
0.0818

> <Gold.Chemscore.DEInternal.Weighted>
1.4872

> <Gold.Chemscore.Rot.Weighted>
4.3390

> <Gold.Chemscore.Internal.Correction.Weighted>
   9.000000E+99

> <Gold.Protein.RotatedTorsions>
[ 6907 6896 6895 6894 ] final -113.66 input  -60.11 | X-H torsion
[ 7974 7965 7964 7962 ] final   17.39 input  175.53 | X-H torsion
[ 8008 7997 7996 7995 ] final   35.10 input   59.86 | X-H torsion
[ 10167 10162 10161 10158 ] final  -29.33 input  -65.29 | X-H torsion
[ 10718 10713 10712 10709 ] final -125.85 input   66.30 | X-H torsion
[ 10763 10752 10751 10750 ] final   73.70 input  -60.55 | X-H torsion
[ 11005 11000 10999 10996 ] final  -44.71 input  -57.11 | X-H torsion

> <Gold.Protein.ActiveResidues>
 VAL166  LYS551  ARG553  GLY616  TRP617  ASP618  TYR619  PRO620  LYS621  CYS622 
 ASP623  PHE694  ASN695  SER759  ASP760  ASP761  ALA762  ILE779  LEU786  VAL792 
 PHE793  MET794  SER795  GLU796  ALA797  LYS798  CYS799  TRP800  GLU811  SER814 

> <Gold.Protein.RotatedAtoms>
  150.7845  133.8912  159.3313 H   0  0  0  0  0  0  0  0  0  0  0  0  # atno 6907 bound_to 6896
  151.6766  135.0966  160.0217 H   0  0  0  0  0  0  0  0  0  0  0  0  # atno 6908 bound_to 6896
  152.3906  133.6634  159.6270 H   0  0  0  0  0  0  0  0  0  0  0  0  # atno 6909 bound_to 6896
  146.2220  139.8610  142.8605 H   0  0  0  0  0  0  0  0  0  0  0  0  # atno 7974 bound_to 7965
  155.1656  140.3287  155.4403 H   0  0  0  0  0  0  0  0  0  0  0  0  # atno 8008 bound_to 7997
  156.2528  140.1952  156.6712 H   0  0  0  0  0  0  0  0  0  0  0  0  # atno 8009 bound_to 7997
  154.6374  140.0574  156.9791 H   0  0  0  0  0  0  0  0  0  0  0  0  # atno 8010 bound_to 7997
  140.7261  143.3937  151.1385 H   0  0  0  0  0  0  0  0  0  0  0  0  # atno 10167 bound_to 10162
  156.1713  130.6669  151.0183 H   0  0  0  0  0  0  0  0  0  0  0  0  # atno 10718 bound_to 10713
  153.0539  135.5053  154.7933 H   0  0  0  0  0  0  0  0  0  0  0  0  # atno 10763 bound_to 10752
  154.6774  135.2963  154.9662 H   0  0  0  0  0  0  0  0  0  0  0  0  # atno 10764 bound_to 10752
  154.0459  135.6710  153.4847 H   0  0  0  0  0  0  0  0  0  0  0  0  # atno 10765 bound_to 10752
  141.0468  133.6758  156.2911 H   0  0  0  0  0  0  0  0  0  0  0  0  # atno 11005 bound_to 11000
  145.2705  141.0107  143.3775 LP  0  0  0  0  0  0  0  0  0  0  0  0  # atno 17320 bound_to 7965
  144.9227  139.4392  143.6533 LP  0  0  0  0  0  0  0  0  0  0  0  0  # atno 17321 bound_to 7965
  139.7546  143.8727  152.3085 LP  0  0  0  0  0  0  0  0  0  0  0  0  # atno 17342 bound_to 10162
  139.8592  144.7126  150.9120 LP  0  0  0  0  0  0  0  0  0  0  0  0  # atno 17343 bound_to 10162
  157.6804  131.0839  150.7384 LP  0  0  0  0  0  0  0  0  0  0  0  0  # atno 17370 bound_to 10713
  156.7443  130.4749  149.5470 LP  0  0  0  0  0  0  0  0  0  0  0  0  # atno 17371 bound_to 10713
  140.6131  134.5438  157.5536 LP  0  0  0  0  0  0  0  0  0  0  0  0  # atno 17394 bound_to 11000
  139.9318  134.7949  156.0909 LP  0  0  0  0  0  0  0  0  0  0  0  0  # atno 17395 bound_to 11000

$$$$
