AV-unprocessed.smi:108|AV-procd|sdf|1030|dock6
  -GOLD-   2262018 33D 1   1.00000     0.00000
 Structure written by MMmdl.
 59 62  0  0  0  0  0  0  0  0  1 V2000
  149.1098  138.0399  159.7116 O   0  0  0  0  0  0  0  0  0  0  0  0
  149.7348  137.3254  158.9248 C   0  0  0  0  0  0  0  0  0  0  0  0
  151.1289  137.7796  158.4403 C   0  0  0  0  0  0  0  0  0  0  0  0
  151.4319  139.1928  158.7565 N   0  0  0  0  0  0  0  0  0  0  0  0
  152.4976  139.4735  159.6459 C   0  0  0  0  0  0  0  0  0  0  0  0
  153.1565  138.5689  160.1614 O   0  0  0  0  0  0  0  0  0  0  0  0
  152.7496  140.8870  159.8959 C   0  0  0  0  0  0  0  0  0  0  0  0
  153.7779  141.2508  160.6809 F   0  0  0  0  0  0  0  0  0  0  0  0
  151.9765  141.8405  159.3371 C   0  0  0  0  0  0  0  0  0  0  0  0
  150.8961  141.5529  158.5188 N   0  0  0  0  0  0  0  0  0  0  0  0
  150.0675  142.6348  157.8412 C   0  0  1  0  0  0  0  0  0  0  0  0
  149.5321  143.7112  158.7951 C   0  0  0  0  0  0  0  0  0  0  0  0
  150.5519  144.8389  158.6601 C   0  0  0  0  0  0  0  0  0  0  0  0
  151.5699  144.3259  157.6359 C   0  0  0  0  0  0  0  0  0  0  0  0
  150.8779  143.3053  156.9295 O   0  0  0  0  0  0  0  0  0  0  0  0
  150.6307  140.2070  158.1788 C   0  0  0  0  0  0  0  0  0  0  0  0
  149.7150  139.9216  157.4035 O   0  0  0  0  0  0  0  0  0  0  0  0
  149.2282  136.1553  158.4620 N   0  0  0  0  0  0  0  0  0  0  0  0
  150.0098  135.3000  157.5527 C   0  0  0  0  0  0  0  0  0  0  0  0
  149.3967  135.2074  156.1386 C   0  0  0  0  0  0  0  0  0  0  0  0
  149.7313  133.9136  155.4154 C   0  0  0  0  0  0  0  0  0  0  0  0
  150.7032  133.0359  155.9421 C   0  0  0  0  0  0  0  0  0  0  0  0
  150.9980  131.8281  155.2811 C   0  0  0  0  0  0  0  0  0  0  0  0
  150.3244  131.4944  154.0901 C   0  0  0  0  0  0  0  0  0  0  0  0
  149.3555  132.3688  153.5608 C   0  0  0  0  0  0  0  0  0  0  0  0
  149.0594  133.5767  154.2219 C   0  0  0  0  0  0  0  0  0  0  0  0
  147.8892  135.6500  158.8123 C   0  0  0  0  0  0  0  0  0  0  0  0
  147.6706  135.3788  160.2971 C   0  0  0  0  0  0  0  0  0  0  0  0
  147.8005  134.0806  160.8425 C   0  0  0  0  0  0  0  0  0  0  0  0
  147.5902  133.8633  162.2179 C   0  0  0  0  0  0  0  0  0  0  0  0
  147.2547  134.9407  163.0595 C   0  0  0  0  0  0  0  0  0  0  0  0
  147.1324  136.2372  162.5247 C   0  0  0  0  0  0  0  0  0  0  0  0
  147.3412  136.4546  161.1489 C   0  0  0  0  0  0  0  0  0  0  0  0
  151.8906  137.1258  158.8654 H   0  0  0  0  0  0  0  0  0  0  0  0
  151.1998  137.6110  157.3650 H   0  0  0  0  0  0  0  0  0  0  0  0
  152.2396  142.8656  159.5448 H   0  0  0  0  0  0  0  0  0  0  0  0
  149.2529  142.1072  157.3425 H   0  0  0  0  0  0  0  0  0  0  0  0
  148.5643  144.0468  158.4203 H   0  0  0  0  0  0  0  0  0  0  0  0
  149.3804  143.3411  159.8088 H   0  0  0  0  0  0  0  0  0  0  0  0
  150.0624  145.7418  158.2941 H   0  0  0  0  0  0  0  0  0  0  0  0
  151.0289  145.0816  159.6100 H   0  0  0  0  0  0  0  0  0  0  0  0
  151.9162  145.1099  156.9622 H   0  0  0  0  0  0  0  0  0  0  0  0
  152.4431  143.9014  158.1325 H   0  0  0  0  0  0  0  0  0  0  0  0
  151.0312  135.6743  157.4738 H   0  0  0  0  0  0  0  0  0  0  0  0
  150.1125  134.2997  157.9769 H   0  0  0  0  0  0  0  0  0  0  0  0
  148.3126  135.3062  156.2035 H   0  0  0  0  0  0  0  0  0  0  0  0
  149.7343  136.0478  155.5309 H   0  0  0  0  0  0  0  0  0  0  0  0
  151.2183  133.2824  156.8594 H   0  0  0  0  0  0  0  0  0  0  0  0
  151.7397  131.1570  155.6884 H   0  0  0  0  0  0  0  0  0  0  0  0
  150.5506  130.5677  153.5835 H   0  0  0  0  0  0  0  0  0  0  0  0
  148.8381  132.1124  152.6481 H   0  0  0  0  0  0  0  0  0  0  0  0
  148.3115  134.2412  153.8145 H   0  0  0  0  0  0  0  0  0  0  0  0
  147.1213  136.3557  158.4942 H   0  0  0  0  0  0  0  0  0  0  0  0
  147.6716  134.7472  158.2409 H   0  0  0  0  0  0  0  0  0  0  0  0
  148.0605  133.2408  160.2153 H   0  0  0  0  0  0  0  0  0  0  0  0
  147.6869  132.8685  162.6272 H   0  0  0  0  0  0  0  0  0  0  0  0
  147.0939  134.7734  164.1143 H   0  0  0  0  0  0  0  0  0  0  0  0
  146.8781  137.0655  163.1698 H   0  0  0  0  0  0  0  0  0  0  0  0
  147.2442  137.4529  160.7481 H   0  0  0  0  0  0  0  0  0  0  0  0
  1  2  2  0  0  0  0
  2  3  1  0  0  0  0
  2 18  1  0  0  0  0
  3  4  1  0  0  0  0
  3 34  1  0  0  0  0
  3 35  1  0  0  0  0
  4 16  1  0  0  0  0
  4  5  1  0  0  0  0
  5  6  2  0  0  0  0
  5  7  1  0  0  0  0
  7  8  1  0  0  0  0
  7  9  2  0  0  0  0
  9 10  1  0  0  0  0
  9 36  1  0  0  0  0
 10 11  1  0  0  0  0
 10 16  1  0  0  0  0
 11 15  1  0  0  0  0
 11 12  1  0  0  0  0
 11 37  1  0  0  0  0
 12 13  1  0  0  0  0
 12 38  1  0  0  0  0
 12 39  1  0  0  0  0
 13 14  1  0  0  0  0
 13 40  1  0  0  0  0
 13 41  1  0  0  0  0
 14 15  1  0  0  0  0
 14 42  1  0  0  0  0
 14 43  1  0  0  0  0
 16 17  2  0  0  0  0
 18 19  1  0  0  0  0
 18 27  1  0  0  0  0
 19 20  1  0  0  0  0
 19 44  1  0  0  0  0
 19 45  1  0  0  0  0
 20 21  1  0  0  0  0
 20 46  1  0  0  0  0
 20 47  1  0  0  0  0
 21 26  1  0  0  0  0
 21 22  2  0  0  0  0
 22 23  1  0  0  0  0
 22 48  1  0  0  0  0
 23 24  2  0  0  0  0
 23 49  1  0  0  0  0
 24 25  1  0  0  0  0
 24 50  1  0  0  0  0
 25 26  2  0  0  0  0
 25 51  1  0  0  0  0
 26 52  1  0  0  0  0
 27 28  1  0  0  0  0
 27 53  1  0  0  0  0
 27 54  1  0  0  0  0
 28 33  1  0  0  0  0
 28 29  2  0  0  0  0
 29 30  1  0  0  0  0
 29 55  1  0  0  0  0
 30 31  2  0  0  0  0
 30 56  1  0  0  0  0
 31 32  1  0  0  0  0
 31 57  1  0  0  0  0
 32 33  2  0  0  0  0
 32 58  1  0  0  0  0
 33 59  1  0  0  0  0
M  END
> <s_m_source_file>
AV-unprocessed.smi

> <i_m_source_file_index>
108

> <i_lp_mmshare_version>
43012

> <i_f3d_flags>
0

> <s_epik_input>
W2NIXTFbY0hdW2NIXVtjSF1bY0hdYzFbQ0gyXVtDSDJdTihbQ0gyXWMyW2NIXVtjSF1bY0hdW2NIXVtjSF0yKUMoPU8pW0NIMl1uM2MoPU8pYyhGKVtjSF1uKGMzPU8pW0NAQEhdNFtDSDJdW0NIMl1bQ0gyXU80

> <s_epik_cmdline>
J2VwaWtfcHl0aG9uJywgJy1waCcsICc3LjAnLCAnLXRuJywgJzgnLCAnLW1hJywgJzIwMCcsICctbWV0YWxfYmluZGluZycsICctaW1hZScsICc8aW5maWxlLm1hZT4nLCAnLW9tYWUnLCAnPG91dGZpbGUubWFlPic=

> <r_lp_tautomer_probability>
1

> <r_epik_Ionization_Penalty>
5.46209e-09

> <r_epik_Ionization_Penalty_Charging>
4.22697e-09

> <r_epik_Ionization_Penalty_Neutral>
1.23512e-09

> <r_epik_State_Penalty>
-0

> <r_epik_Charging_Adjusted_Penalty>
4.22697e-09

> <i_epik_Tot_Q>
0

> <i_epik_Tot_abs_Q>
0

> <r_epik_Metal_State_Penalty>
-0

> <b_epik_Metal_Only>
0

> <s_epik_Chemistry_Notes>
This compound contains an acetal/aminal-like group ( X-CH(R)-Y where X, Y are N, S, or O) that may be acid/base labile, releasing an aldehyde.

> <s_lp_Force_Field>
OPLS_2005

> <r_lp_Energy>
38.0932

> <b_lp_Chiralities_Consistent>
1

> <s_lp_Variant>
AV-unprocessed.smi:108-2

> <Gold.Version>
5.8.1

> <Gold.Id.Protein>
6NUR|6NUR_protein|mol2

> <Gold.PLP.Fitness>
59.6946

> <Gold.PLP.PLP>
-61.4190

> <Gold.PLP.part.hbond>
-1.6664

> <Gold.PLP.part.metal>
0.0000

> <Gold.PLP.part.buried>
-4.7621

> <Gold.PLP.part.nonpolar>
-56.0025

> <Gold.PLP.part.repulsive>
0.1313

> <Gold.PLP.ligand.clash>
0.0000

> <Gold.PLP.ligand.torsion>
0.9837

> <Gold.PLP.Chemscore.Hbond>
0.0000

> <Gold.PLP.Chemscore.CHOScore>
0.0000

> <Gold.PLP.Chemscore.Metal>
0.0000

> <Gold.Chemscore.Hbonds>
donor molecule, donor type, donor heavy atom, donor atom, acceptor molecule, acceptor atom, score
      P1  H  6931  6943       L1     1  0.02

> <Gold.PLP.Chemscore.Internal.Correction>
0.2430

> <Gold.Rescore>
     Score         DG    S(hbond)    S(metal)    S(lipo)     H(rot)  DE(clash)    DE(int)     intcor
     12.10     -15.24       0.17        0.00     128.37       2.28       0.04       3.10       ----

> <Gold.Chemscore.Fitness>
12.0976

> <Gold.Chemscore.DG>
-15.2385

> <Gold.Chemscore.ZeroCoef>
-5.4800

> <Gold.Chemscore.Hbond>
0.1690

> <Gold.Chemscore.Metal>
0.0000

> <Gold.Chemscore.Lipo>
128.3719

> <Gold.Chemscore.Internal_Hbond>
0.0000

> <Gold.Chemscore.DEClash>
0.0378

> <Gold.Chemscore.DEInternal>
3.1031

> <Gold.Chemscore.Rot>
2.2756

> <Gold.Chemscore.Internal.Correction>
   9.000000E+99

> <Gold.Chemscore.Hbonds>
donor molecule, donor type, donor heavy atom, donor atom, acceptor molecule, acceptor atom, score
      P1  H  6931  6943       L1     1  0.04

> <Gold.Chemscore.Hbond.Weighted>
-0.5645

> <Gold.Chemscore.Metal.Weighted>
-0.0000

> <Gold.Chemscore.Lipo.Weighted>
-15.0195

> <Gold.Chemscore.Internal_Hbond.Weighted>
0.0000

> <Gold.Chemscore.DEClash.Weighted>
0.0378

> <Gold.Chemscore.DEInternal.Weighted>
3.1031

> <Gold.Chemscore.Rot.Weighted>
5.8255

> <Gold.Chemscore.Internal.Correction.Weighted>
   9.000000E+99

> <Gold.Protein.RotatedTorsions>
[ 6907 6896 6895 6894 ] final   12.90 input  -60.11 | X-H torsion
[ 7974 7965 7964 7962 ] final  -42.05 input  175.53 | X-H torsion
[ 8008 7997 7996 7995 ] final  -43.22 input   59.86 | X-H torsion
[ 10167 10162 10161 10158 ] final   25.26 input  -65.29 | X-H torsion
[ 10718 10713 10712 10709 ] final  -59.51 input   66.30 | X-H torsion
[ 10763 10752 10751 10750 ] final  159.59 input  -60.55 | X-H torsion
[ 11005 11000 10999 10996 ] final   36.03 input  -57.11 | X-H torsion

> <Gold.Protein.ActiveResidues>
 VAL166  LYS551  ARG553  GLY616  TRP617  ASP618  TYR619  PRO620  LYS621  CYS622 
 ASP623  PHE694  ASN695  SER759  ASP760  ASP761  ALA762  ILE779  LEU786  VAL792 
 PHE793  MET794  SER795  GLU796  ALA797  LYS798  CYS799  TRP800  GLU811  SER814 

> <Gold.Protein.RotatedAtoms>
  151.7777  135.0770  160.0368 H   0  0  0  0  0  0  0  0  0  0  0  0  # atno 6907 bound_to 6896
  152.3244  133.5885  159.5775 H   0  0  0  0  0  0  0  0  0  0  0  0  # atno 6908 bound_to 6896
  150.7387  133.9878  159.3639 H   0  0  0  0  0  0  0  0  0  0  0  0  # atno 6909 bound_to 6896
  146.0153  140.6915  142.9204 H   0  0  0  0  0  0  0  0  0  0  0  0  # atno 7974 bound_to 7965
  154.3997  140.1453  156.3483 H   0  0  0  0  0  0  0  0  0  0  0  0  # atno 8008 bound_to 7997
  155.8293  140.3466  155.5541 H   0  0  0  0  0  0  0  0  0  0  0  0  # atno 8009 bound_to 7997
  155.8205  140.0897  157.1842 H   0  0  0  0  0  0  0  0  0  0  0  0  # atno 8010 bound_to 7997
  140.5121  144.0143  150.6377 H   0  0  0  0  0  0  0  0  0  0  0  0  # atno 10167 bound_to 10162
  156.1057  130.4181  150.0725 H   0  0  0  0  0  0  0  0  0  0  0  0  # atno 10718 bound_to 10713
  154.2341  135.2777  155.2879 H   0  0  0  0  0  0  0  0  0  0  0  0  # atno 10763 bound_to 10752
  154.5600  135.5650  153.7002 H   0  0  0  0  0  0  0  0  0  0  0  0  # atno 10764 bound_to 10752
  153.0014  135.6295  154.2483 H   0  0  0  0  0  0  0  0  0  0  0  0  # atno 10765 bound_to 10752
  140.2367  134.3463  155.7942 H   0  0  0  0  0  0  0  0  0  0  0  0  # atno 11005 bound_to 11000
  144.6968  140.3470  143.7188 LP  0  0  0  0  0  0  0  0  0  0  0  0  # atno 17320 bound_to 7965
  145.7278  139.1727  143.2448 LP  0  0  0  0  0  0  0  0  0  0  0  0  # atno 17321 bound_to 7965
  140.3469  143.2986  152.0529 LP  0  0  0  0  0  0  0  0  0  0  0  0  # atno 17342 bound_to 10162
  139.4899  144.6402  151.6892 LP  0  0  0  0  0  0  0  0  0  0  0  0  # atno 17343 bound_to 10162
  156.8701  130.9521  151.3610 LP  0  0  0  0  0  0  0  0  0  0  0  0  # atno 17370 bound_to 10713
  157.6233  130.8672  149.9146 LP  0  0  0  0  0  0  0  0  0  0  0  0  # atno 17371 bound_to 10713
  141.2214  133.7275  156.8819 LP  0  0  0  0  0  0  0  0  0  0  0  0  # atno 17394 bound_to 11000
  140.1695  134.9110  157.2816 LP  0  0  0  0  0  0  0  0  0  0  0  0  # atno 17395 bound_to 11000

$$$$
