AV-unprocessed.smi:1702|AV-procd|sdf|6846|dock9
  -GOLD-   22720 8 23D 1   1.00000     0.00000
 Structure written by MMmdl.
 44 46  0  0  0  0  0  0  0  0  2 V2000
  144.9781  135.3440  151.5954 C   0  0  0  0  0  0  0  0  0  0  0  0
  145.4247  136.6728  152.2206 C   0  0  2  0  0  0  0  0  0  0  0  0
  146.2122  137.5358  151.2210 C   0  0  0  0  0  0  0  0  0  0  0  0
  146.6829  138.8499  151.8667 C   0  0  0  0  0  0  0  0  0  0  0  0
  147.4997  138.5906  153.0804 N   0  3  1  0  0  0  0  0  0  0  0  0
  148.0771  139.8378  153.6440 C   0  0  0  0  0  0  0  0  0  0  0  0
  149.3730  139.5929  154.4508 C   0  0  1  0  0  0  0  0  0  0  0  0
  150.4048  139.2096  153.5640 O   0  0  0  0  0  0  0  0  0  0  0  0
  149.8611  140.8413  155.2119 C   0  0  0  0  0  0  0  0  0  0  0  0
  150.5882  140.5070  156.4230 N   0  0  0  0  0  0  0  0  0  0  0  0
  150.8799  139.2722  156.8752 C   0  0  0  0  0  0  0  0  0  0  0  0
  151.5532  139.1858  158.0187 N   0  0  0  0  0  0  0  0  0  0  0  0
  151.7262  140.5200  158.3441 C   0  0  0  0  0  0  0  0  0  0  0  0
  152.3672  141.1182  159.4521 C   0  0  0  0  0  0  0  0  0  0  0  0
  152.4148  142.5222  159.5783 C   0  0  0  0  0  0  0  0  0  0  0  0
  153.0310  143.0792  160.6477 F   0  0  0  0  0  0  0  0  0  0  0  0
  151.8231  143.3478  158.5991 C   0  0  0  0  0  0  0  0  0  0  0  0
  151.8700  144.6947  158.7291 F   0  0  0  0  0  0  0  0  0  0  0  0
  151.1801  142.7745  157.4854 C   0  0  0  0  0  0  0  0  0  0  0  0
  151.1349  141.3734  157.3642 C   0  0  0  0  0  0  0  0  0  0  0  0
  146.7458  137.7880  154.0803 C   0  0  0  0  0  0  0  0  0  0  0  0
  146.2786  136.4515  153.4802 C   0  0  0  0  0  0  0  0  0  0  0  0
  145.8335  134.7471  151.2777 H   0  0  0  0  0  0  0  0  0  0  0  0
  144.3476  135.5134  150.7220 H   0  0  0  0  0  0  0  0  0  0  0  0
  144.4031  134.7495  152.3059 H   0  0  0  0  0  0  0  0  0  0  0  0
  144.5268  137.2211  152.5101 H   0  0  0  0  0  0  0  0  0  0  0  0
  147.0767  136.9813  150.8525 H   0  0  0  0  0  0  0  0  0  0  0  0
  145.5938  137.7568  150.3502 H   0  0  0  0  0  0  0  0  0  0  0  0
  147.2701  139.4120  151.1396 H   0  0  0  0  0  0  0  0  0  0  0  0
  145.8245  139.4703  152.1296 H   0  0  0  0  0  0  0  0  0  0  0  0
  148.3033  140.5391  152.8392 H   0  0  0  0  0  0  0  0  0  0  0  0
  147.3158  140.3206  154.2576 H   0  0  0  0  0  0  0  0  0  0  0  0
  149.2336  138.7881  155.1716 H   0  0  0  0  0  0  0  0  0  0  0  0
  150.0657  139.1977  152.6821 H   0  0  0  0  0  0  0  0  0  0  0  0
  150.5185  141.4379  154.5772 H   0  0  0  0  0  0  0  0  0  0  0  0
  149.0196  141.4833  155.4756 H   0  0  0  0  0  0  0  0  0  0  0  0
  150.5757  138.3864  156.3366 H   0  0  0  0  0  0  0  0  0  0  0  0
  152.8231  140.4962  160.2081 H   0  0  0  0  0  0  0  0  0  0  0  0
  150.7268  143.4057  156.7358 H   0  0  0  0  0  0  0  0  0  0  0  0
  147.3655  137.5832  154.9522 H   0  0  0  0  0  0  0  0  0  0  0  0
  145.8859  138.3590  154.4341 H   0  0  0  0  0  0  0  0  0  0  0  0
  145.7073  135.8959  154.2248 H   0  0  0  0  0  0  0  0  0  0  0  0
  147.1476  135.8381  153.2372 H   0  0  0  0  0  0  0  0  0  0  0  0
  148.2805  138.0276  152.7747 H   0  0  0  0  0  0  0  0  0  0  0  0
  1  2  1  0  0  0  0
  1 23  1  0  0  0  0
  1 24  1  0  0  0  0
  1 25  1  0  0  0  0
  2 22  1  0  0  0  0
  2  3  1  0  0  0  0
  2 26  1  0  0  0  0
  3  4  1  0  0  0  0
  3 27  1  0  0  0  0
  3 28  1  0  0  0  0
  4  5  1  0  0  0  0
  4 29  1  0  0  0  0
  4 30  1  0  0  0  0
  5  6  1  0  0  0  0
  5 21  1  0  0  0  0
  5 44  1  0  0  0  0
  6  7  1  0  0  0  0
  6 31  1  0  0  0  0
  6 32  1  0  0  0  0
  7  8  1  0  0  0  0
  7  9  1  0  0  0  0
  7 33  1  0  0  0  0
  8 34  1  0  0  0  0
  9 10  1  0  0  0  0
  9 35  1  0  0  0  0
  9 36  1  0  0  0  0
 10 20  1  0  0  0  0
 10 11  1  0  0  0  0
 11 12  2  0  0  0  0
 11 37  1  0  0  0  0
 12 13  1  0  0  0  0
 13 20  2  0  0  0  0
 13 14  1  0  0  0  0
 14 15  2  0  0  0  0
 14 38  1  0  0  0  0
 15 16  1  0  0  0  0
 15 17  1  0  0  0  0
 17 18  1  0  0  0  0
 17 19  2  0  0  0  0
 19 20  1  0  0  0  0
 19 39  1  0  0  0  0
 21 22  1  0  0  0  0
 21 40  1  0  0  0  0
 21 41  1  0  0  0  0
 22 42  1  0  0  0  0
 22 43  1  0  0  0  0
M  CHG  1   5   1
M  END
> <s_m_source_file>
AV-unprocessed.smi

> <i_m_source_file_index>
1702

> <i_lp_mmshare_version>
43012

> <i_f3d_flags>
0

> <s_epik_input>
W0NIM11bQ0hdMVtDSDJdW0NIMl1OKFtDSDJdW0NIMl0xKVtDSDJdW0NASF0oW09IXSlbQ0gyXW4oW2NIXW4yKWMoYzIzKVtjSF1jKEYpYyhGKVtjSF0z

> <s_epik_cmdline>
J2VwaWtfcHl0aG9uJywgJy1waCcsICc3LjAnLCAnLXRuJywgJzgnLCAnLW1hJywgJzIwMCcsICctbWV0YWxfYmluZGluZycsICctaW1hZScsICc8aW5maWxlLm1hZT4nLCAnLW9tYWUnLCAnPG91dGZpbGUubWFlPic=

> <r_epik_Ionization_Penalty>
0.0135195

> <r_epik_Ionization_Penalty_Charging>
0.00181365

> <r_epik_Ionization_Penalty_Neutral>
0.0117059

> <r_epik_State_Penalty>
0.00902283

> <r_epik_Charging_Adjusted_Penalty>
0.0108365

> <i_epik_Tot_Q>
1

> <i_epik_Tot_abs_Q>
1

> <r_epik_Metal_State_Penalty>
9.09181e-06

> <b_epik_Metal_Only>
0

> <s_lp_Force_Field>
OPLS_2005

> <r_lp_Energy>
23.1307

> <b_lp_Chiralities_Consistent>
1

> <s_lp_Variant>
AV-unprocessed.smi:1702-2

> <Gold.Version>
5.8.1

> <Gold.Id.Protein>
6NUR|6NUR_protein|mol2

> <Gold.PLP.Fitness>
53.3586

> <Gold.PLP.PLP>
-43.4964

> <Gold.PLP.part.hbond>
-3.8314

> <Gold.PLP.part.metal>
0.0000

> <Gold.PLP.part.buried>
7.3452

> <Gold.PLP.part.nonpolar>
-46.0157

> <Gold.PLP.part.repulsive>
0.0437

> <Gold.PLP.ligand.clash>
0.0000

> <Gold.PLP.ligand.torsion>
0.6300

> <Gold.PLP.Chemscore.Hbond>
3.6972

> <Gold.PLP.Chemscore.CHOScore>
0.0000

> <Gold.PLP.Chemscore.Metal>
0.0000

> <Gold.Chemscore.Hbonds>
donor molecule, donor type, donor heavy atom, donor atom, acceptor molecule, acceptor atom, score
      L1  H     5    44       P1  7948  1.59
      L1  H     8    34       P1  7957  1.00
      P1  H  7989  7998       L1     8  0.84

> <Gold.PLP.Chemscore.Internal.Correction>
0.0306

> <Gold.Rescore>
     Score         DG    S(hbond)    S(metal)    S(lipo)     H(rot)  DE(clash)    DE(int)     intcor
     15.01     -17.42       1.65        0.00     104.61       2.26       1.95       0.47       ----

> <Gold.Chemscore.Fitness>
15.0126

> <Gold.Chemscore.DG>
-17.4245

> <Gold.Chemscore.ZeroCoef>
-5.4800

> <Gold.Chemscore.Hbond>
1.6454

> <Gold.Chemscore.Metal>
0.0000

> <Gold.Chemscore.Lipo>
104.6084

> <Gold.Chemscore.Internal_Hbond>
0.0000

> <Gold.Chemscore.DEClash>
1.9459

> <Gold.Chemscore.DEInternal>
0.4659

> <Gold.Chemscore.Rot>
2.2619

> <Gold.Chemscore.Internal.Correction>
   9.000000E+99

> <Gold.Chemscore.Hbonds>
donor molecule, donor type, donor heavy atom, donor atom, acceptor molecule, acceptor atom, score
      L1  H     5    44       P1  7948  0.75
      L1  H     8    34       P1  7957  0.79
      P1  H  7989  7998       L1     8  0.10

> <Gold.Chemscore.Hbond.Weighted>
-5.4957

> <Gold.Chemscore.Metal.Weighted>
-0.0000

> <Gold.Chemscore.Lipo.Weighted>
-12.2392

> <Gold.Chemscore.Internal_Hbond.Weighted>
0.0000

> <Gold.Chemscore.DEClash.Weighted>
1.9459

> <Gold.Chemscore.DEInternal.Weighted>
0.4659

> <Gold.Chemscore.Rot.Weighted>
5.7904

> <Gold.Chemscore.Internal.Correction.Weighted>
   9.000000E+99

> <Gold.Protein.RotatedTorsions>
[ 6907 6896 6895 6894 ] final  178.34 input  -60.11 | X-H torsion
[ 7974 7965 7964 7962 ] final   85.93 input  175.53 | X-H torsion
[ 8008 7997 7996 7995 ] final -157.24 input   59.86 | X-H torsion
[ 10167 10162 10161 10158 ] final  -78.08 input  -65.29 | X-H torsion
[ 10718 10713 10712 10709 ] final -144.16 input   66.30 | X-H torsion
[ 10763 10752 10751 10750 ] final  -12.29 input  -60.55 | X-H torsion
[ 11005 11000 10999 10996 ] final   28.12 input  -57.11 | X-H torsion

> <Gold.Protein.ActiveResidues>
 VAL166  LYS551  ARG553  GLY616  TRP617  ASP618  TYR619  PRO620  LYS621  CYS622 
 ASP623  PHE694  ASN695  SER759  ASP760  ASP761  ALA762  ILE779  LEU786  VAL792 
 PHE793  MET794  SER795  GLU796  ALA797  LYS798  CYS799  TRP800  GLU811  SER814 

> <Gold.Protein.RotatedAtoms>
  151.6894  133.3311  159.3238 H   0  0  0  0  0  0  0  0  0  0  0  0  # atno 6907 bound_to 6896
  150.7786  134.6711  159.6402 H   0  0  0  0  0  0  0  0  0  0  0  0  # atno 6908 bound_to 6896
  152.3836  134.6555  160.0186 H   0  0  0  0  0  0  0  0  0  0  0  0  # atno 6909 bound_to 6896
  145.5790  139.2323  143.2364 H   0  0  0  0  0  0  0  0  0  0  0  0  # atno 7974 bound_to 7965
  155.7295  140.0800  157.2295 H   0  0  0  0  0  0  0  0  0  0  0  0  # atno 8008 bound_to 7997
  154.4035  140.1598  156.2547 H   0  0  0  0  0  0  0  0  0  0  0  0  # atno 8009 bound_to 7997
  155.9122  140.3403  155.6110 H   0  0  0  0  0  0  0  0  0  0  0  0  # atno 8010 bound_to 7997
  140.4714  143.2426  151.8200 H   0  0  0  0  0  0  0  0  0  0  0  0  # atno 10167 bound_to 10162
  156.3668  130.7767  151.1942 H   0  0  0  0  0  0  0  0  0  0  0  0  # atno 10718 bound_to 10713
  153.4963  135.7017  153.5856 H   0  0  0  0  0  0  0  0  0  0  0  0  # atno 10763 bound_to 10752
  153.4007  135.3873  155.1985 H   0  0  0  0  0  0  0  0  0  0  0  0  # atno 10764 bound_to 10752
  154.8713  135.3880  154.4429 H   0  0  0  0  0  0  0  0  0  0  0  0  # atno 10765 bound_to 10752
  140.3190  134.2564  155.7720 H   0  0  0  0  0  0  0  0  0  0  0  0  # atno 11005 bound_to 11000
  146.1730  140.6616  142.9224 LP  0  0  0  0  0  0  0  0  0  0  0  0  # atno 17320 bound_to 7965
  144.7403  140.4923  143.6874 LP  0  0  0  0  0  0  0  0  0  0  0  0  # atno 17321 bound_to 7965
  139.4819  144.4888  151.9213 LP  0  0  0  0  0  0  0  0  0  0  0  0  # atno 17342 bound_to 10162
  140.3973  144.2539  150.5895 LP  0  0  0  0  0  0  0  0  0  0  0  0  # atno 17343 bound_to 10162
  157.7479  131.0384  150.4501 LP  0  0  0  0  0  0  0  0  0  0  0  0  # atno 17370 bound_to 10713
  156.4721  130.4055  149.6512 LP  0  0  0  0  0  0  0  0  0  0  0  0  # atno 17371 bound_to 10713
  141.2091  133.7759  157.0019 LP  0  0  0  0  0  0  0  0  0  0  0  0  # atno 17394 bound_to 11000
  140.0958  134.9565  157.1847 LP  0  0  0  0  0  0  0  0  0  0  0  0  # atno 17395 bound_to 11000

$$$$
