AV-unprocessed.smi:657|AV-procd|sdf|3223|dock4
  -GOLD-   22720 0163D 1   1.00000     0.00000
 Structure written by MMmdl.
 47 48  0  0  0  0  0  0  0  0  2 V2000
  148.7161  133.2244  153.6323 C   0  0  0  0  0  0  0  0  0  0  0  0
  147.5836  134.1516  154.1078 C   0  0  0  0  0  0  0  0  0  0  0  0
  146.6223  133.4246  155.0688 C   0  0  0  0  0  0  0  0  0  0  0  0
  146.8920  134.8188  152.9523 N   0  3  1  0  0  0  0  0  0  0  0  0
  146.2374  133.8487  152.0244 C   0  0  0  0  0  0  0  0  0  0  0  0
  145.7243  134.5290  150.7491 C   0  0  0  0  0  0  0  0  0  0  0  0
  144.7285  135.6331  151.1038 C   0  0  0  0  0  0  0  0  0  0  0  0
  145.4012  136.6329  152.0469 C   0  0  0  0  0  0  0  0  0  0  0  0
  145.9730  135.9525  153.3151 C   0  0  2  0  0  0  0  0  0  0  0  0
  146.6494  137.0504  154.1540 C   0  0  0  0  0  0  0  0  0  0  0  0
  146.1690  137.3890  155.2362 O   0  0  0  0  0  0  0  0  0  0  0  0
  147.7719  137.5824  153.6497 N   0  0  0  0  0  0  0  0  0  0  0  0
  148.5475  138.6312  154.2966 C   0  0  0  0  0  0  0  0  0  0  0  0
  150.0501  138.3492  154.1683 C   0  0  0  0  0  0  0  0  0  0  0  0
  150.8405  139.0890  155.2107 C   0  0  0  0  0  0  0  0  0  0  0  0
  152.2209  138.9416  155.5288 C   0  0  0  0  0  0  0  0  0  0  0  0
  152.6130  139.7457  156.5036 N   0  0  0  0  0  0  0  0  0  0  0  0
  151.5020  140.4328  156.8396 N   0  0  0  0  0  0  0  0  0  0  0  0
  151.5669  141.4226  157.8933 C   0  0  0  0  0  0  0  0  0  0  0  0
  150.4170  140.0568  156.0775 C   0  0  0  0  0  0  0  0  0  0  0  0
  149.3205  132.8917  154.4768 H   0  0  0  0  0  0  0  0  0  0  0  0
  149.3820  133.7395  152.9392 H   0  0  0  0  0  0  0  0  0  0  0  0
  148.3420  132.3283  153.1383 H   0  0  0  0  0  0  0  0  0  0  0  0
  148.0941  134.9084  154.6998 H   0  0  0  0  0  0  0  0  0  0  0  0
  147.1637  133.0479  155.9371 H   0  0  0  0  0  0  0  0  0  0  0  0
  146.1410  132.5674  154.5980 H   0  0  0  0  0  0  0  0  0  0  0  0
  145.8431  134.0889  155.4417 H   0  0  0  0  0  0  0  0  0  0  0  0
  146.9324  133.0625  151.7340 H   0  0  0  0  0  0  0  0  0  0  0  0
  145.4010  133.3609  152.5259 H   0  0  0  0  0  0  0  0  0  0  0  0
  146.5611  134.9447  150.1859 H   0  0  0  0  0  0  0  0  0  0  0  0
  145.2472  133.7936  150.1003 H   0  0  0  0  0  0  0  0  0  0  0  0
  144.3854  136.1378  150.2001 H   0  0  0  0  0  0  0  0  0  0  0  0
  143.8462  135.2044  151.5807 H   0  0  0  0  0  0  0  0  0  0  0  0
  146.1995  137.1438  151.5048 H   0  0  0  0  0  0  0  0  0  0  0  0
  144.6803  137.4038  152.3240 H   0  0  0  0  0  0  0  0  0  0  0  0
  145.1407  135.5390  153.8872 H   0  0  0  0  0  0  0  0  0  0  0  0
  148.1099  137.2435  152.7604 H   0  0  0  0  0  0  0  0  0  0  0  0
  148.3071  139.5921  153.8387 H   0  0  0  0  0  0  0  0  0  0  0  0
  148.2656  138.6943  155.3490 H   0  0  0  0  0  0  0  0  0  0  0  0
  150.2240  137.2757  154.2522 H   0  0  0  0  0  0  0  0  0  0  0  0
  150.3854  138.6263  153.1679 H   0  0  0  0  0  0  0  0  0  0  0  0
  152.9452  138.2761  155.0825 H   0  0  0  0  0  0  0  0  0  0  0  0
  150.6103  141.9383  157.9820 H   0  0  0  0  0  0  0  0  0  0  0  0
  152.3434  142.1540  157.6667 H   0  0  0  0  0  0  0  0  0  0  0  0
  151.7976  140.9366  158.8415 H   0  0  0  0  0  0  0  0  0  0  0  0
  149.4430  140.5041  156.2130 H   0  0  0  0  0  0  0  0  0  0  0  0
  147.6337  135.2518  152.4203 H   0  0  0  0  0  0  0  0  0  0  0  0
  1  2  1  0  0  0  0
  1 21  1  0  0  0  0
  1 22  1  0  0  0  0
  1 23  1  0  0  0  0
  2  3  1  0  0  0  0
  2  4  1  0  0  0  0
  2 24  1  0  0  0  0
  3 25  1  0  0  0  0
  3 26  1  0  0  0  0
  3 27  1  0  0  0  0
  4  9  1  0  0  0  0
  4  5  1  0  0  0  0
  4 47  1  0  0  0  0
  5  6  1  0  0  0  0
  5 28  1  0  0  0  0
  5 29  1  0  0  0  0
  6  7  1  0  0  0  0
  6 30  1  0  0  0  0
  6 31  1  0  0  0  0
  7  8  1  0  0  0  0
  7 32  1  0  0  0  0
  7 33  1  0  0  0  0
  8  9  1  0  0  0  0
  8 34  1  0  0  0  0
  8 35  1  0  0  0  0
  9 10  1  0  0  0  0
  9 36  1  0  0  0  0
 10 11  2  0  0  0  0
 10 12  1  0  0  0  0
 12 13  1  0  0  0  0
 12 37  1  0  0  0  0
 13 14  1  0  0  0  0
 13 38  1  0  0  0  0
 13 39  1  0  0  0  0
 14 15  1  0  0  0  0
 14 40  1  0  0  0  0
 14 41  1  0  0  0  0
 15 20  2  0  0  0  0
 15 16  1  0  0  0  0
 16 17  2  0  0  0  0
 16 42  1  0  0  0  0
 17 18  1  0  0  0  0
 18 19  1  0  0  0  0
 18 20  1  0  0  0  0
 19 43  1  0  0  0  0
 19 44  1  0  0  0  0
 19 45  1  0  0  0  0
 20 46  1  0  0  0  0
M  CHG  1   4   1
M  END
> <s_m_source_file>
AV-unprocessed.smi

> <i_m_source_file_index>
657

> <i_lp_mmshare_version>
43012

> <i_f3d_flags>
0

> <s_epik_input>
W0NIM11bQ0hdKFtDSDNdKU4xW0NIMl1bQ0gyXVtDSDJdW0NIMl1bQ0BIXTFDKD1PKVtOSF1bQ0gyXVtDSDJdYzJbY0hdbm4oW0NIM10pW2NIXTI=

> <s_epik_cmdline>
J2VwaWtfcHl0aG9uJywgJy1waCcsICc3LjAnLCAnLXRuJywgJzgnLCAnLW1hJywgJzIwMCcsICctbWV0YWxfYmluZGluZycsICctaW1hZScsICc8aW5maWxlLm1hZT4nLCAnLW9tYWUnLCAnPG91dGZpbGUubWFlPic=

> <r_lp_tautomer_probability>
1

> <r_epik_Ionization_Penalty>
0.0244317

> <r_epik_Ionization_Penalty_Charging>
0.0240236

> <r_epik_Ionization_Penalty_Neutral>
0.00040815

> <r_epik_State_Penalty>
0.0194773

> <r_epik_Charging_Adjusted_Penalty>
0.0435009

> <i_epik_Tot_Q>
1

> <i_epik_Tot_abs_Q>
1

> <r_epik_Metal_State_Penalty>
0.0361957

> <b_epik_Metal_Only>
0

> <s_lp_Force_Field>
OPLS_2005

> <r_lp_Energy>
18.4932

> <b_lp_Chiralities_Consistent>
1

> <s_lp_Variant>
AV-unprocessed.smi:657-4

> <Gold.Version>
5.8.1

> <Gold.Id.Protein>
6NUR|6NUR_protein|mol2

> <Gold.PLP.Fitness>
43.7558

> <Gold.PLP.PLP>
-32.5537

> <Gold.PLP.part.hbond>
-2.9339

> <Gold.PLP.part.metal>
0.0000

> <Gold.PLP.part.buried>
-2.0933

> <Gold.PLP.part.nonpolar>
-27.8528

> <Gold.PLP.part.repulsive>
0.0508

> <Gold.PLP.ligand.clash>
0.0000

> <Gold.PLP.ligand.torsion>
0.4717

> <Gold.PLP.Chemscore.Hbond>
4.0000

> <Gold.PLP.Chemscore.CHOScore>
0.0000

> <Gold.PLP.Chemscore.Metal>
0.0000

> <Gold.Chemscore.Hbonds>
donor molecule, donor type, donor heavy atom, donor atom, acceptor molecule, acceptor atom, score
      L1  H     4    47       P1  7948  2.00
      L1  H    12    37       P1  7948  1.00
      P1  H  7997  8008       L1    17  1.00

> <Gold.PLP.Chemscore.Internal.Correction>
0.1455

> <Gold.Rescore>
     Score         DG    S(hbond)    S(metal)    S(lipo)     H(rot)  DE(clash)    DE(int)     intcor
     19.47     -20.06       2.89        0.00      77.61       1.63       0.11       0.49       ----

> <Gold.Chemscore.Fitness>
19.4682

> <Gold.Chemscore.DG>
-20.0602

> <Gold.Chemscore.ZeroCoef>
-5.4800

> <Gold.Chemscore.Hbond>
2.8944

> <Gold.Chemscore.Metal>
0.0000

> <Gold.Chemscore.Lipo>
77.6092

> <Gold.Chemscore.Internal_Hbond>
0.0000

> <Gold.Chemscore.DEClash>
0.1062

> <Gold.Chemscore.DEInternal>
0.4858

> <Gold.Chemscore.Rot>
1.6279

> <Gold.Chemscore.Internal.Correction>
   9.000000E+99

> <Gold.Chemscore.Hbonds>
donor molecule, donor type, donor heavy atom, donor atom, acceptor molecule, acceptor atom, score
      L1  H     4    47       P1  7948  1.00
      L1  H    12    37       P1  7948  0.95
      P1  H  7997  8008       L1    17  0.92

> <Gold.Chemscore.Hbond.Weighted>
-9.6673

> <Gold.Chemscore.Metal.Weighted>
-0.0000

> <Gold.Chemscore.Lipo.Weighted>
-9.0803

> <Gold.Chemscore.Internal_Hbond.Weighted>
0.0000

> <Gold.Chemscore.DEClash.Weighted>
0.1062

> <Gold.Chemscore.DEInternal.Weighted>
0.4858

> <Gold.Chemscore.Rot.Weighted>
4.1673

> <Gold.Chemscore.Internal.Correction.Weighted>
   9.000000E+99

> <Gold.Protein.RotatedTorsions>
[ 6907 6896 6895 6894 ] final   49.70 input  -60.11 | X-H torsion
[ 7974 7965 7964 7962 ] final  -66.31 input  175.53 | X-H torsion
[ 8008 7997 7996 7995 ] final  -58.34 input   59.86 | X-H torsion
[ 10167 10162 10161 10158 ] final -168.85 input  -65.29 | X-H torsion
[ 10718 10713 10712 10709 ] final   72.28 input   66.30 | X-H torsion
[ 10763 10752 10751 10750 ] final -104.28 input  -60.55 | X-H torsion
[ 11005 11000 10999 10996 ] final   26.90 input  -57.11 | X-H torsion

> <Gold.Protein.ActiveResidues>
 VAL166  LYS551  ARG553  GLY616  TRP617  ASP618  TYR619  PRO620  LYS621  CYS622 
 ASP623  PHE694  ASN695  SER759  ASP760  ASP761  ALA762  ILE779  LEU786  VAL792 
 PHE793  MET794  SER795  GLU796  ALA797  LYS798  CYS799  TRP800  GLU811  SER814 

> <Gold.Protein.RotatedAtoms>
  152.2937  134.7691  160.0372 H   0  0  0  0  0  0  0  0  0  0  0  0  # atno 6907 bound_to 6896
  151.8229  133.3392  159.3597 H   0  0  0  0  0  0  0  0  0  0  0  0  # atno 6908 bound_to 6896
  150.7242  134.5486  159.5827 H   0  0  0  0  0  0  0  0  0  0  0  0  # atno 6909 bound_to 6896
  145.7434  140.8943  143.0518 H   0  0  0  0  0  0  0  0  0  0  0  0  # atno 7974 bound_to 7965
  154.4305  140.1086  156.5941 H   0  0  0  0  0  0  0  0  0  0  0  0  # atno 8008 bound_to 7997
  155.5980  140.3493  155.4567 H   0  0  0  0  0  0  0  0  0  0  0  0  # atno 8009 bound_to 7997
  156.0195  140.1236  157.0361 H   0  0  0  0  0  0  0  0  0  0  0  0  # atno 8010 bound_to 7997
  139.5959  144.1113  152.1688 H   0  0  0  0  0  0  0  0  0  0  0  0  # atno 10167 bound_to 10162
  157.6493  130.9571  150.0907 H   0  0  0  0  0  0  0  0  0  0  0  0  # atno 10718 bound_to 10713
  154.7867  135.4792  153.9961 H   0  0  0  0  0  0  0  0  0  0  0  0  # atno 10763 bound_to 10752
  153.1570  135.6802  153.8805 H   0  0  0  0  0  0  0  0  0  0  0  0  # atno 10764 bound_to 10752
  153.8431  135.3177  155.3405 H   0  0  0  0  0  0  0  0  0  0  0  0  # atno 10765 bound_to 10752
  140.3321  134.2427  155.7701 H   0  0  0  0  0  0  0  0  0  0  0  0  # atno 11005 bound_to 11000
  144.6865  139.9492  143.7477 LP  0  0  0  0  0  0  0  0  0  0  0  0  # atno 17320 bound_to 7965
  146.0426  139.3436  143.0688 LP  0  0  0  0  0  0  0  0  0  0  0  0  # atno 17321 bound_to 7965
  140.0698  144.5788  150.7200 LP  0  0  0  0  0  0  0  0  0  0  0  0  # atno 17342 bound_to 10162
  140.7211  143.2590  151.4274 LP  0  0  0  0  0  0  0  0  0  0  0  0  # atno 17343 bound_to 10162
  156.1857  130.3652  149.8976 LP  0  0  0  0  0  0  0  0  0  0  0  0  # atno 17370 bound_to 10713
  156.6917  130.8898  151.3589 LP  0  0  0  0  0  0  0  0  0  0  0  0  # atno 17371 bound_to 10713
  141.2061  133.7843  157.0198 LP  0  0  0  0  0  0  0  0  0  0  0  0  # atno 17394 bound_to 11000
  140.0852  134.9625  157.1688 LP  0  0  0  0  0  0  0  0  0  0  0  0  # atno 17395 bound_to 11000

$$$$
