AV-unprocessed.smi:278|AV-procd|sdf|2087|dock3
  -GOLD-   2262021363D 1   1.00000     0.00000
 Structure written by MMmdl.
 50 54  0  0  0  0  0  0  0  0  1 V2000
  152.9963  136.9174  160.3579 O   0  0  0  0  0  0  0  0  0  0  0  0
  154.3169  136.7864  160.9928 S   0  0  0  0  0  0  0  0  0  0  0  0
  154.5250  135.8490  162.1069 O   0  0  0  0  0  0  0  0  0  0  0  0
  155.5731  136.4582  159.6966 C   0  0  0  0  0  0  0  0  0  0  0  0
  156.6485  137.5407  159.8568 C   0  0  0  0  0  0  0  0  0  0  0  0
  156.0003  138.8151  160.4278 C   0  0  1  0  0  0  0  0  0  0  0  0
  155.1809  139.6089  159.4048 C   0  0  0  0  0  0  0  0  0  0  0  0
  154.1424  140.2695  160.1824 N   0  0  0  0  0  0  0  0  0  0  0  0
  153.1619  140.9944  159.5826 C   0  0  0  0  0  0  0  0  0  0  0  0
  152.7012  142.1093  160.2106 N   0  0  0  0  0  0  0  0  0  0  0  0
  151.7344  142.8495  159.6616 C   0  0  0  0  0  0  0  0  0  0  0  0
  151.0901  142.6579  158.5101 N   0  0  0  0  0  0  0  0  0  0  0  0
  151.5379  141.5374  157.8755 C   0  0  0  0  0  0  0  0  0  0  0  0
  152.5588  140.6551  158.3345 C   0  0  0  0  0  0  0  0  0  0  0  0
  152.7240  139.6206  157.4186 N   0  0  0  0  0  0  0  0  0  0  0  0
  151.8652  139.8835  156.4722 C   0  0  0  0  0  0  0  0  0  0  0  0
  151.1102  141.0159  156.6675 N   0  0  0  0  0  0  0  0  0  0  0  0
  150.0854  141.5381  155.7810 C   0  0  0  0  0  0  0  0  0  0  0  0
  149.3462  140.4246  155.0138 C   0  0  2  0  0  0  0  0  0  0  0  0
  150.1003  139.9984  153.8951 O   0  0  0  0  0  0  0  0  0  0  0  0
  147.9250  140.8407  154.5832 C   0  0  2  0  0  0  0  0  0  0  0  0
  147.8134  142.0945  153.7117 C   0  0  0  0  0  0  0  0  0  0  0  0
  146.3788  142.5002  153.9658 C   0  0  0  0  0  0  0  0  0  0  0  0
  146.2206  142.1771  155.4501 C   0  0  0  0  0  0  0  0  0  0  0  0
  147.0692  141.0599  155.7023 O   0  0  0  0  0  0  0  0  0  0  0  0
  153.9006  139.5498  161.4255 C   0  0  0  0  0  0  0  0  0  0  0  0
  154.9619  138.4413  161.4879 C   0  0  1  0  0  0  0  0  0  0  0  0
  156.7544  139.4729  160.8622 H   0  0  0  0  0  0  0  0  0  0  0  0
  155.4047  138.3473  162.4798 H   0  0  0  0  0  0  0  0  0  0  0  0
  155.9667  135.4471  159.8001 H   0  0  0  0  0  0  0  0  0  0  0  0
  155.0826  136.5405  158.7265 H   0  0  0  0  0  0  0  0  0  0  0  0
  157.3963  137.1859  160.5668 H   0  0  0  0  0  0  0  0  0  0  0  0
  157.1706  137.7328  158.9189 H   0  0  0  0  0  0  0  0  0  0  0  0
  155.8014  140.3294  158.8706 H   0  0  0  0  0  0  0  0  0  0  0  0
  154.7150  138.9490  158.6719 H   0  0  0  0  0  0  0  0  0  0  0  0
  151.4336  143.7194  160.2265 H   0  0  0  0  0  0  0  0  0  0  0  0
  151.7574  139.2540  155.6008 H   0  0  0  0  0  0  0  0  0  0  0  0
  149.3787  142.1141  156.3796 H   0  0  0  0  0  0  0  0  0  0  0  0
  150.5502  142.2408  155.0884 H   0  0  0  0  0  0  0  0  0  0  0  0
  149.2541  139.5580  155.6696 H   0  0  0  0  0  0  0  0  0  0  0  0
  149.5770  140.1237  153.1180 H   0  0  0  0  0  0  0  0  0  0  0  0
  147.4810  140.0124  154.0285 H   0  0  0  0  0  0  0  0  0  0  0  0
  148.4815  142.8854  154.0539 H   0  0  0  0  0  0  0  0  0  0  0  0
  148.0243  141.9011  152.6597 H   0  0  0  0  0  0  0  0  0  0  0  0
  146.1796  143.5465  153.7336 H   0  0  0  0  0  0  0  0  0  0  0  0
  145.7038  141.8826  153.3718 H   0  0  0  0  0  0  0  0  0  0  0  0
  146.5636  143.0146  156.0586 H   0  0  0  0  0  0  0  0  0  0  0  0
  145.1869  141.9625  155.7219 H   0  0  0  0  0  0  0  0  0  0  0  0
  154.0354  140.2430  162.2562 H   0  0  0  0  0  0  0  0  0  0  0  0
  152.8877  139.1520  161.4850 H   0  0  0  0  0  0  0  0  0  0  0  0
  1  2  2  0  0  0  0
  2 27  1  0  0  0  0
  2  3  2  0  0  0  0
  2  4  1  0  0  0  0
  4  5  1  0  0  0  0
  4 30  1  0  0  0  0
  4 31  1  0  0  0  0
  5  6  1  0  0  0  0
  5 32  1  0  0  0  0
  5 33  1  0  0  0  0
  6 28  1  0  0  0  0
  6 27  1  0  0  0  0
  6  7  1  0  0  0  0
  7  8  1  0  0  0  0
  7 34  1  0  0  0  0
  7 35  1  0  0  0  0
  8  9  1  0  0  0  0
  8 26  1  0  0  0  0
  9 14  1  0  0  0  0
  9 10  2  0  0  0  0
 10 11  1  0  0  0  0
 11 12  2  0  0  0  0
 11 36  1  0  0  0  0
 12 13  1  0  0  0  0
 13 17  1  0  0  0  0
 13 14  2  0  0  0  0
 14 15  1  0  0  0  0
 15 16  2  0  0  0  0
 16 17  1  0  0  0  0
 16 37  1  0  0  0  0
 17 18  1  0  0  0  0
 18 19  1  0  0  0  0
 18 38  1  0  0  0  0
 18 39  1  0  0  0  0
 19 20  1  0  0  0  0
 19 21  1  0  0  0  0
 19 40  1  0  0  0  0
 20 41  1  0  0  0  0
 21 25  1  0  0  0  0
 21 22  1  0  0  0  0
 21 42  1  0  0  0  0
 22 23  1  0  0  0  0
 22 43  1  0  0  0  0
 22 44  1  0  0  0  0
 23 24  1  0  0  0  0
 23 45  1  0  0  0  0
 23 46  1  0  0  0  0
 24 25  1  0  0  0  0
 24 47  1  0  0  0  0
 24 48  1  0  0  0  0
 26 27  1  0  0  0  0
 26 49  1  0  0  0  0
 26 50  1  0  0  0  0
 27 29  1  0  0  0  0
M  END
> <s_m_source_file>
AV-unprocessed.smi

> <i_m_source_file_index>
278

> <i_lp_mmshare_version>
43012

> <i_f3d_flags>
0

> <s_epik_input>
W0NIMl0xW0NIMl1TKD1PKSg9TylbQ0BASF0oW0NAQEhdMTIpW0NIMl1OKFtDSDJdMiljKG5bY0hdbjMpYyhjMzQpbltjSF1uNFtDSDJdW0NASF0oW09IXSlbQ0BASF01W0NIMl1bQ0gyXVtDSDJdTzU=

> <s_epik_cmdline>
J2VwaWtfcHl0aG9uJywgJy1waCcsICc3LjAnLCAnLXRuJywgJzgnLCAnLW1hJywgJzIwMCcsICctbWV0YWxfYmluZGluZycsICctaW1hZScsICc8aW5maWxlLm1hZT4nLCAnLW9tYWUnLCAnPG91dGZpbGUubWFlPic=

> <r_lp_tautomer_probability>
1

> <r_epik_Ionization_Penalty>
0.000636766

> <r_epik_Ionization_Penalty_Charging>
0

> <r_epik_Ionization_Penalty_Neutral>
0.000636766

> <r_epik_State_Penalty>
0.000329976

> <r_epik_Charging_Adjusted_Penalty>
0.000329976

> <i_epik_Tot_Q>
0

> <i_epik_Tot_abs_Q>
0

> <r_epik_Metal_State_Penalty>
-0

> <b_epik_Metal_Only>
0

> <s_lp_Force_Field>
OPLS_2005

> <r_lp_Energy>
50.3002

> <b_lp_Chiralities_Consistent>
1

> <s_lp_Variant>
AV-unprocessed.smi:278-1

> <Gold.Version>
5.8.1

> <Gold.Id.Protein>
6NUR|6NUR_protein|mol2

> <Gold.PLP.Fitness>
46.9896

> <Gold.PLP.PLP>
-39.3324

> <Gold.PLP.part.hbond>
-3.5671

> <Gold.PLP.part.metal>
0.0000

> <Gold.PLP.part.buried>
-5.6629

> <Gold.PLP.part.nonpolar>
-30.6467

> <Gold.PLP.part.repulsive>
0.1010

> <Gold.PLP.ligand.clash>
0.0000

> <Gold.PLP.ligand.torsion>
1.5637

> <Gold.PLP.Chemscore.Hbond>
3.5068

> <Gold.PLP.Chemscore.CHOScore>
0.0000

> <Gold.PLP.Chemscore.Metal>
0.0000

> <Gold.Chemscore.Hbonds>
donor molecule, donor type, donor heavy atom, donor atom, acceptor molecule, acceptor atom, score
      L1  H    20    41       P1  7957  0.86
      P1  H  6896  6907       L1     1  0.78
      P1  H  7989  7998       L1    20  0.90
      P1  H  7997  8008       L1    15  1.00

> <Gold.PLP.Chemscore.Internal.Correction>
0.2644

> <Gold.Rescore>
     Score         DG    S(hbond)    S(metal)    S(lipo)     H(rot)  DE(clash)    DE(int)     intcor
     14.44     -16.13       2.41        0.00      68.95       2.13       0.10       1.59       ----

> <Gold.Chemscore.Fitness>
14.4442

> <Gold.Chemscore.DG>
-16.1274

> <Gold.Chemscore.ZeroCoef>
-5.4800

> <Gold.Chemscore.Hbond>
2.4085

> <Gold.Chemscore.Metal>
0.0000

> <Gold.Chemscore.Lipo>
68.9531

> <Gold.Chemscore.Internal_Hbond>
0.0000

> <Gold.Chemscore.DEClash>
0.0967

> <Gold.Chemscore.DEInternal>
1.5866

> <Gold.Chemscore.Rot>
2.1346

> <Gold.Chemscore.Internal.Correction>
   9.000000E+99

> <Gold.Chemscore.Hbonds>
donor molecule, donor type, donor heavy atom, donor atom, acceptor molecule, acceptor atom, score
      L1  H    20    41       P1  7957  0.84
      P1  H  6896  6907       L1     1  0.63
      P1  H  7989  7998       L1    20  0.30
      P1  H  7997  8008       L1    15  0.10

> <Gold.Chemscore.Hbond.Weighted>
-8.0445

> <Gold.Chemscore.Metal.Weighted>
-0.0000

> <Gold.Chemscore.Lipo.Weighted>
-8.0675

> <Gold.Chemscore.Internal_Hbond.Weighted>
0.0000

> <Gold.Chemscore.DEClash.Weighted>
0.0967

> <Gold.Chemscore.DEInternal.Weighted>
1.5866

> <Gold.Chemscore.Rot.Weighted>
5.4646

> <Gold.Chemscore.Internal.Correction.Weighted>
   9.000000E+99

> <Gold.Protein.RotatedTorsions>
[ 6907 6896 6895 6894 ] final   28.58 input  -60.11 | X-H torsion
[ 7974 7965 7964 7962 ] final -110.80 input  175.53 | X-H torsion
[ 8008 7997 7996 7995 ] final  -53.86 input   59.86 | X-H torsion
[ 10167 10162 10161 10158 ] final   69.96 input  -65.29 | X-H torsion
[ 10718 10713 10712 10709 ] final  -52.17 input   66.30 | X-H torsion
[ 10763 10752 10751 10750 ] final   62.54 input  -60.55 | X-H torsion
[ 11005 11000 10999 10996 ] final  158.13 input  -57.11 | X-H torsion

> <Gold.Protein.ActiveResidues>
 VAL166  LYS551  ARG553  GLY616  TRP617  ASP618  TYR619  PRO620  LYS621  CYS622 
 ASP623  PHE694  ASN695  SER759  ASP760  ASP761  ALA762  ILE779  LEU786  VAL792 
 PHE793  MET794  SER795  GLU796  ALA797  LYS798  CYS799  TRP800  GLU811  SER814 

> <Gold.Protein.RotatedAtoms>
  152.0190  134.9834  160.0569 H   0  0  0  0  0  0  0  0  0  0  0  0  # atno 6907 bound_to 6896
  152.1356  133.4428  159.4750 H   0  0  0  0  0  0  0  0  0  0  0  0  # atno 6908 bound_to 6896
  150.6860  134.2286  159.4468 H   0  0  0  0  0  0  0  0  0  0  0  0  # atno 6909 bound_to 6896
  145.1638  140.8892  143.3575 H   0  0  0  0  0  0  0  0  0  0  0  0  # atno 7974 bound_to 7965
  154.4145  140.1190  156.5222 H   0  0  0  0  0  0  0  0  0  0  0  0  # atno 8008 bound_to 7997
  155.6691  140.3496  155.4792 H   0  0  0  0  0  0  0  0  0  0  0  0  # atno 8009 bound_to 7997
  155.9648  140.1130  157.0854 H   0  0  0  0  0  0  0  0  0  0  0  0  # atno 8010 bound_to 7997
  140.0621  144.5224  150.7287 H   0  0  0  0  0  0  0  0  0  0  0  0  # atno 10167 bound_to 10162
  156.1645  130.4149  149.9742 H   0  0  0  0  0  0  0  0  0  0  0  0  # atno 10718 bound_to 10713
  152.9986  135.5461  154.6209 H   0  0  0  0  0  0  0  0  0  0  0  0  # atno 10763 bound_to 10752
  154.5509  135.2826  155.1012 H   0  0  0  0  0  0  0  0  0  0  0  0  # atno 10764 bound_to 10752
  154.2252  135.6443  153.5210 H   0  0  0  0  0  0  0  0  0  0  0  0  # atno 10765 bound_to 10752
  140.1836  134.8458  157.2831 H   0  0  0  0  0  0  0  0  0  0  0  0  # atno 11005 bound_to 11000
  145.0303  139.3346  143.6028 LP  0  0  0  0  0  0  0  0  0  0  0  0  # atno 17320 bound_to 7965
  146.3478  139.9638  142.8714 LP  0  0  0  0  0  0  0  0  0  0  0  0  # atno 17321 bound_to 7965
  140.7167  143.2551  151.4412 LP  0  0  0  0  0  0  0  0  0  0  0  0  # atno 17342 bound_to 10162
  139.5887  144.1546  152.2062 LP  0  0  0  0  0  0  0  0  0  0  0  0  # atno 17343 bound_to 10162
  156.7561  130.9133  151.3639 LP  0  0  0  0  0  0  0  0  0  0  0  0  # atno 17370 bound_to 10713
  157.6757  130.9092  150.0145 LP  0  0  0  0  0  0  0  0  0  0  0  0  # atno 17371 bound_to 10713
  140.2239  134.3990  155.7552 LP  0  0  0  0  0  0  0  0  0  0  0  0  # atno 17394 bound_to 11000
  141.2224  133.7180  156.8535 LP  0  0  0  0  0  0  0  0  0  0  0  0  # atno 17395 bound_to 11000

$$$$
