AV-unprocessed.smi:3154|AV-procd|sdf|12022|dock7
  -GOLD-   2272017433D 1   1.00000     0.00000
 Structure written by MMmdl.
 35 36  0  0  0  0  0  0  0  0  2 V2000
  147.7620  137.7886  154.7606 C   0  0  0  0  0  0  0  0  0  0  0  0
  147.6804  139.0860  153.9385 C   0  0  1  0  0  0  0  0  0  0  0  0
  148.7391  140.1270  154.3711 C   0  0  0  0  0  0  0  0  0  0  0  0
  150.0665  139.5578  154.5189 N   0  0  0  0  0  0  0  0  0  0  0  0
  150.7078  138.6480  153.7043 C   0  0  0  0  0  0  0  0  0  0  0  0
  151.9420  138.4211  154.2427 C   0  0  0  0  0  0  0  0  0  0  0  0
  151.9665  139.2540  155.3962 C   0  0  0  0  0  0  0  0  0  0  0  0
  150.8435  139.9357  155.5566 N   0  0  0  0  0  0  0  0  0  0  0  0
  147.8060  138.7613  152.5004 N   0  3  0  0  0  0  0  0  0  0  0  0
  146.5315  138.6743  151.7532 C   0  0  0  0  0  0  0  0  0  0  0  0
  145.6101  137.5844  152.3046 C   0  0  0  0  0  0  0  0  0  0  0  0
  145.9417  136.3989  152.2612 O   0  0  0  0  0  0  0  0  0  0  0  0
  144.4481  138.0083  152.8226 N   0  0  0  0  0  0  0  0  0  0  0  0
  143.4409  137.1733  153.3935 C   0  0  0  0  0  0  0  0  0  0  0  0
  142.0652  137.7705  153.5973 C   0  0  0  0  0  0  0  0  0  0  0  0
  142.9516  137.5137  154.7847 C   0  0  0  0  0  0  0  0  0  0  0  0
  147.5752  137.9708  155.8193 H   0  0  0  0  0  0  0  0  0  0  0  0
  148.7444  137.3235  154.6715 H   0  0  0  0  0  0  0  0  0  0  0  0
  147.0190  137.0644  154.4247 H   0  0  0  0  0  0  0  0  0  0  0  0
  146.6856  139.5057  154.0965 H   0  0  0  0  0  0  0  0  0  0  0  0
  148.7925  140.9348  153.6396 H   0  0  0  0  0  0  0  0  0  0  0  0
  148.4708  140.5867  155.3223 H   0  0  0  0  0  0  0  0  0  0  0  0
  150.2385  138.2404  152.8211 H   0  0  0  0  0  0  0  0  0  0  0  0
  152.7118  137.7628  153.8681 H   0  0  0  0  0  0  0  0  0  0  0  0
  152.7618  139.3837  156.1153 H   0  0  0  0  0  0  0  0  0  0  0  0
  148.4044  139.4427  152.0557 H   0  0  0  0  0  0  0  0  0  0  0  0
  146.0121  139.6321  151.8055 H   0  0  0  0  0  0  0  0  0  0  0  0
  146.7273  138.4632  150.7020 H   0  0  0  0  0  0  0  0  0  0  0  0
  144.2592  139.0004  152.8147 H   0  0  0  0  0  0  0  0  0  0  0  0
  143.4691  136.1132  153.1452 H   0  0  0  0  0  0  0  0  0  0  0  0
  141.9097  138.8067  153.3022 H   0  0  0  0  0  0  0  0  0  0  0  0
  141.2079  137.1144  153.4599 H   0  0  0  0  0  0  0  0  0  0  0  0
  142.6872  136.6853  155.4392 H   0  0  0  0  0  0  0  0  0  0  0  0
  143.3865  138.3788  155.2821 H   0  0  0  0  0  0  0  0  0  0  0  0
  148.2506  137.8572  152.4281 H   0  0  0  0  0  0  0  0  0  0  0  0
  1  2  1  0  0  0  0
  1 17  1  0  0  0  0
  1 18  1  0  0  0  0
  1 19  1  0  0  0  0
  2  3  1  0  0  0  0
  2  9  1  0  0  0  0
  2 20  1  0  0  0  0
  3  4  1  0  0  0  0
  3 21  1  0  0  0  0
  3 22  1  0  0  0  0
  4  8  1  0  0  0  0
  4  5  1  0  0  0  0
  5  6  2  0  0  0  0
  5 23  1  0  0  0  0
  6  7  1  0  0  0  0
  6 24  1  0  0  0  0
  7  8  2  0  0  0  0
  7 25  1  0  0  0  0
  9 10  1  0  0  0  0
  9 26  1  0  0  0  0
  9 35  1  0  0  0  0
 10 11  1  0  0  0  0
 10 27  1  0  0  0  0
 10 28  1  0  0  0  0
 11 12  2  0  0  0  0
 11 13  1  0  0  0  0
 13 14  1  0  0  0  0
 13 29  1  0  0  0  0
 14 16  1  0  0  0  0
 14 15  1  0  0  0  0
 14 30  1  0  0  0  0
 15 16  1  0  0  0  0
 15 31  1  0  0  0  0
 15 32  1  0  0  0  0
 16 33  1  0  0  0  0
 16 34  1  0  0  0  0
M  CHG  1   9   1
M  END
> <s_m_source_file>
AV-unprocessed.smi

> <i_m_source_file_index>
3154

> <i_lp_mmshare_version>
43012

> <i_f3d_flags>
0

> <s_epik_input>
bjFbY0hdW2NIXVtjSF1uMVtDSDJdW0NAQEhdKFtDSDNdKVtOSF1bQ0gyXUMoPU8pW05IXVtDSF0yW0NIMl1bQ0gyXTI=

> <s_epik_cmdline>
J2VwaWtfcHl0aG9uJywgJy1waCcsICc3LjAnLCAnLXRuJywgJzgnLCAnLW1hJywgJzIwMCcsICctbWV0YWxfYmluZGluZycsICctaW1hZScsICc8aW5maWxlLm1hZT4nLCAnLW9tYWUnLCAnPG91dGZpbGUubWFlPic=

> <r_lp_tautomer_probability>
1

> <r_epik_Ionization_Penalty>
0.12065

> <r_epik_Ionization_Penalty_Charging>
0.120646

> <r_epik_Ionization_Penalty_Neutral>
4.1343e-06

> <r_epik_State_Penalty>
0.110186

> <r_epik_Charging_Adjusted_Penalty>
0.230832

> <i_epik_Tot_Q>
1

> <i_epik_Tot_abs_Q>
1

> <r_epik_Metal_State_Penalty>
0.110197

> <b_epik_Metal_Only>
0

> <s_lp_Force_Field>
OPLS_2005

> <r_lp_Energy>
15.3554

> <b_lp_Chiralities_Consistent>
1

> <s_lp_Variant>
AV-unprocessed.smi:3154-2

> <Gold.Version>
5.8.1

> <Gold.Id.Protein>
6NUR|6NUR_protein|mol2

> <Gold.PLP.Fitness>
45.1021

> <Gold.PLP.PLP>
-30.2172

> <Gold.PLP.part.hbond>
-3.9744

> <Gold.PLP.part.metal>
0.0000

> <Gold.PLP.part.buried>
-2.1970

> <Gold.PLP.part.nonpolar>
-24.3300

> <Gold.PLP.part.repulsive>
0.8446

> <Gold.PLP.ligand.clash>
0.0000

> <Gold.PLP.ligand.torsion>
1.0751

> <Gold.PLP.Chemscore.Hbond>
3.9913

> <Gold.PLP.Chemscore.CHOScore>
1.6624

> <Gold.PLP.Chemscore.Metal>
0.0000

> <Gold.Chemscore.Hbonds>
donor molecule, donor type, donor heavy atom, donor atom, acceptor molecule, acceptor atom, score
      L1  H     9    26       P1  7957  1.00
      L1  H     9    35       P1  7948  2.00
      L1  H    13    29       P1 10175  1.00
      L1  C     5    23       P1  7948  0.83
      L1  C     5    23       P1  7949  0.09
      L1  C     5    23       P1  7957  0.57

> <Gold.PLP.Chemscore.Internal.Correction>
0.0743

> <Gold.Rescore>
     Score         DG    S(hbond)    S(metal)    S(lipo)     H(rot)  DE(clash)    DE(int)     intcor
     15.72     -16.69       2.99        0.00      58.66       2.20       0.14       0.83       ----

> <Gold.Chemscore.Fitness>
15.7230

> <Gold.Chemscore.DG>
-16.6890

> <Gold.Chemscore.ZeroCoef>
-5.4800

> <Gold.Chemscore.Hbond>
2.9907

> <Gold.Chemscore.Metal>
0.0000

> <Gold.Chemscore.Lipo>
58.6566

> <Gold.Chemscore.Internal_Hbond>
0.0000

> <Gold.Chemscore.DEClash>
0.1371

> <Gold.Chemscore.DEInternal>
0.8289

> <Gold.Chemscore.Rot>
2.2042

> <Gold.Chemscore.Internal.Correction>
   9.000000E+99

> <Gold.Chemscore.Hbonds>
donor molecule, donor type, donor heavy atom, donor atom, acceptor molecule, acceptor atom, score
      L1  H     9    26       P1  7957  0.98
      L1  H     9    35       P1  7948  1.00
      L1  H    13    29       P1 10175  0.98

> <Gold.Chemscore.Hbond.Weighted>
-9.9888

> <Gold.Chemscore.Metal.Weighted>
-0.0000

> <Gold.Chemscore.Lipo.Weighted>
-6.8628

> <Gold.Chemscore.Internal_Hbond.Weighted>
0.0000

> <Gold.Chemscore.DEClash.Weighted>
0.1371

> <Gold.Chemscore.DEInternal.Weighted>
0.8289

> <Gold.Chemscore.Rot.Weighted>
5.6427

> <Gold.Chemscore.Internal.Correction.Weighted>
   9.000000E+99

> <Gold.Protein.RotatedTorsions>
[ 6907 6896 6895 6894 ] final  153.69 input  -60.11 | X-H torsion
[ 7974 7965 7964 7962 ] final -141.81 input  175.53 | X-H torsion
[ 8008 7997 7996 7995 ] final -146.08 input   59.86 | X-H torsion
[ 10167 10162 10161 10158 ] final -176.35 input  -65.29 | X-H torsion
[ 10718 10713 10712 10709 ] final  -10.32 input   66.30 | X-H torsion
[ 10763 10752 10751 10750 ] final  -56.21 input  -60.55 | X-H torsion
[ 11005 11000 10999 10996 ] final   42.52 input  -57.11 | X-H torsion

> <Gold.Protein.ActiveResidues>
 VAL166  LYS551  ARG553  GLY616  TRP617  ASP618  TYR619  PRO620  LYS621  CYS622 
 ASP623  PHE694  ASN695  SER759  ASP760  ASP761  ALA762  ILE779  LEU786  VAL792 
 PHE793  MET794  SER795  GLU796  ALA797  LYS798  CYS799  TRP800  GLU811  SER814 

> <Gold.Protein.RotatedAtoms>
  152.0692  133.4098  159.4451 H   0  0  0  0  0  0  0  0  0  0  0  0  # atno 6907 bound_to 6896
  150.6864  134.3112  159.4756 H   0  0  0  0  0  0  0  0  0  0  0  0  # atno 6908 bound_to 6896
  152.0941  134.9386  160.0622 H   0  0  0  0  0  0  0  0  0  0  0  0  # atno 6909 bound_to 6896
  144.8491  140.6034  143.5402 H   0  0  0  0  0  0  0  0  0  0  0  0  # atno 7974 bound_to 7965
  155.5535  140.0619  157.2845 H   0  0  0  0  0  0  0  0  0  0  0  0  # atno 8008 bound_to 7997
  154.4413  140.1898  156.0755 H   0  0  0  0  0  0  0  0  0  0  0  0  # atno 8009 bound_to 7997
  156.0499  140.3285  155.7342 H   0  0  0  0  0  0  0  0  0  0  0  0  # atno 8010 bound_to 7997
  139.5534  144.2050  152.1117 H   0  0  0  0  0  0  0  0  0  0  0  0  # atno 10167 bound_to 10162
  156.6752  130.5021  149.5988 H   0  0  0  0  0  0  0  0  0  0  0  0  # atno 10718 bound_to 10713
  154.2031  135.6407  153.5093 H   0  0  0  0  0  0  0  0  0  0  0  0  # atno 10763 bound_to 10752
  153.0007  135.5456  154.6294 H   0  0  0  0  0  0  0  0  0  0  0  0  # atno 10764 bound_to 10752
  154.5712  135.2917  155.0798 H   0  0  0  0  0  0  0  0  0  0  0  0  # atno 10765 bound_to 10752
  140.1732  134.4196  155.8244 H   0  0  0  0  0  0  0  0  0  0  0  0  # atno 11005 bound_to 11000
  145.4537  139.1520  143.3904 LP  0  0  0  0  0  0  0  0  0  0  0  0  # atno 17320 bound_to 7965
  146.2769  140.4664  142.8792 LP  0  0  0  0  0  0  0  0  0  0  0  0  # atno 17321 bound_to 7965
  140.1550  144.5079  150.6665 LP  0  0  0  0  0  0  0  0  0  0  0  0  # atno 17342 bound_to 10162
  140.6802  143.2323  151.5404 LP  0  0  0  0  0  0  0  0  0  0  0  0  # atno 17343 bound_to 10162
  156.1909  130.6559  151.1060 LP  0  0  0  0  0  0  0  0  0  0  0  0  # atno 17370 bound_to 10713
  157.7063  131.0755  150.6655 LP  0  0  0  0  0  0  0  0  0  0  0  0  # atno 17371 bound_to 10713
  141.2219  133.6965  156.7800 LP  0  0  0  0  0  0  0  0  0  0  0  0  # atno 17394 bound_to 11000
  140.2353  134.8654  157.3519 LP  0  0  0  0  0  0  0  0  0  0  0  0  # atno 17395 bound_to 11000

$$$$
