AV-unprocessed.smi:1888|AV-procd|sdf|7657|dock2
  -GOLD-   22720 9393D 1   1.00000     0.00000
 Structure written by MMmdl.
 44 46  0  0  0  0  0  0  0  0  1 V2000
  145.0331  137.5218  162.1797 C   0  0  0  0  0  0  0  0  0  0  0  0
  144.7436  137.5327  160.6771 C   0  0  0  0  0  0  0  0  0  0  0  0
  145.6186  136.6209  160.0350 O   0  0  0  0  0  0  0  0  0  0  0  0
  145.5433  136.6934  158.6218 C   0  0  0  0  0  0  0  0  0  0  0  0
  146.3659  135.5446  158.0238 C   0  0  0  0  0  0  0  0  0  0  0  0
  147.7953  135.8326  158.0479 N   0  0  0  0  0  0  0  0  0  0  0  0
  148.6161  135.9244  159.1268 C   0  0  0  0  0  0  0  0  0  0  0  0
  148.1318  135.7448  160.4406 N   0  0  0  0  0  0  0  0  0  0  0  0
  148.2711  136.7285  161.3558 N   0  0  0  0  0  0  0  0  0  0  0  0
  147.7345  136.2438  162.4630 C   0  0  0  0  0  0  0  0  0  0  0  0
  147.7078  137.0907  163.7008 C   0  0  0  0  0  0  0  0  0  0  0  0
  147.2414  134.9208  162.2868 C   0  0  0  0  0  0  0  0  0  0  0  0
  147.5170  134.6293  160.9804 C   0  0  0  0  0  0  0  0  0  0  0  0
  147.2461  133.3904  160.1909 C   0  0  0  0  0  0  0  0  0  0  0  0
  149.8962  136.1803  158.8407 N   0  0  0  0  0  0  0  0  0  0  0  0
  149.8858  136.2722  157.4564 C   0  0  0  0  0  0  0  0  0  0  0  0
  148.6381  136.0684  156.9629 C   0  0  0  0  0  0  0  0  0  0  0  0
  148.3416  136.1105  155.5264 C   0  0  0  0  0  0  0  0  0  0  0  0
  147.2181  135.9307  155.0615 O   0  0  0  0  0  0  0  0  0  0  0  0
  149.4342  136.3710  154.7679 N   0  0  0  0  0  0  0  0  0  0  0  0
  150.7154  136.5870  155.1986 C   0  0  0  0  0  0  0  0  0  0  0  0
  151.6033  136.8174  154.3782 O   0  0  0  0  0  0  0  0  0  0  0  0
  150.9503  136.5362  156.5507 N   0  0  0  0  0  0  0  0  0  0  0  0
  152.2835  136.7571  157.1144 C   0  0  0  0  0  0  0  0  0  0  0  0
  149.2861  136.4127  153.7700 H   0  0  0  0  0  0  0  0  0  0  0  0
  144.3737  138.2098  162.7089 H   0  0  0  0  0  0  0  0  0  0  0  0
  146.0616  137.8218  162.3812 H   0  0  0  0  0  0  0  0  0  0  0  0
  144.8853  136.5264  162.5994 H   0  0  0  0  0  0  0  0  0  0  0  0
  143.7056  137.2491  160.4958 H   0  0  0  0  0  0  0  0  0  0  0  0
  144.8868  138.5379  160.2780 H   0  0  0  0  0  0  0  0  0  0  0  0
  144.5033  136.6235  158.2995 H   0  0  0  0  0  0  0  0  0  0  0  0
  145.9283  137.6542  158.2778 H   0  0  0  0  0  0  0  0  0  0  0  0
  146.1739  134.6206  158.5695 H   0  0  0  0  0  0  0  0  0  0  0  0
  146.0607  135.3495  156.9961 H   0  0  0  0  0  0  0  0  0  0  0  0
  147.2946  136.5408  164.5466 H   0  0  0  0  0  0  0  0  0  0  0  0
  147.0960  137.9809  163.5527 H   0  0  0  0  0  0  0  0  0  0  0  0
  148.7112  137.4170  163.9761 H   0  0  0  0  0  0  0  0  0  0  0  0
  146.7586  134.2816  163.0112 H   0  0  0  0  0  0  0  0  0  0  0  0
  146.6521  132.6819  160.7684 H   0  0  0  0  0  0  0  0  0  0  0  0
  148.1777  132.8977  159.9113 H   0  0  0  0  0  0  0  0  0  0  0  0
  146.6977  133.6229  159.2777 H   0  0  0  0  0  0  0  0  0  0  0  0
  153.0677  136.8817  156.3669 H   0  0  0  0  0  0  0  0  0  0  0  0
  152.5676  135.9123  157.7430 H   0  0  0  0  0  0  0  0  0  0  0  0
  152.2783  137.6519  157.7377 H   0  0  0  0  0  0  0  0  0  0  0  0
  1  2  1  0  0  0  0
  1 26  1  0  0  0  0
  1 27  1  0  0  0  0
  1 28  1  0  0  0  0
  2  3  1  0  0  0  0
  2 29  1  0  0  0  0
  2 30  1  0  0  0  0
  3  4  1  0  0  0  0
  4  5  1  0  0  0  0
  4 31  1  0  0  0  0
  4 32  1  0  0  0  0
  5  6  1  0  0  0  0
  5 33  1  0  0  0  0
  5 34  1  0  0  0  0
  6 17  1  0  0  0  0
  6  7  1  0  0  0  0
  7  8  1  0  0  0  0
  7 15  2  0  0  0  0
  8 13  1  0  0  0  0
  8  9  1  0  0  0  0
  9 10  2  0  0  0  0
 10 11  1  0  0  0  0
 10 12  1  0  0  0  0
 11 35  1  0  0  0  0
 11 36  1  0  0  0  0
 11 37  1  0  0  0  0
 12 13  2  0  0  0  0
 12 38  1  0  0  0  0
 13 14  1  0  0  0  0
 14 39  1  0  0  0  0
 14 40  1  0  0  0  0
 14 41  1  0  0  0  0
 15 16  1  0  0  0  0
 16 23  1  0  0  0  0
 16 17  2  0  0  0  0
 17 18  1  0  0  0  0
 18 19  2  0  0  0  0
 18 20  1  0  0  0  0
 20 25  1  0  0  0  0
 20 21  1  0  0  0  0
 21 22  2  0  0  0  0
 21 23  1  0  0  0  0
 23 24  1  0  0  0  0
 24 42  1  0  0  0  0
 24 43  1  0  0  0  0
 24 44  1  0  0  0  0
M  END
> <s_m_source_file>
AV-unprocessed.smi

> <i_m_source_file_index>
1888

> <i_lp_mmshare_version>
43012

> <i_f3d_flags>
0

> <s_epik_input>
W0NIM11uMWMoPU8pW25IXWMoPU8pYyhjMTIpbihbQ0gyXVtDSDJdT1tDSDJdW0NIM10pYyhuMiktbjNuYyhbQ0gzXSlbY0hdYzNbQ0gzXQ==

> <s_epik_cmdline>
J2VwaWtfcHl0aG9uJywgJy1waCcsICc3LjAnLCAnLXRuJywgJzgnLCAnLW1hJywgJzIwMCcsICctbWV0YWxfYmluZGluZycsICctaW1hZScsICc8aW5maWxlLm1hZT4nLCAnLW9tYWUnLCAnPG91dGZpbGUubWFlPic=

> <r_lp_tautomer_probability>
1

> <r_epik_Ionization_Penalty>
0.00155345

> <r_epik_Ionization_Penalty_Charging>
0.000715499

> <r_epik_Ionization_Penalty_Neutral>
0.000837951

> <r_epik_State_Penalty>
-0

> <r_epik_Charging_Adjusted_Penalty>
0.000715499

> <i_epik_Tot_Q>
0

> <i_epik_Tot_abs_Q>
0

> <r_epik_Metal_State_Penalty>
0.258535

> <b_epik_Metal_Only>
0

> <s_lp_Force_Field>
OPLS_2005

> <r_lp_Energy>
26.5558

> <b_lp_Chiralities_Consistent>
1

> <s_lp_Variant>
AV-unprocessed.smi:1888-1

> <Gold.Version>
5.8.1

> <Gold.Id.Protein>
6NUR|6NUR_protein|mol2

> <Gold.PLP.Fitness>
41.0070

> <Gold.PLP.PLP>
-31.0895

> <Gold.PLP.part.hbond>
-4.2204

> <Gold.PLP.part.metal>
0.0000

> <Gold.PLP.part.buried>
-5.3047

> <Gold.PLP.part.nonpolar>
-22.2846

> <Gold.PLP.part.repulsive>
0.5624

> <Gold.PLP.ligand.clash>
0.0000

> <Gold.PLP.ligand.torsion>
1.2911

> <Gold.PLP.Chemscore.Hbond>
4.0000

> <Gold.PLP.Chemscore.CHOScore>
0.0000

> <Gold.PLP.Chemscore.Metal>
0.0000

> <Gold.Chemscore.Hbonds>
donor molecule, donor type, donor heavy atom, donor atom, acceptor molecule, acceptor atom, score
      L1  H    20    25       P1  7948  1.00
      P1  H  6896  6909       L1    15  1.00
      P1  H  6931  6943       L1     9  1.00
      P1  H 10752 10765       L1    22  1.00

> <Gold.PLP.Chemscore.Internal.Correction>
0.4997

> <Gold.Rescore>
     Score         DG    S(hbond)    S(metal)    S(lipo)     H(rot)  DE(clash)    DE(int)     intcor
     16.19     -19.46       3.54        0.00      55.56       1.70       0.56       2.72       ----

> <Gold.Chemscore.Fitness>
16.1887

> <Gold.Chemscore.DG>
-19.4607

> <Gold.Chemscore.ZeroCoef>
-5.4800

> <Gold.Chemscore.Hbond>
3.5390

> <Gold.Chemscore.Metal>
0.0000

> <Gold.Chemscore.Lipo>
55.5584

> <Gold.Chemscore.Internal_Hbond>
0.0000

> <Gold.Chemscore.DEClash>
0.5559

> <Gold.Chemscore.DEInternal>
2.7160

> <Gold.Chemscore.Rot>
1.6953

> <Gold.Chemscore.Internal.Correction>
   9.000000E+99

> <Gold.Chemscore.Hbonds>
donor molecule, donor type, donor heavy atom, donor atom, acceptor molecule, acceptor atom, score
      L1  H    20    25       P1  7948  0.92
      P1  H  6896  6909       L1    15  0.44
      P1  H  6931  6943       L1     9  0.40
      P1  H 10752 10765       L1    22  0.97

> <Gold.Chemscore.Hbond.Weighted>
-11.8203

> <Gold.Chemscore.Metal.Weighted>
-0.0000

> <Gold.Chemscore.Lipo.Weighted>
-6.5003

> <Gold.Chemscore.Internal_Hbond.Weighted>
0.0000

> <Gold.Chemscore.DEClash.Weighted>
0.5559

> <Gold.Chemscore.DEInternal.Weighted>
2.7160

> <Gold.Chemscore.Rot.Weighted>
4.3399

> <Gold.Chemscore.Internal.Correction.Weighted>
   9.000000E+99

> <Gold.Protein.RotatedTorsions>
[ 6907 6896 6895 6894 ] final   66.03 input  -60.11 | X-H torsion
[ 7974 7965 7964 7962 ] final  -43.11 input  175.53 | X-H torsion
[ 8008 7997 7996 7995 ] final  172.15 input   59.86 | X-H torsion
[ 10167 10162 10161 10158 ] final -173.22 input  -65.29 | X-H torsion
[ 10718 10713 10712 10709 ] final  175.72 input   66.30 | X-H torsion
[ 10763 10752 10751 10750 ] final  157.26 input  -60.55 | X-H torsion
[ 11005 11000 10999 10996 ] final   -0.43 input  -57.11 | X-H torsion

> <Gold.Protein.ActiveResidues>
 VAL166  LYS551  ARG553  GLY616  TRP617  ASP618  TYR619  PRO620  LYS621  CYS622 
 ASP623  PHE694  ASN695  SER759  ASP760  ASP761  ALA762  ILE779  LEU786  VAL792 
 PHE793  MET794  SER795  GLU796  ALA797  LYS798  CYS799  TRP800  GLU811  SER814 

> <Gold.Protein.RotatedAtoms>
  152.4451  134.5511  159.9866 H   0  0  0  0  0  0  0  0  0  0  0  0  # atno 6907 bound_to 6896
  151.5598  133.3399  159.2977 H   0  0  0  0  0  0  0  0  0  0  0  0  # atno 6908 bound_to 6896
  150.8365  134.7673  159.6961 H   0  0  0  0  0  0  0  0  0  0  0  0  # atno 6909 bound_to 6896
  146.0051  140.7030  142.9251 H   0  0  0  0  0  0  0  0  0  0  0  0  # atno 7974 bound_to 7965
  156.1202  140.1493  156.9215 H   0  0  0  0  0  0  0  0  0  0  0  0  # atno 8008 bound_to 7997
  154.4830  140.0873  156.7464 H   0  0  0  0  0  0  0  0  0  0  0  0  # atno 8009 bound_to 7997
  155.4441  140.3432  155.4295 H   0  0  0  0  0  0  0  0  0  0  0  0  # atno 8010 bound_to 7997
  139.5701  144.1663  152.1370 H   0  0  0  0  0  0  0  0  0  0  0  0  # atno 10167 bound_to 10162
  156.9307  130.9970  151.2987 H   0  0  0  0  0  0  0  0  0  0  0  0  # atno 10718 bound_to 10713
  154.1974  135.2792  155.3002 H   0  0  0  0  0  0  0  0  0  0  0  0  # atno 10763 bound_to 10752
  154.5881  135.5568  153.7255 H   0  0  0  0  0  0  0  0  0  0  0  0  # atno 10764 bound_to 10752
  153.0096  135.6361  154.2112 H   0  0  0  0  0  0  0  0  0  0  0  0  # atno 10765 bound_to 10752
  140.6361  133.9531  155.8301 H   0  0  0  0  0  0  0  0  0  0  0  0  # atno 11005 bound_to 11000
  144.6933  140.3300  143.7217 LP  0  0  0  0  0  0  0  0  0  0  0  0  # atno 17320 bound_to 7965
  145.7428  139.1769  143.2366 LP  0  0  0  0  0  0  0  0  0  0  0  0  # atno 17321 bound_to 7965
  140.1194  144.5387  150.6873 LP  0  0  0  0  0  0  0  0  0  0  0  0  # atno 17342 bound_to 10162
  140.6985  143.2419  151.4933 LP  0  0  0  0  0  0  0  0  0  0  0  0  # atno 17343 bound_to 10162
  157.5848  130.8402  149.8574 LP  0  0  0  0  0  0  0  0  0  0  0  0  # atno 17370 bound_to 10713
  156.0448  130.3730  150.1344 LP  0  0  0  0  0  0  0  0  0  0  0  0  # atno 17371 bound_to 10713
  141.0640  134.0304  157.3619 LP  0  0  0  0  0  0  0  0  0  0  0  0  # atno 17394 bound_to 11000
  139.9097  135.0187  156.7641 LP  0  0  0  0  0  0  0  0  0  0  0  0  # atno 17395 bound_to 11000

$$$$
