AV-unprocessed.smi:204|AV-procd|sdf|1599|dock10
  -GOLD-   2262019503D 1   1.00000     0.00000
 Structure written by MMmdl.
 53 56  0  0  0  0  0  0  0  0  1 V2000
  151.6331  136.2333  156.8204 C   0  0  0  0  0  0  0  0  0  0  0  0
  151.3750  137.0177  155.5384 C   0  0  0  0  0  0  0  0  0  0  0  0
  151.4758  136.4645  154.4438 O   0  0  0  0  0  0  0  0  0  0  0  0
  151.0421  138.3073  155.6880 N   0  0  0  0  0  0  0  0  0  0  0  0
  150.7528  139.2160  154.5856 C   0  0  0  0  0  0  0  0  0  0  0  0
  149.2739  139.6450  154.5745 C   0  0  1  0  0  0  0  0  0  0  0  0
  149.0543  141.0093  153.8858 C   0  0  0  0  0  0  0  0  0  0  0  0
  147.5619  141.3727  153.8689 C   0  0  0  0  0  0  0  0  0  0  0  0
  146.7282  140.2558  153.2225 C   0  0  0  0  0  0  0  0  0  0  0  0
  146.9924  138.9704  153.8705 N   0  0  0  0  0  0  0  0  0  0  0  0
  146.1141  137.9579  153.6516 C   0  0  0  0  0  0  0  0  0  0  0  0
  145.3562  137.4847  154.6771 N   0  0  0  0  0  0  0  0  0  0  0  0
  144.4821  136.4955  154.4716 C   0  0  0  0  0  0  0  0  0  0  0  0
  144.2135  135.8419  153.3402 N   0  0  0  0  0  0  0  0  0  0  0  0
  144.9765  136.3026  152.3084 C   0  0  0  0  0  0  0  0  0  0  0  0
  145.9388  137.3502  152.3754 C   0  0  0  0  0  0  0  0  0  0  0  0
  146.5177  137.5390  151.1259 N   0  0  0  0  0  0  0  0  0  0  0  0
  145.9206  136.6660  150.3620 C   0  0  0  0  0  0  0  0  0  0  0  0
  144.9917  135.8696  150.9935 N   0  0  0  0  0  0  0  0  0  0  0  0
  144.1924  134.8172  150.3840 C   0  0  0  0  0  0  0  0  0  0  0  0
  144.8337  133.4153  150.4552 C   0  0  0  0  0  0  0  0  0  0  0  0
  144.1107  132.4339  149.5160 C   0  0  0  0  0  0  0  0  0  0  0  0
  144.3981  132.7078  148.1592 O   0  0  0  0  0  0  0  0  0  0  0  0
  146.3653  133.3690  150.3551 C   0  0  0  0  0  0  0  0  0  0  0  0
  146.4728  132.5527  151.5402 O   0  0  0  0  0  0  0  0  0  0  0  0
  145.1040  132.8739  151.8660 C   0  0  0  0  0  0  0  0  0  0  0  0
  148.3995  138.5707  153.8977 C   0  0  0  0  0  0  0  0  0  0  0  0
  150.7798  136.3118  157.4948 H   0  0  0  0  0  0  0  0  0  0  0  0
  152.5155  136.6196  157.3310 H   0  0  0  0  0  0  0  0  0  0  0  0
  151.7986  135.1775  156.6028 H   0  0  0  0  0  0  0  0  0  0  0  0
  150.9849  138.6837  156.6231 H   0  0  0  0  0  0  0  0  0  0  0  0
  151.3984  140.0927  154.6609 H   0  0  0  0  0  0  0  0  0  0  0  0
  150.9990  138.7195  153.6453 H   0  0  0  0  0  0  0  0  0  0  0  0
  148.9451  139.7324  155.6116 H   0  0  0  0  0  0  0  0  0  0  0  0
  149.6114  141.7950  154.3965 H   0  0  0  0  0  0  0  0  0  0  0  0
  149.4333  140.9726  152.8635 H   0  0  0  0  0  0  0  0  0  0  0  0
  147.2161  141.5401  154.8898 H   0  0  0  0  0  0  0  0  0  0  0  0
  147.4101  142.3099  153.3328 H   0  0  0  0  0  0  0  0  0  0  0  0
  145.6691  140.5058  153.2987 H   0  0  0  0  0  0  0  0  0  0  0  0
  146.9678  140.1799  152.1606 H   0  0  0  0  0  0  0  0  0  0  0  0
  143.9174  136.1829  155.3376 H   0  0  0  0  0  0  0  0  0  0  0  0
  146.1510  136.5698  149.3108 H   0  0  0  0  0  0  0  0  0  0  0  0
  143.2176  134.8150  150.8733 H   0  0  0  0  0  0  0  0  0  0  0  0
  143.9943  135.0971  149.3488 H   0  0  0  0  0  0  0  0  0  0  0  0
  144.3701  131.3986  149.7367 H   0  0  0  0  0  0  0  0  0  0  0  0
  143.0305  132.5061  149.6472 H   0  0  0  0  0  0  0  0  0  0  0  0
  145.0288  133.4107  148.1217 H   0  0  0  0  0  0  0  0  0  0  0  0
  146.7388  132.8678  149.4615 H   0  0  0  0  0  0  0  0  0  0  0  0
  146.8538  134.3341  150.4931 H   0  0  0  0  0  0  0  0  0  0  0  0
  145.0415  133.6295  152.6510 H   0  0  0  0  0  0  0  0  0  0  0  0
  144.5159  131.9932  152.1269 H   0  0  0  0  0  0  0  0  0  0  0  0
  148.7333  138.4118  152.8713 H   0  0  0  0  0  0  0  0  0  0  0  0
  148.5323  137.6210  154.4146 H   0  0  0  0  0  0  0  0  0  0  0  0
  1  2  1  0  0  0  0
  1 28  1  0  0  0  0
  1 29  1  0  0  0  0
  1 30  1  0  0  0  0
  2  3  2  0  0  0  0
  2  4  1  0  0  0  0
  4  5  1  0  0  0  0
  4 31  1  0  0  0  0
  5  6  1  0  0  0  0
  5 32  1  0  0  0  0
  5 33  1  0  0  0  0
  6 27  1  0  0  0  0
  6  7  1  0  0  0  0
  6 34  1  0  0  0  0
  7  8  1  0  0  0  0
  7 35  1  0  0  0  0
  7 36  1  0  0  0  0
  8  9  1  0  0  0  0
  8 37  1  0  0  0  0
  8 38  1  0  0  0  0
  9 10  1  0  0  0  0
  9 39  1  0  0  0  0
  9 40  1  0  0  0  0
 10 11  1  0  0  0  0
 10 27  1  0  0  0  0
 11 16  1  0  0  0  0
 11 12  2  0  0  0  0
 12 13  1  0  0  0  0
 13 14  2  0  0  0  0
 13 41  1  0  0  0  0
 14 15  1  0  0  0  0
 15 19  1  0  0  0  0
 15 16  2  0  0  0  0
 16 17  1  0  0  0  0
 17 18  2  0  0  0  0
 18 19  1  0  0  0  0
 18 42  1  0  0  0  0
 19 20  1  0  0  0  0
 20 21  1  0  0  0  0
 20 43  1  0  0  0  0
 20 44  1  0  0  0  0
 21 26  1  0  0  0  0
 21 22  1  0  0  0  0
 21 24  1  0  0  0  0
 22 23  1  0  0  0  0
 22 45  1  0  0  0  0
 22 46  1  0  0  0  0
 23 47  1  0  0  0  0
 24 25  1  0  0  0  0
 24 48  1  0  0  0  0
 24 49  1  0  0  0  0
 25 26  1  0  0  0  0
 26 50  1  0  0  0  0
 26 51  1  0  0  0  0
 27 52  1  0  0  0  0
 27 53  1  0  0  0  0
M  END
> <s_m_source_file>
AV-unprocessed.smi

> <i_m_source_file_index>
204

> <i_lp_mmshare_version>
43012

> <i_f3d_flags>
0

> <s_epik_input>
W0NIM11DKD1PKVtOSF1bQ0gyXVtDQEBIXTFbQ0gyXVtDSDJdW0NIMl1OKFtDSDJdMSljKG5bY0hdbjIpYyhjMjMpbltjSF1uM1tDSDJdQzQoW0NIMl1bT0hdKVtDSDJdT1tDSDJdNA==

> <s_epik_cmdline>
J2VwaWtfcHl0aG9uJywgJy1waCcsICc3LjAnLCAnLXRuJywgJzgnLCAnLW1hJywgJzIwMCcsICctbWV0YWxfYmluZGluZycsICctaW1hZScsICc8aW5maWxlLm1hZT4nLCAnLW9tYWUnLCAnPG91dGZpbGUubWFlPic=

> <r_lp_tautomer_probability>
1

> <r_epik_Ionization_Penalty>
0.00166599

> <r_epik_Ionization_Penalty_Charging>
0

> <r_epik_Ionization_Penalty_Neutral>
0.00166599

> <r_epik_State_Penalty>
0.000989951

> <r_epik_Charging_Adjusted_Penalty>
0.000989951

> <i_epik_Tot_Q>
0

> <i_epik_Tot_abs_Q>
0

> <r_epik_Metal_State_Penalty>
-0

> <b_epik_Metal_Only>
0

> <s_lp_Force_Field>
OPLS_2005

> <r_lp_Energy>
35.563

> <b_lp_Chiralities_Consistent>
1

> <s_lp_Variant>
AV-unprocessed.smi:204-2

> <Gold.Version>
5.8.1

> <Gold.Id.Protein>
6NUR|6NUR_protein|mol2

> <Gold.PLP.Fitness>
45.8054

> <Gold.PLP.PLP>
-36.1496

> <Gold.PLP.part.hbond>
-3.9294

> <Gold.PLP.part.metal>
0.0000

> <Gold.PLP.part.buried>
0.7082

> <Gold.PLP.part.nonpolar>
-36.8207

> <Gold.PLP.part.repulsive>
3.2712

> <Gold.PLP.ligand.clash>
0.0000

> <Gold.PLP.ligand.torsion>
1.2338

> <Gold.PLP.Chemscore.Hbond>
2.7735

> <Gold.PLP.Chemscore.CHOScore>
1.0000

> <Gold.PLP.Chemscore.Metal>
0.0000

> <Gold.Chemscore.Hbonds>
donor molecule, donor type, donor heavy atom, donor atom, acceptor molecule, acceptor atom, score
      L1  H    23    47       P1  7921  1.00
      P1  H  7954  7966       L1    17  0.75
      P1  H 10752 10765       L1     3  1.00
      L1  C    18    42       P1  7921  1.00

> <Gold.PLP.Chemscore.Internal.Correction>
0.8030

> <Gold.Rescore>
     Score         DG    S(hbond)    S(metal)    S(lipo)     H(rot)  DE(clash)    DE(int)     intcor
      9.97     -12.96       1.81        0.00      84.96       3.33       1.76       1.23       ----

> <Gold.Chemscore.Fitness>
9.9734

> <Gold.Chemscore.DG>
-12.9588

> <Gold.Chemscore.ZeroCoef>
-5.4800

> <Gold.Chemscore.Hbond>
1.8122

> <Gold.Chemscore.Metal>
0.0000

> <Gold.Chemscore.Lipo>
84.9646

> <Gold.Chemscore.Internal_Hbond>
0.0000

> <Gold.Chemscore.DEClash>
1.7565

> <Gold.Chemscore.DEInternal>
1.2288

> <Gold.Chemscore.Rot>
3.3261

> <Gold.Chemscore.Internal.Correction>
   9.000000E+99

> <Gold.Chemscore.Hbonds>
donor molecule, donor type, donor heavy atom, donor atom, acceptor molecule, acceptor atom, score
      L1  H    23    47       P1  7921  0.55
      P1  H  7954  7966       L1    17  0.13
      P1  H 10752 10765       L1     3  0.70

> <Gold.Chemscore.Hbond.Weighted>
-6.0528

> <Gold.Chemscore.Metal.Weighted>
-0.0000

> <Gold.Chemscore.Lipo.Weighted>
-9.9409

> <Gold.Chemscore.Internal_Hbond.Weighted>
0.0000

> <Gold.Chemscore.DEClash.Weighted>
1.7565

> <Gold.Chemscore.DEInternal.Weighted>
1.2288

> <Gold.Chemscore.Rot.Weighted>
8.5149

> <Gold.Chemscore.Internal.Correction.Weighted>
   9.000000E+99

> <Gold.Protein.RotatedTorsions>
[ 6907 6896 6895 6894 ] final -119.54 input  -60.11 | X-H torsion
[ 7974 7965 7964 7962 ] final   77.18 input  175.53 | X-H torsion
[ 8008 7997 7996 7995 ] final  -95.37 input   59.86 | X-H torsion
[ 10167 10162 10161 10158 ] final  109.83 input  -65.29 | X-H torsion
[ 10718 10713 10712 10709 ] final  158.75 input   66.30 | X-H torsion
[ 10763 10752 10751 10750 ] final  167.98 input  -60.55 | X-H torsion
[ 11005 11000 10999 10996 ] final  -28.02 input  -57.11 | X-H torsion

> <Gold.Protein.ActiveResidues>
 VAL166  LYS551  ARG553  GLY616  TRP617  ASP618  TYR619  PRO620  LYS621  CYS622 
 ASP623  PHE694  ASN695  SER759  ASP760  ASP761  ALA762  ILE779  LEU786  VAL792 
 PHE793  MET794  SER795  GLU796  ALA797  LYS798  CYS799  TRP800  GLU811  SER814 

> <Gold.Protein.RotatedAtoms>
  150.8314  133.8085  159.3096 H   0  0  0  0  0  0  0  0  0  0  0  0  # atno 6907 bound_to 6896
  151.5813  135.1056  160.0027 H   0  0  0  0  0  0  0  0  0  0  0  0  # atno 6908 bound_to 6896
  152.4393  133.7377  159.6679 H   0  0  0  0  0  0  0  0  0  0  0  0  # atno 6909 bound_to 6896
  145.6933  139.2559  143.1747 H   0  0  0  0  0  0  0  0  0  0  0  0  # atno 7974 bound_to 7965
  154.7605  140.0480  157.0969 H   0  0  0  0  0  0  0  0  0  0  0  0  # atno 8008 bound_to 7997
  154.9944  140.3117  155.4873 H   0  0  0  0  0  0  0  0  0  0  0  0  # atno 8009 bound_to 7997
  156.2903  140.2213  156.5050 H   0  0  0  0  0  0  0  0  0  0  0  0  # atno 8010 bound_to 7997
  139.6736  144.7124  151.1643 H   0  0  0  0  0  0  0  0  0  0  0  0  # atno 10167 bound_to 10162
  157.1737  131.0616  151.2169 H   0  0  0  0  0  0  0  0  0  0  0  0  # atno 10718 bound_to 10713
  154.3618  135.2753  155.2316 H   0  0  0  0  0  0  0  0  0  0  0  0  # atno 10763 bound_to 10752
  154.4501  135.5933  153.6189 H   0  0  0  0  0  0  0  0  0  0  0  0  # atno 10764 bound_to 10752
  152.9843  135.6039  154.3839 H   0  0  0  0  0  0  0  0  0  0  0  0  # atno 10765 bound_to 10752
  140.9171  133.7423  156.0750 H   0  0  0  0  0  0  0  0  0  0  0  0  # atno 11005 bound_to 11000
  146.0863  140.7707  142.9617 LP  0  0  0  0  0  0  0  0  0  0  0  0  # atno 17320 bound_to 7965
  144.6990  140.3567  143.7171 LP  0  0  0  0  0  0  0  0  0  0  0  0  # atno 17321 bound_to 7965
  140.7627  143.5806  150.8899 LP  0  0  0  0  0  0  0  0  0  0  0  0  # atno 17342 bound_to 10162
  139.9473  143.6312  152.3038 LP  0  0  0  0  0  0  0  0  0  0  0  0  # atno 17343 bound_to 10162
  157.4019  130.7338  149.6773 LP  0  0  0  0  0  0  0  0  0  0  0  0  # atno 17370 bound_to 10713
  155.9734  130.4118  150.4001 LP  0  0  0  0  0  0  0  0  0  0  0  0  # atno 17371 bound_to 10713
  140.8036  134.3481  157.5432 LP  0  0  0  0  0  0  0  0  0  0  0  0  # atno 17394 bound_to 11000
  139.8768  134.9212  156.3270 LP  0  0  0  0  0  0  0  0  0  0  0  0  # atno 17395 bound_to 11000

$$$$
