AV-unprocessed.smi:3285|AV-procd|sdf|12583|dock3
  -GOLD-   2272018503D 1   1.00000     0.00000
 Structure written by MMmdl.
 45 46  0  0  0  0  0  0  0  0  2 V2000
  146.3859  141.8635  154.0508 C   0  0  0  0  0  0  0  0  0  0  0  0
  147.2793  140.6566  154.0631 C   0  0  0  0  0  0  0  0  0  0  0  0
  146.7565  139.4692  153.8102 N   0  0  0  0  0  0  0  0  0  0  0  0
  147.8127  138.5579  153.8981 O   0  0  0  0  0  0  0  0  0  0  0  0
  148.9445  139.2402  154.2049 C   0  0  0  0  0  0  0  0  0  0  0  0
  150.1877  138.4289  154.3486 C   0  0  0  0  0  0  0  0  0  0  0  0
  148.6786  140.5775  154.3229 C   0  0  0  0  0  0  0  0  0  0  0  0
  149.6294  141.6965  154.6548 C   0  0  0  0  0  0  0  0  0  0  0  0
  150.3025  141.4739  156.0151 C   0  0  0  0  0  0  0  0  0  0  0  0
  150.8531  142.7358  156.5475 N   0  3  0  0  0  0  0  0  0  0  0  0
  150.9873  142.7814  158.0194 C   0  0  1  0  0  0  0  0  0  0  0  0
  152.0838  141.8108  158.4811 C   0  0  0  0  0  0  0  0  0  0  0  0
  152.2584  141.8677  160.0044 C   0  0  0  0  0  0  0  0  0  0  0  0
  152.5827  143.2929  160.4967 C   0  0  2  0  0  0  0  0  0  0  0  0
  152.7579  143.2868  162.0260 C   0  0  0  0  0  0  0  0  0  0  0  0
  151.5044  144.3003  160.0138 C   0  0  1  0  0  0  0  0  0  0  0  0
  151.8215  145.7523  160.4150 C   0  0  0  0  0  0  0  0  0  0  0  0
  151.3149  144.2106  158.4840 C   0  0  0  0  0  0  0  0  0  0  0  0
  146.9297  142.7690  154.3186 H   0  0  0  0  0  0  0  0  0  0  0  0
  145.5661  141.7506  154.7608 H   0  0  0  0  0  0  0  0  0  0  0  0
  145.9517  142.0188  153.0629 H   0  0  0  0  0  0  0  0  0  0  0  0
  151.0416  139.0564  154.6034 H   0  0  0  0  0  0  0  0  0  0  0  0
  150.4178  137.9075  153.4195 H   0  0  0  0  0  0  0  0  0  0  0  0
  150.0719  137.6826  155.1347 H   0  0  0  0  0  0  0  0  0  0  0  0
  150.3958  141.7887  153.8843 H   0  0  0  0  0  0  0  0  0  0  0  0
  149.1084  142.6544  154.6610 H   0  0  0  0  0  0  0  0  0  0  0  0
  149.5837  141.0663  156.7274 H   0  0  0  0  0  0  0  0  0  0  0  0
  151.1107  140.7474  155.9154 H   0  0  0  0  0  0  0  0  0  0  0  0
  151.7687  142.8731  156.1442 H   0  0  0  0  0  0  0  0  0  0  0  0
  150.0457  142.4761  158.4797 H   0  0  0  0  0  0  0  0  0  0  0  0
  151.8349  140.7928  158.1789 H   0  0  0  0  0  0  0  0  0  0  0  0
  153.0300  142.0562  157.9965 H   0  0  0  0  0  0  0  0  0  0  0  0
  151.3477  141.5095  160.4867 H   0  0  0  0  0  0  0  0  0  0  0  0
  153.0521  141.1812  160.3017 H   0  0  0  0  0  0  0  0  0  0  0  0
  153.5389  143.5839  160.0592 H   0  0  0  0  0  0  0  0  0  0  0  0
  151.8183  143.0640  162.5326 H   0  0  0  0  0  0  0  0  0  0  0  0
  153.1213  144.2444  162.3975 H   0  0  0  0  0  0  0  0  0  0  0  0
  153.4849  142.5341  162.3323 H   0  0  0  0  0  0  0  0  0  0  0  0
  150.5555  144.0311  160.4806 H   0  0  0  0  0  0  0  0  0  0  0  0
  152.7969  146.0643  160.0405 H   0  0  0  0  0  0  0  0  0  0  0  0
  151.8201  145.8837  161.4965 H   0  0  0  0  0  0  0  0  0  0  0  0
  151.0777  146.4408  160.0133 H   0  0  0  0  0  0  0  0  0  0  0  0
  152.2208  144.5589  157.9851 H   0  0  0  0  0  0  0  0  0  0  0  0
  150.5152  144.8849  158.1734 H   0  0  0  0  0  0  0  0  0  0  0  0
  150.2577  143.4979  156.2562 H   0  0  0  0  0  0  0  0  0  0  0  0
  1  2  1  0  0  0  0
  1 19  1  0  0  0  0
  1 20  1  0  0  0  0
  1 21  1  0  0  0  0
  2  7  1  0  0  0  0
  2  3  2  0  0  0  0
  3  4  1  0  0  0  0
  4  5  1  0  0  0  0
  5  6  1  0  0  0  0
  5  7  2  0  0  0  0
  6 22  1  0  0  0  0
  6 23  1  0  0  0  0
  6 24  1  0  0  0  0
  7  8  1  0  0  0  0
  8  9  1  0  0  0  0
  8 25  1  0  0  0  0
  8 26  1  0  0  0  0
  9 10  1  0  0  0  0
  9 27  1  0  0  0  0
  9 28  1  0  0  0  0
 10 11  1  0  0  0  0
 10 29  1  0  0  0  0
 10 45  1  0  0  0  0
 11 18  1  0  0  0  0
 11 12  1  0  0  0  0
 11 30  1  0  0  0  0
 12 13  1  0  0  0  0
 12 31  1  0  0  0  0
 12 32  1  0  0  0  0
 13 14  1  0  0  0  0
 13 33  1  0  0  0  0
 13 34  1  0  0  0  0
 14 15  1  0  0  0  0
 14 16  1  0  0  0  0
 14 35  1  0  0  0  0
 15 36  1  0  0  0  0
 15 37  1  0  0  0  0
 15 38  1  0  0  0  0
 16 17  1  0  0  0  0
 16 18  1  0  0  0  0
 16 39  1  0  0  0  0
 17 40  1  0  0  0  0
 17 41  1  0  0  0  0
 17 42  1  0  0  0  0
 18 43  1  0  0  0  0
 18 44  1  0  0  0  0
M  CHG  1  10   1
M  END
> <s_m_source_file>
AV-unprocessed.smi

> <i_m_source_file_index>
3285

> <i_lp_mmshare_version>
43012

> <i_f3d_flags>
0

> <s_epik_input>
W0NIM11jMW5vYyhbQ0gzXSljMVtDSDJdW0NIMl1bTkhdW0NAQEhdMltDSDJdW0NIMl1bQ0BASF0oW0NIM10pW0NAQEhdKFtDSDNdKVtDSDJdMg==

> <s_epik_cmdline>
J2VwaWtfcHl0aG9uJywgJy1waCcsICc3LjAnLCAnLXRuJywgJzgnLCAnLW1hJywgJzIwMCcsICctbWV0YWxfYmluZGluZycsICctaW1hZScsICc8aW5maWxlLm1hZT4nLCAnLW9tYWUnLCAnPG91dGZpbGUubWFlPic=

> <r_lp_tautomer_probability>
1

> <r_epik_Ionization_Penalty>
0.000204615

> <r_epik_Ionization_Penalty_Charging>
0.000204615

> <r_epik_Ionization_Penalty_Neutral>
9.28663e-11

> <r_epik_State_Penalty>
-0

> <r_epik_Charging_Adjusted_Penalty>
0.000204615

> <i_epik_Tot_Q>
1

> <i_epik_Tot_abs_Q>
1

> <r_epik_Metal_State_Penalty>
-0

> <b_epik_Metal_Only>
0

> <s_lp_Force_Field>
OPLS_2005

> <r_lp_Energy>
11.6607

> <b_lp_Chiralities_Consistent>
1

> <s_lp_Variant>
AV-unprocessed.smi:3285-4

> <Gold.Version>
5.8.1

> <Gold.Id.Protein>
6NUR|6NUR_protein|mol2

> <Gold.PLP.Fitness>
47.8825

> <Gold.PLP.PLP>
-42.4040

> <Gold.PLP.part.hbond>
-1.0000

> <Gold.PLP.part.metal>
0.0000

> <Gold.PLP.part.buried>
-3.6150

> <Gold.PLP.part.nonpolar>
-38.3959

> <Gold.PLP.part.repulsive>
0.3955

> <Gold.PLP.ligand.clash>
0.0000

> <Gold.PLP.ligand.torsion>
0.2757

> <Gold.PLP.Chemscore.Hbond>
2.0000

> <Gold.PLP.Chemscore.CHOScore>
0.0000

> <Gold.PLP.Chemscore.Metal>
0.0000

> <Gold.Chemscore.Hbonds>
donor molecule, donor type, donor heavy atom, donor atom, acceptor molecule, acceptor atom, score
      L1  H    10    45       P1  8028  2.00

> <Gold.PLP.Chemscore.Internal.Correction>
0.0299

> <Gold.Rescore>
     Score         DG    S(hbond)    S(metal)    S(lipo)     H(rot)  DE(clash)    DE(int)     intcor
     20.60     -21.06       1.00        0.00     134.06       1.35       0.13       0.33       ----

> <Gold.Chemscore.Fitness>
20.6002

> <Gold.Chemscore.DG>
-21.0581

> <Gold.Chemscore.ZeroCoef>
-5.4800

> <Gold.Chemscore.Hbond>
1.0000

> <Gold.Chemscore.Metal>
0.0000

> <Gold.Chemscore.Lipo>
134.0614

> <Gold.Chemscore.Internal_Hbond>
0.0000

> <Gold.Chemscore.DEClash>
0.1311

> <Gold.Chemscore.DEInternal>
0.3269

> <Gold.Chemscore.Rot>
1.3465

> <Gold.Chemscore.Internal.Correction>
   9.000000E+99

> <Gold.Chemscore.Hbonds>
donor molecule, donor type, donor heavy atom, donor atom, acceptor molecule, acceptor atom, score
      L1  H    10    45       P1  8028  1.00

> <Gold.Chemscore.Hbond.Weighted>
-3.3399

> <Gold.Chemscore.Metal.Weighted>
-0.0000

> <Gold.Chemscore.Lipo.Weighted>
-15.6852

> <Gold.Chemscore.Internal_Hbond.Weighted>
0.0000

> <Gold.Chemscore.DEClash.Weighted>
0.1311

> <Gold.Chemscore.DEInternal.Weighted>
0.3269

> <Gold.Chemscore.Rot.Weighted>
3.4470

> <Gold.Chemscore.Internal.Correction.Weighted>
   9.000000E+99

> <Gold.Protein.RotatedTorsions>
[ 6907 6896 6895 6894 ] final  -21.09 input  -60.11 | X-H torsion
[ 7974 7965 7964 7962 ] final -154.34 input  175.53 | X-H torsion
[ 8008 7997 7996 7995 ] final  -24.20 input   59.86 | X-H torsion
[ 10167 10162 10161 10158 ] final    9.00 input  -65.29 | X-H torsion
[ 10718 10713 10712 10709 ] final   72.24 input   66.30 | X-H torsion
[ 10763 10752 10751 10750 ] final -158.18 input  -60.55 | X-H torsion
[ 11005 11000 10999 10996 ] final  -33.09 input  -57.11 | X-H torsion

> <Gold.Protein.ActiveResidues>
 VAL166  LYS551  ARG553  GLY616  TRP617  ASP618  TYR619  PRO620  LYS621  CYS622 
 ASP623  PHE694  ASN695  SER759  ASP760  ASP761  ALA762  ILE779  LEU786  VAL792 
 PHE793  MET794  SER795  GLU796  ALA797  LYS798  CYS799  TRP800  GLU811  SER814 

> <Gold.Protein.RotatedAtoms>
  151.2384  135.0580  159.9015 H   0  0  0  0  0  0  0  0  0  0  0  0  # atno 6907 bound_to 6896
  152.5396  134.0460  159.8099 H   0  0  0  0  0  0  0  0  0  0  0  0  # atno 6908 bound_to 6896
  151.0650  133.5463  159.2663 H   0  0  0  0  0  0  0  0  0  0  0  0  # atno 6909 bound_to 6896
  144.7694  140.4401  143.5918 H   0  0  0  0  0  0  0  0  0  0  0  0  # atno 7974 bound_to 7965
  154.4542  140.1960  156.0428 H   0  0  0  0  0  0  0  0  0  0  0  0  # atno 8008 bound_to 7997
  156.0712  140.3284  155.7550 H   0  0  0  0  0  0  0  0  0  0  0  0  # atno 8009 bound_to 7997
  155.5260  140.0574  157.2889 H   0  0  0  0  0  0  0  0  0  0  0  0  # atno 8010 bound_to 7997
  140.6281  143.8056  150.7259 H   0  0  0  0  0  0  0  0  0  0  0  0  # atno 10167 bound_to 10162
  157.6491  130.9568  150.0900 H   0  0  0  0  0  0  0  0  0  0  0  0  # atno 10718 bound_to 10713
  154.7577  135.3109  154.8439 H   0  0  0  0  0  0  0  0  0  0  0  0  # atno 10763 bound_to 10752
  153.9208  135.6796  153.4752 H   0  0  0  0  0  0  0  0  0  0  0  0  # atno 10764 bound_to 10752
  153.1175  135.4838  154.9070 H   0  0  0  0  0  0  0  0  0  0  0  0  # atno 10765 bound_to 10752
  140.9606  133.7167  156.1363 H   0  0  0  0  0  0  0  0  0  0  0  0  # atno 11005 bound_to 11000
  145.6370  139.1544  143.2937 LP  0  0  0  0  0  0  0  0  0  0  0  0  # atno 17320 bound_to 7965
  146.1828  140.6469  142.9181 LP  0  0  0  0  0  0  0  0  0  0  0  0  # atno 17321 bound_to 7965
  140.1661  143.4234  152.2033 LP  0  0  0  0  0  0  0  0  0  0  0  0  # atno 17342 bound_to 10162
  139.5498  144.7328  151.4469 LP  0  0  0  0  0  0  0  0  0  0  0  0  # atno 17343 bound_to 10162
  156.1852  130.3652  149.8982 LP  0  0  0  0  0  0  0  0  0  0  0  0  # atno 17370 bound_to 10713
  156.6924  130.8901  151.3590 LP  0  0  0  0  0  0  0  0  0  0  0  0  # atno 17371 bound_to 10713
  140.7473  134.4084  157.5546 LP  0  0  0  0  0  0  0  0  0  0  0  0  # atno 17394 bound_to 11000
  139.8877  134.8876  156.2516 LP  0  0  0  0  0  0  0  0  0  0  0  0  # atno 17395 bound_to 11000

$$$$
