AV-unprocessed.smi:1047|AV-procd|sdf|4600|dock9
  -GOLD-   22720 3 93D 1   1.00000     0.00000
 Structure written by MMmdl.
 57 59  0  0  0  0  0  0  0  0  3 V2000
  148.3462  132.2480  161.5843 C   0  0  0  0  0  0  0  0  0  0  0  0
  146.9912  132.7513  161.0671 C   0  0  0  0  0  0  0  0  0  0  0  0
  146.9206  134.2324  161.0065 N   0  3  1  0  0  0  0  0  0  0  0  0
  146.8631  134.8799  162.3405 C   0  0  0  0  0  0  0  0  0  0  0  0
  146.7424  136.4059  162.1922 C   0  0  0  0  0  0  0  0  0  0  0  0
  147.8338  136.9057  161.4301 O   0  0  0  0  0  0  0  0  0  0  0  0
  147.8755  136.3509  160.1197 C   0  0  1  0  0  0  0  0  0  0  0  0
  148.9972  137.0383  159.3226 C   0  0  0  0  0  0  0  0  0  0  0  0
  149.1258  136.4891  157.9751 N   0  0  0  0  0  0  0  0  0  0  0  0
  149.6735  137.4359  157.0090 C   0  0  0  0  0  0  0  0  0  0  0  0
  150.8142  138.2647  157.6240 C   0  0  1  0  0  0  0  0  0  0  0  0
  151.7666  137.3770  158.1767 O   0  0  0  0  0  0  0  0  0  0  0  0
  151.4991  139.1576  156.5710 C   0  0  0  0  0  0  0  0  0  0  0  0
  151.0803  140.5647  156.6560 N   0  0  0  0  0  0  0  0  0  0  0  0
  150.3092  141.2915  155.8022 C   0  0  0  0  0  0  0  0  0  0  0  0
  150.2056  142.5500  156.3115 N   0  3  0  0  0  0  0  0  0  0  0  0
  150.9200  142.6284  157.5086 C   0  0  0  0  0  0  0  0  0  0  0  0
  151.1100  143.6897  158.3855 C   0  0  0  0  0  0  0  0  0  0  0  0
  151.8976  143.4455  159.5330 C   0  0  0  0  0  0  0  0  0  0  0  0
  152.1272  144.5856  160.5107 C   0  0  0  0  0  0  0  0  0  0  0  0
  152.4623  142.1658  159.7715 C   0  0  0  0  0  0  0  0  0  0  0  0
  153.3006  141.9116  161.0128 C   0  0  0  0  0  0  0  0  0  0  0  0
  152.2589  141.1000  158.8659 C   0  0  0  0  0  0  0  0  0  0  0  0
  151.4828  141.3577  157.7379 C   0  0  0  0  0  0  0  0  0  0  0  0
  148.0168  134.8156  160.1975 C   0  0  0  0  0  0  0  0  0  0  0  0
  148.3329  131.1640  161.6990 H   0  0  0  0  0  0  0  0  0  0  0  0
  148.5806  132.6793  162.5578 H   0  0  0  0  0  0  0  0  0  0  0  0
  149.1609  132.4898  160.9024 H   0  0  0  0  0  0  0  0  0  0  0  0
  146.7683  132.3237  160.0884 H   0  0  0  0  0  0  0  0  0  0  0  0
  146.2195  132.3862  161.7463 H   0  0  0  0  0  0  0  0  0  0  0  0
  146.0109  134.5081  162.9086 H   0  0  0  0  0  0  0  0  0  0  0  0
  147.7602  134.6310  162.9097 H   0  0  0  0  0  0  0  0  0  0  0  0
  145.7976  136.6772  161.7183 H   0  0  0  0  0  0  0  0  0  0  0  0
  146.7530  136.8805  163.1735 H   0  0  0  0  0  0  0  0  0  0  0  0
  146.9335  136.5891  159.6224 H   0  0  0  0  0  0  0  0  0  0  0  0
  148.7963  138.1088  159.2662 H   0  0  0  0  0  0  0  0  0  0  0  0
  149.9391  136.9283  159.8613 H   0  0  0  0  0  0  0  0  0  0  0  0
  149.7011  135.6531  157.9995 H   0  0  0  0  0  0  0  0  0  0  0  0
  150.0135  136.9214  156.1091 H   0  0  0  0  0  0  0  0  0  0  0  0
  148.8775  138.1118  156.6934 H   0  0  0  0  0  0  0  0  0  0  0  0
  150.4262  138.9003  158.4214 H   0  0  0  0  0  0  0  0  0  0  0  0
  151.3870  136.5126  158.2132 H   0  0  0  0  0  0  0  0  0  0  0  0
  152.5853  139.0959  156.6410 H   0  0  0  0  0  0  0  0  0  0  0  0
  151.2401  138.8110  155.5696 H   0  0  0  0  0  0  0  0  0  0  0  0
  149.8603  140.9349  154.8862 H   0  0  0  0  0  0  0  0  0  0  0  0
  150.6741  144.6601  158.1984 H   0  0  0  0  0  0  0  0  0  0  0  0
  153.1929  144.7876  160.6213 H   0  0  0  0  0  0  0  0  0  0  0  0
  151.7172  144.3389  161.4905 H   0  0  0  0  0  0  0  0  0  0  0  0
  151.6490  145.5048  160.1706 H   0  0  0  0  0  0  0  0  0  0  0  0
  153.6445  140.8777  161.0574 H   0  0  0  0  0  0  0  0  0  0  0  0
  152.7191  142.1074  161.9142 H   0  0  0  0  0  0  0  0  0  0  0  0
  154.1796  142.5561  161.0205 H   0  0  0  0  0  0  0  0  0  0  0  0
  152.6877  140.1267  159.0517 H   0  0  0  0  0  0  0  0  0  0  0  0
  148.9732  134.5366  160.6429 H   0  0  0  0  0  0  0  0  0  0  0  0
  147.9971  134.3946  159.1914 H   0  0  0  0  0  0  0  0  0  0  0  0
  146.0616  134.4623  160.5276 H   0  0  0  0  0  0  0  0  0  0  0  0
  149.6841  143.2980  155.8727 H   0  0  0  0  0  0  0  0  0  0  0  0
  1  2  1  0  0  0  0
  1 26  1  0  0  0  0
  1 27  1  0  0  0  0
  1 28  1  0  0  0  0
  2  3  1  0  0  0  0
  2 29  1  0  0  0  0
  2 30  1  0  0  0  0
  3 25  1  0  0  0  0
  3  4  1  0  0  0  0
  3 56  1  0  0  0  0
  4  5  1  0  0  0  0
  4 31  1  0  0  0  0
  4 32  1  0  0  0  0
  5  6  1  0  0  0  0
  5 33  1  0  0  0  0
  5 34  1  0  0  0  0
  6  7  1  0  0  0  0
  7  8  1  0  0  0  0
  7 25  1  0  0  0  0
  7 35  1  0  0  0  0
  8  9  1  0  0  0  0
  8 36  1  0  0  0  0
  8 37  1  0  0  0  0
  9 10  1  0  0  0  0
  9 38  1  0  0  0  0
 10 11  1  0  0  0  0
 10 39  1  0  0  0  0
 10 40  1  0  0  0  0
 11 12  1  0  0  0  0
 11 13  1  0  0  0  0
 11 41  1  0  0  0  0
 12 42  1  0  0  0  0
 13 14  1  0  0  0  0
 13 43  1  0  0  0  0
 13 44  1  0  0  0  0
 14 24  1  0  0  0  0
 14 15  1  0  0  0  0
 15 16  2  0  0  0  0
 15 45  1  0  0  0  0
 16 17  1  0  0  0  0
 16 57  1  0  0  0  0
 17 24  2  0  0  0  0
 17 18  1  0  0  0  0
 18 19  2  0  0  0  0
 18 46  1  0  0  0  0
 19 20  1  0  0  0  0
 19 21  1  0  0  0  0
 20 47  1  0  0  0  0
 20 48  1  0  0  0  0
 20 49  1  0  0  0  0
 21 22  1  0  0  0  0
 21 23  2  0  0  0  0
 22 50  1  0  0  0  0
 22 51  1  0  0  0  0
 22 52  1  0  0  0  0
 23 24  1  0  0  0  0
 23 53  1  0  0  0  0
 25 54  1  0  0  0  0
 25 55  1  0  0  0  0
M  CHG  1   3   1
M  CHG  1  16   1
M  END
> <s_m_source_file>
AV-unprocessed.smi

> <i_m_source_file_index>
1047

> <i_lp_mmshare_version>
43012

> <i_f3d_flags>
0

> <s_epik_input>
W0NIM11bQ0gyXU4xW0NIMl1bQ0gyXU9bQ0BIXShbQ0gyXTEpW0NIMl1bTkhdW0NIMl1bQ0BIXShbT0hdKVtDSDJdbihbY0hdbjIpYyhjMjMpW2NIXWMoW0NIM10pYyhbY0hdMylbQ0gzXQ==

> <s_epik_cmdline>
J2VwaWtfcHl0aG9uJywgJy1waCcsICc3LjAnLCAnLXRuJywgJzgnLCAnLW1hJywgJzIwMCcsICctbWV0YWxfYmluZGluZycsICctaW1hZScsICc8aW5maWxlLm1hZT4nLCAnLW9tYWUnLCAnPG91dGZpbGUubWFlPic=

> <r_epik_Ionization_Penalty>
2.03028

> <r_epik_Ionization_Penalty_Charging>
1.21256

> <r_epik_Ionization_Penalty_Neutral>
0.817715

> <r_epik_State_Penalty>
2.54959

> <r_epik_Charging_Adjusted_Penalty>
3.76215

> <i_epik_Tot_Q>
2

> <i_epik_Tot_abs_Q>
2

> <r_epik_Metal_State_Penalty>
6.52811

> <b_epik_Metal_Only>
0

> <s_lp_Force_Field>
OPLS_2005

> <r_lp_Energy>
36.9073

> <b_lp_Chiralities_Consistent>
1

> <s_lp_Variant>
AV-unprocessed.smi:1047-41

> <Gold.Version>
5.8.1

> <Gold.Id.Protein>
6NUR|6NUR_protein|mol2

> <Gold.PLP.Fitness>
60.7864

> <Gold.PLP.PLP>
-51.3767

> <Gold.PLP.part.hbond>
-3.0000

> <Gold.PLP.part.metal>
0.0000

> <Gold.PLP.part.buried>
-6.5690

> <Gold.PLP.part.nonpolar>
-41.5495

> <Gold.PLP.part.repulsive>
0.1330

> <Gold.PLP.ligand.clash>
0.0000

> <Gold.PLP.ligand.torsion>
1.0111

> <Gold.PLP.Chemscore.Hbond>
3.7520

> <Gold.PLP.Chemscore.CHOScore>
0.0000

> <Gold.PLP.Chemscore.Metal>
0.0000

> <Gold.Chemscore.Hbonds>
donor molecule, donor type, donor heavy atom, donor atom, acceptor molecule, acceptor atom, score
      L1  H    16    57       P1  8028  2.00
      P1  H  6931  6943       L1     6  1.00
      P1  H  6934  6947       L1     6  0.33

> <Gold.PLP.Chemscore.Internal.Correction>
0.1759

> <Gold.Rescore>
     Score         DG    S(hbond)    S(metal)    S(lipo)     H(rot)  DE(clash)    DE(int)     intcor
     20.17     -21.27       2.14        0.00     133.24       2.71       0.10       0.99       ----

> <Gold.Chemscore.Fitness>
20.1674

> <Gold.Chemscore.DG>
-21.2668

> <Gold.Chemscore.ZeroCoef>
-5.4800

> <Gold.Chemscore.Hbond>
2.1353

> <Gold.Chemscore.Metal>
0.0000

> <Gold.Chemscore.Lipo>
133.2445

> <Gold.Chemscore.Internal_Hbond>
0.0000

> <Gold.Chemscore.DEClash>
0.1046

> <Gold.Chemscore.DEInternal>
0.9947

> <Gold.Chemscore.Rot>
2.7088

> <Gold.Chemscore.Internal.Correction>
   9.000000E+99

> <Gold.Chemscore.Hbonds>
donor molecule, donor type, donor heavy atom, donor atom, acceptor molecule, acceptor atom, score
      L1  H    16    57       P1  8028  0.99
      P1  H  6931  6943       L1     6  0.97
      P1  H  6934  6947       L1     6  0.03

> <Gold.Chemscore.Hbond.Weighted>
-7.1318

> <Gold.Chemscore.Metal.Weighted>
-0.0000

> <Gold.Chemscore.Lipo.Weighted>
-15.5896

> <Gold.Chemscore.Internal_Hbond.Weighted>
0.0000

> <Gold.Chemscore.DEClash.Weighted>
0.1046

> <Gold.Chemscore.DEInternal.Weighted>
0.9947

> <Gold.Chemscore.Rot.Weighted>
6.9346

> <Gold.Chemscore.Internal.Correction.Weighted>
   9.000000E+99

> <Gold.Protein.RotatedTorsions>
[ 6907 6896 6895 6894 ] final -106.55 input  -60.11 | X-H torsion
[ 7974 7965 7964 7962 ] final  153.87 input  175.53 | X-H torsion
[ 8008 7997 7996 7995 ] final  149.87 input   59.86 | X-H torsion
[ 10167 10162 10161 10158 ] final -146.33 input  -65.29 | X-H torsion
[ 10718 10713 10712 10709 ] final   83.90 input   66.30 | X-H torsion
[ 10763 10752 10751 10750 ] final   23.00 input  -60.55 | X-H torsion
[ 11005 11000 10999 10996 ] final  -42.23 input  -57.11 | X-H torsion

> <Gold.Protein.ActiveResidues>
 VAL166  LYS551  ARG553  GLY616  TRP617  ASP618  TYR619  PRO620  LYS621  CYS622 
 ASP623  PHE694  ASN695  SER759  ASP760  ASP761  ALA762  ILE779  LEU786  VAL792 
 PHE793  MET794  SER795  GLU796  ALA797  LYS798  CYS799  TRP800  GLU811  SER814 

> <Gold.Protein.RotatedAtoms>
  150.7395  133.9960  159.3622 H   0  0  0  0  0  0  0  0  0  0  0  0  # atno 6907 bound_to 6896
  151.7910  135.0733  160.0396 H   0  0  0  0  0  0  0  0  0  0  0  0  # atno 6908 bound_to 6896
  152.3207  133.5814  159.5779 H   0  0  0  0  0  0  0  0  0  0  0  0  # atno 6909 bound_to 6896
  144.8126  139.6858  143.6135 H   0  0  0  0  0  0  0  0  0  0  0  0  # atno 7974 bound_to 7965
  156.2738  140.2090  156.5926 H   0  0  0  0  0  0  0  0  0  0  0  0  # atno 8008 bound_to 7997
  154.6970  140.0524  157.0444 H   0  0  0  0  0  0  0  0  0  0  0  0  # atno 8009 bound_to 7997
  155.0787  140.3184  155.4611 H   0  0  0  0  0  0  0  0  0  0  0  0  # atno 8010 bound_to 7997
  139.7723  143.8220  152.2626 H   0  0  0  0  0  0  0  0  0  0  0  0  # atno 10167 bound_to 10162
  157.6888  131.0110  150.2592 H   0  0  0  0  0  0  0  0  0  0  0  0  # atno 10718 bound_to 10713
  153.0872  135.6636  153.9926 H   0  0  0  0  0  0  0  0  0  0  0  0  # atno 10763 bound_to 10752
  153.9532  135.2981  155.3439 H   0  0  0  0  0  0  0  0  0  0  0  0  # atno 10764 bound_to 10752
  154.7281  135.5135  153.8992 H   0  0  0  0  0  0  0  0  0  0  0  0  # atno 10765 bound_to 10752
  141.0301  133.6824  156.2566 H   0  0  0  0  0  0  0  0  0  0  0  0  # atno 11005 bound_to 11000
  146.2426  139.6032  142.9481 LP  0  0  0  0  0  0  0  0  0  0  0  0  # atno 17320 bound_to 7965
  145.5289  141.0428  143.2394 LP  0  0  0  0  0  0  0  0  0  0  0  0  # atno 17321 bound_to 7965
  139.8258  144.7275  150.9513 LP  0  0  0  0  0  0  0  0  0  0  0  0  # atno 17342 bound_to 10162
  140.7814  143.4116  151.0984 LP  0  0  0  0  0  0  0  0  0  0  0  0  # atno 17343 bound_to 10162
  156.3175  130.3781  149.7605 LP  0  0  0  0  0  0  0  0  0  0  0  0  # atno 17370 bound_to 10713
  156.5186  130.8205  151.3195 LP  0  0  0  0  0  0  0  0  0  0  0  0  # atno 17371 bound_to 10713
  140.6421  134.5154  157.5570 LP  0  0  0  0  0  0  0  0  0  0  0  0  # atno 17394 bound_to 11000
  139.9202  134.8164  156.1235 LP  0  0  0  0  0  0  0  0  0  0  0  0  # atno 17395 bound_to 11000

$$$$
