AV-unprocessed.smi:1830|AV-procd|sdf|7441|dock1
  -GOLD-   22720 9123D 1   1.00000     0.00000
 Structure written by MMmdl.
 52 55  0  0  0  0  0  0  0  0  1 V2000
  149.4485  133.7623  155.9780 O   0  0  0  0  0  0  0  0  0  0  0  0
  149.0220  134.3799  155.0021 C   0  0  0  0  0  0  0  0  0  0  0  0
  149.1913  135.6974  154.8283 N   0  0  0  0  0  0  0  0  0  0  0  0
  149.8845  136.5821  155.7574 C   0  0  0  0  0  0  0  0  0  0  0  0
  150.9629  137.4273  155.0454 C   0  0  1  0  0  0  0  0  0  0  0  0
  150.5565  138.9126  154.9003 C   0  0  0  0  0  0  0  0  0  0  0  0
  150.6669  139.5997  156.1734 N   0  0  0  0  0  0  0  0  0  0  0  0
  150.4043  141.0199  156.1713 C   0  0  0  0  0  0  0  0  0  0  0  0
  150.9853  141.5154  157.5065 C   0  0  0  0  0  0  0  0  0  0  0  0
  151.9928  140.4190  157.9182 C   0  0  0  0  0  0  0  0  0  0  0  0
  151.9986  139.4884  156.7037 C   0  0  1  0  0  0  0  0  0  0  0  0
  152.3686  138.0184  156.9415 C   0  0  0  0  0  0  0  0  0  0  0  0
  152.2363  137.3140  155.7025 O   0  0  0  0  0  0  0  0  0  0  0  0
  148.3157  133.8458  153.9920 N   0  0  0  0  0  0  0  0  0  0  0  0
  147.9300  132.4883  153.8011 C   0  0  0  0  0  0  0  0  0  0  0  0
  148.7006  131.4037  154.2868 C   0  0  0  0  0  0  0  0  0  0  0  0
  148.2640  130.0887  154.0474 C   0  0  0  0  0  0  0  0  0  0  0  0
  147.0749  129.9026  153.3216 C   0  0  0  0  0  0  0  0  0  0  0  0
  146.3391  130.9234  152.8376 N   0  0  0  0  0  0  0  0  0  0  0  0
  146.7487  132.1952  153.0671 C   0  0  0  0  0  0  0  0  0  0  0  0
  145.9746  133.2401  152.5204 N   0  0  0  0  0  0  0  0  0  0  0  0
  145.7896  133.1380  151.0756 C   0  0  0  0  0  0  0  0  0  0  0  0
  144.3773  133.6480  150.7838 C   0  0  0  0  0  0  0  0  0  0  0  0
  143.6290  133.3391  152.0743 C   0  0  0  0  0  0  0  0  0  0  0  0
  144.6956  133.5832  153.1407 C   0  0  0  0  0  0  0  0  0  0  0  0
  148.7998  136.1241  154.0015 H   0  0  0  0  0  0  0  0  0  0  0  0
  149.1637  137.2342  156.2537 H   0  0  0  0  0  0  0  0  0  0  0  0
  150.3260  135.9711  156.5444 H   0  0  0  0  0  0  0  0  0  0  0  0
  151.0922  137.0227  154.0409 H   0  0  0  0  0  0  0  0  0  0  0  0
  151.2078  139.3928  154.1686 H   0  0  0  0  0  0  0  0  0  0  0  0
  149.5400  138.9944  154.5140 H   0  0  0  0  0  0  0  0  0  0  0  0
  150.9256  141.4980  155.3403 H   0  0  0  0  0  0  0  0  0  0  0  0
  149.3395  141.2326  156.0710 H   0  0  0  0  0  0  0  0  0  0  0  0
  151.4629  142.4888  157.3907 H   0  0  0  0  0  0  0  0  0  0  0  0
  150.2025  141.6133  158.2598 H   0  0  0  0  0  0  0  0  0  0  0  0
  152.9840  140.8179  158.1353 H   0  0  0  0  0  0  0  0  0  0  0  0
  151.6351  139.8952  158.8056 H   0  0  0  0  0  0  0  0  0  0  0  0
  152.7021  139.8984  155.9758 H   0  0  0  0  0  0  0  0  0  0  0  0
  153.3971  137.9332  157.2922 H   0  0  0  0  0  0  0  0  0  0  0  0
  151.7320  137.5690  157.7043 H   0  0  0  0  0  0  0  0  0  0  0  0
  147.9437  134.4980  153.3173 H   0  0  0  0  0  0  0  0  0  0  0  0
  149.6237  131.5554  154.8244 H   0  0  0  0  0  0  0  0  0  0  0  0
  148.8306  129.2429  154.4077 H   0  0  0  0  0  0  0  0  0  0  0  0
  146.7089  128.9076  153.1163 H   0  0  0  0  0  0  0  0  0  0  0  0
  146.5396  133.7203  150.5401 H   0  0  0  0  0  0  0  0  0  0  0  0
  145.8836  132.0984  150.7568 H   0  0  0  0  0  0  0  0  0  0  0  0
  144.3982  134.7263  150.6200 H   0  0  0  0  0  0  0  0  0  0  0  0
  143.9297  133.1809  149.9061 H   0  0  0  0  0  0  0  0  0  0  0  0
  142.7402  133.9547  152.2134 H   0  0  0  0  0  0  0  0  0  0  0  0
  143.3240  132.2918  152.0854 H   0  0  0  0  0  0  0  0  0  0  0  0
  144.4793  133.0415  154.0615 H   0  0  0  0  0  0  0  0  0  0  0  0
  144.7272  134.6423  153.3982 H   0  0  0  0  0  0  0  0  0  0  0  0
  1  2  2  0  0  0  0
  2  3  1  0  0  0  0
  2 14  1  0  0  0  0
  3  4  1  0  0  0  0
  3 26  1  0  0  0  0
  4  5  1  0  0  0  0
  4 27  1  0  0  0  0
  4 28  1  0  0  0  0
  5 13  1  0  0  0  0
  5  6  1  0  0  0  0
  5 29  1  0  0  0  0
  6  7  1  0  0  0  0
  6 30  1  0  0  0  0
  6 31  1  0  0  0  0
  7 11  1  0  0  0  0
  7  8  1  0  0  0  0
  8  9  1  0  0  0  0
  8 32  1  0  0  0  0
  8 33  1  0  0  0  0
  9 10  1  0  0  0  0
  9 34  1  0  0  0  0
  9 35  1  0  0  0  0
 10 11  1  0  0  0  0
 10 36  1  0  0  0  0
 10 37  1  0  0  0  0
 11 12  1  0  0  0  0
 11 38  1  0  0  0  0
 12 13  1  0  0  0  0
 12 39  1  0  0  0  0
 12 40  1  0  0  0  0
 14 15  1  0  0  0  0
 14 41  1  0  0  0  0
 15 20  1  0  0  0  0
 15 16  2  0  0  0  0
 16 17  1  0  0  0  0
 16 42  1  0  0  0  0
 17 18  2  0  0  0  0
 17 43  1  0  0  0  0
 18 19  1  0  0  0  0
 18 44  1  0  0  0  0
 19 20  2  0  0  0  0
 20 21  1  0  0  0  0
 21 25  1  0  0  0  0
 21 22  1  0  0  0  0
 22 23  1  0  0  0  0
 22 45  1  0  0  0  0
 22 46  1  0  0  0  0
 23 24  1  0  0  0  0
 23 47  1  0  0  0  0
 23 48  1  0  0  0  0
 24 25  1  0  0  0  0
 24 49  1  0  0  0  0
 24 50  1  0  0  0  0
 25 51  1  0  0  0  0
 25 52  1  0  0  0  0
M  END
> <s_m_source_file>
AV-unprocessed.smi

> <i_m_source_file_index>
1830

> <i_lp_mmshare_version>
43012

> <i_f3d_flags>
0

> <s_epik_input>
W0NIMl0xW0NIMl1bQ0gyXVtDQEhdKE4xMilbQ0gyXU9bQ0BASF0oW0NIMl0yKVtDSDJdW05IXUMoPU8pW05IXWMzW2NIXVtjSF1bY0hdbmMzTjRbQ0gyXVtDSDJdW0NIMl1bQ0gyXTQ=

> <s_epik_cmdline>
J2VwaWtfcHl0aG9uJywgJy1waCcsICc3LjAnLCAnLXRuJywgJzgnLCAnLW1hJywgJzIwMCcsICctbWV0YWxfYmluZGluZycsICctaW1hZScsICc8aW5maWxlLm1hZT4nLCAnLW9tYWUnLCAnPG91dGZpbGUubWFlPic=

> <r_lp_tautomer_probability>
1

> <r_epik_Ionization_Penalty>
1.16487

> <r_epik_Ionization_Penalty_Charging>
0

> <r_epik_Ionization_Penalty_Neutral>
1.16487

> <r_epik_State_Penalty>
1.21807

> <r_epik_Charging_Adjusted_Penalty>
1.21807

> <i_epik_Tot_Q>
0

> <i_epik_Tot_abs_Q>
0

> <r_epik_Metal_State_Penalty>
1.19922

> <b_epik_Metal_Only>
0

> <s_lp_Force_Field>
OPLS_2005

> <r_lp_Energy>
78.6276

> <b_lp_Chiralities_Consistent>
1

> <s_lp_Variant>
AV-unprocessed.smi:1830-10

> <Gold.Version>
5.8.1

> <Gold.Id.Protein>
6NUR|6NUR_protein|mol2

> <Gold.PLP.Fitness>
47.9176

> <Gold.PLP.PLP>
-43.1174

> <Gold.PLP.part.hbond>
-3.0000

> <Gold.PLP.part.metal>
0.0000

> <Gold.PLP.part.buried>
-3.1239

> <Gold.PLP.part.nonpolar>
-35.1012

> <Gold.PLP.part.repulsive>
0.7292

> <Gold.PLP.ligand.clash>
0.0000

> <Gold.PLP.ligand.torsion>
1.0912

> <Gold.PLP.Chemscore.Hbond>
2.2725

> <Gold.PLP.Chemscore.CHOScore>
0.0000

> <Gold.PLP.Chemscore.Metal>
0.0000

> <Gold.Chemscore.Hbonds>
donor molecule, donor type, donor heavy atom, donor atom, acceptor molecule, acceptor atom, score
      L1  H     3    26       P1  7948  0.65
      P1  H 10752 10765       L1    13  0.62

> <Gold.PLP.Chemscore.Internal.Correction>
0.1650

> <Gold.Rescore>
     Score         DG    S(hbond)    S(metal)    S(lipo)     H(rot)  DE(clash)    DE(int)     intcor
     17.40     -20.20       2.27        0.00      91.19       1.37       0.06       2.74       ----

> <Gold.Chemscore.Fitness>
17.4013

> <Gold.Chemscore.DG>
-20.1978

> <Gold.Chemscore.ZeroCoef>
-5.4800

> <Gold.Chemscore.Hbond>
2.2655

> <Gold.Chemscore.Metal>
0.0000

> <Gold.Chemscore.Lipo>
91.1942

> <Gold.Chemscore.Internal_Hbond>
0.0000

> <Gold.Chemscore.DEClash>
0.0579

> <Gold.Chemscore.DEInternal>
2.7386

> <Gold.Chemscore.Rot>
1.3746

> <Gold.Chemscore.Internal.Correction>
   9.000000E+99

> <Gold.Chemscore.Hbonds>
donor molecule, donor type, donor heavy atom, donor atom, acceptor molecule, acceptor atom, score
      L1  H     3    26       P1  7948  0.62
      L1  H    14    41       P1  7948  0.03
      P1  H 10752 10765       L1    13  0.16

> <Gold.Chemscore.Hbond.Weighted>
-7.5669

> <Gold.Chemscore.Metal.Weighted>
-0.0000

> <Gold.Chemscore.Lipo.Weighted>
-10.6697

> <Gold.Chemscore.Internal_Hbond.Weighted>
0.0000

> <Gold.Chemscore.DEClash.Weighted>
0.0579

> <Gold.Chemscore.DEInternal.Weighted>
2.7386

> <Gold.Chemscore.Rot.Weighted>
3.5189

> <Gold.Chemscore.Internal.Correction.Weighted>
   9.000000E+99

> <Gold.Protein.RotatedTorsions>
[ 6907 6896 6895 6894 ] final   76.80 input  -60.11 | X-H torsion
[ 7974 7965 7964 7962 ] final  165.02 input  175.53 | X-H torsion
[ 8008 7997 7996 7995 ] final  -99.32 input   59.86 | X-H torsion
[ 10167 10162 10161 10158 ] final   70.14 input  -65.29 | X-H torsion
[ 10718 10713 10712 10709 ] final   43.28 input   66.30 | X-H torsion
[ 10763 10752 10751 10750 ] final -173.27 input  -60.55 | X-H torsion
[ 11005 11000 10999 10996 ] final  109.93 input  -57.11 | X-H torsion

> <Gold.Protein.ActiveResidues>
 VAL166  LYS551  ARG553  GLY616  TRP617  ASP618  TYR619  PRO620  LYS621  CYS622 
 ASP623  PHE694  ASN695  SER759  ASP760  ASP761  ALA762  ILE779  LEU786  VAL792 
 PHE793  MET794  SER795  GLU796  ALA797  LYS798  CYS799  TRP800  GLU811  SER814 

> <Gold.Protein.RotatedAtoms>
  152.5089  134.3914  159.9384 H   0  0  0  0  0  0  0  0  0  0  0  0  # atno 6907 bound_to 6896
  151.3874  133.3794  159.2725 H   0  0  0  0  0  0  0  0  0  0  0  0  # atno 6908 bound_to 6896
  150.9458  134.8884  159.7700 H   0  0  0  0  0  0  0  0  0  0  0  0  # atno 6909 bound_to 6896
  144.7520  139.8409  143.6363 H   0  0  0  0  0  0  0  0  0  0  0  0  # atno 7974 bound_to 7965
  154.8132  140.0448  157.1358 H   0  0  0  0  0  0  0  0  0  0  0  0  # atno 8008 bound_to 7997
  154.9344  140.3044  155.5131 H   0  0  0  0  0  0  0  0  0  0  0  0  # atno 8009 bound_to 7997
  156.2973  140.2317  156.4407 H   0  0  0  0  0  0  0  0  0  0  0  0  # atno 8010 bound_to 7997
  140.0602  144.5239  150.7300 H   0  0  0  0  0  0  0  0  0  0  0  0  # atno 10167 bound_to 10162
  157.4142  130.7932  149.7457 H   0  0  0  0  0  0  0  0  0  0  0  0  # atno 10718 bound_to 10713
  154.6098  135.2863  155.0445 H   0  0  0  0  0  0  0  0  0  0  0  0  # atno 10763 bound_to 10752
  154.1679  135.6477  153.5006 H   0  0  0  0  0  0  0  0  0  0  0  0  # atno 10764 bound_to 10752
  153.0190  135.5394  154.6847 H   0  0  0  0  0  0  0  0  0  0  0  0  # atno 10765 bound_to 10752
  139.8871  134.9471  156.6201 H   0  0  0  0  0  0  0  0  0  0  0  0  # atno 11005 bound_to 11000
  146.1483  139.4559  143.0065 LP  0  0  0  0  0  0  0  0  0  0  0  0  # atno 17320 bound_to 7965
  145.6910  141.0164  143.1555 LP  0  0  0  0  0  0  0  0  0  0  0  0  # atno 17321 bound_to 7965
  140.7175  143.2558  151.4386 LP  0  0  0  0  0  0  0  0  0  0  0  0  # atno 17342 bound_to 10162
  139.5898  144.1523  152.2074 LP  0  0  0  0  0  0  0  0  0  0  0  0  # atno 17343 bound_to 10162
  155.9860  130.3978  150.3234 LP  0  0  0  0  0  0  0  0  0  0  0  0  # atno 17370 bound_to 10713
  157.1376  131.0288  151.2942 LP  0  0  0  0  0  0  0  0  0  0  0  0  # atno 17371 bound_to 10713
  140.7746  133.8710  155.8519 LP  0  0  0  0  0  0  0  0  0  0  0  0  # atno 17394 bound_to 11000
  140.9813  134.1402  157.4492 LP  0  0  0  0  0  0  0  0  0  0  0  0  # atno 17395 bound_to 11000

$$$$
