AV-unprocessed.smi:1118|AV-procd|sdf|4816|dock2
  -GOLD-   22720 3373D 1   1.00000     0.00000
 Structure written by MMmdl.
 44 45  0  0  0  0  0  0  0  0  1 V2000
  151.7836  142.4704  158.5606 C   0  0  0  0  0  0  0  0  0  0  0  0
  151.2287  142.5899  157.2627 O   0  0  0  0  0  0  0  0  0  0  0  0
  150.4089  141.4852  156.9169 C   0  0  0  0  0  0  0  0  0  0  0  0
  149.9173  141.6488  155.4692 C   0  0  0  0  0  0  0  0  0  0  0  0
  148.8122  140.7722  155.0788 N   0  0  0  0  0  0  0  0  0  0  0  0
  149.2230  139.3699  154.9734 C   0  0  0  0  0  0  0  0  0  0  0  0
  148.0544  138.4377  154.6108 C   0  0  0  0  0  0  0  0  0  0  0  0
  147.3815  138.8752  153.2964 C   0  0  0  0  0  0  0  0  0  0  0  0
  146.1761  137.9768  152.9616 C   0  0  0  0  0  0  0  0  0  0  0  0
  146.5919  136.6163  152.6472 N   0  0  0  0  0  0  0  0  0  0  0  0
  145.7511  135.5920  152.4452 C   0  0  0  0  0  0  0  0  0  0  0  0
  144.5272  135.6913  152.5311 O   0  0  0  0  0  0  0  0  0  0  0  0
  146.3861  134.2504  152.0789 C   0  0  0  0  0  0  0  0  0  0  0  0
  145.6159  133.5788  151.0482 N   0  0  0  0  0  0  0  0  0  0  0  0
  145.8215  132.3278  150.5042 C   0  0  0  0  0  0  0  0  0  0  0  0
  144.8394  132.1208  149.5784 C   0  0  0  0  0  0  0  0  0  0  0  0
  144.0697  133.3167  149.6291 C   0  0  0  0  0  0  0  0  0  0  0  0
  144.5367  134.1878  150.5092 N   0  0  0  0  0  0  0  0  0  0  0  0
  147.0101  140.3691  153.3970 C   0  0  0  0  0  0  0  0  0  0  0  0
  148.2303  141.2090  153.8104 C   0  0  0  0  0  0  0  0  0  0  0  0
  152.4032  143.3408  158.7754 H   0  0  0  0  0  0  0  0  0  0  0  0
  152.4116  141.5822  158.6407 H   0  0  0  0  0  0  0  0  0  0  0  0
  151.0022  142.4172  159.3198 H   0  0  0  0  0  0  0  0  0  0  0  0
  150.9848  140.5622  156.9991 H   0  0  0  0  0  0  0  0  0  0  0  0
  149.5724  141.3967  157.6107 H   0  0  0  0  0  0  0  0  0  0  0  0
  149.6037  142.6867  155.3498 H   0  0  0  0  0  0  0  0  0  0  0  0
  150.7557  141.5103  154.7849 H   0  0  0  0  0  0  0  0  0  0  0  0
  150.0137  139.2703  154.2282 H   0  0  0  0  0  0  0  0  0  0  0  0
  149.6437  139.0292  155.9186 H   0  0  0  0  0  0  0  0  0  0  0  0
  148.4154  137.4124  154.5251 H   0  0  0  0  0  0  0  0  0  0  0  0
  147.3237  138.4425  155.4209 H   0  0  0  0  0  0  0  0  0  0  0  0
  148.1144  138.7644  152.4954 H   0  0  0  0  0  0  0  0  0  0  0  0
  145.4872  137.9560  153.8076 H   0  0  0  0  0  0  0  0  0  0  0  0
  145.6258  138.3849  152.1123 H   0  0  0  0  0  0  0  0  0  0  0  0
  147.5830  136.4482  152.5496 H   0  0  0  0  0  0  0  0  0  0  0  0
  147.4124  134.3916  151.7355 H   0  0  0  0  0  0  0  0  0  0  0  0
  146.4282  133.6088  152.9598 H   0  0  0  0  0  0  0  0  0  0  0  0
  146.6389  131.6962  150.8204 H   0  0  0  0  0  0  0  0  0  0  0  0
  144.6922  131.2476  148.9606 H   0  0  0  0  0  0  0  0  0  0  0  0
  143.1910  133.5753  149.0569 H   0  0  0  0  0  0  0  0  0  0  0  0
  146.6270  140.7354  152.4442 H   0  0  0  0  0  0  0  0  0  0  0  0
  146.2102  140.5049  154.1264 H   0  0  0  0  0  0  0  0  0  0  0  0
  147.9243  142.2530  153.8877 H   0  0  0  0  0  0  0  0  0  0  0  0
  148.9847  141.1674  153.0230 H   0  0  0  0  0  0  0  0  0  0  0  0
  1  2  1  0  0  0  0
  1 21  1  0  0  0  0
  1 22  1  0  0  0  0
  1 23  1  0  0  0  0
  2  3  1  0  0  0  0
  3  4  1  0  0  0  0
  3 24  1  0  0  0  0
  3 25  1  0  0  0  0
  4  5  1  0  0  0  0
  4 26  1  0  0  0  0
  4 27  1  0  0  0  0
  5 20  1  0  0  0  0
  5  6  1  0  0  0  0
  6  7  1  0  0  0  0
  6 28  1  0  0  0  0
  6 29  1  0  0  0  0
  7  8  1  0  0  0  0
  7 30  1  0  0  0  0
  7 31  1  0  0  0  0
  8  9  1  0  0  0  0
  8 19  1  0  0  0  0
  8 32  1  0  0  0  0
  9 10  1  0  0  0  0
  9 33  1  0  0  0  0
  9 34  1  0  0  0  0
 10 11  1  0  0  0  0
 10 35  1  0  0  0  0
 11 12  2  0  0  0  0
 11 13  1  0  0  0  0
 13 14  1  0  0  0  0
 13 36  1  0  0  0  0
 13 37  1  0  0  0  0
 14 18  1  0  0  0  0
 14 15  1  0  0  0  0
 15 16  2  0  0  0  0
 15 38  1  0  0  0  0
 16 17  1  0  0  0  0
 16 39  1  0  0  0  0
 17 18  2  0  0  0  0
 17 40  1  0  0  0  0
 19 20  1  0  0  0  0
 19 41  1  0  0  0  0
 19 42  1  0  0  0  0
 20 43  1  0  0  0  0
 20 44  1  0  0  0  0
M  END
> <s_m_source_file>
AV-unprocessed.smi

> <i_m_source_file_index>
1118

> <i_lp_mmshare_version>
43012

> <i_f3d_flags>
0

> <s_epik_input>
W0NIM11PW0NIMl1bQ0gyXU4xW0NIMl1bQ0gyXVtDSF0oW0NIMl1bQ0gyXTEpW0NIMl1bTkhdQyg9TylbQ0gyXW4yW2NIXVtjSF1bY0hdbjI=

> <s_epik_cmdline>
J2VwaWtfcHl0aG9uJywgJy1waCcsICc3LjAnLCAnLXRuJywgJzgnLCAnLW1hJywgJzIwMCcsICctbWV0YWxfYmluZGluZycsICctaW1hZScsICc8aW5maWxlLm1hZT4nLCAnLW9tYWUnLCAnPG91dGZpbGUubWFlPic=

> <r_lp_tautomer_probability>
1

> <r_epik_Ionization_Penalty>
2.42912

> <r_epik_Ionization_Penalty_Charging>
0

> <r_epik_Ionization_Penalty_Neutral>
2.42912

> <r_epik_State_Penalty>
2.58903

> <r_epik_Charging_Adjusted_Penalty>
2.58903

> <i_epik_Tot_Q>
0

> <i_epik_Tot_abs_Q>
0

> <r_epik_Metal_State_Penalty>
2.58902

> <b_epik_Metal_Only>
0

> <s_lp_Force_Field>
OPLS_2005

> <r_lp_Energy>
26.1618

> <b_lp_Chiralities_Consistent>
1

> <s_lp_Variant>
AV-unprocessed.smi:1118-3

> <Gold.Version>
5.8.1

> <Gold.Id.Protein>
6NUR|6NUR_protein|mol2

> <Gold.PLP.Fitness>
40.2482

> <Gold.PLP.PLP>
-31.9722

> <Gold.PLP.part.hbond>
-0.8865

> <Gold.PLP.part.metal>
0.0000

> <Gold.PLP.part.buried>
-3.8275

> <Gold.PLP.part.nonpolar>
-28.3753

> <Gold.PLP.part.repulsive>
0.4971

> <Gold.PLP.ligand.clash>
0.0000

> <Gold.PLP.ligand.torsion>
0.4654

> <Gold.PLP.Chemscore.Hbond>
1.0000

> <Gold.PLP.Chemscore.CHOScore>
1.9996

> <Gold.PLP.Chemscore.Metal>
0.0000

> <Gold.Chemscore.Hbonds>
donor molecule, donor type, donor heavy atom, donor atom, acceptor molecule, acceptor atom, score
      L1  H    10    35       P1  7948  1.00
      L1  C    15    38       P1 10747  0.97
      L1  C    17    40       P1 10186  1.00

> <Gold.PLP.Chemscore.Internal.Correction>
0.2078

> <Gold.Rescore>
     Score         DG    S(hbond)    S(metal)    S(lipo)     H(rot)  DE(clash)    DE(int)     intcor
     12.61     -14.78       0.99        0.00      98.14       2.14       0.11       2.06       ----

> <Gold.Chemscore.Fitness>
12.6062

> <Gold.Chemscore.DG>
-14.7763

> <Gold.Chemscore.ZeroCoef>
-5.4800

> <Gold.Chemscore.Hbond>
0.9863

> <Gold.Chemscore.Metal>
0.0000

> <Gold.Chemscore.Lipo>
98.1365

> <Gold.Chemscore.Internal_Hbond>
0.0000

> <Gold.Chemscore.DEClash>
0.1057

> <Gold.Chemscore.DEInternal>
2.0644

> <Gold.Chemscore.Rot>
2.1406

> <Gold.Chemscore.Internal.Correction>
   9.000000E+99

> <Gold.Chemscore.Hbonds>
donor molecule, donor type, donor heavy atom, donor atom, acceptor molecule, acceptor atom, score
      L1  H    10    35       P1  7948  0.94

> <Gold.Chemscore.Hbond.Weighted>
-3.2944

> <Gold.Chemscore.Metal.Weighted>
-0.0000

> <Gold.Chemscore.Lipo.Weighted>
-11.4820

> <Gold.Chemscore.Internal_Hbond.Weighted>
0.0000

> <Gold.Chemscore.DEClash.Weighted>
0.1057

> <Gold.Chemscore.DEInternal.Weighted>
2.0644

> <Gold.Chemscore.Rot.Weighted>
5.4800

> <Gold.Chemscore.Internal.Correction.Weighted>
   9.000000E+99

> <Gold.Protein.RotatedTorsions>
[ 6907 6896 6895 6894 ] final  130.26 input  -60.11 | X-H torsion
[ 7974 7965 7964 7962 ] final  167.34 input  175.53 | X-H torsion
[ 8008 7997 7996 7995 ] final  -47.78 input   59.86 | X-H torsion
[ 10167 10162 10161 10158 ] final  -13.52 input  -65.29 | X-H torsion
[ 10718 10713 10712 10709 ] final   17.66 input   66.30 | X-H torsion
[ 10763 10752 10751 10750 ] final -143.17 input  -60.55 | X-H torsion
[ 11005 11000 10999 10996 ] final -162.66 input  -57.11 | X-H torsion

> <Gold.Protein.ActiveResidues>
 VAL166  LYS551  ARG553  GLY616  TRP617  ASP618  TYR619  PRO620  LYS621  CYS622 
 ASP623  PHE694  ASN695  SER759  ASP760  ASP761  ALA762  ILE779  LEU786  VAL792 
 PHE793  MET794  SER795  GLU796  ALA797  LYS798  CYS799  TRP800  GLU811  SER814 

> <Gold.Protein.RotatedAtoms>
  152.3543  133.6218  159.5967 H   0  0  0  0  0  0  0  0  0  0  0  0  # atno 6907 bound_to 6896
  150.7558  133.9524  159.3499 H   0  0  0  0  0  0  0  0  0  0  0  0  # atno 6908 bound_to 6896
  151.7372  135.0863  160.0361 H   0  0  0  0  0  0  0  0  0  0  0  0  # atno 6909 bound_to 6896
  144.7428  139.8747  143.6391 H   0  0  0  0  0  0  0  0  0  0  0  0  # atno 7974 bound_to 7965
  154.4021  140.1338  156.4232 H   0  0  0  0  0  0  0  0  0  0  0  0  # atno 8008 bound_to 7997
  155.7623  140.3486  155.5184 H   0  0  0  0  0  0  0  0  0  0  0  0  # atno 8009 bound_to 7997
  155.8847  140.0993  157.1451 H   0  0  0  0  0  0  0  0  0  0  0  0  # atno 8010 bound_to 7997
  140.7183  143.5418  150.9400 H   0  0  0  0  0  0  0  0  0  0  0  0  # atno 10167 bound_to 10162
  157.0852  130.6404  149.5836 H   0  0  0  0  0  0  0  0  0  0  0  0  # atno 10718 bound_to 10713
  154.8481  135.3475  154.6144 H   0  0  0  0  0  0  0  0  0  0  0  0  # atno 10763 bound_to 10752
  153.6753  135.6983  153.5139 H   0  0  0  0  0  0  0  0  0  0  0  0  # atno 10764 bound_to 10752
  153.2711  135.4293  155.0944 H   0  0  0  0  0  0  0  0  0  0  0  0  # atno 10765 bound_to 10752
  140.6068  134.4890  157.5211 H   0  0  0  0  0  0  0  0  0  0  0  0  # atno 11005 bound_to 11000
  146.1255  139.4280  143.0202 LP  0  0  0  0  0  0  0  0  0  0  0  0  # atno 17320 bound_to 7965
  145.7242  141.0065  143.1386 LP  0  0  0  0  0  0  0  0  0  0  0  0  # atno 17321 bound_to 7965
  139.9141  143.6685  152.3109 LP  0  0  0  0  0  0  0  0  0  0  0  0  # atno 17342 bound_to 10162
  139.7078  144.7625  151.1163 LP  0  0  0  0  0  0  0  0  0  0  0  0  # atno 17343 bound_to 10162
  155.9913  130.4967  150.7292 LP  0  0  0  0  0  0  0  0  0  0  0  0  # atno 17370 bound_to 10713
  157.4767  131.0898  151.0582 LP  0  0  0  0  0  0  0  0  0  0  0  0  # atno 17371 bound_to 10713
  139.9209  134.8151  156.1216 LP  0  0  0  0  0  0  0  0  0  0  0  0  # atno 17394 bound_to 11000
  141.0835  133.6744  156.2386 LP  0  0  0  0  0  0  0  0  0  0  0  0  # atno 17395 bound_to 11000

$$$$
