AV-unprocessed.smi:1197|AV-procd|sdf|5009|dock10
  -GOLD-   22720 4 23D 1   1.00000     0.00000
 Structure written by MMmdl.
 41 42  0  0  0  0  0  0  0  0  2 V2000
  151.0542  141.7746  157.8492 C   0  0  0  0  0  0  0  0  0  0  0  0
  151.3214  141.4158  156.4981 O   0  0  0  0  0  0  0  0  0  0  0  0
  150.8563  140.2008  156.0386 C   0  0  0  0  0  0  0  0  0  0  0  0
  150.4403  139.2386  156.9800 C   0  0  0  0  0  0  0  0  0  0  0  0
  149.9649  137.9958  156.5197 C   0  0  0  0  0  0  0  0  0  0  0  0
  149.9279  137.7512  155.1263 C   0  0  0  0  0  0  0  0  0  0  0  0
  149.4498  136.5483  154.5402 N   0  0  0  0  0  0  0  0  0  0  0  0
  149.1076  135.4025  155.1536 C   0  0  0  0  0  0  0  0  0  0  0  0
  149.1952  135.1917  156.3631 O   0  0  0  0  0  0  0  0  0  0  0  0
  148.6712  134.4919  154.2714 N   0  0  0  0  0  0  0  0  0  0  0  0
  148.2362  133.1379  154.5981 C   0  0  0  0  0  0  0  0  0  0  0  0
  148.7491  132.1392  153.5477 C   0  0  0  0  0  0  0  0  0  0  0  0
  147.6783  131.7042  152.6159 N   0  3  0  0  0  0  0  0  0  0  0  0
  146.8541  130.6035  153.1698 C   0  0  0  0  0  0  0  0  0  0  0  0
  145.7965  130.1544  152.1467 C   0  0  0  0  0  0  0  0  0  0  0  0
  144.9909  131.2649  151.7727 O   0  0  0  0  0  0  0  0  0  0  0  0
  145.7558  132.2955  151.1604 C   0  0  0  0  0  0  0  0  0  0  0  0
  146.8099  132.8150  152.1525 C   0  0  0  0  0  0  0  0  0  0  0  0
  150.3521  138.7857  154.2669 C   0  0  0  0  0  0  0  0  0  0  0  0
  150.8105  139.9785  154.7015 N   0  0  0  0  0  0  0  0  0  0  0  0
  151.4938  142.7500  158.0566 H   0  0  0  0  0  0  0  0  0  0  0  0
  151.4926  141.0597  158.5469 H   0  0  0  0  0  0  0  0  0  0  0  0
  149.9821  141.8483  158.0374 H   0  0  0  0  0  0  0  0  0  0  0  0
  150.4797  139.4517  158.0380 H   0  0  0  0  0  0  0  0  0  0  0  0
  149.6261  137.2665  157.2393 H   0  0  0  0  0  0  0  0  0  0  0  0
  149.4138  136.5435  153.5312 H   0  0  0  0  0  0  0  0  0  0  0  0
  148.6352  134.7580  153.2982 H   0  0  0  0  0  0  0  0  0  0  0  0
  148.5759  132.8510  155.5933 H   0  0  0  0  0  0  0  0  0  0  0  0
  147.1462  133.1259  154.6255 H   0  0  0  0  0  0  0  0  0  0  0  0
  149.5436  132.6248  152.9788 H   0  0  0  0  0  0  0  0  0  0  0  0
  149.2009  131.2681  154.0254 H   0  0  0  0  0  0  0  0  0  0  0  0
  147.4911  129.7576  153.4303 H   0  0  0  0  0  0  0  0  0  0  0  0
  146.3687  130.9355  154.0889 H   0  0  0  0  0  0  0  0  0  0  0  0
  146.2672  129.7169  151.2648 H   0  0  0  0  0  0  0  0  0  0  0  0
  145.1571  129.3852  152.5804 H   0  0  0  0  0  0  0  0  0  0  0  0
  146.2276  131.9247  150.2491 H   0  0  0  0  0  0  0  0  0  0  0  0
  145.0869  133.1045  150.8659 H   0  0  0  0  0  0  0  0  0  0  0  0
  146.3160  133.2764  153.0092 H   0  0  0  0  0  0  0  0  0  0  0  0
  147.4032  133.5917  151.6714 H   0  0  0  0  0  0  0  0  0  0  0  0
  150.3277  138.6522  153.1952 H   0  0  0  0  0  0  0  0  0  0  0  0
  148.1397  131.3272  151.8001 H   0  0  0  0  0  0  0  0  0  0  0  0
  1  2  1  0  0  0  0
  1 21  1  0  0  0  0
  1 22  1  0  0  0  0
  1 23  1  0  0  0  0
  2  3  1  0  0  0  0
  3 20  1  0  0  0  0
  3  4  2  0  0  0  0
  4  5  1  0  0  0  0
  4 24  1  0  0  0  0
  5  6  2  0  0  0  0
  5 25  1  0  0  0  0
  6  7  1  0  0  0  0
  6 19  1  0  0  0  0
  7  8  1  0  0  0  0
  7 26  1  0  0  0  0
  8  9  2  0  0  0  0
  8 10  1  0  0  0  0
 10 11  1  0  0  0  0
 10 27  1  0  0  0  0
 11 12  1  0  0  0  0
 11 28  1  0  0  0  0
 11 29  1  0  0  0  0
 12 13  1  0  0  0  0
 12 30  1  0  0  0  0
 12 31  1  0  0  0  0
 13 18  1  0  0  0  0
 13 14  1  0  0  0  0
 13 41  1  0  0  0  0
 14 15  1  0  0  0  0
 14 32  1  0  0  0  0
 14 33  1  0  0  0  0
 15 16  1  0  0  0  0
 15 34  1  0  0  0  0
 15 35  1  0  0  0  0
 16 17  1  0  0  0  0
 17 18  1  0  0  0  0
 17 36  1  0  0  0  0
 17 37  1  0  0  0  0
 18 38  1  0  0  0  0
 18 39  1  0  0  0  0
 19 20  2  0  0  0  0
 19 40  1  0  0  0  0
M  CHG  1  13   1
M  END
> <s_m_source_file>
AV-unprocessed.smi

> <i_m_source_file_index>
1197

> <i_lp_mmshare_version>
43012

> <i_f3d_flags>
0

> <s_epik_input>
W0NIM11PYzFbY0hdW2NIXWMoW2NIXW4xKVtOSF1DKD1PKVtOSF1bQ0gyXVtDSDJdTjJbQ0gyXVtDSDJdT1tDSDJdW0NIMl0y

> <s_epik_cmdline>
J2VwaWtfcHl0aG9uJywgJy1waCcsICc3LjAnLCAnLXRuJywgJzgnLCAnLW1hJywgJzIwMCcsICctbWV0YWxfYmluZGluZycsICctaW1hZScsICc8aW5maWxlLm1hZT4nLCAnLW9tYWUnLCAnPG91dGZpbGUubWFlPic=

> <r_lp_tautomer_probability>
1

> <r_epik_Ionization_Penalty>
0.602607

> <r_epik_Ionization_Penalty_Charging>
0.602531

> <r_epik_Ionization_Penalty_Neutral>
7.65795e-05

> <r_epik_State_Penalty>
0.617039

> <r_epik_Charging_Adjusted_Penalty>
1.21957

> <i_epik_Tot_Q>
1

> <i_epik_Tot_abs_Q>
1

> <r_epik_Metal_State_Penalty>
0.617043

> <b_epik_Metal_Only>
0

> <s_lp_Force_Field>
OPLS_2005

> <r_lp_Energy>
19.492

> <b_lp_Chiralities_Consistent>
1

> <s_lp_Variant>
AV-unprocessed.smi:1197-2

> <Gold.Version>
5.8.1

> <Gold.Id.Protein>
6NUR|6NUR_protein|mol2

> <Gold.PLP.Fitness>
43.7748

> <Gold.PLP.PLP>
-30.4451

> <Gold.PLP.part.hbond>
-4.0000

> <Gold.PLP.part.metal>
0.0000

> <Gold.PLP.part.buried>
-4.8932

> <Gold.PLP.part.nonpolar>
-21.7827

> <Gold.PLP.part.repulsive>
0.3185

> <Gold.PLP.ligand.clash>
0.0000

> <Gold.PLP.ligand.torsion>
0.8522

> <Gold.PLP.Chemscore.Hbond>
4.0000

> <Gold.PLP.Chemscore.CHOScore>
1.0000

> <Gold.PLP.Chemscore.Metal>
0.0000

> <Gold.Chemscore.Hbonds>
donor molecule, donor type, donor heavy atom, donor atom, acceptor molecule, acceptor atom, score
      L1  H     7    26       P1  7948  1.00
      L1  H    10    27       P1  7948  0.94
      L1  H    13    41       P1 10747  1.00
      P1  H  7989  7998       L1    20  1.00
      L1  C    19    40       P1  7957  0.96

> <Gold.PLP.Chemscore.Internal.Correction>
0.0341

> <Gold.Rescore>
     Score         DG    S(hbond)    S(metal)    S(lipo)     H(rot)  DE(clash)    DE(int)     intcor
     17.33     -19.43       3.33        0.00      64.04       1.83       0.02       2.08       ----

> <Gold.Chemscore.Fitness>
17.3271

> <Gold.Chemscore.DG>
-19.4328

> <Gold.Chemscore.ZeroCoef>
-5.4800

> <Gold.Chemscore.Hbond>
3.3337

> <Gold.Chemscore.Metal>
0.0000

> <Gold.Chemscore.Lipo>
64.0411

> <Gold.Chemscore.Internal_Hbond>
0.0000

> <Gold.Chemscore.DEClash>
0.0234

> <Gold.Chemscore.DEInternal>
2.0823

> <Gold.Chemscore.Rot>
1.8260

> <Gold.Chemscore.Internal.Correction>
   9.000000E+99

> <Gold.Chemscore.Hbonds>
donor molecule, donor type, donor heavy atom, donor atom, acceptor molecule, acceptor atom, score
      L1  H     7    26       P1  7948  0.82
      L1  H    10    27       P1  7948  0.38
      L1  H    13    41       P1 10747  1.00
      P1  H  7989  7998       L1    20  0.85

> <Gold.Chemscore.Hbond.Weighted>
-11.1345

> <Gold.Chemscore.Metal.Weighted>
-0.0000

> <Gold.Chemscore.Lipo.Weighted>
-7.4928

> <Gold.Chemscore.Internal_Hbond.Weighted>
0.0000

> <Gold.Chemscore.DEClash.Weighted>
0.0234

> <Gold.Chemscore.DEInternal.Weighted>
2.0823

> <Gold.Chemscore.Rot.Weighted>
4.6744

> <Gold.Chemscore.Internal.Correction.Weighted>
   9.000000E+99

> <Gold.Protein.RotatedTorsions>
[ 6907 6896 6895 6894 ] final    4.42 input  -60.11 | X-H torsion
[ 7974 7965 7964 7962 ] final  172.61 input  175.53 | X-H torsion
[ 8008 7997 7996 7995 ] final -173.28 input   59.86 | X-H torsion
[ 10167 10162 10161 10158 ] final  -49.80 input  -65.29 | X-H torsion
[ 10718 10713 10712 10709 ] final  -11.83 input   66.30 | X-H torsion
[ 10763 10752 10751 10750 ] final  168.50 input  -60.55 | X-H torsion
[ 11005 11000 10999 10996 ] final  -56.94 input  -57.11 | X-H torsion

> <Gold.Protein.ActiveResidues>
 VAL166  LYS551  ARG553  GLY616  TRP617  ASP618  TYR619  PRO620  LYS621  CYS622 
 ASP623  PHE694  ASN695  SER759  ASP760  ASP761  ALA762  ILE779  LEU786  VAL792 
 PHE793  MET794  SER795  GLU796  ALA797  LYS798  CYS799  TRP800  GLU811  SER814 

> <Gold.Protein.RotatedAtoms>
  151.6410  135.1012  160.0141 H   0  0  0  0  0  0  0  0  0  0  0  0  # atno 6907 bound_to 6896
  152.4054  133.6877  159.6360 H   0  0  0  0  0  0  0  0  0  0  0  0  # atno 6908 bound_to 6896
  150.7949  133.8635  159.3279 H   0  0  0  0  0  0  0  0  0  0  0  0  # atno 6909 bound_to 6896
  144.7264  139.9525  143.6432 H   0  0  0  0  0  0  0  0  0  0  0  0  # atno 7974 bound_to 7965
  155.9553  140.1134  157.0942 H   0  0  0  0  0  0  0  0  0  0  0  0  # atno 8008 bound_to 7997
  154.4119  140.1192  156.5174 H   0  0  0  0  0  0  0  0  0  0  0  0  # atno 8009 bound_to 7997
  155.6789  140.3473  155.4850 H   0  0  0  0  0  0  0  0  0  0  0  0  # atno 8010 bound_to 7997
  140.6668  143.2683  151.4267 H   0  0  0  0  0  0  0  0  0  0  0  0  # atno 10167 bound_to 10162
  156.6534  130.4961  149.6054 H   0  0  0  0  0  0  0  0  0  0  0  0  # atno 10718 bound_to 10713
  154.3694  135.2753  155.2275 H   0  0  0  0  0  0  0  0  0  0  0  0  # atno 10763 bound_to 10752
  154.4428  135.5950  153.6144 H   0  0  0  0  0  0  0  0  0  0  0  0  # atno 10764 bound_to 10752
  152.9839  135.6023  154.3924 H   0  0  0  0  0  0  0  0  0  0  0  0  # atno 10765 bound_to 10752
  141.1143  133.6610  156.4695 H   0  0  0  0  0  0  0  0  0  0  0  0  # atno 11005 bound_to 11000
  146.0701  139.3690  143.0528 LP  0  0  0  0  0  0  0  0  0  0  0  0  # atno 17320 bound_to 7965
  145.7980  140.9784  143.1014 LP  0  0  0  0  0  0  0  0  0  0  0  0  # atno 17321 bound_to 7965
  139.5920  144.1479  152.2099 LP  0  0  0  0  0  0  0  0  0  0  0  0  # atno 17342 bound_to 10162
  140.0836  144.5680  150.7104 LP  0  0  0  0  0  0  0  0  0  0  0  0  # atno 17343 bound_to 10162
  156.2066  130.6653  151.1225 LP  0  0  0  0  0  0  0  0  0  0  0  0  # atno 17370 bound_to 10713
  157.7133  131.0723  150.6420 LP  0  0  0  0  0  0  0  0  0  0  0  0  # atno 17371 bound_to 10713
  140.4690  134.6771  157.5120 LP  0  0  0  0  0  0  0  0  0  0  0  0  # atno 17394 bound_to 11000
  140.0055  134.6771  155.9462 LP  0  0  0  0  0  0  0  0  0  0  0  0  # atno 17395 bound_to 11000

$$$$
