AV-unprocessed.smi:2238|AV-procd|sdf|9055|dock7
  -GOLD-   2272012263D 1   1.00000     0.00000
 Structure written by MMmdl.
 38 39  0  0  0  0  0  0  0  0  1 V2000
  150.8544  144.1460  158.9813 C   0  0  0  0  0  0  0  0  0  0  0  0
  151.6056  142.8765  159.3262 C   0  0  0  0  0  0  0  0  0  0  0  0
  152.8373  142.9410  160.0067 C   0  0  0  0  0  0  0  0  0  0  0  0
  153.5290  141.7570  160.3198 C   0  0  0  0  0  0  0  0  0  0  0  0
  152.9937  140.5065  159.9547 C   0  0  0  0  0  0  0  0  0  0  0  0
  153.8644  139.0681  160.3518 Cl  0  0  0  0  0  0  0  0  0  0  0  0
  151.7595  140.4240  159.2720 C   0  0  0  0  0  0  0  0  0  0  0  0
  151.2972  139.1654  158.9472 O   0  0  0  0  0  0  0  0  0  0  0  0
  149.9236  139.0130  158.6166 C   0  0  0  0  0  0  0  0  0  0  0  0
  149.4893  137.5776  158.9621 C   0  0  1  0  0  0  0  0  0  0  0  0
  150.2350  137.1503  160.0832 O   0  0  0  0  0  0  0  0  0  0  0  0
  147.9942  137.4513  159.3374 C   0  0  0  0  0  0  0  0  0  0  0  0
  147.6615  136.1648  159.9753 N   0  0  0  0  0  0  0  0  0  0  0  0
  147.7324  135.0158  159.1618 C   0  0  0  0  0  0  0  0  0  0  0  0
  147.4592  133.8358  159.6208 N   0  0  0  0  0  0  0  0  0  0  0  0
  147.0789  133.6855  160.9578 C   0  0  0  0  0  0  0  0  0  0  0  0
  146.7799  132.2832  161.4459 C   0  0  0  0  0  0  0  0  0  0  0  0
  146.9865  134.7569  161.7785 C   0  0  0  0  0  0  0  0  0  0  0  0
  147.2818  136.1025  161.2855 C   0  0  0  0  0  0  0  0  0  0  0  0
  147.1946  137.1025  161.9984 O   0  0  0  0  0  0  0  0  0  0  0  0
  151.0706  141.6243  158.9605 C   0  0  0  0  0  0  0  0  0  0  0  0
  151.2952  145.0144  159.4718 H   0  0  0  0  0  0  0  0  0  0  0  0
  149.8135  144.0704  159.2975 H   0  0  0  0  0  0  0  0  0  0  0  0
  150.8750  144.3146  157.9044 H   0  0  0  0  0  0  0  0  0  0  0  0
  153.2559  143.8957  160.2904 H   0  0  0  0  0  0  0  0  0  0  0  0
  154.4732  141.8094  160.8419 H   0  0  0  0  0  0  0  0  0  0  0  0
  149.2986  139.7417  159.1357 H   0  0  0  0  0  0  0  0  0  0  0  0
  149.8184  139.1840  157.5453 H   0  0  0  0  0  0  0  0  0  0  0  0
  149.7171  136.9127  158.1285 H   0  0  0  0  0  0  0  0  0  0  0  0
  150.8918  137.8040  160.2710 H   0  0  0  0  0  0  0  0  0  0  0  0
  147.7239  138.2551  160.0250 H   0  0  0  0  0  0  0  0  0  0  0  0
  147.3807  137.6315  158.4521 H   0  0  0  0  0  0  0  0  0  0  0  0
  148.0368  135.1888  158.1284 H   0  0  0  0  0  0  0  0  0  0  0  0
  145.8414  132.2638  162.0008 H   0  0  0  0  0  0  0  0  0  0  0  0
  147.5764  131.9363  162.1048 H   0  0  0  0  0  0  0  0  0  0  0  0
  146.6955  131.5839  160.6132 H   0  0  0  0  0  0  0  0  0  0  0  0
  146.6926  134.6234  162.8098 H   0  0  0  0  0  0  0  0  0  0  0  0
  150.1258  141.6102  158.4385 H   0  0  0  0  0  0  0  0  0  0  0  0
  1  2  1  0  0  0  0
  1 22  1  0  0  0  0
  1 23  1  0  0  0  0
  1 24  1  0  0  0  0
  2 21  1  0  0  0  0
  2  3  2  0  0  0  0
  3  4  1  0  0  0  0
  3 25  1  0  0  0  0
  4  5  2  0  0  0  0
  4 26  1  0  0  0  0
  5  6  1  0  0  0  0
  5  7  1  0  0  0  0
  7  8  1  0  0  0  0
  7 21  2  0  0  0  0
  8  9  1  0  0  0  0
  9 10  1  0  0  0  0
  9 27  1  0  0  0  0
  9 28  1  0  0  0  0
 10 11  1  0  0  0  0
 10 12  1  0  0  0  0
 10 29  1  0  0  0  0
 11 30  1  0  0  0  0
 12 13  1  0  0  0  0
 12 31  1  0  0  0  0
 12 32  1  0  0  0  0
 13 19  1  0  0  0  0
 13 14  1  0  0  0  0
 14 15  2  0  0  0  0
 14 33  1  0  0  0  0
 15 16  1  0  0  0  0
 16 17  1  0  0  0  0
 16 18  2  0  0  0  0
 17 34  1  0  0  0  0
 17 35  1  0  0  0  0
 17 36  1  0  0  0  0
 18 19  1  0  0  0  0
 18 37  1  0  0  0  0
 19 20  2  0  0  0  0
 21 38  1  0  0  0  0
M  END
> <s_m_source_file>
AV-unprocessed.smi

> <i_m_source_file_index>
2238

> <i_lp_mmshare_version>
43012

> <i_f3d_flags>
0

> <s_epik_input>
W0NIM11jMVtjSF1bY0hdYyhDbCljKFtjSF0xKU9bQ0gyXVtDQEhdKFtPSF0pW0NIMl1uMltjSF1uYyhbQ0gzXSlbY0hdYzI9Tw==

> <s_epik_cmdline>
J2VwaWtfcHl0aG9uJywgJy1waCcsICc3LjAnLCAnLXRuJywgJzgnLCAnLW1hJywgJzIwMCcsICctbWV0YWxfYmluZGluZycsICctaW1hZScsICc8aW5maWxlLm1hZT4nLCAnLW9tYWUnLCAnPG91dGZpbGUubWFlPic=

> <r_lp_tautomer_probability>
1

> <r_epik_Ionization_Penalty>
1.78029e-05

> <r_epik_Ionization_Penalty_Charging>
3.78421e-08

> <r_epik_Ionization_Penalty_Neutral>
1.7765e-05

> <r_epik_State_Penalty>
-0

> <r_epik_Charging_Adjusted_Penalty>
3.78421e-08

> <i_epik_Tot_Q>
0

> <i_epik_Tot_abs_Q>
0

> <r_epik_Metal_State_Penalty>
-0

> <b_epik_Metal_Only>
0

> <s_lp_Force_Field>
OPLS_2005

> <r_lp_Energy>
22.1977

> <b_lp_Chiralities_Consistent>
1

> <s_lp_Variant>
AV-unprocessed.smi:2238-2

> <Gold.Version>
5.8.1

> <Gold.Id.Protein>
6NUR|6NUR_protein|mol2

> <Gold.PLP.Fitness>
48.0119

> <Gold.PLP.PLP>
-41.6343

> <Gold.PLP.part.hbond>
-3.7636

> <Gold.PLP.part.metal>
0.0000

> <Gold.PLP.part.buried>
-4.5253

> <Gold.PLP.part.nonpolar>
-34.2477

> <Gold.PLP.part.repulsive>
0.0000

> <Gold.PLP.ligand.clash>
0.0000

> <Gold.PLP.ligand.torsion>
0.8984

> <Gold.PLP.Chemscore.Hbond>
2.7120

> <Gold.PLP.Chemscore.CHOScore>
0.0000

> <Gold.PLP.Chemscore.Metal>
0.0000

> <Gold.Chemscore.Hbonds>
donor molecule, donor type, donor heavy atom, donor atom, acceptor molecule, acceptor atom, score
      P1  H  6896  6907       L1    11  0.32
      P1  H  6931  6943       L1    20  0.59
      P1  H  6934  6947       L1    20  0.48

> <Gold.PLP.Chemscore.Internal.Correction>
0.0385

> <Gold.Rescore>
     Score         DG    S(hbond)    S(metal)    S(lipo)     H(rot)  DE(clash)    DE(int)     intcor
     19.17     -20.00       2.62        0.00     103.29       2.47       0.02       0.81       ----

> <Gold.Chemscore.Fitness>
19.1689

> <Gold.Chemscore.DG>
-20.0012

> <Gold.Chemscore.ZeroCoef>
-5.4800

> <Gold.Chemscore.Hbond>
2.6240

> <Gold.Chemscore.Metal>
0.0000

> <Gold.Chemscore.Lipo>
103.2918

> <Gold.Chemscore.Internal_Hbond>
0.0000

> <Gold.Chemscore.DEClash>
0.0183

> <Gold.Chemscore.DEInternal>
0.8140

> <Gold.Chemscore.Rot>
2.4718

> <Gold.Chemscore.Internal.Correction>
   9.000000E+99

> <Gold.Chemscore.Hbonds>
donor molecule, donor type, donor heavy atom, donor atom, acceptor molecule, acceptor atom, score
      P1  H  6896  6907       L1    11  0.16
      P1  H  6931  6943       L1    20  0.45
      P1  H  6934  6947       L1    20  0.44

> <Gold.Chemscore.Hbond.Weighted>
-8.7640

> <Gold.Chemscore.Metal.Weighted>
-0.0000

> <Gold.Chemscore.Lipo.Weighted>
-12.0851

> <Gold.Chemscore.Internal_Hbond.Weighted>
0.0000

> <Gold.Chemscore.DEClash.Weighted>
0.0183

> <Gold.Chemscore.DEInternal.Weighted>
0.8140

> <Gold.Chemscore.Rot.Weighted>
6.3279

> <Gold.Chemscore.Internal.Correction.Weighted>
   9.000000E+99

> <Gold.Protein.RotatedTorsions>
[ 6907 6896 6895 6894 ] final  -10.05 input  -60.11 | X-H torsion
[ 7974 7965 7964 7962 ] final  110.14 input  175.53 | X-H torsion
[ 8008 7997 7996 7995 ] final   42.68 input   59.86 | X-H torsion
[ 10167 10162 10161 10158 ] final  170.51 input  -65.29 | X-H torsion
[ 10718 10713 10712 10709 ] final  140.40 input   66.30 | X-H torsion
[ 10763 10752 10751 10750 ] final    2.38 input  -60.55 | X-H torsion
[ 11005 11000 10999 10996 ] final -127.25 input  -57.11 | X-H torsion

> <Gold.Protein.ActiveResidues>
 VAL166  LYS551  ARG553  GLY616  TRP617  ASP618  TYR619  PRO620  LYS621  CYS622 
 ASP623  PHE694  ASN695  SER759  ASP760  ASP761  ALA762  ILE779  LEU786  VAL792 
 PHE793  MET794  SER795  GLU796  ALA797  LYS798  CYS799  TRP800  GLU811  SER814 

> <Gold.Protein.RotatedAtoms>
  151.4081  135.0981  159.9576 H   0  0  0  0  0  0  0  0  0  0  0  0  # atno 6907 bound_to 6896
  152.5029  133.8823  159.7363 H   0  0  0  0  0  0  0  0  0  0  0  0  # atno 6908 bound_to 6896
  150.9312  133.6708  159.2838 H   0  0  0  0  0  0  0  0  0  0  0  0  # atno 6909 bound_to 6896
  145.2588  139.2710  143.4028 H   0  0  0  0  0  0  0  0  0  0  0  0  # atno 7974 bound_to 7965
  155.2903  140.3378  155.4253 H   0  0  0  0  0  0  0  0  0  0  0  0  # atno 8008 bound_to 7997
  156.2049  140.1747  156.7861 H   0  0  0  0  0  0  0  0  0  0  0  0  # atno 8009 bound_to 7997
  154.5608  140.0688  156.8799 H   0  0  0  0  0  0  0  0  0  0  0  0  # atno 8010 bound_to 7997
  139.5020  144.3588  151.9846 H   0  0  0  0  0  0  0  0  0  0  0  0  # atno 10167 bound_to 10162
  157.4037  131.1020  151.0526 H   0  0  0  0  0  0  0  0  0  0  0  0  # atno 10718 bound_to 10713
  153.2963  135.6952  153.7245 H   0  0  0  0  0  0  0  0  0  0  0  0  # atno 10763 bound_to 10752
  153.6176  135.3433  155.3001 H   0  0  0  0  0  0  0  0  0  0  0  0  # atno 10764 bound_to 10752
  154.8538  135.4378  154.2061 H   0  0  0  0  0  0  0  0  0  0  0  0  # atno 10765 bound_to 10752
  140.9615  134.0930  157.3963 H   0  0  0  0  0  0  0  0  0  0  0  0  # atno 11005 bound_to 11000
  146.3281  140.2999  142.8620 LP  0  0  0  0  0  0  0  0  0  0  0  0  # atno 17320 bound_to 7965
  144.9437  140.8105  143.5615 LP  0  0  0  0  0  0  0  0  0  0  0  0  # atno 17321 bound_to 7965
  140.3025  144.3630  150.6056 LP  0  0  0  0  0  0  0  0  0  0  0  0  # atno 17342 bound_to 10162
  140.5862  143.2170  151.7337 LP  0  0  0  0  0  0  0  0  0  0  0  0  # atno 17343 bound_to 10162
  157.1515  130.6186  149.5584 LP  0  0  0  0  0  0  0  0  0  0  0  0  # atno 17370 bound_to 10713
  155.9830  130.4847  150.6912 LP  0  0  0  0  0  0  0  0  0  0  0  0  # atno 17371 bound_to 10713
  139.8880  135.0094  156.6592 LP  0  0  0  0  0  0  0  0  0  0  0  0  # atno 17394 bound_to 11000
  140.7461  133.8937  155.8313 LP  0  0  0  0  0  0  0  0  0  0  0  0  # atno 17395 bound_to 11000

$$$$
