AV-unprocessed.smi:2976|AV-procd|sdf|11360|dock2
  -GOLD-   2272016273D 1   1.00000     0.00000
 Structure written by MMmdl.
 40 41  0  0  0  0  0  0  0  0  1 V2000
  151.6482  144.9722  159.2995 C   0  0  0  0  0  0  0  0  0  0  0  0
  152.2230  143.5883  158.9537 C   0  0  1  0  0  0  0  0  0  0  0  0
  152.4773  142.7428  160.2179 C   0  0  0  0  0  0  0  0  0  0  0  0
  153.1476  141.4038  159.8732 C   0  0  0  0  0  0  0  0  0  0  0  0
  152.3396  140.6215  158.8270 C   0  0  0  0  0  0  0  0  0  0  0  0
  152.0904  141.4686  157.5640 C   0  0  1  0  0  0  0  0  0  0  0  0
  151.3446  140.6832  156.5838 N   0  0  0  0  0  0  0  0  0  0  0  0
  151.8251  139.6337  155.9000 C   0  0  0  0  0  0  0  0  0  0  0  0
  152.9598  139.1825  156.0609 O   0  0  0  0  0  0  0  0  0  0  0  0
  150.8670  138.9924  154.8869 C   0  0  0  0  0  0  0  0  0  0  0  0
  149.6164  139.7484  154.7253 N   0  0  0  0  0  0  0  0  0  0  0  0
  149.7981  141.0746  154.3743 N   0  0  0  0  0  0  0  0  0  0  0  0
  148.7704  141.8363  154.2201 C   0  0  0  0  0  0  0  0  0  0  0  0
  147.4189  141.3522  154.3974 C   0  0  0  0  0  0  0  0  0  0  0  0
  146.0788  142.4218  154.1783 Cl  0  0  0  0  0  0  0  0  0  0  0  0
  147.2516  140.0484  154.7338 C   0  0  0  0  0  0  0  0  0  0  0  0
  145.6652  139.3957  154.9618 Cl  0  0  0  0  0  0  0  0  0  0  0  0
  148.3999  139.1499  154.9160 C   0  0  0  0  0  0  0  0  0  0  0  0
  148.2896  137.9599  155.2153 O   0  0  0  0  0  0  0  0  0  0  0  0
  151.3839  142.8113  157.9042 C   0  0  1  0  0  0  0  0  0  0  0  0
  149.9000  142.6355  158.3046 C   0  0  0  0  0  0  0  0  0  0  0  0
  150.7138  144.8964  159.8558 H   0  0  0  0  0  0  0  0  0  0  0  0
  151.4584  145.5567  158.3989 H   0  0  0  0  0  0  0  0  0  0  0  0
  152.3465  145.5382  159.9166 H   0  0  0  0  0  0  0  0  0  0  0  0
  153.1969  143.7741  158.4977 H   0  0  0  0  0  0  0  0  0  0  0  0
  153.1128  143.2948  160.9112 H   0  0  0  0  0  0  0  0  0  0  0  0
  151.5397  142.5610  160.7443 H   0  0  0  0  0  0  0  0  0  0  0  0
  154.1526  141.5888  159.4917 H   0  0  0  0  0  0  0  0  0  0  0  0
  153.2667  140.8042  160.7759 H   0  0  0  0  0  0  0  0  0  0  0  0
  152.8766  139.7095  158.5634 H   0  0  0  0  0  0  0  0  0  0  0  0
  151.3917  140.3019  159.2612 H   0  0  0  0  0  0  0  0  0  0  0  0
  153.0669  141.6969  157.1317 H   0  0  0  0  0  0  0  0  0  0  0  0
  150.3992  140.9801  156.3903 H   0  0  0  0  0  0  0  0  0  0  0  0
  151.3914  138.9126  153.9329 H   0  0  0  0  0  0  0  0  0  0  0  0
  150.6408  137.9663  155.1842 H   0  0  0  0  0  0  0  0  0  0  0  0
  148.8648  142.8875  153.9476 H   0  0  0  0  0  0  0  0  0  0  0  0
  151.3817  143.4140  156.9947 H   0  0  0  0  0  0  0  0  0  0  0  0
  149.7878  142.0642  159.2251 H   0  0  0  0  0  0  0  0  0  0  0  0
  149.3327  142.1217  157.5285 H   0  0  0  0  0  0  0  0  0  0  0  0
  149.4095  143.5970  158.4516 H   0  0  0  0  0  0  0  0  0  0  0  0
  1  2  1  0  0  0  0
  1 22  1  0  0  0  0
  1 23  1  0  0  0  0
  1 24  1  0  0  0  0
  2 20  1  0  0  0  0
  2  3  1  0  0  0  0
  2 25  1  0  0  0  0
  3  4  1  0  0  0  0
  3 26  1  0  0  0  0
  3 27  1  0  0  0  0
  4  5  1  0  0  0  0
  4 28  1  0  0  0  0
  4 29  1  0  0  0  0
  5  6  1  0  0  0  0
  5 30  1  0  0  0  0
  5 31  1  0  0  0  0
  6  7  1  0  0  0  0
  6 20  1  0  0  0  0
  6 32  1  0  0  0  0
  7  8  1  0  0  0  0
  7 33  1  0  0  0  0
  8  9  2  0  0  0  0
  8 10  1  0  0  0  0
 10 11  1  0  0  0  0
 10 34  1  0  0  0  0
 10 35  1  0  0  0  0
 11 18  1  0  0  0  0
 11 12  1  0  0  0  0
 12 13  2  0  0  0  0
 13 14  1  0  0  0  0
 13 36  1  0  0  0  0
 14 15  1  0  0  0  0
 14 16  2  0  0  0  0
 16 17  1  0  0  0  0
 16 18  1  0  0  0  0
 18 19  2  0  0  0  0
 20 21  1  0  0  0  0
 20 37  1  0  0  0  0
 21 38  1  0  0  0  0
 21 39  1  0  0  0  0
 21 40  1  0  0  0  0
M  END
> <s_m_source_file>
AV-unprocessed.smi

> <i_m_source_file_index>
2976

> <i_lp_mmshare_version>
43012

> <i_f3d_flags>
0

> <s_epik_input>
W0NIM11bQ0BASF0xW0NIMl1bQ0gyXVtDSDJdW0NASF0oW0NASF0xW0NIM10pW05IXUMoPU8pW0NIMl1uMm5bY0hdYyhDbCljKENsKWMyPU8=

> <s_epik_cmdline>
J2VwaWtfcHl0aG9uJywgJy1waCcsICc3LjAnLCAnLXRuJywgJzgnLCAnLW1hJywgJzIwMCcsICctbWV0YWxfYmluZGluZycsICctaW1hZScsICc8aW5maWxlLm1hZT4nLCAnLW9tYWUnLCAnPG91dGZpbGUubWFlPic=

> <r_lp_tautomer_probability>
1

> <r_epik_Ionization_Penalty>
1.90777e-08

> <r_epik_Ionization_Penalty_Charging>
3.07942e-11

> <r_epik_Ionization_Penalty_Neutral>
1.90469e-08

> <r_epik_State_Penalty>
-0

> <r_epik_Charging_Adjusted_Penalty>
3.07942e-11

> <i_epik_Tot_Q>
0

> <i_epik_Tot_abs_Q>
0

> <r_epik_Metal_State_Penalty>
-0

> <b_epik_Metal_Only>
0

> <s_lp_Force_Field>
OPLS_2005

> <r_lp_Energy>
28.0468

> <b_lp_Chiralities_Consistent>
1

> <s_lp_Variant>
AV-unprocessed.smi:2976-2

> <Gold.Version>
5.8.1

> <Gold.Id.Protein>
6NUR|6NUR_protein|mol2

> <Gold.PLP.Fitness>
48.0319

> <Gold.PLP.PLP>
-41.1060

> <Gold.PLP.part.hbond>
-2.0501

> <Gold.PLP.part.metal>
0.0000

> <Gold.PLP.part.buried>
-4.6533

> <Gold.PLP.part.nonpolar>
-35.1142

> <Gold.PLP.part.repulsive>
0.3166

> <Gold.PLP.ligand.clash>
0.0000

> <Gold.PLP.ligand.torsion>
0.1945

> <Gold.PLP.Chemscore.Hbond>
1.5760

> <Gold.PLP.Chemscore.CHOScore>
0.8573

> <Gold.PLP.Chemscore.Metal>
0.0000

> <Gold.Chemscore.Hbonds>
donor molecule, donor type, donor heavy atom, donor atom, acceptor molecule, acceptor atom, score
      P1  H  7989  7998       L1    12  0.50
      P1  H  7997  8009       L1     9  1.00
      L1  C    13    36       P1  8028  0.87

> <Gold.PLP.Chemscore.Internal.Correction>
0.0148

> <Gold.Rescore>
     Score         DG    S(hbond)    S(metal)    S(lipo)     H(rot)  DE(clash)    DE(int)     intcor
     17.93     -19.66       1.67        0.00     106.14       1.49       0.10       1.63       ----

> <Gold.Chemscore.Fitness>
17.9332

> <Gold.Chemscore.DG>
-19.6586

> <Gold.Chemscore.ZeroCoef>
-5.4800

> <Gold.Chemscore.Hbond>
1.6664

> <Gold.Chemscore.Metal>
0.0000

> <Gold.Chemscore.Lipo>
106.1403

> <Gold.Chemscore.Internal_Hbond>
0.0000

> <Gold.Chemscore.DEClash>
0.0959

> <Gold.Chemscore.DEInternal>
1.6295

> <Gold.Chemscore.Rot>
1.4866

> <Gold.Chemscore.Internal.Correction>
   9.000000E+99

> <Gold.Chemscore.Hbonds>
donor molecule, donor type, donor heavy atom, donor atom, acceptor molecule, acceptor atom, score
      P1  H  7989  7998       L1    12  0.11
      P1  H  7997  8009       L1     9  1.00

> <Gold.Chemscore.Hbond.Weighted>
-5.5659

> <Gold.Chemscore.Metal.Weighted>
-0.0000

> <Gold.Chemscore.Lipo.Weighted>
-12.4184

> <Gold.Chemscore.Internal_Hbond.Weighted>
0.0000

> <Gold.Chemscore.DEClash.Weighted>
0.0959

> <Gold.Chemscore.DEInternal.Weighted>
1.6295

> <Gold.Chemscore.Rot.Weighted>
3.8057

> <Gold.Chemscore.Internal.Correction.Weighted>
   9.000000E+99

> <Gold.Protein.RotatedTorsions>
[ 6907 6896 6895 6894 ] final  165.89 input  -60.11 | X-H torsion
[ 7974 7965 7964 7962 ] final  116.04 input  175.53 | X-H torsion
[ 8008 7997 7996 7995 ] final -162.15 input   59.86 | X-H torsion
[ 10167 10162 10161 10158 ] final  140.48 input  -65.29 | X-H torsion
[ 10718 10713 10712 10709 ] final  -73.74 input   66.30 | X-H torsion
[ 10763 10752 10751 10750 ] final  163.55 input  -60.55 | X-H torsion
[ 11005 11000 10999 10996 ] final  -41.89 input  -57.11 | X-H torsion

> <Gold.Protein.ActiveResidues>
 VAL166  LYS551  ARG553  GLY616  TRP617  ASP618  TYR619  PRO620  LYS621  CYS622 
 ASP623  PHE694  ASN695  SER759  ASP760  ASP761  ALA762  ILE779  LEU786  VAL792 
 PHE793  MET794  SER795  GLU796  ALA797  LYS798  CYS799  TRP800  GLU811  SER814 

> <Gold.Protein.RotatedAtoms>
  151.8873  133.3508  159.3786 H   0  0  0  0  0  0  0  0  0  0  0  0  # atno 6907 bound_to 6896
  150.7112  134.4958  159.5547 H   0  0  0  0  0  0  0  0  0  0  0  0  # atno 6908 bound_to 6896
  152.2522  134.8121  160.0495 H   0  0  0  0  0  0  0  0  0  0  0  0  # atno 6909 bound_to 6896
  145.1845  139.3032  143.4400 H   0  0  0  0  0  0  0  0  0  0  0  0  # atno 7974 bound_to 7965
  155.8026  140.0894  157.1948 H   0  0  0  0  0  0  0  0  0  0  0  0  # atno 8008 bound_to 7997
  154.3981  140.1469  156.3351 H   0  0  0  0  0  0  0  0  0  0  0  0  # atno 8009 bound_to 7997
  155.8447  140.3437  155.5657 H   0  0  0  0  0  0  0  0  0  0  0  0  # atno 8010 bound_to 7997
  139.5047  144.6231  151.6003 H   0  0  0  0  0  0  0  0  0  0  0  0  # atno 10167 bound_to 10162
  156.0269  130.4401  150.2787 H   0  0  0  0  0  0  0  0  0  0  0  0  # atno 10718 bound_to 10713
  154.2955  135.2760  155.2635 H   0  0  0  0  0  0  0  0  0  0  0  0  # atno 10763 bound_to 10752
  154.5095  135.5786  153.6597 H   0  0  0  0  0  0  0  0  0  0  0  0  # atno 10764 bound_to 10752
  152.9908  135.6177  154.3122 H   0  0  0  0  0  0  0  0  0  0  0  0  # atno 10765 bound_to 10752
  141.0277  133.6834  156.2519 H   0  0  0  0  0  0  0  0  0  0  0  0  # atno 11005 bound_to 11000
  146.3447  140.2036  142.8589 LP  0  0  0  0  0  0  0  0  0  0  0  0  # atno 17320 bound_to 7965
  145.0103  140.8708  143.5228 LP  0  0  0  0  0  0  0  0  0  0  0  0  # atno 17321 bound_to 7965
  140.5940  143.9730  150.6342 LP  0  0  0  0  0  0  0  0  0  0  0  0  # atno 17342 bound_to 10162
  140.2919  143.3318  152.1054 LP  0  0  0  0  0  0  0  0  0  0  0  0  # atno 17343 bound_to 10162
  157.0890  131.0164  151.3128 LP  0  0  0  0  0  0  0  0  0  0  0  0  # atno 17370 bound_to 10713
  157.4868  130.7798  149.7468 LP  0  0  0  0  0  0  0  0  0  0  0  0  # atno 17371 bound_to 10713
  140.6462  134.5115  157.5574 LP  0  0  0  0  0  0  0  0  0  0  0  0  # atno 17394 bound_to 11000
  139.9187  134.8193  156.1281 LP  0  0  0  0  0  0  0  0  0  0  0  0  # atno 17395 bound_to 11000

$$$$
