AV-unprocessed.smi:1782|AV-procd|sdf|7190|dock3
  -GOLD-   22720 8433D 1   1.00000     0.00000
 Structure written by MMmdl.
 42 44  0  0  0  0  0  0  0  0  2 V2000
  149.4878  143.0604  158.4261 O   0  0  0  0  0  0  0  0  0  0  0  0
  150.5188  142.8705  157.7826 C   0  0  0  0  0  0  0  0  0  0  0  0
  151.8221  143.5492  158.2408 C   0  0  0  0  0  0  0  0  0  0  0  0
  152.4286  142.9821  159.4601 N   0  0  0  0  0  0  0  0  0  0  0  0
  152.3907  143.7804  160.6172 C   0  0  0  0  0  0  0  0  0  0  0  0
  152.9146  143.3653  161.7784 C   0  0  0  0  0  0  0  0  0  0  0  0
  153.5301  142.0615  161.8216 C   0  0  0  0  0  0  0  0  0  0  0  0
  153.5860  141.2721  160.7241 C   0  0  0  0  0  0  0  0  0  0  0  0
  154.2392  139.8920  160.7507 C   0  0  0  0  0  0  0  0  0  0  0  0
  153.3524  138.9466  160.4381 F   0  0  0  0  0  0  0  0  0  0  0  0
  155.2402  139.8325  159.8713 F   0  0  0  0  0  0  0  0  0  0  0  0
  154.7369  139.6032  161.9541 F   0  0  0  0  0  0  0  0  0  0  0  0
  153.0059  141.7400  159.4487 C   0  0  0  0  0  0  0  0  0  0  0  0
  153.0436  141.0642  158.4193 O   0  0  0  0  0  0  0  0  0  0  0  0
  150.5563  142.0873  156.6915 N   0  0  0  0  0  0  0  0  0  0  0  0
  149.4211  141.3534  156.1467 C   0  0  2  0  0  0  0  0  0  0  0  0
  149.7793  140.0239  155.4894 C   0  0  0  0  0  0  0  0  0  0  0  0
  148.5681  139.7638  154.5873 C   0  0  0  0  0  0  0  0  0  0  0  0
  148.0190  141.0925  154.2183 N   0  3  1  0  0  0  0  0  0  0  0  0
  146.5501  141.1884  154.3633 C   0  0  0  0  0  0  0  0  0  0  0  0
  146.0375  142.6083  154.4049 C   0  0  0  0  0  0  0  0  0  0  0  0
  146.1132  141.7918  155.6770 C   0  0  0  0  0  0  0  0  0  0  0  0
  148.7584  142.1107  154.9967 C   0  0  0  0  0  0  0  0  0  0  0  0
  152.5309  143.5055  157.4126 H   0  0  0  0  0  0  0  0  0  0  0  0
  151.6249  144.6136  158.3804 H   0  0  0  0  0  0  0  0  0  0  0  0
  151.9164  144.7441  160.4994 H   0  0  0  0  0  0  0  0  0  0  0  0
  152.8788  143.9912  162.6581 H   0  0  0  0  0  0  0  0  0  0  0  0
  153.9522  141.7248  162.7569 H   0  0  0  0  0  0  0  0  0  0  0  0
  151.4404  141.9858  156.2143 H   0  0  0  0  0  0  0  0  0  0  0  0
  148.6824  141.1845  156.9330 H   0  0  0  0  0  0  0  0  0  0  0  0
  150.6806  140.1308  154.8833 H   0  0  0  0  0  0  0  0  0  0  0  0
  149.9490  139.2225  156.2092 H   0  0  0  0  0  0  0  0  0  0  0  0
  148.8335  139.1888  153.7000 H   0  0  0  0  0  0  0  0  0  0  0  0
  147.8222  139.1896  155.1399 H   0  0  0  0  0  0  0  0  0  0  0  0
  145.9628  140.4013  153.8930 H   0  0  0  0  0  0  0  0  0  0  0  0
  146.7546  143.4185  154.2831 H   0  0  0  0  0  0  0  0  0  0  0  0
  145.0481  142.7974  153.9932 H   0  0  0  0  0  0  0  0  0  0  0  0
  145.1741  141.4431  156.1022 H   0  0  0  0  0  0  0  0  0  0  0  0
  146.8804  142.0597  156.4017 H   0  0  0  0  0  0  0  0  0  0  0  0
  148.1205  142.9241  155.3465 H   0  0  0  0  0  0  0  0  0  0  0  0
  149.5150  142.5462  154.3420 H   0  0  0  0  0  0  0  0  0  0  0  0
  148.2328  141.2543  153.2445 H   0  0  0  0  0  0  0  0  0  0  0  0
  1  2  2  0  0  0  0
  2  3  1  0  0  0  0
  2 15  1  0  0  0  0
  3  4  1  0  0  0  0
  3 24  1  0  0  0  0
  3 25  1  0  0  0  0
  4 13  1  0  0  0  0
  4  5  1  0  0  0  0
  5  6  2  0  0  0  0
  5 26  1  0  0  0  0
  6  7  1  0  0  0  0
  6 27  1  0  0  0  0
  7  8  2  0  0  0  0
  7 28  1  0  0  0  0
  8  9  1  0  0  0  0
  8 13  1  0  0  0  0
  9 10  1  0  0  0  0
  9 11  1  0  0  0  0
  9 12  1  0  0  0  0
 13 14  2  0  0  0  0
 15 16  1  0  0  0  0
 15 29  1  0  0  0  0
 16 23  1  0  0  0  0
 16 17  1  0  0  0  0
 16 30  1  0  0  0  0
 17 18  1  0  0  0  0
 17 31  1  0  0  0  0
 17 32  1  0  0  0  0
 18 19  1  0  0  0  0
 18 33  1  0  0  0  0
 18 34  1  0  0  0  0
 19 20  1  0  0  0  0
 19 23  1  0  0  0  0
 19 42  1  0  0  0  0
 20 22  1  0  0  0  0
 20 21  1  0  0  0  0
 20 35  1  0  0  0  0
 21 22  1  0  0  0  0
 21 36  1  0  0  0  0
 21 37  1  0  0  0  0
 22 38  1  0  0  0  0
 22 39  1  0  0  0  0
 23 40  1  0  0  0  0
 23 41  1  0  0  0  0
M  CHG  1  19   1
M  END
> <s_m_source_file>
AV-unprocessed.smi

> <i_m_source_file_index>
1782

> <i_lp_mmshare_version>
43012

> <i_f3d_flags>
0

> <s_epik_input>
W0NIMl0xW0NIMl1bQ0hdMU4oW0NIMl0yKVtDSDJdW0NIMl1bQ0BIXTJbTkhdQyg9TylbQ0gyXW4zW2NIXVtjSF1bY0hdYyhDKEYpKEYpRiljMz1P

> <s_epik_cmdline>
J2VwaWtfcHl0aG9uJywgJy1waCcsICc3LjAnLCAnLXRuJywgJzgnLCAnLW1hJywgJzIwMCcsICctbWV0YWxfYmluZGluZycsICctaW1hZScsICc8aW5maWxlLm1hZT4nLCAnLW9tYWUnLCAnPG91dGZpbGUubWFlPic=

> <r_lp_tautomer_probability>
1

> <r_epik_Ionization_Penalty>
0.00106789

> <r_epik_Ionization_Penalty_Charging>
0.00106781

> <r_epik_Ionization_Penalty_Neutral>
8.2288e-08

> <r_epik_State_Penalty>
0.000699156

> <r_epik_Charging_Adjusted_Penalty>
0.00176697

> <i_epik_Tot_Q>
1

> <i_epik_Tot_abs_Q>
1

> <r_epik_Metal_State_Penalty>
-0

> <b_epik_Metal_Only>
0

> <s_lp_Force_Field>
OPLS_2005

> <r_lp_Energy>
47.5501

> <b_lp_Chiralities_Consistent>
1

> <s_lp_Variant>
AV-unprocessed.smi:1782-3

> <Gold.Version>
5.8.1

> <Gold.Id.Protein>
6NUR|6NUR_protein|mol2

> <Gold.PLP.Fitness>
54.5082

> <Gold.PLP.PLP>
-52.1105

> <Gold.PLP.part.hbond>
-2.0000

> <Gold.PLP.part.metal>
0.0000

> <Gold.PLP.part.buried>
-0.7473

> <Gold.PLP.part.nonpolar>
-48.7570

> <Gold.PLP.part.repulsive>
0.4085

> <Gold.PLP.ligand.clash>
0.3101

> <Gold.PLP.ligand.torsion>
1.2194

> <Gold.PLP.Chemscore.Hbond>
1.1796

> <Gold.PLP.Chemscore.CHOScore>
0.0000

> <Gold.PLP.Chemscore.Metal>
0.0000

> <Gold.Chemscore.Hbonds>
donor molecule, donor type, donor heavy atom, donor atom, acceptor molecule, acceptor atom, score
      P1  H  7997  8008       L1    14  0.15

> <Gold.PLP.Chemscore.Internal.Correction>
1.6079

> <Gold.Rescore>
     Score         DG    S(hbond)    S(metal)    S(lipo)     H(rot)  DE(clash)    DE(int)     intcor
     14.77     -18.83       1.76        0.00     103.56       1.81       0.49       3.57       ----

> <Gold.Chemscore.Fitness>
14.7720

> <Gold.Chemscore.DG>
-18.8330

> <Gold.Chemscore.ZeroCoef>
-5.4800

> <Gold.Chemscore.Hbond>
1.7577

> <Gold.Chemscore.Metal>
0.0000

> <Gold.Chemscore.Lipo>
103.5556

> <Gold.Chemscore.Internal_Hbond>
0.0000

> <Gold.Chemscore.DEClash>
0.4932

> <Gold.Chemscore.DEInternal>
3.5679

> <Gold.Chemscore.Rot>
1.8101

> <Gold.Chemscore.Internal.Correction>
   9.000000E+99

> <Gold.Chemscore.Hbonds>
donor molecule, donor type, donor heavy atom, donor atom, acceptor molecule, acceptor atom, score
      P1  H  7997  8008       L1    14  0.15

> <Gold.Chemscore.Hbond.Weighted>
-5.8708

> <Gold.Chemscore.Metal.Weighted>
-0.0000

> <Gold.Chemscore.Lipo.Weighted>
-12.1160

> <Gold.Chemscore.Internal_Hbond.Weighted>
0.0000

> <Gold.Chemscore.DEClash.Weighted>
0.4932

> <Gold.Chemscore.DEInternal.Weighted>
3.5679

> <Gold.Chemscore.Rot.Weighted>
4.6338

> <Gold.Chemscore.Internal.Correction.Weighted>
   9.000000E+99

> <Gold.Protein.RotatedTorsions>
[ 6907 6896 6895 6894 ] final -157.53 input  -60.11 | X-H torsion
[ 7974 7965 7964 7962 ] final  153.28 input  175.53 | X-H torsion
[ 8008 7997 7996 7995 ] final  -91.97 input   59.86 | X-H torsion
[ 10167 10162 10161 10158 ] final  -30.49 input  -65.29 | X-H torsion
[ 10718 10713 10712 10709 ] final  -76.82 input   66.30 | X-H torsion
[ 10763 10752 10751 10750 ] final  176.92 input  -60.55 | X-H torsion
[ 11005 11000 10999 10996 ] final   19.05 input  -57.11 | X-H torsion

> <Gold.Protein.ActiveResidues>
 VAL166  LYS551  ARG553  GLY616  TRP617  ASP618  TYR619  PRO620  LYS621  CYS622 
 ASP623  PHE694  ASN695  SER759  ASP760  ASP761  ALA762  ILE779  LEU786  VAL792 
 PHE793  MET794  SER795  GLU796  ALA797  LYS798  CYS799  TRP800  GLU811  SER814 

> <Gold.Protein.RotatedAtoms>
  151.3043  133.4108  159.2641 H   0  0  0  0  0  0  0  0  0  0  0  0  # atno 6907 bound_to 6896
  151.0169  134.9440  159.8048 H   0  0  0  0  0  0  0  0  0  0  0  0  # atno 6908 bound_to 6896
  152.5314  134.3006  159.9129 H   0  0  0  0  0  0  0  0  0  0  0  0  # atno 6909 bound_to 6896
  144.8165  139.6780  143.6119 H   0  0  0  0  0  0  0  0  0  0  0  0  # atno 7974 bound_to 7965
  154.7173  140.0514  157.0607 H   0  0  0  0  0  0  0  0  0  0  0  0  # atno 8008 bound_to 7997
  155.0474  140.3175  155.4684 H   0  0  0  0  0  0  0  0  0  0  0  0  # atno 8009 bound_to 7997
  156.2806  140.2122  156.5599 H   0  0  0  0  0  0  0  0  0  0  0  0  # atno 8010 bound_to 7997
  140.7248  143.3844  151.1541 H   0  0  0  0  0  0  0  0  0  0  0  0  # atno 10167 bound_to 10162
  156.0163  130.4475  150.3252 H   0  0  0  0  0  0  0  0  0  0  0  0  # atno 10718 bound_to 10713
  154.4876  135.2777  155.1522 H   0  0  0  0  0  0  0  0  0  0  0  0  # atno 10763 bound_to 10752
  154.3206  135.6210  153.5510 H   0  0  0  0  0  0  0  0  0  0  0  0  # atno 10764 bound_to 10752
  152.9883  135.5742  154.5291 H   0  0  0  0  0  0  0  0  0  0  0  0  # atno 10765 bound_to 10752
  140.4180  134.1548  155.7671 H   0  0  0  0  0  0  0  0  0  0  0  0  # atno 11005 bound_to 11000
  146.2468  139.6115  142.9454 LP  0  0  0  0  0  0  0  0  0  0  0  0  # atno 17320 bound_to 7965
  145.5203  141.0432  143.2439 LP  0  0  0  0  0  0  0  0  0  0  0  0  # atno 17321 bound_to 7965
  139.7439  143.8882  152.3058 LP  0  0  0  0  0  0  0  0  0  0  0  0  # atno 17342 bound_to 10162
  139.8713  144.7067  150.8985 LP  0  0  0  0  0  0  0  0  0  0  0  0  # atno 17343 bound_to 10162
  157.1351  131.0282  151.2952 LP  0  0  0  0  0  0  0  0  0  0  0  0  # atno 17370 bound_to 10713
  157.4518  130.7603  149.7158 LP  0  0  0  0  0  0  0  0  0  0  0  0  # atno 17371 bound_to 10713
  141.1795  133.8444  157.1307 LP  0  0  0  0  0  0  0  0  0  0  0  0  # atno 17394 bound_to 11000
  140.0220  134.9941  157.0611 LP  0  0  0  0  0  0  0  0  0  0  0  0  # atno 17395 bound_to 11000

$$$$
