AV-unprocessed.smi:38|AV-procd|sdf|337|dock9
  -GOLD-   2262016173D 1   1.00000     0.00000
 Structure written by MMmdl.
 28 29  0  0  0  0  0  0  0  0  1 V2000
  151.9323  141.0172  158.9562 O   0  0  0  0  0  0  0  0  0  0  0  0
  151.2934  141.0806  157.9077 C   0  0  0  0  0  0  0  0  0  0  0  0
  151.6138  140.2411  156.8375 N   0  0  0  0  0  0  0  0  0  0  0  0
  150.9625  140.2167  155.6031 C   0  0  0  0  0  0  0  0  0  0  0  0
  151.3436  139.4466  154.7225 O   0  0  0  0  0  0  0  0  0  0  0  0
  149.8760  141.1022  155.4249 N   0  0  0  0  0  0  0  0  0  0  0  0
  149.1660  141.1072  154.0857 C   0  0  1  0  0  0  0  0  0  0  0  0
  148.3911  139.8009  153.8569 C   0  0  0  0  0  0  0  0  0  0  0  0
  147.1310  140.3092  153.1910 C   0  0  1  0  0  0  0  0  0  0  0  0
  146.0633  139.3882  153.2905 O   0  0  0  0  0  0  0  0  0  0  0  0
  146.8940  141.6451  153.9054 C   0  0  1  0  0  0  0  0  0  0  0  0
  146.2398  141.5327  155.3008 C   0  0  0  0  0  0  0  0  0  0  0  0
  144.9248  141.0360  155.1742 O   0  0  0  0  0  0  0  0  0  0  0  0
  148.2249  142.1459  154.0473 O   0  0  0  0  0  0  0  0  0  0  0  0
  149.5394  141.9745  156.4549 C   0  0  0  0  0  0  0  0  0  0  0  0
  150.1824  141.9907  157.6466 C   0  0  0  0  0  0  0  0  0  0  0  0
  149.7971  142.8602  158.5962 F   0  0  0  0  0  0  0  0  0  0  0  0
  152.3851  139.6024  156.9664 H   0  0  0  0  0  0  0  0  0  0  0  0
  149.9423  141.2957  153.3415 H   0  0  0  0  0  0  0  0  0  0  0  0
  147.3344  140.4964  152.1356 H   0  0  0  0  0  0  0  0  0  0  0  0
  146.3028  142.3078  153.2719 H   0  0  0  0  0  0  0  0  0  0  0  0
  148.9587  139.1016  153.2424 H   0  0  0  0  0  0  0  0  0  0  0  0
  148.1628  139.3313  154.8154 H   0  0  0  0  0  0  0  0  0  0  0  0
  145.2741  139.8084  152.9836 H   0  0  0  0  0  0  0  0  0  0  0  0
  146.7816  140.8223  155.9250 H   0  0  0  0  0  0  0  0  0  0  0  0
  146.2354  142.4831  155.8334 H   0  0  0  0  0  0  0  0  0  0  0  0
  144.7259  140.9425  154.2548 H   0  0  0  0  0  0  0  0  0  0  0  0
  148.7351  142.6831  156.3285 H   0  0  0  0  0  0  0  0  0  0  0  0
  1  2  2  0  0  0  0
  2 16  1  0  0  0  0
  2  3  1  0  0  0  0
  3 18  1  0  0  0  0
  3  4  1  0  0  0  0
  4  5  2  0  0  0  0
  4  6  1  0  0  0  0
  6  7  1  0  0  0  0
  6 15  1  0  0  0  0
  7 19  1  0  0  0  0
  7 14  1  0  0  0  0
  7  8  1  0  0  0  0
  8  9  1  0  0  0  0
  8 22  1  0  0  0  0
  8 23  1  0  0  0  0
  9 20  1  0  0  0  0
  9 10  1  0  0  0  0
  9 11  1  0  0  0  0
 10 24  1  0  0  0  0
 11 21  1  0  0  0  0
 11 12  1  0  0  0  0
 11 14  1  0  0  0  0
 12 13  1  0  0  0  0
 12 25  1  0  0  0  0
 12 26  1  0  0  0  0
 13 27  1  0  0  0  0
 15 16  2  0  0  0  0
 15 28  1  0  0  0  0
 16 17  1  0  0  0  0
M  END
> <s_m_source_file>
AV-unprocessed.smi

> <i_m_source_file_index>
38

> <i_lp_mmshare_version>
43012

> <i_f3d_flags>
0

> <s_epik_input>
Tz1jMVtuSF1jKD1PKW4oW2NIXWMxRilbQ0BIXTJbQ0gyXVtDQEhdKFtPSF0pW0NASF0oTzIpW0NIMl1bT0hd

> <s_epik_cmdline>
J2VwaWtfcHl0aG9uJywgJy1waCcsICc3LjAnLCAnLXRuJywgJzgnLCAnLW1hJywgJzIwMCcsICctbWV0YWxfYmluZGluZycsICctaW1hZScsICc8aW5maWxlLm1hZT4nLCAnLW9tYWUnLCAnPG91dGZpbGUubWFlPic=

> <r_lp_tautomer_probability>
0.999537

> <r_epik_Ionization_Penalty>
0.0357432

> <r_epik_Ionization_Penalty_Charging>
0.0357431

> <r_epik_Ionization_Penalty_Neutral>
1.19946e-07

> <r_epik_State_Penalty>
0.0298169

> <r_epik_Charging_Adjusted_Penalty>
0.06556

> <i_epik_Tot_Q>
0

> <i_epik_Tot_abs_Q>
0

> <r_epik_Metal_State_Penalty>
2.348

> <b_epik_Metal_Only>
0

> <s_epik_Chemistry_Notes>
This compound contains an acetal/aminal-like group ( X-CH(R)-Y where X, Y are N, S, or O) that may be acid/base labile, releasing an aldehyde.

> <s_lp_Force_Field>
OPLS_2005

> <r_lp_Energy>
30.312

> <b_lp_Chiralities_Consistent>
1

> <s_lp_Variant>
AV-unprocessed.smi:38-3

> <Gold.Version>
5.8.1

> <Gold.Id.Protein>
6NUR|6NUR_protein|mol2

> <Gold.PLP.Fitness>
36.4129

> <Gold.PLP.PLP>
-25.6655

> <Gold.PLP.part.hbond>
-4.0000

> <Gold.PLP.part.metal>
0.0000

> <Gold.PLP.part.buried>
2.4450

> <Gold.PLP.part.nonpolar>
-23.5096

> <Gold.PLP.part.repulsive>
0.5624

> <Gold.PLP.ligand.clash>
0.0000

> <Gold.PLP.ligand.torsion>
0.0890

> <Gold.PLP.Chemscore.Hbond>
2.6913

> <Gold.PLP.Chemscore.CHOScore>
0.9429

> <Gold.PLP.Chemscore.Metal>
0.0000

> <Gold.Chemscore.Hbonds>
donor molecule, donor type, donor heavy atom, donor atom, acceptor molecule, acceptor atom, score
      L1  H    10    24       P1 10175  1.00
      L1  H    13    27       P1 10175  0.83
      P1  H  7989  7998       L1     5  0.65
      L1  C    15    28       P1  8028  0.96

> <Gold.PLP.Chemscore.Internal.Correction>
0.0230

> <Gold.Rescore>
     Score         DG    S(hbond)    S(metal)    S(lipo)     H(rot)  DE(clash)    DE(int)     intcor
      8.88      -9.36       2.24        0.00      33.10       2.91       0.36       0.12       ----

> <Gold.Chemscore.Fitness>
8.8832

> <Gold.Chemscore.DG>
-9.3595

> <Gold.Chemscore.ZeroCoef>
-5.4800

> <Gold.Chemscore.Hbond>
2.2357

> <Gold.Chemscore.Metal>
0.0000

> <Gold.Chemscore.Lipo>
33.0971

> <Gold.Chemscore.Internal_Hbond>
0.0000

> <Gold.Chemscore.DEClash>
0.3578

> <Gold.Chemscore.DEInternal>
0.1185

> <Gold.Chemscore.Rot>
2.9141

> <Gold.Chemscore.Internal.Correction>
   9.000000E+99

> <Gold.Chemscore.Hbonds>
donor molecule, donor type, donor heavy atom, donor atom, acceptor molecule, acceptor atom, score
      L1  H    10    24       P1 10175  1.00
      L1  H    13    27       P1 10175  0.77
      P1  H  7989  7998       L1     5  0.06

> <Gold.Chemscore.Hbond.Weighted>
-7.4673

> <Gold.Chemscore.Metal.Weighted>
-0.0000

> <Gold.Chemscore.Lipo.Weighted>
-3.8724

> <Gold.Chemscore.Internal_Hbond.Weighted>
0.0000

> <Gold.Chemscore.DEClash.Weighted>
0.3578

> <Gold.Chemscore.DEInternal.Weighted>
0.1185

> <Gold.Chemscore.Rot.Weighted>
7.4601

> <Gold.Chemscore.Internal.Correction.Weighted>
   9.000000E+99

> <Gold.Protein.RotatedTorsions>
[ 6907 6896 6895 6894 ] final  -98.12 input  -60.11 | X-H torsion
[ 7974 7965 7964 7962 ] final  171.84 input  175.53 | X-H torsion
[ 8008 7997 7996 7995 ] final   56.97 input   59.86 | X-H torsion
[ 10167 10162 10161 10158 ] final    5.65 input  -65.29 | X-H torsion
[ 10718 10713 10712 10709 ] final   74.24 input   66.30 | X-H torsion
[ 10763 10752 10751 10750 ] final  161.17 input  -60.55 | X-H torsion
[ 11005 11000 10999 10996 ] final  -24.01 input  -57.11 | X-H torsion

> <Gold.Protein.ActiveResidues>
 VAL166  LYS551  ARG553  GLY616  TRP617  ASP618  TYR619  PRO620  LYS621  CYS622 
 ASP623  PHE694  ASN695  SER759  ASP760  ASP761  ALA762  ILE779  LEU786  VAL792 
 PHE793  MET794  SER795  GLU796  ALA797  LYS798  CYS799  TRP800  GLU811  SER814 

> <Gold.Protein.RotatedAtoms>
  150.7037  134.1243  159.4046 H   0  0  0  0  0  0  0  0  0  0  0  0  # atno 6907 bound_to 6896
  151.9229  135.0288  160.0533 H   0  0  0  0  0  0  0  0  0  0  0  0  # atno 6908 bound_to 6896
  152.2241  133.4971  159.5215 H   0  0  0  0  0  0  0  0  0  0  0  0  # atno 6909 bound_to 6896
  144.7284  139.9410  143.6428 H   0  0  0  0  0  0  0  0  0  0  0  0  # atno 7974 bound_to 7965
  155.5261  140.3481  155.4416 H   0  0  0  0  0  0  0  0  0  0  0  0  # atno 8008 bound_to 7997
  156.0750  140.1372  156.9809 H   0  0  0  0  0  0  0  0  0  0  0  0  # atno 8009 bound_to 7997
  154.4548  140.0958  156.6702 H   0  0  0  0  0  0  0  0  0  0  0  0  # atno 8010 bound_to 7997
  140.6470  143.7637  150.7515 H   0  0  0  0  0  0  0  0  0  0  0  0  # atno 10167 bound_to 10162
  157.6583  130.9668  150.1182 H   0  0  0  0  0  0  0  0  0  0  0  0  # atno 10718 bound_to 10713
  154.2587  135.2769  155.2787 H   0  0  0  0  0  0  0  0  0  0  0  0  # atno 10763 bound_to 10752
  154.5402  135.5705  153.6836 H   0  0  0  0  0  0  0  0  0  0  0  0  # atno 10764 bound_to 10752
  152.9966  135.6249  154.2737 H   0  0  0  0  0  0  0  0  0  0  0  0  # atno 10765 bound_to 10752
  140.8805  133.7657  156.0296 H   0  0  0  0  0  0  0  0  0  0  0  0  # atno 11005 bound_to 11000
  146.0785  139.3773  143.0479 LP  0  0  0  0  0  0  0  0  0  0  0  0  # atno 17320 bound_to 7965
  145.7873  140.9830  143.1067 LP  0  0  0  0  0  0  0  0  0  0  0  0  # atno 17321 bound_to 7965
  140.1280  143.4552  152.2272 LP  0  0  0  0  0  0  0  0  0  0  0  0  # atno 17342 bound_to 10162
  139.5682  144.7447  151.3964 LP  0  0  0  0  0  0  0  0  0  0  0  0  # atno 17343 bound_to 10162
  156.2061  130.3663  149.8728 LP  0  0  0  0  0  0  0  0  0  0  0  0  # atno 17370 bound_to 10713
  156.6619  130.8785  151.3548 LP  0  0  0  0  0  0  0  0  0  0  0  0  # atno 17371 bound_to 10713
  140.8467  134.3003  157.5292 LP  0  0  0  0  0  0  0  0  0  0  0  0  # atno 17394 bound_to 11000
  139.8719  134.9445  156.3884 LP  0  0  0  0  0  0  0  0  0  0  0  0  # atno 17395 bound_to 11000

$$$$
