AV-unprocessed.smi:26|AV-procd|sdf|185|dock5
  -GOLD-   2262015453D 1   1.00000     0.00000
 Structure written by MMmdl.
 58 61  0  0  0  0  0  0  0  0  1 V2000
  147.1508  132.7560  157.3319 C   0  0  0  0  0  0  0  0  0  0  0  0
  147.4561  133.9191  158.2230 C   0  0  0  0  0  0  0  0  0  0  0  0
  148.0584  135.0947  157.8876 C   0  0  0  0  0  0  0  0  0  0  0  0
  148.1380  135.9155  159.0443 C   0  0  0  0  0  0  0  0  0  0  0  0
  148.7427  137.2673  159.1618 C   0  0  0  0  0  0  0  0  0  0  0  0
  148.3521  138.1166  159.9638 O   0  0  0  0  0  0  0  0  0  0  0  0
  149.9253  137.5543  158.2174 C   0  0  0  0  0  0  0  0  0  0  0  0
  150.9249  138.4377  158.8057 N   0  0  0  0  0  0  0  0  0  0  0  0
  152.1581  137.8648  159.2055 C   0  0  0  0  0  0  0  0  0  0  0  0
  152.3984  136.6643  159.0657 O   0  0  0  0  0  0  0  0  0  0  0  0
  153.1082  138.8116  159.7789 C   0  0  0  0  0  0  0  0  0  0  0  0
  154.3057  138.3750  160.2045 F   0  0  0  0  0  0  0  0  0  0  0  0
  152.8056  140.1231  159.8922 C   0  0  0  0  0  0  0  0  0  0  0  0
  151.5971  140.6587  159.4768 N   0  0  0  0  0  0  0  0  0  0  0  0
  151.2835  142.1338  159.6087 C   0  0  2  0  0  0  0  0  0  0  0  0
  152.1906  142.9660  158.6836 C   0  0  0  0  0  0  0  0  0  0  0  0
  152.7374  144.0254  159.6192 C   0  0  0  0  0  0  0  0  0  0  0  0
  152.7488  143.2921  160.9518 C   0  0  0  0  0  0  0  0  0  0  0  0
  151.5317  142.5580  160.9191 O   0  0  0  0  0  0  0  0  0  0  0  0
  150.6149  139.8147  158.9141 C   0  0  0  0  0  0  0  0  0  0  0  0
  149.5377  140.2734  158.5258 O   0  0  0  0  0  0  0  0  0  0  0  0
  147.5506  135.2209  160.0778 C   0  0  0  0  0  0  0  0  0  0  0  0
  147.2991  135.6070  161.5103 C   0  0  0  0  0  0  0  0  0  0  0  0
  147.1678  133.9661  159.5886 N   0  0  0  0  0  0  0  0  0  0  0  0
  146.5295  132.9067  160.3867 C   0  0  1  0  0  0  0  0  0  0  0  0
  147.5169  132.3178  161.4125 C   0  0  0  0  0  0  0  0  0  0  0  0
  145.1659  133.3285  160.9401 C   0  0  0  0  0  0  0  0  0  0  0  0
  145.0761  133.7346  162.2903 C   0  0  0  0  0  0  0  0  0  0  0  0
  143.8420  134.1296  162.8404 C   0  0  0  0  0  0  0  0  0  0  0  0
  142.6832  134.1278  162.0422 C   0  0  0  0  0  0  0  0  0  0  0  0
  142.7615  133.7317  160.6943 C   0  0  0  0  0  0  0  0  0  0  0  0
  143.9959  133.3356  160.1438 C   0  0  0  0  0  0  0  0  0  0  0  0
  147.2262  133.0456  156.2836 H   0  0  0  0  0  0  0  0  0  0  0  0
  146.1426  132.3776  157.4904 H   0  0  0  0  0  0  0  0  0  0  0  0
  147.8569  131.9420  157.4955 H   0  0  0  0  0  0  0  0  0  0  0  0
  148.4143  135.3375  156.8970 H   0  0  0  0  0  0  0  0  0  0  0  0
  150.4203  136.6285  157.9207 H   0  0  0  0  0  0  0  0  0  0  0  0
  149.5823  138.0093  157.2867 H   0  0  0  0  0  0  0  0  0  0  0  0
  153.5551  140.7651  160.3284 H   0  0  0  0  0  0  0  0  0  0  0  0
  150.2175  142.2315  159.3958 H   0  0  0  0  0  0  0  0  0  0  0  0
  153.0010  142.3481  158.2935 H   0  0  0  0  0  0  0  0  0  0  0  0
  151.6255  143.3789  157.8476 H   0  0  0  0  0  0  0  0  0  0  0  0
  153.7210  144.3907  159.3238 H   0  0  0  0  0  0  0  0  0  0  0  0
  152.0545  144.8746  159.6659 H   0  0  0  0  0  0  0  0  0  0  0  0
  153.5988  142.6111  161.0122 H   0  0  0  0  0  0  0  0  0  0  0  0
  152.7871  143.9685  161.8060 H   0  0  0  0  0  0  0  0  0  0  0  0
  147.2817  136.6861  161.6488 H   0  0  0  0  0  0  0  0  0  0  0  0
  148.0675  135.1942  162.1639 H   0  0  0  0  0  0  0  0  0  0  0  0
  146.3283  135.2539  161.8563 H   0  0  0  0  0  0  0  0  0  0  0  0
  146.2684  132.0899  159.7161 H   0  0  0  0  0  0  0  0  0  0  0  0
  147.0862  131.4563  161.9230 H   0  0  0  0  0  0  0  0  0  0  0  0
  147.8111  133.0440  162.1689 H   0  0  0  0  0  0  0  0  0  0  0  0
  148.4281  131.9776  160.9198 H   0  0  0  0  0  0  0  0  0  0  0  0
  145.9599  133.7388  162.9117 H   0  0  0  0  0  0  0  0  0  0  0  0
  143.7849  134.4340  163.8750 H   0  0  0  0  0  0  0  0  0  0  0  0
  141.7357  134.4310  162.4629 H   0  0  0  0  0  0  0  0  0  0  0  0
  141.8728  133.7311  160.0806 H   0  0  0  0  0  0  0  0  0  0  0  0
  144.0226  133.0335  159.1083 H   0  0  0  0  0  0  0  0  0  0  0  0
  1  2  1  0  0  0  0
  1 33  1  0  0  0  0
  1 34  1  0  0  0  0
  1 35  1  0  0  0  0
  2 24  1  0  0  0  0
  2  3  2  0  0  0  0
  3  4  1  0  0  0  0
  3 36  1  0  0  0  0
  4  5  1  0  0  0  0
  4 22  2  0  0  0  0
  5  6  2  0  0  0  0
  5  7  1  0  0  0  0
  7  8  1  0  0  0  0
  7 37  1  0  0  0  0
  7 38  1  0  0  0  0
  8 20  1  0  0  0  0
  8  9  1  0  0  0  0
  9 10  2  0  0  0  0
  9 11  1  0  0  0  0
 11 12  1  0  0  0  0
 11 13  2  0  0  0  0
 13 14  1  0  0  0  0
 13 39  1  0  0  0  0
 14 15  1  0  0  0  0
 14 20  1  0  0  0  0
 15 19  1  0  0  0  0
 15 16  1  0  0  0  0
 15 40  1  0  0  0  0
 16 17  1  0  0  0  0
 16 41  1  0  0  0  0
 16 42  1  0  0  0  0
 17 18  1  0  0  0  0
 17 43  1  0  0  0  0
 17 44  1  0  0  0  0
 18 19  1  0  0  0  0
 18 45  1  0  0  0  0
 18 46  1  0  0  0  0
 20 21  2  0  0  0  0
 22 23  1  0  0  0  0
 22 24  1  0  0  0  0
 23 47  1  0  0  0  0
 23 48  1  0  0  0  0
 23 49  1  0  0  0  0
 24 25  1  0  0  0  0
 25 26  1  0  0  0  0
 25 27  1  0  0  0  0
 25 50  1  0  0  0  0
 26 51  1  0  0  0  0
 26 52  1  0  0  0  0
 26 53  1  0  0  0  0
 27 32  1  0  0  0  0
 27 28  2  0  0  0  0
 28 29  1  0  0  0  0
 28 54  1  0  0  0  0
 29 30  2  0  0  0  0
 29 55  1  0  0  0  0
 30 31  1  0  0  0  0
 30 56  1  0  0  0  0
 31 32  2  0  0  0  0
 31 57  1  0  0  0  0
 32 58  1  0  0  0  0
M  END
> <s_m_source_file>
AV-unprocessed.smi

> <i_m_source_file_index>
26

> <i_lp_mmshare_version>
43012

> <i_f3d_flags>
0

> <s_epik_input>
W2NIXTFbY0hdW2NIXVtjSF1bY0hdYzFbQ0BASF0oW0NIM10pbjJjKFtDSDNdKWMoW2NIXWMyW0NIM10pQyg9TylbQ0gyXW4zYyg9TyljKEYpW2NIXW4oYzM9TylbQ0BASF00W0NIMl1bQ0gyXVtDSDJdTzQ=

> <s_epik_cmdline>
J2VwaWtfcHl0aG9uJywgJy1waCcsICc3LjAnLCAnLXRuJywgJzgnLCAnLW1hJywgJzIwMCcsICctbWV0YWxfYmluZGluZycsICctaW1hZScsICc8aW5maWxlLm1hZT4nLCAnLW9tYWUnLCAnPG91dGZpbGUubWFlPic=

> <r_lp_tautomer_probability>
1

> <r_epik_Ionization_Penalty>
5.02402e-09

> <r_epik_Ionization_Penalty_Charging>
5.01743e-09

> <r_epik_Ionization_Penalty_Neutral>
6.58831e-12

> <r_epik_State_Penalty>
-0

> <r_epik_Charging_Adjusted_Penalty>
5.01743e-09

> <i_epik_Tot_Q>
0

> <i_epik_Tot_abs_Q>
0

> <r_epik_Metal_State_Penalty>
-0

> <b_epik_Metal_Only>
0

> <s_epik_Chemistry_Notes>
This compound contains an acetal/aminal-like group ( X-CH(R)-Y where X, Y are N, S, or O) that may be acid/base labile, releasing an aldehyde.

> <s_lp_Force_Field>
OPLS_2005

> <r_lp_Energy>
50.3932

> <b_lp_Chiralities_Consistent>
1

> <s_lp_Variant>
AV-unprocessed.smi:26-3

> <Gold.Version>
5.8.1

> <Gold.Id.Protein>
6NUR|6NUR_protein|mol2

> <Gold.PLP.Fitness>
50.7821

> <Gold.PLP.PLP>
-49.9909

> <Gold.PLP.part.hbond>
-3.9865

> <Gold.PLP.part.metal>
0.0000

> <Gold.PLP.part.buried>
-5.6782

> <Gold.PLP.part.nonpolar>
-40.8908

> <Gold.PLP.part.repulsive>
0.0152

> <Gold.PLP.ligand.clash>
0.0000

> <Gold.PLP.ligand.torsion>
1.7369

> <Gold.PLP.Chemscore.Hbond>
1.3309

> <Gold.PLP.Chemscore.CHOScore>
0.0000

> <Gold.PLP.Chemscore.Metal>
0.0000

> <Gold.Chemscore.Hbonds>
donor molecule, donor type, donor heavy atom, donor atom, acceptor molecule, acceptor atom, score
      P1  H  6896  6907       L1    10  0.91
      P1  H  6931  6943       L1     6  0.14
      P1  H  6933  6945       L1    19  0.22
      P1  H  6934  6947       L1     6  0.24

> <Gold.PLP.Chemscore.Internal.Correction>
0.2724

> <Gold.Rescore>
     Score         DG    S(hbond)    S(metal)    S(lipo)     H(rot)  DE(clash)    DE(int)     intcor
     16.10     -19.89       1.34        0.00     125.10       1.84       0.13       3.67       ----

> <Gold.Chemscore.Fitness>
16.0963

> <Gold.Chemscore.DG>
-19.8943

> <Gold.Chemscore.ZeroCoef>
-5.4800

> <Gold.Chemscore.Hbond>
1.3407

> <Gold.Chemscore.Metal>
0.0000

> <Gold.Chemscore.Lipo>
125.0983

> <Gold.Chemscore.Internal_Hbond>
0.0000

> <Gold.Chemscore.DEClash>
0.1276

> <Gold.Chemscore.DEInternal>
3.6705

> <Gold.Chemscore.Rot>
1.8359

> <Gold.Chemscore.Internal.Correction>
   9.000000E+99

> <Gold.Chemscore.Hbonds>
donor molecule, donor type, donor heavy atom, donor atom, acceptor molecule, acceptor atom, score
      P1  H  6896  6907       L1    10  0.89
      P1  H  6931  6943       L1     6  0.14
      P1  H  6933  6945       L1    19  0.15
      P1  H  6934  6947       L1     6  0.24

> <Gold.Chemscore.Hbond.Weighted>
-4.4778

> <Gold.Chemscore.Metal.Weighted>
-0.0000

> <Gold.Chemscore.Lipo.Weighted>
-14.6365

> <Gold.Chemscore.Internal_Hbond.Weighted>
0.0000

> <Gold.Chemscore.DEClash.Weighted>
0.1276

> <Gold.Chemscore.DEInternal.Weighted>
3.6705

> <Gold.Chemscore.Rot.Weighted>
4.7000

> <Gold.Chemscore.Internal.Correction.Weighted>
   9.000000E+99

> <Gold.Protein.RotatedTorsions>
[ 6907 6896 6895 6894 ] final   14.96 input  -60.11 | X-H torsion
[ 7974 7965 7964 7962 ] final  159.90 input  175.53 | X-H torsion
[ 8008 7997 7996 7995 ] final -163.19 input   59.86 | X-H torsion
[ 10167 10162 10161 10158 ] final -123.25 input  -65.29 | X-H torsion
[ 10718 10713 10712 10709 ] final  -97.29 input   66.30 | X-H torsion
[ 10763 10752 10751 10750 ] final   49.22 input  -60.55 | X-H torsion
[ 11005 11000 10999 10996 ] final  -39.45 input  -57.11 | X-H torsion

> <Gold.Protein.ActiveResidues>
 VAL166  LYS551  ARG553  GLY616  TRP617  ASP618  TYR619  PRO620  LYS621  CYS622 
 ASP623  PHE694  ASN695  SER759  ASP760  ASP761  ALA762  ILE779  LEU786  VAL792 
 PHE793  MET794  SER795  GLU796  ALA797  LYS798  CYS799  TRP800  GLU811  SER814 

> <Gold.Protein.RotatedAtoms>
  151.8104  135.0682  160.0411 H   0  0  0  0  0  0  0  0  0  0  0  0  # atno 6907 bound_to 6896
  152.3024  133.5664  159.5635 H   0  0  0  0  0  0  0  0  0  0  0  0  # atno 6908 bound_to 6896
  150.7280  134.0188  159.3736 H   0  0  0  0  0  0  0  0  0  0  0  0  # atno 6909 bound_to 6896
  144.7765  139.7682  143.6276 H   0  0  0  0  0  0  0  0  0  0  0  0  # atno 7974 bound_to 7965
  155.8177  140.0915  157.1867 H   0  0  0  0  0  0  0  0  0  0  0  0  # atno 8008 bound_to 7997
  154.3979  140.1442  156.3523 H   0  0  0  0  0  0  0  0  0  0  0  0  # atno 8009 bound_to 7997
  155.8299  140.3443  155.5568 H   0  0  0  0  0  0  0  0  0  0  0  0  # atno 8010 bound_to 7997
  140.0056  143.5495  152.2285 H   0  0  0  0  0  0  0  0  0  0  0  0  # atno 10167 bound_to 10162
  156.0080  130.5188  150.6353 H   0  0  0  0  0  0  0  0  0  0  0  0  # atno 10718 bound_to 10713
  152.9788  135.5918  154.4054 H   0  0  0  0  0  0  0  0  0  0  0  0  # atno 10763 bound_to 10752
  154.3695  135.2767  155.2276 H   0  0  0  0  0  0  0  0  0  0  0  0  # atno 10764 bound_to 10752
  154.4238  135.6053  153.6081 H   0  0  0  0  0  0  0  0  0  0  0  0  # atno 10765 bound_to 10752
  141.0103  133.6911  156.2188 H   0  0  0  0  0  0  0  0  0  0  0  0  # atno 11005 bound_to 11000
  146.1948  139.5208  142.9782 LP  0  0  0  0  0  0  0  0  0  0  0  0  # atno 17320 bound_to 7965
  145.6171  141.0329  143.1935 LP  0  0  0  0  0  0  0  0  0  0  0  0  # atno 17321 bound_to 7965
  139.6241  144.7634  151.2676 LP  0  0  0  0  0  0  0  0  0  0  0  0  # atno 17342 bound_to 10162
  140.7402  143.6595  150.8176 LP  0  0  0  0  0  0  0  0  0  0  0  0  # atno 17343 bound_to 10162
  157.4143  131.0828  151.1191 LP  0  0  0  0  0  0  0  0  0  0  0  0  # atno 17370 bound_to 10713
  157.1813  130.6311  149.5673 LP  0  0  0  0  0  0  0  0  0  0  0  0  # atno 17371 bound_to 10713
  140.6745  134.4832  157.5588 LP  0  0  0  0  0  0  0  0  0  0  0  0  # atno 17394 bound_to 11000
  139.9086  134.8394  156.1612 LP  0  0  0  0  0  0  0  0  0  0  0  0  # atno 17395 bound_to 11000

$$$$
