AV-unprocessed.smi:933|AV-procd|sdf|4201|dock10
  -GOLD-   22720 2103D 1   1.00000     0.00000
 Structure written by MMmdl.
 42 43  0  0  0  0  0  0  0  0  1 V2000
  144.0306  144.7315  154.2753 C   0  0  0  0  0  0  0  0  0  0  0  0
  145.2462  144.2805  153.4586 C   0  0  0  0  0  0  0  0  0  0  0  0
  145.9789  143.1491  154.0987 C   0  0  0  0  0  0  0  0  0  0  0  0
  147.1718  142.7151  153.6832 N   0  0  0  0  0  0  0  0  0  0  0  0
  147.6658  141.6654  154.4641 C   0  0  0  0  0  0  0  0  0  0  0  0
  148.9940  141.0525  154.1387 C   0  0  0  0  0  0  0  0  0  0  0  0
  149.9123  140.9748  155.3658 C   0  0  0  0  0  0  0  0  0  0  0  0
  150.1021  142.2991  155.9519 N   0  0  0  0  0  0  0  0  0  0  0  0
  150.7970  142.6040  157.0611 C   0  0  0  0  0  0  0  0  0  0  0  0
  151.3692  141.7434  157.7273 O   0  0  0  0  0  0  0  0  0  0  0  0
  150.8056  143.9110  157.3722 N   0  0  0  0  0  0  0  0  0  0  0  0
  151.4964  144.4994  158.5162 C   0  0  2  0  0  0  0  0  0  0  0  0
  152.9828  144.0858  158.5575 C   0  0  0  0  0  0  0  0  0  0  0  0
  153.1527  143.2200  159.8070 C   0  0  0  0  0  0  0  0  0  0  0  0
  152.0674  143.7140  160.7575 C   0  0  0  0  0  0  0  0  0  0  0  0
  150.8764  144.0055  159.8405 C   0  0  1  0  0  0  0  0  0  0  0  0
  149.8551  144.9773  160.4474 C   0  0  0  0  0  0  0  0  0  0  0  0
  146.8282  141.3171  155.4943 C   0  0  0  0  0  0  0  0  0  0  0  0
  145.3884  142.2977  155.5213 S   0  0  0  0  0  0  0  0  0  0  0  0
  143.5166  145.5571  153.7826 H   0  0  0  0  0  0  0  0  0  0  0  0
  144.3277  145.0689  155.2688 H   0  0  0  0  0  0  0  0  0  0  0  0
  143.3150  143.9180  154.3971 H   0  0  0  0  0  0  0  0  0  0  0  0
  144.9300  143.9719  152.4617 H   0  0  0  0  0  0  0  0  0  0  0  0
  145.9349  145.1153  153.3232 H   0  0  0  0  0  0  0  0  0  0  0  0
  148.8496  140.0519  153.7290 H   0  0  0  0  0  0  0  0  0  0  0  0
  149.4843  141.6292  153.3530 H   0  0  0  0  0  0  0  0  0  0  0  0
  149.4794  140.3055  156.1112 H   0  0  0  0  0  0  0  0  0  0  0  0
  150.8805  140.5616  155.0785 H   0  0  0  0  0  0  0  0  0  0  0  0
  149.6528  143.0655  155.4718 H   0  0  0  0  0  0  0  0  0  0  0  0
  150.3042  144.5452  156.7675 H   0  0  0  0  0  0  0  0  0  0  0  0
  151.4333  145.5882  158.4610 H   0  0  0  0  0  0  0  0  0  0  0  0
  153.3135  143.5625  157.6593 H   0  0  0  0  0  0  0  0  0  0  0  0
  153.6005  144.9800  158.6498 H   0  0  0  0  0  0  0  0  0  0  0  0
  152.9718  142.1739  159.5565 H   0  0  0  0  0  0  0  0  0  0  0  0
  154.1527  143.2927  160.2353 H   0  0  0  0  0  0  0  0  0  0  0  0
  151.8300  142.9874  161.5352 H   0  0  0  0  0  0  0  0  0  0  0  0
  152.4011  144.6302  161.2472 H   0  0  0  0  0  0  0  0  0  0  0  0
  150.3743  143.0525  159.6615 H   0  0  0  0  0  0  0  0  0  0  0  0
  150.3077  145.9449  160.6670 H   0  0  0  0  0  0  0  0  0  0  0  0
  149.4447  144.5823  161.3769 H   0  0  0  0  0  0  0  0  0  0  0  0
  149.0237  145.1462  159.7622 H   0  0  0  0  0  0  0  0  0  0  0  0
  146.9729  140.5494  156.2399 H   0  0  0  0  0  0  0  0  0  0  0  0
  1  2  1  0  0  0  0
  1 20  1  0  0  0  0
  1 21  1  0  0  0  0
  1 22  1  0  0  0  0
  2  3  1  0  0  0  0
  2 23  1  0  0  0  0
  2 24  1  0  0  0  0
  3 19  1  0  0  0  0
  3  4  2  0  0  0  0
  4  5  1  0  0  0  0
  5  6  1  0  0  0  0
  5 18  2  0  0  0  0
  6  7  1  0  0  0  0
  6 25  1  0  0  0  0
  6 26  1  0  0  0  0
  7  8  1  0  0  0  0
  7 27  1  0  0  0  0
  7 28  1  0  0  0  0
  8  9  1  0  0  0  0
  8 29  1  0  0  0  0
  9 10  2  0  0  0  0
  9 11  1  0  0  0  0
 11 12  1  0  0  0  0
 11 30  1  0  0  0  0
 12 16  1  0  0  0  0
 12 13  1  0  0  0  0
 12 31  1  0  0  0  0
 13 14  1  0  0  0  0
 13 32  1  0  0  0  0
 13 33  1  0  0  0  0
 14 15  1  0  0  0  0
 14 34  1  0  0  0  0
 14 35  1  0  0  0  0
 15 16  1  0  0  0  0
 15 36  1  0  0  0  0
 15 37  1  0  0  0  0
 16 17  1  0  0  0  0
 16 38  1  0  0  0  0
 17 39  1  0  0  0  0
 17 40  1  0  0  0  0
 17 41  1  0  0  0  0
 18 19  1  0  0  0  0
 18 42  1  0  0  0  0
M  END
> <s_m_source_file>
AV-unprocessed.smi

> <i_m_source_file_index>
933

> <i_lp_mmshare_version>
43012

> <i_f3d_flags>
0

> <s_epik_input>
W0NIM11bQ0gyXWMxbmMoW2NIXXMxKVtDSDJdW0NIMl1bTkhdQyg9TylbTkhdW0NAQEhdMltDSDJdW0NIMl1bQ0gyXVtDQEhdMltDSDNd

> <s_epik_cmdline>
J2VwaWtfcHl0aG9uJywgJy1waCcsICc3LjAnLCAnLXRuJywgJzgnLCAnLW1hJywgJzIwMCcsICctbWV0YWxfYmluZGluZycsICctaW1hZScsICc8aW5maWxlLm1hZT4nLCAnLW9tYWUnLCAnPG91dGZpbGUubWFlPic=

> <r_epik_Ionization_Penalty>
0.00203408

> <r_epik_Ionization_Penalty_Charging>
0

> <r_epik_Ionization_Penalty_Neutral>
0.00203408

> <r_epik_State_Penalty>
0.0013452

> <r_epik_Charging_Adjusted_Penalty>
0.0013452

> <i_epik_Tot_Q>
0

> <i_epik_Tot_abs_Q>
0

> <r_epik_Metal_State_Penalty>
-0

> <b_epik_Metal_Only>
0

> <s_lp_Force_Field>
OPLS_2005

> <r_lp_Energy>
18.2024

> <b_lp_Chiralities_Consistent>
1

> <s_lp_Variant>
AV-unprocessed.smi:933-1

> <Gold.Version>
5.8.1

> <Gold.Id.Protein>
6NUR|6NUR_protein|mol2

> <Gold.PLP.Fitness>
49.6072

> <Gold.PLP.PLP>
-44.4074

> <Gold.PLP.part.hbond>
-3.2574

> <Gold.PLP.part.metal>
0.0000

> <Gold.PLP.part.buried>
-2.3539

> <Gold.PLP.part.nonpolar>
-39.8056

> <Gold.PLP.part.repulsive>
0.3732

> <Gold.PLP.ligand.clash>
0.0000

> <Gold.PLP.ligand.torsion>
0.2113

> <Gold.PLP.Chemscore.Hbond>
1.8704

> <Gold.PLP.Chemscore.CHOScore>
0.0000

> <Gold.PLP.Chemscore.Metal>
0.0000

> <Gold.Chemscore.Hbonds>
donor molecule, donor type, donor heavy atom, donor atom, acceptor molecule, acceptor atom, score
      L1  H     8    29       P1  8028  0.91
      L1  H    11    30       P1  8028  0.93

> <Gold.PLP.Chemscore.Internal.Correction>
0.0112

> <Gold.Rescore>
     Score         DG    S(hbond)    S(metal)    S(lipo)     H(rot)  DE(clash)    DE(int)     intcor
     19.36     -20.61       1.68        0.00     115.36       1.55       0.05       1.20       ----

> <Gold.Chemscore.Fitness>
19.3632

> <Gold.Chemscore.DG>
-20.6130

> <Gold.Chemscore.ZeroCoef>
-5.4800

> <Gold.Chemscore.Hbond>
1.6765

> <Gold.Chemscore.Metal>
0.0000

> <Gold.Chemscore.Lipo>
115.3590

> <Gold.Chemscore.Internal_Hbond>
0.0000

> <Gold.Chemscore.DEClash>
0.0529

> <Gold.Chemscore.DEInternal>
1.1969

> <Gold.Chemscore.Rot>
1.5482

> <Gold.Chemscore.Internal.Correction>
   9.000000E+99

> <Gold.Chemscore.Hbonds>
donor molecule, donor type, donor heavy atom, donor atom, acceptor molecule, acceptor atom, score
      L1  H     8    29       P1  8028  0.90
      L1  H    11    30       P1  8028  0.80
      P1  H  8022  8030       L1     4  0.01

> <Gold.Chemscore.Hbond.Weighted>
-5.5994

> <Gold.Chemscore.Metal.Weighted>
-0.0000

> <Gold.Chemscore.Lipo.Weighted>
-13.4970

> <Gold.Chemscore.Internal_Hbond.Weighted>
0.0000

> <Gold.Chemscore.DEClash.Weighted>
0.0529

> <Gold.Chemscore.DEInternal.Weighted>
1.1969

> <Gold.Chemscore.Rot.Weighted>
3.9635

> <Gold.Chemscore.Internal.Correction.Weighted>
   9.000000E+99

> <Gold.Protein.RotatedTorsions>
[ 6907 6896 6895 6894 ] final -105.26 input  -60.11 | X-H torsion
[ 7974 7965 7964 7962 ] final -106.66 input  175.53 | X-H torsion
[ 8008 7997 7996 7995 ] final  102.96 input   59.86 | X-H torsion
[ 10167 10162 10161 10158 ] final -100.01 input  -65.29 | X-H torsion
[ 10718 10713 10712 10709 ] final   43.25 input   66.30 | X-H torsion
[ 10763 10752 10751 10750 ] final   89.77 input  -60.55 | X-H torsion
[ 11005 11000 10999 10996 ] final  -36.36 input  -57.11 | X-H torsion

> <Gold.Protein.ActiveResidues>
 VAL166  LYS551  ARG553  GLY616  TRP617  ASP618  TYR619  PRO620  LYS621  CYS622 
 ASP623  PHE694  ASN695  SER759  ASP760  ASP761  ALA762  ILE779  LEU786  VAL792 
 PHE793  MET794  SER795  GLU796  ALA797  LYS798  CYS799  TRP800  GLU811  SER814 

> <Gold.Protein.RotatedAtoms>
  150.7328  134.0153  159.3682 H   0  0  0  0  0  0  0  0  0  0  0  0  # atno 6907 bound_to 6896
  151.8115  135.0677  160.0423 H   0  0  0  0  0  0  0  0  0  0  0  0  # atno 6908 bound_to 6896
  152.3069  133.5676  159.5691 H   0  0  0  0  0  0  0  0  0  0  0  0  # atno 6909 bound_to 6896
  145.2151  140.9112  143.3292 H   0  0  0  0  0  0  0  0  0  0  0  0  # atno 7974 bound_to 7965
  156.1441  140.3172  155.8542 H   0  0  0  0  0  0  0  0  0  0  0  0  # atno 8008 bound_to 7997
  155.4098  140.0505  157.3049 H   0  0  0  0  0  0  0  0  0  0  0  0  # atno 8009 bound_to 7997
  154.5001  140.2126  155.9376 H   0  0  0  0  0  0  0  0  0  0  0  0  # atno 8010 bound_to 7997
  140.2564  143.3437  152.0667 H   0  0  0  0  0  0  0  0  0  0  0  0  # atno 10167 bound_to 10162
  157.4139  130.7930  149.7454 H   0  0  0  0  0  0  0  0  0  0  0  0  # atno 10718 bound_to 10713
  153.1905  135.4458  155.0143 H   0  0  0  0  0  0  0  0  0  0  0  0  # atno 10763 bound_to 10752
  154.8087  135.3285  154.7365 H   0  0  0  0  0  0  0  0  0  0  0  0  # atno 10764 bound_to 10752
  153.7819  135.6977  153.4942 H   0  0  0  0  0  0  0  0  0  0  0  0  # atno 10765 bound_to 10752
  140.9868  133.7026  156.1780 H   0  0  0  0  0  0  0  0  0  0  0  0  # atno 11005 bound_to 11000
  144.9819  139.3775  143.6258 LP  0  0  0  0  0  0  0  0  0  0  0  0  # atno 17320 bound_to 7965
  146.3389  139.8963  142.8801 LP  0  0  0  0  0  0  0  0  0  0  0  0  # atno 17321 bound_to 7965
  139.5030  144.6747  151.6158 LP  0  0  0  0  0  0  0  0  0  0  0  0  # atno 17342 bound_to 10162
  140.6001  143.9626  150.6380 LP  0  0  0  0  0  0  0  0  0  0  0  0  # atno 17343 bound_to 10162
  155.9859  130.3979  150.3239 LP  0  0  0  0  0  0  0  0  0  0  0  0  # atno 17370 bound_to 10713
  157.1380  131.0289  151.2940 LP  0  0  0  0  0  0  0  0  0  0  0  0  # atno 17371 bound_to 10713
  140.7101  134.4470  157.5582 LP  0  0  0  0  0  0  0  0  0  0  0  0  # atno 17394 bound_to 11000
  139.8974  134.8637  156.2045 LP  0  0  0  0  0  0  0  0  0  0  0  0  # atno 17395 bound_to 11000

$$$$
