AV-unprocessed.smi:3314|AV-procd|sdf|12734|dock2
  -GOLD-   2272019 83D 1   1.00000     0.00000
 Structure written by MMmdl.
 38 39  0  0  0  0  0  0  0  0  2 V2000
  151.9042  145.8067  159.8382 C   0  0  0  0  0  0  0  0  0  0  0  0
  151.9470  144.3837  159.3222 C   0  0  0  0  0  0  0  0  0  0  0  0
  152.7919  143.4256  159.9143 C   0  0  0  0  0  0  0  0  0  0  0  0
  152.7878  142.1193  159.3874 C   0  0  0  0  0  0  0  0  0  0  0  0
  153.6698  141.0397  159.9788 C   0  0  0  0  0  0  0  0  0  0  0  0
  152.0121  141.7470  158.3467 N   0  0  0  0  0  0  0  0  0  0  0  0
  151.1952  142.6616  157.7683 C   0  0  0  0  0  0  0  0  0  0  0  0
  150.3430  142.3725  156.6701 N   0  0  0  0  0  0  0  0  0  0  0  0
  150.5143  141.4575  155.6960 C   0  0  0  0  0  0  0  0  0  0  0  0
  151.4969  140.7209  155.6015 O   0  0  0  0  0  0  0  0  0  0  0  0
  149.4007  141.3799  154.6397 C   0  0  1  0  0  0  0  0  0  0  0  0
  148.8875  139.9367  154.4229 C   0  0  0  0  0  0  0  0  0  0  0  0
  147.7676  139.9196  153.4539 N   0  3  1  0  0  0  0  0  0  0  0  0
  147.2655  138.5546  153.1881 C   0  0  0  0  0  0  0  0  0  0  0  0
  146.6949  140.8513  153.8678 C   0  0  0  0  0  0  0  0  0  0  0  0
  147.2700  142.2593  154.0870 C   0  0  0  0  0  0  0  0  0  0  0  0
  148.3100  142.2017  155.0551 O   0  0  0  0  0  0  0  0  0  0  0  0
  151.1399  143.9941  158.2343 C   0  0  0  0  0  0  0  0  0  0  0  0
  152.4414  145.9014  160.7824 H   0  0  0  0  0  0  0  0  0  0  0  0
  150.8728  146.1206  160.0015 H   0  0  0  0  0  0  0  0  0  0  0  0
  152.3600  146.4835  159.1153 H   0  0  0  0  0  0  0  0  0  0  0  0
  153.4261  143.6841  160.7498 H   0  0  0  0  0  0  0  0  0  0  0  0
  154.4590  141.4714  160.5951 H   0  0  0  0  0  0  0  0  0  0  0  0
  154.1408  140.4518  159.1902 H   0  0  0  0  0  0  0  0  0  0  0  0
  153.0772  140.3686  160.6007 H   0  0  0  0  0  0  0  0  0  0  0  0
  149.4946  142.9178  156.6246 H   0  0  0  0  0  0  0  0  0  0  0  0
  149.8090  141.7713  153.7064 H   0  0  0  0  0  0  0  0  0  0  0  0
  149.6906  139.3019  154.0455 H   0  0  0  0  0  0  0  0  0  0  0  0
  148.5546  139.5056  155.3691 H   0  0  0  0  0  0  0  0  0  0  0  0
  146.8500  138.1067  154.0918 H   0  0  0  0  0  0  0  0  0  0  0  0
  148.0696  137.9129  152.8268 H   0  0  0  0  0  0  0  0  0  0  0  0
  146.4861  138.5734  152.4257 H   0  0  0  0  0  0  0  0  0  0  0  0
  145.9176  140.8818  153.1032 H   0  0  0  0  0  0  0  0  0  0  0  0
  146.2290  140.4907  154.7864 H   0  0  0  0  0  0  0  0  0  0  0  0
  147.6477  142.6782  153.1529 H   0  0  0  0  0  0  0  0  0  0  0  0
  146.4906  142.9317  154.4460 H   0  0  0  0  0  0  0  0  0  0  0  0
  150.4850  144.7139  157.7645 H   0  0  0  0  0  0  0  0  0  0  0  0
  148.1347  140.2686  152.5801 H   0  0  0  0  0  0  0  0  0  0  0  0
  1  2  1  0  0  0  0
  1 19  1  0  0  0  0
  1 20  1  0  0  0  0
  1 21  1  0  0  0  0
  2 18  1  0  0  0  0
  2  3  2  0  0  0  0
  3  4  1  0  0  0  0
  3 22  1  0  0  0  0
  4  5  1  0  0  0  0
  4  6  2  0  0  0  0
  5 23  1  0  0  0  0
  5 24  1  0  0  0  0
  5 25  1  0  0  0  0
  6  7  1  0  0  0  0
  7  8  1  0  0  0  0
  7 18  2  0  0  0  0
  8  9  1  0  0  0  0
  8 26  1  0  0  0  0
  9 10  2  0  0  0  0
  9 11  1  0  0  0  0
 11 17  1  0  0  0  0
 11 12  1  0  0  0  0
 11 27  1  0  0  0  0
 12 13  1  0  0  0  0
 12 28  1  0  0  0  0
 12 29  1  0  0  0  0
 13 14  1  0  0  0  0
 13 15  1  0  0  0  0
 13 38  1  0  0  0  0
 14 30  1  0  0  0  0
 14 31  1  0  0  0  0
 14 32  1  0  0  0  0
 15 16  1  0  0  0  0
 15 33  1  0  0  0  0
 15 34  1  0  0  0  0
 16 17  1  0  0  0  0
 16 35  1  0  0  0  0
 16 36  1  0  0  0  0
 18 37  1  0  0  0  0
M  CHG  1  13   1
M  END
> <s_m_source_file>
AV-unprocessed.smi

> <i_m_source_file_index>
3314

> <i_lp_mmshare_version>
43012

> <i_f3d_flags>
0

> <s_epik_input>
W0NIM11jMVtjSF1jKFtDSDNdKW5jKFtjSF0xKVtOSF1DKD1PKVtDQEBIXTJbQ0gyXU4oW0NIM10pW0NIMl1bQ0gyXU8y

> <s_epik_cmdline>
J2VwaWtfcHl0aG9uJywgJy1waCcsICc3LjAnLCAnLXRuJywgJzgnLCAnLW1hJywgJzIwMCcsICctbWV0YWxfYmluZGluZycsICctaW1hZScsICc8aW5maWxlLm1hZT4nLCAnLW9tYWUnLCAnPG91dGZpbGUubWFlPic=

> <r_epik_Ionization_Penalty>
0.32442

> <r_epik_Ionization_Penalty_Charging>
0.314023

> <r_epik_Ionization_Penalty_Neutral>
0.0103972

> <r_epik_State_Penalty>
0.29453

> <r_epik_Charging_Adjusted_Penalty>
0.608553

> <i_epik_Tot_Q>
1

> <i_epik_Tot_abs_Q>
1

> <r_epik_Metal_State_Penalty>
0.286909

> <b_epik_Metal_Only>
0

> <s_lp_Force_Field>
OPLS_2005

> <r_lp_Energy>
16.6998

> <b_lp_Chiralities_Consistent>
1

> <s_lp_Variant>
AV-unprocessed.smi:3314-4

> <Gold.Version>
5.8.1

> <Gold.Id.Protein>
6NUR|6NUR_protein|mol2

> <Gold.PLP.Fitness>
45.4039

> <Gold.PLP.PLP>
-40.1929

> <Gold.PLP.part.hbond>
-3.0000

> <Gold.PLP.part.metal>
0.0000

> <Gold.PLP.part.buried>
-1.8524

> <Gold.PLP.part.nonpolar>
-36.9133

> <Gold.PLP.part.repulsive>
3.5341

> <Gold.PLP.ligand.clash>
0.0000

> <Gold.PLP.ligand.torsion>
0.3055

> <Gold.PLP.Chemscore.Hbond>
1.9398

> <Gold.PLP.Chemscore.CHOScore>
0.0000

> <Gold.PLP.Chemscore.Metal>
0.0000

> <Gold.Chemscore.Hbonds>
donor molecule, donor type, donor heavy atom, donor atom, acceptor molecule, acceptor atom, score
      L1  H     8    26       P1  8028  0.54
      L1  H    13    38       P1  7957  0.87
      P1  H  7989  7998       L1    10  0.45

> <Gold.PLP.Chemscore.Internal.Correction>
0.0025

> <Gold.Rescore>
     Score         DG    S(hbond)    S(metal)    S(lipo)     H(rot)  DE(clash)    DE(int)     intcor
     16.71     -19.77       1.41        0.00     103.78       1.00       1.63       1.44       ----

> <Gold.Chemscore.Fitness>
16.7080

> <Gold.Chemscore.DG>
-19.7747

> <Gold.Chemscore.ZeroCoef>
-5.4800

> <Gold.Chemscore.Hbond>
1.4108

> <Gold.Chemscore.Metal>
0.0000

> <Gold.Chemscore.Lipo>
103.7817

> <Gold.Chemscore.Internal_Hbond>
0.0000

> <Gold.Chemscore.DEClash>
1.6252

> <Gold.Chemscore.DEInternal>
1.4415

> <Gold.Chemscore.Rot>
1.0000

> <Gold.Chemscore.Internal.Correction>
   9.000000E+99

> <Gold.Chemscore.Hbonds>
donor molecule, donor type, donor heavy atom, donor atom, acceptor molecule, acceptor atom, score
      L1  H     8    26       P1  8028  0.54
      L1  H    13    38       P1  7957  0.82
      P1  H  7989  7998       L1    10  0.06

> <Gold.Chemscore.Hbond.Weighted>
-4.7122

> <Gold.Chemscore.Metal.Weighted>
-0.0000

> <Gold.Chemscore.Lipo.Weighted>
-12.1425

> <Gold.Chemscore.Internal_Hbond.Weighted>
0.0000

> <Gold.Chemscore.DEClash.Weighted>
1.6252

> <Gold.Chemscore.DEInternal.Weighted>
1.4415

> <Gold.Chemscore.Rot.Weighted>
2.5600

> <Gold.Chemscore.Internal.Correction.Weighted>
   9.000000E+99

> <Gold.Protein.RotatedTorsions>
[ 6907 6896 6895 6894 ] final  -77.44 input  -60.11 | X-H torsion
[ 7974 7965 7964 7962 ] final   -0.14 input  175.53 | X-H torsion
[ 8008 7997 7996 7995 ] final  -65.57 input   59.86 | X-H torsion
[ 10167 10162 10161 10158 ] final  -93.25 input  -65.29 | X-H torsion
[ 10718 10713 10712 10709 ] final  146.06 input   66.30 | X-H torsion
[ 10763 10752 10751 10750 ] final  -48.34 input  -60.55 | X-H torsion
[ 11005 11000 10999 10996 ] final  -41.55 input  -57.11 | X-H torsion

> <Gold.Protein.ActiveResidues>
 VAL166  LYS551  ARG553  GLY616  TRP617  ASP618  TYR619  PRO620  LYS621  CYS622 
 ASP623  PHE694  ASN695  SER759  ASP760  ASP761  ALA762  ILE779  LEU786  VAL792 
 PHE793  MET794  SER795  GLU796  ALA797  LYS798  CYS799  TRP800  GLU811  SER814 

> <Gold.Protein.RotatedAtoms>
  150.6999  134.4422  159.5297 H   0  0  0  0  0  0  0  0  0  0  0  0  # atno 6907 bound_to 6896
  152.2130  134.8481  160.0504 H   0  0  0  0  0  0  0  0  0  0  0  0  # atno 6908 bound_to 6896
  151.9360  133.3589  159.3984 H   0  0  0  0  0  0  0  0  0  0  0  0  # atno 6909 bound_to 6896
  146.2430  140.1224  142.8340 H   0  0  0  0  0  0  0  0  0  0  0  0  # atno 7974 bound_to 7965
  154.4680  140.0930  156.7071 H   0  0  0  0  0  0  0  0  0  0  0  0  # atno 8008 bound_to 7997
  155.4804  140.3467  155.4320 H   0  0  0  0  0  0  0  0  0  0  0  0  # atno 8009 bound_to 7997
  156.0990  140.1417  156.9481 H   0  0  0  0  0  0  0  0  0  0  0  0  # atno 8010 bound_to 7997
  140.3266  143.3019  151.9988 H   0  0  0  0  0  0  0  0  0  0  0  0  # atno 10167 bound_to 10162
  157.3378  131.0931  151.1108 H   0  0  0  0  0  0  0  0  0  0  0  0  # atno 10718 bound_to 10713
  154.0762  135.6597  153.4831 H   0  0  0  0  0  0  0  0  0  0  0  0  # atno 10763 bound_to 10752
  153.0372  135.5169  154.7518 H   0  0  0  0  0  0  0  0  0  0  0  0  # atno 10764 bound_to 10752
  154.6599  135.3013  154.9847 H   0  0  0  0  0  0  0  0  0  0  0  0  # atno 10765 bound_to 10752
  141.0254  133.6844  156.2473 H   0  0  0  0  0  0  0  0  0  0  0  0  # atno 11005 bound_to 11000
  145.0395  140.8934  143.5061 LP  0  0  0  0  0  0  0  0  0  0  0  0  # atno 17320 bound_to 7965
  145.1302  139.2637  143.5543 LP  0  0  0  0  0  0  0  0  0  0  0  0  # atno 17321 bound_to 7965
  139.4864  144.6269  151.7147 LP  0  0  0  0  0  0  0  0  0  0  0  0  # atno 17342 bound_to 10162
  140.5435  144.0540  150.6098 LP  0  0  0  0  0  0  0  0  0  0  0  0  # atno 17343 bound_to 10162
  157.2332  130.6535  149.5858 LP  0  0  0  0  0  0  0  0  0  0  0  0  # atno 17370 bound_to 10713
  155.9703  130.4592  150.6027 LP  0  0  0  0  0  0  0  0  0  0  0  0  # atno 17371 bound_to 10713
  140.6501  134.5076  157.5577 LP  0  0  0  0  0  0  0  0  0  0  0  0  # atno 17394 bound_to 11000
  139.9172  134.8221  156.1326 LP  0  0  0  0  0  0  0  0  0  0  0  0  # atno 17395 bound_to 11000

$$$$
