AV-unprocessed.smi:1824|AV-procd|sdf|7406|dock7
  -GOLD-   22720 9 83D 1   1.00000     0.00000
 Structure written by MMmdl.
 45 47  0  0  0  0  0  0  0  0  2 V2000
  147.7234  134.7957  154.3952 C   0  0  0  0  0  0  0  0  0  0  0  0
  146.5791  135.7449  154.7936 C   0  0  1  0  0  0  0  0  0  0  0  0
  147.0149  137.2183  154.9105 C   0  0  0  0  0  0  0  0  0  0  0  0
  147.2428  137.8127  153.5706 N   0  3  2  0  0  0  0  0  0  0  0  0
  147.7390  139.2120  153.6147 C   0  0  0  0  0  0  0  0  0  0  0  0
  149.0098  139.3556  154.4755 C   0  0  1  0  0  0  0  0  0  0  0  0
  150.0583  139.8463  153.6612 O   0  0  0  0  0  0  0  0  0  0  0  0
  148.7939  140.3091  155.6667 C   0  0  0  0  0  0  0  0  0  0  0  0
  149.7605  140.0958  156.7296 N   0  0  0  0  0  0  0  0  0  0  0  0
  150.0628  138.9260  157.3252 C   0  0  0  0  0  0  0  0  0  0  0  0
  150.9878  138.9493  158.2801 N   0  0  0  0  0  0  0  0  0  0  0  0
  151.3272  140.2909  158.3086 C   0  0  0  0  0  0  0  0  0  0  0  0
  152.2637  140.9833  159.1090 C   0  0  0  0  0  0  0  0  0  0  0  0
  152.4449  142.3737  158.9564 C   0  0  0  0  0  0  0  0  0  0  0  0
  153.3489  143.0211  159.7295 F   0  0  0  0  0  0  0  0  0  0  0  0
  151.6919  143.0920  158.0040 C   0  0  0  0  0  0  0  0  0  0  0  0
  151.8729  144.4265  157.8631 F   0  0  0  0  0  0  0  0  0  0  0  0
  150.7513  142.4241  157.1967 C   0  0  0  0  0  0  0  0  0  0  0  0
  150.5755  141.0366  157.3509 C   0  0  0  0  0  0  0  0  0  0  0  0
  146.0339  137.6583  152.7297 C   0  0  0  0  0  0  0  0  0  0  0  0
  145.6463  136.1725  152.6178 C   0  0  2  0  0  0  0  0  0  0  0  0
  144.3480  135.9741  151.8275 C   0  0  0  0  0  0  0  0  0  0  0  0
  145.4531  135.6328  153.9230 O   0  0  0  0  0  0  0  0  0  0  0  0
  148.5126  134.8051  155.1472 H   0  0  0  0  0  0  0  0  0  0  0  0
  148.1803  135.0708  153.4449 H   0  0  0  0  0  0  0  0  0  0  0  0
  147.3646  133.7696  154.3097 H   0  0  0  0  0  0  0  0  0  0  0  0
  146.2335  135.4236  155.7766 H   0  0  0  0  0  0  0  0  0  0  0  0
  146.2389  137.7882  155.4246 H   0  0  0  0  0  0  0  0  0  0  0  0
  147.9109  137.2863  155.5265 H   0  0  0  0  0  0  0  0  0  0  0  0
  147.9639  139.5567  152.6039 H   0  0  0  0  0  0  0  0  0  0  0  0
  146.9462  139.8625  153.9871 H   0  0  0  0  0  0  0  0  0  0  0  0
  149.3136  138.3845  154.8653 H   0  0  0  0  0  0  0  0  0  0  0  0
  149.8657  139.6391  152.7592 H   0  0  0  0  0  0  0  0  0  0  0  0
  148.8512  141.3497  155.3442 H   0  0  0  0  0  0  0  0  0  0  0  0
  147.7957  140.1680  156.0833 H   0  0  0  0  0  0  0  0  0  0  0  0
  149.5775  138.0040  157.0394 H   0  0  0  0  0  0  0  0  0  0  0  0
  152.8460  140.4440  159.8414 H   0  0  0  0  0  0  0  0  0  0  0  0
  150.1749  142.9727  156.4670 H   0  0  0  0  0  0  0  0  0  0  0  0
  145.2139  138.2365  153.1594 H   0  0  0  0  0  0  0  0  0  0  0  0
  146.2225  138.0606  151.7334 H   0  0  0  0  0  0  0  0  0  0  0  0
  146.4386  135.6252  152.1063 H   0  0  0  0  0  0  0  0  0  0  0  0
  144.4424  136.3609  150.8125 H   0  0  0  0  0  0  0  0  0  0  0  0
  143.5115  136.4858  152.3042 H   0  0  0  0  0  0  0  0  0  0  0  0
  144.0931  134.9163  151.7562 H   0  0  0  0  0  0  0  0  0  0  0  0
  147.9689  137.2705  153.1237 H   0  0  0  0  0  0  0  0  0  0  0  0
  1  2  1  0  0  0  0
  1 24  1  0  0  0  0
  1 25  1  0  0  0  0
  1 26  1  0  0  0  0
  2 23  1  0  0  0  0
  2  3  1  0  0  0  0
  2 27  1  0  0  0  0
  3  4  1  0  0  0  0
  3 28  1  0  0  0  0
  3 29  1  0  0  0  0
  4  5  1  0  0  0  0
  4 20  1  0  0  0  0
  4 45  1  0  0  0  0
  5  6  1  0  0  0  0
  5 30  1  0  0  0  0
  5 31  1  0  0  0  0
  6  7  1  0  0  0  0
  6  8  1  0  0  0  0
  6 32  1  0  0  0  0
  7 33  1  0  0  0  0
  8  9  1  0  0  0  0
  8 34  1  0  0  0  0
  8 35  1  0  0  0  0
  9 19  1  0  0  0  0
  9 10  1  0  0  0  0
 10 11  2  0  0  0  0
 10 36  1  0  0  0  0
 11 12  1  0  0  0  0
 12 19  2  0  0  0  0
 12 13  1  0  0  0  0
 13 14  2  0  0  0  0
 13 37  1  0  0  0  0
 14 15  1  0  0  0  0
 14 16  1  0  0  0  0
 16 17  1  0  0  0  0
 16 18  2  0  0  0  0
 18 19  1  0  0  0  0
 18 38  1  0  0  0  0
 20 21  1  0  0  0  0
 20 39  1  0  0  0  0
 20 40  1  0  0  0  0
 21 22  1  0  0  0  0
 21 23  1  0  0  0  0
 21 41  1  0  0  0  0
 22 42  1  0  0  0  0
 22 43  1  0  0  0  0
 22 44  1  0  0  0  0
M  CHG  1   4   1
M  END
> <s_m_source_file>
AV-unprocessed.smi

> <i_m_source_file_index>
1824

> <i_lp_mmshare_version>
43012

> <i_f3d_flags>
0

> <s_epik_input>
W0NIM11bQ0BASF0xW0NIMl1OKFtDSDJdW0NASF0oTzEpW0NIM10pW0NIMl1bQ0BIXShbT0hdKVtDSDJdbihbY0hdbjIpYyhjMjMpW2NIXWMoRiljKEYpW2NIXTM=

> <s_epik_cmdline>
J2VwaWtfcHl0aG9uJywgJy1waCcsICc3LjAnLCAnLXRuJywgJzgnLCAnLW1hJywgJzIwMCcsICctbWV0YWxfYmluZGluZycsICctaW1hZScsICc8aW5maWxlLm1hZT4nLCAnLW9tYWUnLCAnPG91dGZpbGUubWFlPic=

> <r_epik_Ionization_Penalty>
0.61967

> <r_epik_Ionization_Penalty_Charging>
0.608065

> <r_epik_Ionization_Penalty_Neutral>
0.0116057

> <r_epik_State_Penalty>
0.664205

> <r_epik_Charging_Adjusted_Penalty>
1.27227

> <i_epik_Tot_Q>
1

> <i_epik_Tot_abs_Q>
1

> <r_epik_Metal_State_Penalty>
0.654947

> <b_epik_Metal_Only>
0

> <s_lp_Force_Field>
OPLS_2005

> <r_lp_Energy>
22.8883

> <b_lp_Chiralities_Consistent>
1

> <s_lp_Variant>
AV-unprocessed.smi:1824-14

> <Gold.Version>
5.8.1

> <Gold.Id.Protein>
6NUR|6NUR_protein|mol2

> <Gold.PLP.Fitness>
45.8397

> <Gold.PLP.PLP>
-36.3238

> <Gold.PLP.part.hbond>
-3.0000

> <Gold.PLP.part.metal>
0.0000

> <Gold.PLP.part.buried>
-3.5917

> <Gold.PLP.part.nonpolar>
-30.0548

> <Gold.PLP.part.repulsive>
0.0604

> <Gold.PLP.ligand.clash>
0.0000

> <Gold.PLP.ligand.torsion>
1.0156

> <Gold.PLP.Chemscore.Hbond>
3.8320

> <Gold.PLP.Chemscore.CHOScore>
0.0000

> <Gold.PLP.Chemscore.Metal>
0.0000

> <Gold.Chemscore.Hbonds>
donor molecule, donor type, donor heavy atom, donor atom, acceptor molecule, acceptor atom, score
      L1  H     4    45       P1  7948  2.00
      L1  H     7    33       P1  7957  1.00
      P1  H  7989  7998       L1     7  0.80

> <Gold.PLP.Chemscore.Internal.Correction>
0.0511

> <Gold.Rescore>
     Score         DG    S(hbond)    S(metal)    S(lipo)     H(rot)  DE(clash)    DE(int)     intcor
     15.73     -16.96       2.29        0.00      83.49       2.33       0.25       0.98       ----

> <Gold.Chemscore.Fitness>
15.7307

> <Gold.Chemscore.DG>
-16.9599

> <Gold.Chemscore.ZeroCoef>
-5.4800

> <Gold.Chemscore.Hbond>
2.2947

> <Gold.Chemscore.Metal>
0.0000

> <Gold.Chemscore.Lipo>
83.4851

> <Gold.Chemscore.Internal_Hbond>
0.0000

> <Gold.Chemscore.DEClash>
0.2455

> <Gold.Chemscore.DEInternal>
0.9837

> <Gold.Chemscore.Rot>
2.3251

> <Gold.Chemscore.Internal.Correction>
   9.000000E+99

> <Gold.Chemscore.Hbonds>
donor molecule, donor type, donor heavy atom, donor atom, acceptor molecule, acceptor atom, score
      L1  H     4    45       P1  7948  1.00
      L1  H     7    33       P1  7957  0.97
      P1  H  7989  7998       L1     7  0.24

> <Gold.Chemscore.Hbond.Weighted>
-7.6644

> <Gold.Chemscore.Metal.Weighted>
-0.0000

> <Gold.Chemscore.Lipo.Weighted>
-9.7678

> <Gold.Chemscore.Internal_Hbond.Weighted>
0.0000

> <Gold.Chemscore.DEClash.Weighted>
0.2455

> <Gold.Chemscore.DEInternal.Weighted>
0.9837

> <Gold.Chemscore.Rot.Weighted>
5.9523

> <Gold.Chemscore.Internal.Correction.Weighted>
   9.000000E+99

> <Gold.Protein.RotatedTorsions>
[ 6907 6896 6895 6894 ] final  -74.04 input  -60.11 | X-H torsion
[ 7974 7965 7964 7962 ] final -174.35 input  175.53 | X-H torsion
[ 8008 7997 7996 7995 ] final  111.40 input   59.86 | X-H torsion
[ 10167 10162 10161 10158 ] final -109.20 input  -65.29 | X-H torsion
[ 10718 10713 10712 10709 ] final   89.00 input   66.30 | X-H torsion
[ 10763 10752 10751 10750 ] final  -84.42 input  -60.55 | X-H torsion
[ 11005 11000 10999 10996 ] final  137.47 input  -57.11 | X-H torsion

> <Gold.Protein.ActiveResidues>
 VAL166  LYS551  ARG553  GLY616  TRP617  ASP618  TYR619  PRO620  LYS621  CYS622 
 ASP623  PHE694  ASN695  SER759  ASP760  ASP761  ALA762  ILE779  LEU786  VAL792 
 PHE793  MET794  SER795  GLU796  ALA797  LYS798  CYS799  TRP800  GLU811  SER814 

> <Gold.Protein.RotatedAtoms>
  150.7108  134.4928  159.5523 H   0  0  0  0  0  0  0  0  0  0  0  0  # atno 6907 bound_to 6896
  152.2542  134.8098  160.0450 H   0  0  0  0  0  0  0  0  0  0  0  0  # atno 6908 bound_to 6896
  151.8835  133.3465  159.3811 H   0  0  0  0  0  0  0  0  0  0  0  0  # atno 6909 bound_to 6896
  144.7132  140.1485  143.6386 H   0  0  0  0  0  0  0  0  0  0  0  0  # atno 7974 bound_to 7965
  156.2121  140.3020  155.9756 H   0  0  0  0  0  0  0  0  0  0  0  0  # atno 8008 bound_to 7997
  155.2698  140.0433  157.3023 H   0  0  0  0  0  0  0  0  0  0  0  0  # atno 8009 bound_to 7997
  154.5714  140.2349  155.8194 H   0  0  0  0  0  0  0  0  0  0  0  0  # atno 8010 bound_to 7997
  140.1579  143.4144  152.1447 H   0  0  0  0  0  0  0  0  0  0  0  0  # atno 10167 bound_to 10162
  157.6953  131.0316  150.3359 H   0  0  0  0  0  0  0  0  0  0  0  0  # atno 10718 bound_to 10713
  154.5993  135.5521  153.7358 H   0  0  0  0  0  0  0  0  0  0  0  0  # atno 10763 bound_to 10752
  153.0148  135.6362  154.1737 H   0  0  0  0  0  0  0  0  0  0  0  0  # atno 10764 bound_to 10752
  154.1677  135.2894  155.3070 H   0  0  0  0  0  0  0  0  0  0  0  0  # atno 10765 bound_to 10752
  140.0116  134.9436  157.0290 H   0  0  0  0  0  0  0  0  0  0  0  0  # atno 11005 bound_to 11000
  145.9138  139.2503  143.1422 LP  0  0  0  0  0  0  0  0  0  0  0  0  # atno 17320 bound_to 7965
  145.9690  140.8776  143.0172 LP  0  0  0  0  0  0  0  0  0  0  0  0  # atno 17321 bound_to 7965
  139.5395  144.7242  151.4782 LP  0  0  0  0  0  0  0  0  0  0  0  0  # atno 17342 bound_to 10162
  140.6661  143.8394  150.6944 LP  0  0  0  0  0  0  0  0  0  0  0  0  # atno 17343 bound_to 10162
  156.3826  130.3883  149.7090 LP  0  0  0  0  0  0  0  0  0  0  0  0  # atno 17370 bound_to 10713
  156.4467  130.7887  151.2908 LP  0  0  0  0  0  0  0  0  0  0  0  0  # atno 17371 bound_to 10713
  140.4543  134.1549  155.7184 LP  0  0  0  0  0  0  0  0  0  0  0  0  # atno 17394 bound_to 11000
  141.1715  133.8599  157.1556 LP  0  0  0  0  0  0  0  0  0  0  0  0  # atno 17395 bound_to 11000

$$$$
