AV-unprocessed.smi:2154|AV-procd|sdf|8775|dock3
  -GOLD-   2272011553D 1   1.00000     0.00000
 Structure written by MMmdl.
 31 32  0  0  0  0  0  0  0  0  2 V2000
  151.1184  145.1559  159.0600 C   0  0  0  0  0  0  0  0  0  0  0  0
  152.3651  144.3188  159.2665 C   0  0  1  0  0  0  0  0  0  0  0  0
  152.5448  143.5005  160.5240 C   0  0  0  0  0  0  0  0  0  0  0  0
  152.3482  142.8047  159.1967 C   0  0  1  0  0  0  0  0  0  0  0  0
  151.0770  142.0259  158.9026 C   0  0  0  0  0  0  0  0  0  0  0  0
  150.9486  141.5568  157.5292 N   0  0  0  0  0  0  0  0  0  0  0  0
  151.7452  140.6475  156.9478 C   0  0  0  0  0  0  0  0  0  0  0  0
  152.6762  140.0936  157.5342 O   0  0  0  0  0  0  0  0  0  0  0  0
  151.4135  140.2926  155.4918 C   0  0  0  0  0  0  0  0  0  0  0  0
  151.0222  138.8843  155.3181 N   0  0  0  0  0  0  0  0  0  0  0  0
  149.7954  138.4735  155.8688 C   0  0  0  0  0  0  0  0  0  0  0  0
  149.3580  137.2045  155.7611 C   0  0  0  0  0  0  0  0  0  0  0  0
  150.1928  136.2445  155.0496 C   0  0  0  0  0  0  0  0  0  0  0  0
  149.8062  135.0829  154.9362 O   0  0  0  0  0  0  0  0  0  0  0  0
  151.3773  136.6902  154.5380 N   0  5  0  0  0  0  0  0  0  0  0  0
  151.8110  137.9835  154.6579 C   0  0  0  0  0  0  0  0  0  0  0  0
  152.8849  138.3644  154.1904 O   0  0  0  0  0  0  0  0  0  0  0  0
  150.2590  144.7206  159.5692 H   0  0  0  0  0  0  0  0  0  0  0  0
  150.8922  145.2344  157.9965 H   0  0  0  0  0  0  0  0  0  0  0  0
  151.2757  146.1593  159.4556 H   0  0  0  0  0  0  0  0  0  0  0  0
  153.2636  144.7890  158.8717 H   0  0  0  0  0  0  0  0  0  0  0  0
  153.5392  143.4673  160.9644 H   0  0  0  0  0  0  0  0  0  0  0  0
  151.7217  143.4762  161.2357 H   0  0  0  0  0  0  0  0  0  0  0  0
  153.2368  142.3660  158.7461 H   0  0  0  0  0  0  0  0  0  0  0  0
  151.0240  141.1542  159.5544 H   0  0  0  0  0  0  0  0  0  0  0  0
  150.2185  142.6500  159.1556 H   0  0  0  0  0  0  0  0  0  0  0  0
  150.2056  141.9581  156.9756 H   0  0  0  0  0  0  0  0  0  0  0  0
  150.6130  140.9533  155.1571 H   0  0  0  0  0  0  0  0  0  0  0  0
  152.2647  140.5272  154.8497 H   0  0  0  0  0  0  0  0  0  0  0  0
  149.2418  139.2438  156.3848 H   0  0  0  0  0  0  0  0  0  0  0  0
  148.4148  136.9038  156.1929 H   0  0  0  0  0  0  0  0  0  0  0  0
  1  2  1  0  0  0  0
  1 18  1  0  0  0  0
  1 19  1  0  0  0  0
  1 20  1  0  0  0  0
  2  4  1  0  0  0  0
  2  3  1  0  0  0  0
  2 21  1  0  0  0  0
  3  4  1  0  0  0  0
  3 22  1  0  0  0  0
  3 23  1  0  0  0  0
  4  5  1  0  0  0  0
  4 24  1  0  0  0  0
  5  6  1  0  0  0  0
  5 25  1  0  0  0  0
  5 26  1  0  0  0  0
  6  7  1  0  0  0  0
  6 27  1  0  0  0  0
  7  8  2  0  0  0  0
  7  9  1  0  0  0  0
  9 10  1  0  0  0  0
  9 28  1  0  0  0  0
  9 29  1  0  0  0  0
 10 16  1  0  0  0  0
 10 11  1  0  0  0  0
 11 12  2  0  0  0  0
 11 30  1  0  0  0  0
 12 13  1  0  0  0  0
 12 31  1  0  0  0  0
 13 14  2  0  0  0  0
 13 15  1  0  0  0  0
 15 16  1  0  0  0  0
 16 17  2  0  0  0  0
M  CHG  1  15  -1
M  END
> <s_m_source_file>
AV-unprocessed.smi

> <i_m_source_file_index>
2154

> <i_lp_mmshare_version>
43012

> <i_f3d_flags>
0

> <s_epik_input>
W0NIM11bQ0BASF0xW0NIMl1bQ0BIXTFbQ0gyXVtOSF1DKD1PKVtDSDJdbjJbY0hdW2NIXWMoPU8pW25IXWMyPU8=

> <s_epik_cmdline>
J2VwaWtfcHl0aG9uJywgJy1waCcsICc3LjAnLCAnLXRuJywgJzgnLCAnLW1hJywgJzIwMCcsICctbWV0YWxfYmluZGluZycsICctaW1hZScsICc8aW5maWxlLm1hZT4nLCAnLW9tYWUnLCAnPG91dGZpbGUubWFlPic=

> <r_lp_tautomer_probability>
0.999537

> <r_epik_Ionization_Penalty>
3.12283

> <r_epik_Ionization_Penalty_Charging>
2.83566e-08

> <r_epik_Ionization_Penalty_Neutral>
3.12283

> <r_epik_State_Penalty>
3.12192

> <r_epik_Charging_Adjusted_Penalty>
3.12192

> <i_epik_Tot_Q>
-1

> <i_epik_Tot_abs_Q>
1

> <r_epik_Metal_State_Penalty>
0.463748

> <b_epik_Metal_Only>
1

> <s_lp_Force_Field>
OPLS_2005

> <r_lp_Energy>
25.8954

> <b_lp_Chiralities_Consistent>
1

> <s_lp_Variant>
AV-unprocessed.smi:2154-6

> <Gold.Version>
5.8.1

> <Gold.Id.Protein>
6NUR|6NUR_protein|mol2

> <Gold.PLP.Fitness>
41.5251

> <Gold.PLP.PLP>
-32.7813

> <Gold.PLP.part.hbond>
-3.0000

> <Gold.PLP.part.metal>
0.0000

> <Gold.PLP.part.buried>
-3.8100

> <Gold.PLP.part.nonpolar>
-26.8200

> <Gold.PLP.part.repulsive>
0.4128

> <Gold.PLP.ligand.clash>
0.0000

> <Gold.PLP.ligand.torsion>
0.4005

> <Gold.PLP.Chemscore.Hbond>
3.0000

> <Gold.PLP.Chemscore.CHOScore>
0.0000

> <Gold.PLP.Chemscore.Metal>
0.0000

> <Gold.Chemscore.Hbonds>
donor molecule, donor type, donor heavy atom, donor atom, acceptor molecule, acceptor atom, score
      P1  H  7997  8009       L1     8  1.00
      P1  H 10752 10765       L1    15  2.00

> <Gold.PLP.Chemscore.Internal.Correction>
0.5447

> <Gold.Rescore>
     Score         DG    S(hbond)    S(metal)    S(lipo)     H(rot)  DE(clash)    DE(int)     intcor
     13.36     -14.03       1.73        0.00      66.61       1.96       0.28       0.39       ----

> <Gold.Chemscore.Fitness>
13.3617

> <Gold.Chemscore.DG>
-14.0303

> <Gold.Chemscore.ZeroCoef>
-5.4800

> <Gold.Chemscore.Hbond>
1.7296

> <Gold.Chemscore.Metal>
0.0000

> <Gold.Chemscore.Lipo>
66.6109

> <Gold.Chemscore.Internal_Hbond>
0.0000

> <Gold.Chemscore.DEClash>
0.2759

> <Gold.Chemscore.DEInternal>
0.3927

> <Gold.Chemscore.Rot>
1.9609

> <Gold.Chemscore.Internal.Correction>
   9.000000E+99

> <Gold.Chemscore.Hbonds>
donor molecule, donor type, donor heavy atom, donor atom, acceptor molecule, acceptor atom, score
      P1  H  7997  8009       L1     8  0.96
      P1  H 10752 10765       L1    15  0.55

> <Gold.Chemscore.Hbond.Weighted>
-5.7768

> <Gold.Chemscore.Metal.Weighted>
-0.0000

> <Gold.Chemscore.Lipo.Weighted>
-7.7935

> <Gold.Chemscore.Internal_Hbond.Weighted>
0.0000

> <Gold.Chemscore.DEClash.Weighted>
0.2759

> <Gold.Chemscore.DEInternal.Weighted>
0.3927

> <Gold.Chemscore.Rot.Weighted>
5.0200

> <Gold.Chemscore.Internal.Correction.Weighted>
   9.000000E+99

> <Gold.Protein.RotatedTorsions>
[ 6907 6896 6895 6894 ] final  166.66 input  -60.11 | X-H torsion
[ 7974 7965 7964 7962 ] final  153.17 input  175.53 | X-H torsion
[ 8008 7997 7996 7995 ] final  168.70 input   59.86 | X-H torsion
[ 10167 10162 10161 10158 ] final  148.83 input  -65.29 | X-H torsion
[ 10718 10713 10712 10709 ] final  -97.35 input   66.30 | X-H torsion
[ 10763 10752 10751 10750 ] final  164.16 input  -60.55 | X-H torsion
[ 11005 11000 10999 10996 ] final  155.26 input  -57.11 | X-H torsion

> <Gold.Protein.ActiveResidues>
 VAL166  LYS551  ARG553  GLY616  TRP617  ASP618  TYR619  PRO620  LYS621  CYS622 
 ASP623  PHE694  ASN695  SER759  ASP760  ASP761  ALA762  ILE779  LEU786  VAL792 
 PHE793  MET794  SER795  GLU796  ALA797  LYS798  CYS799  TRP800  GLU811  SER814 

> <Gold.Protein.RotatedAtoms>
  151.8755  133.3484  159.3748 H   0  0  0  0  0  0  0  0  0  0  0  0  # atno 6907 bound_to 6896
  150.7141  134.5070  159.5598 H   0  0  0  0  0  0  0  0  0  0  0  0  # atno 6908 bound_to 6896
  152.2611  134.8033  160.0481 H   0  0  0  0  0  0  0  0  0  0  0  0  # atno 6909 bound_to 6896
  144.8173  139.6765  143.6116 H   0  0  0  0  0  0  0  0  0  0  0  0  # atno 7974 bound_to 7965
  156.1524  140.1583  156.8748 H   0  0  0  0  0  0  0  0  0  0  0  0  # atno 8008 bound_to 7997
  154.5083  140.0807  156.7976 H   0  0  0  0  0  0  0  0  0  0  0  0  # atno 8009 bound_to 7997
  155.3870  140.3408  155.4251 H   0  0  0  0  0  0  0  0  0  0  0  0  # atno 8010 bound_to 7997
  139.4869  144.5649  151.7163 H   0  0  0  0  0  0  0  0  0  0  0  0  # atno 10167 bound_to 10162
  156.0082  130.5191  150.6362 H   0  0  0  0  0  0  0  0  0  0  0  0  # atno 10718 bound_to 10713
  154.3048  135.2758  155.2594 H   0  0  0  0  0  0  0  0  0  0  0  0  # atno 10763 bound_to 10752
  154.5015  135.5807  153.6538 H   0  0  0  0  0  0  0  0  0  0  0  0  # atno 10764 bound_to 10752
  152.9896  135.6159  154.3221 H   0  0  0  0  0  0  0  0  0  0  0  0  # atno 10765 bound_to 10752
  140.1565  134.8639  157.2520 H   0  0  0  0  0  0  0  0  0  0  0  0  # atno 11005 bound_to 11000
  146.2476  139.6132  142.9449 LP  0  0  0  0  0  0  0  0  0  0  0  0  # atno 17320 bound_to 7965
  145.5186  141.0433  143.2448 LP  0  0  0  0  0  0  0  0  0  0  0  0  # atno 17321 bound_to 7965
  140.5226  144.0856  150.6027 LP  0  0  0  0  0  0  0  0  0  0  0  0  # atno 17342 bound_to 10162
  140.3819  143.2798  152.0161 LP  0  0  0  0  0  0  0  0  0  0  0  0  # atno 17343 bound_to 10162
  157.4150  131.0829  151.1185 LP  0  0  0  0  0  0  0  0  0  0  0  0  # atno 17370 bound_to 10713
  157.1804  130.6307  149.5670 LP  0  0  0  0  0  0  0  0  0  0  0  0  # atno 17371 bound_to 10713
  140.2542  134.3647  155.7431 LP  0  0  0  0  0  0  0  0  0  0  0  0  # atno 17394 bound_to 11000
  141.2205  133.7333  156.8981 LP  0  0  0  0  0  0  0  0  0  0  0  0  # atno 17395 bound_to 11000

$$$$
