AV-unprocessed.smi:3316|AV-procd|sdf|12758|dock3
  -GOLD-   2272019 93D 1   1.00000     0.00000
 Structure written by MMmdl.
 41 43  0  0  0  0  0  0  0  0  2 V2000
  148.5119  140.8854  153.9862 C   0  0  0  0  0  0  0  0  0  0  0  0
  149.5624  140.9582  155.1052 C   0  0  1  0  0  0  0  0  0  0  0  0
  148.9066  141.1639  156.4847 C   0  0  0  0  0  0  0  0  0  0  0  0
  149.3126  142.4503  157.0864 N   0  3  0  0  0  0  0  0  0  0  0  0
  150.7661  142.5941  157.2946 C   0  0  0  0  0  0  0  0  0  0  0  0
  151.0767  142.9573  158.7580 C   0  0  2  0  0  0  0  0  0  0  0  0
  150.3551  144.2521  159.2510 C   0  0  0  0  0  0  0  0  0  0  0  0
  151.5181  145.1309  159.7660 C   0  0  1  0  0  0  0  0  0  0  0  0
  152.1383  144.4393  160.9614 C   0  0  0  0  0  0  0  0  0  0  0  0
  152.7706  143.3550  160.5084 C   0  0  0  0  0  0  0  0  0  0  0  0
  152.5667  143.3082  159.0079 C   0  0  2  0  0  0  0  0  0  0  0  0
  152.5698  144.8117  158.7001 C   0  0  0  0  0  0  0  0  0  0  0  0
  150.4738  139.7362  155.0863 C   0  0  0  0  0  0  0  0  0  0  0  0
  150.0910  138.5662  154.3965 C   0  0  0  0  0  0  0  0  0  0  0  0
  150.9729  137.4668  154.3905 C   0  0  0  0  0  0  0  0  0  0  0  0
  152.1722  137.4752  155.0096 N   0  0  0  0  0  0  0  0  0  0  0  0
  152.5337  138.5952  155.6706 C   0  0  0  0  0  0  0  0  0  0  0  0
  151.7259  139.7478  155.7390 C   0  0  0  0  0  0  0  0  0  0  0  0
  148.9874  140.7921  153.0092 H   0  0  0  0  0  0  0  0  0  0  0  0
  147.8960  141.7850  153.9661 H   0  0  0  0  0  0  0  0  0  0  0  0
  147.8455  140.0320  154.1146 H   0  0  0  0  0  0  0  0  0  0  0  0
  150.1803  141.8347  154.9033 H   0  0  0  0  0  0  0  0  0  0  0  0
  147.8199  141.1475  156.3917 H   0  0  0  0  0  0  0  0  0  0  0  0
  149.1779  140.3481  157.1563 H   0  0  0  0  0  0  0  0  0  0  0  0
  149.0124  143.1916  156.4691 H   0  0  0  0  0  0  0  0  0  0  0  0
  151.2530  141.6539  157.0331 H   0  0  0  0  0  0  0  0  0  0  0  0
  151.1556  143.3543  156.6168 H   0  0  0  0  0  0  0  0  0  0  0  0
  150.7989  142.1093  159.3873 H   0  0  0  0  0  0  0  0  0  0  0  0
  149.8315  144.7552  158.4366 H   0  0  0  0  0  0  0  0  0  0  0  0
  149.6233  144.0427  160.0323 H   0  0  0  0  0  0  0  0  0  0  0  0
  151.2996  146.1896  159.9082 H   0  0  0  0  0  0  0  0  0  0  0  0
  152.0446  144.7727  161.9844 H   0  0  0  0  0  0  0  0  0  0  0  0
  153.3018  142.6107  161.0832 H   0  0  0  0  0  0  0  0  0  0  0  0
  153.3058  142.7146  158.4691 H   0  0  0  0  0  0  0  0  0  0  0  0
  152.2622  145.0662  157.6848 H   0  0  0  0  0  0  0  0  0  0  0  0
  153.5338  145.2847  158.8998 H   0  0  0  0  0  0  0  0  0  0  0  0
  149.1436  138.5049  153.8812 H   0  0  0  0  0  0  0  0  0  0  0  0
  150.7083  136.5573  153.8715 H   0  0  0  0  0  0  0  0  0  0  0  0
  153.4971  138.5743  156.1579 H   0  0  0  0  0  0  0  0  0  0  0  0
  152.0660  140.6176  156.2815 H   0  0  0  0  0  0  0  0  0  0  0  0
  148.8423  142.5600  157.9734 H   0  0  0  0  0  0  0  0  0  0  0  0
  1  2  1  0  0  0  0
  1 19  1  0  0  0  0
  1 20  1  0  0  0  0
  1 21  1  0  0  0  0
  2  3  1  0  0  0  0
  2 13  1  0  0  0  0
  2 22  1  0  0  0  0
  3  4  1  0  0  0  0
  3 23  1  0  0  0  0
  3 24  1  0  0  0  0
  4  5  1  0  0  0  0
  4 25  1  0  0  0  0
  4 41  1  0  0  0  0
  5  6  1  0  0  0  0
  5 26  1  0  0  0  0
  5 27  1  0  0  0  0
  6 11  1  0  0  0  0
  6  7  1  0  0  0  0
  6 28  1  0  0  0  0
  7  8  1  0  0  0  0
  7 29  1  0  0  0  0
  7 30  1  0  0  0  0
  8 12  1  0  0  0  0
  8  9  1  0  0  0  0
  8 31  1  0  0  0  0
  9 10  2  0  0  0  0
  9 32  1  0  0  0  0
 10 11  1  0  0  0  0
 10 33  1  0  0  0  0
 11 12  1  0  0  0  0
 11 34  1  0  0  0  0
 12 35  1  0  0  0  0
 12 36  1  0  0  0  0
 13 18  1  0  0  0  0
 13 14  2  0  0  0  0
 14 15  1  0  0  0  0
 14 37  1  0  0  0  0
 15 16  2  0  0  0  0
 15 38  1  0  0  0  0
 16 17  1  0  0  0  0
 17 18  2  0  0  0  0
 17 39  1  0  0  0  0
 18 40  1  0  0  0  0
M  CHG  1   4   1
M  END
> <s_m_source_file>
AV-unprocessed.smi

> <i_m_source_file_index>
3316

> <i_lp_mmshare_version>
43012

> <i_f3d_flags>
0

> <s_epik_input>
W2NIXTFbY0hdbltjSF1bY0hdYzFbQ0BIXShbQ0gzXSlbQ0gyXVtOSF1bQ0gyXVtDQEhdKFtDSDJdW0NASF0yMylbQ0BIXShbQ0gyXTMpW0NIXT1bQ0hdMg==

> <s_epik_cmdline>
J2VwaWtfcHl0aG9uJywgJy1waCcsICc3LjAnLCAnLXRuJywgJzgnLCAnLW1hJywgJzIwMCcsICctbWV0YWxfYmluZGluZycsICctaW1hZScsICc8aW5maWxlLm1hZT4nLCAnLW9tYWUnLCAnPG91dGZpbGUubWFlPic=

> <r_lp_tautomer_probability>
1

> <r_epik_Ionization_Penalty>
0.00280406

> <r_epik_Ionization_Penalty_Charging>
0.000446589

> <r_epik_Ionization_Penalty_Neutral>
0.00235747

> <r_epik_State_Penalty>
-0

> <r_epik_Charging_Adjusted_Penalty>
0.000446589

> <i_epik_Tot_Q>
1

> <i_epik_Tot_abs_Q>
1

> <r_epik_Metal_State_Penalty>
-0

> <b_epik_Metal_Only>
0

> <s_lp_Force_Field>
OPLS_2005

> <r_lp_Energy>
65.494

> <b_lp_Chiralities_Consistent>
1

> <s_lp_Variant>
AV-unprocessed.smi:3316-6

> <Gold.Version>
5.8.1

> <Gold.Id.Protein>
6NUR|6NUR_protein|mol2

> <Gold.PLP.Fitness>
56.9458

> <Gold.PLP.PLP>
-49.0480

> <Gold.PLP.part.hbond>
-2.0000

> <Gold.PLP.part.metal>
0.0000

> <Gold.PLP.part.buried>
-3.5424

> <Gold.PLP.part.nonpolar>
-44.6704

> <Gold.PLP.part.repulsive>
0.0844

> <Gold.PLP.ligand.clash>
0.0000

> <Gold.PLP.ligand.torsion>
1.5231

> <Gold.PLP.Chemscore.Hbond>
2.6037

> <Gold.PLP.Chemscore.CHOScore>
0.9935

> <Gold.PLP.Chemscore.Metal>
0.0000

> <Gold.Chemscore.Hbonds>
donor molecule, donor type, donor heavy atom, donor atom, acceptor molecule, acceptor atom, score
      L1  H     4    25       P1  8028  2.00
      P1  H 10752 10764       L1    16  0.70
      L1  C    15    38       P1  7948  0.26
      L1  C    15    38       P1  7949  0.67

> <Gold.PLP.Chemscore.Internal.Correction>
0.1521

> <Gold.Rescore>
     Score         DG    S(hbond)    S(metal)    S(lipo)     H(rot)  DE(clash)    DE(int)     intcor
     23.25     -24.82       1.81        0.00     143.56       1.36       0.04       1.53       ----

> <Gold.Chemscore.Fitness>
23.2493

> <Gold.Chemscore.DG>
-24.8210

> <Gold.Chemscore.ZeroCoef>
-5.4800

> <Gold.Chemscore.Hbond>
1.8071

> <Gold.Chemscore.Metal>
0.0000

> <Gold.Chemscore.Lipo>
143.5644

> <Gold.Chemscore.Internal_Hbond>
0.0000

> <Gold.Chemscore.DEClash>
0.0387

> <Gold.Chemscore.DEInternal>
1.5330

> <Gold.Chemscore.Rot>
1.3640

> <Gold.Chemscore.Internal.Correction>
   9.000000E+99

> <Gold.Chemscore.Hbonds>
donor molecule, donor type, donor heavy atom, donor atom, acceptor molecule, acceptor atom, score
      L1  H     4    25       P1  8028  0.99
      P1  H 10752 10764       L1    16  0.27

> <Gold.Chemscore.Hbond.Weighted>
-6.0358

> <Gold.Chemscore.Metal.Weighted>
-0.0000

> <Gold.Chemscore.Lipo.Weighted>
-16.7970

> <Gold.Chemscore.Internal_Hbond.Weighted>
0.0000

> <Gold.Chemscore.DEClash.Weighted>
0.0387

> <Gold.Chemscore.DEInternal.Weighted>
1.5330

> <Gold.Chemscore.Rot.Weighted>
3.4919

> <Gold.Chemscore.Internal.Correction.Weighted>
   9.000000E+99

> <Gold.Protein.RotatedTorsions>
[ 6907 6896 6895 6894 ] final   96.48 input  -60.11 | X-H torsion
[ 7974 7965 7964 7962 ] final -165.10 input  175.53 | X-H torsion
[ 8008 7997 7996 7995 ] final  123.86 input   59.86 | X-H torsion
[ 10167 10162 10161 10158 ] final   84.38 input  -65.29 | X-H torsion
[ 10718 10713 10712 10709 ] final  -62.53 input   66.30 | X-H torsion
[ 10763 10752 10751 10750 ] final  -64.55 input  -60.55 | X-H torsion
[ 11005 11000 10999 10996 ] final  -93.40 input  -57.11 | X-H torsion

> <Gold.Protein.ActiveResidues>
 VAL166  LYS551  ARG553  GLY616  TRP617  ASP618  TYR619  PRO620  LYS621  CYS622 
 ASP623  PHE694  ASN695  SER759  ASP760  ASP761  ALA762  ILE779  LEU786  VAL792 
 PHE793  MET794  SER795  GLU796  ALA797  LYS798  CYS799  TRP800  GLU811  SER814 

> <Gold.Protein.RotatedAtoms>
  152.5434  134.0880  159.8264 H   0  0  0  0  0  0  0  0  0  0  0  0  # atno 6907 bound_to 6896
  151.0973  133.5263  159.2619 H   0  0  0  0  0  0  0  0  0  0  0  0  # atno 6908 bound_to 6896
  151.2031  135.0460  159.8935 H   0  0  0  0  0  0  0  0  0  0  0  0  # atno 6909 bound_to 6896
  144.7279  140.2863  143.6228 H   0  0  0  0  0  0  0  0  0  0  0  0  # atno 7974 bound_to 7965
  156.2781  140.2753  156.1695 H   0  0  0  0  0  0  0  0  0  0  0  0  # atno 8008 bound_to 7997
  155.0670  140.0387  157.2613 H   0  0  0  0  0  0  0  0  0  0  0  0  # atno 8009 bound_to 7997
  154.7071  140.2661  155.6669 H   0  0  0  0  0  0  0  0  0  0  0  0  # atno 8010 bound_to 7997
  139.9087  144.6285  150.8560 H   0  0  0  0  0  0  0  0  0  0  0  0  # atno 10167 bound_to 10162
  156.0849  130.4210  150.1149 H   0  0  0  0  0  0  0  0  0  0  0  0  # atno 10718 bound_to 10713
  154.3317  135.6175  153.5554 H   0  0  0  0  0  0  0  0  0  0  0  0  # atno 10763 bound_to 10752
  152.9811  135.5748  154.4954 H   0  0  0  0  0  0  0  0  0  0  0  0  # atno 10764 bound_to 10752
  154.4642  135.2857  155.1668 H   0  0  0  0  0  0  0  0  0  0  0  0  # atno 10765 bound_to 10752
  141.1498  133.7885  157.0154 H   0  0  0  0  0  0  0  0  0  0  0  0  # atno 11005 bound_to 11000
  145.7899  139.1923  143.2109 LP  0  0  0  0  0  0  0  0  0  0  0  0  # atno 17320 bound_to 7965
  146.0764  140.7812  142.9663 LP  0  0  0  0  0  0  0  0  0  0  0  0  # atno 17321 bound_to 7965
  140.7690  143.3382  151.2264 LP  0  0  0  0  0  0  0  0  0  0  0  0  # atno 17342 bound_to 10162
  139.6962  143.9609  152.2883 LP  0  0  0  0  0  0  0  0  0  0  0  0  # atno 17343 bound_to 10162
  156.9172  130.9671  151.3554 LP  0  0  0  0  0  0  0  0  0  0  0  0  # atno 17370 bound_to 10713
  157.5980  130.8491  149.8758 LP  0  0  0  0  0  0  0  0  0  0  0  0  # atno 17371 bound_to 10713
  140.0850  134.9626  157.1686 LP  0  0  0  0  0  0  0  0  0  0  0  0  # atno 17394 bound_to 11000
  140.3524  134.2584  155.7197 LP  0  0  0  0  0  0  0  0  0  0  0  0  # atno 17395 bound_to 11000

$$$$
