AV-unprocessed.smi:409|AV-procd|sdf|2506|dock2
  -GOLD-   2262022453D 1   1.00000     0.00000
 Structure written by MMmdl.
 34 35  0  0  0  0  0  0  0  0  2 V2000
  150.7183  140.5896  155.2058 O   0  0  0  0  0  0  0  0  0  0  0  0
  149.9588  141.5427  155.3853 C   0  0  0  0  0  0  0  0  0  0  0  0
  148.6659  141.6776  154.5697 C   0  0  0  0  0  0  0  0  0  0  0  0
  147.8044  140.4881  154.6622 N   0  0  0  0  0  0  0  0  0  0  0  0
  147.3720  139.8980  153.4614 C   0  0  0  0  0  0  0  0  0  0  0  0
  146.5795  138.8092  153.4501 C   0  0  0  0  0  0  0  0  0  0  0  0
  146.1696  138.2405  154.7281 C   0  0  0  0  0  0  0  0  0  0  0  0
  145.4507  137.2431  154.7369 O   0  0  0  0  0  0  0  0  0  0  0  0
  146.6112  138.8523  155.8659 N   0  5  0  0  0  0  0  0  0  0  0  0
  147.4144  139.9613  155.8620 C   0  0  0  0  0  0  0  0  0  0  0  0
  147.7992  140.4997  156.9008 O   0  0  0  0  0  0  0  0  0  0  0  0
  150.1786  142.4959  156.3035 N   0  0  0  0  0  0  0  0  0  0  0  0
  151.3360  142.5643  157.1901 C   0  0  0  0  0  0  0  0  0  0  0  0
  151.1464  141.6345  158.4066 C   0  0  0  0  0  0  0  0  0  0  0  0
  152.3211  141.7505  159.3915 C   0  0  0  0  0  0  0  0  0  0  0  0
  152.5349  143.2055  159.8372 C   0  0  0  0  0  0  0  0  0  0  0  0
  152.7297  144.1330  158.6274 C   0  0  0  0  0  0  0  0  0  0  0  0
  151.5538  144.0203  157.6435 C   0  0  0  0  0  0  0  0  0  0  0  0
  148.1338  142.5616  154.9232 H   0  0  0  0  0  0  0  0  0  0  0  0
  148.9049  141.8865  153.5250 H   0  0  0  0  0  0  0  0  0  0  0  0
  147.7150  140.3842  152.5602 H   0  0  0  0  0  0  0  0  0  0  0  0
  146.2533  138.3697  152.5191 H   0  0  0  0  0  0  0  0  0  0  0  0
  149.4993  143.2386  156.3826 H   0  0  0  0  0  0  0  0  0  0  0  0
  152.2233  142.2471  156.6385 H   0  0  0  0  0  0  0  0  0  0  0  0
  150.2174  141.8844  158.9213 H   0  0  0  0  0  0  0  0  0  0  0  0
  151.0480  140.5992  158.0787 H   0  0  0  0  0  0  0  0  0  0  0  0
  152.1408  141.1176  160.2610 H   0  0  0  0  0  0  0  0  0  0  0  0
  153.2302  141.3757  158.9195 H   0  0  0  0  0  0  0  0  0  0  0  0
  151.6752  143.5394  160.4195 H   0  0  0  0  0  0  0  0  0  0  0  0
  153.4000  143.2692  160.4978 H   0  0  0  0  0  0  0  0  0  0  0  0
  152.8359  145.1650  158.9624 H   0  0  0  0  0  0  0  0  0  0  0  0
  153.6584  143.8765  158.1162 H   0  0  0  0  0  0  0  0  0  0  0  0
  151.7377  144.6580  156.7780 H   0  0  0  0  0  0  0  0  0  0  0  0
  150.6483  144.3994  158.1196 H   0  0  0  0  0  0  0  0  0  0  0  0
  1  2  2  0  0  0  0
  2  3  1  0  0  0  0
  2 12  1  0  0  0  0
  3  4  1  0  0  0  0
  3 19  1  0  0  0  0
  3 20  1  0  0  0  0
  4 10  1  0  0  0  0
  4  5  1  0  0  0  0
  5  6  2  0  0  0  0
  5 21  1  0  0  0  0
  6  7  1  0  0  0  0
  6 22  1  0  0  0  0
  7  8  2  0  0  0  0
  7  9  1  0  0  0  0
  9 10  1  0  0  0  0
 10 11  2  0  0  0  0
 12 13  1  0  0  0  0
 12 23  1  0  0  0  0
 13 18  1  0  0  0  0
 13 14  1  0  0  0  0
 13 24  1  0  0  0  0
 14 15  1  0  0  0  0
 14 25  1  0  0  0  0
 14 26  1  0  0  0  0
 15 16  1  0  0  0  0
 15 27  1  0  0  0  0
 15 28  1  0  0  0  0
 16 17  1  0  0  0  0
 16 29  1  0  0  0  0
 16 30  1  0  0  0  0
 17 18  1  0  0  0  0
 17 31  1  0  0  0  0
 17 32  1  0  0  0  0
 18 33  1  0  0  0  0
 18 34  1  0  0  0  0
M  CHG  1   9  -1
M  END
> <s_m_source_file>
AV-unprocessed.smi

> <i_m_source_file_index>
409

> <i_lp_mmshare_version>
43012

> <i_f3d_flags>
0

> <s_epik_input>
W0NIMl0xW0NIMl1bQ0gyXVtDSDJdW0NIMl1bQ0hdMVtOSF1DKD1PKVtDSDJdbjJbY0hdW2NIXWMoPU8pW25IXWMyPU8=

> <s_epik_cmdline>
J2VwaWtfcHl0aG9uJywgJy1waCcsICc3LjAnLCAnLXRuJywgJzgnLCAnLW1hJywgJzIwMCcsICctbWV0YWxfYmluZGluZycsICctaW1hZScsICc8aW5maWxlLm1hZT4nLCAnLW9tYWUnLCAnPG91dGZpbGUubWFlPic=

> <r_lp_tautomer_probability>
0.999537

> <r_epik_Ionization_Penalty>
3.11464

> <r_epik_Ionization_Penalty_Charging>
2.89611e-08

> <r_epik_Ionization_Penalty_Neutral>
3.11464

> <r_epik_State_Penalty>
3.11372

> <r_epik_Charging_Adjusted_Penalty>
3.11373

> <i_epik_Tot_Q>
-1

> <i_epik_Tot_abs_Q>
1

> <r_epik_Metal_State_Penalty>
0.463005

> <b_epik_Metal_Only>
1

> <s_lp_Force_Field>
OPLS_2005

> <r_lp_Energy>
17.6148

> <b_lp_Chiralities_Consistent>
1

> <s_lp_Variant>
AV-unprocessed.smi:409-2

> <Gold.Version>
5.8.1

> <Gold.Id.Protein>
6NUR|6NUR_protein|mol2

> <Gold.PLP.Fitness>
40.2328

> <Gold.PLP.PLP>
-32.1236

> <Gold.PLP.part.hbond>
-2.0000

> <Gold.PLP.part.metal>
0.0000

> <Gold.PLP.part.buried>
-2.6417

> <Gold.PLP.part.nonpolar>
-27.1907

> <Gold.PLP.part.repulsive>
0.2563

> <Gold.PLP.ligand.clash>
0.0000

> <Gold.PLP.ligand.torsion>
0.3901

> <Gold.PLP.Chemscore.Hbond>
1.9600

> <Gold.PLP.Chemscore.CHOScore>
1.0000

> <Gold.PLP.Chemscore.Metal>
0.0000

> <Gold.Chemscore.Hbonds>
donor molecule, donor type, donor heavy atom, donor atom, acceptor molecule, acceptor atom, score
      L1  H    12    23       P1  8028  0.91
      P1  H  7989  7998       L1     1  0.94
      L1  C     5    21       P1  7957  1.00

> <Gold.PLP.Chemscore.Internal.Correction>
0.0095

> <Gold.Rescore>
     Score         DG    S(hbond)    S(metal)    S(lipo)     H(rot)  DE(clash)    DE(int)     intcor
     15.71     -16.26       1.52        0.00      85.26       1.67       0.22       0.33       ----

> <Gold.Chemscore.Fitness>
15.7131

> <Gold.Chemscore.DG>
-16.2603

> <Gold.Chemscore.ZeroCoef>
-5.4800

> <Gold.Chemscore.Hbond>
1.5203

> <Gold.Chemscore.Metal>
0.0000

> <Gold.Chemscore.Lipo>
85.2560

> <Gold.Chemscore.Internal_Hbond>
0.0000

> <Gold.Chemscore.DEClash>
0.2217

> <Gold.Chemscore.DEInternal>
0.3255

> <Gold.Chemscore.Rot>
1.6690

> <Gold.Chemscore.Internal.Correction>
   9.000000E+99

> <Gold.Chemscore.Hbonds>
donor molecule, donor type, donor heavy atom, donor atom, acceptor molecule, acceptor atom, score
      L1  H    12    23       P1  8028  0.90
      P1  H  7989  7998       L1     1  0.55

> <Gold.Chemscore.Hbond.Weighted>
-5.0780

> <Gold.Chemscore.Metal.Weighted>
-0.0000

> <Gold.Chemscore.Lipo.Weighted>
-9.9750

> <Gold.Chemscore.Internal_Hbond.Weighted>
0.0000

> <Gold.Chemscore.DEClash.Weighted>
0.2217

> <Gold.Chemscore.DEInternal.Weighted>
0.3255

> <Gold.Chemscore.Rot.Weighted>
4.2726

> <Gold.Chemscore.Internal.Correction.Weighted>
   9.000000E+99

> <Gold.Protein.RotatedTorsions>
[ 6907 6896 6895 6894 ] final  -81.97 input  -60.11 | X-H torsion
[ 7974 7965 7964 7962 ] final   53.91 input  175.53 | X-H torsion
[ 8008 7997 7996 7995 ] final    2.01 input   59.86 | X-H torsion
[ 10167 10162 10161 10158 ] final   60.30 input  -65.29 | X-H torsion
[ 10718 10713 10712 10709 ] final  -51.24 input   66.30 | X-H torsion
[ 10763 10752 10751 10750 ] final  -95.57 input  -60.55 | X-H torsion
[ 11005 11000 10999 10996 ] final -152.63 input  -57.11 | X-H torsion

> <Gold.Protein.ActiveResidues>
 VAL166  LYS551  ARG553  GLY616  TRP617  ASP618  TYR619  PRO620  LYS621  CYS622 
 ASP623  PHE694  ASN695  SER759  ASP760  ASP761  ALA762  ILE779  LEU786  VAL792 
 PHE793  MET794  SER795  GLU796  ALA797  LYS798  CYS799  TRP800  GLU811  SER814 

> <Gold.Protein.RotatedAtoms>
  150.6904  134.3737  159.5003 H   0  0  0  0  0  0  0  0  0  0  0  0  # atno 6907 bound_to 6896
  152.1549  134.8956  160.0555 H   0  0  0  0  0  0  0  0  0  0  0  0  # atno 6908 bound_to 6896
  152.0040  133.3801  159.4230 H   0  0  0  0  0  0  0  0  0  0  0  0  # atno 6909 bound_to 6896
  145.9663  139.4107  143.0217 H   0  0  0  0  0  0  0  0  0  0  0  0  # atno 7974 bound_to 7965
  154.6865  140.2644  155.6855 H   0  0  0  0  0  0  0  0  0  0  0  0  # atno 8008 bound_to 7997
  156.2716  140.2799  156.1351 H   0  0  0  0  0  0  0  0  0  0  0  0  # atno 8009 bound_to 7997
  155.0957  140.0374  157.2672 H   0  0  0  0  0  0  0  0  0  0  0  0  # atno 8010 bound_to 7997
  140.1671  144.4313  150.6680 H   0  0  0  0  0  0  0  0  0  0  0  0  # atno 10167 bound_to 10162
  156.1728  130.4149  149.9622 H   0  0  0  0  0  0  0  0  0  0  0  0  # atno 10718 bound_to 10713
  154.7161  135.5115  153.8739 H   0  0  0  0  0  0  0  0  0  0  0  0  # atno 10763 bound_to 10752
  153.0821  135.6634  154.0032 H   0  0  0  0  0  0  0  0  0  0  0  0  # atno 10764 bound_to 10752
  153.9864  135.3024  155.3395 H   0  0  0  0  0  0  0  0  0  0  0  0  # atno 10765 bound_to 10752
  140.7168  134.3771  157.5189 H   0  0  0  0  0  0  0  0  0  0  0  0  # atno 11005 bound_to 11000
  145.7968  140.9789  143.1019 LP  0  0  0  0  0  0  0  0  0  0  0  0  # atno 17320 bound_to 7965
  144.6826  139.9752  143.7482 LP  0  0  0  0  0  0  0  0  0  0  0  0  # atno 17321 bound_to 7965
  140.6606  143.2251  151.5865 LP  0  0  0  0  0  0  0  0  0  0  0  0  # atno 17342 bound_to 10162
  139.5355  144.2795  152.1241 LP  0  0  0  0  0  0  0  0  0  0  0  0  # atno 17343 bound_to 10162
  156.7417  130.9082  151.3632 LP  0  0  0  0  0  0  0  0  0  0  0  0  # atno 17370 bound_to 10713
  157.6814  130.9144  150.0278 LP  0  0  0  0  0  0  0  0  0  0  0  0  # atno 17371 bound_to 10713
  139.8858  134.8928  156.2624 LP  0  0  0  0  0  0  0  0  0  0  0  0  # atno 17394 bound_to 11000
  141.0037  133.7136  156.1001 LP  0  0  0  0  0  0  0  0  0  0  0  0  # atno 17395 bound_to 11000

$$$$
