AV-unprocessed.smi:12|AV-procd|sdf|66|dock8
  -GOLD-   2262015183D 1   1.00000     0.00000
 Structure written by MMmdl.
 41 44  0  0  0  0  0  0  0  0  1 V2000
  151.9254  143.1129  159.2175 C   0  0  0  0  0  0  0  0  0  0  0  0
  151.5603  142.0432  158.2039 C   0  0  0  0  0  0  0  0  0  0  0  0
  150.8421  142.3312  157.0928 C   0  0  0  0  0  0  0  0  0  0  0  0
  150.5370  141.3303  156.2135 N   0  0  0  0  0  0  0  0  0  0  0  0
  150.9864  140.0159  156.4644 C   0  0  0  0  0  0  0  0  0  0  0  0
  151.6766  139.6606  157.5032 N   0  0  0  0  0  0  0  0  0  0  0  0
  152.0071  140.6490  158.4504 C   0  0  0  0  0  0  0  0  0  0  0  0
  152.6537  140.3582  159.4557 O   0  0  0  0  0  0  0  0  0  0  0  0
  150.5913  139.2101  155.4404 O   0  0  0  0  0  0  0  0  0  0  0  0
  149.8744  139.9795  154.4654 C   0  0  1  0  0  0  0  0  0  0  0  0
  148.4150  139.5411  154.3809 C   0  0  2  0  0  0  0  0  0  0  0  0
  148.1648  138.8639  153.1658 O   0  0  0  0  0  0  0  0  0  0  0  0
  147.6393  140.8600  154.4535 C   0  0  1  0  0  0  0  0  0  0  0  0
  146.2331  140.7374  155.0534 C   0  0  0  0  0  0  0  0  0  0  0  0
  145.7463  142.0301  155.3756 O   0  0  0  0  0  0  0  0  0  0  0  0
  145.6195  142.9646  154.4140 C   0  0  0  0  0  0  0  0  0  0  0  0
  146.1768  142.8946  153.3167 O   0  0  0  0  0  0  0  0  0  0  0  0
  144.7299  144.0923  154.8160 C   0  0  0  0  0  0  0  0  0  0  0  0
  144.3035  145.0218  153.8385 C   0  0  0  0  0  0  0  0  0  0  0  0
  143.4598  146.0941  154.1878 C   0  0  0  0  0  0  0  0  0  0  0  0
  143.0327  146.2510  155.5193 C   0  0  0  0  0  0  0  0  0  0  0  0
  143.4521  145.3350  156.5017 C   0  0  0  0  0  0  0  0  0  0  0  0
  144.2954  144.2615  156.1541 C   0  0  0  0  0  0  0  0  0  0  0  0
  148.4475  141.6769  155.2849 O   0  0  0  0  0  0  0  0  0  0  0  0
  149.7795  141.4330  154.9674 C   0  0  1  0  0  0  0  0  0  0  0  0
  151.5353  144.0877  158.9227 H   0  0  0  0  0  0  0  0  0  0  0  0
  153.0086  143.1972  159.3101 H   0  0  0  0  0  0  0  0  0  0  0  0
  151.5137  142.8674  160.1969 H   0  0  0  0  0  0  0  0  0  0  0  0
  150.5034  143.3375  156.8937 H   0  0  0  0  0  0  0  0  0  0  0  0
  150.3836  139.9700  153.5005 H   0  0  0  0  0  0  0  0  0  0  0  0
  148.1615  138.9019  155.2281 H   0  0  0  0  0  0  0  0  0  0  0  0
  148.5002  139.3895  152.4554 H   0  0  0  0  0  0  0  0  0  0  0  0
  147.5943  141.3347  153.4711 H   0  0  0  0  0  0  0  0  0  0  0  0
  145.5595  140.2403  154.3540 H   0  0  0  0  0  0  0  0  0  0  0  0
  146.2709  140.1314  155.9598 H   0  0  0  0  0  0  0  0  0  0  0  0
  144.6175  144.9216  152.8094 H   0  0  0  0  0  0  0  0  0  0  0  0
  143.1396  146.7966  153.4322 H   0  0  0  0  0  0  0  0  0  0  0  0
  142.3847  147.0727  155.7868 H   0  0  0  0  0  0  0  0  0  0  0  0
  143.1261  145.4548  157.5244 H   0  0  0  0  0  0  0  0  0  0  0  0
  144.5978  143.5770  156.9331 H   0  0  0  0  0  0  0  0  0  0  0  0
  150.2703  142.1883  154.3525 H   0  0  0  0  0  0  0  0  0  0  0  0
  1  2  1  0  0  0  0
  1 26  1  0  0  0  0
  1 27  1  0  0  0  0
  1 28  1  0  0  0  0
  2  7  1  0  0  0  0
  2  3  2  0  0  0  0
  3  4  1  0  0  0  0
  3 29  1  0  0  0  0
  4 25  1  0  0  0  0
  4  5  1  0  0  0  0
  5  6  2  0  0  0  0
  5  9  1  0  0  0  0
  6  7  1  0  0  0  0
  7  8  2  0  0  0  0
  9 10  1  0  0  0  0
 10 25  1  0  0  0  0
 10 11  1  0  0  0  0
 10 30  1  0  0  0  0
 11 12  1  0  0  0  0
 11 13  1  0  0  0  0
 11 31  1  0  0  0  0
 12 32  1  0  0  0  0
 13 14  1  0  0  0  0
 13 24  1  0  0  0  0
 13 33  1  0  0  0  0
 14 15  1  0  0  0  0
 14 34  1  0  0  0  0
 14 35  1  0  0  0  0
 15 16  1  0  0  0  0
 16 17  2  0  0  0  0
 16 18  1  0  0  0  0
 18 23  1  0  0  0  0
 18 19  2  0  0  0  0
 19 20  1  0  0  0  0
 19 36  1  0  0  0  0
 20 21  2  0  0  0  0
 20 37  1  0  0  0  0
 21 22  1  0  0  0  0
 21 38  1  0  0  0  0
 22 23  2  0  0  0  0
 22 39  1  0  0  0  0
 23 40  1  0  0  0  0
 24 25  1  0  0  0  0
 25 41  1  0  0  0  0
M  END
> <s_m_source_file>
AV-unprocessed.smi

> <i_m_source_file_index>
12

> <i_lp_mmshare_version>
43012

> <i_f3d_flags>
0

> <s_epik_input>
W0NIM11jKFtjSF0xKWMoPU8pbmMobjEyKU9bQ0BIXTNbQ0BASF0yT1tDQEBIXShbQ0BASF0zW09IXSlbQ0gyXU9DKD1PKWM0W2NIXVtjSF1bY0hdW2NIXVtjSF00

> <s_epik_cmdline>
J2VwaWtfcHl0aG9uJywgJy1waCcsICc3LjAnLCAnLXRuJywgJzgnLCAnLW1hJywgJzIwMCcsICctbWV0YWxfYmluZGluZycsICctaW1hZScsICc8aW5maWxlLm1hZT4nLCAnLW9tYWUnLCAnPG91dGZpbGUubWFlPic=

> <r_lp_tautomer_probability>
0.933681

> <r_epik_Ionization_Penalty>
0.00399549

> <r_epik_Ionization_Penalty_Charging>
3.09373e-09

> <r_epik_Ionization_Penalty_Neutral>
0.00399549

> <r_epik_State_Penalty>
0.00284953

> <r_epik_Charging_Adjusted_Penalty>
0.00284953

> <i_epik_Tot_Q>
0

> <i_epik_Tot_abs_Q>
0

> <r_epik_Metal_State_Penalty>
-0

> <b_epik_Metal_Only>
0

> <s_epik_Chemistry_Notes>
This compound has an ester and may undergo hydrolysis at high or low pH. This compound contains an acetal/aminal-like group ( X-CH(R)-Y where X, Y are N, S, or O) that may be acid/base labile, releasing an aldehyde.

> <s_lp_Force_Field>
OPLS_2005

> <r_lp_Energy>
41.0284

> <b_lp_Chiralities_Consistent>
1

> <s_lp_Variant>
AV-unprocessed.smi:12-6

> <Gold.Version>
5.8.1

> <Gold.Id.Protein>
6NUR|6NUR_protein|mol2

> <Gold.PLP.Fitness>
45.9156

> <Gold.PLP.PLP>
-40.6478

> <Gold.PLP.part.hbond>
-2.0000

> <Gold.PLP.part.metal>
0.0000

> <Gold.PLP.part.buried>
-3.4861

> <Gold.PLP.part.nonpolar>
-35.9565

> <Gold.PLP.part.repulsive>
0.7963

> <Gold.PLP.ligand.clash>
0.0000

> <Gold.PLP.ligand.torsion>
0.3701

> <Gold.PLP.Chemscore.Hbond>
1.0000

> <Gold.PLP.Chemscore.CHOScore>
1.0000

> <Gold.PLP.Chemscore.Metal>
0.0000

> <Gold.Chemscore.Hbonds>
donor molecule, donor type, donor heavy atom, donor atom, acceptor molecule, acceptor atom, score
      L1  H    12    32       P1  7957  1.00
      L1  C     3    29       P1  8028  1.00

> <Gold.PLP.Chemscore.Internal.Correction>
0.0080

> <Gold.Rescore>
     Score         DG    S(hbond)    S(metal)    S(lipo)     H(rot)  DE(clash)    DE(int)     intcor
     11.15     -13.11       1.00        0.00      84.47       2.18       0.30       1.66       ----

> <Gold.Chemscore.Fitness>
11.1495

> <Gold.Chemscore.DG>
-13.1104

> <Gold.Chemscore.ZeroCoef>
-5.4800

> <Gold.Chemscore.Hbond>
0.9966

> <Gold.Chemscore.Metal>
0.0000

> <Gold.Chemscore.Lipo>
84.4667

> <Gold.Chemscore.Internal_Hbond>
0.0000

> <Gold.Chemscore.DEClash>
0.2991

> <Gold.Chemscore.DEInternal>
1.6619

> <Gold.Chemscore.Rot>
2.1800

> <Gold.Chemscore.Internal.Correction>
   9.000000E+99

> <Gold.Chemscore.Hbonds>
donor molecule, donor type, donor heavy atom, donor atom, acceptor molecule, acceptor atom, score
      L1  H    12    32       P1  7957  1.00

> <Gold.Chemscore.Hbond.Weighted>
-3.3286

> <Gold.Chemscore.Metal.Weighted>
-0.0000

> <Gold.Chemscore.Lipo.Weighted>
-9.8826

> <Gold.Chemscore.Internal_Hbond.Weighted>
0.0000

> <Gold.Chemscore.DEClash.Weighted>
0.2991

> <Gold.Chemscore.DEInternal.Weighted>
1.6619

> <Gold.Chemscore.Rot.Weighted>
5.5807

> <Gold.Chemscore.Internal.Correction.Weighted>
   9.000000E+99

> <Gold.Protein.RotatedTorsions>
[ 6907 6896 6895 6894 ] final  -74.50 input  -60.11 | X-H torsion
[ 7974 7965 7964 7962 ] final -116.52 input  175.53 | X-H torsion
[ 8008 7997 7996 7995 ] final   36.41 input   59.86 | X-H torsion
[ 10167 10162 10161 10158 ] final  -49.37 input  -65.29 | X-H torsion
[ 10718 10713 10712 10709 ] final -113.25 input   66.30 | X-H torsion
[ 10763 10752 10751 10750 ] final   15.84 input  -60.55 | X-H torsion
[ 11005 11000 10999 10996 ] final -139.62 input  -57.11 | X-H torsion

> <Gold.Protein.ActiveResidues>
 VAL166  LYS551  ARG553  GLY616  TRP617  ASP618  TYR619  PRO620  LYS621  CYS622 
 ASP623  PHE694  ASN695  SER759  ASP760  ASP761  ALA762  ILE779  LEU786  VAL792 
 PHE793  MET794  SER795  GLU796  ALA797  LYS798  CYS799  TRP800  GLU811  SER814 

> <Gold.Protein.RotatedAtoms>
  150.7091  134.4860  159.5492 H   0  0  0  0  0  0  0  0  0  0  0  0  # atno 6907 bound_to 6896
  152.2487  134.8152  160.0458 H   0  0  0  0  0  0  0  0  0  0  0  0  # atno 6908 bound_to 6896
  151.8907  133.3480  159.3834 H   0  0  0  0  0  0  0  0  0  0  0  0  # atno 6909 bound_to 6896
  145.0958  140.8520  143.3955 H   0  0  0  0  0  0  0  0  0  0  0  0  # atno 7974 bound_to 7965
  155.1869  140.3304  155.4365 H   0  0  0  0  0  0  0  0  0  0  0  0  # atno 8008 bound_to 7997
  156.2456  140.1917  156.6915 H   0  0  0  0  0  0  0  0  0  0  0  0  # atno 8009 bound_to 7997
  154.6232  140.0592  156.9627 H   0  0  0  0  0  0  0  0  0  0  0  0  # atno 8010 bound_to 7997
  140.6688  143.2701  151.4205 H   0  0  0  0  0  0  0  0  0  0  0  0  # atno 10167 bound_to 10162
  156.0755  130.5963  150.8617 H   0  0  0  0  0  0  0  0  0  0  0  0  # atno 10718 bound_to 10713
  153.1487  135.6774  153.8915 H   0  0  0  0  0  0  0  0  0  0  0  0  # atno 10763 bound_to 10752
  153.8348  135.3113  155.3423 H   0  0  0  0  0  0  0  0  0  0  0  0  # atno 10764 bound_to 10752
  154.7845  135.4870  154.0002 H   0  0  0  0  0  0  0  0  0  0  0  0  # atno 10765 bound_to 10752
  140.8502  134.2295  157.4764 H   0  0  0  0  0  0  0  0  0  0  0  0  # atno 11005 bound_to 11000
  145.1012  139.2821  143.5685 LP  0  0  0  0  0  0  0  0  0  0  0  0  # atno 17320 bound_to 7965
  146.3531  140.0580  142.8631 LP  0  0  0  0  0  0  0  0  0  0  0  0  # atno 17321 bound_to 7965
  139.5948  144.1421  152.2131 LP  0  0  0  0  0  0  0  0  0  0  0  0  # atno 17342 bound_to 10162
  140.0787  144.5719  150.7138 LP  0  0  0  0  0  0  0  0  0  0  0  0  # atno 17343 bound_to 10162
  157.5848  131.0946  150.9214 LP  0  0  0  0  0  0  0  0  0  0  0  0  # atno 17370 bound_to 10713
  156.9402  130.5382  149.5280 LP  0  0  0  0  0  0  0  0  0  0  0  0  # atno 17371 bound_to 10713
  139.8704  134.9679  156.4613 LP  0  0  0  0  0  0  0  0  0  0  0  0  # atno 17394 bound_to 11000
  140.8799  133.7926  155.9455 LP  0  0  0  0  0  0  0  0  0  0  0  0  # atno 17395 bound_to 11000

$$$$
