AV-unprocessed.smi:1263|AV-procd|sdf|5312|dock3
  -GOLD-   22720 4433D 1   1.00000     0.00000
 Structure written by MMmdl.
 43 45  0  0  0  0  0  0  0  0  1 V2000
  145.9195  132.9828  151.6231 C   0  0  0  0  0  0  0  0  0  0  0  0
  147.0147  133.3868  152.4379 O   0  0  0  0  0  0  0  0  0  0  0  0
  147.7268  132.4150  153.1150 C   0  0  0  0  0  0  0  0  0  0  0  0
  147.3307  131.1230  152.9928 N   0  0  0  0  0  0  0  0  0  0  0  0
  148.0281  130.1720  153.6472 C   0  0  0  0  0  0  0  0  0  0  0  0
  149.1512  130.4533  154.4463 C   0  0  0  0  0  0  0  0  0  0  0  0
  149.5636  131.7923  154.5757 C   0  0  0  0  0  0  0  0  0  0  0  0
  148.8327  132.8041  153.9068 C   0  0  0  0  0  0  0  0  0  0  0  0
  149.1759  134.1836  153.9521 N   0  0  0  0  0  0  0  0  0  0  0  0
  149.9652  134.8236  154.8315 C   0  0  0  0  0  0  0  0  0  0  0  0
  150.5076  134.3055  155.8076 O   0  0  0  0  0  0  0  0  0  0  0  0
  150.0744  136.1233  154.5212 N   0  0  0  0  0  0  0  0  0  0  0  0
  150.8426  137.1199  155.2629 C   0  0  0  0  0  0  0  0  0  0  0  0
  150.2835  137.2639  156.6873 C   0  0  0  0  0  0  0  0  0  0  0  0
  150.9656  138.4234  157.4344 C   0  0  0  0  0  0  0  0  0  0  0  0
  150.7829  139.6752  156.6991 N   0  0  0  0  0  0  0  0  0  0  0  0
  151.3959  140.7563  157.4532 C   0  0  0  0  0  0  0  0  0  0  0  0
  150.5136  141.5311  158.4051 C   0  0  0  0  0  0  0  0  0  0  0  0
  150.9762  142.1691  157.1173 C   0  0  0  0  0  0  0  0  0  0  0  0
  151.4312  139.5827  155.3907 C   0  0  0  0  0  0  0  0  0  0  0  0
  150.7699  138.4781  154.5478 C   0  0  0  0  0  0  0  0  0  0  0  0
  145.4688  133.8618  151.1625 H   0  0  0  0  0  0  0  0  0  0  0  0
  145.1470  132.4850  152.2111 H   0  0  0  0  0  0  0  0  0  0  0  0
  146.2431  132.3182  150.8207 H   0  0  0  0  0  0  0  0  0  0  0  0
  147.6846  129.1555  153.5238 H   0  0  0  0  0  0  0  0  0  0  0  0
  149.6877  129.6592  154.9442 H   0  0  0  0  0  0  0  0  0  0  0  0
  150.4372  132.0126  155.1692 H   0  0  0  0  0  0  0  0  0  0  0  0
  148.7220  134.7621  153.2601 H   0  0  0  0  0  0  0  0  0  0  0  0
  149.5847  136.4535  153.7025 H   0  0  0  0  0  0  0  0  0  0  0  0
  151.8918  136.8275  155.3331 H   0  0  0  0  0  0  0  0  0  0  0  0
  149.2074  137.4415  156.6511 H   0  0  0  0  0  0  0  0  0  0  0  0
  150.4256  136.3347  157.2402 H   0  0  0  0  0  0  0  0  0  0  0  0
  150.5306  138.5186  158.4300 H   0  0  0  0  0  0  0  0  0  0  0  0
  152.0285  138.2151  157.5681 H   0  0  0  0  0  0  0  0  0  0  0  0
  152.4319  140.6451  157.7697 H   0  0  0  0  0  0  0  0  0  0  0  0
  149.4656  141.2461  158.4753 H   0  0  0  0  0  0  0  0  0  0  0  0
  150.9635  141.8829  159.3313 H   0  0  0  0  0  0  0  0  0  0  0  0
  151.7342  142.9467  157.1851 H   0  0  0  0  0  0  0  0  0  0  0  0
  150.2353  142.3082  156.3321 H   0  0  0  0  0  0  0  0  0  0  0  0
  151.3416  140.5374  154.8712 H   0  0  0  0  0  0  0  0  0  0  0  0
  152.4973  139.3822  155.5100 H   0  0  0  0  0  0  0  0  0  0  0  0
  151.2587  138.4146  153.5750 H   0  0  0  0  0  0  0  0  0  0  0  0
  149.7296  138.7452  154.3547 H   0  0  0  0  0  0  0  0  0  0  0  0
  1  2  1  0  0  0  0
  1 22  1  0  0  0  0
  1 23  1  0  0  0  0
  1 24  1  0  0  0  0
  2  3  1  0  0  0  0
  3  8  1  0  0  0  0
  3  4  2  0  0  0  0
  4  5  1  0  0  0  0
  5  6  2  0  0  0  0
  5 25  1  0  0  0  0
  6  7  1  0  0  0  0
  6 26  1  0  0  0  0
  7  8  2  0  0  0  0
  7 27  1  0  0  0  0
  8  9  1  0  0  0  0
  9 10  1  0  0  0  0
  9 28  1  0  0  0  0
 10 11  2  0  0  0  0
 10 12  1  0  0  0  0
 12 13  1  0  0  0  0
 12 29  1  0  0  0  0
 13 21  1  0  0  0  0
 13 14  1  0  0  0  0
 13 30  1  0  0  0  0
 14 15  1  0  0  0  0
 14 31  1  0  0  0  0
 14 32  1  0  0  0  0
 15 16  1  0  0  0  0
 15 33  1  0  0  0  0
 15 34  1  0  0  0  0
 16 17  1  0  0  0  0
 16 20  1  0  0  0  0
 17 19  1  0  0  0  0
 17 18  1  0  0  0  0
 17 35  1  0  0  0  0
 18 19  1  0  0  0  0
 18 36  1  0  0  0  0
 18 37  1  0  0  0  0
 19 38  1  0  0  0  0
 19 39  1  0  0  0  0
 20 21  1  0  0  0  0
 20 40  1  0  0  0  0
 20 41  1  0  0  0  0
 21 42  1  0  0  0  0
 21 43  1  0  0  0  0
M  END
> <s_m_source_file>
AV-unprocessed.smi

> <i_m_source_file_index>
1263

> <i_lp_mmshare_version>
43012

> <i_f3d_flags>
0

> <s_epik_input>
W0NIM11PYzFuW2NIXVtjSF1bY0hdYzFbTkhdQyg9TylbTkhdW0NIXTJbQ0gyXVtDSDJdTihbQ0gyXVtDSDJdMilbQ0hdM1tDSDJdW0NIMl0z

> <s_epik_cmdline>
J2VwaWtfcHl0aG9uJywgJy1waCcsICc3LjAnLCAnLXRuJywgJzgnLCAnLW1hJywgJzIwMCcsICctbWV0YWxfYmluZGluZycsICctaW1hZScsICc8aW5maWxlLm1hZT4nLCAnLW9tYWUnLCAnPG91dGZpbGUubWFlPic=

> <r_lp_tautomer_probability>
1

> <r_epik_Ionization_Penalty>
1.02543

> <r_epik_Ionization_Penalty_Charging>
0

> <r_epik_Ionization_Penalty_Neutral>
1.02543

> <r_epik_State_Penalty>
1.07599

> <r_epik_Charging_Adjusted_Penalty>
1.07599

> <i_epik_Tot_Q>
0

> <i_epik_Tot_abs_Q>
0

> <r_epik_Metal_State_Penalty>
1.07599

> <b_epik_Metal_Only>
0

> <s_lp_Force_Field>
OPLS_2005

> <r_lp_Energy>
24.353

> <b_lp_Chiralities_Consistent>
1

> <s_lp_Variant>
AV-unprocessed.smi:1263-3

> <Gold.Version>
5.8.1

> <Gold.Id.Protein>
6NUR|6NUR_protein|mol2

> <Gold.PLP.Fitness>
39.6917

> <Gold.PLP.PLP>
-34.0778

> <Gold.PLP.part.hbond>
-2.7685

> <Gold.PLP.part.metal>
0.0000

> <Gold.PLP.part.buried>
-3.9608

> <Gold.PLP.part.nonpolar>
-28.1344

> <Gold.PLP.part.repulsive>
0.8833

> <Gold.PLP.ligand.clash>
0.0000

> <Gold.PLP.ligand.torsion>
0.6696

> <Gold.PLP.Chemscore.Hbond>
1.9272

> <Gold.PLP.Chemscore.CHOScore>
0.0000

> <Gold.PLP.Chemscore.Metal>
0.0000

> <Gold.Chemscore.Hbonds>
donor molecule, donor type, donor heavy atom, donor atom, acceptor molecule, acceptor atom, score
      L1  H     9    28       P1  7948  0.91
      L1  H    12    29       P1  7948  1.00

> <Gold.PLP.Chemscore.Internal.Correction>
1.1715

> <Gold.Rescore>
     Score         DG    S(hbond)    S(metal)    S(lipo)     H(rot)  DE(clash)    DE(int)     intcor
     12.67     -15.05       1.46        0.00      70.96       1.41       0.02       2.37       ----

> <Gold.Chemscore.Fitness>
12.6660

> <Gold.Chemscore.DG>
-15.0497

> <Gold.Chemscore.ZeroCoef>
-5.4800

> <Gold.Chemscore.Hbond>
1.4565

> <Gold.Chemscore.Metal>
0.0000

> <Gold.Chemscore.Lipo>
70.9633

> <Gold.Chemscore.Internal_Hbond>
0.0000

> <Gold.Chemscore.DEClash>
0.0162

> <Gold.Chemscore.DEInternal>
2.3674

> <Gold.Chemscore.Rot>
1.4053

> <Gold.Chemscore.Internal.Correction>
   9.000000E+99

> <Gold.Chemscore.Hbonds>
donor molecule, donor type, donor heavy atom, donor atom, acceptor molecule, acceptor atom, score
      L1  H     9    28       P1  7948  0.29
      L1  H    12    29       P1  7948  0.62

> <Gold.Chemscore.Hbond.Weighted>
-4.8646

> <Gold.Chemscore.Metal.Weighted>
-0.0000

> <Gold.Chemscore.Lipo.Weighted>
-8.3027

> <Gold.Chemscore.Internal_Hbond.Weighted>
0.0000

> <Gold.Chemscore.DEClash.Weighted>
0.0162

> <Gold.Chemscore.DEInternal.Weighted>
2.3674

> <Gold.Chemscore.Rot.Weighted>
3.5977

> <Gold.Chemscore.Internal.Correction.Weighted>
   9.000000E+99

> <Gold.Protein.RotatedTorsions>
[ 6907 6896 6895 6894 ] final -122.66 input  -60.11 | X-H torsion
[ 7974 7965 7964 7962 ] final   61.30 input  175.53 | X-H torsion
[ 8008 7997 7996 7995 ] final   20.44 input   59.86 | X-H torsion
[ 10167 10162 10161 10158 ] final   96.82 input  -65.29 | X-H torsion
[ 10718 10713 10712 10709 ] final   12.86 input   66.30 | X-H torsion
[ 10763 10752 10751 10750 ] final -145.00 input  -60.55 | X-H torsion
[ 11005 11000 10999 10996 ] final  -22.75 input  -57.11 | X-H torsion

> <Gold.Protein.ActiveResidues>
 VAL166  LYS551  ARG553  GLY616  TRP617  ASP618  TYR619  PRO620  LYS621  CYS622 
 ASP623  PHE694  ASN695  SER759  ASP760  ASP761  ALA762  ILE779  LEU786  VAL792 
 PHE793  MET794  SER795  GLU796  ALA797  LYS798  CYS799  TRP800  GLU811  SER814 

> <Gold.Protein.RotatedAtoms>
  150.8597  133.7662  159.2996 H   0  0  0  0  0  0  0  0  0  0  0  0  # atno 6907 bound_to 6896
  151.5308  135.1066  159.9911 H   0  0  0  0  0  0  0  0  0  0  0  0  # atno 6908 bound_to 6896
  152.4617  133.7792  159.6897 H   0  0  0  0  0  0  0  0  0  0  0  0  # atno 6909 bound_to 6896
  145.8863  139.3479  143.0676 H   0  0  0  0  0  0  0  0  0  0  0  0  # atno 7974 bound_to 7965
  154.9357  140.3046  155.5145 H   0  0  0  0  0  0  0  0  0  0  0  0  # atno 8008 bound_to 7997
  156.3000  140.2345  156.4358 H   0  0  0  0  0  0  0  0  0  0  0  0  # atno 8009 bound_to 7997
  154.8194  140.0424  157.1388 H   0  0  0  0  0  0  0  0  0  0  0  0  # atno 8010 bound_to 7997
  139.7859  144.6871  150.9959 H   0  0  0  0  0  0  0  0  0  0  0  0  # atno 10167 bound_to 10162
  157.0163  130.6137  149.5715 H   0  0  0  0  0  0  0  0  0  0  0  0  # atno 10718 bound_to 10713
  154.8403  135.3425  154.6435 H   0  0  0  0  0  0  0  0  0  0  0  0  # atno 10763 bound_to 10752
  153.7046  135.6967  153.5058 H   0  0  0  0  0  0  0  0  0  0  0  0  # atno 10764 bound_to 10752
  153.2497  135.4357  155.0739 H   0  0  0  0  0  0  0  0  0  0  0  0  # atno 10765 bound_to 10752
  140.8687  133.7736  156.0160 H   0  0  0  0  0  0  0  0  0  0  0  0  # atno 11005 bound_to 11000
  145.8963  140.9272  143.0526 LP  0  0  0  0  0  0  0  0  0  0  0  0  # atno 17320 bound_to 7965
  144.6729  140.0972  143.7462 LP  0  0  0  0  0  0  0  0  0  0  0  0  # atno 17321 bound_to 7965
  140.7819  143.4433  151.0520 LP  0  0  0  0  0  0  0  0  0  0  0  0  # atno 17342 bound_to 10162
  139.8112  143.7949  152.3171 LP  0  0  0  0  0  0  0  0  0  0  0  0  # atno 17343 bound_to 10162
  156.0118  130.5210  150.8012 LP  0  0  0  0  0  0  0  0  0  0  0  0  # atno 17370 bound_to 10713
  157.5283  131.0935  150.9989 LP  0  0  0  0  0  0  0  0  0  0  0  0  # atno 17371 bound_to 10713
  140.8599  134.2853  157.5239 LP  0  0  0  0  0  0  0  0  0  0  0  0  # atno 17394 bound_to 11000
  139.8711  134.9512  156.4079 LP  0  0  0  0  0  0  0  0  0  0  0  0  # atno 17395 bound_to 11000

$$$$
