AV-unprocessed.smi:1385|AV-procd|sdf|5628|dock8
  -GOLD-   22720 5243D 1   1.00000     0.00000
 Structure written by MMmdl.
 38 39  0  0  0  0  0  0  0  0  1 V2000
  143.5453  132.3488  150.4088 C   0  0  0  0  0  0  0  0  0  0  0  0
  144.1056  133.5682  151.0574 C   0  0  0  0  0  0  0  0  0  0  0  0
  143.3722  134.3820  151.8264 N   0  0  0  0  0  0  0  0  0  0  0  0
  144.1135  135.4448  152.3241 N   0  0  0  0  0  0  0  0  0  0  0  0
  145.3887  135.3997  151.9144 C   0  0  0  0  0  0  0  0  0  0  0  0
  146.3688  136.3615  152.2757 N   0  0  0  0  0  0  0  0  0  0  0  0
  146.2287  137.4354  153.0725 C   0  0  0  0  0  0  0  0  0  0  0  0
  145.1881  137.7715  153.6383 O   0  0  0  0  0  0  0  0  0  0  0  0
  147.3803  138.1143  153.1785 N   0  0  0  0  0  0  0  0  0  0  0  0
  147.5696  139.3301  153.9645 C   0  0  0  0  0  0  0  0  0  0  0  0
  149.0115  139.8485  153.8382 C   0  0  0  0  0  0  0  0  0  0  0  0
  149.2578  141.0491  154.7691 C   0  0  0  0  0  0  0  0  0  0  0  0
  148.9745  140.6889  156.1667 N   0  0  0  0  0  0  0  0  0  0  0  0
  149.2604  141.7985  157.1063 C   0  0  0  0  0  0  0  0  0  0  0  0
  150.7315  142.2257  157.1685 C   0  0  0  0  0  0  0  0  0  0  0  0
  151.0079  143.4989  156.8748 N   0  0  0  0  0  0  0  0  0  0  0  0
  151.6046  141.4152  157.4704 O   0  0  0  0  0  0  0  0  0  0  0  0
  147.5718  140.2858  156.3112 C   0  0  0  0  0  0  0  0  0  0  0  0
  147.2701  139.0511  155.4438 C   0  0  0  0  0  0  0  0  0  0  0  0
  145.7901  134.0423  150.8766 S   0  0  0  0  0  0  0  0  0  0  0  0
  142.4610  132.4249  150.3222 H   0  0  0  0  0  0  0  0  0  0  0  0
  143.7890  131.4678  151.0026 H   0  0  0  0  0  0  0  0  0  0  0  0
  143.9664  132.2270  149.4107 H   0  0  0  0  0  0  0  0  0  0  0  0
  147.2851  136.2148  151.8786 H   0  0  0  0  0  0  0  0  0  0  0  0
  148.1856  137.7673  152.6783 H   0  0  0  0  0  0  0  0  0  0  0  0
  146.8791  140.0994  153.6129 H   0  0  0  0  0  0  0  0  0  0  0  0
  149.7169  139.0524  154.0814 H   0  0  0  0  0  0  0  0  0  0  0  0
  149.2177  140.1378  152.8070 H   0  0  0  0  0  0  0  0  0  0  0  0
  150.2954  141.3603  154.6484 H   0  0  0  0  0  0  0  0  0  0  0  0
  148.6384  141.8951  154.4661 H   0  0  0  0  0  0  0  0  0  0  0  0
  148.6509  142.6664  156.8470 H   0  0  0  0  0  0  0  0  0  0  0  0
  148.9671  141.5054  158.1155 H   0  0  0  0  0  0  0  0  0  0  0  0
  151.9644  143.8217  156.8948 H   0  0  0  0  0  0  0  0  0  0  0  0
  150.2604  144.1303  156.6260 H   0  0  0  0  0  0  0  0  0  0  0  0
  147.3619  140.0419  157.3536 H   0  0  0  0  0  0  0  0  0  0  0  0
  146.9089  141.1096  156.0395 H   0  0  0  0  0  0  0  0  0  0  0  0
  146.2255  138.7627  155.5658 H   0  0  0  0  0  0  0  0  0  0  0  0
  147.8672  138.2079  155.7948 H   0  0  0  0  0  0  0  0  0  0  0  0
  1  2  1  0  0  0  0
  1 21  1  0  0  0  0
  1 22  1  0  0  0  0
  1 23  1  0  0  0  0
  2 20  1  0  0  0  0
  2  3  2  0  0  0  0
  3  4  1  0  0  0  0
  4  5  2  0  0  0  0
  5  6  1  0  0  0  0
  5 20  1  0  0  0  0
  6  7  1  0  0  0  0
  6 24  1  0  0  0  0
  7  8  2  0  0  0  0
  7  9  1  0  0  0  0
  9 10  1  0  0  0  0
  9 25  1  0  0  0  0
 10 19  1  0  0  0  0
 10 11  1  0  0  0  0
 10 26  1  0  0  0  0
 11 12  1  0  0  0  0
 11 27  1  0  0  0  0
 11 28  1  0  0  0  0
 12 13  1  0  0  0  0
 12 29  1  0  0  0  0
 12 30  1  0  0  0  0
 13 14  1  0  0  0  0
 13 18  1  0  0  0  0
 14 15  1  0  0  0  0
 14 31  1  0  0  0  0
 14 32  1  0  0  0  0
 15 16  1  0  0  0  0
 15 17  2  0  0  0  0
 16 33  1  0  0  0  0
 16 34  1  0  0  0  0
 18 19  1  0  0  0  0
 18 35  1  0  0  0  0
 18 36  1  0  0  0  0
 19 37  1  0  0  0  0
 19 38  1  0  0  0  0
M  END
> <s_m_source_file>
AV-unprocessed.smi

> <i_m_source_file_index>
1385

> <i_lp_mmshare_version>
43012

> <i_f3d_flags>
0

> <s_epik_input>
W0NIM11jMW5uYyhzMSlbTkhdQyg9TylbTkhdW0NIXTJbQ0gyXVtDSDJdTihbQ0gyXVtDSDJdMilbQ0gyXUMoPU8pW05IMl0=

> <s_epik_cmdline>
J2VwaWtfcHl0aG9uJywgJy1waCcsICc3LjAnLCAnLXRuJywgJzgnLCAnLW1hJywgJzIwMCcsICctbWV0YWxfYmluZGluZycsICctaW1hZScsICc8aW5maWxlLm1hZT4nLCAnLW9tYWUnLCAnPG91dGZpbGUubWFlPic=

> <r_lp_tautomer_probability>
1

> <r_epik_Ionization_Penalty>
0.159363

> <r_epik_Ionization_Penalty_Charging>
0

> <r_epik_Ionization_Penalty_Neutral>
0.159363

> <r_epik_State_Penalty>
0.146692

> <r_epik_Charging_Adjusted_Penalty>
0.146692

> <i_epik_Tot_Q>
0

> <i_epik_Tot_abs_Q>
0

> <r_epik_Metal_State_Penalty>
0.501772

> <b_epik_Metal_Only>
0

> <s_lp_Force_Field>
OPLS_2005

> <r_lp_Energy>
10.053

> <b_lp_Chiralities_Consistent>
1

> <s_lp_Variant>
AV-unprocessed.smi:1385-1

> <Gold.Version>
5.8.1

> <Gold.Id.Protein>
6NUR|6NUR_protein|mol2

> <Gold.PLP.Fitness>
33.5917

> <Gold.PLP.PLP>
-24.8822

> <Gold.PLP.part.hbond>
-3.0000

> <Gold.PLP.part.metal>
0.0000

> <Gold.PLP.part.buried>
-3.3696

> <Gold.PLP.part.nonpolar>
-20.0119

> <Gold.PLP.part.repulsive>
0.6163

> <Gold.PLP.ligand.clash>
0.0000

> <Gold.PLP.ligand.torsion>
0.0168

> <Gold.PLP.Chemscore.Hbond>
2.9120

> <Gold.PLP.Chemscore.CHOScore>
0.0000

> <Gold.PLP.Chemscore.Metal>
0.0000

> <Gold.Chemscore.Hbonds>
donor molecule, donor type, donor heavy atom, donor atom, acceptor molecule, acceptor atom, score
      L1  H     6    24       P1  7948  1.00
      L1  H     9    25       P1  7948  0.91
      L1  H    16    34       P1  8028  1.00

> <Gold.PLP.Chemscore.Internal.Correction>
0.0071

> <Gold.Rescore>
     Score         DG    S(hbond)    S(metal)    S(lipo)     H(rot)  DE(clash)    DE(int)     intcor
     13.24     -15.66       2.91        0.00      48.53       2.04       1.10       1.32       ----

> <Gold.Chemscore.Fitness>
13.2380

> <Gold.Chemscore.DG>
-15.6574

> <Gold.Chemscore.ZeroCoef>
-5.4800

> <Gold.Chemscore.Hbond>
2.9113

> <Gold.Chemscore.Metal>
0.0000

> <Gold.Chemscore.Lipo>
48.5285

> <Gold.Chemscore.Internal_Hbond>
0.0000

> <Gold.Chemscore.DEClash>
1.0985

> <Gold.Chemscore.DEInternal>
1.3209

> <Gold.Chemscore.Rot>
2.0407

> <Gold.Chemscore.Internal.Correction>
   9.000000E+99

> <Gold.Chemscore.Hbonds>
donor molecule, donor type, donor heavy atom, donor atom, acceptor molecule, acceptor atom, score
      L1  H     6    24       P1  7948  0.99
      L1  H     9    25       P1  7948  0.88
      L1  H    16    34       P1  8028  0.99

> <Gold.Chemscore.Hbond.Weighted>
-9.7239

> <Gold.Chemscore.Metal.Weighted>
-0.0000

> <Gold.Chemscore.Lipo.Weighted>
-5.6778

> <Gold.Chemscore.Internal_Hbond.Weighted>
0.0000

> <Gold.Chemscore.DEClash.Weighted>
1.0985

> <Gold.Chemscore.DEInternal.Weighted>
1.3209

> <Gold.Chemscore.Rot.Weighted>
5.2243

> <Gold.Chemscore.Internal.Correction.Weighted>
   9.000000E+99

> <Gold.Protein.RotatedTorsions>
[ 6907 6896 6895 6894 ] final  133.12 input  -60.11 | X-H torsion
[ 7974 7965 7964 7962 ] final  110.06 input  175.53 | X-H torsion
[ 8008 7997 7996 7995 ] final   27.61 input   59.86 | X-H torsion
[ 10167 10162 10161 10158 ] final -165.43 input  -65.29 | X-H torsion
[ 10718 10713 10712 10709 ] final -108.68 input   66.30 | X-H torsion
[ 10763 10752 10751 10750 ] final   91.93 input  -60.55 | X-H torsion
[ 11005 11000 10999 10996 ] final  101.96 input  -57.11 | X-H torsion

> <Gold.Protein.ActiveResidues>
 VAL166  LYS551  ARG553  GLY616  TRP617  ASP618  TYR619  PRO620  LYS621  CYS622 
 ASP623  PHE694  ASN695  SER759  ASP760  ASP761  ALA762  ILE779  LEU786  VAL792 
 PHE793  MET794  SER795  GLU796  ALA797  LYS798  CYS799  TRP800  GLU811  SER814 

> <Gold.Protein.RotatedAtoms>
  152.3253  133.5898  159.5771 H   0  0  0  0  0  0  0  0  0  0  0  0  # atno 6907 bound_to 6896
  150.7393  133.9950  159.3628 H   0  0  0  0  0  0  0  0  0  0  0  0  # atno 6908 bound_to 6896
  151.7830  135.0757  160.0427 H   0  0  0  0  0  0  0  0  0  0  0  0  # atno 6909 bound_to 6896
  145.2599  139.2706  143.4023 H   0  0  0  0  0  0  0  0  0  0  0  0  # atno 7974 bound_to 7965
  155.0456  140.3174  155.4709 H   0  0  0  0  0  0  0  0  0  0  0  0  # atno 8008 bound_to 7997
  156.2845  140.2155  156.5524 H   0  0  0  0  0  0  0  0  0  0  0  0  # atno 8009 bound_to 7997
  154.7253  140.0486  157.0665 H   0  0  0  0  0  0  0  0  0  0  0  0  # atno 8010 bound_to 7997
  139.6183  144.0676  152.1908 H   0  0  0  0  0  0  0  0  0  0  0  0  # atno 10167 bound_to 10162
  156.0498  130.5725  150.7995 H   0  0  0  0  0  0  0  0  0  0  0  0  # atno 10718 bound_to 10713
  153.2137  135.4379  155.0409 H   0  0  0  0  0  0  0  0  0  0  0  0  # atno 10763 bound_to 10752
  154.8213  135.3339  154.7031 H   0  0  0  0  0  0  0  0  0  0  0  0  # atno 10764 bound_to 10752
  153.7467  135.7001  153.5010 H   0  0  0  0  0  0  0  0  0  0  0  0  # atno 10765 bound_to 10752
  139.8775  134.9204  156.4985 H   0  0  0  0  0  0  0  0  0  0  0  0  # atno 11005 bound_to 11000
  146.3278  140.3013  142.8621 LP  0  0  0  0  0  0  0  0  0  0  0  0  # atno 17320 bound_to 7965
  144.9428  140.8096  143.5620 LP  0  0  0  0  0  0  0  0  0  0  0  0  # atno 17321 bound_to 7965
  140.0311  144.6080  150.7487 LP  0  0  0  0  0  0  0  0  0  0  0  0  # atno 17342 bound_to 10162
  140.7365  143.2754  151.3758 LP  0  0  0  0  0  0  0  0  0  0  0  0  # atno 17343 bound_to 10162
  157.5413  131.0941  150.9824 LP  0  0  0  0  0  0  0  0  0  0  0  0  # atno 17370 bound_to 10713
  157.0106  130.5635  149.5320 LP  0  0  0  0  0  0  0  0  0  0  0  0  # atno 17371 bound_to 10713
  140.8606  133.8062  155.9262 LP  0  0  0  0  0  0  0  0  0  0  0  0  # atno 17394 bound_to 11000
  140.9053  134.2328  157.5018 LP  0  0  0  0  0  0  0  0  0  0  0  0  # atno 17395 bound_to 11000

$$$$
