AV-unprocessed.smi:3020|AV-procd|sdf|11497|dock10
  -GOLD-   2272016433D 1   1.00000     0.00000
 Structure written by MMmdl.
 28 29  0  0  0  0  0  0  0  0  1 V2000
  153.5688  139.5821  158.3692 O   0  0  0  0  0  0  0  0  0  0  0  0
  152.5422  140.2552  158.4586 C   0  0  0  0  0  0  0  0  0  0  0  0
  152.3830  141.2253  159.6294 C   0  0  0  0  0  0  0  0  0  0  0  0
  151.1586  141.9307  159.4933 O   0  0  0  0  0  0  0  0  0  0  0  0
  151.2828  143.0864  158.6833 C   0  0  0  0  0  0  0  0  0  0  0  0
  152.1777  144.0845  159.3858 C   0  0  0  0  0  0  0  0  0  0  0  0
  151.9316  144.4574  160.8303 C   0  0  0  0  0  0  0  0  0  0  0  0
  151.6603  145.4607  159.7381 C   0  0  0  0  0  0  0  0  0  0  0  0
  151.5255  140.2214  157.5766 N   0  0  0  0  0  0  0  0  0  0  0  0
  151.4039  139.4260  156.4074 C   0  0  0  0  0  0  0  0  0  0  0  0
  152.1851  138.2464  156.3831 C   0  0  0  0  0  0  0  0  0  0  0  0
  152.1765  137.3870  155.3400 N   0  0  0  0  0  0  0  0  0  0  0  0
  151.3754  137.7065  154.3013 C   0  0  0  0  0  0  0  0  0  0  0  0
  150.5900  138.8765  154.3081 C   0  0  0  0  0  0  0  0  0  0  0  0
  150.6036  139.7313  155.3540 N   0  0  0  0  0  0  0  0  0  0  0  0
  152.3983  140.6724  160.5702 H   0  0  0  0  0  0  0  0  0  0  0  0
  153.2259  141.9181  159.6333 H   0  0  0  0  0  0  0  0  0  0  0  0
  151.7248  142.8304  157.7193 H   0  0  0  0  0  0  0  0  0  0  0  0
  150.3038  143.5321  158.4979 H   0  0  0  0  0  0  0  0  0  0  0  0
  153.2192  144.0369  159.0727 H   0  0  0  0  0  0  0  0  0  0  0  0
  151.0726  144.0136  161.3297 H   0  0  0  0  0  0  0  0  0  0  0  0
  152.8031  144.6225  161.4607 H   0  0  0  0  0  0  0  0  0  0  0  0
  152.3501  146.2966  159.6411 H   0  0  0  0  0  0  0  0  0  0  0  0
  150.6200  145.6861  159.5117 H   0  0  0  0  0  0  0  0  0  0  0  0
  150.7447  140.8304  157.7744 H   0  0  0  0  0  0  0  0  0  0  0  0
  152.8275  137.9860  157.2119 H   0  0  0  0  0  0  0  0  0  0  0  0
  151.3603  137.0269  153.4621 H   0  0  0  0  0  0  0  0  0  0  0  0
  149.9508  139.1273  153.4747 H   0  0  0  0  0  0  0  0  0  0  0  0
  1  2  2  0  0  0  0
  2  3  1  0  0  0  0
  2  9  1  0  0  0  0
  3  4  1  0  0  0  0
  3 16  1  0  0  0  0
  3 17  1  0  0  0  0
  4  5  1  0  0  0  0
  5  6  1  0  0  0  0
  5 18  1  0  0  0  0
  5 19  1  0  0  0  0
  6  8  1  0  0  0  0
  6  7  1  0  0  0  0
  6 20  1  0  0  0  0
  7  8  1  0  0  0  0
  7 21  1  0  0  0  0
  7 22  1  0  0  0  0
  8 23  1  0  0  0  0
  8 24  1  0  0  0  0
  9 10  1  0  0  0  0
  9 25  1  0  0  0  0
 10 15  1  0  0  0  0
 10 11  2  0  0  0  0
 11 12  1  0  0  0  0
 11 26  1  0  0  0  0
 12 13  2  0  0  0  0
 13 14  1  0  0  0  0
 13 27  1  0  0  0  0
 14 15  2  0  0  0  0
 14 28  1  0  0  0  0
M  END
> <s_m_source_file>
AV-unprocessed.smi

> <i_m_source_file_index>
3020

> <i_lp_mmshare_version>
43012

> <i_f3d_flags>
0

> <s_epik_input>
W0NIMl0xW0NIMl1bQ0hdMVtDSDJdT1tDSDJdQyg9TylbTkhdYzJbY0hdbltjSF1bY0hdbjI=

> <s_epik_cmdline>
J2VwaWtfcHl0aG9uJywgJy1waCcsICc3LjAnLCAnLXRuJywgJzgnLCAnLW1hJywgJzIwMCcsICctbWV0YWxfYmluZGluZycsICctaW1hZScsICc8aW5maWxlLm1hZT4nLCAnLW9tYWUnLCAnPG91dGZpbGUubWFlPic=

> <r_lp_tautomer_probability>
1

> <r_epik_Ionization_Penalty>
2.93955e-06

> <r_epik_Ionization_Penalty_Charging>
0

> <r_epik_Ionization_Penalty_Neutral>
2.93955e-06

> <r_epik_State_Penalty>
-0

> <r_epik_Charging_Adjusted_Penalty>
0

> <i_epik_Tot_Q>
0

> <i_epik_Tot_abs_Q>
0

> <r_epik_Metal_State_Penalty>
-0

> <b_epik_Metal_Only>
0

> <s_lp_Force_Field>
OPLS_2005

> <r_lp_Energy>
21.027

> <b_lp_Chiralities_Consistent>
1

> <s_lp_Variant>
AV-unprocessed.smi:3020-1

> <Gold.Version>
5.8.1

> <Gold.Id.Protein>
6NUR|6NUR_protein|mol2

> <Gold.PLP.Fitness>
42.2094

> <Gold.PLP.PLP>
-31.5868

> <Gold.PLP.part.hbond>
-2.4449

> <Gold.PLP.part.metal>
0.0000

> <Gold.PLP.part.buried>
-4.5436

> <Gold.PLP.part.nonpolar>
-25.3333

> <Gold.PLP.part.repulsive>
0.1467

> <Gold.PLP.ligand.clash>
0.0000

> <Gold.PLP.ligand.torsion>
0.6785

> <Gold.PLP.Chemscore.Hbond>
1.8089

> <Gold.PLP.Chemscore.CHOScore>
2.0000

> <Gold.PLP.Chemscore.Metal>
0.0000

> <Gold.Chemscore.Hbonds>
donor molecule, donor type, donor heavy atom, donor atom, acceptor molecule, acceptor atom, score
      P1  H  7997  8008       L1     1  1.00
      P1  H 10752 10764       L1    12  0.71
      L1  C    13    27       P1  7949  1.00
      L1  C    14    28       P1  7957  1.00

> <Gold.PLP.Chemscore.Internal.Correction>
0.5531

> <Gold.Rescore>
     Score         DG    S(hbond)    S(metal)    S(lipo)     H(rot)  DE(clash)    DE(int)     intcor
     13.50     -15.73       1.61        0.00      79.95       1.75       0.06       2.18       ----

> <Gold.Chemscore.Fitness>
13.4963

> <Gold.Chemscore.DG>
-15.7297

> <Gold.Chemscore.ZeroCoef>
-5.4800

> <Gold.Chemscore.Hbond>
1.6086

> <Gold.Chemscore.Metal>
0.0000

> <Gold.Chemscore.Lipo>
79.9467

> <Gold.Chemscore.Internal_Hbond>
0.0000

> <Gold.Chemscore.DEClash>
0.0580

> <Gold.Chemscore.DEInternal>
2.1754

> <Gold.Chemscore.Rot>
1.7487

> <Gold.Chemscore.Internal.Correction>
   9.000000E+99

> <Gold.Chemscore.Hbonds>
donor molecule, donor type, donor heavy atom, donor atom, acceptor molecule, acceptor atom, score
      P1  H  7997  8008       L1     1  0.98
      P1  H 10752 10764       L1    12  0.20

> <Gold.Chemscore.Hbond.Weighted>
-5.3726

> <Gold.Chemscore.Metal.Weighted>
-0.0000

> <Gold.Chemscore.Lipo.Weighted>
-9.3538

> <Gold.Chemscore.Internal_Hbond.Weighted>
0.0000

> <Gold.Chemscore.DEClash.Weighted>
0.0580

> <Gold.Chemscore.DEInternal.Weighted>
2.1754

> <Gold.Chemscore.Rot.Weighted>
4.4767

> <Gold.Chemscore.Internal.Correction.Weighted>
   9.000000E+99

> <Gold.Protein.RotatedTorsions>
[ 6907 6896 6895 6894 ] final -122.70 input  -60.11 | X-H torsion
[ 7974 7965 7964 7962 ] final    9.50 input  175.53 | X-H torsion
[ 8008 7997 7996 7995 ] final -104.27 input   59.86 | X-H torsion
[ 10167 10162 10161 10158 ] final  152.05 input  -65.29 | X-H torsion
[ 10718 10713 10712 10709 ] final -165.19 input   66.30 | X-H torsion
[ 10763 10752 10751 10750 ] final  -53.23 input  -60.55 | X-H torsion
[ 11005 11000 10999 10996 ] final   20.17 input  -57.11 | X-H torsion

> <Gold.Protein.ActiveResidues>
 VAL166  LYS551  ARG553  GLY616  TRP617  ASP618  TYR619  PRO620  LYS621  CYS622 
 ASP623  PHE694  ASN695  SER759  ASP760  ASP761  ALA762  ILE779  LEU786  VAL792 
 PHE793  MET794  SER795  GLU796  ALA797  LYS798  CYS799  TRP800  GLU811  SER814 

> <Gold.Protein.RotatedAtoms>
  150.8601  133.7657  159.2995 H   0  0  0  0  0  0  0  0  0  0  0  0  # atno 6907 bound_to 6896
  151.5301  135.1066  159.9910 H   0  0  0  0  0  0  0  0  0  0  0  0  # atno 6908 bound_to 6896
  152.4620  133.7797  159.6900 H   0  0  0  0  0  0  0  0  0  0  0  0  # atno 6909 bound_to 6896
  146.2402  139.9774  142.8440 H   0  0  0  0  0  0  0  0  0  0  0  0  # atno 7974 bound_to 7965
  154.8829  140.0418  157.1793 H   0  0  0  0  0  0  0  0  0  0  0  0  # atno 8008 bound_to 7997
  154.8621  140.2945  155.5512 H   0  0  0  0  0  0  0  0  0  0  0  0  # atno 8009 bound_to 7997
  156.2998  140.2445  156.3597 H   0  0  0  0  0  0  0  0  0  0  0  0  # atno 8010 bound_to 7997
  139.4835  144.5390  151.7597 H   0  0  0  0  0  0  0  0  0  0  0  0  # atno 10167 bound_to 10162
  156.6499  130.9003  151.3011 H   0  0  0  0  0  0  0  0  0  0  0  0  # atno 10718 bound_to 10713
  154.1555  135.6483  153.4973 H   0  0  0  0  0  0  0  0  0  0  0  0  # atno 10763 bound_to 10752
  153.0125  135.5348  154.6764 H   0  0  0  0  0  0  0  0  0  0  0  0  # atno 10764 bound_to 10752
  154.6064  135.2949  155.0452 H   0  0  0  0  0  0  0  0  0  0  0  0  # atno 10765 bound_to 10752
  140.4055  134.1673  155.7665 H   0  0  0  0  0  0  0  0  0  0  0  0  # atno 11005 bound_to 11000
  145.1623  140.9679  143.4370 LP  0  0  0  0  0  0  0  0  0  0  0  0  # atno 17320 bound_to 7965
  145.0104  139.3515  143.6123 LP  0  0  0  0  0  0  0  0  0  0  0  0  # atno 17321 bound_to 7965
  140.4926  144.1287  150.5953 LP  0  0  0  0  0  0  0  0  0  0  0  0  # atno 17342 bound_to 10162
  140.4153  143.2637  151.9782 LP  0  0  0  0  0  0  0  0  0  0  0  0  # atno 17343 bound_to 10162
  157.7144  130.9479  150.1203 LP  0  0  0  0  0  0  0  0  0  0  0  0  # atno 17370 bound_to 10713
  156.2092  130.3665  149.8691 LP  0  0  0  0  0  0  0  0  0  0  0  0  # atno 17371 bound_to 10713
  141.1841  133.8352  157.1153 LP  0  0  0  0  0  0  0  0  0  0  0  0  # atno 17394 bound_to 11000
  140.0305  134.9903  157.0771 LP  0  0  0  0  0  0  0  0  0  0  0  0  # atno 17395 bound_to 11000

$$$$
