AV-unprocessed.smi:1331|AV-procd|sdf|5487|dock6
  -GOLD-   22720 5 63D 1   1.00000     0.00000
 Structure written by MMmdl.
 38 39  0  0  0  0  0  0  0  0  1 V2000
  152.4238  137.4003  156.5020 C   0  0  0  0  0  0  0  0  0  0  0  0
  151.4291  138.5369  156.2228 C   0  0  2  0  0  0  0  0  0  0  0  0
  151.1436  138.6872  154.7163 C   0  0  0  0  0  0  0  0  0  0  0  0
  150.0062  139.5530  154.4565 N   0  0  0  0  0  0  0  0  0  0  0  0
  148.7983  139.2273  153.8768 C   0  0  0  0  0  0  0  0  0  0  0  0
  148.0396  140.3624  153.8541 C   0  0  0  0  0  0  0  0  0  0  0  0
  148.8805  141.3431  154.4506 C   0  0  0  0  0  0  0  0  0  0  0  0
  150.0573  140.8562  154.8091 N   0  0  0  0  0  0  0  0  0  0  0  0
  151.9482  139.7922  156.7608 N   0  0  0  0  0  0  0  0  0  0  0  0
  151.3593  140.5391  157.7067 C   0  0  0  0  0  0  0  0  0  0  0  0
  150.3124  140.2169  158.2695 O   0  0  0  0  0  0  0  0  0  0  0  0
  152.0592  141.8562  158.0658 C   0  0  0  0  0  0  0  0  0  0  0  0
  152.3854  141.9205  159.5733 C   0  0  0  0  0  0  0  0  0  0  0  0
  153.0710  143.2466  159.9406 C   0  0  0  0  0  0  0  0  0  0  0  0
  152.2154  144.4511  159.5175 C   0  0  0  0  0  0  0  0  0  0  0  0
  151.8786  144.3945  158.0190 C   0  0  0  0  0  0  0  0  0  0  0  0
  151.1961  143.0669  157.6505 C   0  0  0  0  0  0  0  0  0  0  0  0
  152.0491  136.4498  156.1219 H   0  0  0  0  0  0  0  0  0  0  0  0
  152.5949  137.2800  157.5725 H   0  0  0  0  0  0  0  0  0  0  0  0
  153.3879  137.5912  156.0295 H   0  0  0  0  0  0  0  0  0  0  0  0
  150.4875  138.2903  156.7174 H   0  0  0  0  0  0  0  0  0  0  0  0
  152.0191  139.0764  154.1937 H   0  0  0  0  0  0  0  0  0  0  0  0
  150.9275  137.7127  154.2767 H   0  0  0  0  0  0  0  0  0  0  0  0
  148.5812  138.2256  153.5360 H   0  0  0  0  0  0  0  0  0  0  0  0
  147.0363  140.4747  153.4713 H   0  0  0  0  0  0  0  0  0  0  0  0
  148.6720  142.3872  154.6322 H   0  0  0  0  0  0  0  0  0  0  0  0
  152.8043  140.1394  156.3527 H   0  0  0  0  0  0  0  0  0  0  0  0
  153.0002  141.9058  157.5143 H   0  0  0  0  0  0  0  0  0  0  0  0
  151.4725  141.8152  160.1621 H   0  0  0  0  0  0  0  0  0  0  0  0
  153.0308  141.0871  159.8536 H   0  0  0  0  0  0  0  0  0  0  0  0
  153.2592  143.2830  161.0140 H   0  0  0  0  0  0  0  0  0  0  0  0
  154.0457  143.3014  159.4541 H   0  0  0  0  0  0  0  0  0  0  0  0
  151.2927  144.4650  160.0987 H   0  0  0  0  0  0  0  0  0  0  0  0
  152.7398  145.3792  159.7468 H   0  0  0  0  0  0  0  0  0  0  0  0
  151.2320  145.2309  157.7518 H   0  0  0  0  0  0  0  0  0  0  0  0
  152.7917  144.5104  157.4340 H   0  0  0  0  0  0  0  0  0  0  0  0
  151.0063  143.0411  156.5764 H   0  0  0  0  0  0  0  0  0  0  0  0
  150.2205  143.0188  158.1372 H   0  0  0  0  0  0  0  0  0  0  0  0
  1  2  1  0  0  0  0
  1 18  1  0  0  0  0
  1 19  1  0  0  0  0
  1 20  1  0  0  0  0
  2  3  1  0  0  0  0
  2  9  1  0  0  0  0
  2 21  1  0  0  0  0
  3  4  1  0  0  0  0
  3 22  1  0  0  0  0
  3 23  1  0  0  0  0
  4  8  1  0  0  0  0
  4  5  1  0  0  0  0
  5  6  2  0  0  0  0
  5 24  1  0  0  0  0
  6  7  1  0  0  0  0
  6 25  1  0  0  0  0
  7  8  2  0  0  0  0
  7 26  1  0  0  0  0
  9 10  1  0  0  0  0
  9 27  1  0  0  0  0
 10 11  2  0  0  0  0
 10 12  1  0  0  0  0
 12 17  1  0  0  0  0
 12 13  1  0  0  0  0
 12 28  1  0  0  0  0
 13 14  1  0  0  0  0
 13 29  1  0  0  0  0
 13 30  1  0  0  0  0
 14 15  1  0  0  0  0
 14 31  1  0  0  0  0
 14 32  1  0  0  0  0
 15 16  1  0  0  0  0
 15 33  1  0  0  0  0
 15 34  1  0  0  0  0
 16 17  1  0  0  0  0
 16 35  1  0  0  0  0
 16 36  1  0  0  0  0
 17 37  1  0  0  0  0
 17 38  1  0  0  0  0
M  END
> <s_m_source_file>
AV-unprocessed.smi

> <i_m_source_file_index>
1331

> <i_lp_mmshare_version>
43012

> <i_f3d_flags>
0

> <s_epik_input>
bjFbY0hdW2NIXVtjSF1uMVtDSDJdW0NAQEhdKFtDSDNdKVtOSF1DKD1PKVtDSF0yW0NIMl1bQ0gyXVtDSDJdW0NIMl1bQ0gyXTI=

> <s_epik_cmdline>
J2VwaWtfcHl0aG9uJywgJy1waCcsICc3LjAnLCAnLXRuJywgJzgnLCAnLW1hJywgJzIwMCcsICctbWV0YWxfYmluZGluZycsICctaW1hZScsICc8aW5maWxlLm1hZT4nLCAnLW9tYWUnLCAnPG91dGZpbGUubWFlPic=

> <r_lp_tautomer_probability>
1

> <r_epik_Ionization_Penalty>
0.000326658

> <r_epik_Ionization_Penalty_Charging>
0

> <r_epik_Ionization_Penalty_Neutral>
0.000326658

> <r_epik_State_Penalty>
-0

> <r_epik_Charging_Adjusted_Penalty>
0

> <i_epik_Tot_Q>
0

> <i_epik_Tot_abs_Q>
0

> <r_epik_Metal_State_Penalty>
-0

> <b_epik_Metal_Only>
0

> <s_lp_Force_Field>
OPLS_2005

> <r_lp_Energy>
10.6365

> <b_lp_Chiralities_Consistent>
1

> <s_lp_Variant>
AV-unprocessed.smi:1331-1

> <Gold.Version>
5.8.1

> <Gold.Id.Protein>
6NUR|6NUR_protein|mol2

> <Gold.PLP.Fitness>
42.5897

> <Gold.PLP.PLP>
-36.9658

> <Gold.PLP.part.hbond>
-1.0000

> <Gold.PLP.part.metal>
0.0000

> <Gold.PLP.part.buried>
-0.7769

> <Gold.PLP.part.nonpolar>
-34.5341

> <Gold.PLP.part.repulsive>
0.2304

> <Gold.PLP.ligand.clash>
0.0000

> <Gold.PLP.ligand.torsion>
0.1330

> <Gold.PLP.Chemscore.Hbond>
0.1504

> <Gold.PLP.Chemscore.CHOScore>
1.8000

> <Gold.PLP.Chemscore.Metal>
0.0000

> <Gold.Chemscore.Hbonds>
donor molecule, donor type, donor heavy atom, donor atom, acceptor molecule, acceptor atom, score
      P1  H  7989  7998       L1     8  0.11
      L1  C     5    24       P1  7948  0.79
      L1  C     7    26       P1  8028  0.98

> <Gold.PLP.Chemscore.Internal.Correction>
0.0386

> <Gold.Rescore>
     Score         DG    S(hbond)    S(metal)    S(lipo)     H(rot)  DE(clash)    DE(int)     intcor
     14.03     -14.26       0.00        0.00     107.52       1.49       0.08       0.15       ----

> <Gold.Chemscore.Fitness>
14.0289

> <Gold.Chemscore.DG>
-14.2604

> <Gold.Chemscore.ZeroCoef>
-5.4800

> <Gold.Chemscore.Hbond>
0.0045

> <Gold.Chemscore.Metal>
0.0000

> <Gold.Chemscore.Lipo>
107.5236

> <Gold.Chemscore.Internal_Hbond>
0.0000

> <Gold.Chemscore.DEClash>
0.0850

> <Gold.Chemscore.DEInternal>
0.1465

> <Gold.Chemscore.Rot>
1.4902

> <Gold.Chemscore.Internal.Correction>
   9.000000E+99

> <Gold.Chemscore.Hbond.Weighted>
-0.0150

> <Gold.Chemscore.Metal.Weighted>
-0.0000

> <Gold.Chemscore.Lipo.Weighted>
-12.5803

> <Gold.Chemscore.Internal_Hbond.Weighted>
0.0000

> <Gold.Chemscore.DEClash.Weighted>
0.0850

> <Gold.Chemscore.DEInternal.Weighted>
0.1465

> <Gold.Chemscore.Rot.Weighted>
3.8149

> <Gold.Chemscore.Internal.Correction.Weighted>
   9.000000E+99

> <Gold.Protein.RotatedTorsions>
[ 6907 6896 6895 6894 ] final   56.15 input  -60.11 | X-H torsion
[ 7974 7965 7964 7962 ] final   13.44 input  175.53 | X-H torsion
[ 8008 7997 7996 7995 ] final   93.81 input   59.86 | X-H torsion
[ 10167 10162 10161 10158 ] final -153.09 input  -65.29 | X-H torsion
[ 10718 10713 10712 10709 ] final  -70.49 input   66.30 | X-H torsion
[ 10763 10752 10751 10750 ] final   48.26 input  -60.55 | X-H torsion
[ 11005 11000 10999 10996 ] final   62.61 input  -57.11 | X-H torsion

> <Gold.Protein.ActiveResidues>
 VAL166  LYS551  ARG553  GLY616  TRP617  ASP618  TYR619  PRO620  LYS621  CYS622 
 ASP623  PHE694  ASN695  SER759  ASP760  ASP761  ALA762  ILE779  LEU786  VAL792 
 PHE793  MET794  SER795  GLU796  ALA797  LYS798  CYS799  TRP800  GLU811  SER814 

> <Gold.Protein.RotatedAtoms>
  152.3608  134.6875  160.0207 H   0  0  0  0  0  0  0  0  0  0  0  0  # atno 6907 bound_to 6896
  151.7198  133.3309  159.3320 H   0  0  0  0  0  0  0  0  0  0  0  0  # atno 6908 bound_to 6896
  150.7603  134.6392  159.6272 H   0  0  0  0  0  0  0  0  0  0  0  0  # atno 6909 bound_to 6896
  146.2329  139.9189  142.8513 H   0  0  0  0  0  0  0  0  0  0  0  0  # atno 7974 bound_to 7965
  156.0510  140.3308  155.7351 H   0  0  0  0  0  0  0  0  0  0  0  0  # atno 8008 bound_to 7997
  155.5601  140.0618  157.2848 H   0  0  0  0  0  0  0  0  0  0  0  0  # atno 8009 bound_to 7997
  154.4435  140.1879  156.0762 H   0  0  0  0  0  0  0  0  0  0  0  0  # atno 8010 bound_to 7997
  139.7126  143.9084  152.2474 H   0  0  0  0  0  0  0  0  0  0  0  0  # atno 10167 bound_to 10162
  156.0405  130.4332  150.2303 H   0  0  0  0  0  0  0  0  0  0  0  0  # atno 10718 bound_to 10713
  152.9793  135.5950  154.3897 H   0  0  0  0  0  0  0  0  0  0  0  0  # atno 10763 bound_to 10752
  154.3554  135.2767  155.2351 H   0  0  0  0  0  0  0  0  0  0  0  0  # atno 10764 bound_to 10752
  154.4372  135.6022  153.6161 H   0  0  0  0  0  0  0  0  0  0  0  0  # atno 10765 bound_to 10752
  140.0080  134.6340  155.9825 H   0  0  0  0  0  0  0  0  0  0  0  0  # atno 11005 bound_to 11000
  145.2156  140.9914  143.4075 LP  0  0  0  0  0  0  0  0  0  0  0  0  # atno 17320 bound_to 7965
  144.9653  139.3936  143.6335 LP  0  0  0  0  0  0  0  0  0  0  0  0  # atno 17321 bound_to 7965
  139.8958  144.6940  150.8720 LP  0  0  0  0  0  0  0  0  0  0  0  0  # atno 17342 bound_to 10162
  140.7736  143.3551  151.1936 LP  0  0  0  0  0  0  0  0  0  0  0  0  # atno 17343 bound_to 10162
  157.0398  131.0032  151.3287 LP  0  0  0  0  0  0  0  0  0  0  0  0  # atno 17370 bound_to 10713
  157.5217  130.8002  149.7817 LP  0  0  0  0  0  0  0  0  0  0  0  0  # atno 17371 bound_to 10713
  141.1691  133.6537  156.4585 LP  0  0  0  0  0  0  0  0  0  0  0  0  # atno 17394 bound_to 11000
  140.4606  134.6845  157.5083 LP  0  0  0  0  0  0  0  0  0  0  0  0  # atno 17395 bound_to 11000

$$$$
