AV-unprocessed.smi:1443|AV-procd|sdf|5878|dock2
  -GOLD-   22720 5553D 1   1.00000     0.00000
 Structure written by MMmdl.
 27 28  0  0  0  0  0  0  0  0  1 V2000
  143.2641  143.6807  162.1766 C   0  0  0  0  0  0  0  0  0  0  0  0
  145.0656  143.6904  162.3752 S   0  0  0  0  0  0  0  0  0  0  0  0
  145.7396  143.3634  160.7781 C   0  0  0  0  0  0  0  0  0  0  0  0
  144.9264  143.0851  159.7434 N   0  0  0  0  0  0  0  0  0  0  0  0
  145.8727  142.8343  158.3663 S   0  0  0  0  0  0  0  0  0  0  0  0
  147.3260  143.1274  159.2746 C   0  0  0  0  0  0  0  0  0  0  0  0
  148.6175  143.0854  158.6736 N   0  0  0  0  0  0  0  0  0  0  0  0
  149.7347  143.8061  158.9080 C   0  0  0  0  0  0  0  0  0  0  0  0
  149.7532  144.6812  159.7719 O   0  0  0  0  0  0  0  0  0  0  0  0
  150.8014  143.5085  158.1497 N   0  0  0  0  0  0  0  0  0  0  0  0
  152.0885  144.1196  158.2417 C   0  0  1  0  0  0  0  0  0  0  0  0
  152.4974  144.6655  159.5927 C   0  0  0  0  0  0  0  0  0  0  0  0
  153.1731  143.4336  159.0518 C   0  0  1  0  0  0  0  0  0  0  0  0
  152.9578  142.0827  159.7044 C   0  0  0  0  0  0  0  0  0  0  0  0
  147.0663  143.3920  160.5556 N   0  0  0  0  0  0  0  0  0  0  0  0
  142.7791  143.8251  163.1418 H   0  0  0  0  0  0  0  0  0  0  0  0
  142.9281  142.7317  161.7584 H   0  0  0  0  0  0  0  0  0  0  0  0
  142.9552  144.4869  161.5122 H   0  0  0  0  0  0  0  0  0  0  0  0
  148.7032  142.4192  157.9196 H   0  0  0  0  0  0  0  0  0  0  0  0
  150.6950  142.7776  157.4606 H   0  0  0  0  0  0  0  0  0  0  0  0
  152.4265  144.6930  157.3797 H   0  0  0  0  0  0  0  0  0  0  0  0
  153.0735  145.5886  159.6069 H   0  0  0  0  0  0  0  0  0  0  0  0
  151.8032  144.5401  160.4217 H   0  0  0  0  0  0  0  0  0  0  0  0
  154.1869  143.5719  158.6807 H   0  0  0  0  0  0  0  0  0  0  0  0
  151.9526  142.0017  160.1163 H   0  0  0  0  0  0  0  0  0  0  0  0
  153.6740  141.9411  160.5139 H   0  0  0  0  0  0  0  0  0  0  0  0
  153.0981  141.2874  158.9725 H   0  0  0  0  0  0  0  0  0  0  0  0
  1  2  1  0  0  0  0
  1 16  1  0  0  0  0
  1 17  1  0  0  0  0
  1 18  1  0  0  0  0
  2  3  1  0  0  0  0
  3 15  1  0  0  0  0
  3  4  2  0  0  0  0
  4  5  1  0  0  0  0
  5  6  1  0  0  0  0
  6  7  1  0  0  0  0
  6 15  2  0  0  0  0
  7  8  1  0  0  0  0
  7 19  1  0  0  0  0
  8  9  2  0  0  0  0
  8 10  1  0  0  0  0
 10 11  1  0  0  0  0
 10 20  1  0  0  0  0
 11 13  1  0  0  0  0
 11 12  1  0  0  0  0
 11 21  1  0  0  0  0
 12 13  1  0  0  0  0
 12 22  1  0  0  0  0
 12 23  1  0  0  0  0
 13 14  1  0  0  0  0
 13 24  1  0  0  0  0
 14 25  1  0  0  0  0
 14 26  1  0  0  0  0
 14 27  1  0  0  0  0
M  END
> <s_m_source_file>
AV-unprocessed.smi

> <i_m_source_file_index>
1443

> <i_lp_mmshare_version>
43012

> <i_f3d_flags>
0

> <s_epik_input>
W0NIM11TYzFuc2MobjEpW05IXUMoPU8pW05IXVtDQEBIXTJbQ0gyXVtDQEhdMltDSDNd

> <s_epik_cmdline>
J2VwaWtfcHl0aG9uJywgJy1waCcsICc3LjAnLCAnLXRuJywgJzgnLCAnLW1hJywgJzIwMCcsICctbWV0YWxfYmluZGluZycsICctaW1hZScsICc8aW5maWxlLm1hZT4nLCAnLW9tYWUnLCAnPG91dGZpbGUubWFlPic=

> <r_lp_tautomer_probability>
1

> <r_epik_Ionization_Penalty>
2.74658e-05

> <r_epik_Ionization_Penalty_Charging>
0

> <r_epik_Ionization_Penalty_Neutral>
2.74658e-05

> <r_epik_State_Penalty>
-0

> <r_epik_Charging_Adjusted_Penalty>
0

> <i_epik_Tot_Q>
0

> <i_epik_Tot_abs_Q>
0

> <r_epik_Metal_State_Penalty>
-0

> <b_epik_Metal_Only>
0

> <s_lp_Force_Field>
OPLS_2005

> <r_lp_Energy>
21.211

> <b_lp_Chiralities_Consistent>
1

> <s_lp_Variant>
AV-unprocessed.smi:1443-2

> <Gold.Version>
5.8.1

> <Gold.Id.Protein>
6NUR|6NUR_protein|mol2

> <Gold.PLP.Fitness>
32.4300

> <Gold.PLP.PLP>
-30.6188

> <Gold.PLP.part.hbond>
-1.3255

> <Gold.PLP.part.metal>
0.0000

> <Gold.PLP.part.buried>
-4.8313

> <Gold.PLP.part.nonpolar>
-24.8682

> <Gold.PLP.part.repulsive>
0.4111

> <Gold.PLP.ligand.clash>
0.0000

> <Gold.PLP.ligand.torsion>
0.6142

> <Gold.PLP.Chemscore.Hbond>
1.0000

> <Gold.PLP.Chemscore.CHOScore>
0.0000

> <Gold.PLP.Chemscore.Metal>
0.0000

> <Gold.Chemscore.Hbonds>
donor molecule, donor type, donor heavy atom, donor atom, acceptor molecule, acceptor atom, score
      P1  H  6933  6944       L1    15  1.00

> <Gold.PLP.Chemscore.Internal.Correction>
0.0396

> <Gold.Rescore>
     Score         DG    S(hbond)    S(metal)    S(lipo)     H(rot)  DE(clash)    DE(int)     intcor
     11.10     -13.45       0.92        0.00      69.67       1.27       0.06       2.29       ----

> <Gold.Chemscore.Fitness>
11.0964

> <Gold.Chemscore.DG>
-13.4525

> <Gold.Chemscore.ZeroCoef>
-5.4800

> <Gold.Chemscore.Hbond>
0.9196

> <Gold.Chemscore.Metal>
0.0000

> <Gold.Chemscore.Lipo>
69.6740

> <Gold.Chemscore.Internal_Hbond>
0.0000

> <Gold.Chemscore.DEClash>
0.0624

> <Gold.Chemscore.DEInternal>
2.2937

> <Gold.Chemscore.Rot>
1.2699

> <Gold.Chemscore.Internal.Correction>
   9.000000E+99

> <Gold.Chemscore.Hbonds>
donor molecule, donor type, donor heavy atom, donor atom, acceptor molecule, acceptor atom, score
      P1  H  6933  6944       L1    15  0.29

> <Gold.Chemscore.Hbond.Weighted>
-3.0715

> <Gold.Chemscore.Metal.Weighted>
-0.0000

> <Gold.Chemscore.Lipo.Weighted>
-8.1519

> <Gold.Chemscore.Internal_Hbond.Weighted>
0.0000

> <Gold.Chemscore.DEClash.Weighted>
0.0624

> <Gold.Chemscore.DEInternal.Weighted>
2.2937

> <Gold.Chemscore.Rot.Weighted>
3.2509

> <Gold.Chemscore.Internal.Correction.Weighted>
   9.000000E+99

> <Gold.Protein.RotatedTorsions>
[ 6907 6896 6895 6894 ] final -122.28 input  -60.11 | X-H torsion
[ 7974 7965 7964 7962 ] final -177.70 input  175.53 | X-H torsion
[ 8008 7997 7996 7995 ] final   62.02 input   59.86 | X-H torsion
[ 10167 10162 10161 10158 ] final   70.48 input  -65.29 | X-H torsion
[ 10718 10713 10712 10709 ] final -156.42 input   66.30 | X-H torsion
[ 10763 10752 10751 10750 ] final  -69.99 input  -60.55 | X-H torsion
[ 11005 11000 10999 10996 ] final  123.87 input  -57.11 | X-H torsion

> <Gold.Protein.ActiveResidues>
 VAL166  LYS551  ARG553  GLY616  TRP617  ASP618  TYR619  PRO620  LYS621  CYS622 
 ASP623  PHE694  ASN695  SER759  ASP760  ASP761  ALA762  ILE779  LEU786  VAL792 
 PHE793  MET794  SER795  GLU796  ALA797  LYS798  CYS799  TRP800  GLU811  SER814 

> <Gold.Protein.RotatedAtoms>
  150.8561  133.7713  159.3008 H   0  0  0  0  0  0  0  0  0  0  0  0  # atno 6907 bound_to 6896
  151.5370  135.1067  159.9926 H   0  0  0  0  0  0  0  0  0  0  0  0  # atno 6908 bound_to 6896
  152.4591  133.7740  159.6870 H   0  0  0  0  0  0  0  0  0  0  0  0  # atno 6909 bound_to 6896
  144.7128  140.0980  143.6418 H   0  0  0  0  0  0  0  0  0  0  0  0  # atno 7974 bound_to 7965
  155.6077  140.3494  155.4613 H   0  0  0  0  0  0  0  0  0  0  0  0  # atno 8008 bound_to 7997
  156.0179  140.1247  157.0412 H   0  0  0  0  0  0  0  0  0  0  0  0  # atno 8009 bound_to 7997
  154.4304  140.1068  156.5908 H   0  0  0  0  0  0  0  0  0  0  0  0  # atno 8010 bound_to 7997
  140.0565  144.5269  150.7325 H   0  0  0  0  0  0  0  0  0  0  0  0  # atno 10167 bound_to 10162
  156.5263  130.8501  151.2700 H   0  0  0  0  0  0  0  0  0  0  0  0  # atno 10718 bound_to 10713
  154.4113  135.6008  153.5955 H   0  0  0  0  0  0  0  0  0  0  0  0  # atno 10763 bound_to 10752
  152.9790  135.5930  154.4066 H   0  0  0  0  0  0  0  0  0  0  0  0  # atno 10764 bound_to 10752
  154.3879  135.2841  155.2151 H   0  0  0  0  0  0  0  0  0  0  0  0  # atno 10765 bound_to 10752
  139.9332  134.9641  156.8324 H   0  0  0  0  0  0  0  0  0  0  0  0  # atno 11005 bound_to 11000
  145.9562  139.2768  143.1183 LP  0  0  0  0  0  0  0  0  0  0  0  0  # atno 17320 bound_to 7965
  145.9270  140.9075  143.0376 LP  0  0  0  0  0  0  0  0  0  0  0  0  # atno 17321 bound_to 7965
  140.7192  143.2573  151.4333 LP  0  0  0  0  0  0  0  0  0  0  0  0  # atno 17342 bound_to 10162
  139.5920  144.1477  152.2100 LP  0  0  0  0  0  0  0  0  0  0  0  0  # atno 17343 bound_to 10162
  157.7429  130.9900  150.2550 LP  0  0  0  0  0  0  0  0  0  0  0  0  # atno 17370 bound_to 10713
  156.3102  130.3771  149.7669 LP  0  0  0  0  0  0  0  0  0  0  0  0  # atno 17371 bound_to 10713
  140.6145  134.0052  155.7591 LP  0  0  0  0  0  0  0  0  0  0  0  0  # atno 17394 bound_to 11000
  141.0933  133.9883  157.3202 LP  0  0  0  0  0  0  0  0  0  0  0  0  # atno 17395 bound_to 11000

$$$$
