AV-unprocessed.smi:2939|AV-procd|sdf|11261|dock4
  -GOLD-   2272016153D 1   1.00000     0.00000
 Structure written by MMmdl.
 30 31  0  0  0  0  0  0  0  0  2 V2000
  153.7820  134.4320  158.2975 O   0  0  0  0  0  0  0  0  0  0  0  0
  154.0523  135.6497  158.2096 C   0  0  0  0  0  0  0  0  0  0  0  0
  154.2371  136.2789  157.1450 O   0  5  0  0  0  0  0  0  0  0  0  0
  154.1646  136.4385  159.5176 C   0  0  0  0  0  0  0  0  0  0  0  0
  153.4368  137.6994  159.4789 N   0  0  0  0  0  0  0  0  0  0  0  0
  152.1066  137.6778  158.9856 C   0  0  0  0  0  0  0  0  0  0  0  0
  151.5181  136.6280  158.7234 O   0  0  0  0  0  0  0  0  0  0  0  0
  151.4924  138.9895  158.8174 C   0  0  0  0  0  0  0  0  0  0  0  0
  152.1753  140.1181  159.1037 C   0  0  0  0  0  0  0  0  0  0  0  0
  153.4780  140.1112  159.5620 N   0  0  0  0  0  0  0  0  0  0  0  0
  154.1936  141.3287  159.8512 C   0  0  0  0  0  0  0  0  0  0  0  0
  153.3345  142.5739  160.0367 C   0  0  0  0  0  0  0  0  0  0  0  0
  152.9287  142.9451  161.3358 C   0  0  0  0  0  0  0  0  0  0  0  0
  152.1303  144.0887  161.5326 C   0  0  0  0  0  0  0  0  0  0  0  0
  151.7280  144.8656  160.4294 C   0  0  0  0  0  0  0  0  0  0  0  0
  152.1233  144.4970  159.1294 C   0  0  0  0  0  0  0  0  0  0  0  0
  152.9221  143.3537  158.9324 C   0  0  0  0  0  0  0  0  0  0  0  0
  154.1591  138.8868  159.7545 C   0  0  0  0  0  0  0  0  0  0  0  0
  155.3284  138.8634  160.1495 O   0  0  0  0  0  0  0  0  0  0  0  0
  153.7972  135.8519  160.3612 H   0  0  0  0  0  0  0  0  0  0  0  0
  155.2079  136.6483  159.7587 H   0  0  0  0  0  0  0  0  0  0  0  0
  150.4774  139.0567  158.4546 H   0  0  0  0  0  0  0  0  0  0  0  0
  151.6792  141.0670  158.9597 H   0  0  0  0  0  0  0  0  0  0  0  0
  154.7542  141.1396  160.7674 H   0  0  0  0  0  0  0  0  0  0  0  0
  154.9291  141.4553  159.0539 H   0  0  0  0  0  0  0  0  0  0  0  0
  153.2330  142.3546  162.1877 H   0  0  0  0  0  0  0  0  0  0  0  0
  151.8264  144.3696  162.5303 H   0  0  0  0  0  0  0  0  0  0  0  0
  151.1158  145.7423  160.5801 H   0  0  0  0  0  0  0  0  0  0  0  0
  151.8137  145.0908  158.2822 H   0  0  0  0  0  0  0  0  0  0  0  0
  153.2149  143.0820  157.9291 H   0  0  0  0  0  0  0  0  0  0  0  0
  1  2  2  0  0  0  0
  2  3  1  0  0  0  0
  2  4  1  0  0  0  0
  4  5  1  0  0  0  0
  4 20  1  0  0  0  0
  4 21  1  0  0  0  0
  5 18  1  0  0  0  0
  5  6  1  0  0  0  0
  6  7  2  0  0  0  0
  6  8  1  0  0  0  0
  8  9  2  0  0  0  0
  8 22  1  0  0  0  0
  9 10  1  0  0  0  0
  9 23  1  0  0  0  0
 10 11  1  0  0  0  0
 10 18  1  0  0  0  0
 11 12  1  0  0  0  0
 11 24  1  0  0  0  0
 11 25  1  0  0  0  0
 12 17  1  0  0  0  0
 12 13  2  0  0  0  0
 13 14  1  0  0  0  0
 13 26  1  0  0  0  0
 14 15  2  0  0  0  0
 14 27  1  0  0  0  0
 15 16  1  0  0  0  0
 15 28  1  0  0  0  0
 16 17  2  0  0  0  0
 16 29  1  0  0  0  0
 17 30  1  0  0  0  0
 18 19  2  0  0  0  0
M  CHG  1   3  -1
M  END
> <s_m_source_file>
AV-unprocessed.smi

> <i_m_source_file_index>
2939

> <i_lp_mmshare_version>
43012

> <i_f3d_flags>
0

> <s_epik_input>
Tz1DKFtPSF0pW0NIMl1uMWMoPU8pW2NIXVtjSF1uKGMxPU8pW0NIMl1jMltjSF1bY0hdW2NIXVtjSF1bY0hdMg==

> <s_epik_cmdline>
J2VwaWtfcHl0aG9uJywgJy1waCcsICc3LjAnLCAnLXRuJywgJzgnLCAnLW1hJywgJzIwMCcsICctbWV0YWxfYmluZGluZycsICctaW1hZScsICc8aW5maWxlLm1hZT4nLCAnLW9tYWUnLCAnPG91dGZpbGUubWFlPic=

> <r_lp_tautomer_probability>
1

> <r_epik_Ionization_Penalty>
0.00125818

> <r_epik_Ionization_Penalty_Charging>
0.00125818

> <r_epik_Ionization_Penalty_Neutral>
0

> <r_epik_State_Penalty>
0.000832915

> <r_epik_Charging_Adjusted_Penalty>
0.00209109

> <i_epik_Tot_Q>
-1

> <i_epik_Tot_abs_Q>
1

> <r_epik_Metal_State_Penalty>
-0

> <b_epik_Metal_Only>
0

> <s_lp_Force_Field>
OPLS_2005

> <r_lp_Energy>
10.7616

> <b_lp_Chiralities_Consistent>
1

> <s_lp_Variant>
AV-unprocessed.smi:2939-1

> <Gold.Version>
5.8.1

> <Gold.Id.Protein>
6NUR|6NUR_protein|mol2

> <Gold.PLP.Fitness>
53.1980

> <Gold.PLP.PLP>
-41.7492

> <Gold.PLP.part.hbond>
-3.0000

> <Gold.PLP.part.metal>
0.0000

> <Gold.PLP.part.buried>
-5.2991

> <Gold.PLP.part.nonpolar>
-32.5846

> <Gold.PLP.part.repulsive>
0.0000

> <Gold.PLP.ligand.clash>
0.0000

> <Gold.PLP.ligand.torsion>
0.8256

> <Gold.PLP.Chemscore.Hbond>
4.3520

> <Gold.PLP.Chemscore.CHOScore>
0.0000

> <Gold.PLP.Chemscore.Metal>
0.0000

> <Gold.Chemscore.Hbonds>
donor molecule, donor type, donor heavy atom, donor atom, acceptor molecule, acceptor atom, score
      P1  H  6896  6907       L1     1  1.44
      P1  H  6896  6909       L1     7  0.77
      P1  H 10752 10765       L1     3  2.00

> <Gold.PLP.Chemscore.Internal.Correction>
0.0439

> <Gold.Rescore>
     Score         DG    S(hbond)    S(metal)    S(lipo)     H(rot)  DE(clash)    DE(int)     intcor
     18.14     -20.33       2.61        0.00      98.92       2.13       0.03       2.16       ----

> <Gold.Chemscore.Fitness>
18.1355

> <Gold.Chemscore.DG>
-20.3260

> <Gold.Chemscore.ZeroCoef>
-5.4800

> <Gold.Chemscore.Hbond>
2.6110

> <Gold.Chemscore.Metal>
0.0000

> <Gold.Chemscore.Lipo>
98.9179

> <Gold.Chemscore.Internal_Hbond>
0.0000

> <Gold.Chemscore.DEClash>
0.0261

> <Gold.Chemscore.DEInternal>
2.1643

> <Gold.Chemscore.Rot>
2.1282

> <Gold.Chemscore.Internal.Correction>
   9.000000E+99

> <Gold.Chemscore.Hbonds>
donor molecule, donor type, donor heavy atom, donor atom, acceptor molecule, acceptor atom, score
      P1  H  6896  6907       L1     1  0.59
      P1  H  6896  6909       L1     7  0.75
      P1  H 10752 10765       L1     3  0.91

> <Gold.Chemscore.Hbond.Weighted>
-8.7207

> <Gold.Chemscore.Metal.Weighted>
-0.0000

> <Gold.Chemscore.Lipo.Weighted>
-11.5734

> <Gold.Chemscore.Internal_Hbond.Weighted>
0.0000

> <Gold.Chemscore.DEClash.Weighted>
0.0261

> <Gold.Chemscore.DEInternal.Weighted>
2.1643

> <Gold.Chemscore.Rot.Weighted>
5.4481

> <Gold.Chemscore.Internal.Correction.Weighted>
   9.000000E+99

> <Gold.Protein.RotatedTorsions>
[ 6907 6896 6895 6894 ] final   99.92 input  -60.11 | X-H torsion
[ 7974 7965 7964 7962 ] final   59.21 input  175.53 | X-H torsion
[ 8008 7997 7996 7995 ] final    8.91 input   59.86 | X-H torsion
[ 10167 10162 10161 10158 ] final  150.32 input  -65.29 | X-H torsion
[ 10718 10713 10712 10709 ] final    1.48 input   66.30 | X-H torsion
[ 10763 10752 10751 10750 ] final  -84.34 input  -60.55 | X-H torsion
[ 11005 11000 10999 10996 ] final -149.74 input  -57.11 | X-H torsion

> <Gold.Protein.ActiveResidues>
 VAL166  LYS551  ARG553  GLY616  TRP617  ASP618  TYR619  PRO620  LYS621  CYS622 
 ASP623  PHE694  ASN695  SER759  ASP760  ASP761  ALA762  ILE779  LEU786  VAL792 
 PHE793  MET794  SER795  GLU796  ALA797  LYS798  CYS799  TRP800  GLU811  SER814 

> <Gold.Protein.RotatedAtoms>
  152.5382  134.0355  159.8043 H   0  0  0  0  0  0  0  0  0  0  0  0  # atno 6907 bound_to 6896
  151.0519  133.5609  159.2649 H   0  0  0  0  0  0  0  0  0  0  0  0  # atno 6908 bound_to 6896
  151.2540  135.0639  159.9127 H   0  0  0  0  0  0  0  0  0  0  0  0  # atno 6909 bound_to 6896
  145.9096  139.3644  143.0543 H   0  0  0  0  0  0  0  0  0  0  0  0  # atno 7974 bound_to 7965
  154.7731  140.2805  155.6122 H   0  0  0  0  0  0  0  0  0  0  0  0  # atno 8008 bound_to 7997
  156.2937  140.2637  156.2466 H   0  0  0  0  0  0  0  0  0  0  0  0  # atno 8009 bound_to 7997
  154.9875  140.0374  157.2295 H   0  0  0  0  0  0  0  0  0  0  0  0  # atno 8010 bound_to 7997
  139.4851  144.5531  151.7365 H   0  0  0  0  0  0  0  0  0  0  0  0  # atno 10167 bound_to 10162
  156.8488  130.5546  149.5671 H   0  0  0  0  0  0  0  0  0  0  0  0  # atno 10718 bound_to 10713
  154.5983  135.5524  153.7348 H   0  0  0  0  0  0  0  0  0  0  0  0  # atno 10763 bound_to 10752
  153.0144  135.6360  154.1750 H   0  0  0  0  0  0  0  0  0  0  0  0  # atno 10764 bound_to 10752
  154.1690  135.2893  155.3066 H   0  0  0  0  0  0  0  0  0  0  0  0  # atno 10765 bound_to 10752
  140.7475  134.3444  157.5133 H   0  0  0  0  0  0  0  0  0  0  0  0  # atno 11005 bound_to 11000
  145.8688  140.9432  143.0661 LP  0  0  0  0  0  0  0  0  0  0  0  0  # atno 17320 bound_to 7965
  144.6742  140.0627  143.7475 LP  0  0  0  0  0  0  0  0  0  0  0  0  # atno 17321 bound_to 7965
  140.5088  144.1056  150.5990 LP  0  0  0  0  0  0  0  0  0  0  0  0  # atno 17342 bound_to 10162
  140.3975  143.2721  151.9987 LP  0  0  0  0  0  0  0  0  0  0  0  0  # atno 17343 bound_to 10162
  156.0840  130.5843  150.9614 LP  0  0  0  0  0  0  0  0  0  0  0  0  # atno 17370 bound_to 10713
  157.6315  131.0920  150.8432 LP  0  0  0  0  0  0  0  0  0  0  0  0  # atno 17371 bound_to 10713
  139.8794  134.9121  156.3052 LP  0  0  0  0  0  0  0  0  0  0  0  0  # atno 17394 bound_to 11000
  140.9781  133.7285  156.0631 LP  0  0  0  0  0  0  0  0  0  0  0  0  # atno 17395 bound_to 11000

$$$$
