AV-unprocessed.smi:951|AV-procd|sdf|4254|dock8
  -GOLD-   22720 2163D 1   1.00000     0.00000
 Structure written by MMmdl.
 52 54  0  0  0  0  0  0  0  0  2 V2000
  152.5176  140.1461  156.4468 O   0  0  0  0  0  0  0  0  0  0  0  0
  152.0023  139.2610  157.1312 C   0  0  0  0  0  0  0  0  0  0  0  0
  151.4417  138.1579  156.6107 N   0  0  0  0  0  0  0  0  0  0  0  0
  151.3622  137.8385  155.1874 C   0  0  0  0  0  0  0  0  0  0  0  0
  149.9132  137.6220  154.7079 C   0  0  0  0  0  0  0  0  0  0  0  0
  149.2229  138.8900  154.2335 C   0  0  0  0  0  0  0  0  0  0  0  0
  149.3959  140.1269  154.8911 C   0  0  0  0  0  0  0  0  0  0  0  0
  148.7516  141.2740  154.3823 C   0  0  0  0  0  0  0  0  0  0  0  0
  147.9488  141.1605  153.2284 C   0  0  0  0  0  0  0  0  0  0  0  0
  147.8104  139.9011  152.6110 C   0  0  0  0  0  0  0  0  0  0  0  0
  148.4437  138.8259  153.1285 N   0  3  0  0  0  0  0  0  0  0  0  0
  152.0227  139.3535  158.6690 C   0  0  1  0  0  0  0  0  0  0  0  0
  152.8533  138.1914  159.2382 C   0  0  0  0  0  0  0  0  0  0  0  0
  153.4370  138.7304  160.5283 C   0  0  0  0  0  0  0  0  0  0  0  0
  153.5816  140.2321  160.2900 C   0  0  0  0  0  0  0  0  0  0  0  0
  152.6438  140.5772  159.2164 N   0  0  0  0  0  0  0  0  0  0  0  0
  152.3268  141.8479  158.8538 C   0  0  0  0  0  0  0  0  0  0  0  0
  151.4381  142.0823  158.0343 O   0  0  0  0  0  0  0  0  0  0  0  0
  153.0879  143.0369  159.4925 C   0  0  0  0  0  0  0  0  0  0  0  0
  152.4947  143.4310  160.8656 C   0  0  0  0  0  0  0  0  0  0  0  0
  151.1819  144.2253  160.7523 C   0  0  0  0  0  0  0  0  0  0  0  0
  151.3736  145.4815  159.8914 C   0  0  0  0  0  0  0  0  0  0  0  0
  151.8972  145.1212  158.4934 C   0  0  0  0  0  0  0  0  0  0  0  0
  153.1866  144.2771  158.5664 C   0  0  0  0  0  0  0  0  0  0  0  0
  151.0385  137.4882  157.2501 H   0  0  0  0  0  0  0  0  0  0  0  0
  151.8095  138.6625  154.6310 H   0  0  0  0  0  0  0  0  0  0  0  0
  151.9650  136.9586  154.9561 H   0  0  0  0  0  0  0  0  0  0  0  0
  149.9027  136.8919  153.8972 H   0  0  0  0  0  0  0  0  0  0  0  0
  149.3247  137.1833  155.5143 H   0  0  0  0  0  0  0  0  0  0  0  0
  150.0213  140.1993  155.7692 H   0  0  0  0  0  0  0  0  0  0  0  0
  148.8735  142.2299  154.8703 H   0  0  0  0  0  0  0  0  0  0  0  0
  147.4485  142.0274  152.8221 H   0  0  0  0  0  0  0  0  0  0  0  0
  147.2200  139.7226  151.7241 H   0  0  0  0  0  0  0  0  0  0  0  0
  151.0043  139.3021  159.0592 H   0  0  0  0  0  0  0  0  0  0  0  0
  152.2583  137.2913  159.3965 H   0  0  0  0  0  0  0  0  0  0  0  0
  153.6757  137.9265  158.5705 H   0  0  0  0  0  0  0  0  0  0  0  0
  152.7281  138.5610  161.3399 H   0  0  0  0  0  0  0  0  0  0  0  0
  154.3773  138.2521  160.8040 H   0  0  0  0  0  0  0  0  0  0  0  0
  153.3907  140.7900  161.2074 H   0  0  0  0  0  0  0  0  0  0  0  0
  154.5970  140.4541  159.9588 H   0  0  0  0  0  0  0  0  0  0  0  0
  154.1188  142.7284  159.6564 H   0  0  0  0  0  0  0  0  0  0  0  0
  152.3295  142.5441  161.4786 H   0  0  0  0  0  0  0  0  0  0  0  0
  153.2263  144.0322  161.4068 H   0  0  0  0  0  0  0  0  0  0  0  0
  150.3986  143.5991  160.3240 H   0  0  0  0  0  0  0  0  0  0  0  0
  150.8369  144.5090  161.7469 H   0  0  0  0  0  0  0  0  0  0  0  0
  150.4308  146.0227  159.8067 H   0  0  0  0  0  0  0  0  0  0  0  0
  152.0753  146.1571  160.3821 H   0  0  0  0  0  0  0  0  0  0  0  0
  151.1227  144.5906  157.9407 H   0  0  0  0  0  0  0  0  0  0  0  0
  152.0905  146.0338  157.9290 H   0  0  0  0  0  0  0  0  0  0  0  0
  153.9943  144.9143  158.9289 H   0  0  0  0  0  0  0  0  0  0  0  0
  153.4818  143.9737  157.5610 H   0  0  0  0  0  0  0  0  0  0  0  0
  148.3347  137.9256  152.6615 H   0  0  0  0  0  0  0  0  0  0  0  0
  1  2  2  0  0  0  0
  2  3  1  0  0  0  0
  2 12  1  0  0  0  0
  3  4  1  0  0  0  0
  3 25  1  0  0  0  0
  4  5  1  0  0  0  0
  4 26  1  0  0  0  0
  4 27  1  0  0  0  0
  5  6  1  0  0  0  0
  5 28  1  0  0  0  0
  5 29  1  0  0  0  0
  6 11  1  0  0  0  0
  6  7  2  0  0  0  0
  7  8  1  0  0  0  0
  7 30  1  0  0  0  0
  8  9  2  0  0  0  0
  8 31  1  0  0  0  0
  9 10  1  0  0  0  0
  9 32  1  0  0  0  0
 10 11  2  0  0  0  0
 10 33  1  0  0  0  0
 11 52  1  0  0  0  0
 12 16  1  0  0  0  0
 12 13  1  0  0  0  0
 12 34  1  0  0  0  0
 13 14  1  0  0  0  0
 13 35  1  0  0  0  0
 13 36  1  0  0  0  0
 14 15  1  0  0  0  0
 14 37  1  0  0  0  0
 14 38  1  0  0  0  0
 15 16  1  0  0  0  0
 15 39  1  0  0  0  0
 15 40  1  0  0  0  0
 16 17  1  0  0  0  0
 17 18  2  0  0  0  0
 17 19  1  0  0  0  0
 19 24  1  0  0  0  0
 19 20  1  0  0  0  0
 19 41  1  0  0  0  0
 20 21  1  0  0  0  0
 20 42  1  0  0  0  0
 20 43  1  0  0  0  0
 21 22  1  0  0  0  0
 21 44  1  0  0  0  0
 21 45  1  0  0  0  0
 22 23  1  0  0  0  0
 22 46  1  0  0  0  0
 22 47  1  0  0  0  0
 23 24  1  0  0  0  0
 23 48  1  0  0  0  0
 23 49  1  0  0  0  0
 24 50  1  0  0  0  0
 24 51  1  0  0  0  0
M  CHG  1  11   1
M  END
> <s_m_source_file>
AV-unprocessed.smi

> <i_m_source_file_index>
951

> <i_lp_mmshare_version>
43012

> <i_f3d_flags>
0

> <s_epik_input>
bjFbY0hdW2NIXVtjSF1bY0hdYzFbQ0gyXVtDSDJdW05IXUMoPU8pW0NAQEhdMltDSDJdW0NIMl1bQ0gyXU4yQyg9TylbQ0hdM1tDSDJdW0NIMl1bQ0gyXVtDSDJdW0NIMl0z

> <s_epik_cmdline>
J2VwaWtfcHl0aG9uJywgJy1waCcsICc3LjAnLCAnLXRuJywgJzgnLCAnLW1hJywgJzIwMCcsICctbWV0YWxfYmluZGluZycsICctaW1hZScsICc8aW5maWxlLm1hZT4nLCAnLW9tYWUnLCAnPG91dGZpbGUubWFlPic=

> <r_epik_Ionization_Penalty>
1.85306

> <r_epik_Ionization_Penalty_Charging>
1.85306

> <r_epik_Ionization_Penalty_Neutral>
5.78903e-08

> <r_epik_State_Penalty>
1.97071

> <r_epik_Charging_Adjusted_Penalty>
3.82377

> <i_epik_Tot_Q>
1

> <i_epik_Tot_abs_Q>
1

> <r_epik_Metal_State_Penalty>
1.99634

> <b_epik_Metal_Only>
0

> <s_lp_Force_Field>
OPLS_2005

> <r_lp_Energy>
29.0494

> <b_lp_Chiralities_Consistent>
1

> <s_lp_Variant>
AV-unprocessed.smi:951-4

> <Gold.Version>
5.8.1

> <Gold.Id.Protein>
6NUR|6NUR_protein|mol2

> <Gold.PLP.Fitness>
55.9733

> <Gold.PLP.PLP>
-49.2861

> <Gold.PLP.part.hbond>
-3.0000

> <Gold.PLP.part.metal>
0.0000

> <Gold.PLP.part.buried>
-1.4881

> <Gold.PLP.part.nonpolar>
-44.2605

> <Gold.PLP.part.repulsive>
0.1348

> <Gold.PLP.ligand.clash>
0.0000

> <Gold.PLP.ligand.torsion>
1.1977

> <Gold.PLP.Chemscore.Hbond>
3.0000

> <Gold.PLP.Chemscore.CHOScore>
0.0000

> <Gold.PLP.Chemscore.Metal>
0.0000

> <Gold.Chemscore.Hbonds>
donor molecule, donor type, donor heavy atom, donor atom, acceptor molecule, acceptor atom, score
      L1  H    11    52       P1  7948  2.00
      P1  H  7997  8008       L1     1  1.00

> <Gold.PLP.Chemscore.Internal.Correction>
0.0825

> <Gold.Rescore>
     Score         DG    S(hbond)    S(metal)    S(lipo)     H(rot)  DE(clash)    DE(int)     intcor
     18.29     -24.52       1.89        0.00     144.93       1.65       1.47       4.75       ----

> <Gold.Chemscore.Fitness>
18.2936

> <Gold.Chemscore.DG>
-24.5170

> <Gold.Chemscore.ZeroCoef>
-5.4800

> <Gold.Chemscore.Hbond>
1.8912

> <Gold.Chemscore.Metal>
0.0000

> <Gold.Chemscore.Lipo>
144.9271

> <Gold.Chemscore.Internal_Hbond>
0.0000

> <Gold.Chemscore.DEClash>
1.4695

> <Gold.Chemscore.DEInternal>
4.7540

> <Gold.Chemscore.Rot>
1.6548

> <Gold.Chemscore.Internal.Correction>
   9.000000E+99

> <Gold.Chemscore.Hbonds>
donor molecule, donor type, donor heavy atom, donor atom, acceptor molecule, acceptor atom, score
      L1  H    11    52       P1  7948  0.97
      P1  H  7997  8008       L1     1  0.90

> <Gold.Chemscore.Hbond.Weighted>
-6.3168

> <Gold.Chemscore.Metal.Weighted>
-0.0000

> <Gold.Chemscore.Lipo.Weighted>
-16.9565

> <Gold.Chemscore.Internal_Hbond.Weighted>
0.0000

> <Gold.Chemscore.DEClash.Weighted>
1.4695

> <Gold.Chemscore.DEInternal.Weighted>
4.7540

> <Gold.Chemscore.Rot.Weighted>
4.2362

> <Gold.Chemscore.Internal.Correction.Weighted>
   9.000000E+99

> <Gold.Protein.RotatedTorsions>
[ 6907 6896 6895 6894 ] final  110.10 input  -60.11 | X-H torsion
[ 7974 7965 7964 7962 ] final   -1.69 input  175.53 | X-H torsion
[ 8008 7997 7996 7995 ] final  -47.82 input   59.86 | X-H torsion
[ 10167 10162 10161 10158 ] final   27.80 input  -65.29 | X-H torsion
[ 10718 10713 10712 10709 ] final  -27.19 input   66.30 | X-H torsion
[ 10763 10752 10751 10750 ] final  165.65 input  -60.55 | X-H torsion
[ 11005 11000 10999 10996 ] final -164.84 input  -57.11 | X-H torsion

> <Gold.Protein.ActiveResidues>
 VAL166  LYS551  ARG553  GLY616  TRP617  ASP618  TYR619  PRO620  LYS621  CYS622 
 ASP623  PHE694  ASN695  SER759  ASP760  ASP761  ALA762  ILE779  LEU786  VAL792 
 PHE793  MET794  SER795  GLU796  ALA797  LYS798  CYS799  TRP800  GLU811  SER814 

> <Gold.Protein.RotatedAtoms>
  152.5036  133.8848  159.7364 H   0  0  0  0  0  0  0  0  0  0  0  0  # atno 6907 bound_to 6896
  150.9302  133.6767  159.2819 H   0  0  0  0  0  0  0  0  0  0  0  0  # atno 6908 bound_to 6896
  151.4115  135.0990  159.9639 H   0  0  0  0  0  0  0  0  0  0  0  0  # atno 6909 bound_to 6896
  146.2414  140.1459  142.8334 H   0  0  0  0  0  0  0  0  0  0  0  0  # atno 7974 bound_to 7965
  154.4021  140.1337  156.4237 H   0  0  0  0  0  0  0  0  0  0  0  0  # atno 8008 bound_to 7997
  155.7618  140.3486  155.5181 H   0  0  0  0  0  0  0  0  0  0  0  0  # atno 8009 bound_to 7997
  155.8852  140.0994  157.1448 H   0  0  0  0  0  0  0  0  0  0  0  0  # atno 8010 bound_to 7997
  140.4907  144.0471  150.6296 H   0  0  0  0  0  0  0  0  0  0  0  0  # atno 10167 bound_to 10162
  156.4414  130.4465  149.7050 H   0  0  0  0  0  0  0  0  0  0  0  0  # atno 10718 bound_to 10713
  154.3271  135.2755  155.2490 H   0  0  0  0  0  0  0  0  0  0  0  0  # atno 10763 bound_to 10752
  154.4818  135.5856  153.6398 H   0  0  0  0  0  0  0  0  0  0  0  0  # atno 10764 bound_to 10752
  152.9870  135.6113  154.3461 H   0  0  0  0  0  0  0  0  0  0  0  0  # atno 10765 bound_to 10752
  140.5824  134.5128  157.5180 H   0  0  0  0  0  0  0  0  0  0  0  0  # atno 11005 bound_to 11000
  145.0208  140.8792  143.5168 LP  0  0  0  0  0  0  0  0  0  0  0  0  # atno 17320 bound_to 7965
  145.1507  139.2516  143.5442 LP  0  0  0  0  0  0  0  0  0  0  0  0  # atno 17321 bound_to 7965
  140.3739  143.2839  152.0247 LP  0  0  0  0  0  0  0  0  0  0  0  0  # atno 17342 bound_to 10162
  139.4851  144.6208  151.7259 LP  0  0  0  0  0  0  0  0  0  0  0  0  # atno 17343 bound_to 10162
  156.3913  130.7628  151.2629 LP  0  0  0  0  0  0  0  0  0  0  0  0  # atno 17370 bound_to 10713
  157.7506  131.0267  150.3973 LP  0  0  0  0  0  0  0  0  0  0  0  0  # atno 17371 bound_to 10713
  139.9311  134.7962  156.0929 LP  0  0  0  0  0  0  0  0  0  0  0  0  # atno 17394 bound_to 11000
  141.0987  133.6685  156.2705 LP  0  0  0  0  0  0  0  0  0  0  0  0  # atno 17395 bound_to 11000

$$$$
