AV-unprocessed.smi:1380|AV-procd|sdf|5600|dock1
  -GOLD-   22720 5203D 1   1.00000     0.00000
 Structure written by MMmdl.
 33 34  0  0  0  0  0  0  0  0  1 V2000
  148.5082  144.3899  161.5741 O   0  0  0  0  0  0  0  0  0  0  0  0
  148.3934  144.9325  160.4750 C   0  0  0  0  0  0  0  0  0  0  0  0
  149.4276  145.2578  159.6878 N   0  0  0  0  0  0  0  0  0  0  0  0
  150.8322  145.0583  160.0315 C   0  0  0  0  0  0  0  0  0  0  0  0
  151.6210  144.3426  158.9171 C   0  0  0  0  0  0  0  0  0  0  0  0
  152.2165  143.0161  159.3564 C   0  0  0  0  0  0  0  0  0  0  0  0
  153.0627  142.9426  160.4816 C   0  0  0  0  0  0  0  0  0  0  0  0
  153.5844  141.6898  160.8572 C   0  0  0  0  0  0  0  0  0  0  0  0
  153.2369  140.5609  160.0886 C   0  0  0  0  0  0  0  0  0  0  0  0
  152.4274  140.6190  159.0092 N   0  0  0  0  0  0  0  0  0  0  0  0
  151.9327  141.8244  158.6546 C   0  0  0  0  0  0  0  0  0  0  0  0
  147.2222  145.2851  159.9284 N   0  0  0  0  0  0  0  0  0  0  0  0
  145.9236  145.1130  160.5654 C   0  0  0  0  0  0  0  0  0  0  0  0
  145.8060  143.8840  161.4469 C   0  0  0  0  0  0  0  0  0  0  0  0
  144.8444  142.7676  161.1091 C   0  0  0  0  0  0  0  0  0  0  0  0
  144.5728  143.6650  162.2917 C   0  0  0  0  0  0  0  0  0  0  0  0
  149.2333  145.7023  158.8025 H   0  0  0  0  0  0  0  0  0  0  0  0
  151.3001  146.0130  160.2761 H   0  0  0  0  0  0  0  0  0  0  0  0
  150.8636  144.4585  160.9414 H   0  0  0  0  0  0  0  0  0  0  0  0
  150.9731  144.1715  158.0563 H   0  0  0  0  0  0  0  0  0  0  0  0
  152.4240  144.9899  158.5628 H   0  0  0  0  0  0  0  0  0  0  0  0
  153.3055  143.8290  161.0489 H   0  0  0  0  0  0  0  0  0  0  0  0
  154.2351  141.5959  161.7140 H   0  0  0  0  0  0  0  0  0  0  0  0
  153.6188  139.5848  160.3488 H   0  0  0  0  0  0  0  0  0  0  0  0
  151.2846  141.8359  157.7904 H   0  0  0  0  0  0  0  0  0  0  0  0
  147.2312  145.7270  159.0207 H   0  0  0  0  0  0  0  0  0  0  0  0
  145.7419  145.9922  161.1835 H   0  0  0  0  0  0  0  0  0  0  0  0
  145.1353  145.1023  159.8105 H   0  0  0  0  0  0  0  0  0  0  0  0
  146.7455  143.5859  161.9087 H   0  0  0  0  0  0  0  0  0  0  0  0
  144.2140  142.8893  160.2305 H   0  0  0  0  0  0  0  0  0  0  0  0
  145.1683  141.7490  161.3122 H   0  0  0  0  0  0  0  0  0  0  0  0
  144.7128  143.2438  163.2852 H   0  0  0  0  0  0  0  0  0  0  0  0
  143.7591  144.3814  162.1992 H   0  0  0  0  0  0  0  0  0  0  0  0
  1  2  2  0  0  0  0
  2  3  1  0  0  0  0
  2 12  1  0  0  0  0
  3  4  1  0  0  0  0
  3 17  1  0  0  0  0
  4  5  1  0  0  0  0
  4 18  1  0  0  0  0
  4 19  1  0  0  0  0
  5  6  1  0  0  0  0
  5 20  1  0  0  0  0
  5 21  1  0  0  0  0
  6 11  1  0  0  0  0
  6  7  2  0  0  0  0
  7  8  1  0  0  0  0
  7 22  1  0  0  0  0
  8  9  2  0  0  0  0
  8 23  1  0  0  0  0
  9 10  1  0  0  0  0
  9 24  1  0  0  0  0
 10 11  2  0  0  0  0
 11 25  1  0  0  0  0
 12 13  1  0  0  0  0
 12 26  1  0  0  0  0
 13 14  1  0  0  0  0
 13 27  1  0  0  0  0
 13 28  1  0  0  0  0
 14 16  1  0  0  0  0
 14 15  1  0  0  0  0
 14 29  1  0  0  0  0
 15 16  1  0  0  0  0
 15 30  1  0  0  0  0
 15 31  1  0  0  0  0
 16 32  1  0  0  0  0
 16 33  1  0  0  0  0
M  END
> <s_m_source_file>
AV-unprocessed.smi

> <i_m_source_file_index>
1380

> <i_lp_mmshare_version>
43012

> <i_f3d_flags>
0

> <s_epik_input>
W0NIMl0xW0NIMl1bQ0hdMVtDSDJdW05IXUMoPU8pW05IXVtDSDJdW0NIMl1jMltjSF1bY0hdW2NIXW5bY0hdMg==

> <s_epik_cmdline>
J2VwaWtfcHl0aG9uJywgJy1waCcsICc3LjAnLCAnLXRuJywgJzgnLCAnLW1hJywgJzIwMCcsICctbWV0YWxfYmluZGluZycsICctaW1hZScsICc8aW5maWxlLm1hZT4nLCAnLW9tYWUnLCAnPG91dGZpbGUubWFlPic=

> <r_epik_Ionization_Penalty>
0.0144004

> <r_epik_Ionization_Penalty_Charging>
0

> <r_epik_Ionization_Penalty_Neutral>
0.0144004

> <r_epik_State_Penalty>
0.0112076

> <r_epik_Charging_Adjusted_Penalty>
0.0112076

> <i_epik_Tot_Q>
0

> <i_epik_Tot_abs_Q>
0

> <r_epik_Metal_State_Penalty>
0.0109423

> <b_epik_Metal_Only>
0

> <s_lp_Force_Field>
OPLS_2005

> <r_lp_Energy>
8.98924

> <b_lp_Chiralities_Consistent>
1

> <s_lp_Variant>
AV-unprocessed.smi:1380-1

> <Gold.Version>
5.8.1

> <Gold.Id.Protein>
6NUR|6NUR_protein|mol2

> <Gold.PLP.Fitness>
48.8466

> <Gold.PLP.PLP>
-42.1145

> <Gold.PLP.part.hbond>
-3.0000

> <Gold.PLP.part.metal>
0.0000

> <Gold.PLP.part.buried>
-7.7290

> <Gold.PLP.part.nonpolar>
-32.9783

> <Gold.PLP.part.repulsive>
0.7473

> <Gold.PLP.ligand.clash>
0.0000

> <Gold.PLP.ligand.torsion>
1.0051

> <Gold.PLP.Chemscore.Hbond>
2.7213

> <Gold.PLP.Chemscore.CHOScore>
0.0000

> <Gold.PLP.Chemscore.Metal>
0.0000

> <Gold.Chemscore.Hbonds>
donor molecule, donor type, donor heavy atom, donor atom, acceptor molecule, acceptor atom, score
      L1  H     3    17       P1  8029  0.94
      L1  H    12    26       P1  8029  1.00
      P1  H  6933  6944       L1     1  0.78

> <Gold.PLP.Chemscore.Internal.Correction>
0.5784

> <Gold.Rescore>
     Score         DG    S(hbond)    S(metal)    S(lipo)     H(rot)  DE(clash)    DE(int)     intcor
     19.22     -21.67       2.76        0.00      96.82       1.70       0.02       2.43       ----

> <Gold.Chemscore.Fitness>
19.2223

> <Gold.Chemscore.DG>
-21.6735

> <Gold.Chemscore.ZeroCoef>
-5.4800

> <Gold.Chemscore.Hbond>
2.7601

> <Gold.Chemscore.Metal>
0.0000

> <Gold.Chemscore.Lipo>
96.8221

> <Gold.Chemscore.Internal_Hbond>
0.0000

> <Gold.Chemscore.DEClash>
0.0170

> <Gold.Chemscore.DEInternal>
2.4343

> <Gold.Chemscore.Rot>
1.7006

> <Gold.Chemscore.Internal.Correction>
   9.000000E+99

> <Gold.Chemscore.Hbonds>
donor molecule, donor type, donor heavy atom, donor atom, acceptor molecule, acceptor atom, score
      L1  H     3    17       P1  8029  0.84
      L1  H    12    26       P1  8029  0.98
      P1  H  6933  6944       L1     1  0.65

> <Gold.Chemscore.Hbond.Weighted>
-9.2188

> <Gold.Chemscore.Metal.Weighted>
-0.0000

> <Gold.Chemscore.Lipo.Weighted>
-11.3282

> <Gold.Chemscore.Internal_Hbond.Weighted>
0.0000

> <Gold.Chemscore.DEClash.Weighted>
0.0170

> <Gold.Chemscore.DEInternal.Weighted>
2.4343

> <Gold.Chemscore.Rot.Weighted>
4.3534

> <Gold.Chemscore.Internal.Correction.Weighted>
   9.000000E+99

> <Gold.Protein.RotatedTorsions>
[ 6907 6896 6895 6894 ] final    3.30 input  -60.11 | X-H torsion
[ 7974 7965 7964 7962 ] final -111.55 input  175.53 | X-H torsion
[ 8008 7997 7996 7995 ] final  173.97 input   59.86 | X-H torsion
[ 10167 10162 10161 10158 ] final  147.57 input  -65.29 | X-H torsion
[ 10718 10713 10712 10709 ] final  168.06 input   66.30 | X-H torsion
[ 10763 10752 10751 10750 ] final  171.62 input  -60.55 | X-H torsion
[ 11005 11000 10999 10996 ] final   40.48 input  -57.11 | X-H torsion

> <Gold.Protein.ActiveResidues>
 VAL166  LYS551  ARG553  GLY616  TRP617  ASP618  TYR619  PRO620  LYS621  CYS622 
 ASP623  PHE694  ASN695  SER759  ASP760  ASP761  ALA762  ILE779  LEU786  VAL792 
 PHE793  MET794  SER795  GLU796  ALA797  LYS798  CYS799  TRP800  GLU811  SER814 

> <Gold.Protein.RotatedAtoms>
  151.6228  135.1030  160.0105 H   0  0  0  0  0  0  0  0  0  0  0  0  # atno 6907 bound_to 6896
  152.4148  133.7017  159.6438 H   0  0  0  0  0  0  0  0  0  0  0  0  # atno 6908 bound_to 6896
  150.8037  133.8476  159.3237 H   0  0  0  0  0  0  0  0  0  0  0  0  # atno 6909 bound_to 6896
  145.1547  140.8847  143.3625 H   0  0  0  0  0  0  0  0  0  0  0  0  # atno 7974 bound_to 7965
  156.1022  140.1446  156.9452 H   0  0  0  0  0  0  0  0  0  0  0  0  # atno 8008 bound_to 7997
  154.4710  140.0910  156.7189 H   0  0  0  0  0  0  0  0  0  0  0  0  # atno 8009 bound_to 7997
  155.4741  140.3442  155.4332 H   0  0  0  0  0  0  0  0  0  0  0  0  # atno 8010 bound_to 7997
  139.4888  144.5745  151.6991 H   0  0  0  0  0  0  0  0  0  0  0  0  # atno 10167 bound_to 10162
  157.0426  131.0291  151.2708 H   0  0  0  0  0  0  0  0  0  0  0  0  # atno 10718 bound_to 10713
  154.4145  135.2757  155.2015 H   0  0  0  0  0  0  0  0  0  0  0  0  # atno 10763 bound_to 10752
  154.3987  135.6049  153.5888 H   0  0  0  0  0  0  0  0  0  0  0  0  # atno 10764 bound_to 10752
  152.9832  135.5921  154.4431 H   0  0  0  0  0  0  0  0  0  0  0  0  # atno 10765 bound_to 10752
  140.1926  134.3968  155.8138 H   0  0  0  0  0  0  0  0  0  0  0  0  # atno 11005 bound_to 11000
  145.0393  139.3273  143.5984 LP  0  0  0  0  0  0  0  0  0  0  0  0  # atno 17320 bound_to 7965
  146.3490  139.9761  142.8701 LP  0  0  0  0  0  0  0  0  0  0  0  0  # atno 17321 bound_to 7965
  140.5339  144.0686  150.6063 LP  0  0  0  0  0  0  0  0  0  0  0  0  # atno 17342 bound_to 10162
  140.3686  143.2867  152.0304 LP  0  0  0  0  0  0  0  0  0  0  0  0  # atno 17343 bound_to 10162
  157.5093  130.7928  149.7688 LP  0  0  0  0  0  0  0  0  0  0  0  0  # atno 17370 bound_to 10713
  156.0033  130.3868  150.2523 LP  0  0  0  0  0  0  0  0  0  0  0  0  # atno 17371 bound_to 10713
  141.2226  133.7054  156.8121 LP  0  0  0  0  0  0  0  0  0  0  0  0  # atno 17394 bound_to 11000
  140.2142  134.8805  157.3308 LP  0  0  0  0  0  0  0  0  0  0  0  0  # atno 17395 bound_to 11000

$$$$
