AV-unprocessed.smi:651|AV-procd|sdf|3191|dock5
  -GOLD-   22720 0113D 1   1.00000     0.00000
 Structure written by MMmdl.
 39 40  0  0  0  0  0  0  0  0  2 V2000
  154.0102  142.7520  163.9662 C   0  0  0  0  0  0  0  0  0  0  0  0
  153.5774  142.6079  162.5225 C   0  0  0  0  0  0  0  0  0  0  0  0
  152.5380  143.3835  161.9657 C   0  0  0  0  0  0  0  0  0  0  0  0
  152.1915  143.2002  160.6107 C   0  0  0  0  0  0  0  0  0  0  0  0
  152.8903  142.2456  159.8390 C   0  0  0  0  0  0  0  0  0  0  0  0
  152.5469  142.0300  158.3751 C   0  0  0  0  0  0  0  0  0  0  0  0
  152.3659  140.5394  158.0887 C   0  0  0  0  0  0  0  0  0  0  0  0
  153.3179  139.7729  158.2294 O   0  0  0  0  0  0  0  0  0  0  0  0
  151.1463  140.1536  157.6748 N   0  0  0  0  0  0  0  0  0  0  0  0
  150.7181  138.8054  157.2884 C   0  0  1  0  0  0  0  0  0  0  0  0
  149.8536  138.0980  158.3534 C   0  0  0  0  0  0  0  0  0  0  0  0
  148.4919  137.8615  157.6994 C   0  0  0  0  0  0  0  0  0  0  0  0
  148.7958  137.7463  156.2072 C   0  0  0  0  0  0  0  0  0  0  0  0
  149.9191  138.7650  155.9581 C   0  0  2  0  0  0  0  0  0  0  0  0
  150.7893  138.4135  154.7422 C   0  0  0  0  0  0  0  0  0  0  0  0
  150.4781  137.3004  154.0737 N   0  0  0  0  0  0  0  0  0  0  0  0
  151.7283  139.1341  154.4082 O   0  0  0  0  0  0  0  0  0  0  0  0
  153.9182  141.4955  160.4521 C   0  0  0  0  0  0  0  0  0  0  0  0
  154.2214  141.7029  161.7520 N   0  3  0  0  0  0  0  0  0  0  0  0
  153.3030  143.3624  164.5284 H   0  0  0  0  0  0  0  0  0  0  0  0
  154.9905  143.2262  164.0216 H   0  0  0  0  0  0  0  0  0  0  0  0
  154.0720  141.7754  164.4472 H   0  0  0  0  0  0  0  0  0  0  0  0
  152.0124  144.1119  162.5661 H   0  0  0  0  0  0  0  0  0  0  0  0
  151.3993  143.7889  160.1711 H   0  0  0  0  0  0  0  0  0  0  0  0
  151.6277  142.5660  158.1343 H   0  0  0  0  0  0  0  0  0  0  0  0
  153.3288  142.4406  157.7343 H   0  0  0  0  0  0  0  0  0  0  0  0
  150.4395  140.8713  157.6038 H   0  0  0  0  0  0  0  0  0  0  0  0
  151.6399  138.2295  157.1918 H   0  0  0  0  0  0  0  0  0  0  0  0
  150.3043  137.1355  158.5988 H   0  0  0  0  0  0  0  0  0  0  0  0
  149.7664  138.6530  159.2881 H   0  0  0  0  0  0  0  0  0  0  0  0
  147.9857  136.9798  158.0933 H   0  0  0  0  0  0  0  0  0  0  0  0
  147.8438  138.7207  157.8753 H   0  0  0  0  0  0  0  0  0  0  0  0
  149.1260  136.7307  155.9827 H   0  0  0  0  0  0  0  0  0  0  0  0
  147.9142  137.9481  155.5978 H   0  0  0  0  0  0  0  0  0  0  0  0
  149.4427  139.7304  155.7810 H   0  0  0  0  0  0  0  0  0  0  0  0
  151.0180  137.0294  153.2646 H   0  0  0  0  0  0  0  0  0  0  0  0
  149.6989  136.7352  154.3788 H   0  0  0  0  0  0  0  0  0  0  0  0
  154.5078  140.7467  159.9431 H   0  0  0  0  0  0  0  0  0  0  0  0
  154.9718  141.1522  162.1702 H   0  0  0  0  0  0  0  0  0  0  0  0
  1  2  1  0  0  0  0
  1 20  1  0  0  0  0
  1 21  1  0  0  0  0
  1 22  1  0  0  0  0
  2 19  1  0  0  0  0
  2  3  2  0  0  0  0
  3  4  1  0  0  0  0
  3 23  1  0  0  0  0
  4  5  2  0  0  0  0
  4 24  1  0  0  0  0
  5  6  1  0  0  0  0
  5 18  1  0  0  0  0
  6  7  1  0  0  0  0
  6 25  1  0  0  0  0
  6 26  1  0  0  0  0
  7  8  2  0  0  0  0
  7  9  1  0  0  0  0
  9 10  1  0  0  0  0
  9 27  1  0  0  0  0
 10 14  1  0  0  0  0
 10 11  1  0  0  0  0
 10 28  1  0  0  0  0
 11 12  1  0  0  0  0
 11 29  1  0  0  0  0
 11 30  1  0  0  0  0
 12 13  1  0  0  0  0
 12 31  1  0  0  0  0
 12 32  1  0  0  0  0
 13 14  1  0  0  0  0
 13 33  1  0  0  0  0
 13 34  1  0  0  0  0
 14 15  1  0  0  0  0
 14 35  1  0  0  0  0
 15 16  1  0  0  0  0
 15 17  2  0  0  0  0
 16 36  1  0  0  0  0
 16 37  1  0  0  0  0
 18 19  2  0  0  0  0
 18 38  1  0  0  0  0
 19 39  1  0  0  0  0
M  CHG  1  19   1
M  END
> <s_m_source_file>
AV-unprocessed.smi

> <i_m_source_file_index>
651

> <i_lp_mmshare_version>
43012

> <i_f3d_flags>
0

> <s_epik_input>
W0NIM11jMVtjSF1bY0hdYyhbY0hdbjEpW0NIMl1DKD1PKVtOSF1bQ0BASF0yW0NIMl1bQ0gyXVtDSDJdW0NASF0yQyg9TylbTkgyXQ==

> <s_epik_cmdline>
J2VwaWtfcHl0aG9uJywgJy1waCcsICc3LjAnLCAnLXRuJywgJzgnLCAnLW1hJywgJzIwMCcsICctbWV0YWxfYmluZGluZycsICctaW1hZScsICc8aW5maWxlLm1hZT4nLCAnLW9tYWUnLCAnPG91dGZpbGUubWFlPic=

> <r_epik_Ionization_Penalty>
2.14971

> <r_epik_Ionization_Penalty_Charging>
2.14971

> <r_epik_Ionization_Penalty_Neutral>
1.65229e-07

> <r_epik_State_Penalty>
2.28946

> <r_epik_Charging_Adjusted_Penalty>
4.43917

> <i_epik_Tot_Q>
1

> <i_epik_Tot_abs_Q>
1

> <r_epik_Metal_State_Penalty>
2.30508

> <b_epik_Metal_Only>
0

> <s_lp_Force_Field>
OPLS_2005

> <r_lp_Energy>
21.472

> <b_lp_Chiralities_Consistent>
1

> <s_lp_Variant>
AV-unprocessed.smi:651-8

> <Gold.Version>
5.8.1

> <Gold.Id.Protein>
6NUR|6NUR_protein|mol2

> <Gold.PLP.Fitness>
44.1909

> <Gold.PLP.PLP>
-35.9041

> <Gold.PLP.part.hbond>
-5.0000

> <Gold.PLP.part.metal>
0.0000

> <Gold.PLP.part.buried>
-3.0859

> <Gold.PLP.part.nonpolar>
-25.7457

> <Gold.PLP.part.repulsive>
0.2479

> <Gold.PLP.ligand.clash>
0.0000

> <Gold.PLP.ligand.torsion>
0.2876

> <Gold.PLP.Chemscore.Hbond>
2.9511

> <Gold.PLP.Chemscore.CHOScore>
0.0000

> <Gold.PLP.Chemscore.Metal>
0.0000

> <Gold.Chemscore.Hbonds>
donor molecule, donor type, donor heavy atom, donor atom, acceptor molecule, acceptor atom, score
      L1  H    16    36       P1  7949  0.92
      P1  H  7989  7998       L1    17  1.00
      P1  H  7997  8008       L1     8  1.00

> <Gold.PLP.Chemscore.Internal.Correction>
0.0088

> <Gold.Rescore>
     Score         DG    S(hbond)    S(metal)    S(lipo)     H(rot)  DE(clash)    DE(int)     intcor
     16.42     -18.87       2.46        0.00      88.84       2.04       0.79       1.65       ----

> <Gold.Chemscore.Fitness>
16.4238

> <Gold.Chemscore.DG>
-18.8670

> <Gold.Chemscore.ZeroCoef>
-5.4800

> <Gold.Chemscore.Hbond>
2.4584

> <Gold.Chemscore.Metal>
0.0000

> <Gold.Chemscore.Lipo>
88.8430

> <Gold.Chemscore.Internal_Hbond>
0.0000

> <Gold.Chemscore.DEClash>
0.7950

> <Gold.Chemscore.DEInternal>
1.6483

> <Gold.Chemscore.Rot>
2.0386

> <Gold.Chemscore.Internal.Correction>
   9.000000E+99

> <Gold.Chemscore.Hbonds>
donor molecule, donor type, donor heavy atom, donor atom, acceptor molecule, acceptor atom, score
      L1  H    16    36       P1  7949  0.25
      P1  H  7989  7998       L1    17  0.94
      P1  H  7997  8008       L1     8  0.85

> <Gold.Chemscore.Hbond.Weighted>
-8.2112

> <Gold.Chemscore.Metal.Weighted>
-0.0000

> <Gold.Chemscore.Lipo.Weighted>
-10.3946

> <Gold.Chemscore.Internal_Hbond.Weighted>
0.0000

> <Gold.Chemscore.DEClash.Weighted>
0.7950

> <Gold.Chemscore.DEInternal.Weighted>
1.6483

> <Gold.Chemscore.Rot.Weighted>
5.2188

> <Gold.Chemscore.Internal.Correction.Weighted>
   9.000000E+99

> <Gold.Protein.RotatedTorsions>
[ 6907 6896 6895 6894 ] final  165.26 input  -60.11 | X-H torsion
[ 7974 7965 7964 7962 ] final   20.51 input  175.53 | X-H torsion
[ 8008 7997 7996 7995 ] final  -87.28 input   59.86 | X-H torsion
[ 10167 10162 10161 10158 ] final  -90.81 input  -65.29 | X-H torsion
[ 10718 10713 10712 10709 ] final -113.66 input   66.30 | X-H torsion
[ 10763 10752 10751 10750 ] final  143.58 input  -60.55 | X-H torsion
[ 11005 11000 10999 10996 ] final   42.06 input  -57.11 | X-H torsion

> <Gold.Protein.ActiveResidues>
 VAL166  LYS551  ARG553  GLY616  TRP617  ASP618  TYR619  PRO620  LYS621  CYS622 
 ASP623  PHE694  ASN695  SER759  ASP760  ASP761  ALA762  ILE779  LEU786  VAL792 
 PHE793  MET794  SER795  GLU796  ALA797  LYS798  CYS799  TRP800  GLU811  SER814 

> <Gold.Protein.RotatedAtoms>
  151.8971  133.3529  159.3817 H   0  0  0  0  0  0  0  0  0  0  0  0  # atno 6907 bound_to 6896
  150.7089  134.4865  159.5504 H   0  0  0  0  0  0  0  0  0  0  0  0  # atno 6908 bound_to 6896
  152.2446  134.8194  160.0506 H   0  0  0  0  0  0  0  0  0  0  0  0  # atno 6909 bound_to 6896
  146.2108  139.8159  142.8690 H   0  0  0  0  0  0  0  0  0  0  0  0  # atno 7974 bound_to 7965
  154.6614  140.0568  157.0066 H   0  0  0  0  0  0  0  0  0  0  0  0  # atno 8008 bound_to 7997
  155.1223  140.3248  155.4476 H   0  0  0  0  0  0  0  0  0  0  0  0  # atno 8009 bound_to 7997
  156.2620  140.1995  156.6344 H   0  0  0  0  0  0  0  0  0  0  0  0  # atno 8010 bound_to 7997
  140.3512  143.2890  151.9723 H   0  0  0  0  0  0  0  0  0  0  0  0  # atno 10167 bound_to 10162
  156.0781  130.5985  150.8672 H   0  0  0  0  0  0  0  0  0  0  0  0  # atno 10718 bound_to 10713
  153.9748  135.2947  155.3425 H   0  0  0  0  0  0  0  0  0  0  0  0  # atno 10763 bound_to 10752
  154.7302  135.5071  153.8955 H   0  0  0  0  0  0  0  0  0  0  0  0  # atno 10764 bound_to 10752
  153.0883  135.6700  154.0018 H   0  0  0  0  0  0  0  0  0  0  0  0  # atno 10765 bound_to 10752
  140.1775  134.4145  155.8220 H   0  0  0  0  0  0  0  0  0  0  0  0  # atno 11005 bound_to 11000
  145.3147  141.0229  143.3534 LP  0  0  0  0  0  0  0  0  0  0  0  0  # atno 17320 bound_to 7965
  144.8910  139.4774  143.6678 LP  0  0  0  0  0  0  0  0  0  0  0  0  # atno 17321 bound_to 7965
  139.4826  144.6074  151.7496 LP  0  0  0  0  0  0  0  0  0  0  0  0  # atno 17342 bound_to 10162
  140.5217  144.0869  150.6024 LP  0  0  0  0  0  0  0  0  0  0  0  0  # atno 17343 bound_to 10162
  157.5885  131.0945  150.9156 LP  0  0  0  0  0  0  0  0  0  0  0  0  # atno 17370 bound_to 10713
  156.9337  130.5359  149.5279 LP  0  0  0  0  0  0  0  0  0  0  0  0  # atno 17371 bound_to 10713
  141.2221  133.6985  156.7872 LP  0  0  0  0  0  0  0  0  0  0  0  0  # atno 17394 bound_to 11000
  140.2306  134.8689  157.3472 LP  0  0  0  0  0  0  0  0  0  0  0  0  # atno 17395 bound_to 11000

$$$$
