AV-unprocessed.smi:2241|AV-procd|sdf|9058|dock3
  -GOLD-   2272012263D 1   1.00000     0.00000
 Structure written by MMmdl.
 45 47  0  0  0  0  0  0  0  0  1 V2000
  151.3472  144.8336  159.2146 C   0  0  0  0  0  0  0  0  0  0  0  0
  151.9831  143.4797  159.4550 C   0  0  0  0  0  0  0  0  0  0  0  0
  152.9699  143.3259  160.4483 C   0  0  0  0  0  0  0  0  0  0  0  0
  153.5556  142.0658  160.6666 C   0  0  0  0  0  0  0  0  0  0  0  0
  153.1576  140.9565  159.8956 C   0  0  0  0  0  0  0  0  0  0  0  0
  153.8937  139.4209  160.1856 Cl  0  0  0  0  0  0  0  0  0  0  0  0
  152.1676  141.0930  158.8972 C   0  0  0  0  0  0  0  0  0  0  0  0
  151.8278  139.9627  158.1827 O   0  0  0  0  0  0  0  0  0  0  0  0
  150.8618  140.0806  157.1475 C   0  0  0  0  0  0  0  0  0  0  0  0
  151.5860  140.4334  155.8358 C   0  0  2  0  0  0  0  0  0  0  0  0
  150.6167  140.5591  154.8161 O   0  0  0  0  0  0  0  0  0  0  0  0
  152.5984  139.3596  155.3722 C   0  0  0  0  0  0  0  0  0  0  0  0
  152.0408  137.9953  155.3839 N   0  0  0  0  0  0  0  0  0  0  0  0
  151.1992  137.6441  154.3098 C   0  0  0  0  0  0  0  0  0  0  0  0
  150.6488  136.4749  154.2281 N   0  0  0  0  0  0  0  0  0  0  0  0
  150.8899  135.5209  155.2234 C   0  0  0  0  0  0  0  0  0  0  0  0
  150.1850  134.1773  155.0977 C   0  0  0  0  0  0  0  0  0  0  0  0
  151.0875  132.9568  154.8475 C   0  0  0  0  0  0  0  0  0  0  0  0
  150.0039  132.4319  153.8987 C   0  0  0  0  0  0  0  0  0  0  0  0
  149.5390  133.8831  153.7339 C   0  0  0  0  0  0  0  0  0  0  0  0
  151.6993  135.8081  156.2705 C   0  0  0  0  0  0  0  0  0  0  0  0
  152.3440  137.1161  156.3834 C   0  0  0  0  0  0  0  0  0  0  0  0
  153.0995  137.4040  157.3119 O   0  0  0  0  0  0  0  0  0  0  0  0
  151.5829  142.3682  158.6852 C   0  0  0  0  0  0  0  0  0  0  0  0
  151.9590  145.6361  159.6281 H   0  0  0  0  0  0  0  0  0  0  0  0
  150.3636  144.8756  159.6830 H   0  0  0  0  0  0  0  0  0  0  0  0
  151.2276  145.0174  158.1465 H   0  0  0  0  0  0  0  0  0  0  0  0
  153.2807  144.1712  161.0448 H   0  0  0  0  0  0  0  0  0  0  0  0
  154.3123  141.9505  161.4286 H   0  0  0  0  0  0  0  0  0  0  0  0
  150.3632  139.1166  157.0481 H   0  0  0  0  0  0  0  0  0  0  0  0
  150.1021  140.8276  157.3845 H   0  0  0  0  0  0  0  0  0  0  0  0
  152.0922  141.3933  155.9425 H   0  0  0  0  0  0  0  0  0  0  0  0
  150.1242  139.7534  154.7724 H   0  0  0  0  0  0  0  0  0  0  0  0
  152.9878  139.6273  154.3878 H   0  0  0  0  0  0  0  0  0  0  0  0
  153.4723  139.3784  156.0267 H   0  0  0  0  0  0  0  0  0  0  0  0
  151.0402  138.4227  153.5619 H   0  0  0  0  0  0  0  0  0  0  0  0
  149.4900  134.0066  155.9219 H   0  0  0  0  0  0  0  0  0  0  0  0
  152.0148  133.1969  154.3238 H   0  0  0  0  0  0  0  0  0  0  0  0
  151.2684  132.3350  155.7246 H   0  0  0  0  0  0  0  0  0  0  0  0
  150.3798  131.9654  152.9873 H   0  0  0  0  0  0  0  0  0  0  0  0
  149.2663  131.8047  154.4022 H   0  0  0  0  0  0  0  0  0  0  0  0
  148.4572  134.0160  153.7022 H   0  0  0  0  0  0  0  0  0  0  0  0
  150.0330  134.3859  152.8999 H   0  0  0  0  0  0  0  0  0  0  0  0
  151.8752  135.0689  157.0385 H   0  0  0  0  0  0  0  0  0  0  0  0
  150.8226  142.5191  157.9341 H   0  0  0  0  0  0  0  0  0  0  0  0
  1  2  1  0  0  0  0
  1 25  1  0  0  0  0
  1 26  1  0  0  0  0
  1 27  1  0  0  0  0
  2 24  1  0  0  0  0
  2  3  2  0  0  0  0
  3  4  1  0  0  0  0
  3 28  1  0  0  0  0
  4  5  2  0  0  0  0
  4 29  1  0  0  0  0
  5  6  1  0  0  0  0
  5  7  1  0  0  0  0
  7  8  1  0  0  0  0
  7 24  2  0  0  0  0
  8  9  1  0  0  0  0
  9 10  1  0  0  0  0
  9 30  1  0  0  0  0
  9 31  1  0  0  0  0
 10 11  1  0  0  0  0
 10 12  1  0  0  0  0
 10 32  1  0  0  0  0
 11 33  1  0  0  0  0
 12 13  1  0  0  0  0
 12 34  1  0  0  0  0
 12 35  1  0  0  0  0
 13 22  1  0  0  0  0
 13 14  1  0  0  0  0
 14 15  2  0  0  0  0
 14 36  1  0  0  0  0
 15 16  1  0  0  0  0
 16 17  1  0  0  0  0
 16 21  2  0  0  0  0
 17 20  1  0  0  0  0
 17 18  1  0  0  0  0
 17 37  1  0  0  0  0
 18 19  1  0  0  0  0
 18 38  1  0  0  0  0
 18 39  1  0  0  0  0
 19 20  1  0  0  0  0
 19 40  1  0  0  0  0
 19 41  1  0  0  0  0
 20 42  1  0  0  0  0
 20 43  1  0  0  0  0
 21 22  1  0  0  0  0
 21 44  1  0  0  0  0
 22 23  2  0  0  0  0
 24 45  1  0  0  0  0
M  END
> <s_m_source_file>
AV-unprocessed.smi

> <i_m_source_file_index>
2241

> <i_lp_mmshare_version>
43012

> <i_f3d_flags>
0

> <s_epik_input>
W0NIM11jMVtjSF1bY0hdYyhDbCljKFtjSF0xKU9bQ0gyXVtDQEhdKFtPSF0pW0NIMl1uMltjSF1uYyhbY0hdYzI9TylbQ0hdM1tDSDJdW0NIMl1bQ0gyXTM=

> <s_epik_cmdline>
J2VwaWtfcHl0aG9uJywgJy1waCcsICc3LjAnLCAnLXRuJywgJzgnLCAnLW1hJywgJzIwMCcsICctbWV0YWxfYmluZGluZycsICctaW1hZScsICc8aW5maWxlLm1hZT4nLCAnLW9tYWUnLCAnPG91dGZpbGUubWFlPic=

> <r_lp_tautomer_probability>
1

> <r_epik_Ionization_Penalty>
1.78212e-05

> <r_epik_Ionization_Penalty_Charging>
5.61663e-08

> <r_epik_Ionization_Penalty_Neutral>
1.7765e-05

> <r_epik_State_Penalty>
-0

> <r_epik_Charging_Adjusted_Penalty>
5.61663e-08

> <i_epik_Tot_Q>
0

> <i_epik_Tot_abs_Q>
0

> <r_epik_Metal_State_Penalty>
-0

> <b_epik_Metal_Only>
0

> <s_lp_Force_Field>
OPLS_2005

> <r_lp_Energy>
31.1581

> <b_lp_Chiralities_Consistent>
1

> <s_lp_Variant>
AV-unprocessed.smi:2241-1

> <Gold.Version>
5.8.1

> <Gold.Id.Protein>
6NUR|6NUR_protein|mol2

> <Gold.PLP.Fitness>
50.7696

> <Gold.PLP.PLP>
-48.7375

> <Gold.PLP.part.hbond>
-1.0000

> <Gold.PLP.part.metal>
0.0000

> <Gold.PLP.part.buried>
-5.1914

> <Gold.PLP.part.nonpolar>
-42.9972

> <Gold.PLP.part.repulsive>
1.8469

> <Gold.PLP.ligand.clash>
0.0000

> <Gold.PLP.ligand.torsion>
0.6807

> <Gold.PLP.Chemscore.Hbond>
1.0000

> <Gold.PLP.Chemscore.CHOScore>
0.0000

> <Gold.PLP.Chemscore.Metal>
0.0000

> <Gold.Chemscore.Hbonds>
donor molecule, donor type, donor heavy atom, donor atom, acceptor molecule, acceptor atom, score
      P1  H  7989  7998       L1    11  0.99

> <Gold.PLP.Chemscore.Internal.Correction>
0.3934

> <Gold.Rescore>
     Score         DG    S(hbond)    S(metal)    S(lipo)     H(rot)  DE(clash)    DE(int)     intcor
     15.74     -17.34       0.82        0.00     130.03       2.38       0.05       1.54       ----

> <Gold.Chemscore.Fitness>
15.7438

> <Gold.Chemscore.DG>
-17.3394

> <Gold.Chemscore.ZeroCoef>
-5.4800

> <Gold.Chemscore.Hbond>
0.8200

> <Gold.Chemscore.Metal>
0.0000

> <Gold.Chemscore.Lipo>
130.0324

> <Gold.Chemscore.Internal_Hbond>
0.0000

> <Gold.Chemscore.DEClash>
0.0515

> <Gold.Chemscore.DEInternal>
1.5440

> <Gold.Chemscore.Rot>
2.3801

> <Gold.Chemscore.Internal.Correction>
   9.000000E+99

> <Gold.Chemscore.Hbonds>
donor molecule, donor type, donor heavy atom, donor atom, acceptor molecule, acceptor atom, score
      P1  H  7989  7998       L1    11  0.22

> <Gold.Chemscore.Hbond.Weighted>
-2.7386

> <Gold.Chemscore.Metal.Weighted>
-0.0000

> <Gold.Chemscore.Lipo.Weighted>
-15.2138

> <Gold.Chemscore.Internal_Hbond.Weighted>
0.0000

> <Gold.Chemscore.DEClash.Weighted>
0.0515

> <Gold.Chemscore.DEInternal.Weighted>
1.5440

> <Gold.Chemscore.Rot.Weighted>
6.0931

> <Gold.Chemscore.Internal.Correction.Weighted>
   9.000000E+99

> <Gold.Protein.RotatedTorsions>
[ 6907 6896 6895 6894 ] final  -22.36 input  -60.11 | X-H torsion
[ 7974 7965 7964 7962 ] final    1.00 input  175.53 | X-H torsion
[ 8008 7997 7996 7995 ] final   53.20 input   59.86 | X-H torsion
[ 10167 10162 10161 10158 ] final  114.02 input  -65.29 | X-H torsion
[ 10718 10713 10712 10709 ] final  100.63 input   66.30 | X-H torsion
[ 10763 10752 10751 10750 ] final -113.30 input  -60.55 | X-H torsion
[ 11005 11000 10999 10996 ] final   90.72 input  -57.11 | X-H torsion

> <Gold.Protein.ActiveResidues>
 VAL166  LYS551  ARG553  GLY616  TRP617  ASP618  TYR619  PRO620  LYS621  CYS622 
 ASP623  PHE694  ASN695  SER759  ASP760  ASP761  ALA762  ILE779  LEU786  VAL792 
 PHE793  MET794  SER795  GLU796  ALA797  LYS798  CYS799  TRP800  GLU811  SER814 

> <Gold.Protein.RotatedAtoms>
  151.2198  135.0514  159.8944 H   0  0  0  0  0  0  0  0  0  0  0  0  # atno 6907 bound_to 6896
  152.5416  134.0653  159.8180 H   0  0  0  0  0  0  0  0  0  0  0  0  # atno 6908 bound_to 6896
  151.0818  133.5336  159.2652 H   0  0  0  0  0  0  0  0  0  0  0  0  # atno 6909 bound_to 6896
  146.2438  140.1053  142.8346 H   0  0  0  0  0  0  0  0  0  0  0  0  # atno 7974 bound_to 7965
  155.4644  140.3463  155.4317 H   0  0  0  0  0  0  0  0  0  0  0  0  # atno 8008 bound_to 7997
  156.1140  140.1469  156.9327 H   0  0  0  0  0  0  0  0  0  0  0  0  # atno 8009 bound_to 7997
  154.4776  140.0880  156.7279 H   0  0  0  0  0  0  0  0  0  0  0  0  # atno 8010 bound_to 7997
  139.6419  144.7124  151.2220 H   0  0  0  0  0  0  0  0  0  0  0  0  # atno 10167 bound_to 10162
  157.6849  131.0704  150.5130 H   0  0  0  0  0  0  0  0  0  0  0  0  # atno 10718 bound_to 10713
  154.8390  135.4459  154.1327 H   0  0  0  0  0  0  0  0  0  0  0  0  # atno 10763 bound_to 10752
  153.2533  135.6929  153.7662 H   0  0  0  0  0  0  0  0  0  0  0  0  # atno 10764 bound_to 10752
  153.6966  135.3378  155.3190 H   0  0  0  0  0  0  0  0  0  0  0  0  # atno 10765 bound_to 10752
  139.8851  134.8630  156.3325 H   0  0  0  0  0  0  0  0  0  0  0  0  # atno 11005 bound_to 11000
  145.0533  140.9034  143.4982 LP  0  0  0  0  0  0  0  0  0  0  0  0  # atno 17320 bound_to 7965
  145.1155  139.2728  143.5615 LP  0  0  0  0  0  0  0  0  0  0  0  0  # atno 17321 bound_to 7965
  140.7495  143.6297  150.8434 LP  0  0  0  0  0  0  0  0  0  0  0  0  # atno 17342 bound_to 10162
  139.9936  143.5820  152.2901 LP  0  0  0  0  0  0  0  0  0  0  0  0  # atno 17343 bound_to 10162
  156.5446  130.4216  149.6137 LP  0  0  0  0  0  0  0  0  0  0  0  0  # atno 17370 bound_to 10713
  156.2955  130.7148  151.2007 LP  0  0  0  0  0  0  0  0  0  0  0  0  # atno 17371 bound_to 10713
  140.9713  133.7325  156.0539 LP  0  0  0  0  0  0  0  0  0  0  0  0  # atno 17394 bound_to 11000
  140.7866  134.3664  157.5475 LP  0  0  0  0  0  0  0  0  0  0  0  0  # atno 17395 bound_to 11000

$$$$
