AV-unprocessed.smi:1406|AV-procd|sdf|5710|dock7
  -GOLD-   22720 5343D 1   1.00000     0.00000
 Structure written by MMmdl.
 41 43  0  0  0  0  0  0  0  0  2 V2000
  148.4677  141.8428  155.2728 C   0  0  0  0  0  0  0  0  0  0  0  0
  149.8449  141.2780  155.6765 C   0  0  1  0  0  0  0  0  0  0  0  0
  150.1766  141.5007  157.1626 C   0  0  0  0  0  0  0  0  0  0  0  0
  150.2899  140.5494  157.9366 O   0  0  0  0  0  0  0  0  0  0  0  0
  150.3327  142.7757  157.5517 N   0  0  0  0  0  0  0  0  0  0  0  0
  150.7170  143.1950  158.8942 C   0  0  2  0  0  0  0  0  0  0  0  0
  150.2718  144.6191  159.2591 C   0  0  0  0  0  0  0  0  0  0  0  0
  151.4308  145.2064  160.0899 C   0  0  0  0  0  0  0  0  0  0  0  0
  152.4410  144.1323  160.2351 N   0  3  1  0  0  0  0  0  0  0  0  0
  152.3323  143.4349  161.5463 C   0  0  0  0  0  0  0  0  0  0  0  0
  153.2082  142.1767  161.6062 C   0  0  0  0  0  0  0  0  0  0  0  0
  152.8243  141.2116  160.4817 C   0  0  0  0  0  0  0  0  0  0  0  0
  152.9864  141.9131  159.1290 C   0  0  0  0  0  0  0  0  0  0  0  0
  152.2379  143.2627  159.0512 C   0  0  1  0  0  0  0  0  0  0  0  0
  149.9713  139.8665  155.3310 N   0  0  0  0  0  0  0  0  0  0  0  0
  150.9936  139.0267  155.5090 C   0  0  0  0  0  0  0  0  0  0  0  0
  150.7447  137.7850  155.1179 N   0  0  0  0  0  0  0  0  0  0  0  0
  149.4603  137.9371  154.6784 C   0  0  0  0  0  0  0  0  0  0  0  0
  148.9452  139.1609  154.7931 N   0  0  0  0  0  0  0  0  0  0  0  0
  148.4097  142.9153  155.4627 H   0  0  0  0  0  0  0  0  0  0  0  0
  147.6543  141.3647  155.8205 H   0  0  0  0  0  0  0  0  0  0  0  0
  148.2824  141.6912  154.2091 H   0  0  0  0  0  0  0  0  0  0  0  0
  150.5990  141.8179  155.1017 H   0  0  0  0  0  0  0  0  0  0  0  0
  150.2182  143.5008  156.8584 H   0  0  0  0  0  0  0  0  0  0  0  0
  150.3105  142.4938  159.6255 H   0  0  0  0  0  0  0  0  0  0  0  0
  150.1098  145.2275  158.3681 H   0  0  0  0  0  0  0  0  0  0  0  0
  149.3368  144.6041  159.8201 H   0  0  0  0  0  0  0  0  0  0  0  0
  151.8866  146.0348  159.5463 H   0  0  0  0  0  0  0  0  0  0  0  0
  151.0961  145.5984  161.0515 H   0  0  0  0  0  0  0  0  0  0  0  0
  152.6217  144.1251  162.3397 H   0  0  0  0  0  0  0  0  0  0  0  0
  151.2935  143.1604  161.7374 H   0  0  0  0  0  0  0  0  0  0  0  0
  154.2610  142.4495  161.5229 H   0  0  0  0  0  0  0  0  0  0  0  0
  153.0891  141.6867  162.5730 H   0  0  0  0  0  0  0  0  0  0  0  0
  153.4519  140.3208  160.5191 H   0  0  0  0  0  0  0  0  0  0  0  0
  151.7957  140.8733  160.6118 H   0  0  0  0  0  0  0  0  0  0  0  0
  154.0487  142.0947  158.9597 H   0  0  0  0  0  0  0  0  0  0  0  0
  152.6638  141.2539  158.3221 H   0  0  0  0  0  0  0  0  0  0  0  0
  152.6369  143.8085  158.1934 H   0  0  0  0  0  0  0  0  0  0  0  0
  151.9367  139.3275  155.9410 H   0  0  0  0  0  0  0  0  0  0  0  0
  148.8850  137.1196  154.2687 H   0  0  0  0  0  0  0  0  0  0  0  0
  153.3667  144.5338  160.1868 H   0  0  0  0  0  0  0  0  0  0  0  0
  1  2  1  0  0  0  0
  1 20  1  0  0  0  0
  1 21  1  0  0  0  0
  1 22  1  0  0  0  0
  2  3  1  0  0  0  0
  2 15  1  0  0  0  0
  2 23  1  0  0  0  0
  3  4  2  0  0  0  0
  3  5  1  0  0  0  0
  5  6  1  0  0  0  0
  5 24  1  0  0  0  0
  6 14  1  0  0  0  0
  6  7  1  0  0  0  0
  6 25  1  0  0  0  0
  7  8  1  0  0  0  0
  7 26  1  0  0  0  0
  7 27  1  0  0  0  0
  8  9  1  0  0  0  0
  8 28  1  0  0  0  0
  8 29  1  0  0  0  0
  9 14  1  0  0  0  0
  9 10  1  0  0  0  0
  9 41  1  0  0  0  0
 10 11  1  0  0  0  0
 10 30  1  0  0  0  0
 10 31  1  0  0  0  0
 11 12  1  0  0  0  0
 11 32  1  0  0  0  0
 11 33  1  0  0  0  0
 12 13  1  0  0  0  0
 12 34  1  0  0  0  0
 12 35  1  0  0  0  0
 13 14  1  0  0  0  0
 13 36  1  0  0  0  0
 13 37  1  0  0  0  0
 14 38  1  0  0  0  0
 15 19  1  0  0  0  0
 15 16  1  0  0  0  0
 16 17  2  0  0  0  0
 16 39  1  0  0  0  0
 17 18  1  0  0  0  0
 18 19  2  0  0  0  0
 18 40  1  0  0  0  0
M  CHG  1   9   1
M  END
> <s_m_source_file>
AV-unprocessed.smi

> <i_m_source_file_index>
1406

> <i_lp_mmshare_version>
43012

> <i_f3d_flags>
0

> <s_epik_input>
bjFbY0hdbltjSF1uMVtDQEhdKFtDSDNdKUMoPU8pW05IXVtDQEhdKFtDSDJdW0NIMl0yKVtDQEBIXShOMjMpW0NIMl1bQ0gyXVtDSDJdW0NIMl0z

> <s_epik_cmdline>
J2VwaWtfcHl0aG9uJywgJy1waCcsICc3LjAnLCAnLXRuJywgJzgnLCAnLW1hJywgJzIwMCcsICctbWV0YWxfYmluZGluZycsICctaW1hZScsICc8aW5maWxlLm1hZT4nLCAnLW9tYWUnLCAnPG91dGZpbGUubWFlPic=

> <r_lp_tautomer_probability>
1

> <r_epik_Ionization_Penalty>
0.00197066

> <r_epik_Ionization_Penalty_Charging>
0.00196223

> <r_epik_Ionization_Penalty_Neutral>
8.43107e-06

> <r_epik_State_Penalty>
0.00133866

> <r_epik_Charging_Adjusted_Penalty>
0.00330089

> <i_epik_Tot_Q>
1

> <i_epik_Tot_abs_Q>
1

> <r_epik_Metal_State_Penalty>
-0

> <b_epik_Metal_Only>
0

> <s_lp_Force_Field>
OPLS_2005

> <r_lp_Energy>
42.7017

> <b_lp_Chiralities_Consistent>
1

> <s_lp_Variant>
AV-unprocessed.smi:1406-2

> <Gold.Version>
5.8.1

> <Gold.Id.Protein>
6NUR|6NUR_protein|mol2

> <Gold.PLP.Fitness>
47.3353

> <Gold.PLP.PLP>
-42.5870

> <Gold.PLP.part.hbond>
-0.8643

> <Gold.PLP.part.metal>
0.0000

> <Gold.PLP.part.buried>
-3.5556

> <Gold.PLP.part.nonpolar>
-37.7571

> <Gold.PLP.part.repulsive>
0.3147

> <Gold.PLP.ligand.clash>
0.0000

> <Gold.PLP.ligand.torsion>
0.5427

> <Gold.PLP.Chemscore.Hbond>
0.8125

> <Gold.PLP.Chemscore.CHOScore>
1.0972

> <Gold.PLP.Chemscore.Metal>
0.0000

> <Gold.Chemscore.Hbonds>
donor molecule, donor type, donor heavy atom, donor atom, acceptor molecule, acceptor atom, score
      L1  H     5    24       P1  8028  0.67
      L1  C    18    40       P1  7948  0.88

> <Gold.PLP.Chemscore.Internal.Correction>
0.1048

> <Gold.Rescore>
     Score         DG    S(hbond)    S(metal)    S(lipo)     H(rot)  DE(clash)    DE(int)     intcor
     12.65     -14.64       1.00        0.00      91.19       1.89       0.43       1.56       ----

> <Gold.Chemscore.Fitness>
12.6506

> <Gold.Chemscore.DG>
-14.6443

> <Gold.Chemscore.ZeroCoef>
-5.4800

> <Gold.Chemscore.Hbond>
0.9954

> <Gold.Chemscore.Metal>
0.0000

> <Gold.Chemscore.Lipo>
91.1886

> <Gold.Chemscore.Internal_Hbond>
0.0000

> <Gold.Chemscore.DEClash>
0.4322

> <Gold.Chemscore.DEInternal>
1.5614

> <Gold.Chemscore.Rot>
1.8865

> <Gold.Chemscore.Internal.Correction>
   9.000000E+99

> <Gold.Chemscore.Hbonds>
donor molecule, donor type, donor heavy atom, donor atom, acceptor molecule, acceptor atom, score
      L1  H     5    24       P1  8028  0.64

> <Gold.Chemscore.Hbond.Weighted>
-3.3247

> <Gold.Chemscore.Metal.Weighted>
-0.0000

> <Gold.Chemscore.Lipo.Weighted>
-10.6691

> <Gold.Chemscore.Internal_Hbond.Weighted>
0.0000

> <Gold.Chemscore.DEClash.Weighted>
0.4322

> <Gold.Chemscore.DEInternal.Weighted>
1.5614

> <Gold.Chemscore.Rot.Weighted>
4.8295

> <Gold.Chemscore.Internal.Correction.Weighted>
   9.000000E+99

> <Gold.Protein.RotatedTorsions>
[ 6907 6896 6895 6894 ] final -134.00 input  -60.11 | X-H torsion
[ 7974 7965 7964 7962 ] final   14.50 input  175.53 | X-H torsion
[ 8008 7997 7996 7995 ] final   30.92 input   59.86 | X-H torsion
[ 10167 10162 10161 10158 ] final  162.11 input  -65.29 | X-H torsion
[ 10718 10713 10712 10709 ] final   63.55 input   66.30 | X-H torsion
[ 10763 10752 10751 10750 ] final   64.93 input  -60.55 | X-H torsion
[ 11005 11000 10999 10996 ] final  140.44 input  -57.11 | X-H torsion

> <Gold.Protein.ActiveResidues>
 VAL166  LYS551  ARG553  GLY616  TRP617  ASP618  TYR619  PRO620  LYS621  CYS622 
 ASP623  PHE694  ASN695  SER759  ASP760  ASP761  ALA762  ILE779  LEU786  VAL792 
 PHE793  MET794  SER795  GLU796  ALA797  LYS798  CYS799  TRP800  GLU811  SER814 

> <Gold.Protein.RotatedAtoms>
  150.9807  133.6249  159.2722 H   0  0  0  0  0  0  0  0  0  0  0  0  # atno 6907 bound_to 6896
  151.3505  135.0882  159.9411 H   0  0  0  0  0  0  0  0  0  0  0  0  # atno 6908 bound_to 6896
  152.5214  133.9400  159.7676 H   0  0  0  0  0  0  0  0  0  0  0  0  # atno 6909 bound_to 6896
  146.2303  139.9033  142.8536 H   0  0  0  0  0  0  0  0  0  0  0  0  # atno 7974 bound_to 7965
  155.0981  140.3227  155.4555 H   0  0  0  0  0  0  0  0  0  0  0  0  # atno 8008 bound_to 7997
  156.2724  140.2066  156.6054 H   0  0  0  0  0  0  0  0  0  0  0  0  # atno 8009 bound_to 7997
  154.6851  140.0522  157.0293 H   0  0  0  0  0  0  0  0  0  0  0  0  # atno 8010 bound_to 7997
  139.4857  144.4469  151.8880 H   0  0  0  0  0  0  0  0  0  0  0  0  # atno 10167 bound_to 10162
  157.5979  130.9111  149.9731 H   0  0  0  0  0  0  0  0  0  0  0  0  # atno 10718 bound_to 10713
  153.0075  135.5375  154.6587 H   0  0  0  0  0  0  0  0  0  0  0  0  # atno 10763 bound_to 10752
  154.5801  135.2849  155.0743 H   0  0  0  0  0  0  0  0  0  0  0  0  # atno 10764 bound_to 10752
  154.1875  135.6506  153.5103 H   0  0  0  0  0  0  0  0  0  0  0  0  # atno 10765 bound_to 10752
  140.0328  134.9344  157.0694 H   0  0  0  0  0  0  0  0  0  0  0  0  # atno 11005 bound_to 11000
  145.2302  140.9970  143.3995 LP  0  0  0  0  0  0  0  0  0  0  0  0  # atno 17320 bound_to 7965
  144.9537  139.4055  143.6390 LP  0  0  0  0  0  0  0  0  0  0  0  0  # atno 17321 bound_to 7965
  140.3924  144.2598  150.5898 LP  0  0  0  0  0  0  0  0  0  0  0  0  # atno 17342 bound_to 10162
  140.5133  143.2284  151.8501 LP  0  0  0  0  0  0  0  0  0  0  0  0  # atno 17343 bound_to 10162
  156.1045  130.3653  150.0158 LP  0  0  0  0  0  0  0  0  0  0  0  0  # atno 17370 bound_to 10713
  156.8267  130.9378  151.3639 LP  0  0  0  0  0  0  0  0  0  0  0  0  # atno 17371 bound_to 10713
  140.4198  134.1893  155.7164 LP  0  0  0  0  0  0  0  0  0  0  0  0  # atno 17394 bound_to 11000
  141.1840  133.8352  157.1154 LP  0  0  0  0  0  0  0  0  0  0  0  0  # atno 17395 bound_to 11000

$$$$
