AV-unprocessed.smi:864|AV-procd|sdf|3989|dock5
  -GOLD-   22720 1463D 1   1.00000     0.00000
 Structure written by MMmdl.
 45 47  0  0  0  0  0  0  0  0  2 V2000
  143.8144  132.6174  148.5950 C   0  0  0  0  0  0  0  0  0  0  0  0
  144.2767  133.2083  149.9097 C   0  0  0  0  0  0  0  0  0  0  0  0
  145.4690  132.7977  150.5432 C   0  0  0  0  0  0  0  0  0  0  0  0
  145.8281  133.3791  151.7766 C   0  0  0  0  0  0  0  0  0  0  0  0
  144.9884  134.3585  152.3530 C   0  0  0  0  0  0  0  0  0  0  0  0
  145.3132  134.9570  153.7119 C   0  0  0  0  0  0  0  0  0  0  0  0
  146.6364  134.4409  154.3162 C   0  0  0  0  0  0  0  0  0  0  0  0
  147.7500  135.3589  154.0824 N   0  0  0  0  0  0  0  0  0  0  0  0
  148.5025  135.9188  155.0412 C   0  0  0  0  0  0  0  0  0  0  0  0
  148.2918  135.7914  156.2478 O   0  0  0  0  0  0  0  0  0  0  0  0
  149.5475  136.5848  154.5324 N   0  0  0  0  0  0  0  0  0  0  0  0
  150.6173  137.1772  155.3311 C   0  0  1  0  0  0  0  0  0  0  0  0
  151.8327  137.5845  154.4802 C   0  0  0  0  0  0  0  0  0  0  0  0
  152.1378  138.9971  154.9428 C   0  0  0  0  0  0  0  0  0  0  0  0
  153.1485  139.6046  154.5921 O   0  0  0  0  0  0  0  0  0  0  0  0
  151.1862  139.4575  155.7624 N   0  0  0  0  0  0  0  0  0  0  0  0
  151.2466  140.7049  156.4663 C   0  0  0  0  0  0  0  0  0  0  0  0
  150.1942  141.0765  157.4934 C   0  0  0  0  0  0  0  0  0  0  0  0
  150.2088  141.7564  156.1463 C   0  0  0  0  0  0  0  0  0  0  0  0
  150.1434  138.4722  156.0153 C   0  0  0  0  0  0  0  0  0  0  0  0
  143.8167  134.7404  151.6653 C   0  0  0  0  0  0  0  0  0  0  0  0
  143.5058  134.1570  150.4871 N   0  3  0  0  0  0  0  0  0  0  0  0
  144.5339  131.8911  148.2158 H   0  0  0  0  0  0  0  0  0  0  0  0
  143.6941  133.4007  147.8460 H   0  0  0  0  0  0  0  0  0  0  0  0
  142.8567  132.1119  148.7229 H   0  0  0  0  0  0  0  0  0  0  0  0
  146.0964  132.0394  150.0976 H   0  0  0  0  0  0  0  0  0  0  0  0
  146.7283  133.0609  152.2816 H   0  0  0  0  0  0  0  0  0  0  0  0
  145.3543  136.0433  153.6212 H   0  0  0  0  0  0  0  0  0  0  0  0
  144.4903  134.7426  154.3948 H   0  0  0  0  0  0  0  0  0  0  0  0
  146.5202  134.3097  155.3922 H   0  0  0  0  0  0  0  0  0  0  0  0
  146.8698  133.4527  153.9159 H   0  0  0  0  0  0  0  0  0  0  0  0
  148.0018  135.5304  153.1196 H   0  0  0  0  0  0  0  0  0  0  0  0
  149.6394  136.6409  153.5285 H   0  0  0  0  0  0  0  0  0  0  0  0
  150.9338  136.4660  156.0967 H   0  0  0  0  0  0  0  0  0  0  0  0
  152.6847  136.9232  154.6416 H   0  0  0  0  0  0  0  0  0  0  0  0
  151.6077  137.6043  153.4131 H   0  0  0  0  0  0  0  0  0  0  0  0
  152.2488  141.0740  156.6793 H   0  0  0  0  0  0  0  0  0  0  0  0
  149.3711  140.3929  157.6896 H   0  0  0  0  0  0  0  0  0  0  0  0
  150.5192  141.6620  158.3510 H   0  0  0  0  0  0  0  0  0  0  0  0
  150.5410  142.7918  156.1074 H   0  0  0  0  0  0  0  0  0  0  0  0
  149.4197  141.4937  155.4444 H   0  0  0  0  0  0  0  0  0  0  0  0
  149.2039  138.8350  155.5943 H   0  0  0  0  0  0  0  0  0  0  0  0
  149.9984  138.3193  157.0856 H   0  0  0  0  0  0  0  0  0  0  0  0
  143.1097  135.4704  152.0320 H   0  0  0  0  0  0  0  0  0  0  0  0
  142.6456  134.4391  150.0163 H   0  0  0  0  0  0  0  0  0  0  0  0
  1  2  1  0  0  0  0
  1 23  1  0  0  0  0
  1 24  1  0  0  0  0
  1 25  1  0  0  0  0
  2 22  1  0  0  0  0
  2  3  2  0  0  0  0
  3  4  1  0  0  0  0
  3 26  1  0  0  0  0
  4  5  2  0  0  0  0
  4 27  1  0  0  0  0
  5  6  1  0  0  0  0
  5 21  1  0  0  0  0
  6  7  1  0  0  0  0
  6 28  1  0  0  0  0
  6 29  1  0  0  0  0
  7  8  1  0  0  0  0
  7 30  1  0  0  0  0
  7 31  1  0  0  0  0
  8  9  1  0  0  0  0
  8 32  1  0  0  0  0
  9 10  2  0  0  0  0
  9 11  1  0  0  0  0
 11 12  1  0  0  0  0
 11 33  1  0  0  0  0
 12 20  1  0  0  0  0
 12 13  1  0  0  0  0
 12 34  1  0  0  0  0
 13 14  1  0  0  0  0
 13 35  1  0  0  0  0
 13 36  1  0  0  0  0
 14 15  2  0  0  0  0
 14 16  1  0  0  0  0
 16 17  1  0  0  0  0
 16 20  1  0  0  0  0
 17 19  1  0  0  0  0
 17 18  1  0  0  0  0
 17 37  1  0  0  0  0
 18 19  1  0  0  0  0
 18 38  1  0  0  0  0
 18 39  1  0  0  0  0
 19 40  1  0  0  0  0
 19 41  1  0  0  0  0
 20 42  1  0  0  0  0
 20 43  1  0  0  0  0
 21 22  2  0  0  0  0
 21 44  1  0  0  0  0
 22 45  1  0  0  0  0
M  CHG  1  22   1
M  END
> <s_m_source_file>
AV-unprocessed.smi

> <i_m_source_file_index>
864

> <i_lp_mmshare_version>
43012

> <i_f3d_flags>
0

> <s_epik_input>
W0NIM11jMVtjSF1bY0hdYyhbY0hdbjEpW0NIMl1bQ0gyXVtOSF1DKD1PKVtOSF1bQ0BASF0yW0NIMl1DKD1PKU4oW0NIMl0yKVtDSF0zW0NIMl1bQ0gyXTM=

> <s_epik_cmdline>
J2VwaWtfcHl0aG9uJywgJy1waCcsICc3LjAnLCAnLXRuJywgJzgnLCAnLW1hJywgJzIwMCcsICctbWV0YWxfYmluZGluZycsICctaW1hZScsICc8aW5maWxlLm1hZT4nLCAnLW9tYWUnLCAnPG91dGZpbGUubWFlPic=

> <r_epik_Ionization_Penalty>
1.42657

> <r_epik_Ionization_Penalty_Charging>
1.42653

> <r_epik_Ionization_Penalty_Neutral>
4.57062e-05

> <r_epik_State_Penalty>
1.51075

> <r_epik_Charging_Adjusted_Penalty>
2.93728

> <i_epik_Tot_Q>
1

> <i_epik_Tot_abs_Q>
1

> <r_epik_Metal_State_Penalty>
1.56242

> <b_epik_Metal_Only>
0

> <s_lp_Force_Field>
OPLS_2005

> <r_lp_Energy>
39.135

> <b_lp_Chiralities_Consistent>
1

> <s_lp_Variant>
AV-unprocessed.smi:864-4

> <Gold.Version>
5.8.1

> <Gold.Id.Protein>
6NUR|6NUR_protein|mol2

> <Gold.PLP.Fitness>
51.3242

> <Gold.PLP.PLP>
-37.1364

> <Gold.PLP.part.hbond>
-5.0000

> <Gold.PLP.part.metal>
0.0000

> <Gold.PLP.part.buried>
-4.3929

> <Gold.PLP.part.nonpolar>
-28.6401

> <Gold.PLP.part.repulsive>
0.0974

> <Gold.PLP.ligand.clash>
0.0000

> <Gold.PLP.ligand.torsion>
0.5363

> <Gold.PLP.Chemscore.Hbond>
5.0284

> <Gold.PLP.Chemscore.CHOScore>
0.0000

> <Gold.PLP.Chemscore.Metal>
0.0000

> <Gold.Chemscore.Hbonds>
donor molecule, donor type, donor heavy atom, donor atom, acceptor molecule, acceptor atom, score
      L1  H     8    32       P1  7948  1.00
      L1  H    11    33       P1  7948  0.99
      L1  H    22    45       P1 10186  2.00
      P1  H  7989  7998       L1    15  0.03
      P1  H  7997  8009       L1    15  1.00

> <Gold.PLP.Chemscore.Internal.Correction>
0.1751

> <Gold.Rescore>
     Score         DG    S(hbond)    S(metal)    S(lipo)     H(rot)  DE(clash)    DE(int)     intcor
     22.17     -22.93       3.73        0.00      82.88       1.84       0.12       0.64       ----

> <Gold.Chemscore.Fitness>
22.1709

> <Gold.Chemscore.DG>
-22.9274

> <Gold.Chemscore.ZeroCoef>
-5.4800

> <Gold.Chemscore.Hbond>
3.7293

> <Gold.Chemscore.Metal>
0.0000

> <Gold.Chemscore.Lipo>
82.8800

> <Gold.Chemscore.Internal_Hbond>
0.0000

> <Gold.Chemscore.DEClash>
0.1151

> <Gold.Chemscore.DEInternal>
0.6413

> <Gold.Chemscore.Rot>
1.8381

> <Gold.Chemscore.Internal.Correction>
   9.000000E+99

> <Gold.Chemscore.Hbonds>
donor molecule, donor type, donor heavy atom, donor atom, acceptor molecule, acceptor atom, score
      L1  H     8    32       P1  7948  0.98
      L1  H    11    33       P1  7948  0.57
      L1  H    22    45       P1 10186  0.85
      P1  H  7997  8009       L1    15  0.99

> <Gold.Chemscore.Hbond.Weighted>
-12.4558

> <Gold.Chemscore.Metal.Weighted>
-0.0000

> <Gold.Chemscore.Lipo.Weighted>
-9.6970

> <Gold.Chemscore.Internal_Hbond.Weighted>
0.0000

> <Gold.Chemscore.DEClash.Weighted>
0.1151

> <Gold.Chemscore.DEInternal.Weighted>
0.6413

> <Gold.Chemscore.Rot.Weighted>
4.7054

> <Gold.Chemscore.Internal.Correction.Weighted>
   9.000000E+99

> <Gold.Protein.RotatedTorsions>
[ 6907 6896 6895 6894 ] final  -24.37 input  -60.11 | X-H torsion
[ 7974 7965 7964 7962 ] final  -92.17 input  175.53 | X-H torsion
[ 8008 7997 7996 7995 ] final -116.85 input   59.86 | X-H torsion
[ 10167 10162 10161 10158 ] final  175.70 input  -65.29 | X-H torsion
[ 10718 10713 10712 10709 ] final   78.70 input   66.30 | X-H torsion
[ 10763 10752 10751 10750 ] final  122.08 input  -60.55 | X-H torsion
[ 11005 11000 10999 10996 ] final  122.82 input  -57.11 | X-H torsion

> <Gold.Protein.ActiveResidues>
 VAL166  LYS551  ARG553  GLY616  TRP617  ASP618  TYR619  PRO620  LYS621  CYS622 
 ASP623  PHE694  ASN695  SER759  ASP760  ASP761  ALA762  ILE779  LEU786  VAL792 
 PHE793  MET794  SER795  GLU796  ALA797  LYS798  CYS799  TRP800  GLU811  SER814 

> <Gold.Protein.RotatedAtoms>
  151.1906  135.0400  159.8830 H   0  0  0  0  0  0  0  0  0  0  0  0  # atno 6907 bound_to 6896
  152.5439  134.0961  159.8308 H   0  0  0  0  0  0  0  0  0  0  0  0  # atno 6908 bound_to 6896
  151.1089  133.5141  159.2638 H   0  0  0  0  0  0  0  0  0  0  0  0  # atno 6909 bound_to 6896
  145.4034  140.9539  143.2274 H   0  0  0  0  0  0  0  0  0  0  0  0  # atno 7974 bound_to 7965
  155.0744  140.0393  157.2619 H   0  0  0  0  0  0  0  0  0  0  0  0  # atno 8008 bound_to 7997
  154.6956  140.2662  155.6744 H   0  0  0  0  0  0  0  0  0  0  0  0  # atno 8009 bound_to 7997
  156.2743  140.2750  156.1550 H   0  0  0  0  0  0  0  0  0  0  0  0  # atno 8010 bound_to 7997
  139.5187  144.3001  152.0386 H   0  0  0  0  0  0  0  0  0  0  0  0  # atno 10167 bound_to 10162
  157.6753  130.9880  150.1824 H   0  0  0  0  0  0  0  0  0  0  0  0  # atno 10718 bound_to 10713
  153.6242  135.3408  155.3021 H   0  0  0  0  0  0  0  0  0  0  0  0  # atno 10763 bound_to 10752
  154.8594  135.4280  154.2175 H   0  0  0  0  0  0  0  0  0  0  0  0  # atno 10764 bound_to 10752
  153.3055  135.7028  153.7236 H   0  0  0  0  0  0  0  0  0  0  0  0  # atno 10765 bound_to 10752
  139.9285  134.9641  156.8166 H   0  0  0  0  0  0  0  0  0  0  0  0  # atno 11005 bound_to 11000
  144.8358  139.5552  143.6923 LP  0  0  0  0  0  0  0  0  0  0  0  0  # atno 17320 bound_to 7965
  146.2740  139.6707  142.9276 LP  0  0  0  0  0  0  0  0  0  0  0  0  # atno 17321 bound_to 7965
  140.2449  144.4231  150.6245 LP  0  0  0  0  0  0  0  0  0  0  0  0  # atno 17342 bound_to 10162
  140.6265  143.2182  151.6585 LP  0  0  0  0  0  0  0  0  0  0  0  0  # atno 17343 bound_to 10162
  156.2554  130.3705  149.8187 LP  0  0  0  0  0  0  0  0  0  0  0  0  # atno 17370 bound_to 10713
  156.5948  130.8521  151.3417 LP  0  0  0  0  0  0  0  0  0  0  0  0  # atno 17371 bound_to 10713
  140.6268  133.9942  155.7643 LP  0  0  0  0  0  0  0  0  0  0  0  0  # atno 17394 bound_to 11000
  141.0859  133.9992  157.3315 LP  0  0  0  0  0  0  0  0  0  0  0  0  # atno 17395 bound_to 11000

$$$$
