AV-unprocessed.smi:213|AV-procd|sdf|1645|dock3
  -GOLD-   2262020 23D 1   1.00000     0.00000
 Structure written by MMmdl.
 58 61  0  0  0  0  0  0  0  0  1 V2000
  146.7637  136.9030  154.4958 C   0  0  0  0  0  0  0  0  0  0  0  0
  145.9607  137.7476  153.4913 C   0  0  2  0  0  0  0  0  0  0  0  0
  145.2914  136.8839  152.3987 C   0  0  0  0  0  0  0  0  0  0  0  0
  143.8989  136.5137  152.6534 N   0  0  0  0  0  0  0  0  0  0  0  0
  143.7734  135.2349  153.3507 C   0  0  0  0  0  0  0  0  0  0  0  0
  142.3037  134.8781  153.6356 C   0  0  0  0  0  0  0  0  0  0  0  0
  141.6884  135.9264  154.3772 O   0  0  0  0  0  0  0  0  0  0  0  0
  141.7499  137.1809  153.7068 C   0  0  0  0  0  0  0  0  0  0  0  0
  143.2191  137.5441  153.4309 C   0  0  0  0  0  0  0  0  0  0  0  0
  146.8010  138.7893  152.8921 N   0  0  0  0  0  0  0  0  0  0  0  0
  146.6351  139.1602  151.4880 C   0  0  0  0  0  0  0  0  0  0  0  0
  147.3898  139.6914  153.7194 C   0  0  0  0  0  0  0  0  0  0  0  0
  146.7211  140.8312  154.0407 N   0  0  0  0  0  0  0  0  0  0  0  0
  147.2790  141.7394  154.8468 C   0  0  0  0  0  0  0  0  0  0  0  0
  148.4803  141.7148  155.4263 N   0  0  0  0  0  0  0  0  0  0  0  0
  149.1618  140.5801  155.0993 C   0  0  0  0  0  0  0  0  0  0  0  0
  148.6963  139.5252  154.2637 C   0  0  0  0  0  0  0  0  0  0  0  0
  149.6787  138.5466  154.1525 N   0  0  0  0  0  0  0  0  0  0  0  0
  150.6620  138.9928  154.8852 C   0  0  0  0  0  0  0  0  0  0  0  0
  150.4389  140.2125  155.4818 N   0  0  0  0  0  0  0  0  0  0  0  0
  151.3603  140.9530  156.3253 C   0  0  0  0  0  0  0  0  0  0  0  0
  150.6846  142.1579  157.0100 C   0  0  2  0  0  0  0  0  0  0  0  0
  150.8452  143.3038  156.1950 O   0  0  0  0  0  0  0  0  0  0  0  0
  151.2733  142.4487  158.4028 C   0  0  1  0  0  0  0  0  0  0  0  0
  152.7352  142.9010  158.3864 C   0  0  0  0  0  0  0  0  0  0  0  0
  152.8339  143.6694  159.6833 C   0  0  0  0  0  0  0  0  0  0  0  0
  151.4813  144.3729  159.7274 C   0  0  0  0  0  0  0  0  0  0  0  0
  150.5748  143.5263  159.0248 O   0  0  0  0  0  0  0  0  0  0  0  0
  146.1183  136.1956  155.0167 H   0  0  0  0  0  0  0  0  0  0  0  0
  147.2277  137.5362  155.2525 H   0  0  0  0  0  0  0  0  0  0  0  0
  147.5520  136.3283  154.0099 H   0  0  0  0  0  0  0  0  0  0  0  0
  145.1654  138.2328  154.0514 H   0  0  0  0  0  0  0  0  0  0  0  0
  145.3540  137.4023  151.4405 H   0  0  0  0  0  0  0  0  0  0  0  0
  145.8812  135.9737  152.2817 H   0  0  0  0  0  0  0  0  0  0  0  0
  144.2139  134.4327  152.7604 H   0  0  0  0  0  0  0  0  0  0  0  0
  144.3250  135.2706  154.2916 H   0  0  0  0  0  0  0  0  0  0  0  0
  141.7594  134.7147  152.7042 H   0  0  0  0  0  0  0  0  0  0  0  0
  142.2422  133.9529  154.2089 H   0  0  0  0  0  0  0  0  0  0  0  0
  141.1823  137.1330  152.7761 H   0  0  0  0  0  0  0  0  0  0  0  0
  141.2808  137.9425  154.3299 H   0  0  0  0  0  0  0  0  0  0  0  0
  143.7374  137.6949  154.3791 H   0  0  0  0  0  0  0  0  0  0  0  0
  143.2591  138.4957  152.8995 H   0  0  0  0  0  0  0  0  0  0  0  0
  147.5584  139.5821  151.0890 H   0  0  0  0  0  0  0  0  0  0  0  0
  145.8416  139.8997  151.3761 H   0  0  0  0  0  0  0  0  0  0  0  0
  146.3775  138.2959  150.8772 H   0  0  0  0  0  0  0  0  0  0  0  0
  146.6776  142.6122  155.0544 H   0  0  0  0  0  0  0  0  0  0  0  0
  151.5877  138.4475  155.0002 H   0  0  0  0  0  0  0  0  0  0  0  0
  151.7621  140.2667  157.0715 H   0  0  0  0  0  0  0  0  0  0  0  0
  152.2042  141.2824  155.7176 H   0  0  0  0  0  0  0  0  0  0  0  0
  149.6156  141.9638  157.1077 H   0  0  0  0  0  0  0  0  0  0  0  0
  150.0472  143.8088  156.2305 H   0  0  0  0  0  0  0  0  0  0  0  0
  151.1757  141.5737  159.0479 H   0  0  0  0  0  0  0  0  0  0  0  0
  153.4375  142.0688  158.3287 H   0  0  0  0  0  0  0  0  0  0  0  0
  152.9247  143.5675  157.5437 H   0  0  0  0  0  0  0  0  0  0  0  0
  152.9277  142.9780  160.5221 H   0  0  0  0  0  0  0  0  0  0  0  0
  153.6770  144.3603  159.7113 H   0  0  0  0  0  0  0  0  0  0  0  0
  151.1439  144.5594  160.7472 H   0  0  0  0  0  0  0  0  0  0  0  0
  151.5318  145.3299  159.2068 H   0  0  0  0  0  0  0  0  0  0  0  0
  1  2  1  0  0  0  0
  1 29  1  0  0  0  0
  1 30  1  0  0  0  0
  1 31  1  0  0  0  0
  2  3  1  0  0  0  0
  2 10  1  0  0  0  0
  2 32  1  0  0  0  0
  3  4  1  0  0  0  0
  3 33  1  0  0  0  0
  3 34  1  0  0  0  0
  4  9  1  0  0  0  0
  4  5  1  0  0  0  0
  5  6  1  0  0  0  0
  5 35  1  0  0  0  0
  5 36  1  0  0  0  0
  6  7  1  0  0  0  0
  6 37  1  0  0  0  0
  6 38  1  0  0  0  0
  7  8  1  0  0  0  0
  8  9  1  0  0  0  0
  8 39  1  0  0  0  0
  8 40  1  0  0  0  0
  9 41  1  0  0  0  0
  9 42  1  0  0  0  0
 10 11  1  0  0  0  0
 10 12  1  0  0  0  0
 11 43  1  0  0  0  0
 11 44  1  0  0  0  0
 11 45  1  0  0  0  0
 12 17  1  0  0  0  0
 12 13  2  0  0  0  0
 13 14  1  0  0  0  0
 14 15  2  0  0  0  0
 14 46  1  0  0  0  0
 15 16  1  0  0  0  0
 16 20  1  0  0  0  0
 16 17  2  0  0  0  0
 17 18  1  0  0  0  0
 18 19  2  0  0  0  0
 19 20  1  0  0  0  0
 19 47  1  0  0  0  0
 20 21  1  0  0  0  0
 21 22  1  0  0  0  0
 21 48  1  0  0  0  0
 21 49  1  0  0  0  0
 22 23  1  0  0  0  0
 22 24  1  0  0  0  0
 22 50  1  0  0  0  0
 23 51  1  0  0  0  0
 24 28  1  0  0  0  0
 24 25  1  0  0  0  0
 24 52  1  0  0  0  0
 25 26  1  0  0  0  0
 25 53  1  0  0  0  0
 25 54  1  0  0  0  0
 26 27  1  0  0  0  0
 26 55  1  0  0  0  0
 26 56  1  0  0  0  0
 27 28  1  0  0  0  0
 27 57  1  0  0  0  0
 27 58  1  0  0  0  0
M  END
> <s_m_source_file>
AV-unprocessed.smi

> <i_m_source_file_index>
213

> <i_lp_mmshare_version>
43012

> <i_f3d_flags>
0

> <s_epik_input>
W0NIMl0xW0NIMl1PW0NIMl1bQ0gyXU4xW0NIMl1bQ0BASF0oW0NIM10pTihbQ0gzXSljKG5bY0hdbjIpYyhjMjMpbltjSF1uM1tDSDJdW0NASF0oW09IXSlbQ0BASF00W0NIMl1bQ0gyXVtDSDJdTzQ=

> <s_epik_cmdline>
J2VwaWtfcHl0aG9uJywgJy1waCcsICc3LjAnLCAnLXRuJywgJzgnLCAnLW1hJywgJzIwMCcsICctbWV0YWxfYmluZGluZycsICctaW1hZScsICc8aW5maWxlLm1hZT4nLCAnLW9tYWUnLCAnPG91dGZpbGUubWFlPic=

> <r_lp_tautomer_probability>
1

> <r_epik_Ionization_Penalty>
0.423322

> <r_epik_Ionization_Penalty_Charging>
0

> <r_epik_Ionization_Penalty_Neutral>
0.423322

> <r_epik_State_Penalty>
0.569486

> <r_epik_Charging_Adjusted_Penalty>
0.569486

> <i_epik_Tot_Q>
0

> <i_epik_Tot_abs_Q>
0

> <r_epik_Metal_State_Penalty>
0.568671

> <b_epik_Metal_Only>
0

> <s_lp_Force_Field>
OPLS_2005

> <r_lp_Energy>
51.3499

> <b_lp_Chiralities_Consistent>
1

> <s_lp_Variant>
AV-unprocessed.smi:213-13

> <Gold.Version>
5.8.1

> <Gold.Id.Protein>
6NUR|6NUR_protein|mol2

> <Gold.PLP.Fitness>
45.4181

> <Gold.PLP.PLP>
-47.6802

> <Gold.PLP.part.hbond>
-0.5938

> <Gold.PLP.part.metal>
0.0000

> <Gold.PLP.part.buried>
-5.5998

> <Gold.PLP.part.nonpolar>
-43.5972

> <Gold.PLP.part.repulsive>
1.2950

> <Gold.PLP.ligand.clash>
0.0069

> <Gold.PLP.ligand.torsion>
3.1446

> <Gold.PLP.Chemscore.Hbond>
1.0000

> <Gold.PLP.Chemscore.CHOScore>
0.0000

> <Gold.PLP.Chemscore.Metal>
0.0000

> <Gold.Chemscore.Hbonds>
donor molecule, donor type, donor heavy atom, donor atom, acceptor molecule, acceptor atom, score
      L1  H    23    51       P1  8028  1.00

> <Gold.PLP.Chemscore.Internal.Correction>
1.0339

> <Gold.Rescore>
     Score         DG    S(hbond)    S(metal)    S(lipo)     H(rot)  DE(clash)    DE(int)     intcor
      8.50     -13.48       0.99        0.00     100.17       2.74       0.27       4.71       ----

> <Gold.Chemscore.Fitness>
8.4951

> <Gold.Chemscore.DG>
-13.4822

> <Gold.Chemscore.ZeroCoef>
-5.4800

> <Gold.Chemscore.Hbond>
0.9853

> <Gold.Chemscore.Metal>
0.0000

> <Gold.Chemscore.Lipo>
100.1716

> <Gold.Chemscore.Internal_Hbond>
0.0000

> <Gold.Chemscore.DEClash>
0.2746

> <Gold.Chemscore.DEInternal>
4.7124

> <Gold.Chemscore.Rot>
2.7378

> <Gold.Chemscore.Internal.Correction>
   9.000000E+99

> <Gold.Chemscore.Hbonds>
donor molecule, donor type, donor heavy atom, donor atom, acceptor molecule, acceptor atom, score
      L1  H    23    51       P1  8028  0.96

> <Gold.Chemscore.Hbond.Weighted>
-3.2908

> <Gold.Chemscore.Metal.Weighted>
-0.0000

> <Gold.Chemscore.Lipo.Weighted>
-11.7201

> <Gold.Chemscore.Internal_Hbond.Weighted>
0.0000

> <Gold.Chemscore.DEClash.Weighted>
0.2746

> <Gold.Chemscore.DEInternal.Weighted>
4.7124

> <Gold.Chemscore.Rot.Weighted>
7.0087

> <Gold.Chemscore.Internal.Correction.Weighted>
   9.000000E+99

> <Gold.Protein.RotatedTorsions>
[ 6907 6896 6895 6894 ] final  -19.12 input  -60.11 | X-H torsion
[ 7974 7965 7964 7962 ] final  -77.69 input  175.53 | X-H torsion
[ 8008 7997 7996 7995 ] final   69.31 input   59.86 | X-H torsion
[ 10167 10162 10161 10158 ] final  -80.99 input  -65.29 | X-H torsion
[ 10718 10713 10712 10709 ] final  -70.85 input   66.30 | X-H torsion
[ 10763 10752 10751 10750 ] final  -29.92 input  -60.55 | X-H torsion
[ 11005 11000 10999 10996 ] final  150.06 input  -57.11 | X-H torsion

> <Gold.Protein.ActiveResidues>
 VAL166  LYS551  ARG553  GLY616  TRP617  ASP618  TYR619  PRO620  LYS621  CYS622 
 ASP623  PHE694  ASN695  SER759  ASP760  ASP761  ALA762  ILE779  LEU786  VAL792 
 PHE793  MET794  SER795  GLU796  ALA797  LYS798  CYS799  TRP800  GLU811  SER814 

> <Gold.Protein.RotatedAtoms>
  151.2679  135.0675  159.9122 H   0  0  0  0  0  0  0  0  0  0  0  0  # atno 6907 bound_to 6896
  152.5355  134.0162  159.7971 H   0  0  0  0  0  0  0  0  0  0  0  0  # atno 6908 bound_to 6896
  151.0395  133.5669  159.2683 H   0  0  0  0  0  0  0  0  0  0  0  0  # atno 6909 bound_to 6896
  145.5963  140.9418  143.1265 H   0  0  0  0  0  0  0  0  0  0  0  0  # atno 7974 bound_to 7965
  155.7217  140.3493  155.5019 H   0  0  0  0  0  0  0  0  0  0  0  0  # atno 8008 bound_to 7997
  155.9263  140.1076  157.1189 H   0  0  0  0  0  0  0  0  0  0  0  0  # atno 8009 bound_to 7997
  154.4078  140.1240  156.4732 H   0  0  0  0  0  0  0  0  0  0  0  0  # atno 8010 bound_to 7997
  140.4453  143.2501  151.8567 H   0  0  0  0  0  0  0  0  0  0  0  0  # atno 10167 bound_to 10162
  156.0389  130.4339  150.2356 H   0  0  0  0  0  0  0  0  0  0  0  0  # atno 10718 bound_to 10713
  153.7725  135.6911  153.4904 H   0  0  0  0  0  0  0  0  0  0  0  0  # atno 10763 bound_to 10752
  153.1865  135.4487  155.0094 H   0  0  0  0  0  0  0  0  0  0  0  0  # atno 10764 bound_to 10752
  154.8112  135.3378  154.7233 H   0  0  0  0  0  0  0  0  0  0  0  0  # atno 10765 bound_to 10752
  140.1098  134.8931  157.1919 H   0  0  0  0  0  0  0  0  0  0  0  0  # atno 11005 bound_to 11000
  144.7329  139.7672  143.7340 LP  0  0  0  0  0  0  0  0  0  0  0  0  # atno 17320 bound_to 7965
  146.1609  139.4723  142.9989 LP  0  0  0  0  0  0  0  0  0  0  0  0  # atno 17321 bound_to 7965
  139.4792  144.5183  151.8837 LP  0  0  0  0  0  0  0  0  0  0  0  0  # atno 17342 bound_to 10162
  140.4271  144.2165  150.5887 LP  0  0  0  0  0  0  0  0  0  0  0  0  # atno 17343 bound_to 10162
  157.0453  131.0047  151.3271 LP  0  0  0  0  0  0  0  0  0  0  0  0  # atno 17370 bound_to 10713
  157.5180  130.7980  149.7777 LP  0  0  0  0  0  0  0  0  0  0  0  0  # atno 17371 bound_to 10713
  140.3106  134.3028  155.7268 LP  0  0  0  0  0  0  0  0  0  0  0  0  # atno 17394 bound_to 11000
  141.2127  133.7648  156.9771 LP  0  0  0  0  0  0  0  0  0  0  0  0  # atno 17395 bound_to 11000

$$$$
