AV-unprocessed.smi:114|AV-procd|sdf|1111|dock5
  -GOLD-   2262018223D 1   1.00000     0.00000
 Structure written by MMmdl.
 32 34  0  0  0  0  0  0  0  0  1 V2000
  147.5823  135.7139  159.4686 N   0  0  0  0  0  0  0  0  0  0  0  0
  148.0500  136.6589  158.6410 C   0  0  0  0  0  0  0  0  0  0  0  0
  147.2502  137.7099  158.3451 N   0  0  0  0  0  0  0  0  0  0  0  0
  147.6780  138.6758  157.5221 C   0  0  0  0  0  0  0  0  0  0  0  0
  146.8121  139.6881  157.2824 F   0  0  0  0  0  0  0  0  0  0  0  0
  148.8649  138.7532  156.9098 N   0  0  0  0  0  0  0  0  0  0  0  0
  149.6723  137.6944  157.2074 C   0  0  0  0  0  0  0  0  0  0  0  0
  149.3411  136.6098  158.0615 C   0  0  0  0  0  0  0  0  0  0  0  0
  150.4042  135.7197  158.1297 N   0  0  0  0  0  0  0  0  0  0  0  0
  151.3108  136.2536  157.3548 C   0  0  0  0  0  0  0  0  0  0  0  0
  150.9539  137.4490  156.7658 N   0  0  0  0  0  0  0  0  0  0  0  0
  151.7424  138.3194  155.8356 C   0  0  2  0  0  0  0  0  0  0  0  0
  151.1676  139.5919  155.8679 O   0  0  0  0  0  0  0  0  0  0  0  0
  150.7396  139.9946  154.5673 C   0  0  2  0  0  0  0  0  0  0  0  0
  149.4940  140.8942  154.6492 C   0  0  0  0  0  0  0  0  0  0  0  0
  149.2220  141.4589  153.3848 O   0  0  0  0  0  0  0  0  0  0  0  0
  150.5624  138.6843  153.7867 C   0  0  2  0  0  0  0  0  0  0  0  0
  149.2712  138.1306  153.9809 O   0  0  0  0  0  0  0  0  0  0  0  0
  151.6672  137.8215  154.3800 C   0  0  2  0  0  0  0  0  0  0  0  0
  151.4400  136.4323  154.2159 O   0  0  0  0  0  0  0  0  0  0  0  0
  152.7519  138.3258  156.2480 H   0  0  0  0  0  0  0  0  0  0  0  0
  151.5637  140.5421  154.1055 H   0  0  0  0  0  0  0  0  0  0  0  0
  150.7037  138.8354  152.7160 H   0  0  0  0  0  0  0  0  0  0  0  0
  152.6127  138.0802  153.9016 H   0  0  0  0  0  0  0  0  0  0  0  0
  148.1611  134.9204  159.7038 H   0  0  0  0  0  0  0  0  0  0  0  0
  146.6533  135.7972  159.8553 H   0  0  0  0  0  0  0  0  0  0  0  0
  152.2702  135.7844  157.1928 H   0  0  0  0  0  0  0  0  0  0  0  0
  148.6223  140.3054  154.9366 H   0  0  0  0  0  0  0  0  0  0  0  0
  149.6174  141.6799  155.3951 H   0  0  0  0  0  0  0  0  0  0  0  0
  149.0350  140.7594  152.7774 H   0  0  0  0  0  0  0  0  0  0  0  0
  149.1996  137.3491  153.4540 H   0  0  0  0  0  0  0  0  0  0  0  0
  151.1049  136.2890  153.3438 H   0  0  0  0  0  0  0  0  0  0  0  0
  1  2  1  0  0  0  0
  1 25  1  0  0  0  0
  1 26  1  0  0  0  0
  2  8  1  0  0  0  0
  2  3  2  0  0  0  0
  3  4  1  0  0  0  0
  4  5  1  0  0  0  0
  4  6  2  0  0  0  0
  6  7  1  0  0  0  0
  7 11  1  0  0  0  0
  7  8  2  0  0  0  0
  8  9  1  0  0  0  0
  9 10  2  0  0  0  0
 10 11  1  0  0  0  0
 10 27  1  0  0  0  0
 11 12  1  0  0  0  0
 12 21  1  0  0  0  0
 12 19  1  0  0  0  0
 12 13  1  0  0  0  0
 13 14  1  0  0  0  0
 14 22  1  0  0  0  0
 14 15  1  0  0  0  0
 14 17  1  0  0  0  0
 15 16  1  0  0  0  0
 15 28  1  0  0  0  0
 15 29  1  0  0  0  0
 16 30  1  0  0  0  0
 17 23  1  0  0  0  0
 17 18  1  0  0  0  0
 17 19  1  0  0  0  0
 18 31  1  0  0  0  0
 19 24  1  0  0  0  0
 19 20  1  0  0  0  0
 20 32  1  0  0  0  0
M  END
> <s_m_source_file>
AV-unprocessed.smi

> <i_m_source_file_index>
114

> <i_lp_mmshare_version>
43012

> <i_f3d_flags>
0

> <s_epik_input>
RmMobjEpbmMoW05IMl0pYyhjMTIpbltjSF1uMltDQEBIXTNPW0NASF0oW0NIMl1bT0hdKVtDQEBIXShbT0hdKVtDQEBIXTNbT0hd

> <s_epik_cmdline>
J2VwaWtfcHl0aG9uJywgJy1waCcsICc3LjAnLCAnLXRuJywgJzgnLCAnLW1hJywgJzIwMCcsICctbWV0YWxfYmluZGluZycsICctaW1hZScsICc8aW5maWxlLm1hZT4nLCAnLW9tYWUnLCAnPG91dGZpbGUubWFlPic=

> <r_lp_tautomer_probability>
1

> <r_epik_Ionization_Penalty>
1.13199e-05

> <r_epik_Ionization_Penalty_Charging>
0

> <r_epik_Ionization_Penalty_Neutral>
1.13199e-05

> <r_epik_State_Penalty>
-0

> <r_epik_Charging_Adjusted_Penalty>
0

> <i_epik_Tot_Q>
0

> <i_epik_Tot_abs_Q>
0

> <r_epik_Metal_State_Penalty>
-0

> <b_epik_Metal_Only>
0

> <s_epik_Chemistry_Notes>
This compound contains an acetal/aminal-like group ( X-CH(R)-Y where X, Y are N, S, or O) that may be acid/base labile, releasing an aldehyde.

> <s_lp_Force_Field>
OPLS_2005

> <r_lp_Energy>
42.0109

> <b_lp_Chiralities_Consistent>
1

> <s_lp_Variant>
AV-unprocessed.smi:114-5

> <Gold.Version>
5.8.1

> <Gold.Id.Protein>
6NUR|6NUR_protein|mol2

> <Gold.PLP.Fitness>
38.5337

> <Gold.PLP.PLP>
-23.5002

> <Gold.PLP.part.hbond>
-7.1196

> <Gold.PLP.part.metal>
0.0000

> <Gold.PLP.part.buried>
0.9943

> <Gold.PLP.part.nonpolar>
-16.2010

> <Gold.PLP.part.repulsive>
0.1172

> <Gold.PLP.ligand.clash>
0.0000

> <Gold.PLP.ligand.torsion>
0.6471

> <Gold.PLP.Chemscore.Hbond>
5.3593

> <Gold.PLP.Chemscore.CHOScore>
0.0000

> <Gold.PLP.Chemscore.Metal>
0.0000

> <Gold.Chemscore.Hbonds>
donor molecule, donor type, donor heavy atom, donor atom, acceptor molecule, acceptor atom, score
      L1  H    16    30       P1  7957  0.82
      L1  H    18    31       P1  7948  1.00
      L1  H    20    32       P1  7949  1.00
      P1  H  6896  6907       L1     9  0.74
      P1  H  8011  8017       L1    16  0.70
      P1  H 10752 10763       L1    20  1.00

> <Gold.PLP.Chemscore.Internal.Correction>
0.2499

> <Gold.Rescore>
     Score         DG    S(hbond)    S(metal)    S(lipo)     H(rot)  DE(clash)    DE(int)     intcor
      9.16     -11.90       3.80        0.00      34.41       4.03       0.43       2.31       ----

> <Gold.Chemscore.Fitness>
9.1583

> <Gold.Chemscore.DG>
-11.8986

> <Gold.Chemscore.ZeroCoef>
-5.4800

> <Gold.Chemscore.Hbond>
3.8036

> <Gold.Chemscore.Metal>
0.0000

> <Gold.Chemscore.Lipo>
34.4053

> <Gold.Chemscore.Internal_Hbond>
0.0000

> <Gold.Chemscore.DEClash>
0.4327

> <Gold.Chemscore.DEInternal>
2.3076

> <Gold.Chemscore.Rot>
4.0277

> <Gold.Chemscore.Internal.Correction>
   9.000000E+99

> <Gold.Chemscore.Hbonds>
donor molecule, donor type, donor heavy atom, donor atom, acceptor molecule, acceptor atom, score
      L1  H    16    30       P1  7957  0.81
      L1  H    18    31       P1  7948  0.98
      L1  H    20    32       P1  7949  0.34
      P1  H  6896  6907       L1     9  0.73
      P1  H  8011  8017       L1    16  0.08
      P1  H 10752 10763       L1    20  0.26

> <Gold.Chemscore.Hbond.Weighted>
-12.7041

> <Gold.Chemscore.Metal.Weighted>
-0.0000

> <Gold.Chemscore.Lipo.Weighted>
-4.0254

> <Gold.Chemscore.Internal_Hbond.Weighted>
0.0000

> <Gold.Chemscore.DEClash.Weighted>
0.4327

> <Gold.Chemscore.DEInternal.Weighted>
2.3076

> <Gold.Chemscore.Rot.Weighted>
10.3110

> <Gold.Chemscore.Internal.Correction.Weighted>
   9.000000E+99

> <Gold.Protein.RotatedTorsions>
[ 6907 6896 6895 6894 ] final  -62.71 input  -60.11 | X-H torsion
[ 7974 7965 7964 7962 ] final   50.77 input  175.53 | X-H torsion
[ 8008 7997 7996 7995 ] final  -67.28 input   59.86 | X-H torsion
[ 10167 10162 10161 10158 ] final  -50.00 input  -65.29 | X-H torsion
[ 10718 10713 10712 10709 ] final  -93.63 input   66.30 | X-H torsion
[ 10763 10752 10751 10750 ] final   34.33 input  -60.55 | X-H torsion
[ 11005 11000 10999 10996 ] final -102.17 input  -57.11 | X-H torsion

> <Gold.Protein.ActiveResidues>
 VAL166  LYS551  ARG553  GLY616  TRP617  ASP618  TYR619  PRO620  LYS621  CYS622 
 ASP623  PHE694  ASN695  SER759  ASP760  ASP761  ALA762  ILE779  LEU786  VAL792 
 PHE793  MET794  SER795  GLU796  ALA797  LYS798  CYS799  TRP800  GLU811  SER814 

> <Gold.Protein.RotatedAtoms>
  150.7697  134.6534  159.6300 H   0  0  0  0  0  0  0  0  0  0  0  0  # atno 6907 bound_to 6896
  152.3745  134.6681  160.0173 H   0  0  0  0  0  0  0  0  0  0  0  0  # atno 6908 bound_to 6896
  151.7031  133.3275  159.3308 H   0  0  0  0  0  0  0  0  0  0  0  0  # atno 6909 bound_to 6896
  145.9980  139.4408  143.0033 H   0  0  0  0  0  0  0  0  0  0  0  0  # atno 7974 bound_to 7965
  154.4789  140.0896  156.7330 H   0  0  0  0  0  0  0  0  0  0  0  0  # atno 8008 bound_to 7997
  155.4522  140.3458  155.4284 H   0  0  0  0  0  0  0  0  0  0  0  0  # atno 8009 bound_to 7997
  156.1161  140.1461  156.9259 H   0  0  0  0  0  0  0  0  0  0  0  0  # atno 8010 bound_to 7997
  140.6658  143.2675  151.4296 H   0  0  0  0  0  0  0  0  0  0  0  0  # atno 10167 bound_to 10162
  156.0016  130.5035  150.5805 H   0  0  0  0  0  0  0  0  0  0  0  0  # atno 10718 bound_to 10713
  153.0169  135.6363  154.1652 H   0  0  0  0  0  0  0  0  0  0  0  0  # atno 10763 bound_to 10752
  154.1391  135.2836  155.3167 H   0  0  0  0  0  0  0  0  0  0  0  0  # atno 10764 bound_to 10752
  154.6138  135.5547  153.7563 H   0  0  0  0  0  0  0  0  0  0  0  0  # atno 10765 bound_to 10752
  141.1200  133.8537  157.1326 H   0  0  0  0  0  0  0  0  0  0  0  0  # atno 11005 bound_to 11000
  145.7531  140.9965  143.1240 LP  0  0  0  0  0  0  0  0  0  0  0  0  # atno 17320 bound_to 7965
  144.6910  139.9238  143.7469 LP  0  0  0  0  0  0  0  0  0  0  0  0  # atno 17321 bound_to 7965
  139.5907  144.1505  152.2084 LP  0  0  0  0  0  0  0  0  0  0  0  0  # atno 17342 bound_to 10162
  140.0859  144.5662  150.7089 LP  0  0  0  0  0  0  0  0  0  0  0  0  # atno 17343 bound_to 10162
  157.3686  131.0762  151.1577 LP  0  0  0  0  0  0  0  0  0  0  0  0  # atno 17370 bound_to 10713
  157.2338  130.6537  149.5861 LP  0  0  0  0  0  0  0  0  0  0  0  0  # atno 17371 bound_to 10713
  140.0150  134.9971  157.0475 LP  0  0  0  0  0  0  0  0  0  0  0  0  # atno 17394 bound_to 11000
  140.4534  134.1558  155.7184 LP  0  0  0  0  0  0  0  0  0  0  0  0  # atno 17395 bound_to 11000

$$$$
