AV-unprocessed.smi:189|AV-procd|sdf|1488|dock7
  -GOLD-   2262019303D 1   1.00000     0.00000
 Structure written by MMmdl.
 53 57  0  0  0  0  0  0  0  0  1 V2000
  154.1034  138.4989  158.9495 C   0  0  0  0  0  0  0  0  0  0  0  0
  152.8103  139.2710  159.2858 C   0  0  1  0  0  0  0  0  0  0  0  0
  153.1236  140.5244  160.1397 C   0  0  0  0  0  0  0  0  0  0  0  0
  152.2758  141.6187  159.4983 C   0  0  1  0  0  0  0  0  0  0  0  0
  152.7180  143.0788  159.6510 C   0  0  0  0  0  0  0  0  0  0  0  0
  151.7514  143.9820  158.8562 C   0  0  0  0  0  0  0  0  0  0  0  0
  151.5960  143.5292  157.3862 C   0  0  0  0  0  0  0  0  0  0  0  0
  151.2419  142.0321  157.2618 C   0  0  0  0  0  0  0  0  0  0  0  0
  152.2865  141.2049  158.0343 C   0  0  2  0  0  0  0  0  0  0  0  0
  152.0792  139.7669  158.1104 N   0  0  0  0  0  0  0  0  0  0  0  0
  151.9908  138.9850  157.0046 C   0  0  0  0  0  0  0  0  0  0  0  0
  152.7305  139.2805  155.9035 N   0  0  0  0  0  0  0  0  0  0  0  0
  152.6591  138.5071  154.8164 C   0  0  0  0  0  0  0  0  0  0  0  0
  151.9303  137.4064  154.6218 N   0  0  0  0  0  0  0  0  0  0  0  0
  151.1907  137.1012  155.7263 C   0  0  0  0  0  0  0  0  0  0  0  0
  151.1601  137.8317  156.9475 C   0  0  0  0  0  0  0  0  0  0  0  0
  150.2859  137.2251  157.8410 N   0  0  0  0  0  0  0  0  0  0  0  0
  149.8318  136.1904  157.1885 C   0  0  0  0  0  0  0  0  0  0  0  0
  150.3274  136.0358  155.9135 N   0  0  0  0  0  0  0  0  0  0  0  0
  149.9957  134.9746  154.9753 C   0  0  0  0  0  0  0  0  0  0  0  0
  149.9500  133.5731  155.6274 C   0  0  2  0  0  0  0  0  0  0  0  0
  149.8041  132.5973  154.6098 O   0  0  0  0  0  0  0  0  0  0  0  0
  148.8229  133.3899  156.6401 C   0  0  0  0  0  0  0  0  0  0  0  0
  149.4203  132.4078  157.6380 C   0  0  0  0  0  0  0  0  0  0  0  0
  150.7626  132.8514  157.7409 O   0  0  0  0  0  0  0  0  0  0  0  0
  151.2128  133.2377  156.4461 C   0  0  0  0  0  0  0  0  0  0  0  0
  154.6382  138.2268  159.8599 H   0  0  0  0  0  0  0  0  0  0  0  0
  154.7763  139.0993  158.3362 H   0  0  0  0  0  0  0  0  0  0  0  0
  153.8984  137.5731  158.4123 H   0  0  0  0  0  0  0  0  0  0  0  0
  152.1351  138.6237  159.8465 H   0  0  0  0  0  0  0  0  0  0  0  0
  152.8895  140.3804  161.1947 H   0  0  0  0  0  0  0  0  0  0  0  0
  154.1793  140.7899  160.0677 H   0  0  0  0  0  0  0  0  0  0  0  0
  151.2606  141.5200  159.8889 H   0  0  0  0  0  0  0  0  0  0  0  0
  152.7247  143.3657  160.7029 H   0  0  0  0  0  0  0  0  0  0  0  0
  153.7363  143.2051  159.2811 H   0  0  0  0  0  0  0  0  0  0  0  0
  150.7728  143.9681  159.3375 H   0  0  0  0  0  0  0  0  0  0  0  0
  152.0943  145.0163  158.8923 H   0  0  0  0  0  0  0  0  0  0  0  0
  150.8344  144.1323  156.8913 H   0  0  0  0  0  0  0  0  0  0  0  0
  152.5290  143.7194  156.8543 H   0  0  0  0  0  0  0  0  0  0  0  0
  150.2442  141.8493  157.6626 H   0  0  0  0  0  0  0  0  0  0  0  0
  151.2105  141.7533  156.2093 H   0  0  0  0  0  0  0  0  0  0  0  0
  153.2757  141.3819  157.6071 H   0  0  0  0  0  0  0  0  0  0  0  0
  153.2762  138.8133  153.9845 H   0  0  0  0  0  0  0  0  0  0  0  0
  149.1215  135.5024  157.6235 H   0  0  0  0  0  0  0  0  0  0  0  0
  149.0342  135.2102  154.5172 H   0  0  0  0  0  0  0  0  0  0  0  0
  150.7293  134.9908  154.1683 H   0  0  0  0  0  0  0  0  0  0  0  0
  148.9285  132.2442  154.6573 H   0  0  0  0  0  0  0  0  0  0  0  0
  148.6228  134.3293  157.1564 H   0  0  0  0  0  0  0  0  0  0  0  0
  147.8852  133.0456  156.2014 H   0  0  0  0  0  0  0  0  0  0  0  0
  148.9146  132.4254  158.6036 H   0  0  0  0  0  0  0  0  0  0  0  0
  149.3957  131.3879  157.2511 H   0  0  0  0  0  0  0  0  0  0  0  0
  151.7875  132.4238  156.0007 H   0  0  0  0  0  0  0  0  0  0  0  0
  151.8826  134.0928  156.5443 H   0  0  0  0  0  0  0  0  0  0  0  0
  1  2  1  0  0  0  0
  1 27  1  0  0  0  0
  1 28  1  0  0  0  0
  1 29  1  0  0  0  0
  2 10  1  0  0  0  0
  2  3  1  0  0  0  0
  2 30  1  0  0  0  0
  3  4  1  0  0  0  0
  3 31  1  0  0  0  0
  3 32  1  0  0  0  0
  4  9  1  0  0  0  0
  4  5  1  0  0  0  0
  4 33  1  0  0  0  0
  5  6  1  0  0  0  0
  5 34  1  0  0  0  0
  5 35  1  0  0  0  0
  6  7  1  0  0  0  0
  6 36  1  0  0  0  0
  6 37  1  0  0  0  0
  7  8  1  0  0  0  0
  7 38  1  0  0  0  0
  7 39  1  0  0  0  0
  8  9  1  0  0  0  0
  8 40  1  0  0  0  0
  8 41  1  0  0  0  0
  9 10  1  0  0  0  0
  9 42  1  0  0  0  0
 10 11  1  0  0  0  0
 11 16  1  0  0  0  0
 11 12  2  0  0  0  0
 12 13  1  0  0  0  0
 13 14  2  0  0  0  0
 13 43  1  0  0  0  0
 14 15  1  0  0  0  0
 15 19  1  0  0  0  0
 15 16  2  0  0  0  0
 16 17  1  0  0  0  0
 17 18  2  0  0  0  0
 18 19  1  0  0  0  0
 18 44  1  0  0  0  0
 19 20  1  0  0  0  0
 20 21  1  0  0  0  0
 20 45  1  0  0  0  0
 20 46  1  0  0  0  0
 21 26  1  0  0  0  0
 21 22  1  0  0  0  0
 21 23  1  0  0  0  0
 22 47  1  0  0  0  0
 23 24  1  0  0  0  0
 23 48  1  0  0  0  0
 23 49  1  0  0  0  0
 24 25  1  0  0  0  0
 24 50  1  0  0  0  0
 24 51  1  0  0  0  0
 25 26  1  0  0  0  0
 26 52  1  0  0  0  0
 26 53  1  0  0  0  0
M  END
> <s_m_source_file>
AV-unprocessed.smi

> <i_m_source_file_index>
189

> <i_lp_mmshare_version>
43012

> <i_f3d_flags>
0

> <s_epik_input>
W0NIMl0xW0NIMl1bQ0gyXVtDSDJdW0NASF0oW0NASF0xMilOKFtDQEhdKFtDSDNdKVtDSDJdMiljKG5bY0hdbjMpYyhjMzQpbltjSF1uNFtDSDJdW0NAQF01KFtPSF0pW0NIMl1bQ0gyXU9bQ0gyXTU=

> <s_epik_cmdline>
J2VwaWtfcHl0aG9uJywgJy1waCcsICc3LjAnLCAnLXRuJywgJzgnLCAnLW1hJywgJzIwMCcsICctbWV0YWxfYmluZGluZycsICctaW1hZScsICc8aW5maWxlLm1hZT4nLCAnLW9tYWUnLCAnPG91dGZpbGUubWFlPic=

> <r_lp_tautomer_probability>
1

> <r_epik_Ionization_Penalty>
0.00594261

> <r_epik_Ionization_Penalty_Charging>
0

> <r_epik_Ionization_Penalty_Neutral>
0.00594261

> <r_epik_State_Penalty>
0.00429776

> <r_epik_Charging_Adjusted_Penalty>
0.00429776

> <i_epik_Tot_Q>
0

> <i_epik_Tot_abs_Q>
0

> <r_epik_Metal_State_Penalty>
-0

> <b_epik_Metal_Only>
0

> <s_lp_Force_Field>
OPLS_2005

> <r_lp_Energy>
58.0948

> <b_lp_Chiralities_Consistent>
1

> <s_lp_Variant>
AV-unprocessed.smi:189-14

> <Gold.Version>
5.8.1

> <Gold.Id.Protein>
6NUR|6NUR_protein|mol2

> <Gold.PLP.Fitness>
47.5712

> <Gold.PLP.PLP>
-40.0628

> <Gold.PLP.part.hbond>
-3.0000

> <Gold.PLP.part.metal>
0.0000

> <Gold.PLP.part.buried>
-7.9324

> <Gold.PLP.part.nonpolar>
-29.7662

> <Gold.PLP.part.repulsive>
0.1227

> <Gold.PLP.ligand.clash>
0.0000

> <Gold.PLP.ligand.torsion>
0.7876

> <Gold.PLP.Chemscore.Hbond>
2.8960

> <Gold.PLP.Chemscore.CHOScore>
0.0000

> <Gold.PLP.Chemscore.Metal>
0.0000

> <Gold.Chemscore.Hbonds>
donor molecule, donor type, donor heavy atom, donor atom, acceptor molecule, acceptor atom, score
      P1  H  6896  6909       L1    25  0.99
      P1  H  7997  8010       L1    12  1.00
      P1  H 10752 10764       L1    14  0.90

> <Gold.PLP.Chemscore.Internal.Correction>
0.3955

> <Gold.Rescore>
     Score         DG    S(hbond)    S(metal)    S(lipo)     H(rot)  DE(clash)    DE(int)     intcor
     19.22     -20.12       2.29        0.00     104.03       2.03       0.15       0.75       ----

> <Gold.Chemscore.Fitness>
19.2194

> <Gold.Chemscore.DG>
-20.1194

> <Gold.Chemscore.ZeroCoef>
-5.4800

> <Gold.Chemscore.Hbond>
2.2944

> <Gold.Chemscore.Metal>
0.0000

> <Gold.Chemscore.Lipo>
104.0335

> <Gold.Chemscore.Internal_Hbond>
0.0000

> <Gold.Chemscore.DEClash>
0.1476

> <Gold.Chemscore.DEInternal>
0.7524

> <Gold.Chemscore.Rot>
2.0297

> <Gold.Chemscore.Internal.Correction>
   9.000000E+99

> <Gold.Chemscore.Hbonds>
donor molecule, donor type, donor heavy atom, donor atom, acceptor molecule, acceptor atom, score
      P1  H  6896  6909       L1    25  0.92
      P1  H  7997  8010       L1    12  0.73
      P1  H 10752 10764       L1    14  0.20

> <Gold.Chemscore.Hbond.Weighted>
-7.6634

> <Gold.Chemscore.Metal.Weighted>
-0.0000

> <Gold.Chemscore.Lipo.Weighted>
-12.1719

> <Gold.Chemscore.Internal_Hbond.Weighted>
0.0000

> <Gold.Chemscore.DEClash.Weighted>
0.1476

> <Gold.Chemscore.DEInternal.Weighted>
0.7524

> <Gold.Chemscore.Rot.Weighted>
5.1960

> <Gold.Chemscore.Internal.Correction.Weighted>
   9.000000E+99

> <Gold.Protein.RotatedTorsions>
[ 6907 6896 6895 6894 ] final  -44.50 input  -60.11 | X-H torsion
[ 7974 7965 7964 7962 ] final  -67.33 input  175.53 | X-H torsion
[ 8008 7997 7996 7995 ] final   71.07 input   59.86 | X-H torsion
[ 10167 10162 10161 10158 ] final  -53.62 input  -65.29 | X-H torsion
[ 10718 10713 10712 10709 ] final  140.80 input   66.30 | X-H torsion
[ 10763 10752 10751 10750 ] final  -70.83 input  -60.55 | X-H torsion
[ 11005 11000 10999 10996 ] final  -70.07 input  -57.11 | X-H torsion

> <Gold.Protein.ActiveResidues>
 VAL166  LYS551  ARG553  GLY616  TRP617  ASP618  TYR619  PRO620  LYS621  CYS622 
 ASP623  PHE694  ASN695  SER759  ASP760  ASP761  ALA762  ILE779  LEU786  VAL792 
 PHE793  MET794  SER795  GLU796  ALA797  LYS798  CYS799  TRP800  GLU811  SER814 

> <Gold.Protein.RotatedAtoms>
  150.9322  134.8736  159.7558 H   0  0  0  0  0  0  0  0  0  0  0  0  # atno 6907 bound_to 6896
  152.5043  134.4063  159.9443 H   0  0  0  0  0  0  0  0  0  0  0  0  # atno 6908 bound_to 6896
  151.4089  133.3694  159.2776 H   0  0  0  0  0  0  0  0  0  0  0  0  # atno 6909 bound_to 6896
  145.7306  140.8998  143.0582 H   0  0  0  0  0  0  0  0  0  0  0  0  # atno 7974 bound_to 7965
  155.7483  140.3489  155.5138 H   0  0  0  0  0  0  0  0  0  0  0  0  # atno 8008 bound_to 7997
  155.9029  140.1037  157.1358 H   0  0  0  0  0  0  0  0  0  0  0  0  # atno 8009 bound_to 7997
  154.4046  140.1282  156.4445 H   0  0  0  0  0  0  0  0  0  0  0  0  # atno 8010 bound_to 7997
  140.6475  143.2544  151.4818 H   0  0  0  0  0  0  0  0  0  0  0  0  # atno 10167 bound_to 10162
  157.3992  131.1014  151.0568 H   0  0  0  0  0  0  0  0  0  0  0  0  # atno 10718 bound_to 10713
  154.4233  135.5981  153.6023 H   0  0  0  0  0  0  0  0  0  0  0  0  # atno 10763 bound_to 10752
  152.9795  135.5957  154.3929 H   0  0  0  0  0  0  0  0  0  0  0  0  # atno 10764 bound_to 10752
  154.3757  135.2841  155.2219 H   0  0  0  0  0  0  0  0  0  0  0  0  # atno 10765 bound_to 10752
  141.1567  133.6780  156.6697 H   0  0  0  0  0  0  0  0  0  0  0  0  # atno 11005 bound_to 11000
  144.6894  139.9325  143.7472 LP  0  0  0  0  0  0  0  0  0  0  0  0  # atno 17320 bound_to 7965
  146.0541  139.3539  143.0621 LP  0  0  0  0  0  0  0  0  0  0  0  0  # atno 17321 bound_to 7965
  139.5687  144.1981  152.1804 LP  0  0  0  0  0  0  0  0  0  0  0  0  # atno 17342 bound_to 10162
  140.1270  144.5322  150.6826 LP  0  0  0  0  0  0  0  0  0  0  0  0  # atno 17343 bound_to 10162
  157.1573  130.6210  149.5600 LP  0  0  0  0  0  0  0  0  0  0  0  0  # atno 17370 bound_to 10713
  155.9819  130.4829  150.6851 LP  0  0  0  0  0  0  0  0  0  0  0  0  # atno 17371 bound_to 10713
  140.3184  134.8028  157.4233 LP  0  0  0  0  0  0  0  0  0  0  0  0  # atno 17394 bound_to 11000
  140.1118  134.5336  155.8260 LP  0  0  0  0  0  0  0  0  0  0  0  0  # atno 17395 bound_to 11000

$$$$
