AV-unprocessed.smi:2513|AV-procd|sdf|9891|dock4
  -GOLD-   2272013523D 1   1.00000     0.00000
 Structure written by MMmdl.
 35 36  0  0  0  0  0  0  0  0  1 V2000
  151.5947  145.3442  159.9141 C   0  0  0  0  0  0  0  0  0  0  0  0
  151.4355  144.2451  159.0291 O   0  0  0  0  0  0  0  0  0  0  0  0
  152.2117  143.1213  159.2359 C   0  0  0  0  0  0  0  0  0  0  0  0
  153.1593  143.0052  160.2849 C   0  0  0  0  0  0  0  0  0  0  0  0
  153.9049  141.8206  160.4136 C   0  0  0  0  0  0  0  0  0  0  0  0
  153.6770  140.7892  159.4882 C   0  0  0  0  0  0  0  0  0  0  0  0
  152.7795  140.8856  158.4879 N   0  0  0  0  0  0  0  0  0  0  0  0
  152.0533  142.0232  158.3507 C   0  0  0  0  0  0  0  0  0  0  0  0
  151.0880  142.2034  157.3214 N   0  0  0  0  0  0  0  0  0  0  0  0
  150.7124  141.3362  156.3650 C   0  0  0  0  0  0  0  0  0  0  0  0
  151.1604  140.1988  156.2172 O   0  0  0  0  0  0  0  0  0  0  0  0
  149.7693  141.8675  155.5736 N   0  0  0  0  0  0  0  0  0  0  0  0
  149.1450  141.1931  154.4394 C   0  0  2  0  0  0  0  0  0  0  0  0
  147.8289  141.8968  154.0763 C   0  0  0  0  0  0  0  0  0  0  0  0
  147.1009  141.1131  152.9785 C   0  0  0  0  0  0  0  0  0  0  0  0
  146.9423  139.6398  153.3861 C   0  0  0  0  0  0  0  0  0  0  0  0
  148.2186  139.0765  153.6697 O   0  0  0  0  0  0  0  0  0  0  0  0
  148.8774  139.7080  154.7631 C   0  0  0  0  0  0  0  0  0  0  0  0
  150.9151  146.1439  159.6195 H   0  0  0  0  0  0  0  0  0  0  0  0
  152.6093  145.7433  159.8762 H   0  0  0  0  0  0  0  0  0  0  0  0
  151.3523  145.0677  160.9410 H   0  0  0  0  0  0  0  0  0  0  0  0
  153.3306  143.8007  160.9937 H   0  0  0  0  0  0  0  0  0  0  0  0
  154.6338  141.7061  161.2022 H   0  0  0  0  0  0  0  0  0  0  0  0
  154.2291  139.8631  159.5514 H   0  0  0  0  0  0  0  0  0  0  0  0
  150.6301  143.1029  157.3164 H   0  0  0  0  0  0  0  0  0  0  0  0
  149.4596  142.8083  155.7683 H   0  0  0  0  0  0  0  0  0  0  0  0
  149.8119  141.2506  153.5769 H   0  0  0  0  0  0  0  0  0  0  0  0
  147.1877  141.9650  154.9566 H   0  0  0  0  0  0  0  0  0  0  0  0
  148.0195  142.9189  153.7463 H   0  0  0  0  0  0  0  0  0  0  0  0
  146.1251  141.5578  152.7817 H   0  0  0  0  0  0  0  0  0  0  0  0
  147.6668  141.1740  152.0482 H   0  0  0  0  0  0  0  0  0  0  0  0
  146.2891  139.5441  154.2549 H   0  0  0  0  0  0  0  0  0  0  0  0
  146.4797  139.0748  152.5767 H   0  0  0  0  0  0  0  0  0  0  0  0
  149.8153  139.1833  154.9475 H   0  0  0  0  0  0  0  0  0  0  0  0
  148.2746  139.6060  155.6670 H   0  0  0  0  0  0  0  0  0  0  0  0
  1  2  1  0  0  0  0
  1 19  1  0  0  0  0
  1 20  1  0  0  0  0
  1 21  1  0  0  0  0
  2  3  1  0  0  0  0
  3  8  1  0  0  0  0
  3  4  2  0  0  0  0
  4  5  1  0  0  0  0
  4 22  1  0  0  0  0
  5  6  2  0  0  0  0
  5 23  1  0  0  0  0
  6  7  1  0  0  0  0
  6 24  1  0  0  0  0
  7  8  2  0  0  0  0
  8  9  1  0  0  0  0
  9 10  1  0  0  0  0
  9 25  1  0  0  0  0
 10 11  2  0  0  0  0
 10 12  1  0  0  0  0
 12 13  1  0  0  0  0
 12 26  1  0  0  0  0
 13 18  1  0  0  0  0
 13 14  1  0  0  0  0
 13 27  1  0  0  0  0
 14 15  1  0  0  0  0
 14 28  1  0  0  0  0
 14 29  1  0  0  0  0
 15 16  1  0  0  0  0
 15 30  1  0  0  0  0
 15 31  1  0  0  0  0
 16 17  1  0  0  0  0
 16 32  1  0  0  0  0
 16 33  1  0  0  0  0
 17 18  1  0  0  0  0
 18 34  1  0  0  0  0
 18 35  1  0  0  0  0
M  END
> <s_m_source_file>
AV-unprocessed.smi

> <i_m_source_file_index>
2513

> <i_lp_mmshare_version>
43012

> <i_f3d_flags>
0

> <s_epik_input>
W0NIM11PYzFbY0hdW2NIXVtjSF1uYzFbTkhdQyg9TylbTkhdW0NAQEhdMltDSDJdW0NIMl1bQ0gyXU9bQ0gyXTI=

> <s_epik_cmdline>
J2VwaWtfcHl0aG9uJywgJy1waCcsICc3LjAnLCAnLXRuJywgJzgnLCAnLW1hJywgJzIwMCcsICctbWV0YWxfYmluZGluZycsICctaW1hZScsICc8aW5maWxlLm1hZT4nLCAnLW9tYWUnLCAnPG91dGZpbGUubWFlPic=

> <r_lp_tautomer_probability>
1

> <r_epik_Ionization_Penalty>
3.98976e-05

> <r_epik_Ionization_Penalty_Charging>
0

> <r_epik_Ionization_Penalty_Neutral>
3.98976e-05

> <r_epik_State_Penalty>
-0

> <r_epik_Charging_Adjusted_Penalty>
0

> <i_epik_Tot_Q>
0

> <i_epik_Tot_abs_Q>
0

> <r_epik_Metal_State_Penalty>
-0

> <b_epik_Metal_Only>
0

> <s_lp_Force_Field>
OPLS_2005

> <r_lp_Energy>
12.9865

> <b_lp_Chiralities_Consistent>
1

> <s_lp_Variant>
AV-unprocessed.smi:2513-1

> <Gold.Version>
5.8.1

> <Gold.Id.Protein>
6NUR|6NUR_protein|mol2

> <Gold.PLP.Fitness>
39.8649

> <Gold.PLP.PLP>
-37.4034

> <Gold.PLP.part.hbond>
-1.0824

> <Gold.PLP.part.metal>
0.0000

> <Gold.PLP.part.buried>
-6.9751

> <Gold.PLP.part.nonpolar>
-30.3361

> <Gold.PLP.part.repulsive>
0.6220

> <Gold.PLP.ligand.clash>
0.0000

> <Gold.PLP.ligand.torsion>
0.2728

> <Gold.PLP.Chemscore.Hbond>
1.0000

> <Gold.PLP.Chemscore.CHOScore>
0.0000

> <Gold.PLP.Chemscore.Metal>
0.0000

> <Gold.Chemscore.Hbonds>
donor molecule, donor type, donor heavy atom, donor atom, acceptor molecule, acceptor atom, score
      L1  H    12    26       P1  8028  1.00

> <Gold.PLP.Chemscore.Internal.Correction>
0.0072

> <Gold.Rescore>
     Score         DG    S(hbond)    S(metal)    S(lipo)     H(rot)  DE(clash)    DE(int)     intcor
     13.05     -16.15       0.99        0.00      90.27       1.25       0.01       3.09       ----

> <Gold.Chemscore.Fitness>
13.0530

> <Gold.Chemscore.DG>
-16.1500

> <Gold.Chemscore.ZeroCoef>
-5.4800

> <Gold.Chemscore.Hbond>
0.9937

> <Gold.Chemscore.Metal>
0.0000

> <Gold.Chemscore.Lipo>
90.2716

> <Gold.Chemscore.Internal_Hbond>
0.0000

> <Gold.Chemscore.DEClash>
0.0063

> <Gold.Chemscore.DEInternal>
3.0907

> <Gold.Chemscore.Rot>
1.2542

> <Gold.Chemscore.Internal.Correction>
   9.000000E+99

> <Gold.Chemscore.Hbonds>
donor molecule, donor type, donor heavy atom, donor atom, acceptor molecule, acceptor atom, score
      L1  H    12    26       P1  8028  0.96

> <Gold.Chemscore.Hbond.Weighted>
-3.3189

> <Gold.Chemscore.Metal.Weighted>
-0.0000

> <Gold.Chemscore.Lipo.Weighted>
-10.5618

> <Gold.Chemscore.Internal_Hbond.Weighted>
0.0000

> <Gold.Chemscore.DEClash.Weighted>
0.0063

> <Gold.Chemscore.DEInternal.Weighted>
3.0907

> <Gold.Chemscore.Rot.Weighted>
3.2107

> <Gold.Chemscore.Internal.Correction.Weighted>
   9.000000E+99

> <Gold.Protein.RotatedTorsions>
[ 6907 6896 6895 6894 ] final   92.42 input  -60.11 | X-H torsion
[ 7974 7965 7964 7962 ] final  -75.33 input  175.53 | X-H torsion
[ 8008 7997 7996 7995 ] final   91.73 input   59.86 | X-H torsion
[ 10167 10162 10161 10158 ] final   35.96 input  -65.29 | X-H torsion
[ 10718 10713 10712 10709 ] final  126.91 input   66.30 | X-H torsion
[ 10763 10752 10751 10750 ] final -116.37 input  -60.55 | X-H torsion
[ 11005 11000 10999 10996 ] final   -2.96 input  -57.11 | X-H torsion

> <Gold.Protein.ActiveResidues>
 VAL166  LYS551  ARG553  GLY616  TRP617  ASP618  TYR619  PRO620  LYS621  CYS622 
 ASP623  PHE694  ASN695  SER759  ASP760  ASP761  ALA762  ILE779  LEU786  VAL792 
 PHE793  MET794  SER795  GLU796  ALA797  LYS798  CYS799  TRP800  GLU811  SER814 

> <Gold.Protein.RotatedAtoms>
  152.5452  134.1505  159.8516 H   0  0  0  0  0  0  0  0  0  0  0  0  # atno 6907 bound_to 6896
  151.1532  133.4886  159.2602 H   0  0  0  0  0  0  0  0  0  0  0  0  # atno 6908 bound_to 6896
  151.1450  135.0209  159.8697 H   0  0  0  0  0  0  0  0  0  0  0  0  # atno 6909 bound_to 6896
  145.6274  140.9347  143.1105 H   0  0  0  0  0  0  0  0  0  0  0  0  # atno 7974 bound_to 7965
  156.0271  140.3334  155.7100 H   0  0  0  0  0  0  0  0  0  0  0  0  # atno 8008 bound_to 7997
  155.5938  140.0649  157.2769 H   0  0  0  0  0  0  0  0  0  0  0  0  # atno 8009 bound_to 7997
  154.4338  140.1822  156.1090 H   0  0  0  0  0  0  0  0  0  0  0  0  # atno 8010 bound_to 7997
  140.4173  144.1510  150.6144 H   0  0  0  0  0  0  0  0  0  0  0  0  # atno 10167 bound_to 10162
  157.5378  131.1097  150.8907 H   0  0  0  0  0  0  0  0  0  0  0  0  # atno 10718 bound_to 10713
  154.8517  135.4348  154.1810 H   0  0  0  0  0  0  0  0  0  0  0  0  # atno 10763 bound_to 10752
  153.2901  135.6961  153.7307 H   0  0  0  0  0  0  0  0  0  0  0  0  # atno 10764 bound_to 10752
  153.6478  135.3456  155.3065 H   0  0  0  0  0  0  0  0  0  0  0  0  # atno 10765 bound_to 10752
  140.6641  133.9294  155.8454 H   0  0  0  0  0  0  0  0  0  0  0  0  # atno 11005 bound_to 11000
  144.7207  139.8041  143.7383 LP  0  0  0  0  0  0  0  0  0  0  0  0  # atno 17320 bound_to 7965
  146.1383  139.4434  143.0125 LP  0  0  0  0  0  0  0  0  0  0  0  0  # atno 17321 bound_to 7965
  140.4573  143.2463  151.9268 LP  0  0  0  0  0  0  0  0  0  0  0  0  # atno 17342 bound_to 10162
  139.4782  144.5503  151.8396 LP  0  0  0  0  0  0  0  0  0  0  0  0  # atno 17343 bound_to 10162
  156.9469  130.5405  149.5281 LP  0  0  0  0  0  0  0  0  0  0  0  0  # atno 17370 bound_to 10713
  156.0472  130.5547  150.8909 LP  0  0  0  0  0  0  0  0  0  0  0  0  # atno 17371 bound_to 10713
  141.0443  134.0577  157.3864 LP  0  0  0  0  0  0  0  0  0  0  0  0  # atno 17394 bound_to 11000
  139.9003  135.0162  156.7236 LP  0  0  0  0  0  0  0  0  0  0  0  0  # atno 17395 bound_to 11000

$$$$
