AV-unprocessed.smi:1883|AV-procd|sdf|7643|dock1
  -GOLD-   22720 9373D 1   1.00000     0.00000
 Structure written by MMmdl.
 35 37  0  0  0  0  0  0  0  0  1 V2000
  152.5862  138.4388  154.9589 C   0  0  0  0  0  0  0  0  0  0  0  0
  151.2024  138.9910  154.8268 C   0  0  0  0  0  0  0  0  0  0  0  0
  150.2486  138.3627  154.1394 N   0  0  0  0  0  0  0  0  0  0  0  0
  149.1646  139.2068  154.2854 C   0  0  0  0  0  0  0  0  0  0  0  0
  147.8459  139.1013  153.7882 C   0  0  0  0  0  0  0  0  0  0  0  0
  146.8941  140.1027  154.0716 C   0  0  0  0  0  0  0  0  0  0  0  0
  147.2465  141.2216  154.8537 C   0  0  0  0  0  0  0  0  0  0  0  0
  148.5552  141.3463  155.3589 C   0  0  0  0  0  0  0  0  0  0  0  0
  149.5016  140.3438  155.0739 C   0  0  0  0  0  0  0  0  0  0  0  0
  150.8413  140.1628  155.4050 N   0  0  0  0  0  0  0  0  0  0  0  0
  151.6669  141.0554  156.2073 C   0  0  0  0  0  0  0  0  0  0  0  0
  151.8453  140.5633  157.6577 C   0  0  1  0  0  0  0  0  0  0  0  0
  152.8707  139.5892  157.7149 O   0  0  0  0  0  0  0  0  0  0  0  0
  152.0922  141.7287  158.6068 C   0  0  0  0  0  0  0  0  0  0  0  0
  151.5452  143.0040  158.3381 C   0  0  0  0  0  0  0  0  0  0  0  0
  151.7731  144.0771  159.2209 C   0  0  0  0  0  0  0  0  0  0  0  0
  151.2487  145.2963  158.9534 F   0  0  0  0  0  0  0  0  0  0  0  0
  152.5450  143.8824  160.3818 C   0  0  0  0  0  0  0  0  0  0  0  0
  153.0843  142.6125  160.6617 C   0  0  0  0  0  0  0  0  0  0  0  0
  152.8575  141.5377  159.7798 C   0  0  0  0  0  0  0  0  0  0  0  0
  153.3761  140.3201  160.0692 F   0  0  0  0  0  0  0  0  0  0  0  0
  152.6925  137.5290  154.3669 H   0  0  0  0  0  0  0  0  0  0  0  0
  152.7970  138.1966  156.0006 H   0  0  0  0  0  0  0  0  0  0  0  0
  153.3217  139.1623  154.6084 H   0  0  0  0  0  0  0  0  0  0  0  0
  147.5665  138.2485  153.1872 H   0  0  0  0  0  0  0  0  0  0  0  0
  145.8893  140.0124  153.6860 H   0  0  0  0  0  0  0  0  0  0  0  0
  146.5119  141.9849  155.0650 H   0  0  0  0  0  0  0  0  0  0  0  0
  148.8295  142.2038  155.9550 H   0  0  0  0  0  0  0  0  0  0  0  0
  152.6375  141.1629  155.7214 H   0  0  0  0  0  0  0  0  0  0  0  0
  151.2150  142.0477  156.1986 H   0  0  0  0  0  0  0  0  0  0  0  0
  150.9349  140.0547  157.9747 H   0  0  0  0  0  0  0  0  0  0  0  0
  152.4770  138.7342  157.6315 H   0  0  0  0  0  0  0  0  0  0  0  0
  150.9458  143.1659  157.4541 H   0  0  0  0  0  0  0  0  0  0  0  0
  152.7199  144.7055  161.0590 H   0  0  0  0  0  0  0  0  0  0  0  0
  153.6714  142.4617  161.5557 H   0  0  0  0  0  0  0  0  0  0  0  0
  1  2  1  0  0  0  0
  1 22  1  0  0  0  0
  1 23  1  0  0  0  0
  1 24  1  0  0  0  0
  2 10  1  0  0  0  0
  2  3  2  0  0  0  0
  3  4  1  0  0  0  0
  4  9  2  0  0  0  0
  4  5  1  0  0  0  0
  5  6  2  0  0  0  0
  5 25  1  0  0  0  0
  6  7  1  0  0  0  0
  6 26  1  0  0  0  0
  7  8  2  0  0  0  0
  7 27  1  0  0  0  0
  8  9  1  0  0  0  0
  8 28  1  0  0  0  0
  9 10  1  0  0  0  0
 10 11  1  0  0  0  0
 11 12  1  0  0  0  0
 11 29  1  0  0  0  0
 11 30  1  0  0  0  0
 12 13  1  0  0  0  0
 12 14  1  0  0  0  0
 12 31  1  0  0  0  0
 13 32  1  0  0  0  0
 14 20  1  0  0  0  0
 14 15  2  0  0  0  0
 15 16  1  0  0  0  0
 15 33  1  0  0  0  0
 16 17  1  0  0  0  0
 16 18  2  0  0  0  0
 18 19  1  0  0  0  0
 18 34  1  0  0  0  0
 19 20  2  0  0  0  0
 19 35  1  0  0  0  0
 20 21  1  0  0  0  0
M  END
> <s_m_source_file>
AV-unprocessed.smi

> <i_m_source_file_index>
1883

> <i_lp_mmshare_version>
43012

> <i_f3d_flags>
0

> <s_epik_input>
W2NIXTFbY0hdW2NIXVtjSF1jKGMxMiluKGMobjIpW0NIM10pW0NIMl1bQ0BIXShbT0hdKWMzW2NIXWMoRilbY0hdW2NIXWMzRg==

> <s_epik_cmdline>
J2VwaWtfcHl0aG9uJywgJy1waCcsICc3LjAnLCAnLXRuJywgJzgnLCAnLW1hJywgJzIwMCcsICctbWV0YWxfYmluZGluZycsICctaW1hZScsICc8aW5maWxlLm1hZT4nLCAnLW9tYWUnLCAnPG91dGZpbGUubWFlPic=

> <r_epik_Ionization_Penalty>
0.129664

> <r_epik_Ionization_Penalty_Charging>
0

> <r_epik_Ionization_Penalty_Neutral>
0.129664

> <r_epik_State_Penalty>
0.119073

> <r_epik_Charging_Adjusted_Penalty>
0.119073

> <i_epik_Tot_Q>
0

> <i_epik_Tot_abs_Q>
0

> <r_epik_Metal_State_Penalty>
0.000131867

> <b_epik_Metal_Only>
0

> <s_lp_Force_Field>
OPLS_2005

> <r_lp_Energy>
10.6561

> <b_lp_Chiralities_Consistent>
1

> <s_lp_Variant>
AV-unprocessed.smi:1883-2

> <Gold.Version>
5.8.1

> <Gold.Id.Protein>
6NUR|6NUR_protein|mol2

> <Gold.PLP.Fitness>
49.3943

> <Gold.PLP.PLP>
-48.8967

> <Gold.PLP.part.hbond>
-1.0000

> <Gold.PLP.part.metal>
0.0000

> <Gold.PLP.part.buried>
-3.9405

> <Gold.PLP.part.nonpolar>
-44.0658

> <Gold.PLP.part.repulsive>
0.2455

> <Gold.PLP.ligand.clash>
0.0000

> <Gold.PLP.ligand.torsion>
1.2645

> <Gold.PLP.Chemscore.Hbond>
1.0000

> <Gold.PLP.Chemscore.CHOScore>
0.0000

> <Gold.PLP.Chemscore.Metal>
0.0000

> <Gold.Chemscore.Hbonds>
donor molecule, donor type, donor heavy atom, donor atom, acceptor molecule, acceptor atom, score
      P1  H  7997  8008       L1    13  1.00

> <Gold.PLP.Chemscore.Internal.Correction>
0.0265

> <Gold.Rescore>
     Score         DG    S(hbond)    S(metal)    S(lipo)     H(rot)  DE(clash)    DE(int)     intcor
     14.03     -17.67       0.96        0.00     118.11       1.88       0.57       3.07       ----

> <Gold.Chemscore.Fitness>
14.0294

> <Gold.Chemscore.DG>
-17.6673

> <Gold.Chemscore.ZeroCoef>
-5.4800

> <Gold.Chemscore.Hbond>
0.9556

> <Gold.Chemscore.Metal>
0.0000

> <Gold.Chemscore.Lipo>
118.1053

> <Gold.Chemscore.Internal_Hbond>
0.0000

> <Gold.Chemscore.DEClash>
0.5680

> <Gold.Chemscore.DEInternal>
3.0700

> <Gold.Chemscore.Rot>
1.8839

> <Gold.Chemscore.Internal.Correction>
   9.000000E+99

> <Gold.Chemscore.Hbonds>
donor molecule, donor type, donor heavy atom, donor atom, acceptor molecule, acceptor atom, score
      P1  H  7997  8008       L1    13  0.90

> <Gold.Chemscore.Hbond.Weighted>
-3.1918

> <Gold.Chemscore.Metal.Weighted>
-0.0000

> <Gold.Chemscore.Lipo.Weighted>
-13.8183

> <Gold.Chemscore.Internal_Hbond.Weighted>
0.0000

> <Gold.Chemscore.DEClash.Weighted>
0.5680

> <Gold.Chemscore.DEInternal.Weighted>
3.0700

> <Gold.Chemscore.Rot.Weighted>
4.8227

> <Gold.Chemscore.Internal.Correction.Weighted>
   9.000000E+99

> <Gold.Protein.RotatedTorsions>
[ 6907 6896 6895 6894 ] final  143.86 input  -60.11 | X-H torsion
[ 7974 7965 7964 7962 ] final   62.83 input  175.53 | X-H torsion
[ 8008 7997 7996 7995 ] final  -73.24 input   59.86 | X-H torsion
[ 10167 10162 10161 10158 ] final  -60.77 input  -65.29 | X-H torsion
[ 10718 10713 10712 10709 ] final -142.33 input   66.30 | X-H torsion
[ 10763 10752 10751 10750 ] final  -81.49 input  -60.55 | X-H torsion
[ 11005 11000 10999 10996 ] final   64.16 input  -57.11 | X-H torsion

> <Gold.Protein.ActiveResidues>
 VAL166  LYS551  ARG553  GLY616  TRP617  ASP618  TYR619  PRO620  LYS621  CYS622 
 ASP623  PHE694  ASN695  SER759  ASP760  ASP761  ALA762  ILE779  LEU786  VAL792 
 PHE793  MET794  SER795  GLU796  ALA797  LYS798  CYS799  TRP800  GLU811  SER814 

> <Gold.Protein.RotatedAtoms>
  152.2010  133.4841  159.5058 H   0  0  0  0  0  0  0  0  0  0  0  0  # atno 6907 bound_to 6896
  150.6970  134.1590  159.4178 H   0  0  0  0  0  0  0  0  0  0  0  0  # atno 6908 bound_to 6896
  151.9507  135.0170  160.0592 H   0  0  0  0  0  0  0  0  0  0  0  0  # atno 6909 bound_to 6896
  145.8689  139.3364  143.0774 H   0  0  0  0  0  0  0  0  0  0  0  0  # atno 7974 bound_to 7965
  154.5231  140.0783  156.8208 H   0  0  0  0  0  0  0  0  0  0  0  0  # atno 8008 bound_to 7997
  155.3534  140.3414  155.4221 H   0  0  0  0  0  0  0  0  0  0  0  0  # atno 8009 bound_to 7997
  156.1702  140.1617  156.8447 H   0  0  0  0  0  0  0  0  0  0  0  0  # atno 8010 bound_to 7997
  140.6050  143.2371  151.5843 H   0  0  0  0  0  0  0  0  0  0  0  0  # atno 10167 bound_to 10162
  156.3447  130.7656  151.1798 H   0  0  0  0  0  0  0  0  0  0  0  0  # atno 10718 bound_to 10713
  154.5641  135.5624  153.7035 H   0  0  0  0  0  0  0  0  0  0  0  0  # atno 10763 bound_to 10752
  153.0027  135.6281  154.2204 H   0  0  0  0  0  0  0  0  0  0  0  0  # atno 10764 bound_to 10752
  154.2142  135.2872  155.2927 H   0  0  0  0  0  0  0  0  0  0  0  0  # atno 10765 bound_to 10752
  139.9977  134.6491  155.9982 H   0  0  0  0  0  0  0  0  0  0  0  0  # atno 11005 bound_to 11000
  145.9160  140.9147  143.0429 LP  0  0  0  0  0  0  0  0  0  0  0  0  # atno 17320 bound_to 7965
  144.6726  140.1225  143.7449 LP  0  0  0  0  0  0  0  0  0  0  0  0  # atno 17321 bound_to 7965
  139.5318  144.2894  152.1164 LP  0  0  0  0  0  0  0  0  0  0  0  0  # atno 17342 bound_to 10162
  140.2082  144.4589  150.6398 LP  0  0  0  0  0  0  0  0  0  0  0  0  # atno 17343 bound_to 10162
  157.7452  131.0444  150.4794 LP  0  0  0  0  0  0  0  0  0  0  0  0  # atno 17370 bound_to 10713
  156.4980  130.4110  149.6369 LP  0  0  0  0  0  0  0  0  0  0  0  0  # atno 17371 bound_to 10713
  141.1617  133.6538  156.4342 LP  0  0  0  0  0  0  0  0  0  0  0  0  # atno 17394 bound_to 11000
  140.4787  134.6685  157.5161 LP  0  0  0  0  0  0  0  0  0  0  0  0  # atno 17395 bound_to 11000

$$$$
