AV-unprocessed.smi:1071|AV-procd|sdf|4679|dock8
  -GOLD-   22720 3193D 1   1.00000     0.00000
 Structure written by MMmdl.
 47 48  0  0  0  0  0  0  0  0  2 V2000
  151.9239  142.8639  158.5149 C   0  0  0  0  0  0  0  0  0  0  0  0
  151.4183  141.7988  157.7251 O   0  0  0  0  0  0  0  0  0  0  0  0
  150.8302  142.2167  156.5011 C   0  0  0  0  0  0  0  0  0  0  0  0
  150.3198  141.0270  155.6752 C   0  0  0  0  0  0  0  0  0  0  0  0
  149.4646  141.5204  154.6488 O   0  0  0  0  0  0  0  0  0  0  0  0
  148.5472  140.6579  154.0842 C   0  0  0  0  0  0  0  0  0  0  0  0
  147.4864  141.2009  153.3321 C   0  0  0  0  0  0  0  0  0  0  0  0
  146.5463  140.3285  152.7511 C   0  0  0  0  0  0  0  0  0  0  0  0
  146.7032  138.9340  152.9347 C   0  0  0  0  0  0  0  0  0  0  0  0
  145.8126  137.9543  152.4187 N   0  0  0  0  0  0  0  0  0  0  0  0
  145.4628  136.7676  152.9538 C   0  0  0  0  0  0  0  0  0  0  0  0
  145.8224  136.4120  154.0764 O   0  0  0  0  0  0  0  0  0  0  0  0
  144.6047  136.0365  152.1902 N   0  0  0  0  0  0  0  0  0  0  0  0
  144.4111  136.2080  150.7337 C   0  0  0  0  0  0  0  0  0  0  0  0
  144.5943  134.8817  149.9811 C   0  0  0  0  0  0  0  0  0  0  0  0
  143.7066  133.8340  150.5297 N   0  3  1  0  0  0  0  0  0  0  0  0
  143.7826  132.5698  149.7666 C   0  0  0  0  0  0  0  0  0  0  0  0
  143.9191  133.6339  151.9806 C   0  0  0  0  0  0  0  0  0  0  0  0
  143.7927  134.9487  152.7795 C   0  0  2  0  0  0  0  0  0  0  0  0
  142.3359  135.4006  152.9838 C   0  0  0  0  0  0  0  0  0  0  0  0
  147.7895  138.4934  153.7183 C   0  0  0  0  0  0  0  0  0  0  0  0
  148.6943  139.3238  154.2772 N   0  0  0  0  0  0  0  0  0  0  0  0
  152.3914  142.4590  159.4124 H   0  0  0  0  0  0  0  0  0  0  0  0
  151.1346  143.5449  158.8329 H   0  0  0  0  0  0  0  0  0  0  0  0
  152.6801  143.4329  157.9727 H   0  0  0  0  0  0  0  0  0  0  0  0
  150.0385  142.9476  156.6733 H   0  0  0  0  0  0  0  0  0  0  0  0
  151.6066  142.7304  155.9334 H   0  0  0  0  0  0  0  0  0  0  0  0
  151.1674  140.5015  155.2320 H   0  0  0  0  0  0  0  0  0  0  0  0
  149.7796  140.3253  156.3113 H   0  0  0  0  0  0  0  0  0  0  0  0
  147.3924  142.2694  153.2069 H   0  0  0  0  0  0  0  0  0  0  0  0
  145.7221  140.7445  152.1927 H   0  0  0  0  0  0  0  0  0  0  0  0
  145.3519  138.2027  151.5554 H   0  0  0  0  0  0  0  0  0  0  0  0
  143.4074  136.5972  150.5599 H   0  0  0  0  0  0  0  0  0  0  0  0
  145.0862  136.9327  150.2787 H   0  0  0  0  0  0  0  0  0  0  0  0
  144.3754  135.0289  148.9229 H   0  0  0  0  0  0  0  0  0  0  0  0
  145.6329  134.5537  150.0494 H   0  0  0  0  0  0  0  0  0  0  0  0
  144.7803  132.1334  149.8299 H   0  0  0  0  0  0  0  0  0  0  0  0
  143.5497  132.7398  148.7148 H   0  0  0  0  0  0  0  0  0  0  0  0
  143.0667  131.8431  150.1519 H   0  0  0  0  0  0  0  0  0  0  0  0
  143.2122  132.8948  152.3606 H   0  0  0  0  0  0  0  0  0  0  0  0
  144.9159  133.2157  152.1313 H   0  0  0  0  0  0  0  0  0  0  0  0
  144.1554  134.6987  153.7773 H   0  0  0  0  0  0  0  0  0  0  0  0
  141.7583  134.6326  153.4986 H   0  0  0  0  0  0  0  0  0  0  0  0
  141.8368  135.6061  152.0368 H   0  0  0  0  0  0  0  0  0  0  0  0
  142.2874  136.3063  153.5894 H   0  0  0  0  0  0  0  0  0  0  0  0
  147.9425  137.4395  153.8999 H   0  0  0  0  0  0  0  0  0  0  0  0
  142.7623  134.1770  150.4253 H   0  0  0  0  0  0  0  0  0  0  0  0
  1  2  1  0  0  0  0
  1 23  1  0  0  0  0
  1 24  1  0  0  0  0
  1 25  1  0  0  0  0
  2  3  1  0  0  0  0
  3  4  1  0  0  0  0
  3 26  1  0  0  0  0
  3 27  1  0  0  0  0
  4  5  1  0  0  0  0
  4 28  1  0  0  0  0
  4 29  1  0  0  0  0
  5  6  1  0  0  0  0
  6 22  1  0  0  0  0
  6  7  2  0  0  0  0
  7  8  1  0  0  0  0
  7 30  1  0  0  0  0
  8  9  2  0  0  0  0
  8 31  1  0  0  0  0
  9 10  1  0  0  0  0
  9 21  1  0  0  0  0
 10 11  1  0  0  0  0
 10 32  1  0  0  0  0
 11 12  2  0  0  0  0
 11 13  1  0  0  0  0
 13 19  1  0  0  0  0
 13 14  1  0  0  0  0
 14 15  1  0  0  0  0
 14 33  1  0  0  0  0
 14 34  1  0  0  0  0
 15 16  1  0  0  0  0
 15 35  1  0  0  0  0
 15 36  1  0  0  0  0
 16 17  1  0  0  0  0
 16 18  1  0  0  0  0
 16 47  1  0  0  0  0
 17 37  1  0  0  0  0
 17 38  1  0  0  0  0
 17 39  1  0  0  0  0
 18 19  1  0  0  0  0
 18 40  1  0  0  0  0
 18 41  1  0  0  0  0
 19 20  1  0  0  0  0
 19 42  1  0  0  0  0
 20 43  1  0  0  0  0
 20 44  1  0  0  0  0
 20 45  1  0  0  0  0
 21 22  2  0  0  0  0
 21 46  1  0  0  0  0
M  CHG  1  16   1
M  END
> <s_m_source_file>
AV-unprocessed.smi

> <i_m_source_file_index>
1071

> <i_lp_mmshare_version>
43012

> <i_f3d_flags>
0

> <s_epik_input>
W0NIM11PW0NIMl1bQ0gyXU9jMVtjSF1bY0hdYyhbY0hdbjEpW05IXUMoPU8pTjJbQ0gyXVtDSDJdTihbQ0gzXSlbQ0gyXVtDQEhdMltDSDNd

> <s_epik_cmdline>
J2VwaWtfcHl0aG9uJywgJy1waCcsICc3LjAnLCAnLXRuJywgJzgnLCAnLW1hJywgJzIwMCcsICctbWV0YWxfYmluZGluZycsICctaW1hZScsICc8aW5maWxlLm1hZT4nLCAnLW9tYWUnLCAnPG91dGZpbGUubWFlPic=

> <r_lp_tautomer_probability>
1

> <r_epik_Ionization_Penalty>
0.25455

> <r_epik_Ionization_Penalty_Charging>
0.254506

> <r_epik_Ionization_Penalty_Neutral>
4.43365e-05

> <r_epik_State_Penalty>
0.245983

> <r_epik_Charging_Adjusted_Penalty>
0.500488

> <i_epik_Tot_Q>
1

> <i_epik_Tot_abs_Q>
1

> <r_epik_Metal_State_Penalty>
0.245987

> <b_epik_Metal_Only>
0

> <s_lp_Force_Field>
OPLS_2005

> <r_lp_Energy>
58.5188

> <b_lp_Chiralities_Consistent>
1

> <s_lp_Variant>
AV-unprocessed.smi:1071-3

> <Gold.Version>
5.8.1

> <Gold.Id.Protein>
6NUR|6NUR_protein|mol2

> <Gold.PLP.Fitness>
38.8202

> <Gold.PLP.PLP>
-31.4111

> <Gold.PLP.part.hbond>
-2.8072

> <Gold.PLP.part.metal>
0.0000

> <Gold.PLP.part.buried>
5.5041

> <Gold.PLP.part.nonpolar>
-34.0823

> <Gold.PLP.part.repulsive>
0.4489

> <Gold.PLP.ligand.clash>
0.0000

> <Gold.PLP.ligand.torsion>
0.7265

> <Gold.PLP.Chemscore.Hbond>
2.2955

> <Gold.PLP.Chemscore.CHOScore>
0.6432

> <Gold.PLP.Chemscore.Metal>
0.0000

> <Gold.Chemscore.Hbonds>
donor molecule, donor type, donor heavy atom, donor atom, acceptor molecule, acceptor atom, score
      L1  H    10    32       P1 10171  0.29
      L1  H    16    47       P1 10186  2.00
      L1  C    21    46       P1  7948  0.57

> <Gold.PLP.Chemscore.Internal.Correction>
0.0460

> <Gold.Rescore>
     Score         DG    S(hbond)    S(metal)    S(lipo)     H(rot)  DE(clash)    DE(int)     intcor
     12.70     -19.24       1.94        0.00      97.25       1.60       4.67       1.87       ----

> <Gold.Chemscore.Fitness>
12.6966

> <Gold.Chemscore.DG>
-19.2357

> <Gold.Chemscore.ZeroCoef>
-5.4800

> <Gold.Chemscore.Hbond>
1.9415

> <Gold.Chemscore.Metal>
0.0000

> <Gold.Chemscore.Lipo>
97.2526

> <Gold.Chemscore.Internal_Hbond>
0.0000

> <Gold.Chemscore.DEClash>
4.6701

> <Gold.Chemscore.DEInternal>
1.8690

> <Gold.Chemscore.Rot>
1.6045

> <Gold.Chemscore.Internal.Correction>
   9.000000E+99

> <Gold.Chemscore.Hbonds>
donor molecule, donor type, donor heavy atom, donor atom, acceptor molecule, acceptor atom, score
      L1  H    10    32       P1 10171  0.29
      L1  H    16    47       P1 10186  0.80

> <Gold.Chemscore.Hbond.Weighted>
-6.4846

> <Gold.Chemscore.Metal.Weighted>
-0.0000

> <Gold.Chemscore.Lipo.Weighted>
-11.3786

> <Gold.Chemscore.Internal_Hbond.Weighted>
0.0000

> <Gold.Chemscore.DEClash.Weighted>
4.6701

> <Gold.Chemscore.DEInternal.Weighted>
1.8690

> <Gold.Chemscore.Rot.Weighted>
4.1075

> <Gold.Chemscore.Internal.Correction.Weighted>
   9.000000E+99

> <Gold.Protein.RotatedTorsions>
[ 6907 6896 6895 6894 ] final  -92.16 input  -60.11 | X-H torsion
[ 7974 7965 7964 7962 ] final  -42.70 input  175.53 | X-H torsion
[ 8008 7997 7996 7995 ] final -124.47 input   59.86 | X-H torsion
[ 10167 10162 10161 10158 ] final  -15.09 input  -65.29 | X-H torsion
[ 10718 10713 10712 10709 ] final   17.26 input   66.30 | X-H torsion
[ 10763 10752 10751 10750 ] final  -72.16 input  -60.55 | X-H torsion
[ 11005 11000 10999 10996 ] final   39.01 input  -57.11 | X-H torsion

> <Gold.Protein.ActiveResidues>
 VAL166  LYS551  ARG553  GLY616  TRP617  ASP618  TYR619  PRO620  LYS621  CYS622 
 ASP623  PHE694  ASN695  SER759  ASP760  ASP761  ALA762  ILE779  LEU786  VAL792 
 PHE793  MET794  SER795  GLU796  ALA797  LYS798  CYS799  TRP800  GLU811  SER814 

> <Gold.Protein.RotatedAtoms>
  150.6902  134.2165  159.4379 H   0  0  0  0  0  0  0  0  0  0  0  0  # atno 6907 bound_to 6896
  152.0123  134.9867  160.0577 H   0  0  0  0  0  0  0  0  0  0  0  0  # atno 6908 bound_to 6896
  152.1476  133.4467  159.4834 H   0  0  0  0  0  0  0  0  0  0  0  0  # atno 6909 bound_to 6896
  146.0090  140.6986  142.9233 H   0  0  0  0  0  0  0  0  0  0  0  0  # atno 7974 bound_to 7965
  155.1974  140.0415  157.2911 H   0  0  0  0  0  0  0  0  0  0  0  0  # atno 8008 bound_to 7997
  154.6098  140.2473  155.7656 H   0  0  0  0  0  0  0  0  0  0  0  0  # atno 8009 bound_to 7997
  156.2372  140.2917  156.0354 H   0  0  0  0  0  0  0  0  0  0  0  0  # atno 8010 bound_to 7997
  140.7212  143.5254  150.9584 H   0  0  0  0  0  0  0  0  0  0  0  0  # atno 10167 bound_to 10162
  157.0796  130.6382  149.5823 H   0  0  0  0  0  0  0  0  0  0  0  0  # atno 10718 bound_to 10713
  154.4418  135.5939  153.6134 H   0  0  0  0  0  0  0  0  0  0  0  0  # atno 10763 bound_to 10752
  152.9806  135.6000  154.3713 H   0  0  0  0  0  0  0  0  0  0  0  0  # atno 10764 bound_to 10752
  154.3563  135.2841  155.2323 H   0  0  0  0  0  0  0  0  0  0  0  0  # atno 10765 bound_to 10752
  140.2070  134.3802  155.8068 H   0  0  0  0  0  0  0  0  0  0  0  0  # atno 11005 bound_to 11000
  144.6946  140.3366  143.7206 LP  0  0  0  0  0  0  0  0  0  0  0  0  # atno 17320 bound_to 7965
  145.7371  139.1753  143.2397 LP  0  0  0  0  0  0  0  0  0  0  0  0  # atno 17321 bound_to 7965
  139.8972  143.6880  152.3137 LP  0  0  0  0  0  0  0  0  0  0  0  0  # atno 17342 bound_to 10162
  139.7217  144.7601  151.0945 LP  0  0  0  0  0  0  0  0  0  0  0  0  # atno 17343 bound_to 10162
  155.9927  130.4986  150.7351 LP  0  0  0  0  0  0  0  0  0  0  0  0  # atno 17370 bound_to 10713
  157.4811  131.0902  151.0535 LP  0  0  0  0  0  0  0  0  0  0  0  0  # atno 17371 bound_to 10713
  141.2227  133.7123  156.8353 LP  0  0  0  0  0  0  0  0  0  0  0  0  # atno 17394 bound_to 11000
  140.1992  134.8909  157.3150 LP  0  0  0  0  0  0  0  0  0  0  0  0  # atno 17395 bound_to 11000

$$$$
