AV-unprocessed.smi:2760|AV-procd|sdf|10631|dock5
  -GOLD-   2272015 83D 1   1.00000     0.00000
 Structure written by MMmdl.
 32 33  0  0  0  0  0  0  0  0  1 V2000
  148.5336  140.6667  153.4476 O   0  0  0  0  0  0  0  0  0  0  0  0
  149.4939  140.4296  154.3858 C   0  0  0  0  0  0  0  0  0  0  0  0
  149.8073  141.4263  155.3342 C   0  0  0  0  0  0  0  0  0  0  0  0
  150.8109  141.1111  156.2767 C   0  0  0  0  0  0  0  0  0  0  0  0
  151.2454  142.0656  157.3440 C   0  0  0  0  0  0  0  0  0  0  0  0
  151.2987  141.6457  158.7963 C   0  0  0  0  0  0  0  0  0  0  0  0
  150.2491  142.6256  158.3331 C   0  0  0  0  0  0  0  0  0  0  0  0
  151.4278  139.9088  156.2746 N   0  0  0  0  0  0  0  0  0  0  0  0
  151.0460  139.0460  155.3303 C   0  0  0  0  0  0  0  0  0  0  0  0
  151.8452  137.4574  155.3273 S   0  0  0  0  0  0  0  0  0  0  0  0
  153.3024  137.8046  154.2984 C   0  0  0  0  0  0  0  0  0  0  0  0
  154.5793  137.1876  154.8827 C   0  0  0  0  0  0  0  0  0  0  0  0
  154.7352  135.8744  154.3732 O   0  0  0  0  0  0  0  0  0  0  0  0
  155.8998  135.7348  153.5737 C   0  0  0  0  0  0  0  0  0  0  0  0
  155.8823  134.3732  152.8688 C   0  0  0  0  0  0  0  0  0  0  0  0
  154.8222  134.3097  152.0640 F   0  0  0  0  0  0  0  0  0  0  0  0
  156.9850  134.2194  152.1362 F   0  0  0  0  0  0  0  0  0  0  0  0
  155.7984  133.3900  153.7647 F   0  0  0  0  0  0  0  0  0  0  0  0
  150.1229  139.2343  154.3859 N   0  0  0  0  0  0  0  0  0  0  0  0
  148.7651  140.3399  152.5921 H   0  0  0  0  0  0  0  0  0  0  0  0
  149.3058  142.3830  155.3401 H   0  0  0  0  0  0  0  0  0  0  0  0
  152.0272  142.7300  156.9809 H   0  0  0  0  0  0  0  0  0  0  0  0
  150.9606  140.6447  159.0569 H   0  0  0  0  0  0  0  0  0  0  0  0
  152.1036  142.0430  159.4111 H   0  0  0  0  0  0  0  0  0  0  0  0
  150.3703  143.6606  158.6463 H   0  0  0  0  0  0  0  0  0  0  0  0
  149.2222  142.2693  158.2787 H   0  0  0  0  0  0  0  0  0  0  0  0
  153.1183  137.3972  153.3042 H   0  0  0  0  0  0  0  0  0  0  0  0
  153.4175  138.8822  154.1794 H   0  0  0  0  0  0  0  0  0  0  0  0
  155.4497  137.7896  154.6182 H   0  0  0  0  0  0  0  0  0  0  0  0
  154.5155  137.1599  155.9717 H   0  0  0  0  0  0  0  0  0  0  0  0
  155.9424  136.5355  152.8334 H   0  0  0  0  0  0  0  0  0  0  0  0
  156.7924  135.8182  154.1962 H   0  0  0  0  0  0  0  0  0  0  0  0
  1  2  1  0  0  0  0
  1 20  1  0  0  0  0
  2 19  1  0  0  0  0
  2  3  2  0  0  0  0
  3  4  1  0  0  0  0
  3 21  1  0  0  0  0
  4  5  1  0  0  0  0
  4  8  2  0  0  0  0
  5  7  1  0  0  0  0
  5  6  1  0  0  0  0
  5 22  1  0  0  0  0
  6  7  1  0  0  0  0
  6 23  1  0  0  0  0
  6 24  1  0  0  0  0
  7 25  1  0  0  0  0
  7 26  1  0  0  0  0
  8  9  1  0  0  0  0
  9 10  1  0  0  0  0
  9 19  2  0  0  0  0
 10 11  1  0  0  0  0
 11 12  1  0  0  0  0
 11 27  1  0  0  0  0
 11 28  1  0  0  0  0
 12 13  1  0  0  0  0
 12 29  1  0  0  0  0
 12 30  1  0  0  0  0
 13 14  1  0  0  0  0
 14 15  1  0  0  0  0
 14 31  1  0  0  0  0
 14 32  1  0  0  0  0
 15 16  1  0  0  0  0
 15 17  1  0  0  0  0
 15 18  1  0  0  0  0
M  END
> <s_m_source_file>
AV-unprocessed.smi

> <i_m_source_file_index>
2760

> <i_lp_mmshare_version>
43012

> <i_f3d_flags>
0

> <s_epik_input>
W09IXWMxW2NIXWMoW0NIXTJbQ0gyXVtDSDJdMiluYyhuMSlTW0NIMl1bQ0gyXU9bQ0gyXUMoRikoRilG

> <s_epik_cmdline>
J2VwaWtfcHl0aG9uJywgJy1waCcsICc3LjAnLCAnLXRuJywgJzgnLCAnLW1hJywgJzIwMCcsICctbWV0YWxfYmluZGluZycsICctaW1hZScsICc8aW5maWxlLm1hZT4nLCAnLW9tYWUnLCAnPG91dGZpbGUubWFlPic=

> <r_lp_tautomer_probability>
0.0660145

> <r_epik_Ionization_Penalty>
3.02064

> <r_epik_Ionization_Penalty_Charging>
0

> <r_epik_Ionization_Penalty_Neutral>
3.02064

> <r_epik_State_Penalty>
2.51658

> <r_epik_Charging_Adjusted_Penalty>
2.51658

> <i_epik_Tot_Q>
0

> <i_epik_Tot_abs_Q>
0

> <r_epik_Metal_State_Penalty>
3.1674

> <b_epik_Metal_Only>
0

> <s_lp_Force_Field>
OPLS_2005

> <r_lp_Energy>
-0.868617

> <b_lp_Chiralities_Consistent>
1

> <s_lp_Variant>
AV-unprocessed.smi:2760-4

> <Gold.Version>
5.8.1

> <Gold.Id.Protein>
6NUR|6NUR_protein|mol2

> <Gold.PLP.Fitness>
39.7783

> <Gold.PLP.PLP>
-36.8326

> <Gold.PLP.part.hbond>
-3.0000

> <Gold.PLP.part.metal>
0.0000

> <Gold.PLP.part.buried>
1.9264

> <Gold.PLP.part.nonpolar>
-34.5666

> <Gold.PLP.part.repulsive>
0.1567

> <Gold.PLP.ligand.clash>
0.0000

> <Gold.PLP.ligand.torsion>
1.3351

> <Gold.PLP.Chemscore.Hbond>
1.7840

> <Gold.PLP.Chemscore.CHOScore>
0.0000

> <Gold.PLP.Chemscore.Metal>
0.0000

> <Gold.Chemscore.Hbonds>
donor molecule, donor type, donor heavy atom, donor atom, acceptor molecule, acceptor atom, score
      L1  H     1    20       P1  7957  1.00

> <Gold.PLP.Chemscore.Internal.Correction>
0.2638

> <Gold.Rescore>
     Score         DG    S(hbond)    S(metal)    S(lipo)     H(rot)  DE(clash)    DE(int)     intcor
     10.45     -13.92       1.84        0.00      88.51       3.16       2.15       1.32       ----

> <Gold.Chemscore.Fitness>
10.4523

> <Gold.Chemscore.DG>
-13.9160

> <Gold.Chemscore.ZeroCoef>
-5.4800

> <Gold.Chemscore.Hbond>
1.8440

> <Gold.Chemscore.Metal>
0.0000

> <Gold.Chemscore.Lipo>
88.5092

> <Gold.Chemscore.Internal_Hbond>
0.0000

> <Gold.Chemscore.DEClash>
2.1484

> <Gold.Chemscore.DEInternal>
1.3153

> <Gold.Chemscore.Rot>
3.1557

> <Gold.Chemscore.Internal.Correction>
   9.000000E+99

> <Gold.Chemscore.Hbonds>
donor molecule, donor type, donor heavy atom, donor atom, acceptor molecule, acceptor atom, score
      L1  H     1    20       P1  7957  1.00

> <Gold.Chemscore.Hbond.Weighted>
-6.1589

> <Gold.Chemscore.Metal.Weighted>
-0.0000

> <Gold.Chemscore.Lipo.Weighted>
-10.3556

> <Gold.Chemscore.Internal_Hbond.Weighted>
0.0000

> <Gold.Chemscore.DEClash.Weighted>
2.1484

> <Gold.Chemscore.DEInternal.Weighted>
1.3153

> <Gold.Chemscore.Rot.Weighted>
8.0785

> <Gold.Chemscore.Internal.Correction.Weighted>
   9.000000E+99

> <Gold.Protein.RotatedTorsions>
[ 6907 6896 6895 6894 ] final   16.85 input  -60.11 | X-H torsion
[ 7974 7965 7964 7962 ] final -147.18 input  175.53 | X-H torsion
[ 8008 7997 7996 7995 ] final   83.15 input   59.86 | X-H torsion
[ 10167 10162 10161 10158 ] final  135.36 input  -65.29 | X-H torsion
[ 10718 10713 10712 10709 ] final -112.29 input   66.30 | X-H torsion
[ 10763 10752 10751 10750 ] final  -96.09 input  -60.55 | X-H torsion
[ 11005 11000 10999 10996 ] final -111.82 input  -57.11 | X-H torsion

> <Gold.Protein.ActiveResidues>
 VAL166  LYS551  ARG553  GLY616  TRP617  ASP618  TYR619  PRO620  LYS621  CYS622 
 ASP623  PHE694  ASN695  SER759  ASP760  ASP761  ALA762  ILE779  LEU786  VAL792 
 PHE793  MET794  SER795  GLU796  ALA797  LYS798  CYS799  TRP800  GLU811  SER814 

> <Gold.Protein.RotatedAtoms>
  151.8404  135.0592  160.0447 H   0  0  0  0  0  0  0  0  0  0  0  0  # atno 6907 bound_to 6896
  152.2813  133.5469  159.5508 H   0  0  0  0  0  0  0  0  0  0  0  0  # atno 6908 bound_to 6896
  150.7191  134.0476  159.3829 H   0  0  0  0  0  0  0  0  0  0  0  0  # atno 6909 bound_to 6896
  144.8110  140.5360  143.5642 H   0  0  0  0  0  0  0  0  0  0  0  0  # atno 7974 bound_to 7965
  155.9201  140.3422  155.6166 H   0  0  0  0  0  0  0  0  0  0  0  0  # atno 8008 bound_to 7997
  155.7284  140.0792  157.2318 H   0  0  0  0  0  0  0  0  0  0  0  0  # atno 8009 bound_to 7997
  154.4068  140.1592  156.2468 H   0  0  0  0  0  0  0  0  0  0  0  0  # atno 8010 bound_to 7997
  139.5220  144.6521  151.5272 H   0  0  0  0  0  0  0  0  0  0  0  0  # atno 10167 bound_to 10162
  156.0697  130.5912  150.8488 H   0  0  0  0  0  0  0  0  0  0  0  0  # atno 10718 bound_to 10713
  154.7208  135.5096  153.8809 H   0  0  0  0  0  0  0  0  0  0  0  0  # atno 10763 bound_to 10752
  153.0861  135.6645  153.9956 H   0  0  0  0  0  0  0  0  0  0  0  0  # atno 10764 bound_to 10752
  153.9779  135.3032  155.3402 H   0  0  0  0  0  0  0  0  0  0  0  0  # atno 10765 bound_to 10752
  141.0712  133.9377  157.2482 H   0  0  0  0  0  0  0  0  0  0  0  0  # atno 11005 bound_to 11000
  145.5324  139.1475  143.3492 LP  0  0  0  0  0  0  0  0  0  0  0  0  # atno 17320 bound_to 7965
  146.2409  140.5464  142.8934 LP  0  0  0  0  0  0  0  0  0  0  0  0  # atno 17321 bound_to 7965
  140.6330  143.9039  150.6622 LP  0  0  0  0  0  0  0  0  0  0  0  0  # atno 17342 bound_to 10162
  140.2349  143.3707  152.1535 LP  0  0  0  0  0  0  0  0  0  0  0  0  # atno 17343 bound_to 10162
  157.5760  131.0946  150.9345 LP  0  0  0  0  0  0  0  0  0  0  0  0  # atno 17370 bound_to 10713
  156.9551  130.5434  149.5284 LP  0  0  0  0  0  0  0  0  0  0  0  0  # atno 17371 bound_to 10713
  139.9525  135.0172  156.9034 LP  0  0  0  0  0  0  0  0  0  0  0  0  # atno 17394 bound_to 11000
  140.5670  134.0480  155.7417 LP  0  0  0  0  0  0  0  0  0  0  0  0  # atno 17395 bound_to 11000

$$$$
