AV-unprocessed.smi:978|AV-procd|sdf|4308|dock5
  -GOLD-   22720 2213D 1   1.00000     0.00000
 Structure written by MMmdl.
 39 40  0  0  0  0  0  0  0  0  2 V2000
  150.1248  131.3496  154.9740 C   0  0  0  0  0  0  0  0  0  0  0  0
  150.4011  132.7447  155.4617 C   0  0  0  0  0  0  0  0  0  0  0  0
  151.2010  132.9138  156.5045 N   0  0  0  0  0  0  0  0  0  0  0  0
  151.2225  134.2901  156.7782 O   0  0  0  0  0  0  0  0  0  0  0  0
  150.4261  134.9285  155.8819 C   0  0  0  0  0  0  0  0  0  0  0  0
  150.3020  136.4084  156.0189 C   0  0  0  0  0  0  0  0  0  0  0  0
  149.9105  134.0082  155.0176 C   0  0  0  0  0  0  0  0  0  0  0  0
  149.0123  134.3099  153.9630 N   0  0  0  0  0  0  0  0  0  0  0  0
  148.0166  133.5354  153.5064 C   0  0  0  0  0  0  0  0  0  0  0  0
  147.7411  132.4153  153.9351 O   0  0  0  0  0  0  0  0  0  0  0  0
  147.3600  134.1246  152.4968 N   0  0  0  0  0  0  0  0  0  0  0  0
  146.2411  133.5343  151.7676 C   0  0  2  0  0  0  0  0  0  0  0  0
  146.7660  132.7064  150.5829 C   0  0  0  0  0  0  0  0  0  0  0  0
  145.6077  132.1360  149.7462 C   0  0  0  0  0  0  0  0  0  0  0  0
  144.7059  133.2169  149.2754 N   0  3  1  0  0  0  0  0  0  0  0  0
  143.6483  132.7147  148.3722 C   0  0  0  0  0  0  0  0  0  0  0  0
  144.1556  134.0122  150.4011 C   0  0  0  0  0  0  0  0  0  0  0  0
  145.2824  134.6238  151.2502 C   0  0  0  0  0  0  0  0  0  0  0  0
  149.1057  131.2568  154.5989 H   0  0  0  0  0  0  0  0  0  0  0  0
  150.2435  130.6166  155.7727 H   0  0  0  0  0  0  0  0  0  0  0  0
  150.8070  131.0735  154.1701 H   0  0  0  0  0  0  0  0  0  0  0  0
  149.5144  136.7976  155.3735 H   0  0  0  0  0  0  0  0  0  0  0  0
  151.2360  136.9003  155.7468 H   0  0  0  0  0  0  0  0  0  0  0  0
  150.0614  136.6825  157.0462 H   0  0  0  0  0  0  0  0  0  0  0  0
  149.2088  135.1528  153.4432 H   0  0  0  0  0  0  0  0  0  0  0  0
  147.6606  135.0443  152.2078 H   0  0  0  0  0  0  0  0  0  0  0  0
  145.6944  132.8665  152.4366 H   0  0  0  0  0  0  0  0  0  0  0  0
  147.3996  133.3268  149.9470 H   0  0  0  0  0  0  0  0  0  0  0  0
  147.3943  131.8914  150.9447 H   0  0  0  0  0  0  0  0  0  0  0  0
  146.0113  131.5974  148.8880 H   0  0  0  0  0  0  0  0  0  0  0  0
  145.0386  131.4146  150.3348 H   0  0  0  0  0  0  0  0  0  0  0  0
  142.9810  132.0272  148.8938 H   0  0  0  0  0  0  0  0  0  0  0  0
  144.0844  132.1897  147.5216 H   0  0  0  0  0  0  0  0  0  0  0  0
  143.0520  133.5399  147.9820 H   0  0  0  0  0  0  0  0  0  0  0  0
  143.5218  134.8092  150.0102 H   0  0  0  0  0  0  0  0  0  0  0  0
  143.5208  133.3777  151.0217 H   0  0  0  0  0  0  0  0  0  0  0  0
  144.8500  135.1764  152.0854 H   0  0  0  0  0  0  0  0  0  0  0  0
  145.8344  135.3506  150.6519 H   0  0  0  0  0  0  0  0  0  0  0  0
  145.2735  133.8473  148.7270 H   0  0  0  0  0  0  0  0  0  0  0  0
  1  2  1  0  0  0  0
  1 19  1  0  0  0  0
  1 20  1  0  0  0  0
  1 21  1  0  0  0  0
  2  7  1  0  0  0  0
  2  3  2  0  0  0  0
  3  4  1  0  0  0  0
  4  5  1  0  0  0  0
  5  6  1  0  0  0  0
  5  7  2  0  0  0  0
  6 22  1  0  0  0  0
  6 23  1  0  0  0  0
  6 24  1  0  0  0  0
  7  8  1  0  0  0  0
  8  9  1  0  0  0  0
  8 25  1  0  0  0  0
  9 10  2  0  0  0  0
  9 11  1  0  0  0  0
 11 12  1  0  0  0  0
 11 26  1  0  0  0  0
 12 18  1  0  0  0  0
 12 13  1  0  0  0  0
 12 27  1  0  0  0  0
 13 14  1  0  0  0  0
 13 28  1  0  0  0  0
 13 29  1  0  0  0  0
 14 15  1  0  0  0  0
 14 30  1  0  0  0  0
 14 31  1  0  0  0  0
 15 16  1  0  0  0  0
 15 17  1  0  0  0  0
 15 39  1  0  0  0  0
 16 32  1  0  0  0  0
 16 33  1  0  0  0  0
 16 34  1  0  0  0  0
 17 18  1  0  0  0  0
 17 35  1  0  0  0  0
 17 36  1  0  0  0  0
 18 37  1  0  0  0  0
 18 38  1  0  0  0  0
M  CHG  1  15   1
M  END
> <s_m_source_file>
AV-unprocessed.smi

> <i_m_source_file_index>
978

> <i_lp_mmshare_version>
43012

> <i_f3d_flags>
0

> <s_epik_input>
W0NIM11jMW5vYyhbQ0gzXSljMVtOSF1DKD1PKVtOSF1bQ0hdMltDSDJdW0NIMl1OKFtDSDNdKVtDSDJdW0NIMl0y

> <s_epik_cmdline>
J2VwaWtfcHl0aG9uJywgJy1waCcsICc3LjAnLCAnLXRuJywgJzgnLCAnLW1hJywgJzIwMCcsICctbWV0YWxfYmluZGluZycsICctaW1hZScsICc8aW5maWxlLm1hZT4nLCAnLW9tYWUnLCAnPG91dGZpbGUubWFlPic=

> <r_epik_Ionization_Penalty>
0.00369783

> <r_epik_Ionization_Penalty_Charging>
0.00366825

> <r_epik_Ionization_Penalty_Neutral>
2.95799e-05

> <r_epik_State_Penalty>
0.00261101

> <r_epik_Charging_Adjusted_Penalty>
0.00627926

> <i_epik_Tot_Q>
1

> <i_epik_Tot_abs_Q>
1

> <r_epik_Metal_State_Penalty>
-0

> <b_epik_Metal_Only>
0

> <s_lp_Force_Field>
OPLS_2005

> <r_lp_Energy>
17.6402

> <b_lp_Chiralities_Consistent>
1

> <s_lp_Variant>
AV-unprocessed.smi:978-1

> <Gold.Version>
5.8.1

> <Gold.Id.Protein>
6NUR|6NUR_protein|mol2

> <Gold.PLP.Fitness>
40.2185

> <Gold.PLP.PLP>
-32.3086

> <Gold.PLP.part.hbond>
-3.6790

> <Gold.PLP.part.metal>
0.0000

> <Gold.PLP.part.buried>
-2.6935

> <Gold.PLP.part.nonpolar>
-26.7661

> <Gold.PLP.part.repulsive>
0.2404

> <Gold.PLP.ligand.clash>
0.0000

> <Gold.PLP.ligand.torsion>
0.5861

> <Gold.PLP.Chemscore.Hbond>
2.9424

> <Gold.PLP.Chemscore.CHOScore>
0.0000

> <Gold.PLP.Chemscore.Metal>
0.0000

> <Gold.Chemscore.Hbonds>
donor molecule, donor type, donor heavy atom, donor atom, acceptor molecule, acceptor atom, score
      L1  H     8    25       P1  7948  0.94
      L1  H    11    26       P1  7948  1.00
      L1  H    15    39       P1  7921  1.00

> <Gold.PLP.Chemscore.Internal.Correction>
0.2549

> <Gold.Rescore>
     Score         DG    S(hbond)    S(metal)    S(lipo)     H(rot)  DE(clash)    DE(int)     intcor
     17.38     -19.57       2.36        0.00      74.93       1.00       0.26       1.93       ----

> <Gold.Chemscore.Fitness>
17.3806

> <Gold.Chemscore.DG>
-19.5676

> <Gold.Chemscore.ZeroCoef>
-5.4800

> <Gold.Chemscore.Hbond>
2.3594

> <Gold.Chemscore.Metal>
0.0000

> <Gold.Chemscore.Lipo>
74.9341

> <Gold.Chemscore.Internal_Hbond>
0.0000

> <Gold.Chemscore.DEClash>
0.2588

> <Gold.Chemscore.DEInternal>
1.9282

> <Gold.Chemscore.Rot>
1.0000

> <Gold.Chemscore.Internal.Correction>
   9.000000E+99

> <Gold.Chemscore.Hbonds>
donor molecule, donor type, donor heavy atom, donor atom, acceptor molecule, acceptor atom, score
      L1  H     8    25       P1  7948  0.20
      L1  H    11    26       P1  7948  0.89
      L1  H    15    39       P1  7921  0.82

> <Gold.Chemscore.Hbond.Weighted>
-7.8803

> <Gold.Chemscore.Metal.Weighted>
-0.0000

> <Gold.Chemscore.Lipo.Weighted>
-8.7673

> <Gold.Chemscore.Internal_Hbond.Weighted>
0.0000

> <Gold.Chemscore.DEClash.Weighted>
0.2588

> <Gold.Chemscore.DEInternal.Weighted>
1.9282

> <Gold.Chemscore.Rot.Weighted>
2.5600

> <Gold.Chemscore.Internal.Correction.Weighted>
   9.000000E+99

> <Gold.Protein.RotatedTorsions>
[ 6907 6896 6895 6894 ] final -142.22 input  -60.11 | X-H torsion
[ 7974 7965 7964 7962 ] final   35.39 input  175.53 | X-H torsion
[ 8008 7997 7996 7995 ] final  -45.48 input   59.86 | X-H torsion
[ 10167 10162 10161 10158 ] final   67.21 input  -65.29 | X-H torsion
[ 10718 10713 10712 10709 ] final   80.80 input   66.30 | X-H torsion
[ 10763 10752 10751 10750 ] final  125.06 input  -60.55 | X-H torsion
[ 11005 11000 10999 10996 ] final  171.27 input  -57.11 | X-H torsion

> <Gold.Protein.ActiveResidues>
 VAL166  LYS551  ARG553  GLY616  TRP617  ASP618  TYR619  PRO620  LYS621  CYS622 
 ASP623  PHE694  ASN695  SER759  ASP760  ASP761  ALA762  ILE779  LEU786  VAL792 
 PHE793  MET794  SER795  GLU796  ALA797  LYS798  CYS799  TRP800  GLU811  SER814 

> <Gold.Protein.RotatedAtoms>
  151.0841  133.5367  159.2618 H   0  0  0  0  0  0  0  0  0  0  0  0  # atno 6907 bound_to 6896
  151.2259  135.0535  159.8978 H   0  0  0  0  0  0  0  0  0  0  0  0  # atno 6908 bound_to 6896
  152.5427  134.0637  159.8217 H   0  0  0  0  0  0  0  0  0  0  0  0  # atno 6909 bound_to 6896
  146.1287  139.6149  142.9241 H   0  0  0  0  0  0  0  0  0  0  0  0  # atno 7974 bound_to 7965
  154.4001  140.1396  156.3854 H   0  0  0  0  0  0  0  0  0  0  0  0  # atno 8008 bound_to 7997
  155.7964  140.3477  155.5357 H   0  0  0  0  0  0  0  0  0  0  0  0  # atno 8009 bound_to 7997
  155.8527  140.0944  157.1654 H   0  0  0  0  0  0  0  0  0  0  0  0  # atno 8010 bound_to 7997
  140.0920  144.4980  150.7093 H   0  0  0  0  0  0  0  0  0  0  0  0  # atno 10167 bound_to 10162
  157.6816  130.9975  150.2132 H   0  0  0  0  0  0  0  0  0  0  0  0  # atno 10718 bound_to 10713
  153.6713  135.3330  155.3154 H   0  0  0  0  0  0  0  0  0  0  0  0  # atno 10763 bound_to 10752
  154.8490  135.4387  154.1702 H   0  0  0  0  0  0  0  0  0  0  0  0  # atno 10764 bound_to 10752
  153.2694  135.6999  153.7572 H   0  0  0  0  0  0  0  0  0  0  0  0  # atno 10765 bound_to 10752
  140.3172  134.7468  157.4036 H   0  0  0  0  0  0  0  0  0  0  0  0  # atno 11005 bound_to 11000
  145.5309  141.0427  143.2383 LP  0  0  0  0  0  0  0  0  0  0  0  0  # atno 17320 bound_to 7965
  144.7668  139.6827  143.7211 LP  0  0  0  0  0  0  0  0  0  0  0  0  # atno 17321 bound_to 7965
  140.7024  143.2444  151.4827 LP  0  0  0  0  0  0  0  0  0  0  0  0  # atno 17342 bound_to 10162
  139.5719  144.1907  152.1849 LP  0  0  0  0  0  0  0  0  0  0  0  0  # atno 17343 bound_to 10162
  156.2799  130.3732  149.7946 LP  0  0  0  0  0  0  0  0  0  0  0  0  # atno 17370 bound_to 10713
  156.5638  130.8395  151.3336 LP  0  0  0  0  0  0  0  0  0  0  0  0  # atno 17371 bound_to 10713
  140.0973  134.5520  155.8386 LP  0  0  0  0  0  0  0  0  0  0  0  0  # atno 17394 bound_to 11000
  141.2095  133.6684  156.6443 LP  0  0  0  0  0  0  0  0  0  0  0  0  # atno 17395 bound_to 11000

$$$$
