AV-unprocessed.smi:2212|AV-procd|sdf|8952|dock3
  -GOLD-   2272012163D 1   1.00000     0.00000
 Structure written by MMmdl.
 32 33  0  0  0  0  0  0  0  0  2 V2000
  145.6629  133.5920  153.8558 C   0  0  0  0  0  0  0  0  0  0  0  0
  146.3163  133.3400  152.6179 O   0  0  0  0  0  0  0  0  0  0  0  0
  145.5584  133.5830  151.4276 C   0  0  0  0  0  0  0  0  0  0  0  0
  145.0736  135.0383  151.3426 C   0  0  0  0  0  0  0  0  0  0  0  0
  146.1112  135.9779  151.7573 N   0  0  0  0  0  0  0  0  0  0  0  0
  145.8941  137.1823  152.3052 C   0  0  0  0  0  0  0  0  0  0  0  0
  144.7730  137.6248  152.5583 O   0  0  0  0  0  0  0  0  0  0  0  0
  147.0464  137.8334  152.5360 N   0  0  0  0  0  0  0  0  0  0  0  0
  147.1994  139.1353  153.0771 C   0  0  0  0  0  0  0  0  0  0  0  0
  146.3403  140.1528  152.9812 N   0  3  0  0  0  0  0  0  0  0  0  0
  146.8613  141.2386  153.6384 C   0  0  0  0  0  0  0  0  0  0  0  0
  148.0744  140.8256  154.1335 C   0  0  0  0  0  0  0  0  0  0  0  0
  148.2997  139.5074  153.7882 O   0  0  0  0  0  0  0  0  0  0  0  0
  146.3739  133.0113  150.2519 C   0  0  0  0  0  0  0  0  0  0  0  0
  145.6698  131.6684  150.4502 C   0  0  0  0  0  0  0  0  0  0  0  0
  144.5581  132.4365  151.1675 C   0  0  0  0  0  0  0  0  0  0  0  0
  146.2928  133.2334  154.6697 H   0  0  0  0  0  0  0  0  0  0  0  0
  144.7040  133.0806  153.9317 H   0  0  0  0  0  0  0  0  0  0  0  0
  145.5036  134.6580  154.0173 H   0  0  0  0  0  0  0  0  0  0  0  0
  144.7412  135.2700  150.3293 H   0  0  0  0  0  0  0  0  0  0  0  0
  144.1973  135.1951  151.9710 H   0  0  0  0  0  0  0  0  0  0  0  0
  147.0649  135.6964  151.5825 H   0  0  0  0  0  0  0  0  0  0  0  0
  145.4441  140.1591  152.5092 H   0  0  0  0  0  0  0  0  0  0  0  0
  146.3278  142.1771  153.6866 H   0  0  0  0  0  0  0  0  0  0  0  0
  148.8478  141.3104  154.7115 H   0  0  0  0  0  0  0  0  0  0  0  0
  146.1194  133.4711  149.2957 H   0  0  0  0  0  0  0  0  0  0  0  0
  147.4533  132.9895  150.4062 H   0  0  0  0  0  0  0  0  0  0  0  0
  145.3627  131.1725  149.5292 H   0  0  0  0  0  0  0  0  0  0  0  0
  146.2166  130.9956  151.1127 H   0  0  0  0  0  0  0  0  0  0  0  0
  144.1635  131.9305  152.0478 H   0  0  0  0  0  0  0  0  0  0  0  0
  143.7539  132.7278  150.4898 H   0  0  0  0  0  0  0  0  0  0  0  0
  147.9005  137.3544  152.2909 H   0  0  0  0  0  0  0  0  0  0  0  0
  1  2  1  0  0  0  0
  1 17  1  0  0  0  0
  1 18  1  0  0  0  0
  1 19  1  0  0  0  0
  2  3  1  0  0  0  0
  3 16  1  0  0  0  0
  3  4  1  0  0  0  0
  3 14  1  0  0  0  0
  4  5  1  0  0  0  0
  4 20  1  0  0  0  0
  4 21  1  0  0  0  0
  5 22  1  0  0  0  0
  5  6  1  0  0  0  0
  6  8  1  0  0  0  0
  6  7  2  0  0  0  0
  8  9  1  0  0  0  0
  8 32  1  0  0  0  0
  9 13  1  0  0  0  0
  9 10  2  0  0  0  0
 10 23  1  0  0  0  0
 10 11  1  0  0  0  0
 11 24  1  0  0  0  0
 11 12  2  0  0  0  0
 12 25  1  0  0  0  0
 12 13  1  0  0  0  0
 14 15  1  0  0  0  0
 14 26  1  0  0  0  0
 14 27  1  0  0  0  0
 15 16  1  0  0  0  0
 15 28  1  0  0  0  0
 15 29  1  0  0  0  0
 16 30  1  0  0  0  0
 16 31  1  0  0  0  0
M  CHG  1  10   1
M  END
> <s_m_source_file>
AV-unprocessed.smi

> <i_m_source_file_index>
2212

> <i_lp_mmshare_version>
43012

> <i_f3d_flags>
0

> <s_epik_input>
W0NIMl0xW0NIMl1bQ0gyXUMxKE9bQ0gzXSlbQ0gyXVtOSF1DKD1PKVtOSF1jMm5bY0hdW2NIXW8y

> <s_epik_cmdline>
J2VwaWtfcHl0aG9uJywgJy1waCcsICc3LjAnLCAnLXRuJywgJzgnLCAnLW1hJywgJzIwMCcsICctbWV0YWxfYmluZGluZycsICctaW1hZScsICc8aW5maWxlLm1hZT4nLCAnLW9tYWUnLCAnPG91dGZpbGUubWFlPic=

> <r_epik_Ionization_Penalty>
6.73843

> <r_epik_Ionization_Penalty_Charging>
6.66704

> <r_epik_Ionization_Penalty_Neutral>
0.0713889

> <r_epik_State_Penalty>
1.94951

> <r_epik_Charging_Adjusted_Penalty>
8.61656

> <i_epik_Tot_Q>
1

> <i_epik_Tot_abs_Q>
1

> <r_epik_Metal_State_Penalty>
1.97013

> <b_epik_Metal_Only>
0

> <s_lp_Force_Field>
OPLS_2005

> <r_lp_Energy>
24.3681

> <b_lp_Chiralities_Consistent>
1

> <s_lp_Variant>
AV-unprocessed.smi:2212-2

> <Gold.Version>
5.8.1

> <Gold.Id.Protein>
6NUR|6NUR_protein|mol2

> <Gold.PLP.Fitness>
36.5757

> <Gold.PLP.PLP>
-25.9369

> <Gold.PLP.part.hbond>
-3.0000

> <Gold.PLP.part.metal>
0.0000

> <Gold.PLP.part.buried>
-5.1375

> <Gold.PLP.part.nonpolar>
-19.8348

> <Gold.PLP.part.repulsive>
2.2964

> <Gold.PLP.ligand.clash>
0.0000

> <Gold.PLP.ligand.torsion>
0.6654

> <Gold.PLP.Chemscore.Hbond>
3.8960

> <Gold.PLP.Chemscore.CHOScore>
0.0000

> <Gold.PLP.Chemscore.Metal>
0.0000

> <Gold.Chemscore.Hbonds>
donor molecule, donor type, donor heavy atom, donor atom, acceptor molecule, acceptor atom, score
      L1  H     5    22       P1  7948  0.90
      L1  H     8    32       P1  7948  1.00
      L1  H    10    23       P1 10175  2.00

> <Gold.PLP.Chemscore.Internal.Correction>
0.2815

> <Gold.Rescore>
     Score         DG    S(hbond)    S(metal)    S(lipo)     H(rot)  DE(clash)    DE(int)     intcor
     16.37     -16.94       2.92        0.00      51.01       1.67       0.01       0.56       ----

> <Gold.Chemscore.Fitness>
16.3676

> <Gold.Chemscore.DG>
-16.9425

> <Gold.Chemscore.ZeroCoef>
-5.4800

> <Gold.Chemscore.Hbond>
2.9213

> <Gold.Chemscore.Metal>
0.0000

> <Gold.Chemscore.Lipo>
51.0082

> <Gold.Chemscore.Internal_Hbond>
0.0000

> <Gold.Chemscore.DEClash>
0.0133

> <Gold.Chemscore.DEInternal>
0.5616

> <Gold.Chemscore.Rot>
1.6650

> <Gold.Chemscore.Internal.Correction>
   9.000000E+99

> <Gold.Chemscore.Hbonds>
donor molecule, donor type, donor heavy atom, donor atom, acceptor molecule, acceptor atom, score
      L1  H     5    22       P1  7948  0.87
      L1  H     8    32       P1  7948  0.98
      L1  H    10    23       P1 10175  0.85

> <Gold.Chemscore.Hbond.Weighted>
-9.7570

> <Gold.Chemscore.Metal.Weighted>
-0.0000

> <Gold.Chemscore.Lipo.Weighted>
-5.9680

> <Gold.Chemscore.Internal_Hbond.Weighted>
0.0000

> <Gold.Chemscore.DEClash.Weighted>
0.0133

> <Gold.Chemscore.DEInternal.Weighted>
0.5616

> <Gold.Chemscore.Rot.Weighted>
4.2625

> <Gold.Chemscore.Internal.Correction.Weighted>
   9.000000E+99

> <Gold.Protein.RotatedTorsions>
[ 6907 6896 6895 6894 ] final  117.35 input  -60.11 | X-H torsion
[ 7974 7965 7964 7962 ] final   66.93 input  175.53 | X-H torsion
[ 8008 7997 7996 7995 ] final   40.59 input   59.86 | X-H torsion
[ 10167 10162 10161 10158 ] final   -1.38 input  -65.29 | X-H torsion
[ 10718 10713 10712 10709 ] final  126.27 input   66.30 | X-H torsion
[ 10763 10752 10751 10750 ] final  -15.24 input  -60.55 | X-H torsion
[ 11005 11000 10999 10996 ] final  176.48 input  -57.11 | X-H torsion

> <Gold.Protein.ActiveResidues>
 VAL166  LYS551  ARG553  GLY616  TRP617  ASP618  TYR619  PRO620  LYS621  CYS622 
 ASP623  PHE694  ASN695  SER759  ASP760  ASP761  ALA762  ILE779  LEU786  VAL792 
 PHE793  MET794  SER795  GLU796  ALA797  LYS798  CYS799  TRP800  GLU811  SER814 

> <Gold.Protein.RotatedAtoms>
  152.4617  133.7837  159.6864 H   0  0  0  0  0  0  0  0  0  0  0  0  # atno 6907 bound_to 6896
  150.8564  133.7699  159.3013 H   0  0  0  0  0  0  0  0  0  0  0  0  # atno 6908 bound_to 6896
  151.5278  135.1071  159.9947 H   0  0  0  0  0  0  0  0  0  0  0  0  # atno 6909 bound_to 6896
  145.8207  139.3083  143.1045 H   0  0  0  0  0  0  0  0  0  0  0  0  # atno 7974 bound_to 7965
  155.2557  140.3355  155.4278 H   0  0  0  0  0  0  0  0  0  0  0  0  # atno 8008 bound_to 7997
  156.2197  140.1803  156.7550 H   0  0  0  0  0  0  0  0  0  0  0  0  # atno 8009 bound_to 7997
  154.5806  140.0654  156.9083 H   0  0  0  0  0  0  0  0  0  0  0  0  # atno 8010 bound_to 7997
  140.6807  143.6782  150.8127 H   0  0  0  0  0  0  0  0  0  0  0  0  # atno 10167 bound_to 10162
  157.5433  131.1096  150.8823 H   0  0  0  0  0  0  0  0  0  0  0  0  # atno 10718 bound_to 10713
  153.5404  135.7013  153.5639 H   0  0  0  0  0  0  0  0  0  0  0  0  # atno 10763 bound_to 10752
  153.3608  135.3970  155.1716 H   0  0  0  0  0  0  0  0  0  0  0  0  # atno 10764 bound_to 10752
  154.8674  135.3788  154.4908 H   0  0  0  0  0  0  0  0  0  0  0  0  # atno 10765 bound_to 10752
  140.3736  134.7008  157.4408 H   0  0  0  0  0  0  0  0  0  0  0  0  # atno 11005 bound_to 11000
  145.9678  140.8784  143.0178 LP  0  0  0  0  0  0  0  0  0  0  0  0  # atno 17320 bound_to 7965
  144.6748  140.1903  143.7397 LP  0  0  0  0  0  0  0  0  0  0  0  0  # atno 17321 bound_to 7965
  140.0482  143.5276  152.2686 LP  0  0  0  0  0  0  0  0  0  0  0  0  # atno 17342 bound_to 10162
  139.6128  144.7613  151.2912 LP  0  0  0  0  0  0  0  0  0  0  0  0  # atno 17343 bound_to 10162
  156.9370  130.5370  149.5279 LP  0  0  0  0  0  0  0  0  0  0  0  0  # atno 17370 bound_to 10713
  156.0514  130.5583  150.8998 LP  0  0  0  0  0  0  0  0  0  0  0  0  # atno 17371 bound_to 10713
  140.0532  134.6100  155.8836 LP  0  0  0  0  0  0  0  0  0  0  0  0  # atno 17394 bound_to 11000
  141.1946  133.6584  156.5605 LP  0  0  0  0  0  0  0  0  0  0  0  0  # atno 17395 bound_to 11000

$$$$
