AV-unprocessed.smi:63|AV-procd|sdf|607|dock3
  -GOLD-   2262016503D 1   1.00000     0.00000
 Structure written by MMmdl.
 29 30  0  0  0  0  0  0  0  0  1 V2000
  151.4998  139.3930  155.2960 C   0  0  0  0  0  0  0  0  0  0  0  0
  151.7928  140.2924  156.4785 C   0  0  0  0  0  0  0  0  0  0  0  0
  151.1066  141.5093  156.6448 C   0  0  0  0  0  0  0  0  0  0  0  0
  151.4400  142.2887  157.7656 C   0  0  0  0  0  0  0  0  0  0  0  0
  152.4358  141.8003  158.6422 C   0  0  0  0  0  0  0  0  0  0  0  0
  152.8105  142.5496  159.7778 N   0  0  0  0  0  0  0  0  0  0  0  0
  153.4947  141.8287  160.8467 C   0  0  0  0  0  0  0  0  0  0  0  0
  153.0051  142.4427  162.1607 C   0  0  0  0  0  0  0  0  0  0  0  0
  152.4961  143.8193  161.7477 C   0  0  0  0  0  0  0  0  0  0  0  0
  151.9278  143.5671  160.3473 C   0  0  1  0  0  0  0  0  0  0  0  0
  151.8464  144.8455  159.4888 C   0  0  0  0  0  0  0  0  0  0  0  0
  151.2936  145.9026  160.2434 O   0  0  0  0  0  0  0  0  0  0  0  0
  153.0518  140.6124  158.4117 N   0  0  0  0  0  0  0  0  0  0  0  0
  152.7379  139.8672  157.3467 N   0  0  0  0  0  0  0  0  0  0  0  0
  150.4252  139.2416  155.1915 H   0  0  0  0  0  0  0  0  0  0  0  0
  151.9706  138.4158  155.4115 H   0  0  0  0  0  0  0  0  0  0  0  0
  151.8741  139.8462  154.3778 H   0  0  0  0  0  0  0  0  0  0  0  0
  150.3539  141.8335  155.9414 H   0  0  0  0  0  0  0  0  0  0  0  0
  150.9391  143.2289  157.9435 H   0  0  0  0  0  0  0  0  0  0  0  0
  153.2966  140.7562  160.8227 H   0  0  0  0  0  0  0  0  0  0  0  0
  154.5691  141.9768  160.7330 H   0  0  0  0  0  0  0  0  0  0  0  0
  152.1781  141.8515  162.5561 H   0  0  0  0  0  0  0  0  0  0  0  0
  153.7825  142.4863  162.9239 H   0  0  0  0  0  0  0  0  0  0  0  0
  151.7560  144.2226  162.4392 H   0  0  0  0  0  0  0  0  0  0  0  0
  153.3319  144.5192  161.7014 H   0  0  0  0  0  0  0  0  0  0  0  0
  150.9319  143.1328  160.4509 H   0  0  0  0  0  0  0  0  0  0  0  0
  152.8342  145.1368  159.1302 H   0  0  0  0  0  0  0  0  0  0  0  0
  151.2194  144.6977  158.6101 H   0  0  0  0  0  0  0  0  0  0  0  0
  151.0275  146.5876  159.6492 H   0  0  0  0  0  0  0  0  0  0  0  0
  1  2  1  0  0  0  0
  1 15  1  0  0  0  0
  1 16  1  0  0  0  0
  1 17  1  0  0  0  0
  2 14  1  0  0  0  0
  2  3  2  0  0  0  0
  3  4  1  0  0  0  0
  3 18  1  0  0  0  0
  4  5  2  0  0  0  0
  4 19  1  0  0  0  0
  5  6  1  0  0  0  0
  5 13  1  0  0  0  0
  6 10  1  0  0  0  0
  6  7  1  0  0  0  0
  7  8  1  0  0  0  0
  7 20  1  0  0  0  0
  7 21  1  0  0  0  0
  8  9  1  0  0  0  0
  8 22  1  0  0  0  0
  8 23  1  0  0  0  0
  9 10  1  0  0  0  0
  9 24  1  0  0  0  0
  9 25  1  0  0  0  0
 10 11  1  0  0  0  0
 10 26  1  0  0  0  0
 11 12  1  0  0  0  0
 11 27  1  0  0  0  0
 11 28  1  0  0  0  0
 12 29  1  0  0  0  0
 13 14  2  0  0  0  0
M  END
> <s_m_source_file>
AV-unprocessed.smi

> <i_m_source_file_index>
63

> <i_lp_mmshare_version>
43012

> <i_f3d_flags>
0

> <s_epik_input>
W0NIM11jMVtjSF1bY0hdYyhubjEpTjJbQ0gyXVtDSDJdW0NIMl1bQ0BIXTJbQ0gyXVtPSF0=

> <s_epik_cmdline>
J2VwaWtfcHl0aG9uJywgJy1waCcsICc3LjAnLCAnLXRuJywgJzgnLCAnLW1hJywgJzIwMCcsICctbWV0YWxfYmluZGluZycsICctaW1hZScsICc8aW5maWxlLm1hZT4nLCAnLW9tYWUnLCAnPG91dGZpbGUubWFlPic=

> <r_lp_tautomer_probability>
1

> <r_epik_Ionization_Penalty>
4.30639e-05

> <r_epik_Ionization_Penalty_Charging>
0

> <r_epik_Ionization_Penalty_Neutral>
4.30639e-05

> <r_epik_State_Penalty>
-0

> <r_epik_Charging_Adjusted_Penalty>
0

> <i_epik_Tot_Q>
0

> <i_epik_Tot_abs_Q>
0

> <r_epik_Metal_State_Penalty>
-0

> <b_epik_Metal_Only>
0

> <s_lp_Force_Field>
OPLS_2005

> <r_lp_Energy>
32.9321

> <b_lp_Chiralities_Consistent>
1

> <s_lp_Variant>
AV-unprocessed.smi:63-1

> <Gold.Version>
5.8.1

> <Gold.Id.Protein>
6NUR|6NUR_protein|mol2

> <Gold.PLP.Fitness>
38.6175

> <Gold.PLP.PLP>
-37.3014

> <Gold.PLP.part.hbond>
-3.9281

> <Gold.PLP.part.metal>
0.0000

> <Gold.PLP.part.buried>
-4.0046

> <Gold.PLP.part.nonpolar>
-28.2228

> <Gold.PLP.part.repulsive>
0.0000

> <Gold.PLP.ligand.clash>
0.0000

> <Gold.PLP.ligand.torsion>
0.6820

> <Gold.PLP.Chemscore.Hbond>
0.7752

> <Gold.PLP.Chemscore.CHOScore>
0.0000

> <Gold.PLP.Chemscore.Metal>
0.0000

> <Gold.Chemscore.Hbonds>
donor molecule, donor type, donor heavy atom, donor atom, acceptor molecule, acceptor atom, score
      P1  H  7997  8008       L1    14  0.78

> <Gold.PLP.Chemscore.Internal.Correction>
0.3545

> <Gold.Rescore>
     Score         DG    S(hbond)    S(metal)    S(lipo)     H(rot)  DE(clash)    DE(int)     intcor
     10.66     -11.39       0.00        0.00      87.99       1.71       0.02       0.71       ----

> <Gold.Chemscore.Fitness>
10.6587

> <Gold.Chemscore.DG>
-11.3928

> <Gold.Chemscore.ZeroCoef>
-5.4800

> <Gold.Chemscore.Hbond>
0.0017

> <Gold.Chemscore.Metal>
0.0000

> <Gold.Chemscore.Lipo>
87.9857

> <Gold.Chemscore.Internal_Hbond>
0.0000

> <Gold.Chemscore.DEClash>
0.0226

> <Gold.Chemscore.DEInternal>
0.7115

> <Gold.Chemscore.Rot>
1.7138

> <Gold.Chemscore.Internal.Correction>
   9.000000E+99

> <Gold.Chemscore.Hbonds>
donor molecule, donor type, donor heavy atom, donor atom, acceptor molecule, acceptor atom, score
      P1  H  7997  8008       L1    14  0.05

> <Gold.Chemscore.Hbond.Weighted>
-0.0057

> <Gold.Chemscore.Metal.Weighted>
-0.0000

> <Gold.Chemscore.Lipo.Weighted>
-10.2943

> <Gold.Chemscore.Internal_Hbond.Weighted>
0.0000

> <Gold.Chemscore.DEClash.Weighted>
0.0226

> <Gold.Chemscore.DEInternal.Weighted>
0.7115

> <Gold.Chemscore.Rot.Weighted>
4.3872

> <Gold.Chemscore.Internal.Correction.Weighted>
   9.000000E+99

> <Gold.Protein.RotatedTorsions>
[ 6907 6896 6895 6894 ] final   42.70 input  -60.11 | X-H torsion
[ 7974 7965 7964 7962 ] final  100.02 input  175.53 | X-H torsion
[ 8008 7997 7996 7995 ] final  -44.82 input   59.86 | X-H torsion
[ 10167 10162 10161 10158 ] final    8.75 input  -65.29 | X-H torsion
[ 10718 10713 10712 10709 ] final  -13.73 input   66.30 | X-H torsion
[ 10763 10752 10751 10750 ] final   45.21 input  -60.55 | X-H torsion
[ 11005 11000 10999 10996 ] final   16.63 input  -57.11 | X-H torsion

> <Gold.Protein.ActiveResidues>
 VAL166  LYS551  ARG553  GLY616  TRP617  ASP618  TYR619  PRO620  LYS621  CYS622 
 ASP623  PHE694  ASN695  SER759  ASP760  ASP761  ALA762  ILE779  LEU786  VAL792 
 PHE793  MET794  SER795  GLU796  ALA797  LYS798  CYS799  TRP800  GLU811  SER814 

> <Gold.Protein.RotatedAtoms>
  152.2111  134.8500  160.0496 H   0  0  0  0  0  0  0  0  0  0  0  0  # atno 6907 bound_to 6896
  151.9318  133.3608  159.3942 H   0  0  0  0  0  0  0  0  0  0  0  0  # atno 6908 bound_to 6896
  150.6976  134.4454  159.5355 H   0  0  0  0  0  0  0  0  0  0  0  0  # atno 6909 bound_to 6896
  145.3911  139.2363  143.3351 H   0  0  0  0  0  0  0  0  0  0  0  0  # atno 7974 bound_to 7965
  154.3998  140.1412  156.3746 H   0  0  0  0  0  0  0  0  0  0  0  0  # atno 8008 bound_to 7997
  155.8061  140.3474  155.5409 H   0  0  0  0  0  0  0  0  0  0  0  0  # atno 8009 bound_to 7997
  155.8434  140.0930  157.1710 H   0  0  0  0  0  0  0  0  0  0  0  0  # atno 8010 bound_to 7997
  140.6296  143.8024  150.7277 H   0  0  0  0  0  0  0  0  0  0  0  0  # atno 10167 bound_to 10162
  156.6260  130.4888  149.6147 H   0  0  0  0  0  0  0  0  0  0  0  0  # atno 10718 bound_to 10713
  152.9828  135.6046  154.3400 H   0  0  0  0  0  0  0  0  0  0  0  0  # atno 10763 bound_to 10752
  154.3097  135.2771  155.2573 H   0  0  0  0  0  0  0  0  0  0  0  0  # atno 10764 bound_to 10752
  154.4788  135.5922  153.6431 H   0  0  0  0  0  0  0  0  0  0  0  0  # atno 10765 bound_to 10752
  140.4450  134.1283  155.7695 H   0  0  0  0  0  0  0  0  0  0  0  0  # atno 11005 bound_to 11000
  146.2797  140.4594  142.8781 LP  0  0  0  0  0  0  0  0  0  0  0  0  # atno 17320 bound_to 7965
  144.8439  140.6900  143.6211 LP  0  0  0  0  0  0  0  0  0  0  0  0  # atno 17321 bound_to 7965
  140.1632  143.4257  152.2052 LP  0  0  0  0  0  0  0  0  0  0  0  0  # atno 17342 bound_to 10162
  139.5511  144.7338  151.4431 LP  0  0  0  0  0  0  0  0  0  0  0  0  # atno 17343 bound_to 10162
  156.2273  130.6773  151.1428 LP  0  0  0  0  0  0  0  0  0  0  0  0  # atno 17370 bound_to 10713
  157.7214  131.0679  150.6120 LP  0  0  0  0  0  0  0  0  0  0  0  0  # atno 17371 bound_to 10713
  141.1689  133.8648  157.1631 LP  0  0  0  0  0  0  0  0  0  0  0  0  # atno 17394 bound_to 11000
  140.0045  135.0014  157.0262 LP  0  0  0  0  0  0  0  0  0  0  0  0  # atno 17395 bound_to 11000

$$$$
