AV-unprocessed.smi:1809|AV-procd|sdf|7324|dock4
  -GOLD-   22720 8583D 1   1.00000     0.00000
 Structure written by MMmdl.
 39 41  0  0  0  0  0  0  0  0  3 V2000
  145.7043  136.5541  162.0651 C   0  0  0  0  0  0  0  0  0  0  0  0
  146.8024  136.3902  161.0710 C   0  0  0  0  0  0  0  0  0  0  0  0
  147.7105  137.3401  160.8351 N   0  0  0  0  0  0  0  0  0  0  0  0
  148.6256  136.9588  159.8644 N   0  0  0  0  0  0  0  0  0  0  0  0
  148.3922  135.7328  159.3744 C   0  0  0  0  0  0  0  0  0  0  0  0
  149.1639  135.1779  158.4252 N   0  5  0  0  0  0  0  0  0  0  0  0
  148.6623  134.2087  157.6278 C   0  0  0  0  0  0  0  0  0  0  0  0
  149.0065  133.0245  157.6103 O   0  0  0  0  0  0  0  0  0  0  0  0
  147.7063  134.6384  156.7924 N   0  0  0  0  0  0  0  0  0  0  0  0
  147.0045  133.8199  155.8096 C   0  0  0  0  0  0  0  0  0  0  0  0
  146.8999  134.5313  154.4494 C   0  0  1  0  0  0  0  0  0  0  0  0
  147.0324  133.5497  153.2750 C   0  0  0  0  0  0  0  0  0  0  0  0
  146.8976  134.2474  151.9714 N   0  3  1  0  0  0  0  0  0  0  0  0
  146.7351  133.3029  150.8440 C   0  0  0  0  0  0  0  0  0  0  0  0
  145.2262  133.2247  150.5464 C   0  0  0  0  0  0  0  0  0  0  0  0
  144.5642  134.2342  151.4909 C   0  0  0  0  0  0  0  0  0  0  0  0
  145.7203  135.1417  151.9111 C   0  0  1  0  0  0  0  0  0  0  0  0
  145.5059  135.9585  153.2023 C   0  0  0  0  0  0  0  0  0  0  0  0
  145.6163  135.1363  154.3546 O   0  0  0  0  0  0  0  0  0  0  0  0
  147.0042  134.9333  160.1122 S   0  0  0  0  0  0  0  0  0  0  0  0
  144.9158  137.1808  161.6482 H   0  0  0  0  0  0  0  0  0  0  0  0
  146.0837  137.0227  162.9734 H   0  0  0  0  0  0  0  0  0  0  0  0
  145.2803  135.5841  162.3248 H   0  0  0  0  0  0  0  0  0  0  0  0
  147.4528  135.6144  156.8409 H   0  0  0  0  0  0  0  0  0  0  0  0
  147.5180  132.8632  155.7010 H   0  0  0  0  0  0  0  0  0  0  0  0
  146.0096  133.5950  156.1947 H   0  0  0  0  0  0  0  0  0  0  0  0
  147.6801  135.2911  154.3763 H   0  0  0  0  0  0  0  0  0  0  0  0
  148.0001  133.0479  153.3093 H   0  0  0  0  0  0  0  0  0  0  0  0
  146.2697  132.7739  153.3620 H   0  0  0  0  0  0  0  0  0  0  0  0
  147.2579  133.7109  149.9782 H   0  0  0  0  0  0  0  0  0  0  0  0
  147.1710  132.3244  151.0518 H   0  0  0  0  0  0  0  0  0  0  0  0
  145.0348  133.4869  149.5051 H   0  0  0  0  0  0  0  0  0  0  0  0
  144.8334  132.2205  150.7096 H   0  0  0  0  0  0  0  0  0  0  0  0
  143.7495  134.7829  151.0174 H   0  0  0  0  0  0  0  0  0  0  0  0
  144.1554  133.7158  152.3596 H   0  0  0  0  0  0  0  0  0  0  0  0
  145.8945  135.8436  151.0936 H   0  0  0  0  0  0  0  0  0  0  0  0
  146.2380  136.7653  153.2655 H   0  0  0  0  0  0  0  0  0  0  0  0
  144.5239  136.4321  153.1923 H   0  0  0  0  0  0  0  0  0  0  0  0
  147.7336  134.7982  151.8363 H   0  0  0  0  0  0  0  0  0  0  0  0
  1  2  1  0  0  0  0
  1 21  1  0  0  0  0
  1 22  1  0  0  0  0
  1 23  1  0  0  0  0
  2 20  1  0  0  0  0
  2  3  2  0  0  0  0
  3  4  1  0  0  0  0
  4  5  2  0  0  0  0
  5  6  1  0  0  0  0
  5 20  1  0  0  0  0
  6  7  1  0  0  0  0
  7  8  2  0  0  0  0
  7  9  1  0  0  0  0
  9 10  1  0  0  0  0
  9 24  1  0  0  0  0
 10 11  1  0  0  0  0
 10 25  1  0  0  0  0
 10 26  1  0  0  0  0
 11 19  1  0  0  0  0
 11 12  1  0  0  0  0
 11 27  1  0  0  0  0
 12 13  1  0  0  0  0
 12 28  1  0  0  0  0
 12 29  1  0  0  0  0
 13 17  1  0  0  0  0
 13 14  1  0  0  0  0
 13 39  1  0  0  0  0
 14 15  1  0  0  0  0
 14 30  1  0  0  0  0
 14 31  1  0  0  0  0
 15 16  1  0  0  0  0
 15 32  1  0  0  0  0
 15 33  1  0  0  0  0
 16 17  1  0  0  0  0
 16 34  1  0  0  0  0
 16 35  1  0  0  0  0
 17 18  1  0  0  0  0
 17 36  1  0  0  0  0
 18 19  1  0  0  0  0
 18 37  1  0  0  0  0
 18 38  1  0  0  0  0
M  CHG  1   6  -1
M  CHG  1  13   1
M  END
> <s_m_source_file>
AV-unprocessed.smi

> <i_m_source_file_index>
1809

> <i_lp_mmshare_version>
43012

> <i_f3d_flags>
0

> <s_epik_input>
W0NIM11jMW5uYyhzMSlbTkhdQyg9TylbTkhdW0NIMl1bQ0BIXShbQ0gyXTIpT1tDSDJdW0NAQEhdKE4yMylbQ0gyXVtDSDJdW0NIMl0z

> <s_epik_cmdline>
J2VwaWtfcHl0aG9uJywgJy1waCcsICc3LjAnLCAnLXRuJywgJzgnLCAnLW1hJywgJzIwMCcsICctbWV0YWxfYmluZGluZycsICctaW1hZScsICc8aW5maWxlLm1hZT4nLCAnLW9tYWUnLCAnPG91dGZpbGUubWFlPic=

> <r_lp_tautomer_probability>
1

> <r_epik_Ionization_Penalty>
3.2601

> <r_epik_Ionization_Penalty_Charging>
3.1406

> <r_epik_Ionization_Penalty_Neutral>
0.119497

> <r_epik_State_Penalty>
3.08894

> <r_epik_Charging_Adjusted_Penalty>
6.22954

> <i_epik_Tot_Q>
0

> <i_epik_Tot_abs_Q>
2

> <r_epik_Metal_State_Penalty>
0.510807

> <b_epik_Metal_Only>
1

> <s_lp_Force_Field>
OPLS_2005

> <r_lp_Energy>
28.9947

> <b_lp_Chiralities_Consistent>
1

> <s_lp_Variant>
AV-unprocessed.smi:1809-16

> <Gold.Version>
5.8.1

> <Gold.Id.Protein>
6NUR|6NUR_protein|mol2

> <Gold.PLP.Fitness>
37.4954

> <Gold.PLP.PLP>
-23.1303

> <Gold.PLP.part.hbond>
-4.3726

> <Gold.PLP.part.metal>
0.0000

> <Gold.PLP.part.buried>
-4.1635

> <Gold.PLP.part.nonpolar>
-14.5942

> <Gold.PLP.part.repulsive>
0.1001

> <Gold.PLP.ligand.clash>
0.0000

> <Gold.PLP.ligand.torsion>
1.3727

> <Gold.PLP.Chemscore.Hbond>
5.6960

> <Gold.PLP.Chemscore.CHOScore>
0.0000

> <Gold.PLP.Chemscore.Metal>
0.0000

> <Gold.Chemscore.Hbonds>
donor molecule, donor type, donor heavy atom, donor atom, acceptor molecule, acceptor atom, score
      L1  H    13    39       P1  7948  2.00
      P1  H  6896  6907       L1     6  1.98
      P1  H  6931  6943       L1     3  0.55
      P1  H  6934  6947       L1     3  0.88

> <Gold.PLP.Chemscore.Internal.Correction>
0.0225

> <Gold.Rescore>
     Score         DG    S(hbond)    S(metal)    S(lipo)     H(rot)  DE(clash)    DE(int)     intcor
     14.48     -15.77       2.58        0.00      43.42       1.32       0.00       1.29       ----

> <Gold.Chemscore.Fitness>
14.4846

> <Gold.Chemscore.DG>
-15.7733

> <Gold.Chemscore.ZeroCoef>
-5.4800

> <Gold.Chemscore.Hbond>
2.5760

> <Gold.Chemscore.Metal>
0.0000

> <Gold.Chemscore.Lipo>
43.4211

> <Gold.Chemscore.Internal_Hbond>
0.0000

> <Gold.Chemscore.DEClash>
0.0000

> <Gold.Chemscore.DEInternal>
1.2887

> <Gold.Chemscore.Rot>
1.3246

> <Gold.Chemscore.Internal.Correction>
   9.000000E+99

> <Gold.Chemscore.Hbonds>
donor molecule, donor type, donor heavy atom, donor atom, acceptor molecule, acceptor atom, score
      L1  H    13    39       P1  7948  0.45
      P1  H  6896  6907       L1     6  0.16
      P1  H  6931  6943       L1     3  0.06
      P1  H  6934  6947       L1     3  0.80

> <Gold.Chemscore.Hbond.Weighted>
-8.6040

> <Gold.Chemscore.Metal.Weighted>
-0.0000

> <Gold.Chemscore.Lipo.Weighted>
-5.0803

> <Gold.Chemscore.Internal_Hbond.Weighted>
0.0000

> <Gold.Chemscore.DEClash.Weighted>
0.0000

> <Gold.Chemscore.DEInternal.Weighted>
1.2887

> <Gold.Chemscore.Rot.Weighted>
3.3910

> <Gold.Chemscore.Internal.Correction.Weighted>
   9.000000E+99

> <Gold.Protein.RotatedTorsions>
[ 6907 6896 6895 6894 ] final  -97.76 input  -60.11 | X-H torsion
[ 7974 7965 7964 7962 ] final -177.44 input  175.53 | X-H torsion
[ 8008 7997 7996 7995 ] final  157.36 input   59.86 | X-H torsion
[ 10167 10162 10161 10158 ] final -179.77 input  -65.29 | X-H torsion
[ 10718 10713 10712 10709 ] final  -20.62 input   66.30 | X-H torsion
[ 10763 10752 10751 10750 ] final  159.98 input  -60.55 | X-H torsion
[ 11005 11000 10999 10996 ] final   51.46 input  -57.11 | X-H torsion

> <Gold.Protein.ActiveResidues>
 VAL166  LYS551  ARG553  GLY616  TRP617  ASP618  TYR619  PRO620  LYS621  CYS622 
 ASP623  PHE694  ASN695  SER759  ASP760  ASP761  ALA762  ILE779  LEU786  VAL792 
 PHE793  MET794  SER795  GLU796  ALA797  LYS798  CYS799  TRP800  GLU811  SER814 

> <Gold.Protein.RotatedAtoms>
  150.7026  134.1299  159.4065 H   0  0  0  0  0  0  0  0  0  0  0  0  # atno 6907 bound_to 6896
  151.9285  135.0265  160.0536 H   0  0  0  0  0  0  0  0  0  0  0  0  # atno 6908 bound_to 6896
  152.2196  133.4938  159.5192 H   0  0  0  0  0  0  0  0  0  0  0  0  # atno 6909 bound_to 6896
  144.7128  140.1019  143.6416 H   0  0  0  0  0  0  0  0  0  0  0  0  # atno 7974 bound_to 7965
  156.2368  140.1887  156.7096 H   0  0  0  0  0  0  0  0  0  0  0  0  # atno 8008 bound_to 7997
  154.6122  140.0620  156.9535 H   0  0  0  0  0  0  0  0  0  0  0  0  # atno 8009 bound_to 7997
  155.1997  140.3291  155.4347 H   0  0  0  0  0  0  0  0  0  0  0  0  # atno 8010 bound_to 7997
  139.5371  144.2466  152.0818 H   0  0  0  0  0  0  0  0  0  0  0  0  # atno 10167 bound_to 10162
  156.5293  130.4651  149.6555 H   0  0  0  0  0  0  0  0  0  0  0  0  # atno 10718 bound_to 10713
  154.2402  135.2775  155.2856 H   0  0  0  0  0  0  0  0  0  0  0  0  # atno 10763 bound_to 10752
  154.5551  135.5663  153.6960 H   0  0  0  0  0  0  0  0  0  0  0  0  # atno 10764 bound_to 10752
  153.0001  135.6284  154.2546 H   0  0  0  0  0  0  0  0  0  0  0  0  # atno 10765 bound_to 10752
  140.0931  134.5183  155.8833 H   0  0  0  0  0  0  0  0  0  0  0  0  # atno 11005 bound_to 11000
  145.9531  139.2747  143.1200 LP  0  0  0  0  0  0  0  0  0  0  0  0  # atno 17320 bound_to 7965
  145.9302  140.9054  143.0360 LP  0  0  0  0  0  0  0  0  0  0  0  0  # atno 17321 bound_to 7965
  140.1938  144.4725  150.6465 LP  0  0  0  0  0  0  0  0  0  0  0  0  # atno 17342 bound_to 10162
  140.6583  143.2244  151.5916 LP  0  0  0  0  0  0  0  0  0  0  0  0  # atno 17343 bound_to 10162
  156.3075  130.7210  151.2096 LP  0  0  0  0  0  0  0  0  0  0  0  0  # atno 17370 bound_to 10713
  157.7424  131.0490  150.5025 LP  0  0  0  0  0  0  0  0  0  0  0  0  # atno 17371 bound_to 10713
  141.2084  133.6673  156.6367 LP  0  0  0  0  0  0  0  0  0  0  0  0  # atno 17394 bound_to 11000
  140.3325  134.7917  157.4337 LP  0  0  0  0  0  0  0  0  0  0  0  0  # atno 17395 bound_to 11000

$$$$
