AV-unprocessed.smi:650|AV-procd|sdf|3182|dock1
  -GOLD-   22720 0103D 1   1.00000     0.00000
 Structure written by MMmdl.
 43 44  0  0  0  0  0  0  0  0  2 V2000
  150.7498  140.7363  157.9504 C   0  0  0  0  0  0  0  0  0  0  0  0
  150.5556  140.3209  156.5322 C   0  0  0  0  0  0  0  0  0  0  0  0
  149.4419  140.0600  155.7846 C   0  0  0  0  0  0  0  0  0  0  0  0
  149.9811  139.7142  154.5169 C   0  0  0  0  0  0  0  0  0  0  0  0
  149.1326  139.3639  153.4358 N   0  0  0  0  0  0  0  0  0  0  0  0
  147.8186  139.0866  153.4831 C   0  0  0  0  0  0  0  0  0  0  0  0
  147.1292  139.0900  154.5034 O   0  0  0  0  0  0  0  0  0  0  0  0
  147.3374  138.7951  152.2655 N   0  0  0  0  0  0  0  0  0  0  0  0
  145.9440  138.4838  151.9586 C   0  0  0  0  0  0  0  0  0  0  0  0
  145.6280  136.9787  152.0885 C   0  0  2  0  0  0  0  0  0  0  0  0
  145.9087  136.2465  150.7641 C   0  0  0  0  0  0  0  0  0  0  0  0
  145.5817  134.7477  150.8630 C   0  0  0  0  0  0  0  0  0  0  0  0
  144.1697  134.5343  151.2691 N   0  3  1  0  0  0  0  0  0  0  0  0
  143.7822  133.1008  151.2295 C   0  0  0  0  0  0  0  0  0  0  0  0
  144.1289  132.4309  149.8889 C   0  0  0  0  0  0  0  0  0  0  0  0
  142.9463  132.0353  149.2266 O   0  0  0  0  0  0  0  0  0  0  0  0
  143.8777  135.1896  152.5708 C   0  0  0  0  0  0  0  0  0  0  0  0
  144.1720  136.6976  152.5124 C   0  0  0  0  0  0  0  0  0  0  0  0
  151.3043  139.7641  154.4913 N   0  0  0  0  0  0  0  0  0  0  0  0
  151.6791  140.1531  155.7828 O   0  0  0  0  0  0  0  0  0  0  0  0
  149.9360  140.3702  158.5765 H   0  0  0  0  0  0  0  0  0  0  0  0
  150.7789  141.8226  158.0335 H   0  0  0  0  0  0  0  0  0  0  0  0
  151.6843  140.3405  158.3489 H   0  0  0  0  0  0  0  0  0  0  0  0
  148.4097  140.1073  156.0978 H   0  0  0  0  0  0  0  0  0  0  0  0
  149.5730  139.3283  152.5286 H   0  0  0  0  0  0  0  0  0  0  0  0
  147.9794  138.8117  151.4865 H   0  0  0  0  0  0  0  0  0  0  0  0
  145.2668  139.0707  152.5819 H   0  0  0  0  0  0  0  0  0  0  0  0
  145.7623  138.8070  150.9332 H   0  0  0  0  0  0  0  0  0  0  0  0
  146.2896  136.5615  152.8494 H   0  0  0  0  0  0  0  0  0  0  0  0
  145.3188  136.6934  149.9624 H   0  0  0  0  0  0  0  0  0  0  0  0
  146.9547  136.3725  150.4827 H   0  0  0  0  0  0  0  0  0  0  0  0
  145.7616  134.2806  149.8939 H   0  0  0  0  0  0  0  0  0  0  0  0
  146.2468  134.2615  151.5787 H   0  0  0  0  0  0  0  0  0  0  0  0
  144.2942  132.5560  152.0243 H   0  0  0  0  0  0  0  0  0  0  0  0
  142.7151  133.0072  151.4363 H   0  0  0  0  0  0  0  0  0  0  0  0
  144.6557  133.1397  149.2494 H   0  0  0  0  0  0  0  0  0  0  0  0
  144.7872  131.5720  150.0127 H   0  0  0  0  0  0  0  0  0  0  0  0
  142.3215  132.7435  149.2740 H   0  0  0  0  0  0  0  0  0  0  0  0
  142.8327  135.0474  152.8431 H   0  0  0  0  0  0  0  0  0  0  0  0
  144.4735  134.7229  153.3568 H   0  0  0  0  0  0  0  0  0  0  0  0
  143.9694  137.1321  153.4913 H   0  0  0  0  0  0  0  0  0  0  0  0
  143.4847  137.1774  151.8139 H   0  0  0  0  0  0  0  0  0  0  0  0
  143.6038  134.9956  150.5703 H   0  0  0  0  0  0  0  0  0  0  0  0
  1  2  1  0  0  0  0
  1 21  1  0  0  0  0
  1 22  1  0  0  0  0
  1 23  1  0  0  0  0
  2 20  1  0  0  0  0
  2  3  2  0  0  0  0
  3  4  1  0  0  0  0
  3 24  1  0  0  0  0
  4  5  1  0  0  0  0
  4 19  2  0  0  0  0
  5  6  1  0  0  0  0
  5 25  1  0  0  0  0
  6  7  2  0  0  0  0
  6  8  1  0  0  0  0
  8  9  1  0  0  0  0
  8 26  1  0  0  0  0
  9 10  1  0  0  0  0
  9 27  1  0  0  0  0
  9 28  1  0  0  0  0
 10 18  1  0  0  0  0
 10 11  1  0  0  0  0
 10 29  1  0  0  0  0
 11 12  1  0  0  0  0
 11 30  1  0  0  0  0
 11 31  1  0  0  0  0
 12 13  1  0  0  0  0
 12 32  1  0  0  0  0
 12 33  1  0  0  0  0
 13 14  1  0  0  0  0
 13 17  1  0  0  0  0
 13 43  1  0  0  0  0
 14 15  1  0  0  0  0
 14 34  1  0  0  0  0
 14 35  1  0  0  0  0
 15 16  1  0  0  0  0
 15 36  1  0  0  0  0
 15 37  1  0  0  0  0
 16 38  1  0  0  0  0
 17 18  1  0  0  0  0
 17 39  1  0  0  0  0
 17 40  1  0  0  0  0
 18 41  1  0  0  0  0
 18 42  1  0  0  0  0
 19 20  1  0  0  0  0
M  CHG  1  13   1
M  END
> <s_m_source_file>
AV-unprocessed.smi

> <i_m_source_file_index>
650

> <i_lp_mmshare_version>
43012

> <i_f3d_flags>
0

> <s_epik_input>
W0NIM11jMVtjSF1jKG5vMSlbTkhdQyg9TylbTkhdW0NIMl1bQ0hdMltDSDJdW0NIMl1OKFtDSDJdW0NIMl0yKVtDSDJdW0NIMl1bT0hd

> <s_epik_cmdline>
J2VwaWtfcHl0aG9uJywgJy1waCcsICc3LjAnLCAnLXRuJywgJzgnLCAnLW1hJywgJzIwMCcsICctbWV0YWxfYmluZGluZycsICctaW1hZScsICc8aW5maWxlLm1hZT4nLCAnLW9tYWUnLCAnPG91dGZpbGUubWFlPic=

> <r_epik_Ionization_Penalty>
0.00179437

> <r_epik_Ionization_Penalty_Charging>
0.00177223

> <r_epik_Ionization_Penalty_Neutral>
2.21418e-05

> <r_epik_State_Penalty>
0.00120075

> <r_epik_Charging_Adjusted_Penalty>
0.00297297

> <i_epik_Tot_Q>
1

> <i_epik_Tot_abs_Q>
1

> <r_epik_Metal_State_Penalty>
-0

> <b_epik_Metal_Only>
0

> <s_lp_Force_Field>
OPLS_2005

> <r_lp_Energy>
15.9462

> <b_lp_Chiralities_Consistent>
1

> <s_lp_Variant>
AV-unprocessed.smi:650-1

> <Gold.Version>
5.8.1

> <Gold.Id.Protein>
6NUR|6NUR_protein|mol2

> <Gold.PLP.Fitness>
46.7192

> <Gold.PLP.PLP>
-35.4957

> <Gold.PLP.part.hbond>
-6.9072

> <Gold.PLP.part.metal>
0.0000

> <Gold.PLP.part.buried>
-3.0554

> <Gold.PLP.part.nonpolar>
-25.9788

> <Gold.PLP.part.repulsive>
0.3898

> <Gold.PLP.ligand.clash>
0.0000

> <Gold.PLP.ligand.torsion>
0.9715

> <Gold.PLP.Chemscore.Hbond>
4.3681

> <Gold.PLP.Chemscore.CHOScore>
0.0000

> <Gold.PLP.Chemscore.Metal>
0.0000

> <Gold.Chemscore.Hbonds>
donor molecule, donor type, donor heavy atom, donor atom, acceptor molecule, acceptor atom, score
      L1  H     5    25       P1  7957  0.86
      L1  H     8    26       P1  7957  0.62
      L1  H    16    38       P1 10186  0.73
      P1  H  7989  7998       L1    19  0.98
      P1  H 10785 10796       L1    16  1.00

> <Gold.PLP.Chemscore.Internal.Correction>
0.0622

> <Gold.Rescore>
     Score         DG    S(hbond)    S(metal)    S(lipo)     H(rot)  DE(clash)    DE(int)     intcor
     15.83     -18.85       3.70        0.00      64.39       2.55       0.65       2.37       ----

> <Gold.Chemscore.Fitness>
15.8295

> <Gold.Chemscore.DG>
-18.8547

> <Gold.Chemscore.ZeroCoef>
-5.4800

> <Gold.Chemscore.Hbond>
3.7027

> <Gold.Chemscore.Metal>
0.0000

> <Gold.Chemscore.Lipo>
64.3909

> <Gold.Chemscore.Internal_Hbond>
0.0000

> <Gold.Chemscore.DEClash>
0.6545

> <Gold.Chemscore.DEInternal>
2.3707

> <Gold.Chemscore.Rot>
2.5492

> <Gold.Chemscore.Internal.Correction>
   9.000000E+99

> <Gold.Chemscore.Hbonds>
donor molecule, donor type, donor heavy atom, donor atom, acceptor molecule, acceptor atom, score
      L1  H     5    25       P1  7957  0.78
      L1  H     8    26       P1  7957  0.38
      L1  H    16    38       P1 10186  0.73
      P1  H  7989  7998       L1    19  0.34
      P1  H 10785 10796       L1    16  0.54

> <Gold.Chemscore.Hbond.Weighted>
-12.3669

> <Gold.Chemscore.Metal.Weighted>
-0.0000

> <Gold.Chemscore.Lipo.Weighted>
-7.5337

> <Gold.Chemscore.Internal_Hbond.Weighted>
0.0000

> <Gold.Chemscore.DEClash.Weighted>
0.6545

> <Gold.Chemscore.DEInternal.Weighted>
2.3707

> <Gold.Chemscore.Rot.Weighted>
6.5260

> <Gold.Chemscore.Internal.Correction.Weighted>
   9.000000E+99

> <Gold.Protein.RotatedTorsions>
[ 6907 6896 6895 6894 ] final -140.05 input  -60.11 | X-H torsion
[ 7974 7965 7964 7962 ] final  114.79 input  175.53 | X-H torsion
[ 8008 7997 7996 7995 ] final  173.46 input   59.86 | X-H torsion
[ 10167 10162 10161 10158 ] final  179.85 input  -65.29 | X-H torsion
[ 10718 10713 10712 10709 ] final  173.66 input   66.30 | X-H torsion
[ 10763 10752 10751 10750 ] final  125.53 input  -60.55 | X-H torsion
[ 11005 11000 10999 10996 ] final  146.95 input  -57.11 | X-H torsion

> <Gold.Protein.ActiveResidues>
 VAL166  LYS551  ARG553  GLY616  TRP617  ASP618  TYR619  PRO620  LYS621  CYS622 
 ASP623  PHE694  ASN695  SER759  ASP760  ASP761  ALA762  ILE779  LEU786  VAL792 
 PHE793  MET794  SER795  GLU796  ALA797  LYS798  CYS799  TRP800  GLU811  SER814 

> <Gold.Protein.RotatedAtoms>
  151.0557  133.5586  159.2638 H   0  0  0  0  0  0  0  0  0  0  0  0  # atno 6907 bound_to 6896
  151.2580  135.0644  159.9097 H   0  0  0  0  0  0  0  0  0  0  0  0  # atno 6908 bound_to 6896
  152.5389  134.0307  159.8077 H   0  0  0  0  0  0  0  0  0  0  0  0  # atno 6909 bound_to 6896
  145.2001  139.2957  143.4323 H   0  0  0  0  0  0  0  0  0  0  0  0  # atno 7974 bound_to 7965
  156.1073  140.1459  156.9387 H   0  0  0  0  0  0  0  0  0  0  0  0  # atno 8008 bound_to 7997
  154.4742  140.0900  156.7265 H   0  0  0  0  0  0  0  0  0  0  0  0  # atno 8009 bound_to 7997
  155.4658  140.3440  155.4321 H   0  0  0  0  0  0  0  0  0  0  0  0  # atno 8010 bound_to 7997
  139.5354  144.2511  152.0783 H   0  0  0  0  0  0  0  0  0  0  0  0  # atno 10167 bound_to 10162
  156.9611  131.0061  151.2927 H   0  0  0  0  0  0  0  0  0  0  0  0  # atno 10718 bound_to 10713
  153.6787  135.3318  155.3172 H   0  0  0  0  0  0  0  0  0  0  0  0  # atno 10763 bound_to 10752
  154.8471  135.4404  154.1629 H   0  0  0  0  0  0  0  0  0  0  0  0  # atno 10764 bound_to 10752
  153.2639  135.6994  153.7626 H   0  0  0  0  0  0  0  0  0  0  0  0  # atno 10765 bound_to 10752
  140.0835  134.9083  157.1538 H   0  0  0  0  0  0  0  0  0  0  0  0  # atno 11005 bound_to 11000
  146.3419  140.2242  142.8592 LP  0  0  0  0  0  0  0  0  0  0  0  0  # atno 17320 bound_to 7965
  144.9956  140.8586  143.5312 LP  0  0  0  0  0  0  0  0  0  0  0  0  # atno 17321 bound_to 7965
  140.1981  144.4685  150.6445 LP  0  0  0  0  0  0  0  0  0  0  0  0  # atno 17342 bound_to 10162
  140.6558  143.2237  151.5972 LP  0  0  0  0  0  0  0  0  0  0  0  0  # atno 17343 bound_to 10162
  157.5657  130.8276  149.8325 LP  0  0  0  0  0  0  0  0  0  0  0  0  # atno 17370 bound_to 10713
  156.0322  130.3761  150.1657 LP  0  0  0  0  0  0  0  0  0  0  0  0  # atno 17371 bound_to 10713
  140.3454  134.2658  155.7206 LP  0  0  0  0  0  0  0  0  0  0  0  0  # atno 17394 bound_to 11000
  141.2055  133.7859  157.0231 LP  0  0  0  0  0  0  0  0  0  0  0  0  # atno 17395 bound_to 11000

$$$$
