AV-unprocessed.smi:1389|AV-procd|sdf|5653|dock7
  -GOLD-   22720 5273D 1   1.00000     0.00000
 Structure written by MMmdl.
 53 55  0  0  0  0  0  0  0  0  3 V2000
  149.0862  135.4308  156.6867 C   0  0  0  0  0  0  0  0  0  0  0  0
  150.1985  135.2240  155.6354 C   0  0  1  0  0  0  0  0  0  0  0  0
  149.7842  134.1031  154.6448 C   0  0  0  0  0  0  0  0  0  0  0  0
  148.4695  134.3098  154.0369 N   0  0  0  0  0  0  0  0  0  0  0  0
  147.9125  133.5156  153.1110 C   0  0  0  0  0  0  0  0  0  0  0  0
  148.4295  132.4743  152.7079 O   0  0  0  0  0  0  0  0  0  0  0  0
  146.7441  134.0146  152.6732 N   0  0  0  0  0  0  0  0  0  0  0  0
  145.9093  133.4943  151.6429 C   0  0  0  0  0  0  0  0  0  0  0  0
  146.3030  132.3624  150.8833 C   0  0  0  0  0  0  0  0  0  0  0  0
  145.4718  131.8820  149.8540 C   0  0  0  0  0  0  0  0  0  0  0  0
  144.2550  132.5376  149.6012 C   0  0  0  0  0  0  0  0  0  0  0  0
  143.8986  133.5985  150.3542 N   0  3  0  0  0  0  0  0  0  0  0  0
  144.6479  134.0994  151.3681 C   0  0  0  0  0  0  0  0  0  0  0  0
  144.1382  135.2106  152.0778 N   0  0  0  0  0  0  0  0  0  0  0  0
  143.3473  135.0142  153.2873 C   0  0  0  0  0  0  0  0  0  0  0  0
  143.2871  136.3886  153.9480 C   0  0  0  0  0  0  0  0  0  0  0  0
  144.6588  136.9697  153.6194 C   0  0  0  0  0  0  0  0  0  0  0  0
  144.9742  136.3968  152.2334 C   0  0  0  0  0  0  0  0  0  0  0  0
  150.5847  136.5017  154.9516 N   0  3  0  0  0  0  0  0  0  0  0  0
  149.5130  137.5361  154.9631 C   0  0  0  0  0  0  0  0  0  0  0  0
  149.9629  138.8202  154.2462 C   0  0  0  0  0  0  0  0  0  0  0  0
  151.1496  139.3155  154.8463 O   0  0  0  0  0  0  0  0  0  0  0  0
  152.2146  138.3848  154.7310 C   0  0  0  0  0  0  0  0  0  0  0  0
  151.8506  137.0879  155.4728 C   0  0  0  0  0  0  0  0  0  0  0  0
  148.7279  134.4757  157.0718 H   0  0  0  0  0  0  0  0  0  0  0  0
  148.2292  135.9587  156.2677 H   0  0  0  0  0  0  0  0  0  0  0  0
  149.4390  135.9912  157.5523 H   0  0  0  0  0  0  0  0  0  0  0  0
  151.0767  134.8643  156.1740 H   0  0  0  0  0  0  0  0  0  0  0  0
  150.5114  134.0294  153.8365 H   0  0  0  0  0  0  0  0  0  0  0  0
  149.8289  133.1295  155.1362 H   0  0  0  0  0  0  0  0  0  0  0  0
  147.9756  135.1499  154.3007 H   0  0  0  0  0  0  0  0  0  0  0  0
  146.4921  134.9286  153.0193 H   0  0  0  0  0  0  0  0  0  0  0  0
  147.2337  131.8510  151.0780 H   0  0  0  0  0  0  0  0  0  0  0  0
  145.7656  131.0245  149.2661 H   0  0  0  0  0  0  0  0  0  0  0  0
  143.5561  132.2437  148.8312 H   0  0  0  0  0  0  0  0  0  0  0  0
  142.3525  134.6320  153.0564 H   0  0  0  0  0  0  0  0  0  0  0  0
  143.8413  134.3084  153.9564 H   0  0  0  0  0  0  0  0  0  0  0  0
  142.5058  136.9929  153.4850 H   0  0  0  0  0  0  0  0  0  0  0  0
  143.0885  136.3377  155.0189 H   0  0  0  0  0  0  0  0  0  0  0  0
  144.6766  138.0598  153.6421 H   0  0  0  0  0  0  0  0  0  0  0  0
  145.3909  136.6075  154.3427 H   0  0  0  0  0  0  0  0  0  0  0  0
  146.0361  136.1692  152.1306 H   0  0  0  0  0  0  0  0  0  0  0  0
  144.7036  137.1188  151.4624 H   0  0  0  0  0  0  0  0  0  0  0  0
  148.6176  137.1761  154.4588 H   0  0  0  0  0  0  0  0  0  0  0  0
  149.2358  137.7629  155.9937 H   0  0  0  0  0  0  0  0  0  0  0  0
  150.1250  138.6373  153.1827 H   0  0  0  0  0  0  0  0  0  0  0  0
  149.1869  139.5821  154.3219 H   0  0  0  0  0  0  0  0  0  0  0  0
  152.4325  138.1863  153.6802 H   0  0  0  0  0  0  0  0  0  0  0  0
  153.1136  138.8241  155.1640 H   0  0  0  0  0  0  0  0  0  0  0  0
  151.7477  137.2877  156.5406 H   0  0  0  0  0  0  0  0  0  0  0  0
  152.6803  136.3930  155.3552 H   0  0  0  0  0  0  0  0  0  0  0  0
  150.7485  136.2717  153.9819 H   0  0  0  0  0  0  0  0  0  0  0  0
  143.0048  134.0469  150.1521 H   0  0  0  0  0  0  0  0  0  0  0  0
  1  2  1  0  0  0  0
  1 25  1  0  0  0  0
  1 26  1  0  0  0  0
  1 27  1  0  0  0  0
  2  3  1  0  0  0  0
  2 19  1  0  0  0  0
  2 28  1  0  0  0  0
  3  4  1  0  0  0  0
  3 29  1  0  0  0  0
  3 30  1  0  0  0  0
  4  5  1  0  0  0  0
  4 31  1  0  0  0  0
  5  6  2  0  0  0  0
  5  7  1  0  0  0  0
  7  8  1  0  0  0  0
  7 32  1  0  0  0  0
  8 13  1  0  0  0  0
  8  9  2  0  0  0  0
  9 10  1  0  0  0  0
  9 33  1  0  0  0  0
 10 11  2  0  0  0  0
 10 34  1  0  0  0  0
 11 12  1  0  0  0  0
 11 35  1  0  0  0  0
 12 13  2  0  0  0  0
 12 53  1  0  0  0  0
 13 14  1  0  0  0  0
 14 18  1  0  0  0  0
 14 15  1  0  0  0  0
 15 16  1  0  0  0  0
 15 36  1  0  0  0  0
 15 37  1  0  0  0  0
 16 17  1  0  0  0  0
 16 38  1  0  0  0  0
 16 39  1  0  0  0  0
 17 18  1  0  0  0  0
 17 40  1  0  0  0  0
 17 41  1  0  0  0  0
 18 42  1  0  0  0  0
 18 43  1  0  0  0  0
 19 24  1  0  0  0  0
 19 20  1  0  0  0  0
 19 52  1  0  0  0  0
 20 21  1  0  0  0  0
 20 44  1  0  0  0  0
 20 45  1  0  0  0  0
 21 22  1  0  0  0  0
 21 46  1  0  0  0  0
 21 47  1  0  0  0  0
 22 23  1  0  0  0  0
 23 24  1  0  0  0  0
 23 48  1  0  0  0  0
 23 49  1  0  0  0  0
 24 50  1  0  0  0  0
 24 51  1  0  0  0  0
M  CHG  1  12   1
M  CHG  1  19   1
M  END
> <s_m_source_file>
AV-unprocessed.smi

> <i_m_source_file_index>
1389

> <i_lp_mmshare_version>
43012

> <i_f3d_flags>
0

> <s_epik_input>
W0NIMl0xW0NIMl1PW0NIMl1bQ0gyXU4xW0NASF0oW0NIM10pW0NIMl1bTkhdQyg9TylbTkhdYzJbY0hdW2NIXVtjSF1uYzJOM1tDSDJdW0NIMl1bQ0gyXVtDSDJdMw==

> <s_epik_cmdline>
J2VwaWtfcHl0aG9uJywgJy1waCcsICc3LjAnLCAnLXRuJywgJzgnLCAnLW1hJywgJzIwMCcsICctbWV0YWxfYmluZGluZycsICctaW1hZScsICc8aW5maWxlLm1hZT4nLCAnLW9tYWUnLCAnPG91dGZpbGUubWFlPic=

> <r_lp_tautomer_probability>
0.999994

> <r_epik_Ionization_Penalty>
1.80872

> <r_epik_Ionization_Penalty_Charging>
1.8087

> <r_epik_Ionization_Penalty_Neutral>
2.02981e-05

> <r_epik_State_Penalty>
1.84892

> <r_epik_Charging_Adjusted_Penalty>
3.65762

> <i_epik_Tot_Q>
2

> <i_epik_Tot_abs_Q>
2

> <r_epik_Metal_State_Penalty>
1.9311

> <b_epik_Metal_Only>
0

> <s_lp_Force_Field>
OPLS_2005

> <r_lp_Energy>
68.1678

> <b_lp_Chiralities_Consistent>
1

> <s_lp_Variant>
AV-unprocessed.smi:1389-8

> <Gold.Version>
5.8.1

> <Gold.Id.Protein>
6NUR|6NUR_protein|mol2

> <Gold.PLP.Fitness>
44.7967

> <Gold.PLP.PLP>
-38.6528

> <Gold.PLP.part.hbond>
-3.3710

> <Gold.PLP.part.metal>
0.0000

> <Gold.PLP.part.buried>
-5.8817

> <Gold.PLP.part.nonpolar>
-30.4508

> <Gold.PLP.part.repulsive>
0.4729

> <Gold.PLP.ligand.clash>
0.0000

> <Gold.PLP.ligand.torsion>
1.6519

> <Gold.PLP.Chemscore.Hbond>
3.0000

> <Gold.PLP.Chemscore.CHOScore>
0.0000

> <Gold.PLP.Chemscore.Metal>
0.0000

> <Gold.Chemscore.Hbonds>
donor molecule, donor type, donor heavy atom, donor atom, acceptor molecule, acceptor atom, score
      L1  H    12    53       P1 10186  1.56
      P1  H  7989  7998       L1    22  0.80

> <Gold.PLP.Chemscore.Internal.Correction>
0.4478

> <Gold.Rescore>
     Score         DG    S(hbond)    S(metal)    S(lipo)     H(rot)  DE(clash)    DE(int)     intcor
     12.92     -16.15       1.39        0.00      87.79       1.66       0.21       3.03       ----

> <Gold.Chemscore.Fitness>
12.9157

> <Gold.Chemscore.DG>
-16.1516

> <Gold.Chemscore.ZeroCoef>
-5.4800

> <Gold.Chemscore.Hbond>
1.3935

> <Gold.Chemscore.Metal>
0.0000

> <Gold.Chemscore.Lipo>
87.7935

> <Gold.Chemscore.Internal_Hbond>
0.0000

> <Gold.Chemscore.DEClash>
0.2090

> <Gold.Chemscore.DEInternal>
3.0269

> <Gold.Chemscore.Rot>
1.6620

> <Gold.Chemscore.Internal.Correction>
   9.000000E+99

> <Gold.Chemscore.Hbonds>
donor molecule, donor type, donor heavy atom, donor atom, acceptor molecule, acceptor atom, score
      L1  H    12    53       P1 10186  0.75
      P1  H  7989  7998       L1    22  0.09

> <Gold.Chemscore.Hbond.Weighted>
-4.6544

> <Gold.Chemscore.Metal.Weighted>
-0.0000

> <Gold.Chemscore.Lipo.Weighted>
-10.2718

> <Gold.Chemscore.Internal_Hbond.Weighted>
0.0000

> <Gold.Chemscore.DEClash.Weighted>
0.2090

> <Gold.Chemscore.DEInternal.Weighted>
3.0269

> <Gold.Chemscore.Rot.Weighted>
4.2547

> <Gold.Chemscore.Internal.Correction.Weighted>
   9.000000E+99

> <Gold.Protein.RotatedTorsions>
[ 6907 6896 6895 6894 ] final    5.00 input  -60.11 | X-H torsion
[ 7974 7965 7964 7962 ] final    5.13 input  175.53 | X-H torsion
[ 8008 7997 7996 7995 ] final   48.31 input   59.86 | X-H torsion
[ 10167 10162 10161 10158 ] final -132.62 input  -65.29 | X-H torsion
[ 10718 10713 10712 10709 ] final -131.83 input   66.30 | X-H torsion
[ 10763 10752 10751 10750 ] final  -49.27 input  -60.55 | X-H torsion
[ 11005 11000 10999 10996 ] final  -21.47 input  -57.11 | X-H torsion

> <Gold.Protein.ActiveResidues>
 VAL166  LYS551  ARG553  GLY616  TRP617  ASP618  TYR619  PRO620  LYS621  CYS622 
 ASP623  PHE694  ASN695  SER759  ASP760  ASP761  ALA762  ILE779  LEU786  VAL792 
 PHE793  MET794  SER795  GLU796  ALA797  LYS798  CYS799  TRP800  GLU811  SER814 

> <Gold.Protein.RotatedAtoms>
  151.6504  135.1002  160.0159 H   0  0  0  0  0  0  0  0  0  0  0  0  # atno 6907 bound_to 6896
  152.4004  133.6805  159.6320 H   0  0  0  0  0  0  0  0  0  0  0  0  # atno 6908 bound_to 6896
  150.7905  133.8718  159.3302 H   0  0  0  0  0  0  0  0  0  0  0  0  # atno 6909 bound_to 6896
  146.2442  140.0430  142.8380 H   0  0  0  0  0  0  0  0  0  0  0  0  # atno 7974 bound_to 7965
  155.3835  140.3430  155.4248 H   0  0  0  0  0  0  0  0  0  0  0  0  # atno 8008 bound_to 7997
  156.1597  140.1597  156.8666 H   0  0  0  0  0  0  0  0  0  0  0  0  # atno 8009 bound_to 7997
  154.5128  140.0786  156.8005 H   0  0  0  0  0  0  0  0  0  0  0  0  # atno 8010 bound_to 7997
  139.9067  143.6543  152.2584 H   0  0  0  0  0  0  0  0  0  0  0  0  # atno 10167 bound_to 10162
  156.2284  130.7022  151.0831 H   0  0  0  0  0  0  0  0  0  0  0  0  # atno 10718 bound_to 10713
  154.0914  135.6577  153.4853 H   0  0  0  0  0  0  0  0  0  0  0  0  # atno 10763 bound_to 10752
  153.0320  135.5203  154.7376 H   0  0  0  0  0  0  0  0  0  0  0  0  # atno 10764 bound_to 10752
  154.6501  135.3000  154.9966 H   0  0  0  0  0  0  0  0  0  0  0  0  # atno 10765 bound_to 10752
  140.8564  133.7819  156.0024 H   0  0  0  0  0  0  0  0  0  0  0  0  # atno 11005 bound_to 11000
  145.1052  140.9371  143.4689 LP  0  0  0  0  0  0  0  0  0  0  0  0  # atno 17320 bound_to 7965
  145.0632  139.3089  143.5870 LP  0  0  0  0  0  0  0  0  0  0  0  0  # atno 17321 bound_to 7965
  139.6978  144.7639  151.1325 LP  0  0  0  0  0  0  0  0  0  0  0  0  # atno 17342 bound_to 10162
  140.7695  143.5499  150.9216 LP  0  0  0  0  0  0  0  0  0  0  0  0  # atno 17343 bound_to 10162
  157.7121  131.0729  150.6462 LP  0  0  0  0  0  0  0  0  0  0  0  0  # atno 17370 bound_to 10713
  156.6528  130.4490  149.5713 LP  0  0  0  0  0  0  0  0  0  0  0  0  # atno 17371 bound_to 10713
  140.8732  134.2701  157.5180 LP  0  0  0  0  0  0  0  0  0  0  0  0  # atno 17394 bound_to 11000
  139.8705  134.9578  156.4279 LP  0  0  0  0  0  0  0  0  0  0  0  0  # atno 17395 bound_to 11000

$$$$
