AV-unprocessed.smi:1637|AV-procd|sdf|6545|dock4
  -GOLD-   22720 7233D 1   1.00000     0.00000
 Structure written by MMmdl.
 38 39  0  0  0  0  0  0  0  0  1 V2000
  156.0127  144.8561  168.8948 C   0  0  0  0  0  0  0  0  0  0  0  0
  155.8179  143.4929  168.5344 O   0  0  0  0  0  0  0  0  0  0  0  0
  155.4604  143.2040  167.2334 C   0  0  0  0  0  0  0  0  0  0  0  0
  155.0307  144.2573  166.4026 C   0  0  0  0  0  0  0  0  0  0  0  0
  154.6675  143.9729  165.0721 C   0  0  0  0  0  0  0  0  0  0  0  0
  154.7408  142.6352  164.6133 C   0  0  0  0  0  0  0  0  0  0  0  0
  154.4185  142.2055  163.2962 N   0  0  0  0  0  0  0  0  0  0  0  0
  153.4655  142.6517  162.4597 C   0  0  0  0  0  0  0  0  0  0  0  0
  152.6440  143.5325  162.7114 O   0  0  0  0  0  0  0  0  0  0  0  0
  153.5123  142.0000  161.2888 N   0  0  0  0  0  0  0  0  0  0  0  0
  152.6129  142.2123  160.1533 C   0  0  1  0  0  0  0  0  0  0  0  0
  152.9784  143.5250  159.4246 C   0  0  0  0  0  0  0  0  0  0  0  0
  151.8291  144.1231  158.5975 C   0  0  0  0  0  0  0  0  0  0  0  0
  151.3417  143.2426  157.4372 C   0  0  0  0  0  0  0  0  0  0  0  0
  150.6954  141.9232  157.8929 C   0  0  0  0  0  0  0  0  0  0  0  0
  151.6817  140.9109  158.2498 N   0  0  0  0  0  0  0  0  0  0  0  0
  152.5825  140.9706  159.2423 C   0  0  0  0  0  0  0  0  0  0  0  0
  153.3794  140.0491  159.4184 O   0  0  0  0  0  0  0  0  0  0  0  0
  155.1870  141.6557  165.5249 C   0  0  0  0  0  0  0  0  0  0  0  0
  155.5377  141.9216  166.8007 N   0  0  0  0  0  0  0  0  0  0  0  0
  156.2918  144.9144  169.9466 H   0  0  0  0  0  0  0  0  0  0  0  0
  155.0993  145.4376  168.7620 H   0  0  0  0  0  0  0  0  0  0  0  0
  156.8157  145.3123  168.3142 H   0  0  0  0  0  0  0  0  0  0  0  0
  154.9844  145.2688  166.7784 H   0  0  0  0  0  0  0  0  0  0  0  0
  154.3522  144.7885  164.4417 H   0  0  0  0  0  0  0  0  0  0  0  0
  154.9838  141.4453  162.9471 H   0  0  0  0  0  0  0  0  0  0  0  0
  154.2144  141.2837  161.1726 H   0  0  0  0  0  0  0  0  0  0  0  0
  151.6055  142.3140  160.5618 H   0  0  0  0  0  0  0  0  0  0  0  0
  153.2739  144.2779  160.1565 H   0  0  0  0  0  0  0  0  0  0  0  0
  153.8541  143.3715  158.7921 H   0  0  0  0  0  0  0  0  0  0  0  0
  150.9907  144.3551  159.2556 H   0  0  0  0  0  0  0  0  0  0  0  0
  152.1590  145.0795  158.1904 H   0  0  0  0  0  0  0  0  0  0  0  0
  150.5998  143.8104  156.8746 H   0  0  0  0  0  0  0  0  0  0  0  0
  152.1574  143.0455  156.7401 H   0  0  0  0  0  0  0  0  0  0  0  0
  150.0013  142.0872  158.7183 H   0  0  0  0  0  0  0  0  0  0  0  0
  150.1037  141.5147  157.0735 H   0  0  0  0  0  0  0  0  0  0  0  0
  151.6914  140.0806  157.6750 H   0  0  0  0  0  0  0  0  0  0  0  0
  155.2669  140.6218  165.2222 H   0  0  0  0  0  0  0  0  0  0  0  0
  1  2  1  0  0  0  0
  1 21  1  0  0  0  0
  1 22  1  0  0  0  0
  1 23  1  0  0  0  0
  2  3  1  0  0  0  0
  3 20  1  0  0  0  0
  3  4  2  0  0  0  0
  4  5  1  0  0  0  0
  4 24  1  0  0  0  0
  5  6  2  0  0  0  0
  5 25  1  0  0  0  0
  6  7  1  0  0  0  0
  6 19  1  0  0  0  0
  7  8  1  0  0  0  0
  7 26  1  0  0  0  0
  8  9  2  0  0  0  0
  8 10  1  0  0  0  0
 10 11  1  0  0  0  0
 10 27  1  0  0  0  0
 11 17  1  0  0  0  0
 11 12  1  0  0  0  0
 11 28  1  0  0  0  0
 12 13  1  0  0  0  0
 12 29  1  0  0  0  0
 12 30  1  0  0  0  0
 13 14  1  0  0  0  0
 13 31  1  0  0  0  0
 13 32  1  0  0  0  0
 14 15  1  0  0  0  0
 14 33  1  0  0  0  0
 14 34  1  0  0  0  0
 15 16  1  0  0  0  0
 15 35  1  0  0  0  0
 15 36  1  0  0  0  0
 16 17  1  0  0  0  0
 16 37  1  0  0  0  0
 17 18  2  0  0  0  0
 19 20  2  0  0  0  0
 19 38  1  0  0  0  0
M  END
> <s_m_source_file>
AV-unprocessed.smi

> <i_m_source_file_index>
1637

> <i_lp_mmshare_version>
43012

> <i_f3d_flags>
0

> <s_epik_input>
W0NIM11PYzFbY0hdW2NIXWMoW2NIXW4xKVtOSF1DKD1PKVtOSF1bQ0BASF0yW0NIMl1bQ0gyXVtDSDJdW0NIMl1bTkhdQzI9Tw==

> <s_epik_cmdline>
J2VwaWtfcHl0aG9uJywgJy1waCcsICc3LjAnLCAnLXRuJywgJzgnLCAnLW1hJywgJzIwMCcsICctbWV0YWxfYmluZGluZycsICctaW1hZScsICc8aW5maWxlLm1hZT4nLCAnLW9tYWUnLCAnPG91dGZpbGUubWFlPic=

> <r_lp_tautomer_probability>
1

> <r_epik_Ionization_Penalty>
8.30847e-05

> <r_epik_Ionization_Penalty_Charging>
0

> <r_epik_Ionization_Penalty_Neutral>
8.30847e-05

> <r_epik_State_Penalty>
-0

> <r_epik_Charging_Adjusted_Penalty>
0

> <i_epik_Tot_Q>
0

> <i_epik_Tot_abs_Q>
0

> <r_epik_Metal_State_Penalty>
-0

> <b_epik_Metal_Only>
0

> <s_lp_Force_Field>
OPLS_2005

> <r_lp_Energy>
13.0177

> <b_lp_Chiralities_Consistent>
1

> <s_lp_Variant>
AV-unprocessed.smi:1637-2

> <Gold.Version>
5.8.1

> <Gold.Id.Protein>
6NUR|6NUR_protein|mol2

> <Gold.PLP.Fitness>
42.5626

> <Gold.PLP.PLP>
-44.0352

> <Gold.PLP.part.hbond>
-1.0000

> <Gold.PLP.part.metal>
0.0000

> <Gold.PLP.part.buried>
-6.5054

> <Gold.PLP.part.nonpolar>
-36.2013

> <Gold.PLP.part.repulsive>
0.5236

> <Gold.PLP.ligand.clash>
0.1874

> <Gold.PLP.ligand.torsion>
0.6564

> <Gold.PLP.Chemscore.Hbond>
0.0000

> <Gold.PLP.Chemscore.CHOScore>
0.0000

> <Gold.PLP.Chemscore.Metal>
0.0000

> <Gold.PLP.Chemscore.Internal.Correction>
0.0275

> <Gold.Rescore>
     Score         DG    S(hbond)    S(metal)    S(lipo)     H(rot)  DE(clash)    DE(int)     intcor
     11.06     -13.32       0.00        0.00      95.64       1.31       1.33       0.93       ----

> <Gold.Chemscore.Fitness>
11.0634

> <Gold.Chemscore.DG>
-13.3191

> <Gold.Chemscore.ZeroCoef>
-5.4800

> <Gold.Chemscore.Hbond>
0.0000

> <Gold.Chemscore.Metal>
0.0000

> <Gold.Chemscore.Lipo>
95.6414

> <Gold.Chemscore.Internal_Hbond>
0.0000

> <Gold.Chemscore.DEClash>
1.3250

> <Gold.Chemscore.DEInternal>
0.9307

> <Gold.Chemscore.Rot>
1.3090

> <Gold.Chemscore.Internal.Correction>
   9.000000E+99

> <Gold.Chemscore.Hbond.Weighted>
-0.0000

> <Gold.Chemscore.Metal.Weighted>
-0.0000

> <Gold.Chemscore.Lipo.Weighted>
-11.1900

> <Gold.Chemscore.Internal_Hbond.Weighted>
0.0000

> <Gold.Chemscore.DEClash.Weighted>
1.3250

> <Gold.Chemscore.DEInternal.Weighted>
0.9307

> <Gold.Chemscore.Rot.Weighted>
3.3509

> <Gold.Chemscore.Internal.Correction.Weighted>
   9.000000E+99

> <Gold.Protein.RotatedTorsions>
[ 6907 6896 6895 6894 ] final -144.72 input  -60.11 | X-H torsion
[ 7974 7965 7964 7962 ] final   95.22 input  175.53 | X-H torsion
[ 8008 7997 7996 7995 ] final  120.38 input   59.86 | X-H torsion
[ 10167 10162 10161 10158 ] final  122.59 input  -65.29 | X-H torsion
[ 10718 10713 10712 10709 ] final   44.33 input   66.30 | X-H torsion
[ 10763 10752 10751 10750 ] final -168.77 input  -60.55 | X-H torsion
[ 11005 11000 10999 10996 ] final   69.33 input  -57.11 | X-H torsion

> <Gold.Protein.ActiveResidues>
 VAL166  LYS551  ARG553  GLY616  TRP617  ASP618  TYR619  PRO620  LYS621  CYS622 
 ASP623  PHE694  ASN695  SER759  ASP760  ASP761  ALA762  ILE779  LEU786  VAL792 
 PHE793  MET794  SER795  GLU796  ALA797  LYS798  CYS799  TRP800  GLU811  SER814 

> <Gold.Protein.RotatedAtoms>
  151.1179  133.5125  159.2602 H   0  0  0  0  0  0  0  0  0  0  0  0  # atno 6907 bound_to 6896
  151.1894  135.0395  159.8836 H   0  0  0  0  0  0  0  0  0  0  0  0  # atno 6908 bound_to 6896
  152.5454  134.1022  159.8376 H   0  0  0  0  0  0  0  0  0  0  0  0  # atno 6909 bound_to 6896
  145.4552  139.2290  143.3018 H   0  0  0  0  0  0  0  0  0  0  0  0  # atno 7974 bound_to 7965
  156.2640  140.2832  156.1141 H   0  0  0  0  0  0  0  0  0  0  0  0  # atno 8008 bound_to 7997
  155.1226  140.0392  157.2771 H   0  0  0  0  0  0  0  0  0  0  0  0  # atno 8009 bound_to 7997
  154.6659  140.2577  155.7065 H   0  0  0  0  0  0  0  0  0  0  0  0  # atno 8010 bound_to 7997
  139.5849  144.7002  151.3433 H   0  0  0  0  0  0  0  0  0  0  0  0  # atno 10167 bound_to 10162
  157.4257  130.7995  149.7556 H   0  0  0  0  0  0  0  0  0  0  0  0  # atno 10718 bound_to 10713
  154.6593  135.2922  154.9886 H   0  0  0  0  0  0  0  0  0  0  0  0  # atno 10763 bound_to 10752
  154.0952  135.6585  153.4863 H   0  0  0  0  0  0  0  0  0  0  0  0  # atno 10764 bound_to 10752
  153.0421  135.5229  154.7537 H   0  0  0  0  0  0  0  0  0  0  0  0  # atno 10765 bound_to 10752
  139.9660  134.6980  156.0545 H   0  0  0  0  0  0  0  0  0  0  0  0  # atno 11005 bound_to 11000
  146.2482  140.5315  142.8904 LP  0  0  0  0  0  0  0  0  0  0  0  0  # atno 17320 bound_to 7965
  144.8037  140.6260  143.6461 LP  0  0  0  0  0  0  0  0  0  0  0  0  # atno 17321 bound_to 7965
  140.7123  143.7359  150.7589 LP  0  0  0  0  0  0  0  0  0  0  0  0  # atno 17342 bound_to 10162
  140.0901  143.4886  152.2483 LP  0  0  0  0  0  0  0  0  0  0  0  0  # atno 17343 bound_to 10162
  155.9895  130.3951  150.3068 LP  0  0  0  0  0  0  0  0  0  0  0  0  # atno 17370 bound_to 10713
  157.1220  131.0249  151.3005 LP  0  0  0  0  0  0  0  0  0  0  0  0  # atno 17371 bound_to 10713
  141.1340  133.6579  156.3541 LP  0  0  0  0  0  0  0  0  0  0  0  0  # atno 17394 bound_to 11000
  140.5395  134.6134  157.5375 LP  0  0  0  0  0  0  0  0  0  0  0  0  # atno 17395 bound_to 11000

$$$$
