AV-unprocessed.smi:2863|AV-procd|sdf|11012|dock3
  -GOLD-   2272015473D 1   1.00000     0.00000
 Structure written by MMmdl.
 42 43  0  0  0  0  0  0  0  0  1 V2000
  143.8639  144.8942  154.4774 C   0  0  0  0  0  0  0  0  0  0  0  0
  144.8237  143.7631  154.6122 C   0  0  0  0  0  0  0  0  0  0  0  0
  145.6003  143.2439  153.6636 N   0  0  0  0  0  0  0  0  0  0  0  0
  146.2964  142.2229  154.2957 C   0  0  0  0  0  0  0  0  0  0  0  0
  147.3020  141.3784  153.5750 C   0  0  0  0  0  0  0  0  0  0  0  0
  148.3762  140.8257  154.5257 C   0  0  0  0  0  0  0  0  0  0  0  0
  148.9609  141.8769  155.3497 N   0  0  0  0  0  0  0  0  0  0  0  0
  150.0402  141.7286  156.1304 C   0  0  0  0  0  0  0  0  0  0  0  0
  150.6752  140.6791  156.2369 O   0  0  0  0  0  0  0  0  0  0  0  0
  150.3441  142.8617  156.7789 N   0  0  0  0  0  0  0  0  0  0  0  0
  151.4570  143.0278  157.7089 C   0  0  0  0  0  0  0  0  0  0  0  0
  151.4758  141.8533  158.7056 C   0  0  0  0  0  0  0  0  0  0  0  0
  152.5969  142.0149  159.7450 C   0  0  0  0  0  0  0  0  0  0  0  0
  152.4819  143.3575  160.4837 C   0  0  0  0  0  0  0  0  0  0  0  0
  152.4674  144.5342  159.4952 C   0  0  0  0  0  0  0  0  0  0  0  0
  151.3486  144.3753  158.4528 C   0  0  0  0  0  0  0  0  0  0  0  0
  145.9011  142.1852  155.6086 C   0  0  0  0  0  0  0  0  0  0  0  0
  146.2927  141.3300  156.7654 C   0  0  0  0  0  0  0  0  0  0  0  0
  144.9619  143.1578  155.8225 O   0  0  0  0  0  0  0  0  0  0  0  0
  143.8776  145.2851  153.4596 H   0  0  0  0  0  0  0  0  0  0  0  0
  144.1339  145.6957  155.1649 H   0  0  0  0  0  0  0  0  0  0  0  0
  142.8542  144.5557  154.7097 H   0  0  0  0  0  0  0  0  0  0  0  0
  146.7961  140.5547  153.0702 H   0  0  0  0  0  0  0  0  0  0  0  0
  147.7788  141.9630  152.7873 H   0  0  0  0  0  0  0  0  0  0  0  0
  147.9372  140.0811  155.1903 H   0  0  0  0  0  0  0  0  0  0  0  0
  149.1587  140.3151  153.9613 H   0  0  0  0  0  0  0  0  0  0  0  0
  148.5077  142.7788  155.3272 H   0  0  0  0  0  0  0  0  0  0  0  0
  149.7600  143.6699  156.6217 H   0  0  0  0  0  0  0  0  0  0  0  0
  152.3936  143.0094  157.1478 H   0  0  0  0  0  0  0  0  0  0  0  0
  150.5155  141.7879  159.2192 H   0  0  0  0  0  0  0  0  0  0  0  0
  151.6053  140.9113  158.1713 H   0  0  0  0  0  0  0  0  0  0  0  0
  152.5618  141.1925  160.4603 H   0  0  0  0  0  0  0  0  0  0  0  0
  153.5663  141.9521  159.2494 H   0  0  0  0  0  0  0  0  0  0  0  0
  151.5692  143.3696  161.0807 H   0  0  0  0  0  0  0  0  0  0  0  0
  153.3109  143.4693  161.1833 H   0  0  0  0  0  0  0  0  0  0  0  0
  152.3410  145.4726  160.0358 H   0  0  0  0  0  0  0  0  0  0  0  0
  153.4312  144.5970  158.9885 H   0  0  0  0  0  0  0  0  0  0  0  0
  151.3928  145.2026  157.7434 H   0  0  0  0  0  0  0  0  0  0  0  0
  150.3798  144.4465  158.9491 H   0  0  0  0  0  0  0  0  0  0  0  0
  147.3211  140.9831  156.6614 H   0  0  0  0  0  0  0  0  0  0  0  0
  145.6458  140.4554  156.8344 H   0  0  0  0  0  0  0  0  0  0  0  0
  146.2178  141.8829  157.7020 H   0  0  0  0  0  0  0  0  0  0  0  0
  1  2  1  0  0  0  0
  1 20  1  0  0  0  0
  1 21  1  0  0  0  0
  1 22  1  0  0  0  0
  2 19  1  0  0  0  0
  2  3  2  0  0  0  0
  3  4  1  0  0  0  0
  4  5  1  0  0  0  0
  4 17  2  0  0  0  0
  5  6  1  0  0  0  0
  5 23  1  0  0  0  0
  5 24  1  0  0  0  0
  6  7  1  0  0  0  0
  6 25  1  0  0  0  0
  6 26  1  0  0  0  0
  7  8  1  0  0  0  0
  7 27  1  0  0  0  0
  8  9  2  0  0  0  0
  8 10  1  0  0  0  0
 10 11  1  0  0  0  0
 10 28  1  0  0  0  0
 11 16  1  0  0  0  0
 11 12  1  0  0  0  0
 11 29  1  0  0  0  0
 12 13  1  0  0  0  0
 12 30  1  0  0  0  0
 12 31  1  0  0  0  0
 13 14  1  0  0  0  0
 13 32  1  0  0  0  0
 13 33  1  0  0  0  0
 14 15  1  0  0  0  0
 14 34  1  0  0  0  0
 14 35  1  0  0  0  0
 15 16  1  0  0  0  0
 15 36  1  0  0  0  0
 15 37  1  0  0  0  0
 16 38  1  0  0  0  0
 16 39  1  0  0  0  0
 17 18  1  0  0  0  0
 17 19  1  0  0  0  0
 18 40  1  0  0  0  0
 18 41  1  0  0  0  0
 18 42  1  0  0  0  0
M  END
> <s_m_source_file>
AV-unprocessed.smi

> <i_m_source_file_index>
2863

> <i_lp_mmshare_version>
43012

> <i_f3d_flags>
0

> <s_epik_input>
W0NIM11jMW5jKGMobzEpW0NIM10pW0NIMl1bQ0gyXVtOSF1DKD1PKVtOSF1bQ0hdMltDSDJdW0NIMl1bQ0gyXVtDSDJdW0NIMl0y

> <s_epik_cmdline>
J2VwaWtfcHl0aG9uJywgJy1waCcsICc3LjAnLCAnLXRuJywgJzgnLCAnLW1hJywgJzIwMCcsICctbWV0YWxfYmluZGluZycsICctaW1hZScsICc8aW5maWxlLm1hZT4nLCAnLW9tYWUnLCAnPG91dGZpbGUubWFlPic=

> <r_lp_tautomer_probability>
1

> <r_epik_Ionization_Penalty>
0.000108106

> <r_epik_Ionization_Penalty_Charging>
0

> <r_epik_Ionization_Penalty_Neutral>
0.000108106

> <r_epik_State_Penalty>
-0

> <r_epik_Charging_Adjusted_Penalty>
0

> <i_epik_Tot_Q>
0

> <i_epik_Tot_abs_Q>
0

> <r_epik_Metal_State_Penalty>
-0

> <b_epik_Metal_Only>
0

> <s_lp_Force_Field>
OPLS_2005

> <r_lp_Energy>
1.15326

> <b_lp_Chiralities_Consistent>
1

> <s_lp_Variant>
AV-unprocessed.smi:2863-1

> <Gold.Version>
5.8.1

> <Gold.Id.Protein>
6NUR|6NUR_protein|mol2

> <Gold.PLP.Fitness>
46.6395

> <Gold.PLP.PLP>
-42.0405

> <Gold.PLP.part.hbond>
-2.0000

> <Gold.PLP.part.metal>
0.0000

> <Gold.PLP.part.buried>
-7.7905

> <Gold.PLP.part.nonpolar>
-33.2487

> <Gold.PLP.part.repulsive>
0.6168

> <Gold.PLP.ligand.clash>
0.0000

> <Gold.PLP.ligand.torsion>
0.5531

> <Gold.PLP.Chemscore.Hbond>
1.8960

> <Gold.PLP.Chemscore.CHOScore>
0.0000

> <Gold.PLP.Chemscore.Metal>
0.0000

> <Gold.Chemscore.Hbonds>
donor molecule, donor type, donor heavy atom, donor atom, acceptor molecule, acceptor atom, score
      L1  H     7    27       P1  8028  0.85
      L1  H    10    28       P1  8028  1.00

> <Gold.PLP.Chemscore.Internal.Correction>
0.0171

> <Gold.Rescore>
     Score         DG    S(hbond)    S(metal)    S(lipo)     H(rot)  DE(clash)    DE(int)     intcor
     17.64     -19.63       1.86        0.00     103.15       1.61       0.04       1.95       ----

> <Gold.Chemscore.Fitness>
17.6352

> <Gold.Chemscore.DG>
-19.6297

> <Gold.Chemscore.ZeroCoef>
-5.4800

> <Gold.Chemscore.Hbond>
1.8593

> <Gold.Chemscore.Metal>
0.0000

> <Gold.Chemscore.Lipo>
103.1532

> <Gold.Chemscore.Internal_Hbond>
0.0000

> <Gold.Chemscore.DEClash>
0.0427

> <Gold.Chemscore.DEInternal>
1.9518

> <Gold.Chemscore.Rot>
1.6130

> <Gold.Chemscore.Internal.Correction>
   9.000000E+99

> <Gold.Chemscore.Hbonds>
donor molecule, donor type, donor heavy atom, donor atom, acceptor molecule, acceptor atom, score
      L1  H     7    27       P1  8028  0.80
      L1  H    10    28       P1  8028  0.97

> <Gold.Chemscore.Hbond.Weighted>
-6.2101

> <Gold.Chemscore.Metal.Weighted>
-0.0000

> <Gold.Chemscore.Lipo.Weighted>
-12.0689

> <Gold.Chemscore.Internal_Hbond.Weighted>
0.0000

> <Gold.Chemscore.DEClash.Weighted>
0.0427

> <Gold.Chemscore.DEInternal.Weighted>
1.9518

> <Gold.Chemscore.Rot.Weighted>
4.1293

> <Gold.Chemscore.Internal.Correction.Weighted>
   9.000000E+99

> <Gold.Protein.RotatedTorsions>
[ 6907 6896 6895 6894 ] final   27.09 input  -60.11 | X-H torsion
[ 7974 7965 7964 7962 ] final  112.44 input  175.53 | X-H torsion
[ 8008 7997 7996 7995 ] final   64.70 input   59.86 | X-H torsion
[ 10167 10162 10161 10158 ] final  138.49 input  -65.29 | X-H torsion
[ 10718 10713 10712 10709 ] final   88.54 input   66.30 | X-H torsion
[ 10763 10752 10751 10750 ] final   74.72 input  -60.55 | X-H torsion
[ 11005 11000 10999 10996 ] final   55.02 input  -57.11 | X-H torsion

> <Gold.Protein.ActiveResidues>
 VAL166  LYS551  ARG553  GLY616  TRP617  ASP618  TYR619  PRO620  LYS621  CYS622 
 ASP623  PHE694  ASN695  SER759  ASP760  ASP761  ALA762  ILE779  LEU786  VAL792 
 PHE793  MET794  SER795  GLU796  ALA797  LYS798  CYS799  TRP800  GLU811  SER814 

> <Gold.Protein.RotatedAtoms>
  151.9971  134.9948  160.0563 H   0  0  0  0  0  0  0  0  0  0  0  0  # atno 6907 bound_to 6896
  152.1554  133.4543  159.4842 H   0  0  0  0  0  0  0  0  0  0  0  0  # atno 6908 bound_to 6896
  150.6880  134.2056  159.4382 H   0  0  0  0  0  0  0  0  0  0  0  0  # atno 6909 bound_to 6896
  145.2296  139.2825  143.4175 H   0  0  0  0  0  0  0  0  0  0  0  0  # atno 7974 bound_to 7965
  155.6501  140.3497  155.4745 H   0  0  0  0  0  0  0  0  0  0  0  0  # atno 8008 bound_to 7997
  155.9855  140.1183  157.0710 H   0  0  0  0  0  0  0  0  0  0  0  0  # atno 8009 bound_to 7997
  154.4203  140.1130  156.5479 H   0  0  0  0  0  0  0  0  0  0  0  0  # atno 8010 bound_to 7997
  139.5109  144.6350  151.5719 H   0  0  0  0  0  0  0  0  0  0  0  0  # atno 10167 bound_to 10162
  157.6949  131.0298  150.3290 H   0  0  0  0  0  0  0  0  0  0  0  0  # atno 10718 bound_to 10713
  153.0606  135.5015  154.8084 H   0  0  0  0  0  0  0  0  0  0  0  0  # atno 10763 bound_to 10752
  154.6876  135.2979  154.9527 H   0  0  0  0  0  0  0  0  0  0  0  0  # atno 10764 bound_to 10752
  154.0293  135.6732  153.4832 H   0  0  0  0  0  0  0  0  0  0  0  0  # atno 10765 bound_to 10752
  140.0640  134.5562  155.9120 H   0  0  0  0  0  0  0  0  0  0  0  0  # atno 11005 bound_to 11000
  146.3356  140.2626  142.8602 LP  0  0  0  0  0  0  0  0  0  0  0  0  # atno 17320 bound_to 7965
  144.9689  140.8349  143.5467 LP  0  0  0  0  0  0  0  0  0  0  0  0  # atno 17321 bound_to 7965
  140.6096  143.9460  150.6443 LP  0  0  0  0  0  0  0  0  0  0  0  0  # atno 17342 bound_to 10162
  140.2699  143.3463  152.1247 LP  0  0  0  0  0  0  0  0  0  0  0  0  # atno 17343 bound_to 10162
  156.3766  130.3873  149.7134 LP  0  0  0  0  0  0  0  0  0  0  0  0  # atno 17370 bound_to 10713
  156.4530  130.7915  151.2937 LP  0  0  0  0  0  0  0  0  0  0  0  0  # atno 17371 bound_to 10713
  141.1985  133.6602  156.5796 LP  0  0  0  0  0  0  0  0  0  0  0  0  # atno 17394 bound_to 11000
  140.3726  134.7592  157.4609 LP  0  0  0  0  0  0  0  0  0  0  0  0  # atno 17395 bound_to 11000

$$$$
