AV-unprocessed.smi:3032|AV-procd|sdf|11557|dock8
  -GOLD-   2272016523D 1   1.00000     0.00000
 Structure written by MMmdl.
 37 38  0  0  0  0  0  0  0  0  1 V2000
  153.1640  143.0580  162.0286 C   0  0  0  0  0  0  0  0  0  0  0  0
  152.3480  143.2247  160.7391 C   0  0  2  0  0  0  0  0  0  0  0  0
  153.2220  143.0194  159.4880 C   0  0  0  0  0  0  0  0  0  0  0  0
  152.4024  143.1629  158.1965 C   0  0  0  0  0  0  0  0  0  0  0  0
  151.6550  144.5106  158.1402 C   0  0  0  0  0  0  0  0  0  0  0  0
  150.8165  144.8125  159.4067 C   0  0  1  0  0  0  0  0  0  0  0  0
  149.4876  144.0374  159.4767 C   0  0  0  0  0  0  0  0  0  0  0  0
  148.8155  144.0103  160.5075 O   0  0  0  0  0  0  0  0  0  0  0  0
  149.1138  143.4136  158.3491 N   0  0  0  0  0  0  0  0  0  0  0  0
  147.8561  142.6967  158.1569 C   0  0  0  0  0  0  0  0  0  0  0  0
  148.0528  141.2285  157.7240 C   0  0  0  0  0  0  0  0  0  0  0  0
  148.4477  141.0645  156.2892 C   0  0  0  0  0  0  0  0  0  0  0  0
  148.5736  142.1044  155.4617 N   0  0  0  0  0  0  0  0  0  0  0  0
  148.9620  141.6634  154.2471 N   0  0  0  0  0  0  0  0  0  0  0  0
  149.0379  140.3480  154.4402 C   0  0  0  0  0  0  0  0  0  0  0  0
  148.7287  139.9087  155.6974 N   0  0  0  0  0  0  0  0  0  0  0  0
  151.6635  144.6060  160.6829 C   0  0  0  0  0  0  0  0  0  0  0  0
  148.4238  143.0808  155.6733 H   0  0  0  0  0  0  0  0  0  0  0  0
  153.9628  143.7975  162.0915 H   0  0  0  0  0  0  0  0  0  0  0  0
  153.6201  142.0691  162.0794 H   0  0  0  0  0  0  0  0  0  0  0  0
  152.5328  143.1741  162.9100 H   0  0  0  0  0  0  0  0  0  0  0  0
  151.5761  142.4540  160.7444 H   0  0  0  0  0  0  0  0  0  0  0  0
  154.0359  143.7457  159.4839 H   0  0  0  0  0  0  0  0  0  0  0  0
  153.6885  142.0339  159.5149 H   0  0  0  0  0  0  0  0  0  0  0  0
  153.0618  143.0754  157.3326 H   0  0  0  0  0  0  0  0  0  0  0  0
  151.7007  142.3331  158.1186 H   0  0  0  0  0  0  0  0  0  0  0  0
  152.3875  145.3085  158.0118 H   0  0  0  0  0  0  0  0  0  0  0  0
  151.0242  144.5442  157.2508 H   0  0  0  0  0  0  0  0  0  0  0  0
  150.5451  145.8686  159.3604 H   0  0  0  0  0  0  0  0  0  0  0  0
  149.7250  143.4796  157.5479 H   0  0  0  0  0  0  0  0  0  0  0  0
  147.3293  142.7194  159.1111 H   0  0  0  0  0  0  0  0  0  0  0  0
  147.2236  143.2255  157.4427 H   0  0  0  0  0  0  0  0  0  0  0  0
  148.8115  140.7589  158.3509 H   0  0  0  0  0  0  0  0  0  0  0  0
  147.1329  140.6684  157.8961 H   0  0  0  0  0  0  0  0  0  0  0  0
  149.3290  139.6775  153.6451 H   0  0  0  0  0  0  0  0  0  0  0  0
  151.0440  144.7473  161.5701 H   0  0  0  0  0  0  0  0  0  0  0  0
  152.4245  145.3860  160.7304 H   0  0  0  0  0  0  0  0  0  0  0  0
  1  2  1  0  0  0  0
  1 19  1  0  0  0  0
  1 20  1  0  0  0  0
  1 21  1  0  0  0  0
  2 17  1  0  0  0  0
  2  3  1  0  0  0  0
  2 22  1  0  0  0  0
  3  4  1  0  0  0  0
  3 23  1  0  0  0  0
  3 24  1  0  0  0  0
  4  5  1  0  0  0  0
  4 25  1  0  0  0  0
  4 26  1  0  0  0  0
  5  6  1  0  0  0  0
  5 27  1  0  0  0  0
  5 28  1  0  0  0  0
  6  7  1  0  0  0  0
  6 17  1  0  0  0  0
  6 29  1  0  0  0  0
  7  8  2  0  0  0  0
  7  9  1  0  0  0  0
  9 10  1  0  0  0  0
  9 30  1  0  0  0  0
 10 11  1  0  0  0  0
 10 31  1  0  0  0  0
 10 32  1  0  0  0  0
 11 33  1  0  0  0  0
 11 34  1  0  0  0  0
 11 12  1  0  0  0  0
 12 16  2  0  0  0  0
 12 13  1  0  0  0  0
 13 18  1  0  0  0  0
 13 14  1  0  0  0  0
 14 15  2  0  0  0  0
 15 16  1  0  0  0  0
 15 35  1  0  0  0  0
 17 36  1  0  0  0  0
 17 37  1  0  0  0  0
M  END
> <s_m_source_file>
AV-unprocessed.smi

> <i_m_source_file_index>
3032

> <i_lp_mmshare_version>
43012

> <i_f3d_flags>
0

> <s_epik_input>
W0NIM11bQ0BASF0xW0NIMl1bQ0gyXVtDSDJdW0NASF0oW0NIMl0xKUMoPU8pW05IXVtDSDJdW0NIMl1jMm5uW2NIXVtuSF0y

> <s_epik_cmdline>
J2VwaWtfcHl0aG9uJywgJy1waCcsICc3LjAnLCAnLXRuJywgJzgnLCAnLW1hJywgJzIwMCcsICctbWV0YWxfYmluZGluZycsICctaW1hZScsICc8aW5maWxlLm1hZT4nLCAnLW9tYWUnLCAnPG91dGZpbGUubWFlPic=

> <r_lp_tautomer_probability>
0.948284

> <r_epik_Ionization_Penalty>
0.000474052

> <r_epik_Ionization_Penalty_Charging>
0

> <r_epik_Ionization_Penalty_Neutral>
0.000474052

> <r_epik_State_Penalty>
0.271807

> <r_epik_Charging_Adjusted_Penalty>
0.271807

> <i_epik_Tot_Q>
0

> <i_epik_Tot_abs_Q>
0

> <r_epik_Metal_State_Penalty>
0.397201

> <b_epik_Metal_Only>
0

> <s_lp_Force_Field>
OPLS_2005

> <r_lp_Energy>
8.45965

> <b_lp_Chiralities_Consistent>
1

> <s_lp_Variant>
AV-unprocessed.smi:3032-1

> <Gold.Version>
5.8.1

> <Gold.Id.Protein>
6NUR|6NUR_protein|mol2

> <Gold.PLP.Fitness>
47.8836

> <Gold.PLP.PLP>
-38.7956

> <Gold.PLP.part.hbond>
-5.6403

> <Gold.PLP.part.metal>
0.0000

> <Gold.PLP.part.buried>
-3.2661

> <Gold.PLP.part.nonpolar>
-29.1723

> <Gold.PLP.part.repulsive>
0.6210

> <Gold.PLP.ligand.clash>
0.0000

> <Gold.PLP.ligand.torsion>
0.4401

> <Gold.PLP.Chemscore.Hbond>
2.3069

> <Gold.PLP.Chemscore.CHOScore>
1.0000

> <Gold.PLP.Chemscore.Metal>
0.0000

> <Gold.Chemscore.Hbonds>
donor molecule, donor type, donor heavy atom, donor atom, acceptor molecule, acceptor atom, score
      L1  H     9    30       P1  8028  0.03
      L1  H    13    18       P1  8028  1.00
      P1  H  6933  6944       L1     8  0.74
      P1  H  8011  8017       L1    14  0.30
      L1  C    15    35       P1  7957  1.00

> <Gold.PLP.Chemscore.Internal.Correction>
0.0476

> <Gold.Rescore>
     Score         DG    S(hbond)    S(metal)    S(lipo)     H(rot)  DE(clash)    DE(int)     intcor
     17.24     -17.98       2.57        0.00      82.69       2.25       0.12       0.62       ----

> <Gold.Chemscore.Fitness>
17.2446

> <Gold.Chemscore.DG>
-17.9825

> <Gold.Chemscore.ZeroCoef>
-5.4800

> <Gold.Chemscore.Hbond>
2.5713

> <Gold.Chemscore.Metal>
0.0000

> <Gold.Chemscore.Lipo>
82.6897

> <Gold.Chemscore.Internal_Hbond>
0.0000

> <Gold.Chemscore.DEClash>
0.1226

> <Gold.Chemscore.DEInternal>
0.6153

> <Gold.Chemscore.Rot>
2.2501

> <Gold.Chemscore.Internal.Correction>
   9.000000E+99

> <Gold.Chemscore.Hbonds>
donor molecule, donor type, donor heavy atom, donor atom, acceptor molecule, acceptor atom, score
      L1  H     9    30       P1  8028  0.03
      L1  H    13    18       P1  8028  0.96
      P1  H  6933  6944       L1     8  0.72
      P1  H  8011  8017       L1    14  0.29

> <Gold.Chemscore.Hbond.Weighted>
-8.5881

> <Gold.Chemscore.Metal.Weighted>
-0.0000

> <Gold.Chemscore.Lipo.Weighted>
-9.6747

> <Gold.Chemscore.Internal_Hbond.Weighted>
0.0000

> <Gold.Chemscore.DEClash.Weighted>
0.1226

> <Gold.Chemscore.DEInternal.Weighted>
0.6153

> <Gold.Chemscore.Rot.Weighted>
5.7603

> <Gold.Chemscore.Internal.Correction.Weighted>
   9.000000E+99

> <Gold.Protein.RotatedTorsions>
[ 6907 6896 6895 6894 ] final   92.43 input  -60.11 | X-H torsion
[ 7974 7965 7964 7962 ] final   94.91 input  175.53 | X-H torsion
[ 8008 7997 7996 7995 ] final   84.87 input   59.86 | X-H torsion
[ 10167 10162 10161 10158 ] final -135.15 input  -65.29 | X-H torsion
[ 10718 10713 10712 10709 ] final  148.21 input   66.30 | X-H torsion
[ 10763 10752 10751 10750 ] final  162.18 input  -60.55 | X-H torsion
[ 11005 11000 10999 10996 ] final  170.70 input  -57.11 | X-H torsion

> <Gold.Protein.ActiveResidues>
 VAL166  LYS551  ARG553  GLY616  TRP617  ASP618  TYR619  PRO620  LYS621  CYS622 
 ASP623  PHE694  ASN695  SER759  ASP760  ASP761  ALA762  ILE779  LEU786  VAL792 
 PHE793  MET794  SER795  GLU796  ALA797  LYS798  CYS799  TRP800  GLU811  SER814 

> <Gold.Protein.RotatedAtoms>
  152.5452  134.1503  159.8515 H   0  0  0  0  0  0  0  0  0  0  0  0  # atno 6907 bound_to 6896
  151.1530  133.4888  159.2602 H   0  0  0  0  0  0  0  0  0  0  0  0  # atno 6908 bound_to 6896
  151.1452  135.0210  159.8698 H   0  0  0  0  0  0  0  0  0  0  0  0  # atno 6909 bound_to 6896
  145.4592  139.2288  143.2997 H   0  0  0  0  0  0  0  0  0  0  0  0  # atno 7974 bound_to 7965
  155.9427  140.3407  155.6341 H   0  0  0  0  0  0  0  0  0  0  0  0  # atno 8008 bound_to 7997
  155.7019  140.0761  157.2425 H   0  0  0  0  0  0  0  0  0  0  0  0  # atno 8009 bound_to 7997
  154.4106  140.1638  156.2188 H   0  0  0  0  0  0  0  0  0  0  0  0  # atno 8010 bound_to 7997
  139.8808  143.6842  152.2627 H   0  0  0  0  0  0  0  0  0  0  0  0  # atno 10167 bound_to 10162
  157.3114  131.0888  151.1313 H   0  0  0  0  0  0  0  0  0  0  0  0  # atno 10718 bound_to 10713
  154.2744  135.2765  155.2724 H   0  0  0  0  0  0  0  0  0  0  0  0  # atno 10763 bound_to 10752
  154.5274  135.5739  153.6734 H   0  0  0  0  0  0  0  0  0  0  0  0  # atno 10764 bound_to 10752
  152.9939  135.6219  154.2900 H   0  0  0  0  0  0  0  0  0  0  0  0  # atno 10765 bound_to 10752
  140.3111  134.7516  157.3992 H   0  0  0  0  0  0  0  0  0  0  0  0  # atno 11005 bound_to 11000
  146.2461  140.5359  142.8913 LP  0  0  0  0  0  0  0  0  0  0  0  0  # atno 17320 bound_to 7965
  144.8013  140.6218  143.6476 LP  0  0  0  0  0  0  0  0  0  0  0  0  # atno 17321 bound_to 7965
  139.7198  144.7605  151.0974 LP  0  0  0  0  0  0  0  0  0  0  0  0  # atno 17342 bound_to 10162
  140.7745  143.5222  150.9522 LP  0  0  0  0  0  0  0  0  0  0  0  0  # atno 17343 bound_to 10162
  157.2633  130.6669  149.5985 LP  0  0  0  0  0  0  0  0  0  0  0  0  # atno 17370 bound_to 10713
  155.9678  130.4502  150.5687 LP  0  0  0  0  0  0  0  0  0  0  0  0  # atno 17371 bound_to 10713
  140.1024  134.5455  155.8341 LP  0  0  0  0  0  0  0  0  0  0  0  0  # atno 17394 bound_to 11000
  141.2108  133.6699  156.6534 LP  0  0  0  0  0  0  0  0  0  0  0  0  # atno 17395 bound_to 11000

$$$$
