AV-unprocessed.smi:1046|AV-procd|sdf|4552|dock4
  -GOLD-   22720 2583D 1   1.00000     0.00000
 Structure written by MMmdl.
 54 56  0  0  0  0  0  0  0  0  3 V2000
  151.8814  144.2899  160.8221 C   0  0  0  0  0  0  0  0  0  0  0  0
  151.7899  143.3017  159.6719 C   0  0  0  0  0  0  0  0  0  0  0  0
  150.9192  143.5951  158.5983 C   0  0  0  0  0  0  0  0  0  0  0  0
  150.8595  142.6733  157.5600 C   0  0  0  0  0  0  0  0  0  0  0  0
  150.1113  142.6733  156.3812 N   0  3  0  0  0  0  0  0  0  0  0  0
  150.3914  141.5499  155.6650 C   0  0  0  0  0  0  0  0  0  0  0  0
  151.3066  140.8298  156.3695 N   0  0  0  0  0  0  0  0  0  0  0  0
  151.9427  139.5459  156.0390 C   0  0  0  0  0  0  0  0  0  0  0  0
  150.9379  138.3789  155.9692 C   0  0  2  0  0  0  0  0  0  0  0  0
  151.2505  137.4215  156.9630 O   0  0  0  0  0  0  0  0  0  0  0  0
  150.9602  137.6898  154.5898 C   0  0  0  0  0  0  0  0  0  0  0  0
  149.8808  136.6815  154.4311 N   0  3  0  0  0  0  0  0  0  0  0  0
  148.5685  137.1767  154.9221 C   0  0  0  0  0  0  0  0  0  0  0  0
  147.4675  136.1245  154.6763 C   0  0  0  0  0  0  0  0  0  0  0  0
  147.7600  134.8284  155.2877 N   0  0  0  0  0  0  0  0  0  0  0  0
  147.6430  134.8516  156.7495 C   0  0  0  0  0  0  0  0  0  0  0  0
  148.3488  133.6944  157.4744 C   0  0  0  0  0  0  0  0  0  0  0  0
  148.4651  134.0043  158.8457 O   0  0  0  0  0  0  0  0  0  0  0  0
  149.0556  134.3620  154.7882 C   0  0  0  0  0  0  0  0  0  0  0  0
  150.2033  135.3615  155.0374 C   0  0  0  0  0  0  0  0  0  0  0  0
  151.6281  141.4926  157.5612 C   0  0  0  0  0  0  0  0  0  0  0  0
  152.4886  141.1876  158.6137 C   0  0  0  0  0  0  0  0  0  0  0  0
  152.5625  142.1117  159.6804 C   0  0  0  0  0  0  0  0  0  0  0  0
  153.4929  141.8038  160.8416 C   0  0  0  0  0  0  0  0  0  0  0  0
  151.2763  145.1775  160.6345 H   0  0  0  0  0  0  0  0  0  0  0  0
  152.9116  144.6154  160.9686 H   0  0  0  0  0  0  0  0  0  0  0  0
  151.5267  143.8333  161.7466 H   0  0  0  0  0  0  0  0  0  0  0  0
  150.3258  144.4978  158.5862 H   0  0  0  0  0  0  0  0  0  0  0  0
  149.9644  141.2805  154.7097 H   0  0  0  0  0  0  0  0  0  0  0  0
  152.4266  139.6732  155.0698 H   0  0  0  0  0  0  0  0  0  0  0  0
  152.7422  139.3422  156.7516 H   0  0  0  0  0  0  0  0  0  0  0  0
  149.9443  138.7724  156.1816 H   0  0  0  0  0  0  0  0  0  0  0  0
  150.4450  137.0774  157.3188 H   0  0  0  0  0  0  0  0  0  0  0  0
  150.8770  138.4285  153.7910 H   0  0  0  0  0  0  0  0  0  0  0  0
  151.9321  137.2112  154.4581 H   0  0  0  0  0  0  0  0  0  0  0  0
  148.6383  137.4289  155.9813 H   0  0  0  0  0  0  0  0  0  0  0  0
  148.3064  138.0964  154.3974 H   0  0  0  0  0  0  0  0  0  0  0  0
  146.5095  136.4983  155.0399 H   0  0  0  0  0  0  0  0  0  0  0  0
  147.3427  135.9891  153.6011 H   0  0  0  0  0  0  0  0  0  0  0  0
  148.0036  135.7991  157.1490 H   0  0  0  0  0  0  0  0  0  0  0  0
  146.5849  134.8051  157.0117 H   0  0  0  0  0  0  0  0  0  0  0  0
  147.7825  132.7688  157.3658 H   0  0  0  0  0  0  0  0  0  0  0  0
  149.3484  133.5198  157.0771 H   0  0  0  0  0  0  0  0  0  0  0  0
  147.8488  133.4740  159.3280 H   0  0  0  0  0  0  0  0  0  0  0  0
  149.3054  133.3930  155.2186 H   0  0  0  0  0  0  0  0  0  0  0  0
  148.9749  134.1867  153.7145 H   0  0  0  0  0  0  0  0  0  0  0  0
  151.1167  134.9598  154.6008 H   0  0  0  0  0  0  0  0  0  0  0  0
  150.3936  135.4755  156.1051 H   0  0  0  0  0  0  0  0  0  0  0  0
  153.0784  140.2836  158.6250 H   0  0  0  0  0  0  0  0  0  0  0  0
  153.9571  140.8231  160.7321 H   0  0  0  0  0  0  0  0  0  0  0  0
  152.9465  141.8075  161.7851 H   0  0  0  0  0  0  0  0  0  0  0  0
  154.2895  142.5460  160.8989 H   0  0  0  0  0  0  0  0  0  0  0  0
  149.7702  136.5313  153.4381 H   0  0  0  0  0  0  0  0  0  0  0  0
  149.4582  143.3873  156.0844 H   0  0  0  0  0  0  0  0  0  0  0  0
  1  2  1  0  0  0  0
  1 25  1  0  0  0  0
  1 26  1  0  0  0  0
  1 27  1  0  0  0  0
  2 23  1  0  0  0  0
  2  3  2  0  0  0  0
  3  4  1  0  0  0  0
  3 28  1  0  0  0  0
  4 21  2  0  0  0  0
  4  5  1  0  0  0  0
  5  6  2  0  0  0  0
  5 54  1  0  0  0  0
  6  7  1  0  0  0  0
  6 29  1  0  0  0  0
  7  8  1  0  0  0  0
  7 21  1  0  0  0  0
  8  9  1  0  0  0  0
  8 30  1  0  0  0  0
  8 31  1  0  0  0  0
  9 10  1  0  0  0  0
  9 11  1  0  0  0  0
  9 32  1  0  0  0  0
 10 33  1  0  0  0  0
 11 12  1  0  0  0  0
 11 34  1  0  0  0  0
 11 35  1  0  0  0  0
 12 20  1  0  0  0  0
 12 13  1  0  0  0  0
 12 53  1  0  0  0  0
 13 14  1  0  0  0  0
 13 36  1  0  0  0  0
 13 37  1  0  0  0  0
 14 15  1  0  0  0  0
 14 38  1  0  0  0  0
 14 39  1  0  0  0  0
 15 16  1  0  0  0  0
 15 19  1  0  0  0  0
 16 17  1  0  0  0  0
 16 40  1  0  0  0  0
 16 41  1  0  0  0  0
 17 18  1  0  0  0  0
 17 42  1  0  0  0  0
 17 43  1  0  0  0  0
 18 44  1  0  0  0  0
 19 20  1  0  0  0  0
 19 45  1  0  0  0  0
 19 46  1  0  0  0  0
 20 47  1  0  0  0  0
 20 48  1  0  0  0  0
 21 22  1  0  0  0  0
 22 23  2  0  0  0  0
 22 49  1  0  0  0  0
 23 24  1  0  0  0  0
 24 50  1  0  0  0  0
 24 51  1  0  0  0  0
 24 52  1  0  0  0  0
M  CHG  1   5   1
M  CHG  1  12   1
M  END
> <s_m_source_file>
AV-unprocessed.smi

> <i_m_source_file_index>
1046

> <i_lp_mmshare_version>
43012

> <i_f3d_flags>
0

> <s_epik_input>
W0NIM11jKFtjSF0xKWMoW0NIM10pW2NIXWMoYzEyKW4oW2NIXW4yKVtDSDJdW0NASF0oW09IXSlbQ0gyXU4zW0NIMl1bQ0gyXU4oW0NIMl1bQ0gyXTMpW0NIMl1bQ0gyXVtPSF0=

> <s_epik_cmdline>
J2VwaWtfcHl0aG9uJywgJy1waCcsICc3LjAnLCAnLXRuJywgJzgnLCAnLW1hJywgJzIwMCcsICctbWV0YWxfYmluZGluZycsICctaW1hZScsICc8aW5maWxlLm1hZT4nLCAnLW9tYWUnLCAnPG91dGZpbGUubWFlPic=

> <r_epik_Ionization_Penalty>
1.22056

> <r_epik_Ionization_Penalty_Charging>
1.17959

> <r_epik_Ionization_Penalty_Neutral>
0.0409743

> <r_epik_State_Penalty>
1.27074

> <r_epik_Charging_Adjusted_Penalty>
2.45032

> <i_epik_Tot_Q>
2

> <i_epik_Tot_abs_Q>
2

> <r_epik_Metal_State_Penalty>
5.26922

> <b_epik_Metal_Only>
0

> <s_lp_Force_Field>
OPLS_2005

> <r_lp_Energy>
41.2385

> <b_lp_Chiralities_Consistent>
1

> <s_lp_Variant>
AV-unprocessed.smi:1046-5

> <Gold.Version>
5.8.1

> <Gold.Id.Protein>
6NUR|6NUR_protein|mol2

> <Gold.PLP.Fitness>
54.6061

> <Gold.PLP.PLP>
-42.0524

> <Gold.PLP.part.hbond>
-3.0000

> <Gold.PLP.part.metal>
0.0000

> <Gold.PLP.part.buried>
-6.4939

> <Gold.PLP.part.nonpolar>
-34.3524

> <Gold.PLP.part.repulsive>
0.1605

> <Gold.PLP.ligand.clash>
0.0000

> <Gold.PLP.ligand.torsion>
1.2122

> <Gold.PLP.Chemscore.Hbond>
4.9588

> <Gold.PLP.Chemscore.CHOScore>
0.0000

> <Gold.PLP.Chemscore.Metal>
0.0000

> <Gold.Chemscore.Hbonds>
donor molecule, donor type, donor heavy atom, donor atom, acceptor molecule, acceptor atom, score
      L1  H     5    54       P1  8028  1.92
      L1  H    12    53       P1  7948  2.00
      P1  H  6896  6909       L1    18  0.47

> <Gold.PLP.Chemscore.Internal.Correction>
0.1020

> <Gold.Rescore>
     Score         DG    S(hbond)    S(metal)    S(lipo)     H(rot)  DE(clash)    DE(int)     intcor
     18.64     -20.07       2.93        0.00     113.12       3.29       0.02       1.40       ----

> <Gold.Chemscore.Fitness>
18.6398

> <Gold.Chemscore.DG>
-20.0658

> <Gold.Chemscore.ZeroCoef>
-5.4800

> <Gold.Chemscore.Hbond>
2.9257

> <Gold.Chemscore.Metal>
0.0000

> <Gold.Chemscore.Lipo>
113.1227

> <Gold.Chemscore.Internal_Hbond>
0.0000

> <Gold.Chemscore.DEClash>
0.0211

> <Gold.Chemscore.DEInternal>
1.4049

> <Gold.Chemscore.Rot>
3.2896

> <Gold.Chemscore.Internal.Correction>
   9.000000E+99

> <Gold.Chemscore.Hbonds>
donor molecule, donor type, donor heavy atom, donor atom, acceptor molecule, acceptor atom, score
      L1  H     5    54       P1  8028  0.90
      L1  H    12    53       P1  7948  0.30
      P1  H  6896  6909       L1    18  0.35

> <Gold.Chemscore.Hbond.Weighted>
-9.7720

> <Gold.Chemscore.Metal.Weighted>
-0.0000

> <Gold.Chemscore.Lipo.Weighted>
-13.2354

> <Gold.Chemscore.Internal_Hbond.Weighted>
0.0000

> <Gold.Chemscore.DEClash.Weighted>
0.0211

> <Gold.Chemscore.DEInternal.Weighted>
1.4049

> <Gold.Chemscore.Rot.Weighted>
8.4215

> <Gold.Chemscore.Internal.Correction.Weighted>
   9.000000E+99

> <Gold.Protein.RotatedTorsions>
[ 6907 6896 6895 6894 ] final   26.52 input  -60.11 | X-H torsion
[ 7974 7965 7964 7962 ] final  124.50 input  175.53 | X-H torsion
[ 8008 7997 7996 7995 ] final   29.93 input   59.86 | X-H torsion
[ 10167 10162 10161 10158 ] final  -32.47 input  -65.29 | X-H torsion
[ 10718 10713 10712 10709 ] final  -56.52 input   66.30 | X-H torsion
[ 10763 10752 10751 10750 ] final   76.23 input  -60.55 | X-H torsion
[ 11005 11000 10999 10996 ] final   38.29 input  -57.11 | X-H torsion

> <Gold.Protein.ActiveResidues>
 VAL166  LYS551  ARG553  GLY616  TRP617  ASP618  TYR619  PRO620  LYS621  CYS622 
 ASP623  PHE694  ASN695  SER759  ASP760  ASP761  ALA762  ILE779  LEU786  VAL792 
 PHE793  MET794  SER795  GLU796  ALA797  LYS798  CYS799  TRP800  GLU811  SER814 

> <Gold.Protein.RotatedAtoms>
  151.9887  134.9991  160.0560 H   0  0  0  0  0  0  0  0  0  0  0  0  # atno 6907 bound_to 6896
  152.1629  133.4588  159.4878 H   0  0  0  0  0  0  0  0  0  0  0  0  # atno 6908 bound_to 6896
  150.6890  134.1967  159.4349 H   0  0  0  0  0  0  0  0  0  0  0  0  # atno 6909 bound_to 6896
  145.0836  139.3638  143.4896 H   0  0  0  0  0  0  0  0  0  0  0  0  # atno 7974 bound_to 7965
  155.0824  140.3211  155.4597 H   0  0  0  0  0  0  0  0  0  0  0  0  # atno 8008 bound_to 7997
  156.2764  140.2092  156.5897 H   0  0  0  0  0  0  0  0  0  0  0  0  # atno 8009 bound_to 7997
  154.6968  140.0511  157.0406 H   0  0  0  0  0  0  0  0  0  0  0  0  # atno 8010 bound_to 7997
  140.7220  143.3692  151.1811 H   0  0  0  0  0  0  0  0  0  0  0  0  # atno 10167 bound_to 10162
  156.1282  130.4161  150.0316 H   0  0  0  0  0  0  0  0  0  0  0  0  # atno 10718 bound_to 10713
  153.0710  135.4959  154.8305 H   0  0  0  0  0  0  0  0  0  0  0  0  # atno 10763 bound_to 10752
  154.7023  135.3004  154.9325 H   0  0  0  0  0  0  0  0  0  0  0  0  # atno 10764 bound_to 10752
  154.0045  135.6762  153.4814 H   0  0  0  0  0  0  0  0  0  0  0  0  # atno 10765 bound_to 10752
  140.2141  134.3719  155.8035 H   0  0  0  0  0  0  0  0  0  0  0  0  # atno 11005 bound_to 11000
  146.3531  140.0638  142.8627 LP  0  0  0  0  0  0  0  0  0  0  0  0  # atno 17320 bound_to 7965
  145.1148  140.9427  143.4635 LP  0  0  0  0  0  0  0  0  0  0  0  0  # atno 17321 bound_to 7965
  139.7260  143.9148  152.3003 LP  0  0  0  0  0  0  0  0  0  0  0  0  # atno 17342 bound_to 10162
  139.8921  144.6960  150.8759 LP  0  0  0  0  0  0  0  0  0  0  0  0  # atno 17343 bound_to 10162
  156.8236  130.9367  151.3640 LP  0  0  0  0  0  0  0  0  0  0  0  0  # atno 17370 bound_to 10713
  157.6462  130.8846  149.9543 LP  0  0  0  0  0  0  0  0  0  0  0  0  # atno 17371 bound_to 10713
  141.2225  133.7158  156.8467 LP  0  0  0  0  0  0  0  0  0  0  0  0  # atno 17394 bound_to 11000
  140.1919  134.8959  157.3070 LP  0  0  0  0  0  0  0  0  0  0  0  0  # atno 17395 bound_to 11000

$$$$
