AV-unprocessed.smi:2674|AV-procd|sdf|10359|dock8
  -GOLD-   2272014383D 1   1.00000     0.00000
 Structure written by MMmdl.
 45 46  0  0  0  0  0  0  0  0  2 V2000
  147.8602  137.3551  155.0910 C   0  0  0  0  0  0  0  0  0  0  0  0
  148.2436  138.2598  153.9745 N   0  3  1  0  0  0  0  0  0  0  0  0
  147.1235  139.1624  153.5756 C   0  0  0  0  0  0  0  0  0  0  0  0
  146.4853  138.8142  152.2132 C   0  0  0  0  0  0  0  0  0  0  0  0
  146.6458  137.3992  151.8955 N   0  0  0  0  0  0  0  0  0  0  0  0
  145.6375  136.5238  151.7678 C   0  0  0  0  0  0  0  0  0  0  0  0
  144.4544  136.8318  151.9157 O   0  0  0  0  0  0  0  0  0  0  0  0
  146.0908  135.2954  151.4616 N   0  0  0  0  0  0  0  0  0  0  0  0
  145.3336  134.1231  151.1961 C   0  0  0  0  0  0  0  0  0  0  0  0
  146.0862  132.9299  151.1127 C   0  0  0  0  0  0  0  0  0  0  0  0
  145.4289  131.7134  150.8451 C   0  0  0  0  0  0  0  0  0  0  0  0
  144.0340  131.7219  150.6671 C   0  0  0  0  0  0  0  0  0  0  0  0
  143.3601  132.9529  150.7669 C   0  0  0  0  0  0  0  0  0  0  0  0
  143.9881  134.1199  151.0231 N   0  0  0  0  0  0  0  0  0  0  0  0
  149.5541  138.9396  154.2464 C   0  0  0  0  0  0  0  0  0  0  0  0
  150.7330  137.9807  154.5680 C   0  0  0  0  0  0  0  0  0  0  0  0
  152.0374  138.7403  154.8606 C   0  0  0  0  0  0  0  0  0  0  0  0
  151.8558  139.7450  156.0048 C   0  0  0  0  0  0  0  0  0  0  0  0
  150.7028  140.7098  155.7017 C   0  0  0  0  0  0  0  0  0  0  0  0
  149.3995  139.9481  155.4124 C   0  0  0  0  0  0  0  0  0  0  0  0
  147.4703  137.9254  155.9353 H   0  0  0  0  0  0  0  0  0  0  0  0
  148.6989  136.7642  155.4543 H   0  0  0  0  0  0  0  0  0  0  0  0
  147.1009  136.6390  154.7791 H   0  0  0  0  0  0  0  0  0  0  0  0
  146.3674  139.1571  154.3622 H   0  0  0  0  0  0  0  0  0  0  0  0
  147.4896  140.1848  153.4879 H   0  0  0  0  0  0  0  0  0  0  0  0
  145.4189  139.0411  152.2293 H   0  0  0  0  0  0  0  0  0  0  0  0
  146.9217  139.3973  151.4016 H   0  0  0  0  0  0  0  0  0  0  0  0
  147.5890  137.0639  151.7625 H   0  0  0  0  0  0  0  0  0  0  0  0
  147.0920  135.1883  151.3931 H   0  0  0  0  0  0  0  0  0  0  0  0
  147.1577  132.9413  151.2510 H   0  0  0  0  0  0  0  0  0  0  0  0
  145.9860  130.7907  150.7769 H   0  0  0  0  0  0  0  0  0  0  0  0
  143.4944  130.8097  150.4595 H   0  0  0  0  0  0  0  0  0  0  0  0
  142.2892  133.0033  150.6364 H   0  0  0  0  0  0  0  0  0  0  0  0
  149.8330  139.4871  153.3440 H   0  0  0  0  0  0  0  0  0  0  0  0
  150.4838  137.3569  155.4278 H   0  0  0  0  0  0  0  0  0  0  0  0
  150.9271  137.3087  153.7315 H   0  0  0  0  0  0  0  0  0  0  0  0
  152.8297  138.0339  155.1112 H   0  0  0  0  0  0  0  0  0  0  0  0
  152.3653  139.2645  153.9619 H   0  0  0  0  0  0  0  0  0  0  0  0
  151.6548  139.2113  156.9346 H   0  0  0  0  0  0  0  0  0  0  0  0
  152.7790  140.3038  156.1613 H   0  0  0  0  0  0  0  0  0  0  0  0
  150.5572  141.3875  156.5436 H   0  0  0  0  0  0  0  0  0  0  0  0
  150.9610  141.3330  154.8445 H   0  0  0  0  0  0  0  0  0  0  0  0
  148.6185  140.6784  155.2065 H   0  0  0  0  0  0  0  0  0  0  0  0
  149.0854  139.4178  156.3127 H   0  0  0  0  0  0  0  0  0  0  0  0
  148.4102  137.6698  153.1719 H   0  0  0  0  0  0  0  0  0  0  0  0
  1  2  1  0  0  0  0
  1 21  1  0  0  0  0
  1 22  1  0  0  0  0
  1 23  1  0  0  0  0
  2  3  1  0  0  0  0
  2 15  1  0  0  0  0
  2 45  1  0  0  0  0
  3  4  1  0  0  0  0
  3 24  1  0  0  0  0
  3 25  1  0  0  0  0
  4  5  1  0  0  0  0
  4 26  1  0  0  0  0
  4 27  1  0  0  0  0
  5  6  1  0  0  0  0
  5 28  1  0  0  0  0
  6  7  2  0  0  0  0
  6  8  1  0  0  0  0
  8  9  1  0  0  0  0
  8 29  1  0  0  0  0
  9 14  1  0  0  0  0
  9 10  2  0  0  0  0
 10 11  1  0  0  0  0
 10 30  1  0  0  0  0
 11 12  2  0  0  0  0
 11 31  1  0  0  0  0
 12 13  1  0  0  0  0
 12 32  1  0  0  0  0
 13 14  2  0  0  0  0
 13 33  1  0  0  0  0
 15 20  1  0  0  0  0
 15 16  1  0  0  0  0
 15 34  1  0  0  0  0
 16 17  1  0  0  0  0
 16 35  1  0  0  0  0
 16 36  1  0  0  0  0
 17 18  1  0  0  0  0
 17 37  1  0  0  0  0
 17 38  1  0  0  0  0
 18 19  1  0  0  0  0
 18 39  1  0  0  0  0
 18 40  1  0  0  0  0
 19 20  1  0  0  0  0
 19 41  1  0  0  0  0
 19 42  1  0  0  0  0
 20 43  1  0  0  0  0
 20 44  1  0  0  0  0
M  CHG  1   2   1
M  END
> <s_m_source_file>
AV-unprocessed.smi

> <i_m_source_file_index>
2674

> <i_lp_mmshare_version>
43012

> <i_f3d_flags>
0

> <s_epik_input>
W0NIMl0xW0NIMl1bQ0gyXVtDSDJdW0NIMl1bQ0hdMU4oW0NIM10pW0NIMl1bQ0gyXVtOSF1DKD1PKVtOSF1jMltjSF1bY0hdW2NIXVtjSF1uMg==

> <s_epik_cmdline>
J2VwaWtfcHl0aG9uJywgJy1waCcsICc3LjAnLCAnLXRuJywgJzgnLCAnLW1hJywgJzIwMCcsICctbWV0YWxfYmluZGluZycsICctaW1hZScsICc8aW5maWxlLm1hZT4nLCAnLW9tYWUnLCAnPG91dGZpbGUubWFlPic=

> <r_epik_Ionization_Penalty>
0.00206741

> <r_epik_Ionization_Penalty_Charging>
0.00203269

> <r_epik_Ionization_Penalty_Neutral>
3.47205e-05

> <r_epik_State_Penalty>
0.00139005

> <r_epik_Charging_Adjusted_Penalty>
0.00342273

> <i_epik_Tot_Q>
1

> <i_epik_Tot_abs_Q>
1

> <r_epik_Metal_State_Penalty>
-0

> <b_epik_Metal_Only>
0

> <s_lp_Force_Field>
OPLS_2005

> <r_lp_Energy>
21.1862

> <b_lp_Chiralities_Consistent>
1

> <s_lp_Variant>
AV-unprocessed.smi:2674-2

> <Gold.Version>
5.8.1

> <Gold.Id.Protein>
6NUR|6NUR_protein|mol2

> <Gold.PLP.Fitness>
52.3977

> <Gold.PLP.PLP>
-39.8859

> <Gold.PLP.part.hbond>
-2.8725

> <Gold.PLP.part.metal>
0.0000

> <Gold.PLP.part.buried>
-4.6155

> <Gold.PLP.part.nonpolar>
-34.2204

> <Gold.PLP.part.repulsive>
1.5360

> <Gold.PLP.ligand.clash>
0.0000

> <Gold.PLP.ligand.torsion>
0.9952

> <Gold.PLP.Chemscore.Hbond>
3.8070

> <Gold.PLP.Chemscore.CHOScore>
1.0000

> <Gold.PLP.Chemscore.Metal>
0.0000

> <Gold.Chemscore.Hbonds>
donor molecule, donor type, donor heavy atom, donor atom, acceptor molecule, acceptor atom, score
      L1  H     2    45       P1  7948  2.00
      L1  H     5    28       P1  7948  1.00
      L1  H     8    29       P1  7948  0.63
      L1  C    13    33       P1 10186  1.00

> <Gold.PLP.Chemscore.Internal.Correction>
0.0814

> <Gold.Rescore>
     Score         DG    S(hbond)    S(metal)    S(lipo)     H(rot)  DE(clash)    DE(int)     intcor
     18.17     -20.49       2.53        0.00      93.35       1.70       0.05       2.27       ----

> <Gold.Chemscore.Fitness>
18.1708

> <Gold.Chemscore.DG>
-20.4910

> <Gold.Chemscore.ZeroCoef>
-5.4800

> <Gold.Chemscore.Hbond>
2.5295

> <Gold.Chemscore.Metal>
0.0000

> <Gold.Chemscore.Lipo>
93.3524

> <Gold.Chemscore.Internal_Hbond>
0.0000

> <Gold.Chemscore.DEClash>
0.0452

> <Gold.Chemscore.DEInternal>
2.2749

> <Gold.Chemscore.Rot>
1.7030

> <Gold.Chemscore.Internal.Correction>
   9.000000E+99

> <Gold.Chemscore.Hbonds>
donor molecule, donor type, donor heavy atom, donor atom, acceptor molecule, acceptor atom, score
      L1  H     2    45       P1  7948  0.95
      L1  H     5    28       P1  7948  0.97
      L1  H     8    29       P1  7948  0.54

> <Gold.Chemscore.Hbond.Weighted>
-8.4484

> <Gold.Chemscore.Metal.Weighted>
-0.0000

> <Gold.Chemscore.Lipo.Weighted>
-10.9222

> <Gold.Chemscore.Internal_Hbond.Weighted>
0.0000

> <Gold.Chemscore.DEClash.Weighted>
0.0452

> <Gold.Chemscore.DEInternal.Weighted>
2.2749

> <Gold.Chemscore.Rot.Weighted>
4.3597

> <Gold.Chemscore.Internal.Correction.Weighted>
   9.000000E+99

> <Gold.Protein.RotatedTorsions>
[ 6907 6896 6895 6894 ] final   17.95 input  -60.11 | X-H torsion
[ 7974 7965 7964 7962 ] final   49.49 input  175.53 | X-H torsion
[ 8008 7997 7996 7995 ] final   -9.87 input   59.86 | X-H torsion
[ 10167 10162 10161 10158 ] final -139.31 input  -65.29 | X-H torsion
[ 10718 10713 10712 10709 ] final   10.77 input   66.30 | X-H torsion
[ 10763 10752 10751 10750 ] final  156.84 input  -60.55 | X-H torsion
[ 11005 11000 10999 10996 ] final  126.03 input  -57.11 | X-H torsion

> <Gold.Protein.ActiveResidues>
 VAL166  LYS551  ARG553  GLY616  TRP617  ASP618  TYR619  PRO620  LYS621  CYS622 
 ASP623  PHE694  ASN695  SER759  ASP760  ASP761  ALA762  ILE779  LEU786  VAL792 
 PHE793  MET794  SER795  GLU796  ALA797  LYS798  CYS799  TRP800  GLU811  SER814 

> <Gold.Protein.RotatedAtoms>
  151.8577  135.0535  160.0465 H   0  0  0  0  0  0  0  0  0  0  0  0  # atno 6907 bound_to 6896
  152.2687  133.5358  159.5434 H   0  0  0  0  0  0  0  0  0  0  0  0  # atno 6908 bound_to 6896
  150.7143  134.0644  159.3885 H   0  0  0  0  0  0  0  0  0  0  0  0  # atno 6909 bound_to 6896
  146.0103  139.4536  142.9960 H   0  0  0  0  0  0  0  0  0  0  0  0  # atno 7974 bound_to 7965
  154.5607  140.2344  155.8340 H   0  0  0  0  0  0  0  0  0  0  0  0  # atno 8008 bound_to 7997
  156.2027  140.3048  155.9519 H   0  0  0  0  0  0  0  0  0  0  0  0  # atno 8009 bound_to 7997
  155.2895  140.0426  157.3012 H   0  0  0  0  0  0  0  0  0  0  0  0  # atno 8010 bound_to 7997
  139.8392  143.7344  152.2664 H   0  0  0  0  0  0  0  0  0  0  0  0  # atno 10167 bound_to 10162
  156.9859  130.6023  149.5681 H   0  0  0  0  0  0  0  0  0  0  0  0  # atno 10718 bound_to 10713
  154.1907  135.2795  155.3023 H   0  0  0  0  0  0  0  0  0  0  0  0  # atno 10763 bound_to 10752
  154.5931  135.5553  153.7301 H   0  0  0  0  0  0  0  0  0  0  0  0  # atno 10764 bound_to 10752
  153.0113  135.6373  154.2046 H   0  0  0  0  0  0  0  0  0  0  0  0  # atno 10765 bound_to 10752
  139.9436  134.9632  156.8646 H   0  0  0  0  0  0  0  0  0  0  0  0  # atno 11005 bound_to 11000
  145.7352  141.0028  143.1330 LP  0  0  0  0  0  0  0  0  0  0  0  0  # atno 17320 bound_to 7965
  144.6950  139.9032  143.7459 LP  0  0  0  0  0  0  0  0  0  0  0  0  # atno 17321 bound_to 7965
  139.7576  144.7516  151.0412 LP  0  0  0  0  0  0  0  0  0  0  0  0  # atno 17342 bound_to 10162
  140.7799  143.4788  151.0046 LP  0  0  0  0  0  0  0  0  0  0  0  0  # atno 17343 bound_to 10162
  156.0226  130.5321  150.8318 LP  0  0  0  0  0  0  0  0  0  0  0  0  # atno 17370 bound_to 10713
  157.5493  131.0943  150.9717 LP  0  0  0  0  0  0  0  0  0  0  0  0  # atno 17371 bound_to 10713
  140.5891  134.0279  155.7493 LP  0  0  0  0  0  0  0  0  0  0  0  0  # atno 17394 bound_to 11000
  141.1079  133.9664  157.2964 LP  0  0  0  0  0  0  0  0  0  0  0  0  # atno 17395 bound_to 11000

$$$$
