AV-unprocessed.smi:2305|AV-procd|sdf|9246|dock2
  -GOLD-   2272012463D 1   1.00000     0.00000
 Structure written by MMmdl.
 40 41  0  0  0  0  0  0  0  0  1 V2000
  143.2122  144.8148  155.5646 C   0  0  0  0  0  0  0  0  0  0  0  0
  144.2555  143.8040  155.1222 C   0  0  0  0  0  0  0  0  0  0  0  0
  144.9517  144.1271  153.9540 N   0  0  0  0  0  0  0  0  0  0  0  0
  145.8604  143.3259  153.5021 C   0  0  0  0  0  0  0  0  0  0  0  0
  146.1703  142.1203  154.1525 N   0  0  0  0  0  0  0  0  0  0  0  0
  147.2240  141.2972  153.5350 C   0  0  0  0  0  0  0  0  0  0  0  0
  148.5896  141.4789  154.2349 C   0  0  2  0  0  0  0  0  0  0  0  0
  149.5670  140.7725  153.4963 O   0  0  0  0  0  0  0  0  0  0  0  0
  148.5799  140.9099  155.6667 C   0  0  0  0  0  0  0  0  0  0  0  0
  149.4337  141.7203  156.6259 C   0  0  0  0  0  0  0  0  0  0  0  0
  150.8009  141.9283  156.3518 C   0  0  0  0  0  0  0  0  0  0  0  0
  151.5956  142.6765  157.2415 C   0  0  0  0  0  0  0  0  0  0  0  0
  151.0318  143.2269  158.4126 C   0  0  0  0  0  0  0  0  0  0  0  0
  151.9028  144.0262  159.3707 C   0  0  0  0  0  0  0  0  0  0  0  0
  151.1832  144.5433  160.3673 F   0  0  0  0  0  0  0  0  0  0  0  0
  152.8360  143.2273  159.8866 F   0  0  0  0  0  0  0  0  0  0  0  0
  152.5027  145.0275  158.7263 F   0  0  0  0  0  0  0  0  0  0  0  0
  149.6631  143.0119  158.6872 C   0  0  0  0  0  0  0  0  0  0  0  0
  148.8676  142.2646  157.7970 C   0  0  0  0  0  0  0  0  0  0  0  0
  145.5444  141.7324  155.3013 C   0  0  0  0  0  0  0  0  0  0  0  0
  145.8348  140.6787  155.8716 O   0  0  0  0  0  0  0  0  0  0  0  0
  144.5141  142.6552  155.8047 C   0  0  0  0  0  0  0  0  0  0  0  0
  143.7922  142.2535  157.0848 C   0  0  0  0  0  0  0  0  0  0  0  0
  142.2266  144.3512  155.6132 H   0  0  0  0  0  0  0  0  0  0  0  0
  143.1523  145.6539  154.8703 H   0  0  0  0  0  0  0  0  0  0  0  0
  143.4600  145.2131  156.5488 H   0  0  0  0  0  0  0  0  0  0  0  0
  146.4380  143.5359  152.6002 H   0  0  0  0  0  0  0  0  0  0  0  0
  146.9157  140.2522  153.5998 H   0  0  0  0  0  0  0  0  0  0  0  0
  147.3168  141.4797  152.4621 H   0  0  0  0  0  0  0  0  0  0  0  0
  148.8538  142.5367  154.2713 H   0  0  0  0  0  0  0  0  0  0  0  0
  149.2723  140.7035  152.6007 H   0  0  0  0  0  0  0  0  0  0  0  0
  147.5617  140.9192  156.0578 H   0  0  0  0  0  0  0  0  0  0  0  0
  148.8933  139.8646  155.6723 H   0  0  0  0  0  0  0  0  0  0  0  0
  151.2444  141.5116  155.4591 H   0  0  0  0  0  0  0  0  0  0  0  0
  152.6428  142.8256  157.0231 H   0  0  0  0  0  0  0  0  0  0  0  0
  149.2148  143.4163  159.5825 H   0  0  0  0  0  0  0  0  0  0  0  0
  147.8218  142.1079  158.0182 H   0  0  0  0  0  0  0  0  0  0  0  0
  144.5084  142.1354  157.8988 H   0  0  0  0  0  0  0  0  0  0  0  0
  143.2796  141.3012  156.9445 H   0  0  0  0  0  0  0  0  0  0  0  0
  143.0498  142.9822  157.4062 H   0  0  0  0  0  0  0  0  0  0  0  0
  1  2  1  0  0  0  0
  1 24  1  0  0  0  0
  1 25  1  0  0  0  0
  1 26  1  0  0  0  0
  2 22  2  0  0  0  0
  2  3  1  0  0  0  0
  3  4  2  0  0  0  0
  4  5  1  0  0  0  0
  4 27  1  0  0  0  0
  5  6  1  0  0  0  0
  5 20  1  0  0  0  0
  6  7  1  0  0  0  0
  6 28  1  0  0  0  0
  6 29  1  0  0  0  0
  7  8  1  0  0  0  0
  7  9  1  0  0  0  0
  7 30  1  0  0  0  0
  8 31  1  0  0  0  0
  9 10  1  0  0  0  0
  9 32  1  0  0  0  0
  9 33  1  0  0  0  0
 10 19  1  0  0  0  0
 10 11  2  0  0  0  0
 11 12  1  0  0  0  0
 11 34  1  0  0  0  0
 12 13  2  0  0  0  0
 12 35  1  0  0  0  0
 13 14  1  0  0  0  0
 13 18  1  0  0  0  0
 14 15  1  0  0  0  0
 14 16  1  0  0  0  0
 14 17  1  0  0  0  0
 18 19  2  0  0  0  0
 18 36  1  0  0  0  0
 19 37  1  0  0  0  0
 20 21  2  0  0  0  0
 20 22  1  0  0  0  0
 22 23  1  0  0  0  0
 23 38  1  0  0  0  0
 23 39  1  0  0  0  0
 23 40  1  0  0  0  0
M  END
> <s_m_source_file>
AV-unprocessed.smi

> <i_m_source_file_index>
2305

> <i_lp_mmshare_version>
43012

> <i_f3d_flags>
0

> <s_epik_input>
W0NIM11jMW5bY0hdbihjKD1PKWMxW0NIM10pW0NIMl1bQ0BIXShbT0hdKVtDSDJdYzJbY0hdW2NIXWMoQyhGKShGKUYpW2NIXVtjSF0y

> <s_epik_cmdline>
J2VwaWtfcHl0aG9uJywgJy1waCcsICc3LjAnLCAnLXRuJywgJzgnLCAnLW1hJywgJzIwMCcsICctbWV0YWxfYmluZGluZycsICctaW1hZScsICc8aW5maWxlLm1hZT4nLCAnLW9tYWUnLCAnPG91dGZpbGUubWFlPic=

> <r_lp_tautomer_probability>
1

> <r_epik_Ionization_Penalty>
8.92636e-05

> <r_epik_Ionization_Penalty_Charging>
8.63033e-08

> <r_epik_Ionization_Penalty_Neutral>
8.91773e-05

> <r_epik_State_Penalty>
-0

> <r_epik_Charging_Adjusted_Penalty>
8.63033e-08

> <i_epik_Tot_Q>
0

> <i_epik_Tot_abs_Q>
0

> <r_epik_Metal_State_Penalty>
-0

> <b_epik_Metal_Only>
0

> <s_lp_Force_Field>
OPLS_2005

> <r_lp_Energy>
20.2426

> <b_lp_Chiralities_Consistent>
1

> <s_lp_Variant>
AV-unprocessed.smi:2305-1

> <Gold.Version>
5.8.1

> <Gold.Id.Protein>
6NUR|6NUR_protein|mol2

> <Gold.PLP.Fitness>
49.9668

> <Gold.PLP.PLP>
-47.6511

> <Gold.PLP.part.hbond>
-2.7457

> <Gold.PLP.part.metal>
0.0000

> <Gold.PLP.part.buried>
-6.7265

> <Gold.PLP.part.nonpolar>
-37.2736

> <Gold.PLP.part.repulsive>
0.2384

> <Gold.PLP.ligand.clash>
0.5562

> <Gold.PLP.ligand.torsion>
0.8674

> <Gold.PLP.Chemscore.Hbond>
1.2960

> <Gold.PLP.Chemscore.CHOScore>
0.0000

> <Gold.PLP.Chemscore.Metal>
0.0000

> <Gold.Chemscore.Hbonds>
donor molecule, donor type, donor heavy atom, donor atom, acceptor molecule, acceptor atom, score
      L1  H     8    31       P1  7957  0.88
      P1  H  7989  7998       L1     8  0.35

> <Gold.PLP.Chemscore.Internal.Correction>
0.7187

> <Gold.Rescore>
     Score         DG    S(hbond)    S(metal)    S(lipo)     H(rot)  DE(clash)    DE(int)     intcor
     11.36     -12.28       0.99        0.00      81.52       2.37       0.04       0.88       ----

> <Gold.Chemscore.Fitness>
11.3583

> <Gold.Chemscore.DG>
-12.2777

> <Gold.Chemscore.ZeroCoef>
-5.4800

> <Gold.Chemscore.Hbond>
0.9945

> <Gold.Chemscore.Metal>
0.0000

> <Gold.Chemscore.Lipo>
81.5248

> <Gold.Chemscore.Internal_Hbond>
0.0000

> <Gold.Chemscore.DEClash>
0.0407

> <Gold.Chemscore.DEInternal>
0.8787

> <Gold.Chemscore.Rot>
2.3681

> <Gold.Chemscore.Internal.Correction>
   9.000000E+99

> <Gold.Chemscore.Hbonds>
donor molecule, donor type, donor heavy atom, donor atom, acceptor molecule, acceptor atom, score
      L1  H     8    31       P1  7957  0.86
      P1  H  7989  7998       L1     8  0.20

> <Gold.Chemscore.Hbond.Weighted>
-3.3218

> <Gold.Chemscore.Metal.Weighted>
-0.0000

> <Gold.Chemscore.Lipo.Weighted>
-9.5384

> <Gold.Chemscore.Internal_Hbond.Weighted>
0.0000

> <Gold.Chemscore.DEClash.Weighted>
0.0407

> <Gold.Chemscore.DEInternal.Weighted>
0.8787

> <Gold.Chemscore.Rot.Weighted>
6.0624

> <Gold.Chemscore.Internal.Correction.Weighted>
   9.000000E+99

> <Gold.Protein.RotatedTorsions>
[ 6907 6896 6895 6894 ] final  125.32 input  -60.11 | X-H torsion
[ 7974 7965 7964 7962 ] final -150.59 input  175.53 | X-H torsion
[ 8008 7997 7996 7995 ] final -103.74 input   59.86 | X-H torsion
[ 10167 10162 10161 10158 ] final -173.32 input  -65.29 | X-H torsion
[ 10718 10713 10712 10709 ] final  148.20 input   66.30 | X-H torsion
[ 10763 10752 10751 10750 ] final   97.51 input  -60.55 | X-H torsion
[ 11005 11000 10999 10996 ] final   69.69 input  -57.11 | X-H torsion

> <Gold.Protein.ActiveResidues>
 VAL166  LYS551  ARG553  GLY616  TRP617  ASP618  TYR619  PRO620  LYS621  CYS622 
 ASP623  PHE694  ASN695  SER759  ASP760  ASP761  ALA762  ILE779  LEU786  VAL792 
 PHE793  MET794  SER795  GLU796  ALA797  LYS798  CYS799  TRP800  GLU811  SER814 

> <Gold.Protein.RotatedAtoms>
  152.4002  133.6807  159.6309 H   0  0  0  0  0  0  0  0  0  0  0  0  # atno 6907 bound_to 6896
  150.7895  133.8804  159.3293 H   0  0  0  0  0  0  0  0  0  0  0  0  # atno 6908 bound_to 6896
  151.6571  135.0996  160.0223 H   0  0  0  0  0  0  0  0  0  0  0  0  # atno 6909 bound_to 6896
  144.7899  140.4911  143.5780 H   0  0  0  0  0  0  0  0  0  0  0  0  # atno 7974 bound_to 7965
  154.8753  140.0421  157.1749 H   0  0  0  0  0  0  0  0  0  0  0  0  # atno 8008 bound_to 7997
  154.8696  140.2956  155.5469 H   0  0  0  0  0  0  0  0  0  0  0  0  # atno 8009 bound_to 7997
  156.2999  140.2431  156.3682 H   0  0  0  0  0  0  0  0  0  0  0  0  # atno 8010 bound_to 7997
  139.5695  144.1676  152.1362 H   0  0  0  0  0  0  0  0  0  0  0  0  # atno 10167 bound_to 10162
  157.3115  131.0888  151.1312 H   0  0  0  0  0  0  0  0  0  0  0  0  # atno 10718 bound_to 10713
  153.2778  135.4181  155.1049 H   0  0  0  0  0  0  0  0  0  0  0  0  # atno 10763 bound_to 10752
  154.8479  135.3488  154.6154 H   0  0  0  0  0  0  0  0  0  0  0  0  # atno 10764 bound_to 10752
  153.6575  135.7050  153.5246 H   0  0  0  0  0  0  0  0  0  0  0  0  # atno 10765 bound_to 10752
  139.9639  134.7013  156.0586 H   0  0  0  0  0  0  0  0  0  0  0  0  # atno 11005 bound_to 11000
  145.5823  139.1489  143.3228 LP  0  0  0  0  0  0  0  0  0  0  0  0  # atno 17320 bound_to 7965
  146.2146  140.5952  142.9044 LP  0  0  0  0  0  0  0  0  0  0  0  0  # atno 17321 bound_to 7965
  140.1206  144.5377  150.6865 LP  0  0  0  0  0  0  0  0  0  0  0  0  # atno 17342 bound_to 10162
  140.6979  143.2415  151.4949 LP  0  0  0  0  0  0  0  0  0  0  0  0  # atno 17343 bound_to 10162
  157.2632  130.6669  149.5984 LP  0  0  0  0  0  0  0  0  0  0  0  0  # atno 17370 bound_to 10713
  155.9678  130.4502  150.5688 LP  0  0  0  0  0  0  0  0  0  0  0  0  # atno 17371 bound_to 10713
  141.1318  133.6584  156.3486 LP  0  0  0  0  0  0  0  0  0  0  0  0  # atno 17394 bound_to 11000
  140.5438  134.6094  157.5388 LP  0  0  0  0  0  0  0  0  0  0  0  0  # atno 17395 bound_to 11000

$$$$
