AV-unprocessed.smi:3185|AV-procd|sdf|12172|dock3
  -GOLD-   2272018 13D 1   1.00000     0.00000
 Structure written by MMmdl.
 37 38  0  0  0  0  0  0  0  0  1 V2000
  153.3159  139.2524  154.6525 N   0  0  0  0  0  0  0  0  0  0  0  0
  152.1956  139.0271  154.8333 C   0  0  0  0  0  0  0  0  0  0  0  0
  150.7715  138.7411  155.0622 C   0  0  0  0  0  0  0  0  0  0  0  0
  149.8766  139.9560  154.7857 C   0  0  0  0  0  0  0  0  0  0  0  0
  150.2413  141.1778  155.6392 C   0  0  0  0  0  0  0  0  0  0  0  0
  150.5701  140.7497  156.9911 N   0  0  0  0  0  0  0  0  0  0  0  0
  151.6229  141.5682  157.5866 C   0  0  1  0  0  0  0  0  0  0  0  0
  151.1395  143.0281  157.7457 C   0  0  0  0  0  0  0  0  0  0  0  0
  152.1782  143.8933  158.4759 C   0  0  0  0  0  0  0  0  0  0  0  0
  152.5435  143.2928  159.8403 C   0  0  0  0  0  0  0  0  0  0  0  0
  153.0437  141.8495  159.6874 C   0  0  0  0  0  0  0  0  0  0  0  0
  152.0063  140.9657  158.9640 C   0  0  2  0  0  0  0  0  0  0  0  0
  152.4878  139.5936  158.8519 N   0  0  0  0  0  0  0  0  0  0  0  0
  151.8895  138.4428  159.3221 C   0  0  0  0  0  0  0  0  0  0  0  0
  152.6969  137.3945  158.9855 C   0  0  0  0  0  0  0  0  0  0  0  0
  153.7831  138.0103  158.3042 C   0  0  0  0  0  0  0  0  0  0  0  0
  153.6558  139.3247  158.2249 N   0  0  0  0  0  0  0  0  0  0  0  0
  150.4905  137.9046  154.4220 H   0  0  0  0  0  0  0  0  0  0  0  0
  150.6639  138.4098  156.0953 H   0  0  0  0  0  0  0  0  0  0  0  0
  149.9134  140.2151  153.7266 H   0  0  0  0  0  0  0  0  0  0  0  0
  148.8423  139.6807  154.9934 H   0  0  0  0  0  0  0  0  0  0  0  0
  151.1075  141.6745  155.2004 H   0  0  0  0  0  0  0  0  0  0  0  0
  149.4204  141.8944  155.6424 H   0  0  0  0  0  0  0  0  0  0  0  0
  150.8943  139.7936  156.9514 H   0  0  0  0  0  0  0  0  0  0  0  0
  152.5039  141.5477  156.9432 H   0  0  0  0  0  0  0  0  0  0  0  0
  150.9334  143.4761  156.7742 H   0  0  0  0  0  0  0  0  0  0  0  0
  150.2004  143.0492  158.3007 H   0  0  0  0  0  0  0  0  0  0  0  0
  153.0756  143.9813  157.8625 H   0  0  0  0  0  0  0  0  0  0  0  0
  151.7931  144.9049  158.6068 H   0  0  0  0  0  0  0  0  0  0  0  0
  153.3094  143.9022  160.3213 H   0  0  0  0  0  0  0  0  0  0  0  0
  151.6726  143.3132  160.4967 H   0  0  0  0  0  0  0  0  0  0  0  0
  153.9836  141.8546  159.1337 H   0  0  0  0  0  0  0  0  0  0  0  0
  153.2670  141.4337  160.6705 H   0  0  0  0  0  0  0  0  0  0  0  0
  151.1088  140.9387  159.5851 H   0  0  0  0  0  0  0  0  0  0  0  0
  150.9474  138.4646  159.8500 H   0  0  0  0  0  0  0  0  0  0  0  0
  152.5362  136.3472  159.1949 H   0  0  0  0  0  0  0  0  0  0  0  0
  154.6541  137.5447  157.8672 H   0  0  0  0  0  0  0  0  0  0  0  0
  1  2  3  0  0  0  0
  2  3  1  0  0  0  0
  3  4  1  0  0  0  0
  3 18  1  0  0  0  0
  3 19  1  0  0  0  0
  4  5  1  0  0  0  0
  4 20  1  0  0  0  0
  4 21  1  0  0  0  0
  5  6  1  0  0  0  0
  5 22  1  0  0  0  0
  5 23  1  0  0  0  0
  6  7  1  0  0  0  0
  6 24  1  0  0  0  0
  7 12  1  0  0  0  0
  7  8  1  0  0  0  0
  7 25  1  0  0  0  0
  8  9  1  0  0  0  0
  8 26  1  0  0  0  0
  8 27  1  0  0  0  0
  9 10  1  0  0  0  0
  9 28  1  0  0  0  0
  9 29  1  0  0  0  0
 10 11  1  0  0  0  0
 10 30  1  0  0  0  0
 10 31  1  0  0  0  0
 11 12  1  0  0  0  0
 11 32  1  0  0  0  0
 11 33  1  0  0  0  0
 12 13  1  0  0  0  0
 12 34  1  0  0  0  0
 13 17  1  0  0  0  0
 13 14  1  0  0  0  0
 14 15  2  0  0  0  0
 14 35  1  0  0  0  0
 15 16  1  0  0  0  0
 15 36  1  0  0  0  0
 16 17  2  0  0  0  0
 16 37  1  0  0  0  0
M  END
> <s_m_source_file>
AV-unprocessed.smi

> <i_m_source_file_index>
3185

> <i_lp_mmshare_version>
43012

> <i_f3d_flags>
0

> <s_epik_input>
TiNDW0NIMl1bQ0gyXVtDSDJdW05IXVtDQEBIXTFbQ0gyXVtDSDJdW0NIMl1bQ0gyXVtDQEhdMW4yW2NIXVtjSF1bY0hdbjI=

> <s_epik_cmdline>
J2VwaWtfcHl0aG9uJywgJy1waCcsICc3LjAnLCAnLXRuJywgJzgnLCAnLW1hJywgJzIwMCcsICctbWV0YWxfYmluZGluZycsICctaW1hZScsICc8aW5maWxlLm1hZT4nLCAnLW9tYWUnLCAnPG91dGZpbGUubWFlPic=

> <r_lp_tautomer_probability>
1

> <r_epik_Ionization_Penalty>
2.21326

> <r_epik_Ionization_Penalty_Charging>
0

> <r_epik_Ionization_Penalty_Neutral>
2.21326

> <r_epik_State_Penalty>
2.35651

> <r_epik_Charging_Adjusted_Penalty>
2.35651

> <i_epik_Tot_Q>
0

> <i_epik_Tot_abs_Q>
0

> <r_epik_Metal_State_Penalty>
2.3555

> <b_epik_Metal_Only>
0

> <s_lp_Force_Field>
OPLS_2005

> <r_lp_Energy>
16.6477

> <b_lp_Chiralities_Consistent>
1

> <s_lp_Variant>
AV-unprocessed.smi:3185-8

> <Gold.Version>
5.8.1

> <Gold.Id.Protein>
6NUR|6NUR_protein|mol2

> <Gold.PLP.Fitness>
43.3711

> <Gold.PLP.PLP>
-38.1028

> <Gold.PLP.part.hbond>
-2.2562

> <Gold.PLP.part.metal>
0.0000

> <Gold.PLP.part.buried>
-3.6943

> <Gold.PLP.part.nonpolar>
-31.3747

> <Gold.PLP.part.repulsive>
0.0155

> <Gold.PLP.ligand.clash>
0.0000

> <Gold.PLP.ligand.torsion>
0.3890

> <Gold.PLP.Chemscore.Hbond>
2.0000

> <Gold.PLP.Chemscore.CHOScore>
0.0000

> <Gold.PLP.Chemscore.Metal>
0.0000

> <Gold.Chemscore.Hbonds>
donor molecule, donor type, donor heavy atom, donor atom, acceptor molecule, acceptor atom, score
      P1  H  7997  8008       L1     1  1.00
      P1  H  7997  8010       L1    17  1.00

> <Gold.PLP.Chemscore.Internal.Correction>
0.0463

> <Gold.Rescore>
     Score         DG    S(hbond)    S(metal)    S(lipo)     H(rot)  DE(clash)    DE(int)     intcor
     18.43     -18.90       1.94        0.00      98.91       1.81       0.09       0.39       ----

> <Gold.Chemscore.Fitness>
18.4252

> <Gold.Chemscore.DG>
-18.9037

> <Gold.Chemscore.ZeroCoef>
-5.4800

> <Gold.Chemscore.Hbond>
1.9422

> <Gold.Chemscore.Metal>
0.0000

> <Gold.Chemscore.Lipo>
98.9130

> <Gold.Chemscore.Internal_Hbond>
0.0000

> <Gold.Chemscore.DEClash>
0.0933

> <Gold.Chemscore.DEInternal>
0.3852

> <Gold.Chemscore.Rot>
1.8110

> <Gold.Chemscore.Internal.Correction>
   9.000000E+99

> <Gold.Chemscore.Hbonds>
donor molecule, donor type, donor heavy atom, donor atom, acceptor molecule, acceptor atom, score
      P1  H  7997  8008       L1     1  0.96
      P1  H  7997  8010       L1    17  0.77

> <Gold.Chemscore.Hbond.Weighted>
-6.4871

> <Gold.Chemscore.Metal.Weighted>
-0.0000

> <Gold.Chemscore.Lipo.Weighted>
-11.5728

> <Gold.Chemscore.Internal_Hbond.Weighted>
0.0000

> <Gold.Chemscore.DEClash.Weighted>
0.0933

> <Gold.Chemscore.DEInternal.Weighted>
0.3852

> <Gold.Chemscore.Rot.Weighted>
4.6362

> <Gold.Chemscore.Internal.Correction.Weighted>
   9.000000E+99

> <Gold.Protein.RotatedTorsions>
[ 6907 6896 6895 6894 ] final  -12.61 input  -60.11 | X-H torsion
[ 7974 7965 7964 7962 ] final  175.55 input  175.53 | X-H torsion
[ 8008 7997 7996 7995 ] final    9.98 input   59.86 | X-H torsion
[ 10167 10162 10161 10158 ] final   84.40 input  -65.29 | X-H torsion
[ 10718 10713 10712 10709 ] final    4.77 input   66.30 | X-H torsion
[ 10763 10752 10751 10750 ] final -110.46 input  -60.55 | X-H torsion
[ 11005 11000 10999 10996 ] final  -75.09 input  -57.11 | X-H torsion

> <Gold.Protein.ActiveResidues>
 VAL166  LYS551  ARG553  GLY616  TRP617  ASP618  TYR619  PRO620  LYS621  CYS622 
 ASP623  PHE694  ASN695  SER759  ASP760  ASP761  ALA762  ILE779  LEU786  VAL792 
 PHE793  MET794  SER795  GLU796  ALA797  LYS798  CYS799  TRP800  GLU811  SER814 

> <Gold.Protein.RotatedAtoms>
  151.3678  135.0916  159.9455 H   0  0  0  0  0  0  0  0  0  0  0  0  # atno 6907 bound_to 6896
  152.5144  133.9194  159.7537 H   0  0  0  0  0  0  0  0  0  0  0  0  # atno 6908 bound_to 6896
  150.9602  133.6399  159.2785 H   0  0  0  0  0  0  0  0  0  0  0  0  # atno 6909 bound_to 6896
  144.7200  139.9963  143.6440 H   0  0  0  0  0  0  0  0  0  0  0  0  # atno 7974 bound_to 7965
  154.7873  140.2829  155.6018 H   0  0  0  0  0  0  0  0  0  0  0  0  # atno 8008 bound_to 7997
  156.2959  140.2611  156.2641 H   0  0  0  0  0  0  0  0  0  0  0  0  # atno 8009 bound_to 7997
  154.9712  140.0376  157.2225 H   0  0  0  0  0  0  0  0  0  0  0  0  # atno 8010 bound_to 7997
  139.9085  144.6286  150.8562 H   0  0  0  0  0  0  0  0  0  0  0  0  # atno 10167 bound_to 10162
  156.8975  130.5710  149.5648 H   0  0  0  0  0  0  0  0  0  0  0  0  # atno 10718 bound_to 10713
  154.8249  135.4563  154.0888 H   0  0  0  0  0  0  0  0  0  0  0  0  # atno 10763 bound_to 10752
  153.2211  135.6894  153.8006 H   0  0  0  0  0  0  0  0  0  0  0  0  # atno 10764 bound_to 10752
  153.7422  135.3310  155.3283 H   0  0  0  0  0  0  0  0  0  0  0  0  # atno 10765 bound_to 10752
  141.1642  133.6934  156.7463 H   0  0  0  0  0  0  0  0  0  0  0  0  # atno 11005 bound_to 11000
  146.0371  139.3388  143.0720 LP  0  0  0  0  0  0  0  0  0  0  0  0  # atno 17320 bound_to 7965
  145.8380  140.9595  143.0814 LP  0  0  0  0  0  0  0  0  0  0  0  0  # atno 17321 bound_to 7965
  140.7691  143.3383  151.2261 LP  0  0  0  0  0  0  0  0  0  0  0  0  # atno 17342 bound_to 10162
  139.6963  143.9607  152.2884 LP  0  0  0  0  0  0  0  0  0  0  0  0  # atno 17343 bound_to 10162
  156.0598  130.5653  150.9169 LP  0  0  0  0  0  0  0  0  0  0  0  0  # atno 17370 bound_to 10713
  157.6046  131.0939  150.8901 LP  0  0  0  0  0  0  0  0  0  0  0  0  # atno 17371 bound_to 10713
  140.2637  134.8447  157.3782 LP  0  0  0  0  0  0  0  0  0  0  0  0  # atno 17394 bound_to 11000
  140.1587  134.4756  155.7910 LP  0  0  0  0  0  0  0  0  0  0  0  0  # atno 17395 bound_to 11000

$$$$
