AV-unprocessed.smi:3284|AV-procd|sdf|12578|dock9
  -GOLD-   2272018503D 1   1.00000     0.00000
 Structure written by MMmdl.
 45 46  0  0  0  0  0  0  0  0  3 V2000
  153.7023  140.7860  159.5615 C   0  0  0  0  0  0  0  0  0  0  0  0
  153.0027  142.0824  159.9356 C   0  0  0  0  0  0  0  0  0  0  0  0
  152.9944  142.4914  161.2187 C   0  0  0  0  0  0  0  0  0  0  0  0
  152.3959  143.7953  161.6930 C   0  0  0  0  0  0  0  0  0  0  0  0
  152.2773  144.7946  160.5399 C   0  0  0  0  0  0  0  0  0  0  0  0
  151.5914  144.1621  159.3181 C   0  0  1  0  0  0  0  0  0  0  0  0
  151.4172  145.2287  158.2196 C   0  0  0  0  0  0  0  0  0  0  0  0
  152.3413  142.8946  158.8028 C   0  0  2  0  0  0  0  0  0  0  0  0
  151.3903  142.0348  157.9289 C   0  0  0  0  0  0  0  0  0  0  0  0
  151.1038  142.6480  156.6154 N   0  3  0  0  0  0  0  0  0  0  0  0
  150.5761  141.7032  155.6117 C   0  0  0  0  0  0  0  0  0  0  0  0
  149.1828  141.1959  156.0083 C   0  0  0  0  0  0  0  0  0  0  0  0
  148.1393  141.4932  154.9753 C   0  0  0  0  0  0  0  0  0  0  0  0
  147.6424  142.7042  154.6947 N   0  3  0  0  0  0  0  0  0  0  0  0
  146.6969  142.6156  153.7091 C   0  0  0  0  0  0  0  0  0  0  0  0
  146.6087  141.2896  153.3753 C   0  0  0  0  0  0  0  0  0  0  0  0
  147.5046  140.6232  154.1716 N   0  0  0  0  0  0  0  0  0  0  0  0
  147.7645  139.1818  154.1736 C   0  0  0  0  0  0  0  0  0  0  0  0
  154.3900  140.9479  158.7311 H   0  0  0  0  0  0  0  0  0  0  0  0
  152.9803  140.0192  159.2822 H   0  0  0  0  0  0  0  0  0  0  0  0
  154.2829  140.3944  160.3976 H   0  0  0  0  0  0  0  0  0  0  0  0
  153.4494  141.8785  161.9834 H   0  0  0  0  0  0  0  0  0  0  0  0
  151.4198  143.5929  162.1350 H   0  0  0  0  0  0  0  0  0  0  0  0
  153.0247  144.2131  162.4796 H   0  0  0  0  0  0  0  0  0  0  0  0
  151.7240  145.6719  160.8776 H   0  0  0  0  0  0  0  0  0  0  0  0
  153.2714  145.1465  160.2595 H   0  0  0  0  0  0  0  0  0  0  0  0
  150.5953  143.8561  159.6424 H   0  0  0  0  0  0  0  0  0  0  0  0
  152.3826  145.5742  157.8481 H   0  0  0  0  0  0  0  0  0  0  0  0
  150.8847  146.0996  158.6034 H   0  0  0  0  0  0  0  0  0  0  0  0
  150.8479  144.8606  157.3674 H   0  0  0  0  0  0  0  0  0  0  0  0
  153.1648  143.2408  158.1760 H   0  0  0  0  0  0  0  0  0  0  0  0
  151.8229  141.0432  157.7869 H   0  0  0  0  0  0  0  0  0  0  0  0
  150.4317  141.8810  158.4221 H   0  0  0  0  0  0  0  0  0  0  0  0
  150.4358  143.3938  156.7492 H   0  0  0  0  0  0  0  0  0  0  0  0
  150.5316  142.2032  154.6434 H   0  0  0  0  0  0  0  0  0  0  0  0
  151.2647  140.8631  155.5098 H   0  0  0  0  0  0  0  0  0  0  0  0
  149.1904  140.1143  156.1498 H   0  0  0  0  0  0  0  0  0  0  0  0
  148.8530  141.6410  156.9476 H   0  0  0  0  0  0  0  0  0  0  0  0
  146.1712  143.4800  153.3291 H   0  0  0  0  0  0  0  0  0  0  0  0
  145.9893  140.7845  152.6477 H   0  0  0  0  0  0  0  0  0  0  0  0
  147.0505  138.6807  153.5192 H   0  0  0  0  0  0  0  0  0  0  0  0
  147.6574  138.7923  155.1862 H   0  0  0  0  0  0  0  0  0  0  0  0
  148.7762  138.9983  153.8107 H   0  0  0  0  0  0  0  0  0  0  0  0
  151.9626  143.0446  156.2603 H   0  0  0  0  0  0  0  0  0  0  0  0
  147.9286  143.5649  155.1446 H   0  0  0  0  0  0  0  0  0  0  0  0
  1  2  1  0  0  0  0
  1 19  1  0  0  0  0
  1 20  1  0  0  0  0
  1 21  1  0  0  0  0
  2  8  1  0  0  0  0
  2  3  2  0  0  0  0
  3  4  1  0  0  0  0
  3 22  1  0  0  0  0
  4  5  1  0  0  0  0
  4 23  1  0  0  0  0
  4 24  1  0  0  0  0
  5  6  1  0  0  0  0
  5 25  1  0  0  0  0
  5 26  1  0  0  0  0
  6  7  1  0  0  0  0
  6  8  1  0  0  0  0
  6 27  1  0  0  0  0
  7 28  1  0  0  0  0
  7 29  1  0  0  0  0
  7 30  1  0  0  0  0
  8  9  1  0  0  0  0
  8 31  1  0  0  0  0
  9 10  1  0  0  0  0
  9 32  1  0  0  0  0
  9 33  1  0  0  0  0
 10 11  1  0  0  0  0
 10 34  1  0  0  0  0
 10 44  1  0  0  0  0
 11 12  1  0  0  0  0
 11 35  1  0  0  0  0
 11 36  1  0  0  0  0
 12 13  1  0  0  0  0
 12 37  1  0  0  0  0
 12 38  1  0  0  0  0
 13 17  1  0  0  0  0
 13 14  2  0  0  0  0
 14 15  1  0  0  0  0
 14 45  1  0  0  0  0
 15 16  2  0  0  0  0
 15 39  1  0  0  0  0
 16 17  1  0  0  0  0
 16 40  1  0  0  0  0
 17 18  1  0  0  0  0
 18 41  1  0  0  0  0
 18 42  1  0  0  0  0
 18 43  1  0  0  0  0
M  CHG  1  10   1
M  CHG  1  14   1
M  END
> <s_m_source_file>
AV-unprocessed.smi

> <i_m_source_file_index>
3284

> <i_lp_mmshare_version>
43012

> <i_f3d_flags>
0

> <s_epik_input>
W0NIM11DMT1bQ0hdW0NIMl1bQ0gyXVtDQEBIXShbQ0gzXSlbQ0BIXTFbQ0gyXVtOSF1bQ0gyXVtDSDJdYzJuW2NIXVtjSF1uMltDSDNd

> <s_epik_cmdline>
J2VwaWtfcHl0aG9uJywgJy1waCcsICc3LjAnLCAnLXRuJywgJzgnLCAnLW1hJywgJzIwMCcsICctbWV0YWxfYmluZGluZycsICctaW1hZScsICc8aW5maWxlLm1hZT4nLCAnLW9tYWUnLCAnPG91dGZpbGUubWFlPic=

> <r_lp_tautomer_probability>
1

> <r_epik_Ionization_Penalty>
0.892846

> <r_epik_Ionization_Penalty_Charging>
0.00275802

> <r_epik_Ionization_Penalty_Neutral>
0.890088

> <r_epik_State_Penalty>
0.485211

> <r_epik_Charging_Adjusted_Penalty>
0.487969

> <i_epik_Tot_Q>
2

> <i_epik_Tot_abs_Q>
2

> <r_epik_Metal_State_Penalty>
4.22898

> <b_epik_Metal_Only>
0

> <s_lp_Force_Field>
OPLS_2005

> <r_lp_Energy>
22.9484

> <b_lp_Chiralities_Consistent>
1

> <s_lp_Variant>
AV-unprocessed.smi:3284-7

> <Gold.Version>
5.8.1

> <Gold.Id.Protein>
6NUR|6NUR_protein|mol2

> <Gold.PLP.Fitness>
53.8292

> <Gold.PLP.PLP>
-43.8458

> <Gold.PLP.part.hbond>
-1.9356

> <Gold.PLP.part.metal>
0.0000

> <Gold.PLP.part.buried>
-4.6565

> <Gold.PLP.part.nonpolar>
-37.0983

> <Gold.PLP.part.repulsive>
0.2053

> <Gold.PLP.ligand.clash>
0.0000

> <Gold.PLP.ligand.torsion>
0.6897

> <Gold.PLP.Chemscore.Hbond>
2.7987

> <Gold.PLP.Chemscore.CHOScore>
0.9647

> <Gold.PLP.Chemscore.Metal>
0.0000

> <Gold.Chemscore.Hbonds>
donor molecule, donor type, donor heavy atom, donor atom, acceptor molecule, acceptor atom, score
      L1  H    10    34       P1  8028  0.57
      L1  H    14    45       P1  8028  2.00
      L1  C    16    40       P1 10175  1.00

> <Gold.PLP.Chemscore.Internal.Correction>
0.0724

> <Gold.Rescore>
     Score         DG    S(hbond)    S(metal)    S(lipo)     H(rot)  DE(clash)    DE(int)     intcor
     19.53     -20.33       1.23        0.00     129.03       1.70       0.13       0.67       ----

> <Gold.Chemscore.Fitness>
19.5325

> <Gold.Chemscore.DG>
-20.3332

> <Gold.Chemscore.ZeroCoef>
-5.4800

> <Gold.Chemscore.Hbond>
1.2300

> <Gold.Chemscore.Metal>
0.0000

> <Gold.Chemscore.Lipo>
129.0262

> <Gold.Chemscore.Internal_Hbond>
0.0000

> <Gold.Chemscore.DEClash>
0.1344

> <Gold.Chemscore.DEInternal>
0.6662

> <Gold.Chemscore.Rot>
1.6997

> <Gold.Chemscore.Internal.Correction>
   9.000000E+99

> <Gold.Chemscore.Hbonds>
donor molecule, donor type, donor heavy atom, donor atom, acceptor molecule, acceptor atom, score
      L1  H    10    34       P1  8028  0.27
      L1  H    14    45       P1  8028  0.47

> <Gold.Chemscore.Hbond.Weighted>
-4.1083

> <Gold.Chemscore.Metal.Weighted>
-0.0000

> <Gold.Chemscore.Lipo.Weighted>
-15.0961

> <Gold.Chemscore.Internal_Hbond.Weighted>
0.0000

> <Gold.Chemscore.DEClash.Weighted>
0.1344

> <Gold.Chemscore.DEInternal.Weighted>
0.6662

> <Gold.Chemscore.Rot.Weighted>
4.3512

> <Gold.Chemscore.Internal.Correction.Weighted>
   9.000000E+99

> <Gold.Protein.RotatedTorsions>
[ 6907 6896 6895 6894 ] final   54.25 input  -60.11 | X-H torsion
[ 7974 7965 7964 7962 ] final  -53.36 input  175.53 | X-H torsion
[ 8008 7997 7996 7995 ] final -154.50 input   59.86 | X-H torsion
[ 10167 10162 10161 10158 ] final -121.09 input  -65.29 | X-H torsion
[ 10718 10713 10712 10709 ] final  -61.26 input   66.30 | X-H torsion
[ 10763 10752 10751 10750 ] final  134.47 input  -60.55 | X-H torsion
[ 11005 11000 10999 10996 ] final -131.27 input  -57.11 | X-H torsion

> <Gold.Protein.ActiveResidues>
 VAL166  LYS551  ARG553  GLY616  TRP617  ASP618  TYR619  PRO620  LYS621  CYS622 
 ASP623  PHE694  ASN695  SER759  ASP760  ASP761  ALA762  ILE779  LEU786  VAL792 
 PHE793  MET794  SER795  GLU796  ALA797  LYS798  CYS799  TRP800  GLU811  SER814 

> <Gold.Protein.RotatedAtoms>
  152.3420  134.7122  160.0260 H   0  0  0  0  0  0  0  0  0  0  0  0  # atno 6907 bound_to 6896
  151.7504  133.3321  159.3398 H   0  0  0  0  0  0  0  0  0  0  0  0  # atno 6908 bound_to 6896
  150.7485  134.6130  159.6140 H   0  0  0  0  0  0  0  0  0  0  0  0  # atno 6909 bound_to 6896
  145.8977  140.8020  142.9759 H   0  0  0  0  0  0  0  0  0  0  0  0  # atno 7974 bound_to 7965
  155.6873  140.0751  157.2462 H   0  0  0  0  0  0  0  0  0  0  0  0  # atno 8008 bound_to 7997
  154.4095  140.1671  156.2100 H   0  0  0  0  0  0  0  0  0  0  0  0  # atno 8009 bound_to 7997
  155.9482  140.3379  155.6388 H   0  0  0  0  0  0  0  0  0  0  0  0  # atno 8010 bound_to 7997
  140.0287  143.5270  152.2186 H   0  0  0  0  0  0  0  0  0  0  0  0  # atno 10167 bound_to 10162
  156.0934  130.4196  150.0968 H   0  0  0  0  0  0  0  0  0  0  0  0  # atno 10718 bound_to 10713
  153.8241  135.3112  155.3413 H   0  0  0  0  0  0  0  0  0  0  0  0  # atno 10763 bound_to 10752
  154.8000  135.4732  154.0256 H   0  0  0  0  0  0  0  0  0  0  0  0  # atno 10764 bound_to 10752
  153.1675  135.6872  153.8745 H   0  0  0  0  0  0  0  0  0  0  0  0  # atno 10765 bound_to 10752
  140.9273  134.1365  157.4264 H   0  0  0  0  0  0  0  0  0  0  0  0  # atno 11005 bound_to 11000
  144.6734  140.1628  143.7421 LP  0  0  0  0  0  0  0  0  0  0  0  0  # atno 17320 bound_to 7965
  145.8830  139.2333  143.1594 LP  0  0  0  0  0  0  0  0  0  0  0  0  # atno 17321 bound_to 7965
  139.6090  144.7604  151.2995 LP  0  0  0  0  0  0  0  0  0  0  0  0  # atno 17342 bound_to 10162
  140.7311  143.6860  150.7961 LP  0  0  0  0  0  0  0  0  0  0  0  0  # atno 17343 bound_to 10162
  156.8973  130.9608  151.3581 LP  0  0  0  0  0  0  0  0  0  0  0  0  # atno 17370 bound_to 10713
  157.6089  130.8568  149.8920 LP  0  0  0  0  0  0  0  0  0  0  0  0  # atno 17371 bound_to 10713
  139.8788  134.9993  156.5946 LP  0  0  0  0  0  0  0  0  0  0  0  0  # atno 17394 bound_to 11000
  140.7908  133.8583  155.8645 LP  0  0  0  0  0  0  0  0  0  0  0  0  # atno 17395 bound_to 11000

$$$$
