AV-unprocessed.smi:101|AV-procd|sdf|926|dock7
  -GOLD-   2262017433D 1   1.00000     0.00000
 Structure written by MMmdl.
 44 46  0  0  0  0  0  0  0  0  1 V2000
  149.5019  134.5444  154.8104 C   0  0  0  0  0  0  0  0  0  0  0  0
  149.2325  135.5698  155.8992 C   0  0  0  0  0  0  0  0  0  0  0  0
  148.9146  136.8601  155.6210 C   0  0  0  0  0  0  0  0  0  0  0  0
  148.6640  137.8182  156.5944 N   0  0  0  0  0  0  0  0  0  0  0  0
  148.2974  139.2381  156.2279 C   0  0  1  0  0  0  0  0  0  0  0  0
  149.2870  140.0982  156.7116 O   0  0  0  0  0  0  0  0  0  0  0  0
  149.7073  140.9867  155.6817 C   0  0  1  0  0  0  0  0  0  0  0  0
  151.1584  141.4148  155.9269 C   0  0  0  0  0  0  0  0  0  0  0  0
  151.2890  141.8724  157.2625 O   0  0  0  0  0  0  0  0  0  0  0  0
  152.1150  141.2366  158.1155 C   0  0  0  0  0  0  0  0  0  0  0  0
  152.6602  140.1602  157.8626 O   0  0  0  0  0  0  0  0  0  0  0  0
  152.3016  141.9723  159.3996 C   0  0  0  0  0  0  0  0  0  0  0  0
  151.7722  143.2769  159.5340 C   0  0  0  0  0  0  0  0  0  0  0  0
  151.9326  143.9962  160.7343 C   0  0  0  0  0  0  0  0  0  0  0  0
  152.6249  143.4195  161.8149 C   0  0  0  0  0  0  0  0  0  0  0  0
  153.1566  142.1225  161.6936 C   0  0  0  0  0  0  0  0  0  0  0  0
  152.9969  141.4016  160.4941 C   0  0  0  0  0  0  0  0  0  0  0  0
  149.5207  140.1580  154.4124 C   0  0  2  0  0  0  0  0  0  0  0  0
  149.4572  140.9457  153.2383 O   0  0  0  0  0  0  0  0  0  0  0  0
  148.2340  139.3925  154.6989 C   0  0  2  0  0  0  0  0  0  0  0  0
  147.0730  140.1032  154.3079 O   0  0  0  0  0  0  0  0  0  0  0  0
  148.7025  137.4487  157.9544 C   0  0  0  0  0  0  0  0  0  0  0  0
  148.4505  138.2334  158.8681 O   0  0  0  0  0  0  0  0  0  0  0  0
  149.0343  136.1258  158.2408 N   0  0  0  0  0  0  0  0  0  0  0  0
  149.3148  135.1351  157.2966 C   0  0  0  0  0  0  0  0  0  0  0  0
  149.5984  133.9995  157.6741 O   0  0  0  0  0  0  0  0  0  0  0  0
  149.0696  135.8586  159.2138 H   0  0  0  0  0  0  0  0  0  0  0  0
  149.4126  134.9785  153.8141 H   0  0  0  0  0  0  0  0  0  0  0  0
  148.7927  133.7189  154.8804 H   0  0  0  0  0  0  0  0  0  0  0  0
  150.5098  134.1397  154.9095 H   0  0  0  0  0  0  0  0  0  0  0  0
  148.8488  137.1485  154.5821 H   0  0  0  0  0  0  0  0  0  0  0  0
  147.3607  139.4653  156.7412 H   0  0  0  0  0  0  0  0  0  0  0  0
  149.0405  141.8507  155.6637 H   0  0  0  0  0  0  0  0  0  0  0  0
  151.8405  140.5856  155.7332 H   0  0  0  0  0  0  0  0  0  0  0  0
  151.4249  142.2267  155.2489 H   0  0  0  0  0  0  0  0  0  0  0  0
  151.2370  143.7407  158.7178 H   0  0  0  0  0  0  0  0  0  0  0  0
  151.5234  144.9916  160.8253 H   0  0  0  0  0  0  0  0  0  0  0  0
  152.7484  143.9711  162.7352 H   0  0  0  0  0  0  0  0  0  0  0  0
  153.6893  141.6787  162.5217 H   0  0  0  0  0  0  0  0  0  0  0  0
  153.4185  140.4088  160.4346 H   0  0  0  0  0  0  0  0  0  0  0  0
  150.3429  139.4472  154.3167 H   0  0  0  0  0  0  0  0  0  0  0  0
  149.3319  140.3716  152.4982 H   0  0  0  0  0  0  0  0  0  0  0  0
  148.2238  138.4206  154.2033 H   0  0  0  0  0  0  0  0  0  0  0  0
  147.2077  140.4404  153.4351 H   0  0  0  0  0  0  0  0  0  0  0  0
  1  2  1  0  0  0  0
  1 28  1  0  0  0  0
  1 29  1  0  0  0  0
  1 30  1  0  0  0  0
  2 25  1  0  0  0  0
  2  3  2  0  0  0  0
  3  4  1  0  0  0  0
  3 31  1  0  0  0  0
  4  5  1  0  0  0  0
  4 22  1  0  0  0  0
  5 20  1  0  0  0  0
  5  6  1  0  0  0  0
  5 32  1  0  0  0  0
  6  7  1  0  0  0  0
  7  8  1  0  0  0  0
  7 18  1  0  0  0  0
  7 33  1  0  0  0  0
  8  9  1  0  0  0  0
  8 34  1  0  0  0  0
  8 35  1  0  0  0  0
  9 10  1  0  0  0  0
 10 11  2  0  0  0  0
 10 12  1  0  0  0  0
 12 17  1  0  0  0  0
 12 13  2  0  0  0  0
 13 14  1  0  0  0  0
 13 36  1  0  0  0  0
 14 15  2  0  0  0  0
 14 37  1  0  0  0  0
 15 16  1  0  0  0  0
 15 38  1  0  0  0  0
 16 17  2  0  0  0  0
 16 39  1  0  0  0  0
 17 40  1  0  0  0  0
 18 19  1  0  0  0  0
 18 20  1  0  0  0  0
 18 41  1  0  0  0  0
 19 42  1  0  0  0  0
 20 21  1  0  0  0  0
 20 43  1  0  0  0  0
 21 44  1  0  0  0  0
 22 23  2  0  0  0  0
 22 24  1  0  0  0  0
 24 27  1  0  0  0  0
 24 25  1  0  0  0  0
 25 26  2  0  0  0  0
M  END
> <s_m_source_file>
AV-unprocessed.smi

> <i_m_source_file_index>
101

> <i_lp_mmshare_version>
43012

> <i_f3d_flags>
0

> <s_epik_input>
Tz1jMVtuSF1jKD1PKW4oW2NIXWMxW0NIM10pW0NAQEhdMk9bQ0BIXShbQ0BASF0oW09IXSlbQ0BIXTJbT0hdKVtDSDJdT0MoPU8pYzNbY0hdW2NIXVtjSF1bY0hdW2NIXTM=

> <s_epik_cmdline>
J2VwaWtfcHl0aG9uJywgJy1waCcsICc3LjAnLCAnLXRuJywgJzgnLCAnLW1hJywgJzIwMCcsICctbWV0YWxfYmluZGluZycsICctaW1hZScsICc8aW5maWxlLm1hZT4nLCAnLW9tYWUnLCAnPG91dGZpbGUubWFlPic=

> <r_lp_tautomer_probability>
0.999537

> <r_epik_Ionization_Penalty>
0.00263537

> <r_epik_Ionization_Penalty_Charging>
0.00263428

> <r_epik_Ionization_Penalty_Neutral>
1.09111e-06

> <r_epik_State_Penalty>
0.00183335

> <r_epik_Charging_Adjusted_Penalty>
0.00446763

> <i_epik_Tot_Q>
0

> <i_epik_Tot_abs_Q>
0

> <r_epik_Metal_State_Penalty>
1.00528

> <b_epik_Metal_Only>
0

> <s_epik_Chemistry_Notes>
This compound has an ester and may undergo hydrolysis at high or low pH. This compound contains an acetal/aminal-like group ( X-CH(R)-Y where X, Y are N, S, or O) that may be acid/base labile, releasing an aldehyde.

> <s_lp_Force_Field>
OPLS_2005

> <r_lp_Energy>
34.5485

> <b_lp_Chiralities_Consistent>
1

> <s_lp_Variant>
AV-unprocessed.smi:101-14

> <Gold.Version>
5.8.1

> <Gold.Id.Protein>
6NUR|6NUR_protein|mol2

> <Gold.PLP.Fitness>
52.3557

> <Gold.PLP.PLP>
-41.7585

> <Gold.PLP.part.hbond>
-5.1970

> <Gold.PLP.part.metal>
0.0000

> <Gold.PLP.part.buried>
-6.1290

> <Gold.PLP.part.nonpolar>
-29.4658

> <Gold.PLP.part.repulsive>
0.1414

> <Gold.PLP.ligand.clash>
0.0000

> <Gold.PLP.ligand.torsion>
0.5827

> <Gold.PLP.Chemscore.Hbond>
3.6382

> <Gold.PLP.Chemscore.CHOScore>
0.2676

> <Gold.PLP.Chemscore.Metal>
0.0000

> <Gold.Chemscore.Hbonds>
donor molecule, donor type, donor heavy atom, donor atom, acceptor molecule, acceptor atom, score
      L1  H    19    42       P1  7957  0.67
      P1  H  6896  6907       L1    26  1.00
      P1  H  7989  7998       L1    19  0.01
      P1  H  7997  8010       L1    11  0.89
      P1  H  8011  8017       L1    19  0.85
      L1  C     3    31       P1  7948  0.18

> <Gold.PLP.Chemscore.Internal.Correction>
0.0451

> <Gold.Rescore>
     Score         DG    S(hbond)    S(metal)    S(lipo)     H(rot)  DE(clash)    DE(int)     intcor
     17.37     -18.30       2.83        0.00     101.42       3.32       0.03       0.89       ----

> <Gold.Chemscore.Fitness>
17.3726

> <Gold.Chemscore.DG>
-18.3005

> <Gold.Chemscore.ZeroCoef>
-5.4800

> <Gold.Chemscore.Hbond>
2.8281

> <Gold.Chemscore.Metal>
0.0000

> <Gold.Chemscore.Lipo>
101.4231

> <Gold.Chemscore.Internal_Hbond>
0.0000

> <Gold.Chemscore.DEClash>
0.0329

> <Gold.Chemscore.DEInternal>
0.8950

> <Gold.Chemscore.Rot>
3.3172

> <Gold.Chemscore.Internal.Correction>
   9.000000E+99

> <Gold.Chemscore.Hbonds>
donor molecule, donor type, donor heavy atom, donor atom, acceptor molecule, acceptor atom, score
      L1  H    19    42       P1  7957  0.64
      P1  H  6896  6907       L1    26  0.86
      P1  H  7997  8010       L1    11  0.82
      P1  H  8011  8017       L1    19  0.15

> <Gold.Chemscore.Hbond.Weighted>
-9.4460

> <Gold.Chemscore.Metal.Weighted>
-0.0000

> <Gold.Chemscore.Lipo.Weighted>
-11.8665

> <Gold.Chemscore.Internal_Hbond.Weighted>
0.0000

> <Gold.Chemscore.DEClash.Weighted>
0.0329

> <Gold.Chemscore.DEInternal.Weighted>
0.8950

> <Gold.Chemscore.Rot.Weighted>
8.4920

> <Gold.Chemscore.Internal.Correction.Weighted>
   9.000000E+99

> <Gold.Protein.RotatedTorsions>
[ 6907 6896 6895 6894 ] final -109.71 input  -60.11 | X-H torsion
[ 7974 7965 7964 7962 ] final  133.95 input  175.53 | X-H torsion
[ 8008 7997 7996 7995 ] final   51.02 input   59.86 | X-H torsion
[ 10167 10162 10161 10158 ] final  150.86 input  -65.29 | X-H torsion
[ 10718 10713 10712 10709 ] final  -26.24 input   66.30 | X-H torsion
[ 10763 10752 10751 10750 ] final -162.07 input  -60.55 | X-H torsion
[ 11005 11000 10999 10996 ] final -120.07 input  -57.11 | X-H torsion

> <Gold.Protein.ActiveResidues>
 VAL166  LYS551  ARG553  GLY616  TRP617  ASP618  TYR619  PRO620  LYS621  CYS622 
 ASP623  PHE694  ASN695  SER759  ASP760  ASP761  ALA762  ILE779  LEU786  VAL792 
 PHE793  MET794  SER795  GLU796  ALA797  LYS798  CYS799  TRP800  GLU811  SER814 

> <Gold.Protein.RotatedAtoms>
  150.7579  133.9488  159.3479 H   0  0  0  0  0  0  0  0  0  0  0  0  # atno 6907 bound_to 6896
  151.7404  135.0853  160.0324 H   0  0  0  0  0  0  0  0  0  0  0  0  # atno 6908 bound_to 6896
  152.3532  133.6168  159.5996 H   0  0  0  0  0  0  0  0  0  0  0  0  # atno 6909 bound_to 6896
  144.9813  139.4502  143.5385 H   0  0  0  0  0  0  0  0  0  0  0  0  # atno 7974 bound_to 7965
  155.4285  140.3449  155.4278 H   0  0  0  0  0  0  0  0  0  0  0  0  # atno 8008 bound_to 7997
  156.1351  140.1525  156.9038 H   0  0  0  0  0  0  0  0  0  0  0  0  # atno 8009 bound_to 7997
  154.4925  140.0837  156.7606 H   0  0  0  0  0  0  0  0  0  0  0  0  # atno 8010 bound_to 7997
  139.4846  144.5487  151.7438 H   0  0  0  0  0  0  0  0  0  0  0  0  # atno 10167 bound_to 10162
  156.4539  130.4489  149.6972 H   0  0  0  0  0  0  0  0  0  0  0  0  # atno 10718 bound_to 10713
  154.7247  135.3033  154.8990 H   0  0  0  0  0  0  0  0  0  0  0  0  # atno 10763 bound_to 10752
  153.9851  135.6725  153.4755 H   0  0  0  0  0  0  0  0  0  0  0  0  # atno 10764 bound_to 10752
  153.0865  135.4981  154.8525 H   0  0  0  0  0  0  0  0  0  0  0  0  # atno 10765 bound_to 10752
  141.0170  134.0181  157.3336 H   0  0  0  0  0  0  0  0  0  0  0  0  # atno 11005 bound_to 11000
  146.3409  139.9087  142.8783 LP  0  0  0  0  0  0  0  0  0  0  0  0  # atno 17320 bound_to 7965
  145.2417  141.0012  143.3932 LP  0  0  0  0  0  0  0  0  0  0  0  0  # atno 17321 bound_to 7965
  140.5038  144.1129  150.5977 LP  0  0  0  0  0  0  0  0  0  0  0  0  # atno 17342 bound_to 10162
  140.4031  143.2694  151.9924 LP  0  0  0  0  0  0  0  0  0  0  0  0  # atno 17343 bound_to 10162
  156.3787  130.7568  151.2559 LP  0  0  0  0  0  0  0  0  0  0  0  0  # atno 17370 bound_to 10713
  157.7501  131.0302  150.4125 LP  0  0  0  0  0  0  0  0  0  0  0  0  # atno 17371 bound_to 10713
  139.9123  135.0192  156.7741 LP  0  0  0  0  0  0  0  0  0  0  0  0  # atno 17394 bound_to 11000
  140.6638  133.9621  155.7819 LP  0  0  0  0  0  0  0  0  0  0  0  0  # atno 17395 bound_to 11000

$$$$
