AV-unprocessed.smi:1399|AV-procd|sdf|5683|dock4
  -GOLD-   22720 5303D 1   1.00000     0.00000
 Structure written by MMmdl.
 38 39  0  0  0  0  0  0  0  0  2 V2000
  150.1124  137.9289  153.8060 N   0  0  0  0  0  0  0  0  0  0  0  0
  149.7211  139.1652  154.1227 C   0  0  0  0  0  0  0  0  0  0  0  0
  150.4618  139.9594  154.6996 O   0  0  0  0  0  0  0  0  0  0  0  0
  148.2866  139.5534  153.7505 C   0  0  0  0  0  0  0  0  0  0  0  0
  147.5352  138.4494  153.0989 N   0  3  2  0  0  0  0  0  0  0  0  0
  146.8016  138.9013  151.8892 C   0  0  0  0  0  0  0  0  0  0  0  0
  146.1627  137.7118  151.1496 C   0  0  0  0  0  0  0  0  0  0  0  0
  145.2476  136.8828  152.0675 C   0  0  2  0  0  0  0  0  0  0  0  0
  144.0261  137.6241  152.3844 N   0  0  0  0  0  0  0  0  0  0  0  0
  142.9123  137.1128  152.9292 C   0  0  0  0  0  0  0  0  0  0  0  0
  142.7824  135.9291  153.2390 O   0  0  0  0  0  0  0  0  0  0  0  0
  141.9731  138.0592  153.0878 N   0  0  0  0  0  0  0  0  0  0  0  0
  140.6685  137.8934  153.6163 C   0  0  0  0  0  0  0  0  0  0  0  0
  140.1659  136.8743  154.4779 C   0  0  0  0  0  0  0  0  0  0  0  0
  138.8829  137.0668  154.7498 N   0  0  0  0  0  0  0  0  0  0  0  0
  138.5626  138.1924  154.0728 N   0  0  0  0  0  0  0  0  0  0  0  0
  139.6190  138.7275  153.3696 C   0  0  0  0  0  0  0  0  0  0  0  0
  146.0001  136.4964  153.3528 C   0  0  0  0  0  0  0  0  0  0  0  0
  146.6420  137.7170  154.0365 C   0  0  0  0  0  0  0  0  0  0  0  0
  137.6294  138.5780  154.1004 H   0  0  0  0  0  0  0  0  0  0  0  0
  151.0481  137.6263  154.0374 H   0  0  0  0  0  0  0  0  0  0  0  0
  149.4767  137.2953  153.3429 H   0  0  0  0  0  0  0  0  0  0  0  0
  147.7442  139.9082  154.6286 H   0  0  0  0  0  0  0  0  0  0  0  0
  148.3626  140.3994  153.0661 H   0  0  0  0  0  0  0  0  0  0  0  0
  146.0388  139.6277  152.1744 H   0  0  0  0  0  0  0  0  0  0  0  0
  147.4865  139.4131  151.2124 H   0  0  0  0  0  0  0  0  0  0  0  0
  145.6068  138.0644  150.2797 H   0  0  0  0  0  0  0  0  0  0  0  0
  146.9544  137.0694  150.7614 H   0  0  0  0  0  0  0  0  0  0  0  0
  144.9909  135.9627  151.5402 H   0  0  0  0  0  0  0  0  0  0  0  0
  144.0268  138.6096  152.1676 H   0  0  0  0  0  0  0  0  0  0  0  0
  142.2140  138.9956  152.7981 H   0  0  0  0  0  0  0  0  0  0  0  0
  140.6665  136.0194  154.9075 H   0  0  0  0  0  0  0  0  0  0  0  0
  139.5318  139.6253  152.7755 H   0  0  0  0  0  0  0  0  0  0  0  0
  145.3288  135.9873  154.0457 H   0  0  0  0  0  0  0  0  0  0  0  0
  146.7823  135.7771  153.1064 H   0  0  0  0  0  0  0  0  0  0  0  0
  147.2051  137.3790  154.9066 H   0  0  0  0  0  0  0  0  0  0  0  0
  145.8699  138.3923  154.4083 H   0  0  0  0  0  0  0  0  0  0  0  0
  148.2312  137.7903  152.7791 H   0  0  0  0  0  0  0  0  0  0  0  0
  1  2  1  0  0  0  0
  1 21  1  0  0  0  0
  1 22  1  0  0  0  0
  2  3  2  0  0  0  0
  2  4  1  0  0  0  0
  4  5  1  0  0  0  0
  4 23  1  0  0  0  0
  4 24  1  0  0  0  0
  5 19  1  0  0  0  0
  5  6  1  0  0  0  0
  5 38  1  0  0  0  0
  6  7  1  0  0  0  0
  6 25  1  0  0  0  0
  6 26  1  0  0  0  0
  7  8  1  0  0  0  0
  7 27  1  0  0  0  0
  7 28  1  0  0  0  0
  8  9  1  0  0  0  0
  8 18  1  0  0  0  0
  8 29  1  0  0  0  0
  9 10  1  0  0  0  0
  9 30  1  0  0  0  0
 10 11  2  0  0  0  0
 10 12  1  0  0  0  0
 12 13  1  0  0  0  0
 12 31  1  0  0  0  0
 13 17  2  0  0  0  0
 13 14  1  0  0  0  0
 14 15  2  0  0  0  0
 14 32  1  0  0  0  0
 15 16  1  0  0  0  0
 16 20  1  0  0  0  0
 16 17  1  0  0  0  0
 17 33  1  0  0  0  0
 18 19  1  0  0  0  0
 18 34  1  0  0  0  0
 18 35  1  0  0  0  0
 19 36  1  0  0  0  0
 19 37  1  0  0  0  0
M  CHG  1   5   1
M  END
> <s_m_source_file>
AV-unprocessed.smi

> <i_m_source_file_index>
1399

> <i_lp_mmshare_version>
43012

> <i_f3d_flags>
0

> <s_epik_input>
W05IMl1DKD1PKVtDSDJdTjFbQ0gyXVtDSDJdW0NIXShbQ0gyXVtDSDJdMSlbTkhdQyg9TylbTkhdYzJbY0hdbltuSF1bY0hdMg==

> <s_epik_cmdline>
J2VwaWtfcHl0aG9uJywgJy1waCcsICc3LjAnLCAnLXRuJywgJzgnLCAnLW1hJywgJzIwMCcsICctbWV0YWxfYmluZGluZycsICctaW1hZScsICc8aW5maWxlLm1hZT4nLCAnLW9tYWUnLCAnPG91dGZpbGUubWFlPic=

> <r_lp_tautomer_probability>
0.5

> <r_epik_Ionization_Penalty>
0.838927

> <r_epik_Ionization_Penalty_Charging>
0.838844

> <r_epik_Ionization_Penalty_Neutral>
8.28742e-05

> <r_epik_State_Penalty>
0.8734

> <r_epik_Charging_Adjusted_Penalty>
1.71224

> <i_epik_Tot_Q>
1

> <i_epik_Tot_abs_Q>
1

> <r_epik_Metal_State_Penalty>
0.890702

> <b_epik_Metal_Only>
0

> <s_lp_Force_Field>
OPLS_2005

> <r_lp_Energy>
14.6422

> <b_lp_Chiralities_Consistent>
1

> <s_lp_Variant>
AV-unprocessed.smi:1399-3

> <Gold.Version>
5.8.1

> <Gold.Id.Protein>
6NUR|6NUR_protein|mol2

> <Gold.PLP.Fitness>
50.9652

> <Gold.PLP.PLP>
-28.7435

> <Gold.PLP.part.hbond>
-6.8091

> <Gold.PLP.part.metal>
0.0000

> <Gold.PLP.part.buried>
2.0533

> <Gold.PLP.part.nonpolar>
-25.4472

> <Gold.PLP.part.repulsive>
0.4251

> <Gold.PLP.ligand.clash>
0.0000

> <Gold.PLP.ligand.torsion>
0.8589

> <Gold.PLP.Chemscore.Hbond>
6.0000

> <Gold.PLP.Chemscore.CHOScore>
1.9703

> <Gold.PLP.Chemscore.Metal>
0.0000

> <Gold.Chemscore.Hbonds>
donor molecule, donor type, donor heavy atom, donor atom, acceptor molecule, acceptor atom, score
      L1  H     1    22       P1  7948  1.00
      L1  H     5    38       P1  7948  2.00
      L1  H     9    30       P1 10175  1.00
      L1  H    12    31       P1 10175  1.00
      P1  H  7989  7998       L1     3  1.00
      L1  C    14    32       P1 11000  0.87
      L1  C    17    33       P1 10160  1.00

> <Gold.PLP.Chemscore.Internal.Correction>
0.0286

> <Gold.Rescore>
     Score         DG    S(hbond)    S(metal)    S(lipo)     H(rot)  DE(clash)    DE(int)     intcor
     19.14     -21.84       4.62        0.00      53.67       2.09       1.82       0.88       ----

> <Gold.Chemscore.Fitness>
19.1404

> <Gold.Chemscore.DG>
-21.8385

> <Gold.Chemscore.ZeroCoef>
-5.4800

> <Gold.Chemscore.Hbond>
4.6170

> <Gold.Chemscore.Metal>
0.0000

> <Gold.Chemscore.Lipo>
53.6687

> <Gold.Chemscore.Internal_Hbond>
0.0000

> <Gold.Chemscore.DEClash>
1.8168

> <Gold.Chemscore.DEInternal>
0.8813

> <Gold.Chemscore.Rot>
2.0865

> <Gold.Chemscore.Internal.Correction>
   9.000000E+99

> <Gold.Chemscore.Hbonds>
donor molecule, donor type, donor heavy atom, donor atom, acceptor molecule, acceptor atom, score
      L1  H     1    22       P1  7948  0.86
      L1  H     5    38       P1  7948  0.99
      L1  H     9    30       P1 10175  0.98
      L1  H    12    31       P1 10175  0.87
      P1  H  7989  7998       L1     3  0.82

> <Gold.Chemscore.Hbond.Weighted>
-15.4208

> <Gold.Chemscore.Metal.Weighted>
-0.0000

> <Gold.Chemscore.Lipo.Weighted>
-6.2792

> <Gold.Chemscore.Internal_Hbond.Weighted>
0.0000

> <Gold.Chemscore.DEClash.Weighted>
1.8168

> <Gold.Chemscore.DEInternal.Weighted>
0.8813

> <Gold.Chemscore.Rot.Weighted>
5.3415

> <Gold.Chemscore.Internal.Correction.Weighted>
   9.000000E+99

> <Gold.Protein.RotatedTorsions>
[ 6907 6896 6895 6894 ] final -141.12 input  -60.11 | X-H torsion
[ 7974 7965 7964 7962 ] final -129.77 input  175.53 | X-H torsion
[ 8008 7997 7996 7995 ] final  -99.09 input   59.86 | X-H torsion
[ 10167 10162 10161 10158 ] final   86.18 input  -65.29 | X-H torsion
[ 10718 10713 10712 10709 ] final  145.79 input   66.30 | X-H torsion
[ 10763 10752 10751 10750 ] final    4.90 input  -60.55 | X-H torsion
[ 11005 11000 10999 10996 ] final  -99.74 input  -57.11 | X-H torsion

> <Gold.Protein.ActiveResidues>
 VAL166  LYS551  ARG553  GLY616  TRP617  ASP618  TYR619  PRO620  LYS621  CYS622 
 ASP623  PHE694  ASN695  SER759  ASP760  ASP761  ALA762  ILE779  LEU786  VAL792 
 PHE793  MET794  SER795  GLU796  ALA797  LYS798  CYS799  TRP800  GLU811  SER814 

> <Gold.Protein.RotatedAtoms>
  151.0696  133.5477  159.2627 H   0  0  0  0  0  0  0  0  0  0  0  0  # atno 6907 bound_to 6896
  151.2422  135.0592  159.9039 H   0  0  0  0  0  0  0  0  0  0  0  0  # atno 6908 bound_to 6896
  152.5409  134.0469  159.8146 H   0  0  0  0  0  0  0  0  0  0  0  0  # atno 6909 bound_to 6896
  144.9540  140.7375  143.4770 H   0  0  0  0  0  0  0  0  0  0  0  0  # atno 7974 bound_to 7965
  154.8101  140.0450  157.1336 H   0  0  0  0  0  0  0  0  0  0  0  0  # atno 8008 bound_to 7997
  154.9378  140.3048  155.5115 H   0  0  0  0  0  0  0  0  0  0  0  0  # atno 8009 bound_to 7997
  156.2971  140.2311  156.4445 H   0  0  0  0  0  0  0  0  0  0  0  0  # atno 8010 bound_to 7997
  139.8901  144.6390  150.8748 H   0  0  0  0  0  0  0  0  0  0  0  0  # atno 10167 bound_to 10162
  157.3410  131.0936  151.1082 H   0  0  0  0  0  0  0  0  0  0  0  0  # atno 10718 bound_to 10713
  153.2657  135.6927  153.7532 H   0  0  0  0  0  0  0  0  0  0  0  0  # atno 10763 bound_to 10752
  153.6574  135.3366  155.3118 H   0  0  0  0  0  0  0  0  0  0  0  0  # atno 10764 bound_to 10752
  154.8446  135.4469  154.1662 H   0  0  0  0  0  0  0  0  0  0  0  0  # atno 10765 bound_to 10752
  141.1297  133.8345  157.1011 H   0  0  0  0  0  0  0  0  0  0  0  0  # atno 11005 bound_to 11000
  145.2801  139.1921  143.4795 LP  0  0  0  0  0  0  0  0  0  0  0  0  # atno 17320 bound_to 7965
  146.3331  140.2761  142.8608 LP  0  0  0  0  0  0  0  0  0  0  0  0  # atno 17321 bound_to 7965
  140.7728  143.3516  151.2002 LP  0  0  0  0  0  0  0  0  0  0  0  0  # atno 17342 bound_to 10162
  139.7117  143.9366  152.2950 LP  0  0  0  0  0  0  0  0  0  0  0  0  # atno 17343 bound_to 10162
  157.2294  130.6518  149.5843 LP  0  0  0  0  0  0  0  0  0  0  0  0  # atno 17370 bound_to 10713
  155.9708  130.4603  150.6070 LP  0  0  0  0  0  0  0  0  0  0  0  0  # atno 17371 bound_to 10713
  140.0333  134.9891  157.0822 LP  0  0  0  0  0  0  0  0  0  0  0  0  # atno 17394 bound_to 11000
  140.4251  134.1839  155.7166 LP  0  0  0  0  0  0  0  0  0  0  0  0  # atno 17395 bound_to 11000

$$$$
