AV-unprocessed.smi:3011|AV-procd|sdf|11459|dock5
  -GOLD-   2272016393D 1   1.00000     0.00000
 Structure written by MMmdl.
 47 49  0  0  0  0  0  0  0  0  2 V2000
  147.4132  136.6531  162.3318 C   0  0  0  0  0  0  0  0  0  0  0  0
  148.0540  137.1695  161.1747 O   0  0  0  0  0  0  0  0  0  0  0  0
  148.2423  136.3246  160.0996 C   0  0  0  0  0  0  0  0  0  0  0  0
  147.7060  135.0140  160.0253 C   0  0  0  0  0  0  0  0  0  0  0  0
  147.9393  134.2107  158.8944 C   0  0  0  0  0  0  0  0  0  0  0  0
  148.7083  134.7049  157.8272 C   0  0  0  0  0  0  0  0  0  0  0  0
  149.2454  136.0033  157.8901 C   0  0  0  0  0  0  0  0  0  0  0  0
  149.0163  136.8204  159.0253 C   0  0  0  0  0  0  0  0  0  0  0  0
  149.5112  138.0990  159.1598 O   0  0  0  0  0  0  0  0  0  0  0  0
  149.7269  138.8808  157.9936 C   0  0  0  0  0  0  0  0  0  0  0  0
  151.0560  139.6329  158.1514 C   0  0  0  0  0  0  0  0  0  0  0  0
  150.9243  141.0622  157.8308 N   0  0  0  0  0  0  0  0  0  0  0  0
  150.2721  141.6827  156.8037 C   0  0  0  0  0  0  0  0  0  0  0  0
  149.4651  141.0192  155.7219 C   0  0  2  0  0  0  0  0  0  0  0  0
  150.2797  139.9717  154.9400 C   0  0  0  0  0  0  0  0  0  0  0  0
  148.8311  141.9839  154.8260 N   0  0  0  0  0  0  0  0  0  0  0  0
  147.9904  141.6837  153.8264 C   0  0  0  0  0  0  0  0  0  0  0  0
  147.6562  140.5345  153.5513 O   0  0  0  0  0  0  0  0  0  0  0  0
  150.4525  143.0250  156.9713 N   0  3  0  0  0  0  0  0  0  0  0  0
  151.2424  143.2622  158.0960 C   0  0  0  0  0  0  0  0  0  0  0  0
  151.6959  144.4523  158.6564 C   0  0  0  0  0  0  0  0  0  0  0  0
  152.4931  144.3424  159.8146 C   0  0  0  0  0  0  0  0  0  0  0  0
  152.8117  143.0861  160.3703 C   0  0  0  0  0  0  0  0  0  0  0  0
  152.3444  141.8866  159.7936 C   0  0  0  0  0  0  0  0  0  0  0  0
  151.5542  142.0046  158.6506 C   0  0  0  0  0  0  0  0  0  0  0  0
  147.3452  137.4377  163.0851 H   0  0  0  0  0  0  0  0  0  0  0  0
  147.9790  135.8281  162.7663 H   0  0  0  0  0  0  0  0  0  0  0  0
  146.3983  136.3201  162.1104 H   0  0  0  0  0  0  0  0  0  0  0  0
  147.1104  134.5998  160.8245 H   0  0  0  0  0  0  0  0  0  0  0  0
  147.5270  133.2136  158.8461 H   0  0  0  0  0  0  0  0  0  0  0  0
  148.8872  134.0873  156.9594 H   0  0  0  0  0  0  0  0  0  0  0  0
  149.8325  136.3496  157.0534 H   0  0  0  0  0  0  0  0  0  0  0  0
  149.7697  138.2446  157.1086 H   0  0  0  0  0  0  0  0  0  0  0  0
  148.9111  139.5932  157.8615 H   0  0  0  0  0  0  0  0  0  0  0  0
  151.4090  139.5550  159.1799 H   0  0  0  0  0  0  0  0  0  0  0  0
  151.8349  139.1948  157.5269 H   0  0  0  0  0  0  0  0  0  0  0  0
  148.6481  140.4855  156.2067 H   0  0  0  0  0  0  0  0  0  0  0  0
  150.6759  139.2078  155.6098 H   0  0  0  0  0  0  0  0  0  0  0  0
  151.1226  140.4182  154.4114 H   0  0  0  0  0  0  0  0  0  0  0  0
  149.6570  139.4659  154.2016 H   0  0  0  0  0  0  0  0  0  0  0  0
  149.0562  142.9573  154.9745 H   0  0  0  0  0  0  0  0  0  0  0  0
  147.6450  142.5838  153.2938 H   0  0  0  0  0  0  0  0  0  0  0  0
  151.4541  145.4155  158.2315 H   0  0  0  0  0  0  0  0  0  0  0  0
  152.8686  145.2394  160.2855 H   0  0  0  0  0  0  0  0  0  0  0  0
  153.4263  143.0411  161.2576 H   0  0  0  0  0  0  0  0  0  0  0  0
  152.5947  140.9297  160.2267 H   0  0  0  0  0  0  0  0  0  0  0  0
  150.0633  143.7260  156.3540 H   0  0  0  0  0  0  0  0  0  0  0  0
  1  2  1  0  0  0  0
  1 26  1  0  0  0  0
  1 27  1  0  0  0  0
  1 28  1  0  0  0  0
  2  3  1  0  0  0  0
  3  8  1  0  0  0  0
  3  4  2  0  0  0  0
  4  5  1  0  0  0  0
  4 29  1  0  0  0  0
  5  6  2  0  0  0  0
  5 30  1  0  0  0  0
  6  7  1  0  0  0  0
  6 31  1  0  0  0  0
  7  8  2  0  0  0  0
  7 32  1  0  0  0  0
  8  9  1  0  0  0  0
  9 10  1  0  0  0  0
 10 11  1  0  0  0  0
 10 33  1  0  0  0  0
 10 34  1  0  0  0  0
 11 12  1  0  0  0  0
 11 35  1  0  0  0  0
 11 36  1  0  0  0  0
 12 25  1  0  0  0  0
 12 13  1  0  0  0  0
 13 14  1  0  0  0  0
 13 19  2  0  0  0  0
 14 15  1  0  0  0  0
 14 16  1  0  0  0  0
 14 37  1  0  0  0  0
 15 38  1  0  0  0  0
 15 39  1  0  0  0  0
 15 40  1  0  0  0  0
 16 17  1  0  0  0  0
 16 41  1  0  0  0  0
 17 18  2  0  0  0  0
 17 42  1  0  0  0  0
 19 20  1  0  0  0  0
 19 47  1  0  0  0  0
 20 25  2  0  0  0  0
 20 21  1  0  0  0  0
 21 22  2  0  0  0  0
 21 43  1  0  0  0  0
 22 23  1  0  0  0  0
 22 44  1  0  0  0  0
 23 24  2  0  0  0  0
 23 45  1  0  0  0  0
 24 25  1  0  0  0  0
 24 46  1  0  0  0  0
M  CHG  1  19   1
M  END
> <s_m_source_file>
AV-unprocessed.smi

> <i_m_source_file_index>
3011

> <i_lp_mmshare_version>
43012

> <i_f3d_flags>
0

> <s_epik_input>
W0NIM11PYzFbY0hdW2NIXVtjSF1bY0hdYzFPW0NIMl1bQ0gyXW4oYyhuMilbQ0BIXShbQ0gzXSlbTkhdW0NIXT1PKWMoYzIzKVtjSF1bY0hdW2NIXVtjSF0z

> <s_epik_cmdline>
J2VwaWtfcHl0aG9uJywgJy1waCcsICc3LjAnLCAnLXRuJywgJzgnLCAnLW1hJywgJzIwMCcsICctbWV0YWxfYmluZGluZycsICctaW1hZScsICc8aW5maWxlLm1hZT4nLCAnLW9tYWUnLCAnPG91dGZpbGUubWFlPic=

> <r_lp_tautomer_probability>
1

> <r_epik_Ionization_Penalty>
1.14644

> <r_epik_Ionization_Penalty_Charging>
1.14644

> <r_epik_Ionization_Penalty_Neutral>
5.5802e-08

> <r_epik_State_Penalty>
1.20743

> <r_epik_Charging_Adjusted_Penalty>
2.35387

> <i_epik_Tot_Q>
1

> <i_epik_Tot_abs_Q>
1

> <r_epik_Metal_State_Penalty>
1.28856

> <b_epik_Metal_Only>
0

> <s_lp_Force_Field>
OPLS_2005

> <r_lp_Energy>
19.8167

> <b_lp_Chiralities_Consistent>
1

> <s_lp_Variant>
AV-unprocessed.smi:3011-3

> <Gold.Version>
5.8.1

> <Gold.Id.Protein>
6NUR|6NUR_protein|mol2

> <Gold.PLP.Fitness>
62.0994

> <Gold.PLP.PLP>
-50.5612

> <Gold.PLP.part.hbond>
-5.2244

> <Gold.PLP.part.metal>
0.0000

> <Gold.PLP.part.buried>
-5.3116

> <Gold.PLP.part.nonpolar>
-38.9544

> <Gold.PLP.part.repulsive>
0.3770

> <Gold.PLP.ligand.clash>
0.0000

> <Gold.PLP.ligand.torsion>
1.3327

> <Gold.PLP.Chemscore.Hbond>
4.6880

> <Gold.PLP.Chemscore.CHOScore>
0.0000

> <Gold.PLP.Chemscore.Metal>
0.0000

> <Gold.Chemscore.Hbonds>
donor molecule, donor type, donor heavy atom, donor atom, acceptor molecule, acceptor atom, score
      L1  H    16    41       P1  8028  1.00
      L1  H    19    47       P1  8028  2.00
      P1  H  6931  6943       L1     2  0.95
      P1  H  6934  6947       L1     2  0.65

> <Gold.PLP.Chemscore.Internal.Correction>
0.1396

> <Gold.Rescore>
     Score         DG    S(hbond)    S(metal)    S(lipo)     H(rot)  DE(clash)    DE(int)     intcor
     20.94     -22.36       3.16        0.00     112.28       2.66       0.07       1.35       ----

> <Gold.Chemscore.Fitness>
20.9426

> <Gold.Chemscore.DG>
-22.3594

> <Gold.Chemscore.ZeroCoef>
-5.4800

> <Gold.Chemscore.Hbond>
3.1597

> <Gold.Chemscore.Metal>
0.0000

> <Gold.Chemscore.Lipo>
112.2783

> <Gold.Chemscore.Internal_Hbond>
0.0000

> <Gold.Chemscore.DEClash>
0.0669

> <Gold.Chemscore.DEInternal>
1.3500

> <Gold.Chemscore.Rot>
2.6604

> <Gold.Chemscore.Internal.Correction>
   9.000000E+99

> <Gold.Chemscore.Hbonds>
donor molecule, donor type, donor heavy atom, donor atom, acceptor molecule, acceptor atom, score
      L1  H    16    41       P1  8028  0.99
      L1  H    19    47       P1  8028  0.99
      P1  H  6931  6943       L1     2  0.21
      P1  H  6934  6947       L1     2  0.27

> <Gold.Chemscore.Hbond.Weighted>
-10.5535

> <Gold.Chemscore.Metal.Weighted>
-0.0000

> <Gold.Chemscore.Lipo.Weighted>
-13.1366

> <Gold.Chemscore.Internal_Hbond.Weighted>
0.0000

> <Gold.Chemscore.DEClash.Weighted>
0.0669

> <Gold.Chemscore.DEInternal.Weighted>
1.3500

> <Gold.Chemscore.Rot.Weighted>
6.8106

> <Gold.Chemscore.Internal.Correction.Weighted>
   9.000000E+99

> <Gold.Protein.RotatedTorsions>
[ 6907 6896 6895 6894 ] final   50.98 input  -60.11 | X-H torsion
[ 7974 7965 7964 7962 ] final  -92.23 input  175.53 | X-H torsion
[ 8008 7997 7996 7995 ] final  -55.12 input   59.86 | X-H torsion
[ 10167 10162 10161 10158 ] final -132.25 input  -65.29 | X-H torsion
[ 10718 10713 10712 10709 ] final  -90.96 input   66.30 | X-H torsion
[ 10763 10752 10751 10750 ] final -117.78 input  -60.55 | X-H torsion
[ 11005 11000 10999 10996 ] final -157.24 input  -57.11 | X-H torsion

> <Gold.Protein.ActiveResidues>
 VAL166  LYS551  ARG553  GLY616  TRP617  ASP618  TYR619  PRO620  LYS621  CYS622 
 ASP623  PHE694  ASN695  SER759  ASP760  ASP761  ALA762  ILE779  LEU786  VAL792 
 PHE793  MET794  SER795  GLU796  ALA797  LYS798  CYS799  TRP800  GLU811  SER814 

> <Gold.Protein.RotatedAtoms>
  152.3077  134.7535  160.0343 H   0  0  0  0  0  0  0  0  0  0  0  0  # atno 6907 bound_to 6896
  151.8026  133.3366  159.3539 H   0  0  0  0  0  0  0  0  0  0  0  0  # atno 6908 bound_to 6896
  150.7305  134.5669  159.5915 H   0  0  0  0  0  0  0  0  0  0  0  0  # atno 6909 bound_to 6896
  145.4026  140.9538  143.2278 H   0  0  0  0  0  0  0  0  0  0  0  0  # atno 7974 bound_to 7965
  154.4184  140.1160  156.5425 H   0  0  0  0  0  0  0  0  0  0  0  0  # atno 8008 bound_to 7997
  155.6493  140.3496  155.4723 H   0  0  0  0  0  0  0  0  0  0  0  0  # atno 8009 bound_to 7997
  155.9806  140.1159  157.0720 H   0  0  0  0  0  0  0  0  0  0  0  0  # atno 8010 bound_to 7997
  139.9105  143.6499  152.2576 H   0  0  0  0  0  0  0  0  0  0  0  0  # atno 10167 bound_to 10162
  155.9990  130.4930  150.5403 H   0  0  0  0  0  0  0  0  0  0  0  0  # atno 10718 bound_to 10713
  154.8566  135.4297  154.2034 H   0  0  0  0  0  0  0  0  0  0  0  0  # atno 10763 bound_to 10752
  153.3076  135.6973  153.7151 H   0  0  0  0  0  0  0  0  0  0  0  0  # atno 10764 bound_to 10752
  153.6257  135.3494  155.2999 H   0  0  0  0  0  0  0  0  0  0  0  0  # atno 10765 bound_to 10752
  140.6667  134.4291  157.5233 H   0  0  0  0  0  0  0  0  0  0  0  0  # atno 11005 bound_to 11000
  144.8363  139.5545  143.6920 LP  0  0  0  0  0  0  0  0  0  0  0  0  # atno 17320 bound_to 7965
  146.2744  139.6716  142.9273 LP  0  0  0  0  0  0  0  0  0  0  0  0  # atno 17321 bound_to 7965
  139.6946  144.7643  151.1378 LP  0  0  0  0  0  0  0  0  0  0  0  0  # atno 17342 bound_to 10162
  140.7686  143.5541  150.9172 LP  0  0  0  0  0  0  0  0  0  0  0  0  # atno 17343 bound_to 10162
  157.3340  131.0704  151.1839 LP  0  0  0  0  0  0  0  0  0  0  0  0  # atno 17370 bound_to 10713
  157.2710  130.6704  149.6019 LP  0  0  0  0  0  0  0  0  0  0  0  0  # atno 17371 bound_to 10713
  139.8995  134.8590  156.1959 LP  0  0  0  0  0  0  0  0  0  0  0  0  # atno 17394 bound_to 11000
  141.0423  133.6931  156.1620 LP  0  0  0  0  0  0  0  0  0  0  0  0  # atno 17395 bound_to 11000

$$$$
