AV-unprocessed.smi:1703|AV-procd|sdf|6877|dock1
  -GOLD-   22720 8 83D 1   1.00000     0.00000
 Structure written by MMmdl.
 50 52  0  0  0  0  0  0  0  0  3 V2000
  150.8636  133.6332  156.4603 C   0  0  0  0  0  0  0  0  0  0  0  0
  149.8661  134.7230  156.8681 C   0  0  2  0  0  0  0  0  0  0  0  0
  150.4599  136.1371  156.7266 C   0  0  0  0  0  0  0  0  0  0  0  0
  149.4934  137.1570  157.1977 N   0  3  2  0  0  0  0  0  0  0  0  0
  149.9973  138.5426  157.0158 C   0  0  0  0  0  0  0  0  0  0  0  0
  151.2517  138.8364  157.8636 C   0  0  2  0  0  0  0  0  0  0  0  0
  150.8439  139.3295  159.1246 O   0  0  0  0  0  0  0  0  0  0  0  0
  152.1825  139.8801  157.2054 C   0  0  0  0  0  0  0  0  0  0  0  0
  151.5911  141.2259  157.2003 N   0  0  0  0  0  0  0  0  0  0  0  0
  150.6874  141.7799  156.3413 C   0  0  0  0  0  0  0  0  0  0  0  0
  150.0622  141.1248  155.1547 C   0  0  0  0  0  0  0  0  0  0  0  0
  149.1904  141.9902  154.4626 O   0  0  0  0  0  0  0  0  0  0  0  0
  150.4595  143.0556  156.7615 N   0  3  0  0  0  0  0  0  0  0  0  0
  151.2180  143.3198  157.9025 C   0  0  0  0  0  0  0  0  0  0  0  0
  151.3184  144.4678  158.6821 C   0  0  0  0  0  0  0  0  0  0  0  0
  152.1918  144.4075  159.7875 C   0  0  0  0  0  0  0  0  0  0  0  0
  152.9213  143.2379  160.0834 C   0  0  0  0  0  0  0  0  0  0  0  0
  152.8102  142.0791  159.2867 C   0  0  0  0  0  0  0  0  0  0  0  0
  151.9469  142.1474  158.1927 C   0  0  0  0  0  0  0  0  0  0  0  0
  149.0609  136.8559  158.5849 C   0  0  0  0  0  0  0  0  0  0  0  0
  148.5061  135.4214  158.6766 C   0  0  2  0  0  0  0  0  0  0  0  0
  148.1194  135.0409  160.1100 C   0  0  0  0  0  0  0  0  0  0  0  0
  149.5014  134.5085  158.2272 O   0  0  0  0  0  0  0  0  0  0  0  0
  151.1672  133.7482  155.4193 H   0  0  0  0  0  0  0  0  0  0  0  0
  150.4236  132.6416  156.5697 H   0  0  0  0  0  0  0  0  0  0  0  0
  151.7620  133.6680  157.0770 H   0  0  0  0  0  0  0  0  0  0  0  0
  148.9787  134.6320  156.2392 H   0  0  0  0  0  0  0  0  0  0  0  0
  151.3846  136.2197  157.3006 H   0  0  0  0  0  0  0  0  0  0  0  0
  150.7125  136.3243  155.6820 H   0  0  0  0  0  0  0  0  0  0  0  0
  150.2009  138.7109  155.9577 H   0  0  0  0  0  0  0  0  0  0  0  0
  149.2188  139.2554  157.2928 H   0  0  0  0  0  0  0  0  0  0  0  0
  151.8096  137.9180  158.0459 H   0  0  0  0  0  0  0  0  0  0  0  0
  151.5367  139.1773  159.7499 H   0  0  0  0  0  0  0  0  0  0  0  0
  153.1621  139.9141  157.6825 H   0  0  0  0  0  0  0  0  0  0  0  0
  152.3813  139.6262  156.1628 H   0  0  0  0  0  0  0  0  0  0  0  0
  150.8403  140.7776  154.4748 H   0  0  0  0  0  0  0  0  0  0  0  0
  149.5043  140.2457  155.4786 H   0  0  0  0  0  0  0  0  0  0  0  0
  149.3199  142.8696  154.7836 H   0  0  0  0  0  0  0  0  0  0  0  0
  150.7599  145.3652  158.4579 H   0  0  0  0  0  0  0  0  0  0  0  0
  152.3050  145.2759  160.4206 H   0  0  0  0  0  0  0  0  0  0  0  0
  153.5816  143.2309  160.9389 H   0  0  0  0  0  0  0  0  0  0  0  0
  153.3786  141.1931  159.5248 H   0  0  0  0  0  0  0  0  0  0  0  0
  149.9064  136.9753  159.2644 H   0  0  0  0  0  0  0  0  0  0  0  0
  148.2934  137.5593  158.9056 H   0  0  0  0  0  0  0  0  0  0  0  0
  147.6218  135.3278  158.0437 H   0  0  0  0  0  0  0  0  0  0  0  0
  147.3462  135.7045  160.4979 H   0  0  0  0  0  0  0  0  0  0  0  0
  148.9780  135.0974  160.7799 H   0  0  0  0  0  0  0  0  0  0  0  0
  147.7323  134.0225  160.1509 H   0  0  0  0  0  0  0  0  0  0  0  0
  148.6789  137.0691  156.6059 H   0  0  0  0  0  0  0  0  0  0  0  0
  149.8314  143.6984  156.2959 H   0  0  0  0  0  0  0  0  0  0  0  0
  1  2  1  0  0  0  0
  1 24  1  0  0  0  0
  1 25  1  0  0  0  0
  1 26  1  0  0  0  0
  2 23  1  0  0  0  0
  2  3  1  0  0  0  0
  2 27  1  0  0  0  0
  3  4  1  0  0  0  0
  3 28  1  0  0  0  0
  3 29  1  0  0  0  0
  4  5  1  0  0  0  0
  4 20  1  0  0  0  0
  4 49  1  0  0  0  0
  5  6  1  0  0  0  0
  5 30  1  0  0  0  0
  5 31  1  0  0  0  0
  6  7  1  0  0  0  0
  6  8  1  0  0  0  0
  6 32  1  0  0  0  0
  7 33  1  0  0  0  0
  8  9  1  0  0  0  0
  8 34  1  0  0  0  0
  8 35  1  0  0  0  0
  9 19  1  0  0  0  0
  9 10  1  0  0  0  0
 10 11  1  0  0  0  0
 10 13  2  0  0  0  0
 11 12  1  0  0  0  0
 11 36  1  0  0  0  0
 11 37  1  0  0  0  0
 12 38  1  0  0  0  0
 13 14  1  0  0  0  0
 13 50  1  0  0  0  0
 14 19  2  0  0  0  0
 14 15  1  0  0  0  0
 15 16  2  0  0  0  0
 15 39  1  0  0  0  0
 16 17  1  0  0  0  0
 16 40  1  0  0  0  0
 17 18  2  0  0  0  0
 17 41  1  0  0  0  0
 18 19  1  0  0  0  0
 18 42  1  0  0  0  0
 20 21  1  0  0  0  0
 20 43  1  0  0  0  0
 20 44  1  0  0  0  0
 21 22  1  0  0  0  0
 21 23  1  0  0  0  0
 21 45  1  0  0  0  0
 22 46  1  0  0  0  0
 22 47  1  0  0  0  0
 22 48  1  0  0  0  0
M  CHG  1   4   1
M  CHG  1  13   1
M  END
> <s_m_source_file>
AV-unprocessed.smi

> <i_m_source_file_index>
1703

> <i_lp_mmshare_version>
43012

> <i_f3d_flags>
0

> <s_epik_input>
W0NIM11bQ0BASF0xW0NIMl1OKFtDSDJdW0NASF0oTzEpW0NIM10pW0NIMl1bQ0BIXShbT0hdKVtDSDJdbihjKG4yKVtDSDJdW09IXSljKGMyMylbY0hdW2NIXVtjSF1bY0hdMw==

> <s_epik_cmdline>
J2VwaWtfcHl0aG9uJywgJy1waCcsICc3LjAnLCAnLXRuJywgJzgnLCAnLW1hJywgJzIwMCcsICctbWV0YWxfYmluZGluZycsICctaW1hZScsICc8aW5maWxlLm1hZT4nLCAnLW9tYWUnLCAnPG91dGZpbGUubWFlPic=

> <r_epik_Ionization_Penalty>
2.22579

> <r_epik_Ionization_Penalty_Charging>
2.22492

> <r_epik_Ionization_Penalty_Neutral>
0.000870007

> <r_epik_State_Penalty>
2.3141

> <r_epik_Charging_Adjusted_Penalty>
4.53902

> <i_epik_Tot_Q>
2

> <i_epik_Tot_abs_Q>
2

> <r_epik_Metal_State_Penalty>
6.36517

> <b_epik_Metal_Only>
0

> <s_lp_Force_Field>
OPLS_2005

> <r_lp_Energy>
31.942

> <b_lp_Chiralities_Consistent>
1

> <s_lp_Variant>
AV-unprocessed.smi:1703-25

> <Gold.Version>
5.8.1

> <Gold.Id.Protein>
6NUR|6NUR_protein|mol2

> <Gold.PLP.Fitness>
52.1557

> <Gold.PLP.PLP>
-41.1272

> <Gold.PLP.part.hbond>
-4.7017

> <Gold.PLP.part.metal>
0.0000

> <Gold.PLP.part.buried>
-4.3696

> <Gold.PLP.part.nonpolar>
-31.9799

> <Gold.PLP.part.repulsive>
0.0577

> <Gold.PLP.ligand.clash>
0.0000

> <Gold.PLP.ligand.torsion>
0.7333

> <Gold.PLP.Chemscore.Hbond>
4.1119

> <Gold.PLP.Chemscore.CHOScore>
0.0000

> <Gold.PLP.Chemscore.Metal>
0.0000

> <Gold.Chemscore.Hbonds>
donor molecule, donor type, donor heavy atom, donor atom, acceptor molecule, acceptor atom, score
      L1  H    12    38       P1  8028  0.88
      L1  H    13    50       P1  8028  1.98
      P1  H  6896  6908       L1    23  1.00
      P1  H  8011  8017       L1    12  0.12

> <Gold.PLP.Chemscore.Internal.Correction>
0.1594

> <Gold.Rescore>
     Score         DG    S(hbond)    S(metal)    S(lipo)     H(rot)  DE(clash)    DE(int)     intcor
     19.59     -20.52       2.91        0.00     111.86       3.04       0.17       0.77       ----

> <Gold.Chemscore.Fitness>
19.5908

> <Gold.Chemscore.DG>
-20.5222

> <Gold.Chemscore.ZeroCoef>
-5.4800

> <Gold.Chemscore.Hbond>
2.9135

> <Gold.Chemscore.Metal>
0.0000

> <Gold.Chemscore.Lipo>
111.8607

> <Gold.Chemscore.Internal_Hbond>
0.0000

> <Gold.Chemscore.DEClash>
0.1655

> <Gold.Chemscore.DEInternal>
0.7659

> <Gold.Chemscore.Rot>
3.0378

> <Gold.Chemscore.Internal.Correction>
   9.000000E+99

> <Gold.Chemscore.Hbonds>
donor molecule, donor type, donor heavy atom, donor atom, acceptor molecule, acceptor atom, score
      L1  H    12    38       P1  8028  0.85
      L1  H    13    50       P1  8028  0.92
      P1  H  6896  6908       L1    23  0.90
      P1  H  8011  8017       L1    12  0.01

> <Gold.Chemscore.Hbond.Weighted>
-9.7312

> <Gold.Chemscore.Metal.Weighted>
-0.0000

> <Gold.Chemscore.Lipo.Weighted>
-13.0877

> <Gold.Chemscore.Internal_Hbond.Weighted>
0.0000

> <Gold.Chemscore.DEClash.Weighted>
0.1655

> <Gold.Chemscore.DEInternal.Weighted>
0.7659

> <Gold.Chemscore.Rot.Weighted>
7.7767

> <Gold.Chemscore.Internal.Correction.Weighted>
   9.000000E+99

> <Gold.Protein.RotatedTorsions>
[ 6907 6896 6895 6894 ] final  131.09 input  -60.11 | X-H torsion
[ 7974 7965 7964 7962 ] final  -32.17 input  175.53 | X-H torsion
[ 8008 7997 7996 7995 ] final  137.97 input   59.86 | X-H torsion
[ 10167 10162 10161 10158 ] final  -58.69 input  -65.29 | X-H torsion
[ 10718 10713 10712 10709 ] final   52.80 input   66.30 | X-H torsion
[ 10763 10752 10751 10750 ] final   33.38 input  -60.55 | X-H torsion
[ 11005 11000 10999 10996 ] final   62.70 input  -57.11 | X-H torsion

> <Gold.Protein.ActiveResidues>
 VAL166  LYS551  ARG553  GLY616  TRP617  ASP618  TYR619  PRO620  LYS621  CYS622 
 ASP623  PHE694  ASN695  SER759  ASP760  ASP761  ALA762  ILE779  LEU786  VAL792 
 PHE793  MET794  SER795  GLU796  ALA797  LYS798  CYS799  TRP800  GLU811  SER814 

> <Gold.Protein.RotatedAtoms>
  152.3461  133.6124  159.5910 H   0  0  0  0  0  0  0  0  0  0  0  0  # atno 6907 bound_to 6896
  150.7508  133.9647  159.3535 H   0  0  0  0  0  0  0  0  0  0  0  0  # atno 6908 bound_to 6896
  151.7505  135.0834  160.0381 H   0  0  0  0  0  0  0  0  0  0  0  0  # atno 6909 bound_to 6896
  146.1011  140.5758  142.8820 H   0  0  0  0  0  0  0  0  0  0  0  0  # atno 7974 bound_to 7965
  156.3000  140.2405  156.3997 H   0  0  0  0  0  0  0  0  0  0  0  0  # atno 8008 bound_to 7997
  154.8538  140.0423  157.1641 H   0  0  0  0  0  0  0  0  0  0  0  0  # atno 8009 bound_to 7997
  154.8970  140.2971  155.5343 H   0  0  0  0  0  0  0  0  0  0  0  0  # atno 8010 bound_to 7997
  140.6181  143.2409  151.5547 H   0  0  0  0  0  0  0  0  0  0  0  0  # atno 10167 bound_to 10162
  157.5109  130.8500  149.8433 H   0  0  0  0  0  0  0  0  0  0  0  0  # atno 10718 bound_to 10713
  153.0215  135.6388  154.1503 H   0  0  0  0  0  0  0  0  0  0  0  0  # atno 10763 bound_to 10752
  154.1237  135.2845  155.3204 H   0  0  0  0  0  0  0  0  0  0  0  0  # atno 10764 bound_to 10752
  154.6245  135.5513  153.7674 H   0  0  0  0  0  0  0  0  0  0  0  0  # atno 10765 bound_to 10752
  140.0074  134.6348  155.9833 H   0  0  0  0  0  0  0  0  0  0  0  0  # atno 11005 bound_to 11000
  144.7433  140.5002  143.6853 LP  0  0  0  0  0  0  0  0  0  0  0  0  # atno 17320 bound_to 7965
  145.5852  139.1491  143.3213 LP  0  0  0  0  0  0  0  0  0  0  0  0  # atno 17321 bound_to 7965
  139.5416  144.2633  152.1361 LP  0  0  0  0  0  0  0  0  0  0  0  0  # atno 17342 bound_to 10162
  140.1847  144.4810  150.6510 LP  0  0  0  0  0  0  0  0  0  0  0  0  # atno 17343 bound_to 10162
  156.0288  130.3771  150.1746 LP  0  0  0  0  0  0  0  0  0  0  0  0  # atno 17370 bound_to 10713
  156.9935  130.9901  151.3409 LP  0  0  0  0  0  0  0  0  0  0  0  0  # atno 17371 bound_to 10713
  141.1687  133.6537  156.4571 LP  0  0  0  0  0  0  0  0  0  0  0  0  # atno 17394 bound_to 11000
  140.4616  134.6836  157.5088 LP  0  0  0  0  0  0  0  0  0  0  0  0  # atno 17395 bound_to 11000

$$$$
