AV-unprocessed.smi:3198|AV-procd|sdf|12228|dock2
  -GOLD-   2272018 63D 1   1.00000     0.00000
 Structure written by MMmdl.
 38 39  0  0  0  0  0  0  0  0  2 V2000
  146.0169  132.4197  149.9063 C   0  0  0  0  0  0  0  0  0  0  0  0
  145.3256  133.5123  150.6936 C   0  0  0  0  0  0  0  0  0  0  0  0
  143.9757  133.4167  151.0900 C   0  0  0  0  0  0  0  0  0  0  0  0
  143.4013  134.4753  151.8207 C   0  0  0  0  0  0  0  0  0  0  0  0
  144.1861  135.6015  152.1414 C   0  0  0  0  0  0  0  0  0  0  0  0
  145.5411  135.6456  151.7315 C   0  0  0  0  0  0  0  0  0  0  0  0
  146.4238  136.6991  152.0127 N   0  0  0  0  0  0  0  0  0  0  0  0
  145.9706  137.8559  152.7765 C   0  0  0  0  0  0  0  0  0  0  0  0
  146.9916  139.0044  152.7627 C   0  0  0  0  0  0  0  0  0  0  0  0
  148.0865  138.6547  153.5893 O   0  0  0  0  0  0  0  0  0  0  0  0
  148.9169  139.7490  153.9346 C   0  0  0  0  0  0  0  0  0  0  0  0
  150.0826  139.2399  154.7941 C   0  0  1  0  0  0  0  0  0  0  0  0
  150.9233  138.1209  154.1726 C   0  0  0  0  0  0  0  0  0  0  0  0
  152.3162  138.3515  154.7448 C   0  0  0  0  0  0  0  0  0  0  0  0
  152.1925  139.6512  155.5438 C   0  0  0  0  0  0  0  0  0  0  0  0
  151.0229  140.2744  155.0363 O   0  0  0  0  0  0  0  0  0  0  0  0
  146.0438  134.6086  151.0244 N   0  3  0  0  0  0  0  0  0  0  0  0
  145.3034  131.6665  149.5708 H   0  0  0  0  0  0  0  0  0  0  0  0
  146.7695  131.9275  150.5226 H   0  0  0  0  0  0  0  0  0  0  0  0
  146.5091  132.8360  149.0268 H   0  0  0  0  0  0  0  0  0  0  0  0
  143.3867  132.5464  150.8392 H   0  0  0  0  0  0  0  0  0  0  0  0
  142.3694  134.4233  152.1351 H   0  0  0  0  0  0  0  0  0  0  0  0
  143.7398  136.4071  152.7040 H   0  0  0  0  0  0  0  0  0  0  0  0
  147.4077  136.4785  152.0664 H   0  0  0  0  0  0  0  0  0  0  0  0
  145.0495  138.2018  152.3069 H   0  0  0  0  0  0  0  0  0  0  0  0
  145.6996  137.5799  153.7952 H   0  0  0  0  0  0  0  0  0  0  0  0
  147.3186  139.2089  151.7419 H   0  0  0  0  0  0  0  0  0  0  0  0
  146.5319  139.9152  153.1484 H   0  0  0  0  0  0  0  0  0  0  0  0
  149.3084  140.2277  153.0357 H   0  0  0  0  0  0  0  0  0  0  0  0
  148.3388  140.4957  154.4808 H   0  0  0  0  0  0  0  0  0  0  0  0
  149.6975  138.9059  155.7596 H   0  0  0  0  0  0  0  0  0  0  0  0
  150.5283  137.1334  154.4127 H   0  0  0  0  0  0  0  0  0  0  0  0
  150.9603  138.2076  153.0861 H   0  0  0  0  0  0  0  0  0  0  0  0
  152.6443  137.5271  155.3785 H   0  0  0  0  0  0  0  0  0  0  0  0
  153.0410  138.4604  153.9373 H   0  0  0  0  0  0  0  0  0  0  0  0
  152.0531  139.4374  156.6047 H   0  0  0  0  0  0  0  0  0  0  0  0
  153.0660  140.2948  155.4381 H   0  0  0  0  0  0  0  0  0  0  0  0
  147.0198  134.6496  150.7306 H   0  0  0  0  0  0  0  0  0  0  0  0
  1  2  1  0  0  0  0
  1 18  1  0  0  0  0
  1 19  1  0  0  0  0
  1 20  1  0  0  0  0
  2 17  1  0  0  0  0
  2  3  2  0  0  0  0
  3  4  1  0  0  0  0
  3 21  1  0  0  0  0
  4  5  2  0  0  0  0
  4 22  1  0  0  0  0
  5  6  1  0  0  0  0
  5 23  1  0  0  0  0
  6  7  1  0  0  0  0
  6 17  2  0  0  0  0
  7  8  1  0  0  0  0
  7 24  1  0  0  0  0
  8  9  1  0  0  0  0
  8 25  1  0  0  0  0
  8 26  1  0  0  0  0
  9 10  1  0  0  0  0
  9 27  1  0  0  0  0
  9 28  1  0  0  0  0
 10 11  1  0  0  0  0
 11 12  1  0  0  0  0
 11 29  1  0  0  0  0
 11 30  1  0  0  0  0
 12 16  1  0  0  0  0
 12 13  1  0  0  0  0
 12 31  1  0  0  0  0
 13 14  1  0  0  0  0
 13 32  1  0  0  0  0
 13 33  1  0  0  0  0
 14 15  1  0  0  0  0
 14 34  1  0  0  0  0
 14 35  1  0  0  0  0
 15 16  1  0  0  0  0
 15 36  1  0  0  0  0
 15 37  1  0  0  0  0
 17 38  1  0  0  0  0
M  CHG  1  17   1
M  END
> <s_m_source_file>
AV-unprocessed.smi

> <i_m_source_file_index>
3198

> <i_lp_mmshare_version>
43012

> <i_f3d_flags>
0

> <s_epik_input>
W0NIM11jMVtjSF1bY0hdW2NIXWMobjEpW05IXVtDSDJdW0NIMl1PW0NIMl1bQ0BASF0yW0NIMl1bQ0gyXVtDSDJdTzI=

> <s_epik_cmdline>
J2VwaWtfcHl0aG9uJywgJy1waCcsICc3LjAnLCAnLXRuJywgJzgnLCAnLW1hJywgJzIwMCcsICctbWV0YWxfYmluZGluZycsICctaW1hZScsICc8aW5maWxlLm1hZT4nLCAnLW9tYWUnLCAnPG91dGZpbGUubWFlPic=

> <r_lp_tautomer_probability>
0.999994

> <r_epik_Ionization_Penalty>
0.0710016

> <r_epik_Ionization_Penalty_Charging>
0.0710012

> <r_epik_Ionization_Penalty_Neutral>
3.47026e-07

> <r_epik_State_Penalty>
0.0622974

> <r_epik_Charging_Adjusted_Penalty>
0.133299

> <i_epik_Tot_Q>
1

> <i_epik_Tot_abs_Q>
1

> <r_epik_Metal_State_Penalty>
2.79497

> <b_epik_Metal_Only>
0

> <s_lp_Force_Field>
OPLS_2005

> <r_lp_Energy>
24.0011

> <b_lp_Chiralities_Consistent>
1

> <s_lp_Variant>
AV-unprocessed.smi:3198-2

> <Gold.Version>
5.8.1

> <Gold.Id.Protein>
6NUR|6NUR_protein|mol2

> <Gold.PLP.Fitness>
42.8438

> <Gold.PLP.PLP>
-34.1510

> <Gold.PLP.part.hbond>
-2.0000

> <Gold.PLP.part.metal>
0.0000

> <Gold.PLP.part.buried>
-3.2045

> <Gold.PLP.part.nonpolar>
-30.1418

> <Gold.PLP.part.repulsive>
0.6682

> <Gold.PLP.ligand.clash>
0.0000

> <Gold.PLP.ligand.torsion>
0.1685

> <Gold.PLP.Chemscore.Hbond>
3.0000

> <Gold.PLP.Chemscore.CHOScore>
0.0000

> <Gold.PLP.Chemscore.Metal>
0.0000

> <Gold.Chemscore.Hbonds>
donor molecule, donor type, donor heavy atom, donor atom, acceptor molecule, acceptor atom, score
      L1  H     7    24       P1  7948  2.00
      P1  H  7989  7998       L1    16  1.00

> <Gold.PLP.Chemscore.Internal.Correction>
0.0298

> <Gold.Rescore>
     Score         DG    S(hbond)    S(metal)    S(lipo)     H(rot)  DE(clash)    DE(int)     intcor
     16.43     -16.75       1.90        0.00      79.45       1.71       0.15       0.16       ----

> <Gold.Chemscore.Fitness>
16.4308

> <Gold.Chemscore.DG>
-16.7454

> <Gold.Chemscore.ZeroCoef>
-5.4800

> <Gold.Chemscore.Hbond>
1.8974

> <Gold.Chemscore.Metal>
0.0000

> <Gold.Chemscore.Lipo>
79.4541

> <Gold.Chemscore.Internal_Hbond>
0.0000

> <Gold.Chemscore.DEClash>
0.1543

> <Gold.Chemscore.DEInternal>
0.1603

> <Gold.Chemscore.Rot>
1.7063

> <Gold.Chemscore.Internal.Correction>
   9.000000E+99

> <Gold.Chemscore.Hbonds>
donor molecule, donor type, donor heavy atom, donor atom, acceptor molecule, acceptor atom, score
      L1  H     7    24       P1  7948  0.96
      P1  H  7989  7998       L1    16  0.19

> <Gold.Chemscore.Hbond.Weighted>
-6.3373

> <Gold.Chemscore.Metal.Weighted>
-0.0000

> <Gold.Chemscore.Lipo.Weighted>
-9.2961

> <Gold.Chemscore.Internal_Hbond.Weighted>
0.0000

> <Gold.Chemscore.DEClash.Weighted>
0.1543

> <Gold.Chemscore.DEInternal.Weighted>
0.1603

> <Gold.Chemscore.Rot.Weighted>
4.3681

> <Gold.Chemscore.Internal.Correction.Weighted>
   9.000000E+99

> <Gold.Protein.RotatedTorsions>
[ 6907 6896 6895 6894 ] final   70.58 input  -60.11 | X-H torsion
[ 7974 7965 7964 7962 ] final  -20.90 input  175.53 | X-H torsion
[ 8008 7997 7996 7995 ] final  -55.12 input   59.86 | X-H torsion
[ 10167 10162 10161 10158 ] final   70.79 input  -65.29 | X-H torsion
[ 10718 10713 10712 10709 ] final  -50.33 input   66.30 | X-H torsion
[ 10763 10752 10751 10750 ] final   25.10 input  -60.55 | X-H torsion
[ 11005 11000 10999 10996 ] final -115.14 input  -57.11 | X-H torsion

> <Gold.Protein.ActiveResidues>
 VAL166  LYS551  ARG553  GLY616  TRP617  ASP618  TYR619  PRO620  LYS621  CYS622 
 ASP623  PHE694  ASN695  SER759  ASP760  ASP761  ALA762  ILE779  LEU786  VAL792 
 PHE793  MET794  SER795  GLU796  ALA797  LYS798  CYS799  TRP800  GLU811  SER814 

> <Gold.Protein.RotatedAtoms>
  152.4758  134.4847  159.9676 H   0  0  0  0  0  0  0  0  0  0  0  0  # atno 6907 bound_to 6896
  151.4864  133.3529  159.2854 H   0  0  0  0  0  0  0  0  0  0  0  0  # atno 6908 bound_to 6896
  150.8796  134.8211  159.7276 H   0  0  0  0  0  0  0  0  0  0  0  0  # atno 6909 bound_to 6896
  146.1763  140.4266  142.8512 H   0  0  0  0  0  0  0  0  0  0  0  0  # atno 7974 bound_to 7965
  154.4185  140.1160  156.5426 H   0  0  0  0  0  0  0  0  0  0  0  0  # atno 8008 bound_to 7997
  155.6492  140.3496  155.4723 H   0  0  0  0  0  0  0  0  0  0  0  0  # atno 8009 bound_to 7997
  155.9807  140.1159  157.0719 H   0  0  0  0  0  0  0  0  0  0  0  0  # atno 8010 bound_to 7997
  140.0531  144.5295  150.7349 H   0  0  0  0  0  0  0  0  0  0  0  0  # atno 10167 bound_to 10162
  156.1810  130.4150  149.9506 H   0  0  0  0  0  0  0  0  0  0  0  0  # atno 10718 bound_to 10713
  153.0716  135.6590  154.0236 H   0  0  0  0  0  0  0  0  0  0  0  0  # atno 10763 bound_to 10752
  153.9880  135.2949  155.3416 H   0  0  0  0  0  0  0  0  0  0  0  0  # atno 10764 bound_to 10752
  154.7092  135.5212  153.8710 H   0  0  0  0  0  0  0  0  0  0  0  0  # atno 10765 bound_to 10752
  141.0507  133.9692  157.2842 H   0  0  0  0  0  0  0  0  0  0  0  0  # atno 11005 bound_to 11000
  144.8241  140.6599  143.6333 LP  0  0  0  0  0  0  0  0  0  0  0  0  # atno 17320 bound_to 7965
  145.4203  139.1565  143.4078 LP  0  0  0  0  0  0  0  0  0  0  0  0  # atno 17321 bound_to 7965
  140.7207  143.2586  151.4286 LP  0  0  0  0  0  0  0  0  0  0  0  0  # atno 17342 bound_to 10162
  139.5941  144.1436  152.2123 LP  0  0  0  0  0  0  0  0  0  0  0  0  # atno 17343 bound_to 10162
  156.7277  130.9031  151.3623 LP  0  0  0  0  0  0  0  0  0  0  0  0  # atno 17370 bound_to 10713
  157.6868  130.9194  150.0408 LP  0  0  0  0  0  0  0  0  0  0  0  0  # atno 17371 bound_to 10713
  139.9348  135.0197  156.8519 LP  0  0  0  0  0  0  0  0  0  0  0  0  # atno 17394 bound_to 11000
  140.6061  134.0126  155.7557 LP  0  0  0  0  0  0  0  0  0  0  0  0  # atno 17395 bound_to 11000

$$$$
