AV-unprocessed.smi:69|AV-procd|sdf|646|dock6
  -GOLD-   2262016543D 1   1.00000     0.00000
 Structure written by MMmdl.
 32 34  0  0  0  0  0  0  0  0  1 V2000
  153.5299  142.7910  160.0789 N   0  0  0  0  0  0  0  0  0  0  0  0
  153.0204  141.6732  159.5436 C   0  0  0  0  0  0  0  0  0  0  0  0
  153.5678  140.4857  159.8935 N   0  0  0  0  0  0  0  0  0  0  0  0
  153.0761  139.3563  159.3736 C   0  0  0  0  0  0  0  0  0  0  0  0
  152.0680  139.2034  158.5113 N   0  0  0  0  0  0  0  0  0  0  0  0
  151.5159  140.4017  158.1604 C   0  0  0  0  0  0  0  0  0  0  0  0
  151.9354  141.6769  158.6308 C   0  0  0  0  0  0  0  0  0  0  0  0
  151.1517  142.6726  158.0636 N   0  0  0  0  0  0  0  0  0  0  0  0
  150.3169  142.0181  157.3015 C   0  0  0  0  0  0  0  0  0  0  0  0
  150.4604  140.6476  157.3047 N   0  0  0  0  0  0  0  0  0  0  0  0
  149.6474  139.6425  156.5480 C   0  0  1  0  0  0  0  0  0  0  0  0
  148.4483  140.2386  156.1659 O   0  0  0  0  0  0  0  0  0  0  0  0
  148.0565  139.7238  154.8993 C   0  0  1  0  0  0  0  0  0  0  0  0
  147.0197  140.6410  154.2273 C   0  0  0  0  0  0  0  0  0  0  0  0
  145.7267  140.3481  154.7123 O   0  0  0  0  0  0  0  0  0  0  0  0
  149.3921  139.5722  154.1555 C   0  0  1  0  0  0  0  0  0  0  0  0
  149.7808  140.7923  153.5473 O   0  0  0  0  0  0  0  0  0  0  0  0
  150.3458  139.1366  155.2671 C   0  0  1  0  0  0  0  0  0  0  0  0
  151.6814  139.5756  155.0746 O   0  0  0  0  0  0  0  0  0  0  0  0
  149.4549  138.8438  157.2661 H   0  0  0  0  0  0  0  0  0  0  0  0
  147.6365  138.7269  155.0472 H   0  0  0  0  0  0  0  0  0  0  0  0
  149.3286  138.8181  153.3704 H   0  0  0  0  0  0  0  0  0  0  0  0
  150.3541  138.0472  155.3211 H   0  0  0  0  0  0  0  0  0  0  0  0
  153.1380  143.6893  159.8346 H   0  0  0  0  0  0  0  0  0  0  0  0
  154.3007  142.7325  160.7282 H   0  0  0  0  0  0  0  0  0  0  0  0
  153.5575  138.4445  159.6946 H   0  0  0  0  0  0  0  0  0  0  0  0
  149.5627  142.5218  156.7146 H   0  0  0  0  0  0  0  0  0  0  0  0
  147.2558  141.6932  154.3894 H   0  0  0  0  0  0  0  0  0  0  0  0
  147.0085  140.4707  153.1503 H   0  0  0  0  0  0  0  0  0  0  0  0
  145.1139  140.4260  153.9971 H   0  0  0  0  0  0  0  0  0  0  0  0
  149.6796  140.7031  152.6117 H   0  0  0  0  0  0  0  0  0  0  0  0
  152.2594  138.9911  155.5406 H   0  0  0  0  0  0  0  0  0  0  0  0
  1  2  1  0  0  0  0
  1 24  1  0  0  0  0
  1 25  1  0  0  0  0
  2  7  1  0  0  0  0
  2  3  2  0  0  0  0
  3  4  1  0  0  0  0
  4  5  2  0  0  0  0
  4 26  1  0  0  0  0
  5  6  1  0  0  0  0
  6 10  1  0  0  0  0
  6  7  2  0  0  0  0
  7  8  1  0  0  0  0
  8  9  2  0  0  0  0
  9 10  1  0  0  0  0
  9 27  1  0  0  0  0
 10 11  1  0  0  0  0
 11 20  1  0  0  0  0
 11 18  1  0  0  0  0
 11 12  1  0  0  0  0
 12 13  1  0  0  0  0
 13 21  1  0  0  0  0
 13 14  1  0  0  0  0
 13 16  1  0  0  0  0
 14 15  1  0  0  0  0
 14 28  1  0  0  0  0
 14 29  1  0  0  0  0
 15 30  1  0  0  0  0
 16 22  1  0  0  0  0
 16 17  1  0  0  0  0
 16 18  1  0  0  0  0
 17 31  1  0  0  0  0
 18 23  1  0  0  0  0
 18 19  1  0  0  0  0
 19 32  1  0  0  0  0
M  END
> <s_m_source_file>
AV-unprocessed.smi

> <i_m_source_file_index>
69

> <i_lp_mmshare_version>
43012

> <i_f3d_flags>
0

> <s_epik_input>
bjFbY0hdbmMoW05IMl0pYyhjMTIpbltjSF1uMltDQEBIXTNPW0NASF0oW0NIMl1bT0hdKVtDQEBIXShbT0hdKVtDQEhdM1tPSF0=

> <s_epik_cmdline>
J2VwaWtfcHl0aG9uJywgJy1waCcsICc3LjAnLCAnLXRuJywgJzgnLCAnLW1hJywgJzIwMCcsICctbWV0YWxfYmluZGluZycsICctaW1hZScsICc8aW5maWxlLm1hZT4nLCAnLW9tYWUnLCAnPG91dGZpbGUubWFlPic=

> <r_lp_tautomer_probability>
1

> <r_epik_Ionization_Penalty>
0.000428445

> <r_epik_Ionization_Penalty_Charging>
0

> <r_epik_Ionization_Penalty_Neutral>
0.000428445

> <r_epik_State_Penalty>
-0

> <r_epik_Charging_Adjusted_Penalty>
0

> <i_epik_Tot_Q>
0

> <i_epik_Tot_abs_Q>
0

> <r_epik_Metal_State_Penalty>
-0

> <b_epik_Metal_Only>
0

> <s_epik_Chemistry_Notes>
This compound contains an acetal/aminal-like group ( X-CH(R)-Y where X, Y are N, S, or O) that may be acid/base labile, releasing an aldehyde.

> <s_lp_Force_Field>
OPLS_2005

> <r_lp_Energy>
45.7014

> <b_lp_Chiralities_Consistent>
1

> <s_lp_Variant>
AV-unprocessed.smi:69-4

> <Gold.Version>
5.8.1

> <Gold.Id.Protein>
6NUR|6NUR_protein|mol2

> <Gold.PLP.Fitness>
36.2877

> <Gold.PLP.PLP>
-25.8032

> <Gold.PLP.part.hbond>
-4.5412

> <Gold.PLP.part.metal>
0.0000

> <Gold.PLP.part.buried>
-4.3462

> <Gold.PLP.part.nonpolar>
-16.7538

> <Gold.PLP.part.repulsive>
0.1283

> <Gold.PLP.ligand.clash>
0.0000

> <Gold.PLP.ligand.torsion>
0.7591

> <Gold.PLP.Chemscore.Hbond>
3.0000

> <Gold.PLP.Chemscore.CHOScore>
1.0000

> <Gold.PLP.Chemscore.Metal>
0.0000

> <Gold.Chemscore.Hbonds>
donor molecule, donor type, donor heavy atom, donor atom, acceptor molecule, acceptor atom, score
      L1  H    15    30       P1 10175  0.86
      L1  H    17    31       P1  7957  1.00
      P1  H  7989  7998       L1    19  0.99
      L1  C     9    27       P1  8028  1.00

> <Gold.PLP.Chemscore.Internal.Correction>
0.0026

> <Gold.Rescore>
     Score         DG    S(hbond)    S(metal)    S(lipo)     H(rot)  DE(clash)    DE(int)     intcor
      7.74      -8.29       2.92        0.00      28.74       4.03       0.07       0.47       ----

> <Gold.Chemscore.Fitness>
7.7410

> <Gold.Chemscore.DG>
-8.2885

> <Gold.Chemscore.ZeroCoef>
-5.4800

> <Gold.Chemscore.Hbond>
2.9214

> <Gold.Chemscore.Metal>
0.0000

> <Gold.Chemscore.Lipo>
28.7357

> <Gold.Chemscore.Internal_Hbond>
0.0000

> <Gold.Chemscore.DEClash>
0.0727

> <Gold.Chemscore.DEInternal>
0.4748

> <Gold.Chemscore.Rot>
4.0277

> <Gold.Chemscore.Internal.Correction>
   9.000000E+99

> <Gold.Chemscore.Hbonds>
donor molecule, donor type, donor heavy atom, donor atom, acceptor molecule, acceptor atom, score
      L1  H    15    30       P1 10175  0.84
      L1  H    17    31       P1  7957  0.98
      P1  H  7989  7998       L1    19  0.55

> <Gold.Chemscore.Hbond.Weighted>
-9.7574

> <Gold.Chemscore.Metal.Weighted>
-0.0000

> <Gold.Chemscore.Lipo.Weighted>
-3.3621

> <Gold.Chemscore.Internal_Hbond.Weighted>
0.0000

> <Gold.Chemscore.DEClash.Weighted>
0.0727

> <Gold.Chemscore.DEInternal.Weighted>
0.4748

> <Gold.Chemscore.Rot.Weighted>
10.3110

> <Gold.Chemscore.Internal.Correction.Weighted>
   9.000000E+99

> <Gold.Protein.RotatedTorsions>
[ 6907 6896 6895 6894 ] final  116.98 input  -60.11 | X-H torsion
[ 7974 7965 7964 7962 ] final   -8.73 input  175.53 | X-H torsion
[ 8008 7997 7996 7995 ] final   -8.40 input   59.86 | X-H torsion
[ 10167 10162 10161 10158 ] final  170.04 input  -65.29 | X-H torsion
[ 10718 10713 10712 10709 ] final -174.29 input   66.30 | X-H torsion
[ 10763 10752 10751 10750 ] final -127.67 input  -60.55 | X-H torsion
[ 11005 11000 10999 10996 ] final -156.98 input  -57.11 | X-H torsion

> <Gold.Protein.ActiveResidues>
 VAL166  LYS551  ARG553  GLY616  TRP617  ASP618  TYR619  PRO620  LYS621  CYS622 
 ASP623  PHE694  ASN695  SER759  ASP760  ASP761  ALA762  ILE779  LEU786  VAL792 
 PHE793  MET794  SER795  GLU796  ALA797  LYS798  CYS799  TRP800  GLU811  SER814 

> <Gold.Protein.RotatedAtoms>
  152.4642  133.7887  159.6889 H   0  0  0  0  0  0  0  0  0  0  0  0  # atno 6907 bound_to 6896
  150.8599  133.7649  159.3002 H   0  0  0  0  0  0  0  0  0  0  0  0  # atno 6908 bound_to 6896
  151.5218  135.1070  159.9932 H   0  0  0  0  0  0  0  0  0  0  0  0  # atno 6909 bound_to 6896
  146.2272  140.2512  142.8347 H   0  0  0  0  0  0  0  0  0  0  0  0  # atno 7974 bound_to 7965
  154.5745  140.2382  155.8143 H   0  0  0  0  0  0  0  0  0  0  0  0  # atno 8008 bound_to 7997
  156.2132  140.3020  155.9738 H   0  0  0  0  0  0  0  0  0  0  0  0  # atno 8009 bound_to 7997
  155.2652  140.0416  157.2992 H   0  0  0  0  0  0  0  0  0  0  0  0  # atno 8010 bound_to 7997
  139.5008  144.3640  151.9795 H   0  0  0  0  0  0  0  0  0  0  0  0  # atno 10167 bound_to 10162
  156.7830  130.9490  151.3120 H   0  0  0  0  0  0  0  0  0  0  0  0  # atno 10718 bound_to 10713
  154.8753  135.3954  154.3632 H   0  0  0  0  0  0  0  0  0  0  0  0  # atno 10763 bound_to 10752
  153.4401  135.7026  153.6179 H   0  0  0  0  0  0  0  0  0  0  0  0  # atno 10764 bound_to 10752
  153.4764  135.3779  155.2388 H   0  0  0  0  0  0  0  0  0  0  0  0  # atno 10765 bound_to 10752
  140.6697  134.4261  157.5232 H   0  0  0  0  0  0  0  0  0  0  0  0  # atno 11005 bound_to 11000
  144.9410  140.8078  143.5630 LP  0  0  0  0  0  0  0  0  0  0  0  0  # atno 17320 bound_to 7965
  145.2464  139.2050  143.4966 LP  0  0  0  0  0  0  0  0  0  0  0  0  # atno 17321 bound_to 7965
  140.3076  144.3575  150.6042 LP  0  0  0  0  0  0  0  0  0  0  0  0  # atno 17342 bound_to 10162
  140.5824  143.2172  151.7404 LP  0  0  0  0  0  0  0  0  0  0  0  0  # atno 17343 bound_to 10162
  157.6637  130.8989  149.9886 LP  0  0  0  0  0  0  0  0  0  0  0  0  # atno 17370 bound_to 10713
  156.1206  130.3646  149.9893 LP  0  0  0  0  0  0  0  0  0  0  0  0  # atno 17371 bound_to 10713
  139.8986  134.8611  156.1996 LP  0  0  0  0  0  0  0  0  0  0  0  0  # atno 17394 bound_to 11000
  141.0402  133.6942  156.1584 LP  0  0  0  0  0  0  0  0  0  0  0  0  # atno 17395 bound_to 11000

$$$$
