AV-unprocessed.smi:1978|AV-procd|sdf|8000|dock4
  -GOLD-   2272010183D 1   1.00000     0.00000
 Structure written by MMmdl.
 44 45  0  0  0  0  0  0  0  0  3 V2000
  143.7748  143.4736  162.5934 C   0  0  0  0  0  0  0  0  0  0  0  0
  144.8105  143.2892  161.5374 C   0  0  0  0  0  0  0  0  0  0  0  0
  144.8179  143.5311  160.1929 C   0  0  0  0  0  0  0  0  0  0  0  0
  146.1256  143.1357  159.7990 C   0  0  0  0  0  0  0  0  0  0  0  0
  146.6211  143.1743  158.5524 N   0  5  0  0  0  0  0  0  0  0  0  0
  147.0502  142.0395  157.9555 C   0  0  0  0  0  0  0  0  0  0  0  0
  146.7779  140.8853  158.2943 O   0  0  0  0  0  0  0  0  0  0  0  0
  147.8499  142.2546  156.9009 N   0  0  0  0  0  0  0  0  0  0  0  0
  148.4687  141.2195  156.0781 C   0  0  0  0  0  0  0  0  0  0  0  0
  149.9211  140.8746  156.5207 C   0  0  2  0  0  0  0  0  0  0  0  0
  150.6795  142.1812  156.8643 C   0  0  0  0  0  0  0  0  0  0  0  0
  150.6686  140.0611  155.4995 N   0  3  1  0  0  0  0  0  0  0  0  0
  152.0983  139.8132  155.8612 C   0  0  0  0  0  0  0  0  0  0  0  0
  152.8835  139.1726  154.7052 C   0  0  0  0  0  0  0  0  0  0  0  0
  152.2285  137.8716  154.2400 C   0  0  0  0  0  0  0  0  0  0  0  0
  150.7637  138.1407  153.8824 C   0  0  0  0  0  0  0  0  0  0  0  0
  149.9896  138.8015  155.0426 C   0  0  1  0  0  0  0  0  0  0  0  0
  149.7046  137.8057  156.1898 C   0  0  0  0  0  0  0  0  0  0  0  0
  146.8416  142.6768  160.8117 N   0  0  0  0  0  0  0  0  0  0  0  0
  146.0076  142.7774  161.9316 O   0  0  0  0  0  0  0  0  0  0  0  0
  142.8906  142.8753  162.3736 H   0  0  0  0  0  0  0  0  0  0  0  0
  143.4704  144.5183  162.6563 H   0  0  0  0  0  0  0  0  0  0  0  0
  144.1514  143.1720  163.5711 H   0  0  0  0  0  0  0  0  0  0  0  0
  144.0182  143.9310  159.5879 H   0  0  0  0  0  0  0  0  0  0  0  0
  148.0422  143.2145  156.6532 H   0  0  0  0  0  0  0  0  0  0  0  0
  147.8044  140.3575  156.1201 H   0  0  0  0  0  0  0  0  0  0  0  0
  148.4652  141.5632  155.0434 H   0  0  0  0  0  0  0  0  0  0  0  0
  149.8647  140.2789  157.4326 H   0  0  0  0  0  0  0  0  0  0  0  0
  150.1055  142.8283  157.5265 H   0  0  0  0  0  0  0  0  0  0  0  0
  150.9041  142.7555  155.9652 H   0  0  0  0  0  0  0  0  0  0  0  0
  151.6125  141.9986  157.3943 H   0  0  0  0  0  0  0  0  0  0  0  0
  152.6121  140.7401  156.1027 H   0  0  0  0  0  0  0  0  0  0  0  0
  152.1555  139.1889  156.7534 H   0  0  0  0  0  0  0  0  0  0  0  0
  152.9401  139.8731  153.8706 H   0  0  0  0  0  0  0  0  0  0  0  0
  153.9110  138.9798  155.0157 H   0  0  0  0  0  0  0  0  0  0  0  0
  152.7594  137.4713  153.3757 H   0  0  0  0  0  0  0  0  0  0  0  0
  152.2966  137.1162  155.0232 H   0  0  0  0  0  0  0  0  0  0  0  0
  150.7257  138.7940  153.0092 H   0  0  0  0  0  0  0  0  0  0  0  0
  150.2769  137.2117  153.5834 H   0  0  0  0  0  0  0  0  0  0  0  0
  149.0331  139.0703  154.5978 H   0  0  0  0  0  0  0  0  0  0  0  0
  149.1872  136.9235  155.8120 H   0  0  0  0  0  0  0  0  0  0  0  0
  149.0662  138.2373  156.9599 H   0  0  0  0  0  0  0  0  0  0  0  0
  150.6160  137.4612  156.6766 H   0  0  0  0  0  0  0  0  0  0  0  0
  150.7000  140.6469  154.6774 H   0  0  0  0  0  0  0  0  0  0  0  0
  1  2  1  0  0  0  0
  1 21  1  0  0  0  0
  1 22  1  0  0  0  0
  1 23  1  0  0  0  0
  2 20  1  0  0  0  0
  2  3  2  0  0  0  0
  3  4  1  0  0  0  0
  3 24  1  0  0  0  0
  4  5  1  0  0  0  0
  4 19  2  0  0  0  0
  5  6  1  0  0  0  0
  6  7  2  0  0  0  0
  6  8  1  0  0  0  0
  8  9  1  0  0  0  0
  8 25  1  0  0  0  0
  9 10  1  0  0  0  0
  9 26  1  0  0  0  0
  9 27  1  0  0  0  0
 10 11  1  0  0  0  0
 10 12  1  0  0  0  0
 10 28  1  0  0  0  0
 11 29  1  0  0  0  0
 11 30  1  0  0  0  0
 11 31  1  0  0  0  0
 12 17  1  0  0  0  0
 12 13  1  0  0  0  0
 12 44  1  0  0  0  0
 13 14  1  0  0  0  0
 13 32  1  0  0  0  0
 13 33  1  0  0  0  0
 14 15  1  0  0  0  0
 14 34  1  0  0  0  0
 14 35  1  0  0  0  0
 15 16  1  0  0  0  0
 15 36  1  0  0  0  0
 15 37  1  0  0  0  0
 16 17  1  0  0  0  0
 16 38  1  0  0  0  0
 16 39  1  0  0  0  0
 17 18  1  0  0  0  0
 17 40  1  0  0  0  0
 18 41  1  0  0  0  0
 18 42  1  0  0  0  0
 18 43  1  0  0  0  0
 19 20  1  0  0  0  0
M  CHG  1   5  -1
M  CHG  1  12   1
M  END
> <s_m_source_file>
AV-unprocessed.smi

> <i_m_source_file_index>
1978

> <i_lp_mmshare_version>
43012

> <i_f3d_flags>
0

> <s_epik_input>
W0NIM11jMVtjSF1jKG5vMSlbTkhdQyg9TylbTkhdW0NIMl1bQ0BIXShbQ0gzXSlOMltDSDJdW0NIMl1bQ0gyXVtDSDJdW0NASF0yW0NIM10=

> <s_epik_cmdline>
J2VwaWtfcHl0aG9uJywgJy1waCcsICc3LjAnLCAnLXRuJywgJzgnLCAnLW1hJywgJzIwMCcsICctbWV0YWxfYmluZGluZycsICctaW1hZScsICc8aW5maWxlLm1hZT4nLCAnLW9tYWUnLCAnPG91dGZpbGUubWFlPic=

> <r_epik_Ionization_Penalty>
6.22372

> <r_epik_Ionization_Penalty_Charging>
6.22362

> <r_epik_Ionization_Penalty_Neutral>
9.65074e-05

> <r_epik_State_Penalty>
6.22363

> <r_epik_Charging_Adjusted_Penalty>
12.4472

> <i_epik_Tot_Q>
0

> <i_epik_Tot_abs_Q>
2

> <r_epik_Metal_State_Penalty>
2.16675

> <b_epik_Metal_Only>
1

> <s_lp_Force_Field>
OPLS_2005

> <r_lp_Energy>
12.8084

> <b_lp_Chiralities_Consistent>
1

> <s_lp_Variant>
AV-unprocessed.smi:1978-9

> <Gold.Version>
5.8.1

> <Gold.Id.Protein>
6NUR|6NUR_protein|mol2

> <Gold.PLP.Fitness>
37.0249

> <Gold.PLP.PLP>
-30.8599

> <Gold.PLP.part.hbond>
-4.0000

> <Gold.PLP.part.metal>
0.0000

> <Gold.PLP.part.buried>
-2.8934

> <Gold.PLP.part.nonpolar>
-25.9662

> <Gold.PLP.part.repulsive>
0.3080

> <Gold.PLP.ligand.clash>
0.0000

> <Gold.PLP.ligand.torsion>
0.9550

> <Gold.PLP.Chemscore.Hbond>
2.6440

> <Gold.PLP.Chemscore.CHOScore>
0.0000

> <Gold.PLP.Chemscore.Metal>
0.0000

> <Gold.Chemscore.Hbonds>
donor molecule, donor type, donor heavy atom, donor atom, acceptor molecule, acceptor atom, score
      L1  H     8    25       P1  8028  0.85
      P1  H  6933  6944       L1    19  0.82
      P1  H  6934  6946       L1    19  0.73

> <Gold.PLP.Chemscore.Internal.Correction>
0.1429

> <Gold.Rescore>
     Score         DG    S(hbond)    S(metal)    S(lipo)     H(rot)  DE(clash)    DE(int)     intcor
     12.73     -14.03       1.20        0.00      72.12       1.52       0.26       1.04       ----

> <Gold.Chemscore.Fitness>
12.7336

> <Gold.Chemscore.DG>
-14.0271

> <Gold.Chemscore.ZeroCoef>
-5.4800

> <Gold.Chemscore.Hbond>
1.1968

> <Gold.Chemscore.Metal>
0.0000

> <Gold.Chemscore.Lipo>
72.1232

> <Gold.Chemscore.Internal_Hbond>
0.0000

> <Gold.Chemscore.DEClash>
0.2566

> <Gold.Chemscore.DEInternal>
1.0368

> <Gold.Chemscore.Rot>
1.5190

> <Gold.Chemscore.Internal.Correction>
   9.000000E+99

> <Gold.Chemscore.Hbonds>
donor molecule, donor type, donor heavy atom, donor atom, acceptor molecule, acceptor atom, score
      L1  H     8    25       P1  8028  0.14
      P1  H  6933  6944       L1    19  0.45
      P1  H  6934  6946       L1    19  0.11

> <Gold.Chemscore.Hbond.Weighted>
-3.9973

> <Gold.Chemscore.Metal.Weighted>
-0.0000

> <Gold.Chemscore.Lipo.Weighted>
-8.4384

> <Gold.Chemscore.Internal_Hbond.Weighted>
0.0000

> <Gold.Chemscore.DEClash.Weighted>
0.2566

> <Gold.Chemscore.DEInternal.Weighted>
1.0368

> <Gold.Chemscore.Rot.Weighted>
3.8886

> <Gold.Chemscore.Internal.Correction.Weighted>
   9.000000E+99

> <Gold.Protein.RotatedTorsions>
[ 6907 6896 6895 6894 ] final  -77.51 input  -60.11 | X-H torsion
[ 7974 7965 7964 7962 ] final  118.79 input  175.53 | X-H torsion
[ 8008 7997 7996 7995 ] final  151.21 input   59.86 | X-H torsion
[ 10167 10162 10161 10158 ] final   93.10 input  -65.29 | X-H torsion
[ 10718 10713 10712 10709 ] final  129.75 input   66.30 | X-H torsion
[ 10763 10752 10751 10750 ] final  123.91 input  -60.55 | X-H torsion
[ 11005 11000 10999 10996 ] final  -97.80 input  -57.11 | X-H torsion

> <Gold.Protein.ActiveResidues>
 VAL166  LYS551  ARG553  GLY616  TRP617  ASP618  TYR619  PRO620  LYS621  CYS622 
 ASP623  PHE694  ASN695  SER759  ASP760  ASP761  ALA762  ILE779  LEU786  VAL792 
 PHE793  MET794  SER795  GLU796  ALA797  LYS798  CYS799  TRP800  GLU811  SER814 

> <Gold.Protein.RotatedAtoms>
  150.6997  134.4412  159.5292 H   0  0  0  0  0  0  0  0  0  0  0  0  # atno 6907 bound_to 6896
  152.2121  134.8489  160.0505 H   0  0  0  0  0  0  0  0  0  0  0  0  # atno 6908 bound_to 6896
  151.9370  133.3592  159.3988 H   0  0  0  0  0  0  0  0  0  0  0  0  # atno 6909 bound_to 6896
  145.1510  139.3210  143.4566 H   0  0  0  0  0  0  0  0  0  0  0  0  # atno 7974 bound_to 7965
  156.2683  140.2054  156.6140 H   0  0  0  0  0  0  0  0  0  0  0  0  # atno 8008 bound_to 7997
  154.6809  140.0540  157.0288 H   0  0  0  0  0  0  0  0  0  0  0  0  # atno 8009 bound_to 7997
  155.1002  140.3205  155.4552 H   0  0  0  0  0  0  0  0  0  0  0  0  # atno 8010 bound_to 7997
  139.8213  144.6730  150.9516 H   0  0  0  0  0  0  0  0  0  0  0  0  # atno 10167 bound_to 10162
  157.5126  131.1097  150.9271 H   0  0  0  0  0  0  0  0  0  0  0  0  # atno 10718 bound_to 10713
  153.6530  135.3359  155.3105 H   0  0  0  0  0  0  0  0  0  0  0  0  # atno 10763 bound_to 10752
  154.8533  135.4345  154.1884 H   0  0  0  0  0  0  0  0  0  0  0  0  # atno 10764 bound_to 10752
  153.2832  135.7010  153.7440 H   0  0  0  0  0  0  0  0  0  0  0  0  # atno 10765 bound_to 10752
  141.1366  133.8198  157.0755 H   0  0  0  0  0  0  0  0  0  0  0  0  # atno 11005 bound_to 11000
  146.3494  140.1584  142.8591 LP  0  0  0  0  0  0  0  0  0  0  0  0  # atno 17320 bound_to 7965
  145.0431  140.8960  143.5040 LP  0  0  0  0  0  0  0  0  0  0  0  0  # atno 17321 bound_to 7965
  140.7813  143.4089  151.1025 LP  0  0  0  0  0  0  0  0  0  0  0  0  # atno 17342 bound_to 10162
  139.7749  143.8439  152.3127 LP  0  0  0  0  0  0  0  0  0  0  0  0  # atno 17343 bound_to 10162
  156.9907  130.5562  149.5303 LP  0  0  0  0  0  0  0  0  0  0  0  0  # atno 17370 bound_to 10713
  156.0299  130.5391  150.8506 LP  0  0  0  0  0  0  0  0  0  0  0  0  # atno 17371 bound_to 10713
  140.0484  134.9818  157.1092 LP  0  0  0  0  0  0  0  0  0  0  0  0  # atno 17394 bound_to 11000
  140.4027  134.2065  155.7163 LP  0  0  0  0  0  0  0  0  0  0  0  0  # atno 17395 bound_to 11000

$$$$
