AV-unprocessed.smi:2142|AV-procd|sdf|8721|dock7
  -GOLD-   2272011493D 1   1.00000     0.00000
 Structure written by MMmdl.
 39 40  0  0  0  0  0  0  0  0  2 V2000
  143.4004  145.1007  155.2201 C   0  0  0  0  0  0  0  0  0  0  0  0
  143.9567  143.8080  155.3833 O   0  0  0  0  0  0  0  0  0  0  0  0
  144.6883  143.6802  156.5913 C   0  0  0  0  0  0  0  0  0  0  0  0
  145.0795  142.2131  156.7934 C   0  0  0  0  0  0  0  0  0  0  0  0
  145.6906  141.7292  155.6010 O   0  0  0  0  0  0  0  0  0  0  0  0
  147.0531  141.5091  155.6025 C   0  0  0  0  0  0  0  0  0  0  0  0
  147.7036  141.3192  156.8365 C   0  0  0  0  0  0  0  0  0  0  0  0
  149.0945  141.1028  156.8407 C   0  0  0  0  0  0  0  0  0  0  0  0
  149.8052  141.0838  155.6204 C   0  0  0  0  0  0  0  0  0  0  0  0
  151.1319  140.8820  155.5826 N   0  5  0  0  0  0  0  0  0  0  0  0
  151.8388  140.7315  156.7351 C   0  0  0  0  0  0  0  0  0  0  0  0
  152.4809  139.7199  157.0284 O   0  0  0  0  0  0  0  0  0  0  0  0
  151.8581  141.8339  157.7390 C   0  0  0  0  0  0  0  0  0  0  0  0
  152.4330  141.6459  158.8858 N   0  0  0  0  0  0  0  0  0  0  0  0
  152.5022  142.6348  159.8453 N   0  0  0  0  0  0  0  0  0  0  0  0
  153.4125  142.3511  160.9527 C   0  0  0  0  0  0  0  0  0  0  0  0
  151.7813  143.7828  159.8221 C   0  0  0  0  0  0  0  0  0  0  0  0
  151.8674  144.6628  160.6788 O   0  0  0  0  0  0  0  0  0  0  0  0
  150.7919  143.9436  158.6652 C   0  0  0  0  0  0  0  0  0  0  0  0
  151.2403  143.1799  157.4038 C   0  0  0  0  0  0  0  0  0  0  0  0
  149.0495  141.2770  154.4417 C   0  0  0  0  0  0  0  0  0  0  0  0
  147.7158  141.4859  154.4211 N   0  0  0  0  0  0  0  0  0  0  0  0
  142.8453  145.1451  154.2831 H   0  0  0  0  0  0  0  0  0  0  0  0
  144.1790  145.8640  155.1871 H   0  0  0  0  0  0  0  0  0  0  0  0
  142.7110  145.3386  156.0314 H   0  0  0  0  0  0  0  0  0  0  0  0
  145.5909  144.2896  156.5288 H   0  0  0  0  0  0  0  0  0  0  0  0
  144.1074  144.0411  157.4415 H   0  0  0  0  0  0  0  0  0  0  0  0
  145.7471  142.1144  157.6510 H   0  0  0  0  0  0  0  0  0  0  0  0
  144.1795  141.6317  156.9999 H   0  0  0  0  0  0  0  0  0  0  0  0
  147.1485  141.3417  157.7624 H   0  0  0  0  0  0  0  0  0  0  0  0
  149.6124  140.9574  157.7776 H   0  0  0  0  0  0  0  0  0  0  0  0
  152.8711  142.3283  161.8995 H   0  0  0  0  0  0  0  0  0  0  0  0
  154.1864  143.1168  161.0189 H   0  0  0  0  0  0  0  0  0  0  0  0
  153.9121  141.3880  160.8349 H   0  0  0  0  0  0  0  0  0  0  0  0
  149.8290  143.5590  159.0033 H   0  0  0  0  0  0  0  0  0  0  0  0
  150.6468  145.0002  158.4381 H   0  0  0  0  0  0  0  0  0  0  0  0
  151.9612  143.7761  156.8433 H   0  0  0  0  0  0  0  0  0  0  0  0
  150.3717  143.0574  156.7558 H   0  0  0  0  0  0  0  0  0  0  0  0
  149.5343  141.2685  153.4761 H   0  0  0  0  0  0  0  0  0  0  0  0
  1  2  1  0  0  0  0
  1 23  1  0  0  0  0
  1 24  1  0  0  0  0
  1 25  1  0  0  0  0
  2  3  1  0  0  0  0
  3  4  1  0  0  0  0
  3 26  1  0  0  0  0
  3 27  1  0  0  0  0
  4  5  1  0  0  0  0
  4 28  1  0  0  0  0
  4 29  1  0  0  0  0
  5  6  1  0  0  0  0
  6 22  1  0  0  0  0
  6  7  2  0  0  0  0
  7  8  1  0  0  0  0
  7 30  1  0  0  0  0
  8  9  2  0  0  0  0
  8 31  1  0  0  0  0
  9 10  1  0  0  0  0
  9 21  1  0  0  0  0
 10 11  1  0  0  0  0
 11 12  2  0  0  0  0
 11 13  1  0  0  0  0
 13 20  1  0  0  0  0
 13 14  2  0  0  0  0
 14 15  1  0  0  0  0
 15 16  1  0  0  0  0
 15 17  1  0  0  0  0
 16 32  1  0  0  0  0
 16 33  1  0  0  0  0
 16 34  1  0  0  0  0
 17 18  2  0  0  0  0
 17 19  1  0  0  0  0
 19 20  1  0  0  0  0
 19 35  1  0  0  0  0
 19 36  1  0  0  0  0
 20 37  1  0  0  0  0
 20 38  1  0  0  0  0
 21 22  2  0  0  0  0
 21 39  1  0  0  0  0
M  CHG  1  10  -1
M  END
> <s_m_source_file>
AV-unprocessed.smi

> <i_m_source_file_index>
2142

> <i_lp_mmshare_version>
43012

> <i_f3d_flags>
0

> <s_epik_input>
W0NIM11PW0NIMl1bQ0gyXU9jMVtjSF1bY0hdYyhbY0hdbjEpW05IXUMoPU8pQzI9Tk4oW0NIM10pQyg9TylbQ0gyXVtDSDJdMg==

> <s_epik_cmdline>
J2VwaWtfcHl0aG9uJywgJy1waCcsICc3LjAnLCAnLXRuJywgJzgnLCAnLW1hJywgJzIwMCcsICctbWV0YWxfYmluZGluZycsICctaW1hZScsICc8aW5maWxlLm1hZT4nLCAnLW9tYWUnLCAnPG91dGZpbGUubWFlPic=

> <r_lp_tautomer_probability>
1

> <r_epik_Ionization_Penalty>
5.98992

> <r_epik_Ionization_Penalty_Charging>
5.98968

> <r_epik_Ionization_Penalty_Neutral>
0.000245408

> <r_epik_State_Penalty>
5.98965

> <r_epik_Charging_Adjusted_Penalty>
11.9793

> <i_epik_Tot_Q>
-1

> <i_epik_Tot_abs_Q>
1

> <r_epik_Metal_State_Penalty>
1.94325

> <b_epik_Metal_Only>
1

> <s_epik_Chemistry_Notes>
This compound has an imine and may undergo hydrolysis.

> <s_lp_Force_Field>
OPLS_2005

> <r_lp_Energy>
19.7207

> <b_lp_Chiralities_Consistent>
1

> <s_lp_Variant>
AV-unprocessed.smi:2142-2

> <Gold.Version>
5.8.1

> <Gold.Id.Protein>
6NUR|6NUR_protein|mol2

> <Gold.PLP.Fitness>
42.2864

> <Gold.PLP.PLP>
-36.2185

> <Gold.PLP.part.hbond>
-1.9400

> <Gold.PLP.part.metal>
0.0000

> <Gold.PLP.part.buried>
-5.3581

> <Gold.PLP.part.nonpolar>
-27.3239

> <Gold.PLP.part.repulsive>
0.5964

> <Gold.PLP.ligand.clash>
0.1154

> <Gold.PLP.ligand.torsion>
1.2773

> <Gold.PLP.Chemscore.Hbond>
1.6362

> <Gold.PLP.Chemscore.CHOScore>
1.0000

> <Gold.PLP.Chemscore.Metal>
0.0000

> <Gold.Chemscore.Hbonds>
donor molecule, donor type, donor heavy atom, donor atom, acceptor molecule, acceptor atom, score
      P1  H  7989  7998       L1    10  0.54
      P1  H  7997  8008       L1    12  1.00
      L1  C    21    39       P1  7957  0.79

> <Gold.PLP.Chemscore.Internal.Correction>
0.8295

> <Gold.Rescore>
     Score         DG    S(hbond)    S(metal)    S(lipo)     H(rot)  DE(clash)    DE(int)     intcor
      8.83     -13.64       1.30        0.00      70.09       1.71       1.47       3.34       ----

> <Gold.Chemscore.Fitness>
8.8288

> <Gold.Chemscore.DG>
-13.6410

> <Gold.Chemscore.ZeroCoef>
-5.4800

> <Gold.Chemscore.Hbond>
1.2977

> <Gold.Chemscore.Metal>
0.0000

> <Gold.Chemscore.Lipo>
70.0936

> <Gold.Chemscore.Internal_Hbond>
0.0000

> <Gold.Chemscore.DEClash>
1.4674

> <Gold.Chemscore.DEInternal>
3.3449

> <Gold.Chemscore.Rot>
1.7087

> <Gold.Chemscore.Internal.Correction>
   9.000000E+99

> <Gold.Chemscore.Hbonds>
donor molecule, donor type, donor heavy atom, donor atom, acceptor molecule, acceptor atom, score
      P1  H  7989  7998       L1    10  0.27
      P1  H  7997  8008       L1    12  0.64

> <Gold.Chemscore.Hbond.Weighted>
-4.3342

> <Gold.Chemscore.Metal.Weighted>
-0.0000

> <Gold.Chemscore.Lipo.Weighted>
-8.2010

> <Gold.Chemscore.Internal_Hbond.Weighted>
0.0000

> <Gold.Chemscore.DEClash.Weighted>
1.4674

> <Gold.Chemscore.DEInternal.Weighted>
3.3449

> <Gold.Chemscore.Rot.Weighted>
4.3742

> <Gold.Chemscore.Internal.Correction.Weighted>
   9.000000E+99

> <Gold.Protein.RotatedTorsions>
[ 6907 6896 6895 6894 ] final  -28.56 input  -60.11 | X-H torsion
[ 7974 7965 7964 7962 ] final  146.42 input  175.53 | X-H torsion
[ 8008 7997 7996 7995 ] final  -62.32 input   59.86 | X-H torsion
[ 10167 10162 10161 10158 ] final  134.43 input  -65.29 | X-H torsion
[ 10718 10713 10712 10709 ] final  -58.12 input   66.30 | X-H torsion
[ 10763 10752 10751 10750 ] final  135.78 input  -60.55 | X-H torsion
[ 11005 11000 10999 10996 ] final  -64.80 input  -57.11 | X-H torsion

> <Gold.Protein.ActiveResidues>
 VAL166  LYS551  ARG553  GLY616  TRP617  ASP618  TYR619  PRO620  LYS621  CYS622 
 ASP623  PHE694  ASN695  SER759  ASP760  ASP761  ALA762  ILE779  LEU786  VAL792 
 PHE793  MET794  SER795  GLU796  ALA797  LYS798  CYS799  TRP800  GLU811  SER814 

> <Gold.Protein.RotatedAtoms>
  151.1313  135.0131  159.8583 H   0  0  0  0  0  0  0  0  0  0  0  0  # atno 6907 bound_to 6896
  152.5451  134.1607  159.8567 H   0  0  0  0  0  0  0  0  0  0  0  0  # atno 6908 bound_to 6896
  151.1674  133.4761  159.2627 H   0  0  0  0  0  0  0  0  0  0  0  0  # atno 6909 bound_to 6896
  144.8672  139.5903  143.5903 H   0  0  0  0  0  0  0  0  0  0  0  0  # atno 7974 bound_to 7965
  154.4493  140.0998  156.6569 H   0  0  0  0  0  0  0  0  0  0  0  0  # atno 8008 bound_to 7997
  155.5336  140.3482  155.4413 H   0  0  0  0  0  0  0  0  0  0  0  0  # atno 8009 bound_to 7997
  156.0647  140.1335  156.9889 H   0  0  0  0  0  0  0  0  0  0  0  0  # atno 8010 bound_to 7997
  139.5256  144.6567  151.5139 H   0  0  0  0  0  0  0  0  0  0  0  0  # atno 10167 bound_to 10162
  156.1159  130.4170  150.0534 H   0  0  0  0  0  0  0  0  0  0  0  0  # atno 10718 bound_to 10713
  153.8457  135.3085  155.3429 H   0  0  0  0  0  0  0  0  0  0  0  0  # atno 10763 bound_to 10752
  154.7913  135.4781  154.0062 H   0  0  0  0  0  0  0  0  0  0  0  0  # atno 10764 bound_to 10752
  153.1548  135.6850  153.8920 H   0  0  0  0  0  0  0  0  0  0  0  0  # atno 10765 bound_to 10752
  141.1436  133.6671  156.5889 H   0  0  0  0  0  0  0  0  0  0  0  0  # atno 11005 bound_to 11000
  146.2904  139.7124  142.9165 LP  0  0  0  0  0  0  0  0  0  0  0  0  # atno 17320 bound_to 7965
  145.4198  141.0405  143.2970 LP  0  0  0  0  0  0  0  0  0  0  0  0  # atno 17321 bound_to 7965
  140.6397  143.8914  150.6680 LP  0  0  0  0  0  0  0  0  0  0  0  0  # atno 17342 bound_to 10162
  140.2245  143.3783  152.1616 LP  0  0  0  0  0  0  0  0  0  0  0  0  # atno 17343 bound_to 10162
  156.8485  130.9450  151.3627 LP  0  0  0  0  0  0  0  0  0  0  0  0  # atno 17370 bound_to 10713
  157.6342  130.8753  149.9329 LP  0  0  0  0  0  0  0  0  0  0  0  0  # atno 17371 bound_to 10713
  140.3779  134.7549  157.4642 LP  0  0  0  0  0  0  0  0  0  0  0  0  # atno 17394 bound_to 11000
  140.0660  134.5928  155.8694 LP  0  0  0  0  0  0  0  0  0  0  0  0  # atno 17395 bound_to 11000

$$$$
