AV-unprocessed.smi:2241|AV-procd|sdf|9059|dock9
  -GOLD-   2272012263D 1   1.00000     0.00000
 Structure written by MMmdl.
 45 47  0  0  0  0  0  0  0  0  1 V2000
  151.5706  144.5088  159.8564 C   0  0  0  0  0  0  0  0  0  0  0  0
  152.2811  143.1730  159.7796 C   0  0  0  0  0  0  0  0  0  0  0  0
  153.1536  142.7705  160.8097 C   0  0  0  0  0  0  0  0  0  0  0  0
  153.8089  141.5283  160.7294 C   0  0  0  0  0  0  0  0  0  0  0  0
  153.5960  140.6862  159.6209 C   0  0  0  0  0  0  0  0  0  0  0  0
  154.4159  139.1674  159.5437 Cl  0  0  0  0  0  0  0  0  0  0  0  0
  152.7247  141.0757  158.5800 C   0  0  0  0  0  0  0  0  0  0  0  0
  152.5691  140.2006  157.5263 O   0  0  0  0  0  0  0  0  0  0  0  0
  151.6732  140.5459  156.4788 C   0  0  0  0  0  0  0  0  0  0  0  0
  151.1249  139.2467  155.8699 C   0  0  1  0  0  0  0  0  0  0  0  0
  151.2159  139.3684  154.4647 O   0  0  0  0  0  0  0  0  0  0  0  0
  151.9364  138.0092  156.3175 C   0  0  0  0  0  0  0  0  0  0  0  0
  151.2145  136.7528  156.0664 N   0  0  0  0  0  0  0  0  0  0  0  0
  151.0480  136.3848  154.7183 C   0  0  0  0  0  0  0  0  0  0  0  0
  150.4491  135.2873  154.3807 N   0  0  0  0  0  0  0  0  0  0  0  0
  149.9432  134.4376  155.3715 C   0  0  0  0  0  0  0  0  0  0  0  0
  149.2412  133.1651  154.9177 C   0  0  0  0  0  0  0  0  0  0  0  0
  150.0433  131.8596  155.0521 C   0  0  0  0  0  0  0  0  0  0  0  0
  149.4334  131.4241  153.7152 C   0  0  0  0  0  0  0  0  0  0  0  0
  149.2246  132.9102  153.4020 C   0  0  0  0  0  0  0  0  0  0  0  0
  150.0563  134.7625  156.6815 C   0  0  0  0  0  0  0  0  0  0  0  0
  150.7273  135.9957  157.0924 C   0  0  0  0  0  0  0  0  0  0  0  0
  150.8452  136.3256  158.2728 O   0  0  0  0  0  0  0  0  0  0  0  0
  152.0659  142.3281  158.6718 C   0  0  0  0  0  0  0  0  0  0  0  0
  151.9477  145.1137  160.6815 H   0  0  0  0  0  0  0  0  0  0  0  0
  150.5008  144.3585  160.0036 H   0  0  0  0  0  0  0  0  0  0  0  0
  151.7151  145.0693  158.9322 H   0  0  0  0  0  0  0  0  0  0  0  0
  153.3238  143.4102  161.6634 H   0  0  0  0  0  0  0  0  0  0  0  0
  154.4776  141.2217  161.5201 H   0  0  0  0  0  0  0  0  0  0  0  0
  150.8564  141.1436  156.8875 H   0  0  0  0  0  0  0  0  0  0  0  0
  152.1760  141.1352  155.7097 H   0  0  0  0  0  0  0  0  0  0  0  0
  150.0723  139.1488  156.1397 H   0  0  0  0  0  0  0  0  0  0  0  0
  150.6372  138.7346  154.0696 H   0  0  0  0  0  0  0  0  0  0  0  0
  152.9302  138.0113  155.8646 H   0  0  0  0  0  0  0  0  0  0  0  0
  152.1398  138.0710  157.3881 H   0  0  0  0  0  0  0  0  0  0  0  0
  151.4548  137.0853  153.9868 H   0  0  0  0  0  0  0  0  0  0  0  0
  148.2451  133.0765  155.3550 H   0  0  0  0  0  0  0  0  0  0  0  0
  151.1242  131.9989  154.9872 H   0  0  0  0  0  0  0  0  0  0  0  0
  149.7665  131.2396  155.9050 H   0  0  0  0  0  0  0  0  0  0  0  0
  150.1212  130.9075  153.0451 H   0  0  0  0  0  0  0  0  0  0  0  0
  148.4955  130.8793  153.8345 H   0  0  0  0  0  0  0  0  0  0  0  0
  148.2809  133.1455  152.9093 H   0  0  0  0  0  0  0  0  0  0  0  0
  150.0753  133.3490  152.8771 H   0  0  0  0  0  0  0  0  0  0  0  0
  149.6550  134.1057  157.4397 H   0  0  0  0  0  0  0  0  0  0  0  0
  151.3883  142.6632  157.9015 H   0  0  0  0  0  0  0  0  0  0  0  0
  1  2  1  0  0  0  0
  1 25  1  0  0  0  0
  1 26  1  0  0  0  0
  1 27  1  0  0  0  0
  2 24  1  0  0  0  0
  2  3  2  0  0  0  0
  3  4  1  0  0  0  0
  3 28  1  0  0  0  0
  4  5  2  0  0  0  0
  4 29  1  0  0  0  0
  5  6  1  0  0  0  0
  5  7  1  0  0  0  0
  7  8  1  0  0  0  0
  7 24  2  0  0  0  0
  8  9  1  0  0  0  0
  9 10  1  0  0  0  0
  9 30  1  0  0  0  0
  9 31  1  0  0  0  0
 10 11  1  0  0  0  0
 10 12  1  0  0  0  0
 10 32  1  0  0  0  0
 11 33  1  0  0  0  0
 12 13  1  0  0  0  0
 12 34  1  0  0  0  0
 12 35  1  0  0  0  0
 13 22  1  0  0  0  0
 13 14  1  0  0  0  0
 14 15  2  0  0  0  0
 14 36  1  0  0  0  0
 15 16  1  0  0  0  0
 16 17  1  0  0  0  0
 16 21  2  0  0  0  0
 17 20  1  0  0  0  0
 17 18  1  0  0  0  0
 17 37  1  0  0  0  0
 18 19  1  0  0  0  0
 18 38  1  0  0  0  0
 18 39  1  0  0  0  0
 19 20  1  0  0  0  0
 19 40  1  0  0  0  0
 19 41  1  0  0  0  0
 20 42  1  0  0  0  0
 20 43  1  0  0  0  0
 21 22  1  0  0  0  0
 21 44  1  0  0  0  0
 22 23  2  0  0  0  0
 24 45  1  0  0  0  0
M  END
> <s_m_source_file>
AV-unprocessed.smi

> <i_m_source_file_index>
2241

> <i_lp_mmshare_version>
43012

> <i_f3d_flags>
0

> <s_epik_input>
W0NIM11jMVtjSF1bY0hdYyhDbCljKFtjSF0xKU9bQ0gyXVtDQEhdKFtPSF0pW0NIMl1uMltjSF1uYyhbY0hdYzI9TylbQ0hdM1tDSDJdW0NIMl1bQ0gyXTM=

> <s_epik_cmdline>
J2VwaWtfcHl0aG9uJywgJy1waCcsICc3LjAnLCAnLXRuJywgJzgnLCAnLW1hJywgJzIwMCcsICctbWV0YWxfYmluZGluZycsICctaW1hZScsICc8aW5maWxlLm1hZT4nLCAnLW9tYWUnLCAnPG91dGZpbGUubWFlPic=

> <r_lp_tautomer_probability>
1

> <r_epik_Ionization_Penalty>
1.78212e-05

> <r_epik_Ionization_Penalty_Charging>
5.61663e-08

> <r_epik_Ionization_Penalty_Neutral>
1.7765e-05

> <r_epik_State_Penalty>
-0

> <r_epik_Charging_Adjusted_Penalty>
5.61663e-08

> <i_epik_Tot_Q>
0

> <i_epik_Tot_abs_Q>
0

> <r_epik_Metal_State_Penalty>
-0

> <b_epik_Metal_Only>
0

> <s_lp_Force_Field>
OPLS_2005

> <r_lp_Energy>
30.2703

> <b_lp_Chiralities_Consistent>
1

> <s_lp_Variant>
AV-unprocessed.smi:2241-2

> <Gold.Version>
5.8.1

> <Gold.Id.Protein>
6NUR|6NUR_protein|mol2

> <Gold.PLP.Fitness>
51.5754

> <Gold.PLP.PLP>
-44.7628

> <Gold.PLP.part.hbond>
-3.0000

> <Gold.PLP.part.metal>
0.0000

> <Gold.PLP.part.buried>
-3.9229

> <Gold.PLP.part.nonpolar>
-38.3057

> <Gold.PLP.part.repulsive>
1.0113

> <Gold.PLP.ligand.clash>
0.0293

> <Gold.PLP.ligand.torsion>
1.2986

> <Gold.PLP.Chemscore.Hbond>
2.7599

> <Gold.PLP.Chemscore.CHOScore>
0.2415

> <Gold.PLP.Chemscore.Metal>
0.0000

> <Gold.Chemscore.Hbonds>
donor molecule, donor type, donor heavy atom, donor atom, acceptor molecule, acceptor atom, score
      P1  H  6896  6908       L1    23  0.72
      P1  H  7989  7998       L1    11  1.00
      P1  H  7997  8009       L1     8  0.99
      L1  C    14    36       P1  7949  0.27

> <Gold.PLP.Chemscore.Internal.Correction>
0.4348

> <Gold.Rescore>
     Score         DG    S(hbond)    S(metal)    S(lipo)     H(rot)  DE(clash)    DE(int)     intcor
     18.23     -20.70       1.90        0.00     127.98       2.38       0.20       2.27       ----

> <Gold.Chemscore.Fitness>
18.2307

> <Gold.Chemscore.DG>
-20.7037

> <Gold.Chemscore.ZeroCoef>
-5.4800

> <Gold.Chemscore.Hbond>
1.8992

> <Gold.Chemscore.Metal>
0.0000

> <Gold.Chemscore.Lipo>
127.9788

> <Gold.Chemscore.Internal_Hbond>
0.0000

> <Gold.Chemscore.DEClash>
0.1992

> <Gold.Chemscore.DEInternal>
2.2738

> <Gold.Chemscore.Rot>
2.3801

> <Gold.Chemscore.Internal.Correction>
   9.000000E+99

> <Gold.Chemscore.Hbonds>
donor molecule, donor type, donor heavy atom, donor atom, acceptor molecule, acceptor atom, score
      P1  H  6896  6908       L1    23  0.68
      P1  H  7989  7998       L1    11  0.96
      P1  H  7997  8009       L1     8  0.21

> <Gold.Chemscore.Hbond.Weighted>
-6.3432

> <Gold.Chemscore.Metal.Weighted>
-0.0000

> <Gold.Chemscore.Lipo.Weighted>
-14.9735

> <Gold.Chemscore.Internal_Hbond.Weighted>
0.0000

> <Gold.Chemscore.DEClash.Weighted>
0.1992

> <Gold.Chemscore.DEInternal.Weighted>
2.2738

> <Gold.Chemscore.Rot.Weighted>
6.0931

> <Gold.Chemscore.Internal.Correction.Weighted>
   9.000000E+99

> <Gold.Protein.RotatedTorsions>
[ 6907 6896 6895 6894 ] final -161.46 input  -60.11 | X-H torsion
[ 7974 7965 7964 7962 ] final -159.49 input  175.53 | X-H torsion
[ 8008 7997 7996 7995 ] final  167.23 input   59.86 | X-H torsion
[ 10167 10162 10161 10158 ] final -120.89 input  -65.29 | X-H torsion
[ 10718 10713 10712 10709 ] final -101.74 input   66.30 | X-H torsion
[ 10763 10752 10751 10750 ] final  107.61 input  -60.55 | X-H torsion
[ 11005 11000 10999 10996 ] final  150.26 input  -57.11 | X-H torsion

> <Gold.Protein.ActiveResidues>
 VAL166  LYS551  ARG553  GLY616  TRP617  ASP618  TYR619  PRO620  LYS621  CYS622 
 ASP623  PHE694  ASN695  SER759  ASP760  ASP761  ALA762  ILE779  LEU786  VAL792 
 PHE793  MET794  SER795  GLU796  ALA797  LYS798  CYS799  TRP800  GLU811  SER814 

> <Gold.Protein.RotatedAtoms>
  151.3651  133.3875  159.2693 H   0  0  0  0  0  0  0  0  0  0  0  0  # atno 6907 bound_to 6896
  150.9695  134.9071  159.7790 H   0  0  0  0  0  0  0  0  0  0  0  0  # atno 6908 bound_to 6896
  152.5179  134.3612  159.9337 H   0  0  0  0  0  0  0  0  0  0  0  0  # atno 6909 bound_to 6896
  144.7463  140.3677  143.6082 H   0  0  0  0  0  0  0  0  0  0  0  0  # atno 7974 bound_to 7965
  156.1651  140.1622  156.8545 H   0  0  0  0  0  0  0  0  0  0  0  0  # atno 8008 bound_to 7997
  154.5199  140.0780  156.8188 H   0  0  0  0  0  0  0  0  0  0  0  0  # atno 8009 bound_to 7997
  155.3628  140.3396  155.4243 H   0  0  0  0  0  0  0  0  0  0  0  0  # atno 8010 bound_to 7997
  140.0309  143.5249  152.2177 H   0  0  0  0  0  0  0  0  0  0  0  0  # atno 10167 bound_to 10162
  156.0205  130.5387  150.7007 H   0  0  0  0  0  0  0  0  0  0  0  0  # atno 10718 bound_to 10713
  153.4092  135.3838  155.2039 H   0  0  0  0  0  0  0  0  0  0  0  0  # atno 10763 bound_to 10752
  154.8736  135.3790  154.4522 H   0  0  0  0  0  0  0  0  0  0  0  0  # atno 10764 bound_to 10752
  153.5028  135.7088  153.5884 H   0  0  0  0  0  0  0  0  0  0  0  0  # atno 10765 bound_to 10752
  140.1115  134.8921  157.1943 H   0  0  0  0  0  0  0  0  0  0  0  0  # atno 11005 bound_to 11000
  145.7110  139.1685  143.2539 LP  0  0  0  0  0  0  0  0  0  0  0  0  # atno 17320 bound_to 7965
  146.1347  140.7139  142.9395 LP  0  0  0  0  0  0  0  0  0  0  0  0  # atno 17321 bound_to 7965
  139.6077  144.7600  151.3025 LP  0  0  0  0  0  0  0  0  0  0  0  0  # atno 17342 bound_to 10162
  140.7302  143.6886  150.7941 LP  0  0  0  0  0  0  0  0  0  0  0  0  # atno 17343 bound_to 10162
  157.4668  131.0889  151.0686 LP  0  0  0  0  0  0  0  0  0  0  0  0  # atno 17370 bound_to 10713
  157.1158  130.6041  149.5493 LP  0  0  0  0  0  0  0  0  0  0  0  0  # atno 17371 bound_to 10713
  140.3084  134.3051  155.7272 LP  0  0  0  0  0  0  0  0  0  0  0  0  # atno 17394 bound_to 11000
  141.2131  133.7635  156.9741 LP  0  0  0  0  0  0  0  0  0  0  0  0  # atno 17395 bound_to 11000

$$$$
