AV-unprocessed.smi:1947|AV-procd|sdf|7870|dock7
  -GOLD-   2272010 23D 1   1.00000     0.00000
 Structure written by MMmdl.
 38 39  0  0  0  0  0  0  0  0  2 V2000
  151.3020  145.2985  159.1410 C   0  0  0  0  0  0  0  0  0  0  0  0
  152.2939  144.3982  159.8927 C   0  0  1  0  0  0  0  0  0  0  0  0
  151.7933  144.0679  161.3134 C   0  0  0  0  0  0  0  0  0  0  0  0
  152.8148  143.2213  162.0889 C   0  0  0  0  0  0  0  0  0  0  0  0
  153.1765  141.9414  161.3206 C   0  0  0  0  0  0  0  0  0  0  0  0
  153.6749  142.2627  159.9009 C   0  0  0  0  0  0  0  0  0  0  0  0
  152.6576  143.1094  159.1136 C   0  0  1  0  0  0  0  0  0  0  0  0
  151.5018  142.3048  158.9184 O   0  0  0  0  0  0  0  0  0  0  0  0
  150.7131  142.6428  157.7877 C   0  0  0  0  0  0  0  0  0  0  0  0
  149.7677  141.4747  157.4681 C   0  0  0  0  0  0  0  0  0  0  0  0
  150.3376  140.6040  156.4441 N   0  0  0  0  0  0  0  0  0  0  0  0
  150.1332  140.7081  155.1228 C   0  0  0  0  0  0  0  0  0  0  0  0
  149.3293  141.5350  154.6859 O   0  0  0  0  0  0  0  0  0  0  0  0
  150.8878  139.8618  154.3860 N   0  5  0  0  0  0  0  0  0  0  0  0
  150.8319  138.5411  154.6246 C   0  0  0  0  0  0  0  0  0  0  0  0
  151.8613  137.7213  154.3564 N   0  0  0  0  0  0  0  0  0  0  0  0
  151.5989  136.3946  154.6698 N   0  0  0  0  0  0  0  0  0  0  0  0
  150.3756  136.2492  155.1785 C   0  0  0  0  0  0  0  0  0  0  0  0
  149.4348  137.7190  155.3236 S   0  0  0  0  0  0  0  0  0  0  0  0
  150.3276  144.8209  159.0387 H   0  0  0  0  0  0  0  0  0  0  0  0
  151.6662  145.5387  158.1418 H   0  0  0  0  0  0  0  0  0  0  0  0
  151.1493  146.2388  159.6708 H   0  0  0  0  0  0  0  0  0  0  0  0
  153.2136  144.9752  160.0007 H   0  0  0  0  0  0  0  0  0  0  0  0
  151.5915  144.9882  161.8624 H   0  0  0  0  0  0  0  0  0  0  0  0
  150.8443  143.5338  161.2583 H   0  0  0  0  0  0  0  0  0  0  0  0
  153.7163  143.8090  162.2664 H   0  0  0  0  0  0  0  0  0  0  0  0
  152.4142  142.9650  163.0699 H   0  0  0  0  0  0  0  0  0  0  0  0
  153.9391  141.3843  161.8651 H   0  0  0  0  0  0  0  0  0  0  0  0
  152.3022  141.2915  161.2646 H   0  0  0  0  0  0  0  0  0  0  0  0
  154.6212  142.8011  159.9647 H   0  0  0  0  0  0  0  0  0  0  0  0
  153.8842  141.3378  159.3626 H   0  0  0  0  0  0  0  0  0  0  0  0
  153.1088  143.3739  158.1554 H   0  0  0  0  0  0  0  0  0  0  0  0
  150.1348  143.5507  157.9631 H   0  0  0  0  0  0  0  0  0  0  0  0
  151.3724  142.8378  156.9412 H   0  0  0  0  0  0  0  0  0  0  0  0
  149.6174  140.8743  158.3654 H   0  0  0  0  0  0  0  0  0  0  0  0
  148.7835  141.8411  157.1725 H   0  0  0  0  0  0  0  0  0  0  0  0
  150.9967  139.9059  156.7553 H   0  0  0  0  0  0  0  0  0  0  0  0
  150.0260  135.2709  155.4724 H   0  0  0  0  0  0  0  0  0  0  0  0
  1  2  1  0  0  0  0
  1 20  1  0  0  0  0
  1 21  1  0  0  0  0
  1 22  1  0  0  0  0
  2  7  1  0  0  0  0
  2  3  1  0  0  0  0
  2 23  1  0  0  0  0
  3  4  1  0  0  0  0
  3 24  1  0  0  0  0
  3 25  1  0  0  0  0
  4  5  1  0  0  0  0
  4 26  1  0  0  0  0
  4 27  1  0  0  0  0
  5  6  1  0  0  0  0
  5 28  1  0  0  0  0
  5 29  1  0  0  0  0
  6  7  1  0  0  0  0
  6 30  1  0  0  0  0
  6 31  1  0  0  0  0
  7  8  1  0  0  0  0
  7 32  1  0  0  0  0
  8  9  1  0  0  0  0
  9 10  1  0  0  0  0
  9 33  1  0  0  0  0
  9 34  1  0  0  0  0
 10 11  1  0  0  0  0
 10 35  1  0  0  0  0
 10 36  1  0  0  0  0
 11 12  1  0  0  0  0
 11 37  1  0  0  0  0
 12 13  2  0  0  0  0
 12 14  1  0  0  0  0
 14 15  1  0  0  0  0
 15 19  1  0  0  0  0
 15 16  2  0  0  0  0
 16 17  1  0  0  0  0
 17 18  2  0  0  0  0
 18 19  1  0  0  0  0
 18 38  1  0  0  0  0
M  CHG  1  14  -1
M  END
> <s_m_source_file>
AV-unprocessed.smi

> <i_m_source_file_index>
1947

> <i_lp_mmshare_version>
43012

> <i_f3d_flags>
0

> <s_epik_input>
W0NIM11bQ0BASF0xW0NIMl1bQ0gyXVtDSDJdW0NIMl1bQ0BIXTFPW0NIMl1bQ0gyXVtOSF1DKD1PKVtOSF1jMm5uW2NIXXMy

> <s_epik_cmdline>
J2VwaWtfcHl0aG9uJywgJy1waCcsICc3LjAnLCAnLXRuJywgJzgnLCAnLW1hJywgJzIwMCcsICctbWV0YWxfYmluZGluZycsICctaW1hZScsICc8aW5maWxlLm1hZT4nLCAnLW9tYWUnLCAnPG91dGZpbGUubWFlPic=

> <r_lp_tautomer_probability>
1

> <r_epik_Ionization_Penalty>
3.35961

> <r_epik_Ionization_Penalty_Charging>
3.31977

> <r_epik_Ionization_Penalty_Neutral>
0.0398394

> <r_epik_State_Penalty>
3.31759

> <r_epik_Charging_Adjusted_Penalty>
6.63736

> <i_epik_Tot_Q>
-1

> <i_epik_Tot_abs_Q>
1

> <r_epik_Metal_State_Penalty>
0.484557

> <b_epik_Metal_Only>
1

> <s_lp_Force_Field>
OPLS_2005

> <r_lp_Energy>
8.55413

> <b_lp_Chiralities_Consistent>
1

> <s_lp_Variant>
AV-unprocessed.smi:1947-6

> <Gold.Version>
5.8.1

> <Gold.Id.Protein>
6NUR|6NUR_protein|mol2

> <Gold.PLP.Fitness>
47.2678

> <Gold.PLP.PLP>
-44.0678

> <Gold.PLP.part.hbond>
-3.0676

> <Gold.PLP.part.metal>
0.0000

> <Gold.PLP.part.buried>
-6.5139

> <Gold.PLP.part.nonpolar>
-34.9888

> <Gold.PLP.part.repulsive>
0.6319

> <Gold.PLP.ligand.clash>
0.0000

> <Gold.PLP.ligand.torsion>
1.4343

> <Gold.PLP.Chemscore.Hbond>
2.0000

> <Gold.PLP.Chemscore.CHOScore>
0.0000

> <Gold.PLP.Chemscore.Metal>
0.0000

> <Gold.Chemscore.Hbonds>
donor molecule, donor type, donor heavy atom, donor atom, acceptor molecule, acceptor atom, score
      P1  H  7989  7998       L1    14  1.00
      P1  H 10752 10764       L1    17  1.00

> <Gold.PLP.Chemscore.Internal.Correction>
0.0685

> <Gold.Rescore>
     Score         DG    S(hbond)    S(metal)    S(lipo)     H(rot)  DE(clash)    DE(int)     intcor
     17.27     -18.75       1.90        0.00     100.71       1.90       0.02       1.47       ----

> <Gold.Chemscore.Fitness>
17.2666

> <Gold.Chemscore.DG>
-18.7544

> <Gold.Chemscore.ZeroCoef>
-5.4800

> <Gold.Chemscore.Hbond>
1.9014

> <Gold.Chemscore.Metal>
0.0000

> <Gold.Chemscore.Lipo>
100.7140

> <Gold.Chemscore.Internal_Hbond>
0.0000

> <Gold.Chemscore.DEClash>
0.0167

> <Gold.Chemscore.DEInternal>
1.4711

> <Gold.Chemscore.Rot>
1.8984

> <Gold.Chemscore.Internal.Correction>
   9.000000E+99

> <Gold.Chemscore.Hbonds>
donor molecule, donor type, donor heavy atom, donor atom, acceptor molecule, acceptor atom, score
      P1  H  7989  7998       L1    14  0.28
      P1  H 10752 10764       L1    17  0.72

> <Gold.Chemscore.Hbond.Weighted>
-6.3506

> <Gold.Chemscore.Metal.Weighted>
-0.0000

> <Gold.Chemscore.Lipo.Weighted>
-11.7835

> <Gold.Chemscore.Internal_Hbond.Weighted>
0.0000

> <Gold.Chemscore.DEClash.Weighted>
0.0167

> <Gold.Chemscore.DEInternal.Weighted>
1.4711

> <Gold.Chemscore.Rot.Weighted>
4.8598

> <Gold.Chemscore.Internal.Correction.Weighted>
   9.000000E+99

> <Gold.Protein.RotatedTorsions>
[ 6907 6896 6895 6894 ] final  -58.63 input  -60.11 | X-H torsion
[ 7974 7965 7964 7962 ] final  110.92 input  175.53 | X-H torsion
[ 8008 7997 7996 7995 ] final   38.55 input   59.86 | X-H torsion
[ 10167 10162 10161 10158 ] final -118.16 input  -65.29 | X-H torsion
[ 10718 10713 10712 10709 ] final   64.01 input   66.30 | X-H torsion
[ 10763 10752 10751 10750 ] final  -50.87 input  -60.55 | X-H torsion
[ 11005 11000 10999 10996 ] final -113.80 input  -57.11 | X-H torsion

> <Gold.Protein.ActiveResidues>
 VAL166  LYS551  ARG553  GLY616  TRP617  ASP618  TYR619  PRO620  LYS621  CYS622 
 ASP623  PHE694  ASN695  SER759  ASP760  ASP761  ALA762  ILE779  LEU786  VAL792 
 PHE793  MET794  SER795  GLU796  ALA797  LYS798  CYS799  TRP800  GLU811  SER814 

> <Gold.Protein.RotatedAtoms>
  150.7992  134.7073  159.6583 H   0  0  0  0  0  0  0  0  0  0  0  0  # atno 6907 bound_to 6896
  152.4107  134.6126  160.0039 H   0  0  0  0  0  0  0  0  0  0  0  0  # atno 6908 bound_to 6896
  151.6369  133.3291  159.3157 H   0  0  0  0  0  0  0  0  0  0  0  0  # atno 6909 bound_to 6896
  145.2488  139.2748  143.4079 H   0  0  0  0  0  0  0  0  0  0  0  0  # atno 7974 bound_to 7965
  155.2221  140.3331  155.4314 H   0  0  0  0  0  0  0  0  0  0  0  0  # atno 8008 bound_to 7997
  156.2329  140.1859  156.7243 H   0  0  0  0  0  0  0  0  0  0  0  0  # atno 8009 bound_to 7997
  154.6009  140.0623  156.9352 H   0  0  0  0  0  0  0  0  0  0  0  0  # atno 8010 bound_to 7997
  140.0605  143.4972  152.2034 H   0  0  0  0  0  0  0  0  0  0  0  0  # atno 10167 bound_to 10162
  157.6010  130.9136  149.9790 H   0  0  0  0  0  0  0  0  0  0  0  0  # atno 10718 bound_to 10713
  154.1174  135.6540  153.4896 H   0  0  0  0  0  0  0  0  0  0  0  0  # atno 10763 bound_to 10752
  153.0236  135.5262  154.7131 H   0  0  0  0  0  0  0  0  0  0  0  0  # atno 10764 bound_to 10752
  154.6328  135.2978  155.0166 H   0  0  0  0  0  0  0  0  0  0  0  0  # atno 10765 bound_to 10752
  141.0592  133.9564  157.2699 H   0  0  0  0  0  0  0  0  0  0  0  0  # atno 11005 bound_to 11000
  146.3308  140.2872  142.8613 LP  0  0  0  0  0  0  0  0  0  0  0  0  # atno 17320 bound_to 7965
  144.9522  140.8190  143.5565 LP  0  0  0  0  0  0  0  0  0  0  0  0  # atno 17321 bound_to 7965
  139.5896  144.7545  151.3433 LP  0  0  0  0  0  0  0  0  0  0  0  0  # atno 17342 bound_to 10162
  140.7174  143.7229  150.7682 LP  0  0  0  0  0  0  0  0  0  0  0  0  # atno 17343 bound_to 10162
  156.1084  130.3651  150.0093 LP  0  0  0  0  0  0  0  0  0  0  0  0  # atno 17370 bound_to 10713
  156.8196  130.9354  151.3641 LP  0  0  0  0  0  0  0  0  0  0  0  0  # atno 17371 bound_to 10713
  139.9417  135.0190  156.8728 LP  0  0  0  0  0  0  0  0  0  0  0  0  # atno 17394 bound_to 11000
  140.5904  134.0267  155.7497 LP  0  0  0  0  0  0  0  0  0  0  0  0  # atno 17395 bound_to 11000

$$$$
