AV-unprocessed.smi:2079|AV-procd|sdf|8485|dock5
  -GOLD-   2272011193D 1   1.00000     0.00000
 Structure written by MMmdl.
 41 42  0  0  0  0  0  0  0  0  3 V2000
  150.7522  144.7710  159.7154 C   0  0  0  0  0  0  0  0  0  0  0  0
  150.2129  143.5603  159.0343 C   0  0  0  0  0  0  0  0  0  0  0  0
  150.8052  142.5333  158.3549 C   0  0  0  0  0  0  0  0  0  0  0  0
  149.7032  141.7206  157.9766 C   0  0  0  0  0  0  0  0  0  0  0  0
  149.9054  140.5245  157.2380 N   0  0  0  0  0  0  0  0  0  0  0  0
  149.0614  139.4918  157.0592 C   0  0  0  0  0  0  0  0  0  0  0  0
  147.9313  139.5134  157.5619 O   0  0  0  0  0  0  0  0  0  0  0  0
  149.6070  138.5053  156.2947 N   0  5  0  0  0  0  0  0  0  0  0  0
  148.8536  137.6338  155.3943 C   0  0  0  0  0  0  0  0  0  0  0  0
  148.2015  138.4597  154.2663 C   0  0  0  0  0  0  0  0  0  0  0  0
  147.7137  137.5961  153.1569 N   0  3  2  0  0  0  0  0  0  0  0  0
  147.6195  138.2879  151.8386 C   0  0  0  0  0  0  0  0  0  0  0  0
  147.3440  137.2828  150.7083 C   0  0  0  0  0  0  0  0  0  0  0  0
  146.0814  136.4596  150.9927 C   0  0  0  0  0  0  0  0  0  0  0  0
  146.1840  135.7933  152.3731 C   0  0  0  0  0  0  0  0  0  0  0  0
  146.4848  136.8149  153.4899 C   0  0  2  0  0  0  0  0  0  0  0  0
  145.2652  137.7036  153.8185 C   0  0  0  0  0  0  0  0  0  0  0  0
  148.5426  142.2111  158.3858 N   0  0  0  0  0  0  0  0  0  0  0  0
  148.8633  143.3915  159.0663 O   0  0  0  0  0  0  0  0  0  0  0  0
  151.8102  144.9060  159.4903 H   0  0  0  0  0  0  0  0  0  0  0  0
  150.6441  144.6848  160.7965 H   0  0  0  0  0  0  0  0  0  0  0  0
  150.2210  145.6661  159.3918 H   0  0  0  0  0  0  0  0  0  0  0  0
  151.8577  142.3866  158.1630 H   0  0  0  0  0  0  0  0  0  0  0  0
  150.8092  140.4311  156.7987 H   0  0  0  0  0  0  0  0  0  0  0  0
  149.5045  136.8814  154.9488 H   0  0  0  0  0  0  0  0  0  0  0  0
  148.0790  137.0710  155.9173 H   0  0  0  0  0  0  0  0  0  0  0  0
  147.3620  139.0076  154.6969 H   0  0  0  0  0  0  0  0  0  0  0  0
  148.8901  139.2130  153.8799 H   0  0  0  0  0  0  0  0  0  0  0  0
  146.8418  139.0515  151.8685 H   0  0  0  0  0  0  0  0  0  0  0  0
  148.5512  138.8108  151.6214 H   0  0  0  0  0  0  0  0  0  0  0  0
  147.2404  137.8085  149.7586 H   0  0  0  0  0  0  0  0  0  0  0  0
  148.1990  136.6141  150.5995 H   0  0  0  0  0  0  0  0  0  0  0  0
  145.2023  137.1029  150.9496 H   0  0  0  0  0  0  0  0  0  0  0  0
  145.9463  135.7025  150.2197 H   0  0  0  0  0  0  0  0  0  0  0  0
  145.2666  135.2469  152.5950 H   0  0  0  0  0  0  0  0  0  0  0  0
  146.9803  135.0479  152.3479 H   0  0  0  0  0  0  0  0  0  0  0  0
  146.7097  136.2376  154.3881 H   0  0  0  0  0  0  0  0  0  0  0  0
  144.4060  137.0901  154.0902 H   0  0  0  0  0  0  0  0  0  0  0  0
  144.9632  138.3252  152.9765 H   0  0  0  0  0  0  0  0  0  0  0  0
  145.4614  138.3658  154.6616 H   0  0  0  0  0  0  0  0  0  0  0  0
  148.4370  136.8995  153.0473 H   0  0  0  0  0  0  0  0  0  0  0  0
  1  2  1  0  0  0  0
  1 20  1  0  0  0  0
  1 21  1  0  0  0  0
  1 22  1  0  0  0  0
  2 19  1  0  0  0  0
  2  3  2  0  0  0  0
  3  4  1  0  0  0  0
  3 23  1  0  0  0  0
  4  5  1  0  0  0  0
  4 18  2  0  0  0  0
  5  6  1  0  0  0  0
  5 24  1  0  0  0  0
  6  7  2  0  0  0  0
  6  8  1  0  0  0  0
  8  9  1  0  0  0  0
  9 10  1  0  0  0  0
  9 25  1  0  0  0  0
  9 26  1  0  0  0  0
 10 11  1  0  0  0  0
 10 27  1  0  0  0  0
 10 28  1  0  0  0  0
 11 16  1  0  0  0  0
 11 12  1  0  0  0  0
 11 41  1  0  0  0  0
 12 13  1  0  0  0  0
 12 29  1  0  0  0  0
 12 30  1  0  0  0  0
 13 14  1  0  0  0  0
 13 31  1  0  0  0  0
 13 32  1  0  0  0  0
 14 15  1  0  0  0  0
 14 33  1  0  0  0  0
 14 34  1  0  0  0  0
 15 16  1  0  0  0  0
 15 35  1  0  0  0  0
 15 36  1  0  0  0  0
 16 17  1  0  0  0  0
 16 37  1  0  0  0  0
 17 38  1  0  0  0  0
 17 39  1  0  0  0  0
 17 40  1  0  0  0  0
 18 19  1  0  0  0  0
M  CHG  1   8  -1
M  CHG  1  11   1
M  END
> <s_m_source_file>
AV-unprocessed.smi

> <i_m_source_file_index>
2079

> <i_lp_mmshare_version>
43012

> <i_f3d_flags>
0

> <s_epik_input>
W0NIM11jMVtjSF1jKG5vMSlbTkhdQyg9TylbTkhdW0NIMl1bQ0gyXU4yW0NIMl1bQ0gyXVtDSDJdW0NIMl1bQ0BIXTJbQ0gzXQ==

> <s_epik_cmdline>
J2VwaWtfcHl0aG9uJywgJy1waCcsICc3LjAnLCAnLXRuJywgJzgnLCAnLW1hJywgJzIwMCcsICctbWV0YWxfYmluZGluZycsICctaW1hZScsICc8aW5maWxlLm1hZT4nLCAnLW9tYWUnLCAnPG91dGZpbGUubWFlPic=

> <r_epik_Ionization_Penalty>
6.7666

> <r_epik_Ionization_Penalty_Charging>
6.7666

> <r_epik_Ionization_Penalty_Neutral>
5.77131e-06

> <r_epik_State_Penalty>
6.79217

> <r_epik_Charging_Adjusted_Penalty>
13.5588

> <i_epik_Tot_Q>
0

> <i_epik_Tot_abs_Q>
2

> <r_epik_Metal_State_Penalty>
2.72569

> <b_epik_Metal_Only>
1

> <s_lp_Force_Field>
OPLS_2005

> <r_lp_Energy>
14.7709

> <b_lp_Chiralities_Consistent>
1

> <s_lp_Variant>
AV-unprocessed.smi:2079-11

> <Gold.Version>
5.8.1

> <Gold.Id.Protein>
6NUR|6NUR_protein|mol2

> <Gold.PLP.Fitness>
43.8007

> <Gold.PLP.PLP>
-32.6766

> <Gold.PLP.part.hbond>
-3.0000

> <Gold.PLP.part.metal>
0.0000

> <Gold.PLP.part.buried>
-6.1105

> <Gold.PLP.part.nonpolar>
-23.3807

> <Gold.PLP.part.repulsive>
0.2282

> <Gold.PLP.ligand.clash>
0.0000

> <Gold.PLP.ligand.torsion>
0.5025

> <Gold.PLP.Chemscore.Hbond>
4.0000

> <Gold.PLP.Chemscore.CHOScore>
0.0000

> <Gold.PLP.Chemscore.Metal>
0.0000

> <Gold.Chemscore.Hbonds>
donor molecule, donor type, donor heavy atom, donor atom, acceptor molecule, acceptor atom, score
      L1  H    11    41       P1  7948  0.99

> <Gold.PLP.Chemscore.Internal.Correction>
0.1291

> <Gold.Rescore>
     Score         DG    S(hbond)    S(metal)    S(lipo)     H(rot)  DE(clash)    DE(int)     intcor
     15.86     -17.81       2.41        0.00      70.36       1.54       0.05       1.91       ----

> <Gold.Chemscore.Fitness>
15.8571

> <Gold.Chemscore.DG>
-17.8125

> <Gold.Chemscore.ZeroCoef>
-5.4800

> <Gold.Chemscore.Hbond>
2.4086

> <Gold.Chemscore.Metal>
0.0000

> <Gold.Chemscore.Lipo>
70.3618

> <Gold.Chemscore.Internal_Hbond>
0.0000

> <Gold.Chemscore.DEClash>
0.0452

> <Gold.Chemscore.DEInternal>
1.9102

> <Gold.Chemscore.Rot>
1.5409

> <Gold.Chemscore.Internal.Correction>
   9.000000E+99

> <Gold.Chemscore.Hbonds>
donor molecule, donor type, donor heavy atom, donor atom, acceptor molecule, acceptor atom, score
      L1  H    11    41       P1  7948  0.49

> <Gold.Chemscore.Hbond.Weighted>
-8.0448

> <Gold.Chemscore.Metal.Weighted>
-0.0000

> <Gold.Chemscore.Lipo.Weighted>
-8.2323

> <Gold.Chemscore.Internal_Hbond.Weighted>
0.0000

> <Gold.Chemscore.DEClash.Weighted>
0.0452

> <Gold.Chemscore.DEInternal.Weighted>
1.9102

> <Gold.Chemscore.Rot.Weighted>
3.9446

> <Gold.Chemscore.Internal.Correction.Weighted>
   9.000000E+99

> <Gold.Protein.RotatedTorsions>
[ 6907 6896 6895 6894 ] final  -98.94 input  -60.11 | X-H torsion
[ 7974 7965 7964 7962 ] final  -15.79 input  175.53 | X-H torsion
[ 8008 7997 7996 7995 ] final -172.33 input   59.86 | X-H torsion
[ 10167 10162 10161 10158 ] final  -90.20 input  -65.29 | X-H torsion
[ 10718 10713 10712 10709 ] final -124.71 input   66.30 | X-H torsion
[ 10763 10752 10751 10750 ] final   -3.67 input  -60.55 | X-H torsion
[ 11005 11000 10999 10996 ] final  -75.65 input  -57.11 | X-H torsion

> <Gold.Protein.ActiveResidues>
 VAL166  LYS551  ARG553  GLY616  TRP617  ASP618  TYR619  PRO620  LYS621  CYS622 
 ASP623  PHE694  ASN695  SER759  ASP760  ASP761  ALA762  ILE779  LEU786  VAL792 
 PHE793  MET794  SER795  GLU796  ALA797  LYS798  CYS799  TRP800  GLU811  SER814 

> <Gold.Protein.RotatedAtoms>
  150.7063  134.1117  159.4002 H   0  0  0  0  0  0  0  0  0  0  0  0  # atno 6907 bound_to 6896
  151.9103  135.0339  160.0523 H   0  0  0  0  0  0  0  0  0  0  0  0  # atno 6908 bound_to 6896
  152.2341  133.5046  159.5269 H   0  0  0  0  0  0  0  0  0  0  0  0  # atno 6909 bound_to 6896
  146.2016  140.3544  142.8421 H   0  0  0  0  0  0  0  0  0  0  0  0  # atno 7974 bound_to 7965
  155.9431  140.1112  157.1039 H   0  0  0  0  0  0  0  0  0  0  0  0  # atno 8008 bound_to 7997
  154.4093  140.1215  156.5020 H   0  0  0  0  0  0  0  0  0  0  0  0  # atno 8009 bound_to 7997
  155.6936  140.3472  155.4906 H   0  0  0  0  0  0  0  0  0  0  0  0  # atno 8010 bound_to 7997
  140.3572  143.2860  151.9657 H   0  0  0  0  0  0  0  0  0  0  0  0  # atno 10167 bound_to 10162
  156.1611  130.6603  151.0051 H   0  0  0  0  0  0  0  0  0  0  0  0  # atno 10718 bound_to 10713
  153.3744  135.6996  153.6613 H   0  0  0  0  0  0  0  0  0  0  0  0  # atno 10763 bound_to 10752
  153.5250  135.3604  155.2650 H   0  0  0  0  0  0  0  0  0  0  0  0  # atno 10764 bound_to 10752
  154.8685  135.4167  154.3029 H   0  0  0  0  0  0  0  0  0  0  0  0  # atno 10765 bound_to 10752
  141.1647  133.6954  156.7549 H   0  0  0  0  0  0  0  0  0  0  0  0  # atno 11005 bound_to 11000
  144.8697  140.7255  143.6055 LP  0  0  0  0  0  0  0  0  0  0  0  0  # atno 17320 bound_to 7965
  145.3463  139.1718  143.4458 LP  0  0  0  0  0  0  0  0  0  0  0  0  # atno 17321 bound_to 7965
  139.4818  144.6024  151.7581 LP  0  0  0  0  0  0  0  0  0  0  0  0  # atno 17342 bound_to 10162
  140.5162  144.0950  150.6009 LP  0  0  0  0  0  0  0  0  0  0  0  0  # atno 17343 bound_to 10162
  157.6733  131.0856  150.7557 LP  0  0  0  0  0  0  0  0  0  0  0  0  # atno 17370 bound_to 10713
  156.7620  130.4801  149.5435 LP  0  0  0  0  0  0  0  0  0  0  0  0  # atno 17371 bound_to 10713
  140.2576  134.8491  157.3728 LP  0  0  0  0  0  0  0  0  0  0  0  0  # atno 17394 bound_to 11000
  140.1642  134.4690  155.7874 LP  0  0  0  0  0  0  0  0  0  0  0  0  # atno 17395 bound_to 11000

$$$$
