AV-unprocessed.smi:261|AV-procd|sdf|1991|dock2
  -GOLD-   2262021173D 1   1.00000     0.00000
 Structure written by MMmdl.
 51 54  0  0  0  0  0  0  0  0  1 V2000
  152.3734  144.5154  159.7201 C   0  0  0  0  0  0  0  0  0  0  0  0
  151.6964  144.0250  158.5747 O   0  0  0  0  0  0  0  0  0  0  0  0
  151.2284  142.6916  158.7188 C   0  0  1  0  0  0  0  0  0  0  0  0
  150.3488  142.2270  157.5591 C   0  0  0  0  0  0  0  0  0  0  0  0
  150.4892  140.6970  157.5836 C   0  0  1  0  0  0  0  0  0  0  0  0
  150.2062  140.0994  156.1910 C   0  0  0  0  0  0  0  0  0  0  0  0
  149.1322  139.3196  156.0296 N   0  0  0  0  0  0  0  0  0  0  0  0
  150.9636  140.3516  155.2567 O   0  0  0  0  0  0  0  0  0  0  0  0
  151.8511  140.4798  158.0915 N   0  0  0  0  0  0  0  0  0  0  0  0
  152.2712  139.2749  158.5666 C   0  0  0  0  0  0  0  0  0  0  0  0
  151.8475  138.1346  157.9589 N   0  0  0  0  0  0  0  0  0  0  0  0
  152.2508  136.9389  158.3971 C   0  0  0  0  0  0  0  0  0  0  0  0
  153.0698  136.6554  159.4106 N   0  0  0  0  0  0  0  0  0  0  0  0
  153.5064  137.7923  160.0229 C   0  0  0  0  0  0  0  0  0  0  0  0
  153.1624  139.1289  159.6707 C   0  0  0  0  0  0  0  0  0  0  0  0
  153.8189  140.0173  160.5166 N   0  0  0  0  0  0  0  0  0  0  0  0
  154.4981  139.2517  161.3262 C   0  0  0  0  0  0  0  0  0  0  0  0
  154.3696  137.9011  161.0979 N   0  0  0  0  0  0  0  0  0  0  0  0
  155.0167  136.8248  161.8279 C   0  0  0  0  0  0  0  0  0  0  0  0
  154.4183  136.6194  163.2337 C   0  0  2  0  0  0  0  0  0  0  0  0
  154.7974  137.7031  164.0611 O   0  0  0  0  0  0  0  0  0  0  0  0
  154.8915  135.3059  163.8835 C   0  0  1  0  0  0  0  0  0  0  0  0
  154.1577  134.9366  165.1731 C   0  0  0  0  0  0  0  0  0  0  0  0
  154.3971  133.4458  165.2439 C   0  0  0  0  0  0  0  0  0  0  0  0
  154.3071  133.0392  163.7754 C   0  0  0  0  0  0  0  0  0  0  0  0
  154.6389  134.2014  163.0185 O   0  0  0  0  0  0  0  0  0  0  0  0
  152.3927  141.7026  158.6739 C   0  0  0  0  0  0  0  0  0  0  0  0
  150.6942  142.5656  159.6626 H   0  0  0  0  0  0  0  0  0  0  0  0
  149.7701  140.2924  158.2978 H   0  0  0  0  0  0  0  0  0  0  0  0
  152.7232  145.5299  159.5288 H   0  0  0  0  0  0  0  0  0  0  0  0
  153.2424  143.9009  159.9581 H   0  0  0  0  0  0  0  0  0  0  0  0
  151.7179  144.5475  160.5908 H   0  0  0  0  0  0  0  0  0  0  0  0
  149.3129  142.5511  157.6632 H   0  0  0  0  0  0  0  0  0  0  0  0
  150.7346  142.6369  156.6234 H   0  0  0  0  0  0  0  0  0  0  0  0
  148.9350  138.9179  155.1245 H   0  0  0  0  0  0  0  0  0  0  0  0
  148.5249  139.1331  156.8143 H   0  0  0  0  0  0  0  0  0  0  0  0
  151.8628  136.0881  157.8567 H   0  0  0  0  0  0  0  0  0  0  0  0
  155.1176  139.6541  162.1145 H   0  0  0  0  0  0  0  0  0  0  0  0
  154.9166  135.9140  161.2366 H   0  0  0  0  0  0  0  0  0  0  0  0
  156.0849  137.0366  161.8930 H   0  0  0  0  0  0  0  0  0  0  0  0
  153.3295  136.6129  163.1654 H   0  0  0  0  0  0  0  0  0  0  0  0
  154.0852  138.3236  164.0876 H   0  0  0  0  0  0  0  0  0  0  0  0
  155.9653  135.3410  164.0763 H   0  0  0  0  0  0  0  0  0  0  0  0
  154.5338  135.4701  166.0463 H   0  0  0  0  0  0  0  0  0  0  0  0
  153.0896  135.1394  165.0809 H   0  0  0  0  0  0  0  0  0  0  0  0
  155.3988  133.2473  165.6276 H   0  0  0  0  0  0  0  0  0  0  0  0
  153.6788  132.9234  165.8762 H   0  0  0  0  0  0  0  0  0  0  0  0
  154.9734  132.2092  163.5390 H   0  0  0  0  0  0  0  0  0  0  0  0
  153.2903  132.7397  163.5202 H   0  0  0  0  0  0  0  0  0  0  0  0
  153.1886  142.0679  158.0235 H   0  0  0  0  0  0  0  0  0  0  0  0
  152.8095  141.5572  159.6716 H   0  0  0  0  0  0  0  0  0  0  0  0
  1  2  1  0  0  0  0
  1 30  1  0  0  0  0
  1 31  1  0  0  0  0
  1 32  1  0  0  0  0
  2  3  1  0  0  0  0
  3 28  1  0  0  0  0
  3 27  1  0  0  0  0
  3  4  1  0  0  0  0
  4  5  1  0  0  0  0
  4 33  1  0  0  0  0
  4 34  1  0  0  0  0
  5 29  1  0  0  0  0
  5  6  1  0  0  0  0
  5  9  1  0  0  0  0
  6  7  1  0  0  0  0
  6  8  2  0  0  0  0
  7 35  1  0  0  0  0
  7 36  1  0  0  0  0
  9 10  1  0  0  0  0
  9 27  1  0  0  0  0
 10 15  1  0  0  0  0
 10 11  2  0  0  0  0
 11 12  1  0  0  0  0
 12 13  2  0  0  0  0
 12 37  1  0  0  0  0
 13 14  1  0  0  0  0
 14 18  1  0  0  0  0
 14 15  2  0  0  0  0
 15 16  1  0  0  0  0
 16 17  2  0  0  0  0
 17 18  1  0  0  0  0
 17 38  1  0  0  0  0
 18 19  1  0  0  0  0
 19 20  1  0  0  0  0
 19 39  1  0  0  0  0
 19 40  1  0  0  0  0
 20 21  1  0  0  0  0
 20 22  1  0  0  0  0
 20 41  1  0  0  0  0
 21 42  1  0  0  0  0
 22 26  1  0  0  0  0
 22 23  1  0  0  0  0
 22 43  1  0  0  0  0
 23 24  1  0  0  0  0
 23 44  1  0  0  0  0
 23 45  1  0  0  0  0
 24 25  1  0  0  0  0
 24 46  1  0  0  0  0
 24 47  1  0  0  0  0
 25 26  1  0  0  0  0
 25 48  1  0  0  0  0
 25 49  1  0  0  0  0
 27 50  1  0  0  0  0
 27 51  1  0  0  0  0
M  END
> <s_m_source_file>
AV-unprocessed.smi

> <i_m_source_file_index>
261

> <i_lp_mmshare_version>
43012

> <i_f3d_flags>
0

> <s_epik_input>
W0NIM11PW0NASF0xW0NIMl1bQ0BASF0oQyg9TylbTkgyXSlOKFtDSDJdMSljKG5bY0hdbjIpYyhjMjMpbltjSF1uM1tDSDJdW0NASF0oW09IXSlbQ0BASF00W0NIMl1bQ0gyXVtDSDJdTzQ=

> <s_epik_cmdline>
J2VwaWtfcHl0aG9uJywgJy1waCcsICc3LjAnLCAnLXRuJywgJzgnLCAnLW1hJywgJzIwMCcsICctbWV0YWxfYmluZGluZycsICctaW1hZScsICc8aW5maWxlLm1hZT4nLCAnLW9tYWUnLCAnPG91dGZpbGUubWFlPic=

> <r_lp_tautomer_probability>
1

> <r_epik_Ionization_Penalty>
0.000713824

> <r_epik_Ionization_Penalty_Charging>
0

> <r_epik_Ionization_Penalty_Neutral>
0.000713824

> <r_epik_State_Penalty>
0.000402132

> <r_epik_Charging_Adjusted_Penalty>
0.000402132

> <i_epik_Tot_Q>
0

> <i_epik_Tot_abs_Q>
0

> <r_epik_Metal_State_Penalty>
-0

> <b_epik_Metal_Only>
0

> <s_lp_Force_Field>
OPLS_2005

> <r_lp_Energy>
46.441

> <b_lp_Chiralities_Consistent>
1

> <s_lp_Variant>
AV-unprocessed.smi:261-9

> <Gold.Version>
5.8.1

> <Gold.Id.Protein>
6NUR|6NUR_protein|mol2

> <Gold.PLP.Fitness>
44.7220

> <Gold.PLP.PLP>
-39.9137

> <Gold.PLP.part.hbond>
-2.0000

> <Gold.PLP.part.metal>
0.0000

> <Gold.PLP.part.buried>
-5.1584

> <Gold.PLP.part.nonpolar>
-33.7299

> <Gold.PLP.part.repulsive>
0.1364

> <Gold.PLP.ligand.clash>
0.0000

> <Gold.PLP.ligand.torsion>
0.7012

> <Gold.PLP.Chemscore.Hbond>
1.9020

> <Gold.PLP.Chemscore.CHOScore>
0.0000

> <Gold.PLP.Chemscore.Metal>
0.0000

> <Gold.Chemscore.Hbonds>
donor molecule, donor type, donor heavy atom, donor atom, acceptor molecule, acceptor atom, score
      P1  H  6896  6909       L1    13  0.85
      P1  H  7989  7998       L1     8  1.00

> <Gold.PLP.Chemscore.Internal.Correction>
0.5048

> <Gold.Rescore>
     Score         DG    S(hbond)    S(metal)    S(lipo)     H(rot)  DE(clash)    DE(int)     intcor
     10.75     -13.13       1.47        0.00      93.15       3.18       0.08       2.30       ----

> <Gold.Chemscore.Fitness>
10.7539

> <Gold.Chemscore.DG>
-13.1313

> <Gold.Chemscore.ZeroCoef>
-5.4800

> <Gold.Chemscore.Hbond>
1.4675

> <Gold.Chemscore.Metal>
0.0000

> <Gold.Chemscore.Lipo>
93.1493

> <Gold.Chemscore.Internal_Hbond>
0.0000

> <Gold.Chemscore.DEClash>
0.0764

> <Gold.Chemscore.DEInternal>
2.3010

> <Gold.Chemscore.Rot>
3.1831

> <Gold.Chemscore.Internal.Correction>
   9.000000E+99

> <Gold.Chemscore.Hbonds>
donor molecule, donor type, donor heavy atom, donor atom, acceptor molecule, acceptor atom, score
      P1  H  6896  6909       L1    13  0.14
      P1  H  7989  7998       L1     8  0.96

> <Gold.Chemscore.Hbond.Weighted>
-4.9015

> <Gold.Chemscore.Metal.Weighted>
-0.0000

> <Gold.Chemscore.Lipo.Weighted>
-10.8985

> <Gold.Chemscore.Internal_Hbond.Weighted>
0.0000

> <Gold.Chemscore.DEClash.Weighted>
0.0764

> <Gold.Chemscore.DEInternal.Weighted>
2.3010

> <Gold.Chemscore.Rot.Weighted>
8.1486

> <Gold.Chemscore.Internal.Correction.Weighted>
   9.000000E+99

> <Gold.Protein.RotatedTorsions>
[ 6907 6896 6895 6894 ] final  151.33 input  -60.11 | X-H torsion
[ 7974 7965 7964 7962 ] final -148.60 input  175.53 | X-H torsion
[ 8008 7997 7996 7995 ] final -130.84 input   59.86 | X-H torsion
[ 10167 10162 10161 10158 ] final -174.53 input  -65.29 | X-H torsion
[ 10718 10713 10712 10709 ] final -117.29 input   66.30 | X-H torsion
[ 10763 10752 10751 10750 ] final -102.09 input  -60.55 | X-H torsion
[ 11005 11000 10999 10996 ] final -149.87 input  -57.11 | X-H torsion

> <Gold.Protein.ActiveResidues>
 VAL166  LYS551  ARG553  GLY616  TRP617  ASP618  TYR619  PRO620  LYS621  CYS622 
 ASP623  PHE694  ASN695  SER759  ASP760  ASP761  ALA762  ILE779  LEU786  VAL792 
 PHE793  MET794  SER795  GLU796  ALA797  LYS798  CYS799  TRP800  GLU811  SER814 

> <Gold.Protein.RotatedAtoms>
  152.1022  133.4255  159.4591 H   0  0  0  0  0  0  0  0  0  0  0  0  # atno 6907 bound_to 6896
  150.6864  134.2747  159.4612 H   0  0  0  0  0  0  0  0  0  0  0  0  # atno 6908 bound_to 6896
  152.0609  134.9594  160.0625 H   0  0  0  0  0  0  0  0  0  0  0  0  # atno 6909 bound_to 6896
  144.8019  140.5174  143.5701 H   0  0  0  0  0  0  0  0  0  0  0  0  # atno 7974 bound_to 7965
  155.3025  140.0453  157.3030 H   0  0  0  0  0  0  0  0  0  0  0  0  # atno 8008 bound_to 7997
  154.5479  140.2308  155.8500 H   0  0  0  0  0  0  0  0  0  0  0  0  # atno 8009 bound_to 7997
  156.1940  140.3043  155.9397 H   0  0  0  0  0  0  0  0  0  0  0  0  # atno 8010 bound_to 7997
  139.5629  144.1826  152.1267 H   0  0  0  0  0  0  0  0  0  0  0  0  # atno 10167 bound_to 10162
  156.1024  130.6182  150.9146 H   0  0  0  0  0  0  0  0  0  0  0  0  # atno 10718 bound_to 10713
  154.7707  135.4874  153.9643 H   0  0  0  0  0  0  0  0  0  0  0  0  # atno 10763 bound_to 10752
  153.1364  135.6763  153.9103 H   0  0  0  0  0  0  0  0  0  0  0  0  # atno 10764 bound_to 10752
  153.8791  135.3134  155.3423 H   0  0  0  0  0  0  0  0  0  0  0  0  # atno 10765 bound_to 10752
  140.7462  134.3459  157.5136 H   0  0  0  0  0  0  0  0  0  0  0  0  # atno 11005 bound_to 11000
  145.5532  139.1477  143.3382 LP  0  0  0  0  0  0  0  0  0  0  0  0  # atno 17320 bound_to 7965
  146.2302  140.5670  142.8978 LP  0  0  0  0  0  0  0  0  0  0  0  0  # atno 17321 bound_to 7965
  140.1343  144.5260  150.6783 LP  0  0  0  0  0  0  0  0  0  0  0  0  # atno 17342 bound_to 10162
  140.6910  143.2376  151.5130 LP  0  0  0  0  0  0  0  0  0  0  0  0  # atno 17343 bound_to 10162
  157.6196  131.0931  150.8647 LP  0  0  0  0  0  0  0  0  0  0  0  0  # atno 17370 bound_to 10713
  156.8773  130.5167  149.5293 LP  0  0  0  0  0  0  0  0  0  0  0  0  # atno 17371 bound_to 10713
  139.8796  134.9112  156.3032 LP  0  0  0  0  0  0  0  0  0  0  0  0  # atno 17394 bound_to 11000
  140.9792  133.7278  156.0648 LP  0  0  0  0  0  0  0  0  0  0  0  0  # atno 17395 bound_to 11000

$$$$
