AV-unprocessed.smi:675|AV-procd|sdf|3306|dock10
  -GOLD-   22720 0273D 1   1.00000     0.00000
 Structure written by MMmdl.
 28 29  0  0  0  0  0  0  0  0  2 V2000
  154.2890  134.5514  162.2176 O   0  0  0  0  0  0  0  0  0  0  0  0
  153.9512  135.6110  161.6919 C   0  0  0  0  0  0  0  0  0  0  0  0
  153.7653  135.7393  160.3454 N   0  5  0  0  0  0  0  0  0  0  0  0
  153.3900  136.9094  159.7420 C   0  0  0  0  0  0  0  0  0  0  0  0
  153.2307  136.9984  158.5247 O   0  0  0  0  0  0  0  0  0  0  0  0
  153.1854  138.0137  160.5195 N   0  0  0  0  0  0  0  0  0  0  0  0
  152.7915  139.3152  159.9608 C   0  0  0  0  0  0  0  0  0  0  0  0
  153.8097  140.4237  160.3048 C   0  0  1  0  0  0  0  0  0  0  0  0
  154.9912  140.2047  159.5579 O   0  0  0  0  0  0  0  0  0  0  0  0
  153.2162  141.8064  160.0374 C   0  0  0  0  0  0  0  0  0  0  0  0
  152.8273  142.1658  158.7255 C   0  0  0  0  0  0  0  0  0  0  0  0
  152.2716  143.4318  158.4617 C   0  0  0  0  0  0  0  0  0  0  0  0
  152.0914  144.3523  159.5094 C   0  0  0  0  0  0  0  0  0  0  0  0
  152.4615  144.0015  160.8205 C   0  0  0  0  0  0  0  0  0  0  0  0
  153.0182  142.7351  161.0911 C   0  0  0  0  0  0  0  0  0  0  0  0
  153.4310  142.3533  162.7267 Cl  0  0  0  0  0  0  0  0  0  0  0  0
  153.3646  137.9356  161.9114 C   0  0  0  0  0  0  0  0  0  0  0  0
  153.7349  136.7940  162.5225 C   0  0  0  0  0  0  0  0  0  0  0  0
  153.9507  136.7303  164.2356 Cl  0  0  0  0  0  0  0  0  0  0  0  0
  152.6006  139.2750  158.8868 H   0  0  0  0  0  0  0  0  0  0  0  0
  151.8252  139.5706  160.3990 H   0  0  0  0  0  0  0  0  0  0  0  0
  154.0983  140.3567  161.3533 H   0  0  0  0  0  0  0  0  0  0  0  0
  155.6142  139.7539  160.1064 H   0  0  0  0  0  0  0  0  0  0  0  0
  152.9486  141.4691  157.9090 H   0  0  0  0  0  0  0  0  0  0  0  0
  151.9811  143.6948  157.4552 H   0  0  0  0  0  0  0  0  0  0  0  0
  151.6644  145.3237  159.3089 H   0  0  0  0  0  0  0  0  0  0  0  0
  152.3133  144.7078  161.6242 H   0  0  0  0  0  0  0  0  0  0  0  0
  153.1877  138.8573  162.4462 H   0  0  0  0  0  0  0  0  0  0  0  0
  1  2  2  0  0  0  0
  2 18  1  0  0  0  0
  2  3  1  0  0  0  0
  3  4  1  0  0  0  0
  4  5  2  0  0  0  0
  4  6  1  0  0  0  0
  6  7  1  0  0  0  0
  6 17  1  0  0  0  0
  7  8  1  0  0  0  0
  7 20  1  0  0  0  0
  7 21  1  0  0  0  0
  8  9  1  0  0  0  0
  8 10  1  0  0  0  0
  8 22  1  0  0  0  0
  9 23  1  0  0  0  0
 10 15  1  0  0  0  0
 10 11  2  0  0  0  0
 11 12  1  0  0  0  0
 11 24  1  0  0  0  0
 12 13  2  0  0  0  0
 12 25  1  0  0  0  0
 13 14  1  0  0  0  0
 13 26  1  0  0  0  0
 14 15  2  0  0  0  0
 14 27  1  0  0  0  0
 15 16  1  0  0  0  0
 17 18  2  0  0  0  0
 17 28  1  0  0  0  0
 18 19  1  0  0  0  0
M  CHG  1   3  -1
M  END
> <s_m_source_file>
AV-unprocessed.smi

> <i_m_source_file_index>
675

> <i_lp_mmshare_version>
43012

> <i_f3d_flags>
0

> <s_epik_input>
Tz1jMVtuSF1jKD1PKW4oW2NIXWMxQ2wpW0NIMl1bQ0BIXShbT0hdKWMyW2NIXVtjSF1bY0hdW2NIXWMyQ2w=

> <s_epik_cmdline>
J2VwaWtfcHl0aG9uJywgJy1waCcsICc3LjAnLCAnLXRuJywgJzgnLCAnLW1hJywgJzIwMCcsICctbWV0YWxfYmluZGluZycsICctaW1hZScsICc8aW5maWxlLm1hZT4nLCAnLW9tYWUnLCAnPG91dGZpbGUubWFlPic=

> <r_epik_Ionization_Penalty>
1.79791

> <r_epik_Ionization_Penalty_Charging>
3.23819e-08

> <r_epik_Ionization_Penalty_Neutral>
1.79791

> <r_epik_State_Penalty>
1.91135

> <r_epik_Charging_Adjusted_Penalty>
1.91135

> <i_epik_Tot_Q>
-1

> <i_epik_Tot_abs_Q>
1

> <r_epik_Metal_State_Penalty>
0.014155

> <b_epik_Metal_Only>
0

> <s_lp_Force_Field>
OPLS_2005

> <r_lp_Energy>
23.2972

> <b_lp_Chiralities_Consistent>
1

> <s_lp_Variant>
AV-unprocessed.smi:675-4

> <Gold.Version>
5.8.1

> <Gold.Id.Protein>
6NUR|6NUR_protein|mol2

> <Gold.PLP.Fitness>
50.5680

> <Gold.PLP.PLP>
-42.6867

> <Gold.PLP.part.hbond>
-1.9703

> <Gold.PLP.part.metal>
0.0000

> <Gold.PLP.part.buried>
-4.0090

> <Gold.PLP.part.nonpolar>
-36.3876

> <Gold.PLP.part.repulsive>
0.0000

> <Gold.PLP.ligand.clash>
0.0000

> <Gold.PLP.ligand.torsion>
0.0961

> <Gold.PLP.Chemscore.Hbond>
2.6880

> <Gold.PLP.Chemscore.CHOScore>
0.0000

> <Gold.PLP.Chemscore.Metal>
0.0000

> <Gold.Chemscore.Hbonds>
donor molecule, donor type, donor heavy atom, donor atom, acceptor molecule, acceptor atom, score
      P1  H  6896  6909       L1     3  2.00
      P1  H  7997  8009       L1     9  0.50

> <Gold.PLP.Chemscore.Internal.Correction>
0.0097

> <Gold.Rescore>
     Score         DG    S(hbond)    S(metal)    S(lipo)     H(rot)  DE(clash)    DE(int)     intcor
     16.46     -16.55       0.83        0.00     117.51       2.13       0.01       0.08       ----

> <Gold.Chemscore.Fitness>
16.4604

> <Gold.Chemscore.DG>
-16.5491

> <Gold.Chemscore.ZeroCoef>
-5.4800

> <Gold.Chemscore.Hbond>
0.8285

> <Gold.Chemscore.Metal>
0.0000

> <Gold.Chemscore.Lipo>
117.5115

> <Gold.Chemscore.Internal_Hbond>
0.0000

> <Gold.Chemscore.DEClash>
0.0089

> <Gold.Chemscore.DEInternal>
0.0799

> <Gold.Chemscore.Rot>
2.1278

> <Gold.Chemscore.Internal.Correction>
   9.000000E+99

> <Gold.Chemscore.Hbonds>
donor molecule, donor type, donor heavy atom, donor atom, acceptor molecule, acceptor atom, score
      P1  H  6896  6909       L1     3  0.18
      P1  H  7997  8009       L1     9  0.45

> <Gold.Chemscore.Hbond.Weighted>
-2.7673

> <Gold.Chemscore.Metal.Weighted>
-0.0000

> <Gold.Chemscore.Lipo.Weighted>
-13.7488

> <Gold.Chemscore.Internal_Hbond.Weighted>
0.0000

> <Gold.Chemscore.DEClash.Weighted>
0.0089

> <Gold.Chemscore.DEInternal.Weighted>
0.0799

> <Gold.Chemscore.Rot.Weighted>
5.4470

> <Gold.Chemscore.Internal.Correction.Weighted>
   9.000000E+99

> <Gold.Protein.RotatedTorsions>
[ 6907 6896 6895 6894 ] final -178.16 input  -60.11 | X-H torsion
[ 7974 7965 7964 7962 ] final  103.90 input  175.53 | X-H torsion
[ 8008 7997 7996 7995 ] final  105.81 input   59.86 | X-H torsion
[ 10167 10162 10161 10158 ] final  173.78 input  -65.29 | X-H torsion
[ 10718 10713 10712 10709 ] final -120.43 input   66.30 | X-H torsion
[ 10763 10752 10751 10750 ] final  -52.48 input  -60.55 | X-H torsion
[ 11005 11000 10999 10996 ] final  -31.72 input  -57.11 | X-H torsion

> <Gold.Protein.ActiveResidues>
 VAL166  LYS551  ARG553  GLY616  TRP617  ASP618  TYR619  PRO620  LYS621  CYS622 
 ASP623  PHE694  ASN695  SER759  ASP760  ASP761  ALA762  ILE779  LEU786  VAL792 
 PHE793  MET794  SER795  GLU796  ALA797  LYS798  CYS799  TRP800  GLU811  SER814 

> <Gold.Protein.RotatedAtoms>
  151.6327  133.3331  159.3112 H   0  0  0  0  0  0  0  0  0  0  0  0  # atno 6907 bound_to 6896
  150.8048  134.7169  159.6645 H   0  0  0  0  0  0  0  0  0  0  0  0  # atno 6908 bound_to 6896
  152.4143  134.6074  160.0068 H   0  0  0  0  0  0  0  0  0  0  0  0  # atno 6909 bound_to 6896
  145.3399  139.2465  143.3615 H   0  0  0  0  0  0  0  0  0  0  0  0  # atno 7974 bound_to 7965
  156.1691  140.3124  155.8941 H   0  0  0  0  0  0  0  0  0  0  0  0  # atno 8008 bound_to 7997
  155.3625  140.0477  157.3063 H   0  0  0  0  0  0  0  0  0  0  0  0  # atno 8009 bound_to 7997
  154.5222  140.2202  155.8966 H   0  0  0  0  0  0  0  0  0  0  0  0  # atno 8010 bound_to 7997
  139.5119  144.3222  152.0192 H   0  0  0  0  0  0  0  0  0  0  0  0  # atno 10167 bound_to 10162
  156.1257  130.6357  150.9539 H   0  0  0  0  0  0  0  0  0  0  0  0  # atno 10718 bound_to 10713
  154.1435  135.6501  153.4947 H   0  0  0  0  0  0  0  0  0  0  0  0  # atno 10763 bound_to 10752
  153.0159  135.5321  154.6881 H   0  0  0  0  0  0  0  0  0  0  0  0  # atno 10764 bound_to 10752
  154.6149  135.2958  155.0362 H   0  0  0  0  0  0  0  0  0  0  0  0  # atno 10765 bound_to 10752
  140.9492  133.7231  156.1193 H   0  0  0  0  0  0  0  0  0  0  0  0  # atno 11005 bound_to 11000
  146.3012  140.3994  142.8703 LP  0  0  0  0  0  0  0  0  0  0  0  0  # atno 17320 bound_to 7965
  144.8798  140.7386  143.5993 LP  0  0  0  0  0  0  0  0  0  0  0  0  # atno 17321 bound_to 7965
  140.2663  144.4012  150.6167 LP  0  0  0  0  0  0  0  0  0  0  0  0  # atno 17342 bound_to 10162
  140.6121  143.2170  151.6866 LP  0  0  0  0  0  0  0  0  0  0  0  0  # atno 17343 bound_to 10162
  157.6439  131.0906  150.8194 LP  0  0  0  0  0  0  0  0  0  0  0  0  # atno 17370 bound_to 10713
  156.8285  130.5008  149.5334 LP  0  0  0  0  0  0  0  0  0  0  0  0  # atno 17371 bound_to 10713
  140.7627  134.3921  157.5523 LP  0  0  0  0  0  0  0  0  0  0  0  0  # atno 17394 bound_to 11000
  139.8842  134.8971  156.2717 LP  0  0  0  0  0  0  0  0  0  0  0  0  # atno 17395 bound_to 11000

$$$$
