AV-unprocessed.smi:1757|AV-procd|sdf|7075|dock8
  -GOLD-   22720 8293D 1   1.00000     0.00000
 Structure written by MMmdl.
 40 41  0  0  0  0  0  0  0  0  2 V2000
  143.4000  133.0135  148.1402 C   0  0  0  0  0  0  0  0  0  0  0  0
  144.5210  133.3313  149.0506 N   0  3  2  0  0  0  0  0  0  0  0  0
  145.0558  132.1253  149.7303 C   0  0  0  0  0  0  0  0  0  0  0  0
  146.2996  132.4683  150.5673 C   0  0  0  0  0  0  0  0  0  0  0  0
  145.9945  133.5805  151.5845 C   0  0  1  0  0  0  0  0  0  0  0  0
  147.2170  133.9621  152.2870 N   0  0  0  0  0  0  0  0  0  0  0  0
  147.9034  133.1923  153.1441 C   0  0  0  0  0  0  0  0  0  0  0  0
  147.5691  132.0467  153.4452 O   0  0  0  0  0  0  0  0  0  0  0  0
  148.9722  133.8513  153.6276 N   0  0  0  0  0  0  0  0  0  0  0  0
  149.9616  133.3986  154.5156 C   0  0  0  0  0  0  0  0  0  0  0  0
  150.4385  132.1271  154.5577 C   0  0  0  0  0  0  0  0  0  0  0  0
  151.4761  131.7249  155.4937 C   0  0  0  0  0  0  0  0  0  0  0  0
  152.0022  130.3002  155.5658 C   0  0  0  0  0  0  0  0  0  0  0  0
  151.3720  129.5334  154.6765 F   0  0  0  0  0  0  0  0  0  0  0  0
  153.3042  130.2743  155.2817 F   0  0  0  0  0  0  0  0  0  0  0  0
  151.8265  129.7690  156.7759 F   0  0  0  0  0  0  0  0  0  0  0  0
  151.9497  132.6812  156.3127 C   0  0  0  0  0  0  0  0  0  0  0  0
  151.4747  133.9938  156.2654 N   0  0  0  0  0  0  0  0  0  0  0  0
  150.5121  134.4229  155.4186 C   0  0  0  0  0  0  0  0  0  0  0  0
  150.1490  135.5986  155.4344 O   0  0  0  0  0  0  0  0  0  0  0  0
  145.4016  134.8009  150.8604 C   0  0  0  0  0  0  0  0  0  0  0  0
  144.1789  134.4069  150.0146 C   0  0  0  0  0  0  0  0  0  0  0  0
  151.8855  134.6543  156.9093 H   0  0  0  0  0  0  0  0  0  0  0  0
  142.5473  132.6172  148.6931 H   0  0  0  0  0  0  0  0  0  0  0  0
  143.7034  132.2721  147.4004 H   0  0  0  0  0  0  0  0  0  0  0  0
  143.0757  133.9051  147.6027 H   0  0  0  0  0  0  0  0  0  0  0  0
  144.2829  131.6908  150.3669 H   0  0  0  0  0  0  0  0  0  0  0  0
  145.3156  131.3707  148.9869 H   0  0  0  0  0  0  0  0  0  0  0  0
  146.6535  131.5754  151.0841 H   0  0  0  0  0  0  0  0  0  0  0  0
  147.1070  132.7819  149.9036 H   0  0  0  0  0  0  0  0  0  0  0  0
  145.2494  133.2027  152.2874 H   0  0  0  0  0  0  0  0  0  0  0  0
  147.5697  134.8912  152.1082 H   0  0  0  0  0  0  0  0  0  0  0  0
  149.0679  134.8181  153.3520 H   0  0  0  0  0  0  0  0  0  0  0  0
  150.0695  131.3802  153.8740 H   0  0  0  0  0  0  0  0  0  0  0  0
  152.7166  132.5158  157.0553 H   0  0  0  0  0  0  0  0  0  0  0  0
  145.1174  135.5646  151.5855 H   0  0  0  0  0  0  0  0  0  0  0  0
  146.1565  135.2531  150.2152 H   0  0  0  0  0  0  0  0  0  0  0  0
  143.8151  135.2811  149.4732 H   0  0  0  0  0  0  0  0  0  0  0  0
  143.3662  134.0733  150.6621 H   0  0  0  0  0  0  0  0  0  0  0  0
  145.2666  133.6901  148.4711 H   0  0  0  0  0  0  0  0  0  0  0  0
  1  2  1  0  0  0  0
  1 24  1  0  0  0  0
  1 25  1  0  0  0  0
  1 26  1  0  0  0  0
  2 22  1  0  0  0  0
  2  3  1  0  0  0  0
  2 40  1  0  0  0  0
  3  4  1  0  0  0  0
  3 27  1  0  0  0  0
  3 28  1  0  0  0  0
  4  5  1  0  0  0  0
  4 29  1  0  0  0  0
  4 30  1  0  0  0  0
  5  6  1  0  0  0  0
  5 21  1  0  0  0  0
  5 31  1  0  0  0  0
  6  7  1  0  0  0  0
  6 32  1  0  0  0  0
  7  8  2  0  0  0  0
  7  9  1  0  0  0  0
  9 10  1  0  0  0  0
  9 33  1  0  0  0  0
 10 19  1  0  0  0  0
 10 11  2  0  0  0  0
 11 12  1  0  0  0  0
 11 34  1  0  0  0  0
 12 13  1  0  0  0  0
 12 17  2  0  0  0  0
 13 14  1  0  0  0  0
 13 15  1  0  0  0  0
 13 16  1  0  0  0  0
 17 18  1  0  0  0  0
 17 35  1  0  0  0  0
 18 23  1  0  0  0  0
 18 19  1  0  0  0  0
 19 20  2  0  0  0  0
 21 22  1  0  0  0  0
 21 36  1  0  0  0  0
 21 37  1  0  0  0  0
 22 38  1  0  0  0  0
 22 39  1  0  0  0  0
M  CHG  1   2   1
M  END
> <s_m_source_file>
AV-unprocessed.smi

> <i_m_source_file_index>
1757

> <i_lp_mmshare_version>
43012

> <i_f3d_flags>
0

> <s_epik_input>
W0NIM11OMVtDSDJdW0NIMl1bQ0hdKFtDSDJdW0NIMl0xKVtOSF1DKD1PKVtOSF1jMltjSF1jKEMoRikoRilGKVtjSF1bbkhdYzI9Tw==

> <s_epik_cmdline>
J2VwaWtfcHl0aG9uJywgJy1waCcsICc3LjAnLCAnLXRuJywgJzgnLCAnLW1hJywgJzIwMCcsICctbWV0YWxfYmluZGluZycsICctaW1hZScsICc8aW5maWxlLm1hZT4nLCAnLW9tYWUnLCAnPG91dGZpbGUubWFlPic=

> <r_lp_tautomer_probability>
1

> <r_epik_Ionization_Penalty>
0.00859077

> <r_epik_Ionization_Penalty_Charging>
0.00857233

> <r_epik_Ionization_Penalty_Neutral>
1.84472e-05

> <r_epik_State_Penalty>
-0

> <r_epik_Charging_Adjusted_Penalty>
0.00857233

> <i_epik_Tot_Q>
1

> <i_epik_Tot_abs_Q>
1

> <r_epik_Metal_State_Penalty>
0.377538

> <b_epik_Metal_Only>
0

> <s_lp_Force_Field>
OPLS_2005

> <r_lp_Energy>
26.9081

> <b_lp_Chiralities_Consistent>
1

> <s_lp_Variant>
AV-unprocessed.smi:1757-1

> <Gold.Version>
5.8.1

> <Gold.Id.Protein>
6NUR|6NUR_protein|mol2

> <Gold.PLP.Fitness>
44.4371

> <Gold.PLP.PLP>
-36.1895

> <Gold.PLP.part.hbond>
-3.0000

> <Gold.PLP.part.metal>
0.0000

> <Gold.PLP.part.buried>
-0.2303

> <Gold.PLP.part.nonpolar>
-31.8615

> <Gold.PLP.part.repulsive>
0.5443

> <Gold.PLP.ligand.clash>
0.0000

> <Gold.PLP.ligand.torsion>
0.2953

> <Gold.PLP.Chemscore.Hbond>
2.9440

> <Gold.PLP.Chemscore.CHOScore>
0.0000

> <Gold.PLP.Chemscore.Metal>
0.0000

> <Gold.Chemscore.Hbonds>
donor molecule, donor type, donor heavy atom, donor atom, acceptor molecule, acceptor atom, score
      L1  H     2    40       P1  7921  1.00
      L1  H     6    32       P1  7948  1.00
      L1  H     9    33       P1  7948  0.76

> <Gold.PLP.Chemscore.Internal.Correction>
0.0063

> <Gold.Rescore>
     Score         DG    S(hbond)    S(metal)    S(lipo)     H(rot)  DE(clash)    DE(int)     intcor
     17.22     -19.52       2.35        0.00      74.81       1.00       1.76       0.53       ----

> <Gold.Chemscore.Fitness>
17.2225

> <Gold.Chemscore.DG>
-19.5186

> <Gold.Chemscore.ZeroCoef>
-5.4800

> <Gold.Chemscore.Hbond>
2.3491

> <Gold.Chemscore.Metal>
0.0000

> <Gold.Chemscore.Lipo>
74.8078

> <Gold.Chemscore.Internal_Hbond>
0.0000

> <Gold.Chemscore.DEClash>
1.7644

> <Gold.Chemscore.DEInternal>
0.5317

> <Gold.Chemscore.Rot>
1.0000

> <Gold.Chemscore.Internal.Correction>
   9.000000E+99

> <Gold.Chemscore.Hbonds>
donor molecule, donor type, donor heavy atom, donor atom, acceptor molecule, acceptor atom, score
      L1  H     2    40       P1  7921  0.64
      L1  H     6    32       P1  7948  0.83
      L1  H     9    33       P1  7948  0.10

> <Gold.Chemscore.Hbond.Weighted>
-7.8460

> <Gold.Chemscore.Metal.Weighted>
-0.0000

> <Gold.Chemscore.Lipo.Weighted>
-8.7525

> <Gold.Chemscore.Internal_Hbond.Weighted>
0.0000

> <Gold.Chemscore.DEClash.Weighted>
1.7644

> <Gold.Chemscore.DEInternal.Weighted>
0.5317

> <Gold.Chemscore.Rot.Weighted>
2.5600

> <Gold.Chemscore.Internal.Correction.Weighted>
   9.000000E+99

> <Gold.Protein.RotatedTorsions>
[ 6907 6896 6895 6894 ] final   99.98 input  -60.11 | X-H torsion
[ 7974 7965 7964 7962 ] final  108.35 input  175.53 | X-H torsion
[ 8008 7997 7996 7995 ] final  126.26 input   59.86 | X-H torsion
[ 10167 10162 10161 10158 ] final  -73.30 input  -65.29 | X-H torsion
[ 10718 10713 10712 10709 ] final  121.33 input   66.30 | X-H torsion
[ 10763 10752 10751 10750 ] final  159.45 input  -60.55 | X-H torsion
[ 11005 11000 10999 10996 ] final -122.90 input  -57.11 | X-H torsion

> <Gold.Protein.ActiveResidues>
 VAL166  LYS551  ARG553  GLY616  TRP617  ASP618  TYR619  PRO620  LYS621  CYS622 
 ASP623  PHE694  ASN695  SER759  ASP760  ASP761  ALA762  ILE779  LEU786  VAL792 
 PHE793  MET794  SER795  GLU796  ALA797  LYS798  CYS799  TRP800  GLU811  SER814 

> <Gold.Protein.RotatedAtoms>
  152.5381  134.0346  159.8039 H   0  0  0  0  0  0  0  0  0  0  0  0  # atno 6907 bound_to 6896
  151.0512  133.5615  159.2649 H   0  0  0  0  0  0  0  0  0  0  0  0  # atno 6908 bound_to 6896
  151.2549  135.0642  159.9130 H   0  0  0  0  0  0  0  0  0  0  0  0  # atno 6909 bound_to 6896
  145.2818  139.2630  143.3911 H   0  0  0  0  0  0  0  0  0  0  0  0  # atno 7974 bound_to 7965
  156.2858  140.2697  156.2082 H   0  0  0  0  0  0  0  0  0  0  0  0  # atno 8008 bound_to 7997
  155.0291  140.0386  157.2485 H   0  0  0  0  0  0  0  0  0  0  0  0  # atno 8009 bound_to 7997
  154.7370  140.2717  155.6412 H   0  0  0  0  0  0  0  0  0  0  0  0  # atno 8010 bound_to 7997
  140.5121  143.2343  151.7575 H   0  0  0  0  0  0  0  0  0  0  0  0  # atno 10167 bound_to 10162
  157.5825  131.1073  150.8159 H   0  0  0  0  0  0  0  0  0  0  0  0  # atno 10718 bound_to 10713
  154.2320  135.2778  155.2886 H   0  0  0  0  0  0  0  0  0  0  0  0  # atno 10763 bound_to 10752
  154.5616  135.5645  153.7016 H   0  0  0  0  0  0  0  0  0  0  0  0  # atno 10764 bound_to 10752
  153.0018  135.6299  154.2462 H   0  0  0  0  0  0  0  0  0  0  0  0  # atno 10765 bound_to 10752
  140.9960  134.0471  157.3597 H   0  0  0  0  0  0  0  0  0  0  0  0  # atno 11005 bound_to 11000
  146.3214  140.3287  142.8639 LP  0  0  0  0  0  0  0  0  0  0  0  0  # atno 17320 bound_to 7965
  144.9247  140.7907  143.5727 LP  0  0  0  0  0  0  0  0  0  0  0  0  # atno 17321 bound_to 7965
  139.4899  144.4375  151.9802 LP  0  0  0  0  0  0  0  0  0  0  0  0  # atno 17342 bound_to 10162
  140.3468  144.3137  150.5956 LP  0  0  0  0  0  0  0  0  0  0  0  0  # atno 17343 bound_to 10162
  156.8601  130.5110  149.5304 LP  0  0  0  0  0  0  0  0  0  0  0  0  # atno 17370 bound_to 10713
  156.0872  130.5867  150.9669 LP  0  0  0  0  0  0  0  0  0  0  0  0  # atno 17371 bound_to 10713
  139.9015  135.0166  156.7290 LP  0  0  0  0  0  0  0  0  0  0  0  0  # atno 17394 bound_to 11000
  140.6965  133.9344  155.7998 LP  0  0  0  0  0  0  0  0  0  0  0  0  # atno 17395 bound_to 11000

$$$$
