AV-unprocessed.smi:3279|AV-procd|sdf|12551|dock4
  -GOLD-   2272018473D 1   1.00000     0.00000
 Structure written by MMmdl.
 36 36  0  0  0  0  0  0  0  0  1 V2000
  146.1901  137.9615  154.7013 C   0  0  0  0  0  0  0  0  0  0  0  0
  147.0096  138.5303  153.5294 C   0  0  1  0  0  0  0  0  0  0  0  0
  146.4081  138.2138  152.1435 C   0  0  0  0  0  0  0  0  0  0  0  0
  146.3368  136.7787  151.8846 N   0  0  0  0  0  0  0  0  0  0  0  0
  145.2097  136.0627  151.7471 C   0  0  0  0  0  0  0  0  0  0  0  0
  144.0809  136.5479  151.8156 O   0  0  0  0  0  0  0  0  0  0  0  0
  145.3863  134.5685  151.4901 C   0  0  0  0  0  0  0  0  0  0  0  0
  144.8355  134.2660  150.2112 O   0  0  0  0  0  0  0  0  0  0  0  0
  144.7333  132.8931  149.8254 C   0  0  0  0  0  0  0  0  0  0  0  0
  146.1872  132.3952  149.8047 C   0  0  0  0  0  0  0  0  0  0  0  0
  144.1263  132.7666  148.4142 C   0  0  0  0  0  0  0  0  0  0  0  0
  143.9250  132.0792  150.8557 C   0  0  0  0  0  0  0  0  0  0  0  0
  147.2314  140.0025  153.6953 C   0  0  0  0  0  0  0  0  0  0  0  0
  148.3937  140.6052  153.9179 N   0  0  0  0  0  0  0  0  0  0  0  0
  148.0603  141.9481  153.9877 N   0  0  0  0  0  0  0  0  0  0  0  0
  146.7818  142.1302  153.8139 N   0  0  0  0  0  0  0  0  0  0  0  0
  146.2477  140.9023  153.6265 N   0  0  0  0  0  0  0  0  0  0  0  0
  145.2641  140.7414  153.4648 H   0  0  0  0  0  0  0  0  0  0  0  0
  146.6617  138.1955  155.6563 H   0  0  0  0  0  0  0  0  0  0  0  0
  146.1019  136.8769  154.6435 H   0  0  0  0  0  0  0  0  0  0  0  0
  145.1818  138.3769  154.7179 H   0  0  0  0  0  0  0  0  0  0  0  0
  147.9920  138.0562  153.5695 H   0  0  0  0  0  0  0  0  0  0  0  0
  145.4284  138.6830  152.0370 H   0  0  0  0  0  0  0  0  0  0  0  0
  147.0368  138.6492  151.3661 H   0  0  0  0  0  0  0  0  0  0  0  0
  147.2151  136.2855  151.8134 H   0  0  0  0  0  0  0  0  0  0  0  0
  146.4477  134.3235  151.5320 H   0  0  0  0  0  0  0  0  0  0  0  0
  144.8816  134.0228  152.2868 H   0  0  0  0  0  0  0  0  0  0  0  0
  146.2446  131.3447  149.5172 H   0  0  0  0  0  0  0  0  0  0  0  0
  146.6523  132.4949  150.7862 H   0  0  0  0  0  0  0  0  0  0  0  0
  146.7904  132.9647  149.0970 H   0  0  0  0  0  0  0  0  0  0  0  0
  144.6581  133.3941  147.6984 H   0  0  0  0  0  0  0  0  0  0  0  0
  143.0749  133.0521  148.3920 H   0  0  0  0  0  0  0  0  0  0  0  0
  144.1828  131.7383  148.0559 H   0  0  0  0  0  0  0  0  0  0  0  0
  143.9723  131.0125  150.6340 H   0  0  0  0  0  0  0  0  0  0  0  0
  142.8705  132.3547  150.8601 H   0  0  0  0  0  0  0  0  0  0  0  0
  144.3123  132.2227  151.8650 H   0  0  0  0  0  0  0  0  0  0  0  0
  1  2  1  0  0  0  0
  1 19  1  0  0  0  0
  1 20  1  0  0  0  0
  1 21  1  0  0  0  0
  2  3  1  0  0  0  0
  2 13  1  0  0  0  0
  2 22  1  0  0  0  0
  3  4  1  0  0  0  0
  3 23  1  0  0  0  0
  3 24  1  0  0  0  0
  4  5  1  0  0  0  0
  4 25  1  0  0  0  0
  5  6  2  0  0  0  0
  5  7  1  0  0  0  0
  7  8  1  0  0  0  0
  7 26  1  0  0  0  0
  7 27  1  0  0  0  0
  8  9  1  0  0  0  0
  9 10  1  0  0  0  0
  9 11  1  0  0  0  0
  9 12  1  0  0  0  0
 10 28  1  0  0  0  0
 10 29  1  0  0  0  0
 10 30  1  0  0  0  0
 11 31  1  0  0  0  0
 11 32  1  0  0  0  0
 11 33  1  0  0  0  0
 12 34  1  0  0  0  0
 12 35  1  0  0  0  0
 12 36  1  0  0  0  0
 13 17  1  0  0  0  0
 13 14  2  0  0  0  0
 14 15  1  0  0  0  0
 15 16  2  0  0  0  0
 16 17  1  0  0  0  0
 17 18  1  0  0  0  0
M  END
> <s_m_source_file>
AV-unprocessed.smi

> <i_m_source_file_index>
3279

> <i_lp_mmshare_version>
43012

> <i_f3d_flags>
0

> <s_epik_input>
W25IXTFubm5jMVtDQEhdKFtDSDNdKVtDSDJdW05IXUMoPU8pW0NIMl1PQyhbQ0gzXSkoW0NIM10pW0NIM10=

> <s_epik_cmdline>
J2VwaWtfcHl0aG9uJywgJy1waCcsICc3LjAnLCAnLXRuJywgJzgnLCAnLW1hJywgJzIwMCcsICctbWV0YWxfYmluZGluZycsICctaW1hZScsICc8aW5maWxlLm1hZT4nLCAnLW9tYWUnLCAnPG91dGZpbGUubWFlPic=

> <r_lp_tautomer_probability>
0.3

> <r_epik_Ionization_Penalty>
1.45055

> <r_epik_Ionization_Penalty_Charging>
0

> <r_epik_Ionization_Penalty_Neutral>
1.45055

> <r_epik_State_Penalty>
2.31845

> <r_epik_Charging_Adjusted_Penalty>
2.31845

> <i_epik_Tot_Q>
0

> <i_epik_Tot_abs_Q>
0

> <r_epik_Metal_State_Penalty>
2.36898

> <b_epik_Metal_Only>
0

> <s_lp_Force_Field>
OPLS_2005

> <r_lp_Energy>
7.01933

> <b_lp_Chiralities_Consistent>
1

> <s_lp_Variant>
AV-unprocessed.smi:3279-4

> <Gold.Version>
5.8.1

> <Gold.Id.Protein>
6NUR|6NUR_protein|mol2

> <Gold.PLP.Fitness>
33.7157

> <Gold.PLP.PLP>
-27.4789

> <Gold.PLP.part.hbond>
-3.0000

> <Gold.PLP.part.metal>
0.0000

> <Gold.PLP.part.buried>
-5.7058

> <Gold.PLP.part.nonpolar>
-21.5625

> <Gold.PLP.part.repulsive>
3.3126

> <Gold.PLP.ligand.clash>
0.0000

> <Gold.PLP.ligand.torsion>
0.1090

> <Gold.PLP.Chemscore.Hbond>
2.1011

> <Gold.PLP.Chemscore.CHOScore>
0.0000

> <Gold.PLP.Chemscore.Metal>
0.0000

> <Gold.Chemscore.Hbonds>
donor molecule, donor type, donor heavy atom, donor atom, acceptor molecule, acceptor atom, score
      L1  H     4    25       P1  7948  1.00
      L1  H    17    18       P1 10175  1.00

> <Gold.PLP.Chemscore.Internal.Correction>
0.1516

> <Gold.Rescore>
     Score         DG    S(hbond)    S(metal)    S(lipo)     H(rot)  DE(clash)    DE(int)     intcor
     11.79     -12.25       1.91        0.00      62.49       2.71       0.20       0.25       ----

> <Gold.Chemscore.Fitness>
11.7917

> <Gold.Chemscore.DG>
-12.2480

> <Gold.Chemscore.ZeroCoef>
-5.4800

> <Gold.Chemscore.Hbond>
1.9139

> <Gold.Chemscore.Metal>
0.0000

> <Gold.Chemscore.Lipo>
62.4926

> <Gold.Chemscore.Internal_Hbond>
0.0000

> <Gold.Chemscore.DEClash>
0.2028

> <Gold.Chemscore.DEInternal>
0.2534

> <Gold.Chemscore.Rot>
2.7094

> <Gold.Chemscore.Internal.Correction>
   9.000000E+99

> <Gold.Chemscore.Hbonds>
donor molecule, donor type, donor heavy atom, donor atom, acceptor molecule, acceptor atom, score
      L1  H     4    25       P1  7948  0.97
      L1  H    17    18       P1 10175  0.87

> <Gold.Chemscore.Hbond.Weighted>
-6.3923

> <Gold.Chemscore.Metal.Weighted>
-0.0000

> <Gold.Chemscore.Lipo.Weighted>
-7.3116

> <Gold.Chemscore.Internal_Hbond.Weighted>
0.0000

> <Gold.Chemscore.DEClash.Weighted>
0.2028

> <Gold.Chemscore.DEInternal.Weighted>
0.2534

> <Gold.Chemscore.Rot.Weighted>
6.9360

> <Gold.Chemscore.Internal.Correction.Weighted>
   9.000000E+99

> <Gold.Protein.RotatedTorsions>
[ 6907 6896 6895 6894 ] final  -17.71 input  -60.11 | X-H torsion
[ 7974 7965 7964 7962 ] final   57.16 input  175.53 | X-H torsion
[ 8008 7997 7996 7995 ] final  108.09 input   59.86 | X-H torsion
[ 10167 10162 10161 10158 ] final -106.08 input  -65.29 | X-H torsion
[ 10718 10713 10712 10709 ] final  155.01 input   66.30 | X-H torsion
[ 10763 10752 10751 10750 ] final  165.62 input  -60.55 | X-H torsion
[ 11005 11000 10999 10996 ] final  148.75 input  -57.11 | X-H torsion

> <Gold.Protein.ActiveResidues>
 VAL166  LYS551  ARG553  GLY616  TRP617  ASP618  TYR619  PRO620  LYS621  CYS622 
 ASP623  PHE694  ASN695  SER759  ASP760  ASP761  ALA762  ILE779  LEU786  VAL792 
 PHE793  MET794  SER795  GLU796  ALA797  LYS798  CYS799  TRP800  GLU811  SER814 

> <Gold.Protein.RotatedAtoms>
  151.2893  135.0737  159.9197 H   0  0  0  0  0  0  0  0  0  0  0  0  # atno 6907 bound_to 6896
  152.5319  133.9949  159.7878 H   0  0  0  0  0  0  0  0  0  0  0  0  # atno 6908 bound_to 6896
  151.0216  133.5820  159.2701 H   0  0  0  0  0  0  0  0  0  0  0  0  # atno 6909 bound_to 6896
  145.9321  139.3816  143.0415 H   0  0  0  0  0  0  0  0  0  0  0  0  # atno 7974 bound_to 7965
  156.1876  140.3083  155.9268 H   0  0  0  0  0  0  0  0  0  0  0  0  # atno 8008 bound_to 7997
  155.3246  140.0457  157.3057 H   0  0  0  0  0  0  0  0  0  0  0  0  # atno 8009 bound_to 7997
  154.5414  140.2262  155.8645 H   0  0  0  0  0  0  0  0  0  0  0  0  # atno 8010 bound_to 7997
  140.1916  143.3887  152.1201 H   0  0  0  0  0  0  0  0  0  0  0  0  # atno 10167 bound_to 10162
  157.2240  131.0724  151.1894 H   0  0  0  0  0  0  0  0  0  0  0  0  # atno 10718 bound_to 10713
  154.3268  135.2755  155.2492 H   0  0  0  0  0  0  0  0  0  0  0  0  # atno 10763 bound_to 10752
  154.4821  135.5855  153.6401 H   0  0  0  0  0  0  0  0  0  0  0  0  # atno 10764 bound_to 10752
  152.9870  135.6114  154.3457 H   0  0  0  0  0  0  0  0  0  0  0  0  # atno 10765 bound_to 10752
  140.0986  134.8997  157.1762 H   0  0  0  0  0  0  0  0  0  0  0  0  # atno 11005 bound_to 11000
  145.8412  140.9579  143.0798 LP  0  0  0  0  0  0  0  0  0  0  0  0  # atno 17320 bound_to 7965
  144.6766  140.0287  143.7483 LP  0  0  0  0  0  0  0  0  0  0  0  0  # atno 17321 bound_to 7965
  139.5253  144.7094  151.5252 LP  0  0  0  0  0  0  0  0  0  0  0  0  # atno 17342 bound_to 10162
  140.6451  143.8810  150.6730 LP  0  0  0  0  0  0  0  0  0  0  0  0  # atno 17343 bound_to 10162
  157.3546  130.7100  149.6463 LP  0  0  0  0  0  0  0  0  0  0  0  0  # atno 17370 bound_to 10713
  155.9680  130.4242  150.4600 LP  0  0  0  0  0  0  0  0  0  0  0  0  # atno 17371 bound_to 10713
  140.3251  134.2872  155.7238 LP  0  0  0  0  0  0  0  0  0  0  0  0  # atno 17394 bound_to 11000
  141.2099  133.7734  156.9965 LP  0  0  0  0  0  0  0  0  0  0  0  0  # atno 17395 bound_to 11000

$$$$
