AV-unprocessed.smi:3303|AV-procd|sdf|12680|dock2
  -GOLD-   2272019 13D 1   1.00000     0.00000
 Structure written by MMmdl.
 44 45  0  0  0  0  0  0  0  0  2 V2000
  151.6755  140.1104  157.2975 C   0  0  0  0  0  0  0  0  0  0  0  0
  151.2795  141.3088  158.1772 C   0  0  1  0  0  0  0  0  0  0  0  0
  152.4079  141.6267  159.1779 C   0  0  0  0  0  0  0  0  0  0  0  0
  152.0460  142.7348  160.0657 N   0  0  0  0  0  0  0  0  0  0  0  0
  153.1255  142.8795  161.0389 C   0  0  0  0  0  0  0  0  0  0  0  0
  151.8374  143.9663  159.2850 C   0  0  2  0  0  0  0  0  0  0  0  0
  151.5106  145.1769  160.1833 C   0  0  0  0  0  0  0  0  0  0  0  0
  150.6813  143.7399  158.2881 C   0  0  0  0  0  0  0  0  0  0  0  0
  150.9525  142.5619  157.3423 C   0  0  2  0  0  0  0  0  0  0  0  0
  149.7693  142.3324  156.4832 N   0  3  0  0  0  0  0  0  0  0  0  0
  148.5797  141.8189  157.1912 C   0  0  0  0  0  0  0  0  0  0  0  0
  147.6105  141.1373  156.2157 C   0  0  0  0  0  0  0  0  0  0  0  0
  146.6450  142.1213  155.5833 C   0  0  0  0  0  0  0  0  0  0  0  0
  146.6938  142.3910  154.1989 C   0  0  0  0  0  0  0  0  0  0  0  0
  145.7786  143.3183  153.6638 C   0  0  0  0  0  0  0  0  0  0  0  0
  144.8554  143.9366  154.5289 C   0  0  0  0  0  0  0  0  0  0  0  0
  144.8889  143.5996  155.8967 C   0  0  0  0  0  0  0  0  0  0  0  0
  145.7641  142.7137  156.4205 N   0  0  0  0  0  0  0  0  0  0  0  0
  152.5461  140.3404  156.6823 H   0  0  0  0  0  0  0  0  0  0  0  0
  150.8648  139.8159  156.6308 H   0  0  0  0  0  0  0  0  0  0  0  0
  151.9222  139.2417  157.9085 H   0  0  0  0  0  0  0  0  0  0  0  0
  150.3931  141.0267  158.7485 H   0  0  0  0  0  0  0  0  0  0  0  0
  152.6071  140.7377  159.7782 H   0  0  0  0  0  0  0  0  0  0  0  0
  153.3316  141.8620  158.6460 H   0  0  0  0  0  0  0  0  0  0  0  0
  152.8688  143.6000  161.8148 H   0  0  0  0  0  0  0  0  0  0  0  0
  154.0522  143.2006  160.5611 H   0  0  0  0  0  0  0  0  0  0  0  0
  153.3156  141.9329  161.5464 H   0  0  0  0  0  0  0  0  0  0  0  0
  152.7477  144.1887  158.7251 H   0  0  0  0  0  0  0  0  0  0  0  0
  151.2339  146.0427  159.5811 H   0  0  0  0  0  0  0  0  0  0  0  0
  152.3636  145.4836  160.7883 H   0  0  0  0  0  0  0  0  0  0  0  0
  150.6774  144.9637  160.8539 H   0  0  0  0  0  0  0  0  0  0  0  0
  149.7553  143.5660  158.8393 H   0  0  0  0  0  0  0  0  0  0  0  0
  150.5216  144.6445  157.6996 H   0  0  0  0  0  0  0  0  0  0  0  0
  151.8180  142.8111  156.7252 H   0  0  0  0  0  0  0  0  0  0  0  0
  149.5262  143.2086  156.0435 H   0  0  0  0  0  0  0  0  0  0  0  0
  148.8995  141.1145  157.9602 H   0  0  0  0  0  0  0  0  0  0  0  0
  148.0764  142.6448  157.6959 H   0  0  0  0  0  0  0  0  0  0  0  0
  148.1695  140.6299  155.4282 H   0  0  0  0  0  0  0  0  0  0  0  0
  147.0391  140.3651  156.7330 H   0  0  0  0  0  0  0  0  0  0  0  0
  147.4140  141.9014  153.5599 H   0  0  0  0  0  0  0  0  0  0  0  0
  145.7851  143.5514  152.6092 H   0  0  0  0  0  0  0  0  0  0  0  0
  144.1387  144.6519  154.1532 H   0  0  0  0  0  0  0  0  0  0  0  0
  144.1954  144.0545  156.5886 H   0  0  0  0  0  0  0  0  0  0  0  0
  150.0222  141.6723  155.7617 H   0  0  0  0  0  0  0  0  0  0  0  0
  1  2  1  0  0  0  0
  1 19  1  0  0  0  0
  1 20  1  0  0  0  0
  1 21  1  0  0  0  0
  2  9  1  0  0  0  0
  2  3  1  0  0  0  0
  2 22  1  0  0  0  0
  3  4  1  0  0  0  0
  3 23  1  0  0  0  0
  3 24  1  0  0  0  0
  4  5  1  0  0  0  0
  4  6  1  0  0  0  0
  5 25  1  0  0  0  0
  5 26  1  0  0  0  0
  5 27  1  0  0  0  0
  6  7  1  0  0  0  0
  6  8  1  0  0  0  0
  6 28  1  0  0  0  0
  7 29  1  0  0  0  0
  7 30  1  0  0  0  0
  7 31  1  0  0  0  0
  8  9  1  0  0  0  0
  8 32  1  0  0  0  0
  8 33  1  0  0  0  0
  9 10  1  0  0  0  0
  9 34  1  0  0  0  0
 10 11  1  0  0  0  0
 10 35  1  0  0  0  0
 10 44  1  0  0  0  0
 11 12  1  0  0  0  0
 11 36  1  0  0  0  0
 11 37  1  0  0  0  0
 12 13  1  0  0  0  0
 12 38  1  0  0  0  0
 12 39  1  0  0  0  0
 13 18  1  0  0  0  0
 13 14  2  0  0  0  0
 14 15  1  0  0  0  0
 14 40  1  0  0  0  0
 15 16  2  0  0  0  0
 15 41  1  0  0  0  0
 16 17  1  0  0  0  0
 16 42  1  0  0  0  0
 17 18  2  0  0  0  0
 17 43  1  0  0  0  0
M  CHG  1  10   1
M  END
> <s_m_source_file>
AV-unprocessed.smi

> <i_m_source_file_index>
3303

> <i_lp_mmshare_version>
43012

> <i_f3d_flags>
0

> <s_epik_input>
W0NIM11bQ0BASF0xW0NIMl1OKFtDSDNdKVtDQEBIXShbQ0gzXSlbQ0gyXVtDQEhdMVtOSF1bQ0gyXVtDSDJdYzJbY0hdW2NIXVtjSF1bY0hdbjI=

> <s_epik_cmdline>
J2VwaWtfcHl0aG9uJywgJy1waCcsICc3LjAnLCAnLXRuJywgJzgnLCAnLW1hJywgJzIwMCcsICctbWV0YWxfYmluZGluZycsICctaW1hZScsICc8aW5maWxlLm1hZT4nLCAnLW9tYWUnLCAnPG91dGZpbGUubWFlPic=

> <r_epik_Ionization_Penalty>
1.37325

> <r_epik_Ionization_Penalty_Charging>
0.000251572

> <r_epik_Ionization_Penalty_Neutral>
1.373

> <r_epik_State_Penalty>
1.46343

> <r_epik_Charging_Adjusted_Penalty>
1.46368

> <i_epik_Tot_Q>
1

> <i_epik_Tot_abs_Q>
1

> <r_epik_Metal_State_Penalty>
1.46331

> <b_epik_Metal_Only>
0

> <s_lp_Force_Field>
OPLS_2005

> <r_lp_Energy>
21.6133

> <b_lp_Chiralities_Consistent>
1

> <s_lp_Variant>
AV-unprocessed.smi:3303-24

> <Gold.Version>
5.8.1

> <Gold.Id.Protein>
6NUR|6NUR_protein|mol2

> <Gold.PLP.Fitness>
45.0150

> <Gold.PLP.PLP>
-39.6620

> <Gold.PLP.part.hbond>
-1.0000

> <Gold.PLP.part.metal>
0.0000

> <Gold.PLP.part.buried>
-6.8850

> <Gold.PLP.part.nonpolar>
-31.6867

> <Gold.PLP.part.repulsive>
0.2058

> <Gold.PLP.ligand.clash>
0.0000

> <Gold.PLP.ligand.torsion>
0.3263

> <Gold.PLP.Chemscore.Hbond>
2.0000

> <Gold.PLP.Chemscore.CHOScore>
0.0000

> <Gold.PLP.Chemscore.Metal>
0.0000

> <Gold.Chemscore.Hbonds>
donor molecule, donor type, donor heavy atom, donor atom, acceptor molecule, acceptor atom, score
      L1  H    10    35       P1  8028  2.00

> <Gold.PLP.Chemscore.Internal.Correction>
0.0055

> <Gold.Rescore>
     Score         DG    S(hbond)    S(metal)    S(lipo)     H(rot)  DE(clash)    DE(int)     intcor
     17.62     -17.89       1.00        0.00     106.72       1.33       0.01       0.27       ----

> <Gold.Chemscore.Fitness>
17.6172

> <Gold.Chemscore.DG>
-17.8936

> <Gold.Chemscore.ZeroCoef>
-5.4800

> <Gold.Chemscore.Hbond>
0.9975

> <Gold.Chemscore.Metal>
0.0000

> <Gold.Chemscore.Lipo>
106.7192

> <Gold.Chemscore.Internal_Hbond>
0.0000

> <Gold.Chemscore.DEClash>
0.0060

> <Gold.Chemscore.DEInternal>
0.2704

> <Gold.Chemscore.Rot>
1.3298

> <Gold.Chemscore.Internal.Correction>
   9.000000E+99

> <Gold.Chemscore.Hbonds>
donor molecule, donor type, donor heavy atom, donor atom, acceptor molecule, acceptor atom, score
      L1  H    10    35       P1  8028  1.00

> <Gold.Chemscore.Hbond.Weighted>
-3.3318

> <Gold.Chemscore.Metal.Weighted>
-0.0000

> <Gold.Chemscore.Lipo.Weighted>
-12.4861

> <Gold.Chemscore.Internal_Hbond.Weighted>
0.0000

> <Gold.Chemscore.DEClash.Weighted>
0.0060

> <Gold.Chemscore.DEInternal.Weighted>
0.2704

> <Gold.Chemscore.Rot.Weighted>
3.4043

> <Gold.Chemscore.Internal.Correction.Weighted>
   9.000000E+99

> <Gold.Protein.RotatedTorsions>
[ 6907 6896 6895 6894 ] final   35.33 input  -60.11 | X-H torsion
[ 7974 7965 7964 7962 ] final  160.98 input  175.53 | X-H torsion
[ 8008 7997 7996 7995 ] final -161.36 input   59.86 | X-H torsion
[ 10167 10162 10161 10158 ] final   33.04 input  -65.29 | X-H torsion
[ 10718 10713 10712 10709 ] final  139.48 input   66.30 | X-H torsion
[ 10763 10752 10751 10750 ] final   86.91 input  -60.55 | X-H torsion
[ 11005 11000 10999 10996 ] final  -19.05 input  -57.11 | X-H torsion

> <Gold.Protein.ActiveResidues>
 VAL166  LYS551  ARG553  GLY616  TRP617  ASP618  TYR619  PRO620  LYS621  CYS622 
 ASP623  PHE694  ASN695  SER759  ASP760  ASP761  ALA762  ILE779  LEU786  VAL792 
 PHE793  MET794  SER795  GLU796  ALA797  LYS798  CYS799  TRP800  GLU811  SER814 

> <Gold.Protein.RotatedAtoms>
  152.1146  134.9249  160.0565 H   0  0  0  0  0  0  0  0  0  0  0  0  # atno 6907 bound_to 6896
  152.0414  133.3974  159.4346 H   0  0  0  0  0  0  0  0  0  0  0  0  # atno 6908 bound_to 6896
  150.6845  134.3331  159.4879 H   0  0  0  0  0  0  0  0  0  0  0  0  # atno 6909 bound_to 6896
  144.7709  139.7834  143.6297 H   0  0  0  0  0  0  0  0  0  0  0  0  # atno 7974 bound_to 7965
  155.7911  140.0878  157.2008 H   0  0  0  0  0  0  0  0  0  0  0  0  # atno 8008 bound_to 7997
  154.3985  140.1490  156.3222 H   0  0  0  0  0  0  0  0  0  0  0  0  # atno 8009 bound_to 7997
  155.8558  140.3432  155.5726 H   0  0  0  0  0  0  0  0  0  0  0  0  # atno 8010 bound_to 7997
  140.4444  144.1140  150.6180 H   0  0  0  0  0  0  0  0  0  0  0  0  # atno 10167 bound_to 10162
  157.4139  131.1031  151.0425 H   0  0  0  0  0  0  0  0  0  0  0  0  # atno 10718 bound_to 10713
  153.1616  135.4563  154.9780 H   0  0  0  0  0  0  0  0  0  0  0  0  # atno 10763 bound_to 10752
  154.7902  135.3218  154.7798 H   0  0  0  0  0  0  0  0  0  0  0  0  # atno 10764 bound_to 10752
  153.8287  135.6940  153.4872 H   0  0  0  0  0  0  0  0  0  0  0  0  # atno 10765 bound_to 10752
  140.8328  133.7984  155.9777 H   0  0  0  0  0  0  0  0  0  0  0  0  # atno 11005 bound_to 11000
  146.1854  139.5067  142.9839 LP  0  0  0  0  0  0  0  0  0  0  0  0  # atno 17320 bound_to 7965
  145.6328  141.0300  143.1854 LP  0  0  0  0  0  0  0  0  0  0  0  0  # atno 17321 bound_to 7965
  140.4281  143.2581  151.9631 LP  0  0  0  0  0  0  0  0  0  0  0  0  # atno 17342 bound_to 10162
  139.4792  144.5769  151.7996 LP  0  0  0  0  0  0  0  0  0  0  0  0  # atno 17343 bound_to 10162
  157.1379  130.6130  149.5547 LP  0  0  0  0  0  0  0  0  0  0  0  0  # atno 17370 bound_to 10713
  155.9859  130.4891  150.7054 LP  0  0  0  0  0  0  0  0  0  0  0  0  # atno 17371 bound_to 10713
  140.8980  134.2414  157.5058 LP  0  0  0  0  0  0  0  0  0  0  0  0  # atno 17394 bound_to 11000
  139.8704  134.9693  156.4661 LP  0  0  0  0  0  0  0  0  0  0  0  0  # atno 17395 bound_to 11000

$$$$
