AV-unprocessed.smi:707|AV-procd|sdf|3456|dock7
  -GOLD-   22720 0443D 1   1.00000     0.00000
 Structure written by MMmdl.
 44 45  0  0  0  0  0  0  0  0  1 V2000
  148.2637  130.3310  153.8717 C   0  0  0  0  0  0  0  0  0  0  0  0
  147.5485  131.5124  153.3007 C   0  0  0  0  0  0  0  0  0  0  0  0
  146.3116  131.4597  152.7921 N   0  0  0  0  0  0  0  0  0  0  0  0
  146.0263  132.7457  152.3768 N   0  0  0  0  0  0  0  0  0  0  0  0
  147.1199  133.4456  152.6770 C   0  0  0  0  0  0  0  0  0  0  0  0
  148.1045  132.7400  153.2539 N   0  0  0  0  0  0  0  0  0  0  0  0
  149.4082  133.2007  153.6930 C   0  0  0  0  0  0  0  0  0  0  0  0
  149.2898  134.2002  154.8557 C   0  0  0  0  0  0  0  0  0  0  0  0
  149.7283  135.5344  154.4648 N   0  0  0  0  0  0  0  0  0  0  0  0
  150.7240  136.2199  155.0473 C   0  0  0  0  0  0  0  0  0  0  0  0
  151.3881  135.7856  155.9882 O   0  0  0  0  0  0  0  0  0  0  0  0
  151.0204  137.6030  154.4745 C   0  0  0  0  0  0  0  0  0  0  0  0
  149.9596  138.4754  154.8366 O   0  0  0  0  0  0  0  0  0  0  0  0
  150.2100  139.8565  154.5977 C   0  0  1  0  0  0  0  0  0  0  0  0
  148.8779  140.6068  154.7733 C   0  0  0  0  0  0  0  0  0  0  0  0
  148.4034  140.5922  156.2363 C   0  0  0  0  0  0  0  0  0  0  0  0
  149.4802  141.1500  157.1808 C   0  0  0  0  0  0  0  0  0  0  0  0
  150.8150  140.3962  157.0261 C   0  0  2  0  0  0  0  0  0  0  0  0
  151.8908  140.9598  157.9652 C   0  0  0  0  0  0  0  0  0  0  0  0
  151.2796  140.4249  155.5564 C   0  0  0  0  0  0  0  0  0  0  0  0
  147.6587  129.4302  153.7652 H   0  0  0  0  0  0  0  0  0  0  0  0
  148.4636  130.4892  154.9315 H   0  0  0  0  0  0  0  0  0  0  0  0
  149.2097  130.1756  153.3528 H   0  0  0  0  0  0  0  0  0  0  0  0
  147.2059  134.5023  152.4689 H   0  0  0  0  0  0  0  0  0  0  0  0
  149.9935  132.3301  153.9914 H   0  0  0  0  0  0  0  0  0  0  0  0
  149.9283  133.6528  152.8480 H   0  0  0  0  0  0  0  0  0  0  0  0
  148.2523  134.2691  155.1847 H   0  0  0  0  0  0  0  0  0  0  0  0
  149.8655  133.8573  155.7172 H   0  0  0  0  0  0  0  0  0  0  0  0
  149.2355  135.9737  153.7007 H   0  0  0  0  0  0  0  0  0  0  0  0
  151.9748  137.9559  154.8647 H   0  0  0  0  0  0  0  0  0  0  0  0
  151.1082  137.5317  153.3894 H   0  0  0  0  0  0  0  0  0  0  0  0
  150.5389  139.9848  153.5651 H   0  0  0  0  0  0  0  0  0  0  0  0
  149.0000  141.6401  154.4462 H   0  0  0  0  0  0  0  0  0  0  0  0
  148.1144  140.1698  154.1291 H   0  0  0  0  0  0  0  0  0  0  0  0
  147.4867  141.1740  156.3343 H   0  0  0  0  0  0  0  0  0  0  0  0
  148.1524  139.5724  156.5306 H   0  0  0  0  0  0  0  0  0  0  0  0
  149.6298  142.2107  156.9738 H   0  0  0  0  0  0  0  0  0  0  0  0
  149.1309  141.0836  158.2119 H   0  0  0  0  0  0  0  0  0  0  0  0
  150.6494  139.3552  157.3077 H   0  0  0  0  0  0  0  0  0  0  0  0
  152.1084  142.0039  157.7382 H   0  0  0  0  0  0  0  0  0  0  0  0
  152.8214  140.3984  157.8762 H   0  0  0  0  0  0  0  0  0  0  0  0
  151.5717  140.9044  159.0063 H   0  0  0  0  0  0  0  0  0  0  0  0
  152.2219  139.8891  155.4483 H   0  0  0  0  0  0  0  0  0  0  0  0
  151.4954  141.4554  155.2705 H   0  0  0  0  0  0  0  0  0  0  0  0
  1  2  1  0  0  0  0
  1 21  1  0  0  0  0
  1 22  1  0  0  0  0
  1 23  1  0  0  0  0
  2  6  1  0  0  0  0
  2  3  2  0  0  0  0
  3  4  1  0  0  0  0
  4  5  2  0  0  0  0
  5  6  1  0  0  0  0
  5 24  1  0  0  0  0
  6  7  1  0  0  0  0
  7  8  1  0  0  0  0
  7 25  1  0  0  0  0
  7 26  1  0  0  0  0
  8  9  1  0  0  0  0
  8 27  1  0  0  0  0
  8 28  1  0  0  0  0
  9 10  1  0  0  0  0
  9 29  1  0  0  0  0
 10 11  2  0  0  0  0
 10 12  1  0  0  0  0
 12 13  1  0  0  0  0
 12 30  1  0  0  0  0
 12 31  1  0  0  0  0
 13 14  1  0  0  0  0
 14 20  1  0  0  0  0
 14 15  1  0  0  0  0
 14 32  1  0  0  0  0
 15 16  1  0  0  0  0
 15 33  1  0  0  0  0
 15 34  1  0  0  0  0
 16 17  1  0  0  0  0
 16 35  1  0  0  0  0
 16 36  1  0  0  0  0
 17 18  1  0  0  0  0
 17 37  1  0  0  0  0
 17 38  1  0  0  0  0
 18 19  1  0  0  0  0
 18 20  1  0  0  0  0
 18 39  1  0  0  0  0
 19 40  1  0  0  0  0
 19 41  1  0  0  0  0
 19 42  1  0  0  0  0
 20 43  1  0  0  0  0
 20 44  1  0  0  0  0
M  END
> <s_m_source_file>
AV-unprocessed.smi

> <i_m_source_file_index>
707

> <i_lp_mmshare_version>
43012

> <i_f3d_flags>
0

> <s_epik_input>
W0NIM11jMW5uW2NIXW4xW0NIMl1bQ0gyXVtOSF1DKD1PKVtDSDJdT1tDQEBIXTJbQ0gyXVtDSDJdW0NIMl1bQ0BASF0oW0NIM10pW0NIMl0y

> <s_epik_cmdline>
J2VwaWtfcHl0aG9uJywgJy1waCcsICc3LjAnLCAnLXRuJywgJzgnLCAnLW1hJywgJzIwMCcsICctbWV0YWxfYmluZGluZycsICctaW1hZScsICc8aW5maWxlLm1hZT4nLCAnLW9tYWUnLCAnPG91dGZpbGUubWFlPic=

> <r_lp_tautomer_probability>
1

> <r_epik_Ionization_Penalty>
0.000271783

> <r_epik_Ionization_Penalty_Charging>
0

> <r_epik_Ionization_Penalty_Neutral>
0.000271783

> <r_epik_State_Penalty>
-0

> <r_epik_Charging_Adjusted_Penalty>
0

> <i_epik_Tot_Q>
0

> <i_epik_Tot_abs_Q>
0

> <r_epik_Metal_State_Penalty>
-0

> <b_epik_Metal_Only>
0

> <s_lp_Force_Field>
OPLS_2005

> <r_lp_Energy>
13.3948

> <b_lp_Chiralities_Consistent>
1

> <s_lp_Variant>
AV-unprocessed.smi:707-4

> <Gold.Version>
5.8.1

> <Gold.Id.Protein>
6NUR|6NUR_protein|mol2

> <Gold.PLP.Fitness>
40.0866

> <Gold.PLP.PLP>
-32.2590

> <Gold.PLP.part.hbond>
-2.1866

> <Gold.PLP.part.metal>
0.0000

> <Gold.PLP.part.buried>
-2.0042

> <Gold.PLP.part.nonpolar>
-28.2085

> <Gold.PLP.part.repulsive>
0.4941

> <Gold.PLP.ligand.clash>
0.0000

> <Gold.PLP.ligand.torsion>
0.6006

> <Gold.PLP.Chemscore.Hbond>
2.0000

> <Gold.PLP.Chemscore.CHOScore>
1.0000

> <Gold.PLP.Chemscore.Metal>
0.0000

> <Gold.Chemscore.Hbonds>
donor molecule, donor type, donor heavy atom, donor atom, acceptor molecule, acceptor atom, score
      L1  H     9    29       P1  7948  0.99
      P1  H 10752 10765       L1    11  0.94
      L1  C     5    24       P1  7948  1.00

> <Gold.PLP.Chemscore.Internal.Correction>
0.0288

> <Gold.Rescore>
     Score         DG    S(hbond)    S(metal)    S(lipo)     H(rot)  DE(clash)    DE(int)     intcor
     10.77     -11.43       1.42        0.00      63.28       2.42       0.13       0.53       ----

> <Gold.Chemscore.Fitness>
10.7689

> <Gold.Chemscore.DG>
-11.4301

> <Gold.Chemscore.ZeroCoef>
-5.4800

> <Gold.Chemscore.Hbond>
1.4191

> <Gold.Chemscore.Metal>
0.0000

> <Gold.Chemscore.Lipo>
63.2759

> <Gold.Chemscore.Internal_Hbond>
0.0000

> <Gold.Chemscore.DEClash>
0.1342

> <Gold.Chemscore.DEInternal>
0.5270

> <Gold.Chemscore.Rot>
2.4191

> <Gold.Chemscore.Internal.Correction>
   9.000000E+99

> <Gold.Chemscore.Hbonds>
donor molecule, donor type, donor heavy atom, donor atom, acceptor molecule, acceptor atom, score
      L1  H     9    29       P1  7948  0.77
      P1  H 10752 10765       L1    11  0.35

> <Gold.Chemscore.Hbond.Weighted>
-4.7397

> <Gold.Chemscore.Metal.Weighted>
-0.0000

> <Gold.Chemscore.Lipo.Weighted>
-7.4033

> <Gold.Chemscore.Internal_Hbond.Weighted>
0.0000

> <Gold.Chemscore.DEClash.Weighted>
0.1342

> <Gold.Chemscore.DEInternal.Weighted>
0.5270

> <Gold.Chemscore.Rot.Weighted>
6.1929

> <Gold.Chemscore.Internal.Correction.Weighted>
   9.000000E+99

> <Gold.Protein.RotatedTorsions>
[ 6907 6896 6895 6894 ] final   25.56 input  -60.11 | X-H torsion
[ 7974 7965 7964 7962 ] final  -16.32 input  175.53 | X-H torsion
[ 8008 7997 7996 7995 ] final  173.43 input   59.86 | X-H torsion
[ 10167 10162 10161 10158 ] final   47.99 input  -65.29 | X-H torsion
[ 10718 10713 10712 10709 ] final -151.59 input   66.30 | X-H torsion
[ 10763 10752 10751 10750 ] final -142.33 input  -60.55 | X-H torsion
[ 11005 11000 10999 10996 ] final -161.03 input  -57.11 | X-H torsion

> <Gold.Protein.ActiveResidues>
 VAL166  LYS551  ARG553  GLY616  TRP617  ASP618  TYR619  PRO620  LYS621  CYS622 
 ASP623  PHE694  ASN695  SER759  ASP760  ASP761  ALA762  ILE779  LEU786  VAL792 
 PHE793  MET794  SER795  GLU796  ALA797  LYS798  CYS799  TRP800  GLU811  SER814 

> <Gold.Protein.RotatedAtoms>
  151.9743  135.0061  160.0554 H   0  0  0  0  0  0  0  0  0  0  0  0  # atno 6907 bound_to 6896
  152.1754  133.4667  159.4939 H   0  0  0  0  0  0  0  0  0  0  0  0  # atno 6908 bound_to 6896
  150.6908  134.1817  159.4294 H   0  0  0  0  0  0  0  0  0  0  0  0  # atno 6909 bound_to 6896
  146.1993  140.3619  142.8429 H   0  0  0  0  0  0  0  0  0  0  0  0  # atno 7974 bound_to 7965
  156.1076  140.1460  156.9383 H   0  0  0  0  0  0  0  0  0  0  0  0  # atno 8008 bound_to 7997
  154.4744  140.0899  156.7270 H   0  0  0  0  0  0  0  0  0  0  0  0  # atno 8009 bound_to 7997
  155.4652  140.3440  155.4320 H   0  0  0  0  0  0  0  0  0  0  0  0  # atno 8010 bound_to 7997
  140.2980  144.2968  150.6225 H   0  0  0  0  0  0  0  0  0  0  0  0  # atno 10167 bound_to 10162
  156.4612  130.8214  151.2445 H   0  0  0  0  0  0  0  0  0  0  0  0  # atno 10718 bound_to 10713
  154.8513  135.3499  154.6010 H   0  0  0  0  0  0  0  0  0  0  0  0  # atno 10763 bound_to 10752
  153.6619  135.6989  153.5179 H   0  0  0  0  0  0  0  0  0  0  0  0  # atno 10764 bound_to 10752
  153.2811  135.4263  155.1036 H   0  0  0  0  0  0  0  0  0  0  0  0  # atno 10765 bound_to 10752
  140.6249  134.4712  157.5226 H   0  0  0  0  0  0  0  0  0  0  0  0  # atno 11005 bound_to 11000
  144.8647  140.7190  143.6085 LP  0  0  0  0  0  0  0  0  0  0  0  0  # atno 17320 bound_to 7965
  145.3539  139.1699  143.4420 LP  0  0  0  0  0  0  0  0  0  0  0  0  # atno 17321 bound_to 7965
  140.5676  143.2184  151.7656 LP  0  0  0  0  0  0  0  0  0  0  0  0  # atno 17342 bound_to 10162
  139.4922  144.4262  151.9923 LP  0  0  0  0  0  0  0  0  0  0  0  0  # atno 17343 bound_to 10162
  157.7497  131.0106  150.3314 LP  0  0  0  0  0  0  0  0  0  0  0  0  # atno 17370 bound_to 10713
  156.3714  130.3864  149.7172 LP  0  0  0  0  0  0  0  0  0  0  0  0  # atno 17371 bound_to 10713
  139.9138  134.8288  156.1434 LP  0  0  0  0  0  0  0  0  0  0  0  0  # atno 17394 bound_to 11000
  141.0716  133.6794  156.2152 LP  0  0  0  0  0  0  0  0  0  0  0  0  # atno 17395 bound_to 11000

$$$$
