AV-unprocessed.smi:29|AV-procd|sdf|192|dock1
  -GOLD-   2262015463D 1   1.00000     0.00000
 Structure written by MMmdl.
 56 59  0  0  0  0  0  0  0  0  1 V2000
  150.6612  137.7092  159.7022 O   0  0  0  0  0  0  0  0  0  0  0  0
  150.2628  137.6782  158.5396 C   0  0  0  0  0  0  0  0  0  0  0  0
  150.8215  138.7159  157.5487 C   0  0  0  0  0  0  0  0  0  0  0  0
  150.5267  140.1298  157.8834 N   0  0  0  0  0  0  0  0  0  0  0  0
  149.1891  140.5834  157.7788 C   0  0  0  0  0  0  0  0  0  0  0  0
  148.2909  139.8393  157.3831 O   0  0  0  0  0  0  0  0  0  0  0  0
  148.9635  141.9695  158.1681 C   0  0  0  0  0  0  0  0  0  0  0  0
  147.7162  142.4693  158.1566 F   0  0  0  0  0  0  0  0  0  0  0  0
  149.9871  142.7591  158.5514 C   0  0  0  0  0  0  0  0  0  0  0  0
  151.3028  142.3264  158.5818 N   0  0  0  0  0  0  0  0  0  0  0  0
  152.4467  143.2057  159.0657 C   0  0  1  0  0  0  0  0  0  0  0  0
  152.4855  144.6031  158.4315 C   0  0  0  0  0  0  0  0  0  0  0  0
  151.7785  145.4768  159.4638 C   0  0  0  0  0  0  0  0  0  0  0  0
  151.4130  144.5192  160.6030 C   0  0  0  0  0  0  0  0  0  0  0  0
  152.2925  143.4162  160.4328 O   0  0  0  0  0  0  0  0  0  0  0  0
  151.5891  140.9747  158.2855 C   0  0  0  0  0  0  0  0  0  0  0  0
  152.7415  140.5435  158.3622 O   0  0  0  0  0  0  0  0  0  0  0  0
  149.3505  136.8066  158.0672 N   0  0  0  0  0  0  0  0  0  0  0  0
  148.6346  135.7634  158.7232 C   0  0  0  0  0  0  0  0  0  0  0  0
  148.1370  135.8714  160.0456 C   0  0  0  0  0  0  0  0  0  0  0  0
  147.4378  134.8039  160.6462 C   0  0  0  0  0  0  0  0  0  0  0  0
  146.9181  134.9463  162.0694 C   0  0  0  0  0  0  0  0  0  0  0  0
  147.3578  136.0676  162.6418 F   0  0  0  0  0  0  0  0  0  0  0  0
  145.5860  134.9708  162.0491 F   0  0  0  0  0  0  0  0  0  0  0  0
  147.3177  133.9142  162.8127 F   0  0  0  0  0  0  0  0  0  0  0  0
  147.2482  133.6080  159.9244 C   0  0  0  0  0  0  0  0  0  0  0  0
  147.7504  133.4837  158.6172 C   0  0  0  0  0  0  0  0  0  0  0  0
  148.4469  134.5528  158.0095 C   0  0  0  0  0  0  0  0  0  0  0  0
  148.9598  134.4179  156.7075 N   0  0  0  0  0  0  0  0  0  0  0  0
  150.0938  133.5076  156.6177 C   0  0  0  0  0  0  0  0  0  0  0  0
  150.6812  133.5435  155.1974 C   0  0  0  0  0  0  0  0  0  0  0  0
  149.6619  133.2430  154.2482 O   0  0  0  0  0  0  0  0  0  0  0  0
  148.5914  134.1825  154.2946 C   0  0  0  0  0  0  0  0  0  0  0  0
  147.9466  134.1661  155.6913 C   0  0  0  0  0  0  0  0  0  0  0  0
  151.8977  138.5567  157.4630 H   0  0  0  0  0  0  0  0  0  0  0  0
  150.4458  138.4665  156.5554 H   0  0  0  0  0  0  0  0  0  0  0  0
  149.7413  143.7662  158.8485 H   0  0  0  0  0  0  0  0  0  0  0  0
  153.3562  142.6448  158.8439 H   0  0  0  0  0  0  0  0  0  0  0  0
  153.5291  144.9086  158.3478 H   0  0  0  0  0  0  0  0  0  0  0  0
  152.0560  144.6292  157.4305 H   0  0  0  0  0  0  0  0  0  0  0  0
  152.4556  146.2541  159.8196 H   0  0  0  0  0  0  0  0  0  0  0  0
  150.8946  145.9673  159.0556 H   0  0  0  0  0  0  0  0  0  0  0  0
  151.5329  144.9744  161.5863 H   0  0  0  0  0  0  0  0  0  0  0  0
  150.3791  144.1830  160.5140 H   0  0  0  0  0  0  0  0  0  0  0  0
  149.0910  136.9435  157.1009 H   0  0  0  0  0  0  0  0  0  0  0  0
  148.2882  136.7619  160.6335 H   0  0  0  0  0  0  0  0  0  0  0  0
  146.7251  132.7750  160.3698 H   0  0  0  0  0  0  0  0  0  0  0  0
  147.6011  132.5565  158.0837 H   0  0  0  0  0  0  0  0  0  0  0  0
  150.8557  133.7925  157.3446 H   0  0  0  0  0  0  0  0  0  0  0  0
  149.7760  132.4930  156.8610 H   0  0  0  0  0  0  0  0  0  0  0  0
  151.1103  134.5218  154.9846 H   0  0  0  0  0  0  0  0  0  0  0  0
  151.4859  132.8146  155.1019 H   0  0  0  0  0  0  0  0  0  0  0  0
  148.9591  135.1790  154.0484 H   0  0  0  0  0  0  0  0  0  0  0  0
  147.8535  133.9197  153.5366 H   0  0  0  0  0  0  0  0  0  0  0  0
  147.4743  133.1990  155.8676 H   0  0  0  0  0  0  0  0  0  0  0  0
  147.1652  134.9246  155.7519 H   0  0  0  0  0  0  0  0  0  0  0  0
  1  2  2  0  0  0  0
  2  3  1  0  0  0  0
  2 18  1  0  0  0  0
  3  4  1  0  0  0  0
  3 35  1  0  0  0  0
  3 36  1  0  0  0  0
  4 16  1  0  0  0  0
  4  5  1  0  0  0  0
  5  6  2  0  0  0  0
  5  7  1  0  0  0  0
  7  8  1  0  0  0  0
  7  9  2  0  0  0  0
  9 10  1  0  0  0  0
  9 37  1  0  0  0  0
 10 11  1  0  0  0  0
 10 16  1  0  0  0  0
 11 15  1  0  0  0  0
 11 12  1  0  0  0  0
 11 38  1  0  0  0  0
 12 13  1  0  0  0  0
 12 39  1  0  0  0  0
 12 40  1  0  0  0  0
 13 14  1  0  0  0  0
 13 41  1  0  0  0  0
 13 42  1  0  0  0  0
 14 15  1  0  0  0  0
 14 43  1  0  0  0  0
 14 44  1  0  0  0  0
 16 17  2  0  0  0  0
 18 19  1  0  0  0  0
 18 45  1  0  0  0  0
 19 28  1  0  0  0  0
 19 20  2  0  0  0  0
 20 21  1  0  0  0  0
 20 46  1  0  0  0  0
 21 22  1  0  0  0  0
 21 26  2  0  0  0  0
 22 23  1  0  0  0  0
 22 24  1  0  0  0  0
 22 25  1  0  0  0  0
 26 27  1  0  0  0  0
 26 47  1  0  0  0  0
 27 28  2  0  0  0  0
 27 48  1  0  0  0  0
 28 29  1  0  0  0  0
 29 34  1  0  0  0  0
 29 30  1  0  0  0  0
 30 31  1  0  0  0  0
 30 49  1  0  0  0  0
 30 50  1  0  0  0  0
 31 32  1  0  0  0  0
 31 51  1  0  0  0  0
 31 52  1  0  0  0  0
 32 33  1  0  0  0  0
 33 34  1  0  0  0  0
 33 53  1  0  0  0  0
 33 54  1  0  0  0  0
 34 55  1  0  0  0  0
 34 56  1  0  0  0  0
M  END
> <s_m_source_file>
AV-unprocessed.smi

> <i_m_source_file_index>
29

> <i_lp_mmshare_version>
43012

> <i_f3d_flags>
0

> <s_epik_input>
TzFbQ0gyXVtDSDJdW0NIMl1bQ0BIXTFuKGMyPU8pW2NIXWMoRiljKD1PKW4yW0NIMl1DKD1PKVtOSF1jM1tjSF1jKEMoRikoRilGKVtjSF1bY0hdYzNONFtDSDJdW0NIMl1PW0NIMl1bQ0gyXTQ=

> <s_epik_cmdline>
J2VwaWtfcHl0aG9uJywgJy1waCcsICc3LjAnLCAnLXRuJywgJzgnLCAnLW1hJywgJzIwMCcsICctbWV0YWxfYmluZGluZycsICctaW1hZScsICc8aW5maWxlLm1hZT4nLCAnLW9tYWUnLCAnPG91dGZpbGUubWFlPic=

> <r_lp_tautomer_probability>
1

> <r_epik_Ionization_Penalty>
3.5967e-06

> <r_epik_Ionization_Penalty_Charging>
3.88729e-08

> <r_epik_Ionization_Penalty_Neutral>
3.55783e-06

> <r_epik_State_Penalty>
-0

> <r_epik_Charging_Adjusted_Penalty>
3.88729e-08

> <i_epik_Tot_Q>
0

> <i_epik_Tot_abs_Q>
0

> <r_epik_Metal_State_Penalty>
-0

> <b_epik_Metal_Only>
0

> <s_epik_Chemistry_Notes>
This compound contains an acetal/aminal-like group ( X-CH(R)-Y where X, Y are N, S, or O) that may be acid/base labile, releasing an aldehyde.

> <s_lp_Force_Field>
OPLS_2005

> <r_lp_Energy>
46.7793

> <b_lp_Chiralities_Consistent>
1

> <s_lp_Variant>
AV-unprocessed.smi:29-2

> <Gold.Version>
5.8.1

> <Gold.Id.Protein>
6NUR|6NUR_protein|mol2

> <Gold.PLP.Fitness>
56.6127

> <Gold.PLP.PLP>
-56.2361

> <Gold.PLP.part.hbond>
-1.8773

> <Gold.PLP.part.metal>
0.0000

> <Gold.PLP.part.buried>
-8.0742

> <Gold.PLP.part.nonpolar>
-46.4042

> <Gold.PLP.part.repulsive>
0.1988

> <Gold.PLP.ligand.clash>
1.1679

> <Gold.PLP.ligand.torsion>
0.9633

> <Gold.PLP.Chemscore.Hbond>
0.8564

> <Gold.PLP.Chemscore.CHOScore>
0.0000

> <Gold.PLP.Chemscore.Metal>
0.0000

> <Gold.Chemscore.Hbonds>
donor molecule, donor type, donor heavy atom, donor atom, acceptor molecule, acceptor atom, score
      P1  H  7997  8009       L1    17  0.23

> <Gold.PLP.Chemscore.Internal.Correction>
0.9017

> <Gold.Rescore>
     Score         DG    S(hbond)    S(metal)    S(lipo)     H(rot)  DE(clash)    DE(int)     intcor
     13.88     -15.35       0.95        0.00     100.08       1.96       0.25       1.21       ----

> <Gold.Chemscore.Fitness>
13.8838

> <Gold.Chemscore.DG>
-15.3456

> <Gold.Chemscore.ZeroCoef>
-5.4800

> <Gold.Chemscore.Hbond>
0.9535

> <Gold.Chemscore.Metal>
0.0000

> <Gold.Chemscore.Lipo>
100.0774

> <Gold.Chemscore.Internal_Hbond>
0.0000

> <Gold.Chemscore.DEClash>
0.2507

> <Gold.Chemscore.DEInternal>
1.2111

> <Gold.Chemscore.Rot>
1.9641

> <Gold.Chemscore.Internal.Correction>
   9.000000E+99

> <Gold.Chemscore.Hbonds>
donor molecule, donor type, donor heavy atom, donor atom, acceptor molecule, acceptor atom, score
      P1  H  7997  8009       L1    17  0.22

> <Gold.Chemscore.Hbond.Weighted>
-3.1846

> <Gold.Chemscore.Metal.Weighted>
-0.0000

> <Gold.Chemscore.Lipo.Weighted>
-11.7091

> <Gold.Chemscore.Internal_Hbond.Weighted>
0.0000

> <Gold.Chemscore.DEClash.Weighted>
0.2507

> <Gold.Chemscore.DEInternal.Weighted>
1.2111

> <Gold.Chemscore.Rot.Weighted>
5.0280

> <Gold.Chemscore.Internal.Correction.Weighted>
   9.000000E+99

> <Gold.Protein.RotatedTorsions>
[ 6907 6896 6895 6894 ] final   88.07 input  -60.11 | X-H torsion
[ 7974 7965 7964 7962 ] final   17.76 input  175.53 | X-H torsion
[ 8008 7997 7996 7995 ] final  160.77 input   59.86 | X-H torsion
[ 10167 10162 10161 10158 ] final    1.69 input  -65.29 | X-H torsion
[ 10718 10713 10712 10709 ] final -132.07 input   66.30 | X-H torsion
[ 10763 10752 10751 10750 ] final  -55.35 input  -60.55 | X-H torsion
[ 11005 11000 10999 10996 ] final  -91.02 input  -57.11 | X-H torsion

> <Gold.Protein.ActiveResidues>
 VAL166  LYS551  ARG553  GLY616  TRP617  ASP618  TYR619  PRO620  LYS621  CYS622 
 ASP623  PHE694  ASN695  SER759  ASP760  ASP761  ALA762  ILE779  LEU786  VAL792 
 PHE793  MET794  SER795  GLU796  ALA797  LYS798  CYS799  TRP800  GLU811  SER814 

> <Gold.Protein.RotatedAtoms>
  152.5420  134.2178  159.8775 H   0  0  0  0  0  0  0  0  0  0  0  0  # atno 6907 bound_to 6896
  151.2157  133.4524  159.2607 H   0  0  0  0  0  0  0  0  0  0  0  0  # atno 6908 bound_to 6896
  151.0854  134.9897  159.8432 H   0  0  0  0  0  0  0  0  0  0  0  0  # atno 6909 bound_to 6896
  146.2208  139.8556  142.8614 H   0  0  0  0  0  0  0  0  0  0  0  0  # atno 7974 bound_to 7965
  156.2149  140.1795  156.7611 H   0  0  0  0  0  0  0  0  0  0  0  0  # atno 8008 bound_to 7997
  154.5777  140.0671  156.9088 H   0  0  0  0  0  0  0  0  0  0  0  0  # atno 8009 bound_to 7997
  155.2558  140.3332  155.4280 H   0  0  0  0  0  0  0  0  0  0  0  0  # atno 8010 bound_to 7997
  140.6671  143.7150  150.7848 H   0  0  0  0  0  0  0  0  0  0  0  0  # atno 10167 bound_to 10162
  156.2308  130.7036  151.0856 H   0  0  0  0  0  0  0  0  0  0  0  0  # atno 10718 bound_to 10713
  154.1894  135.6430  153.5056 H   0  0  0  0  0  0  0  0  0  0  0  0  # atno 10763 bound_to 10752
  153.0039  135.5425  154.6431 H   0  0  0  0  0  0  0  0  0  0  0  0  # atno 10764 bound_to 10752
  154.5816  135.2926  155.0700 H   0  0  0  0  0  0  0  0  0  0  0  0  # atno 10765 bound_to 10752
  141.1554  133.7729  156.9820 H   0  0  0  0  0  0  0  0  0  0  0  0  # atno 11005 bound_to 11000
  145.2757  141.0123  143.3746 LP  0  0  0  0  0  0  0  0  0  0  0  0  # atno 17320 bound_to 7965
  144.9189  139.4436  143.6551 LP  0  0  0  0  0  0  0  0  0  0  0  0  # atno 17321 bound_to 7965
  140.0829  143.4951  152.2520 LP  0  0  0  0  0  0  0  0  0  0  0  0  # atno 17342 bound_to 10162
  139.5924  144.7555  151.3368 LP  0  0  0  0  0  0  0  0  0  0  0  0  # atno 17343 bound_to 10162
  157.7132  131.0723  150.6424 LP  0  0  0  0  0  0  0  0  0  0  0  0  # atno 17370 bound_to 10713
  156.6492  130.4480  149.5725 LP  0  0  0  0  0  0  0  0  0  0  0  0  # atno 17371 bound_to 10713
  140.1060  134.9506  157.1994 LP  0  0  0  0  0  0  0  0  0  0  0  0  # atno 17394 bound_to 11000
  140.3256  134.2867  155.7237 LP  0  0  0  0  0  0  0  0  0  0  0  0  # atno 17395 bound_to 11000

$$$$
