AV-unprocessed.smi:2318|AV-procd|sdf|9275|dock9
  -GOLD-   2272012503D 1   1.00000     0.00000
 Structure written by MMmdl.
 37 38  0  0  0  0  0  0  0  0  1 V2000
  153.4460  143.3852  161.4439 C   0  0  0  0  0  0  0  0  0  0  0  0
  152.7063  143.8322  160.2834 N   0  0  0  0  0  0  0  0  0  0  0  0
  152.6592  145.0939  159.7256 C   0  0  0  0  0  0  0  0  0  0  0  0
  151.8281  145.0320  158.6432 C   0  0  0  0  0  0  0  0  0  0  0  0
  151.4136  143.6717  158.6261 C   0  0  0  0  0  0  0  0  0  0  0  0
  150.5227  143.2006  157.6279 N   0  0  0  0  0  0  0  0  0  0  0  0
  150.2434  141.9244  157.3122 C   0  0  0  0  0  0  0  0  0  0  0  0
  150.7368  140.9359  157.8555 O   0  0  0  0  0  0  0  0  0  0  0  0
  149.3492  141.8585  156.3151 N   0  0  0  0  0  0  0  0  0  0  0  0
  148.8075  140.6340  155.7218 C   0  0  2  0  0  0  0  0  0  0  0  0
  149.8530  140.0341  154.7473 C   0  0  0  0  0  0  0  0  0  0  0  0
  149.5340  138.6274  154.2301 C   0  0  0  0  0  0  0  0  0  0  0  0
  150.8643  138.0959  153.6912 C   0  0  0  0  0  0  0  0  0  0  0  0
  151.9619  138.8127  154.4886 C   0  0  0  0  0  0  0  0  0  0  0  0
  151.2503  139.8553  155.3599 C   0  0  0  0  0  0  0  0  0  0  0  0
  147.4466  140.9589  155.0644 C   0  0  0  0  0  0  0  0  0  0  0  0
  146.8291  139.8278  154.7206 F   0  0  0  0  0  0  0  0  0  0  0  0
  146.6651  141.6311  155.9106 F   0  0  0  0  0  0  0  0  0  0  0  0
  147.6095  141.6829  153.9578 F   0  0  0  0  0  0  0  0  0  0  0  0
  151.9392  142.9511  159.6074 N   0  0  0  0  0  0  0  0  0  0  0  0
  153.9987  144.2179  161.8795 H   0  0  0  0  0  0  0  0  0  0  0  0
  154.1500  142.6045  161.1546 H   0  0  0  0  0  0  0  0  0  0  0  0
  152.7572  142.9882  162.1903 H   0  0  0  0  0  0  0  0  0  0  0  0
  153.2148  145.9222  160.1409 H   0  0  0  0  0  0  0  0  0  0  0  0
  151.5597  145.8341  157.9718 H   0  0  0  0  0  0  0  0  0  0  0  0
  150.0439  143.9137  157.0981 H   0  0  0  0  0  0  0  0  0  0  0  0
  149.0022  142.7279  155.9372 H   0  0  0  0  0  0  0  0  0  0  0  0
  148.6216  139.8979  156.5060 H   0  0  0  0  0  0  0  0  0  0  0  0
  149.9502  140.6941  153.8835 H   0  0  0  0  0  0  0  0  0  0  0  0
  149.1940  137.9960  155.0524 H   0  0  0  0  0  0  0  0  0  0  0  0
  148.7592  138.6241  153.4633 H   0  0  0  0  0  0  0  0  0  0  0  0
  150.9325  137.0110  153.7761 H   0  0  0  0  0  0  0  0  0  0  0  0
  150.9594  138.3469  152.6338 H   0  0  0  0  0  0  0  0  0  0  0  0
  152.5313  138.1155  155.1044 H   0  0  0  0  0  0  0  0  0  0  0  0
  152.6649  139.2943  153.8078 H   0  0  0  0  0  0  0  0  0  0  0  0
  151.8056  140.7923  155.4142 H   0  0  0  0  0  0  0  0  0  0  0  0
  151.1605  139.4709  156.3774 H   0  0  0  0  0  0  0  0  0  0  0  0
  1  2  1  0  0  0  0
  1 21  1  0  0  0  0
  1 22  1  0  0  0  0
  1 23  1  0  0  0  0
  2 20  1  0  0  0  0
  2  3  1  0  0  0  0
  3  4  2  0  0  0  0
  3 24  1  0  0  0  0
  4  5  1  0  0  0  0
  4 25  1  0  0  0  0
  5  6  1  0  0  0  0
  5 20  2  0  0  0  0
  6  7  1  0  0  0  0
  6 26  1  0  0  0  0
  7  8  2  0  0  0  0
  7  9  1  0  0  0  0
  9 10  1  0  0  0  0
  9 27  1  0  0  0  0
 10 11  1  0  0  0  0
 10 16  1  0  0  0  0
 10 28  1  0  0  0  0
 11 15  1  0  0  0  0
 11 12  1  0  0  0  0
 11 29  1  0  0  0  0
 12 13  1  0  0  0  0
 12 30  1  0  0  0  0
 12 31  1  0  0  0  0
 13 14  1  0  0  0  0
 13 32  1  0  0  0  0
 13 33  1  0  0  0  0
 14 15  1  0  0  0  0
 14 34  1  0  0  0  0
 14 35  1  0  0  0  0
 15 36  1  0  0  0  0
 15 37  1  0  0  0  0
 16 17  1  0  0  0  0
 16 18  1  0  0  0  0
 16 19  1  0  0  0  0
M  END
> <s_m_source_file>
AV-unprocessed.smi

> <i_m_source_file_index>
2318

> <i_lp_mmshare_version>
43012

> <i_f3d_flags>
0

> <s_epik_input>
W0NIM11uMVtjSF1bY0hdYyhuMSlbTkhdQyg9TylbTkhdW0NAQEhdKEMoRikoRilGKVtDSF0yW0NIMl1bQ0gyXVtDSDJdW0NIMl0y

> <s_epik_cmdline>
J2VwaWtfcHl0aG9uJywgJy1waCcsICc3LjAnLCAnLXRuJywgJzgnLCAnLW1hJywgJzIwMCcsICctbWV0YWxfYmluZGluZycsICctaW1hZScsICc8aW5maWxlLm1hZT4nLCAnLW9tYWUnLCAnPG91dGZpbGUubWFlPic=

> <r_lp_tautomer_probability>
1

> <r_epik_Ionization_Penalty>
2.39546e-05

> <r_epik_Ionization_Penalty_Charging>
0

> <r_epik_Ionization_Penalty_Neutral>
2.39546e-05

> <r_epik_State_Penalty>
-0

> <r_epik_Charging_Adjusted_Penalty>
0

> <i_epik_Tot_Q>
0

> <i_epik_Tot_abs_Q>
0

> <r_epik_Metal_State_Penalty>
-0

> <b_epik_Metal_Only>
0

> <s_lp_Force_Field>
OPLS_2005

> <r_lp_Energy>
23.9909

> <b_lp_Chiralities_Consistent>
1

> <s_lp_Variant>
AV-unprocessed.smi:2318-1

> <Gold.Version>
5.8.1

> <Gold.Id.Protein>
6NUR|6NUR_protein|mol2

> <Gold.PLP.Fitness>
51.0106

> <Gold.PLP.PLP>
-45.8518

> <Gold.PLP.part.hbond>
-2.2080

> <Gold.PLP.part.metal>
0.0000

> <Gold.PLP.part.buried>
-6.2932

> <Gold.PLP.part.nonpolar>
-35.8642

> <Gold.PLP.part.repulsive>
0.1223

> <Gold.PLP.ligand.clash>
0.0097

> <Gold.PLP.ligand.torsion>
0.5483

> <Gold.PLP.Chemscore.Hbond>
2.0000

> <Gold.PLP.Chemscore.CHOScore>
0.0000

> <Gold.PLP.Chemscore.Metal>
0.0000

> <Gold.Chemscore.Hbonds>
donor molecule, donor type, donor heavy atom, donor atom, acceptor molecule, acceptor atom, score
      L1  H     6    26       P1  8028  1.00
      L1  H     9    27       P1  8028  1.00

> <Gold.PLP.Chemscore.Internal.Correction>
0.2650

> <Gold.Rescore>
     Score         DG    S(hbond)    S(metal)    S(lipo)     H(rot)  DE(clash)    DE(int)     intcor
     12.70     -18.20       1.88        0.00      83.42       1.30       1.34       4.16       ----

> <Gold.Chemscore.Fitness>
12.7044

> <Gold.Chemscore.DG>
-18.2023

> <Gold.Chemscore.ZeroCoef>
-5.4800

> <Gold.Chemscore.Hbond>
1.8835

> <Gold.Chemscore.Metal>
0.0000

> <Gold.Chemscore.Lipo>
83.4201

> <Gold.Chemscore.Internal_Hbond>
0.0000

> <Gold.Chemscore.DEClash>
1.3382

> <Gold.Chemscore.DEInternal>
4.1597

> <Gold.Chemscore.Rot>
1.3003

> <Gold.Chemscore.Internal.Correction>
   9.000000E+99

> <Gold.Chemscore.Hbonds>
donor molecule, donor type, donor heavy atom, donor atom, acceptor molecule, acceptor atom, score
      L1  H     6    26       P1  8028  0.89
      L1  H     9    27       P1  8028  0.94

> <Gold.Chemscore.Hbond.Weighted>
-6.2909

> <Gold.Chemscore.Metal.Weighted>
-0.0000

> <Gold.Chemscore.Lipo.Weighted>
-9.7601

> <Gold.Chemscore.Internal_Hbond.Weighted>
0.0000

> <Gold.Chemscore.DEClash.Weighted>
1.3382

> <Gold.Chemscore.DEInternal.Weighted>
4.1597

> <Gold.Chemscore.Rot.Weighted>
3.3287

> <Gold.Chemscore.Internal.Correction.Weighted>
   9.000000E+99

> <Gold.Protein.RotatedTorsions>
[ 6907 6896 6895 6894 ] final   49.60 input  -60.11 | X-H torsion
[ 7974 7965 7964 7962 ] final -165.50 input  175.53 | X-H torsion
[ 8008 7997 7996 7995 ] final -117.13 input   59.86 | X-H torsion
[ 10167 10162 10161 10158 ] final -109.76 input  -65.29 | X-H torsion
[ 10718 10713 10712 10709 ] final -151.76 input   66.30 | X-H torsion
[ 10763 10752 10751 10750 ] final    9.21 input  -60.55 | X-H torsion
[ 11005 11000 10999 10996 ] final  -97.35 input  -57.11 | X-H torsion

> <Gold.Protein.ActiveResidues>
 VAL166  LYS551  ARG553  GLY616  TRP617  ASP618  TYR619  PRO620  LYS621  CYS622 
 ASP623  PHE694  ASN695  SER759  ASP760  ASP761  ALA762  ILE779  LEU786  VAL792 
 PHE793  MET794  SER795  GLU796  ALA797  LYS798  CYS799  TRP800  GLU811  SER814 

> <Gold.Protein.RotatedAtoms>
  152.2925  134.7704  160.0374 H   0  0  0  0  0  0  0  0  0  0  0  0  # atno 6907 bound_to 6896
  151.8245  133.3394  159.3602 H   0  0  0  0  0  0  0  0  0  0  0  0  # atno 6908 bound_to 6896
  150.7237  134.5471  159.5820 H   0  0  0  0  0  0  0  0  0  0  0  0  # atno 6909 bound_to 6896
  144.7268  140.2804  143.6237 H   0  0  0  0  0  0  0  0  0  0  0  0  # atno 7974 bound_to 7965
  155.0789  140.0394  157.2633 H   0  0  0  0  0  0  0  0  0  0  0  0  # atno 8008 bound_to 7997
  154.6923  140.2656  155.6776 H   0  0  0  0  0  0  0  0  0  0  0  0  # atno 8009 bound_to 7997
  156.2733  140.2757  156.1505 H   0  0  0  0  0  0  0  0  0  0  0  0  # atno 8010 bound_to 7997
  140.1518  143.4193  152.1489 H   0  0  0  0  0  0  0  0  0  0  0  0  # atno 10167 bound_to 10162
  156.4635  130.8224  151.2455 H   0  0  0  0  0  0  0  0  0  0  0  0  # atno 10718 bound_to 10713
  153.2165  135.6875  153.8051 H   0  0  0  0  0  0  0  0  0  0  0  0  # atno 10763 bound_to 10752
  153.7265  135.3259  155.3278 H   0  0  0  0  0  0  0  0  0  0  0  0  # atno 10764 bound_to 10752
  154.8248  135.4625  154.0994 H   0  0  0  0  0  0  0  0  0  0  0  0  # atno 10765 bound_to 10752
  141.1382  133.8165  157.0695 H   0  0  0  0  0  0  0  0  0  0  0  0  # atno 11005 bound_to 11000
  145.7955  139.1943  143.2078 LP  0  0  0  0  0  0  0  0  0  0  0  0  # atno 17320 bound_to 7965
  146.0720  140.7858  142.9683 LP  0  0  0  0  0  0  0  0  0  0  0  0  # atno 17321 bound_to 7965
  139.5422  144.7267  151.4696 LP  0  0  0  0  0  0  0  0  0  0  0  0  # atno 17342 bound_to 10162
  140.6698  143.8319  150.6985 LP  0  0  0  0  0  0  0  0  0  0  0  0  # atno 17343 bound_to 10162
  157.7496  131.0099  150.3287 LP  0  0  0  0  0  0  0  0  0  0  0  0  # atno 17370 bound_to 10713
  156.3692  130.3860  149.7189 LP  0  0  0  0  0  0  0  0  0  0  0  0  # atno 17371 bound_to 10713
  140.0520  134.9800  157.1154 LP  0  0  0  0  0  0  0  0  0  0  0  0  # atno 17394 bound_to 11000
  140.3975  134.2118  155.7164 LP  0  0  0  0  0  0  0  0  0  0  0  0  # atno 17395 bound_to 11000

$$$$
