AV-unprocessed.smi:2035|AV-procd|sdf|8269|dock2
  -GOLD-   2272010543D 1   1.00000     0.00000
 Structure written by MMmdl.
 34 35  0  0  0  0  0  0  0  0  1 V2000
  149.9260  140.5440  156.7057 O   0  0  0  0  0  0  0  0  0  0  0  0
  149.7106  141.6682  156.2527 C   0  0  0  0  0  0  0  0  0  0  0  0
  150.2652  142.8093  156.6981 N   0  0  0  0  0  0  0  0  0  0  0  0
  151.1801  142.9980  157.7695 C   0  0  0  0  0  0  0  0  0  0  0  0
  151.4757  144.3229  158.1526 C   0  0  0  0  0  0  0  0  0  0  0  0
  152.3663  144.5386  159.2231 C   0  0  0  0  0  0  0  0  0  0  0  0
  152.9515  143.5379  159.9140 N   0  0  0  0  0  0  0  0  0  0  0  0
  152.6576  142.2704  159.5552 C   0  0  0  0  0  0  0  0  0  0  0  0
  151.7810  141.9448  158.5006 C   0  0  0  0  0  0  0  0  0  0  0  0
  148.8913  141.9031  155.2174 N   0  0  0  0  0  0  0  0  0  0  0  0
  148.1177  140.8953  154.4916 C   0  0  2  0  0  0  0  0  0  0  0  0
  146.9027  140.4261  155.3343 C   0  0  0  0  0  0  0  0  0  0  0  0
  146.3683  139.0109  155.0294 C   0  0  0  0  0  0  0  0  0  0  0  0
  146.0107  138.7383  153.5541 C   0  0  0  0  0  0  0  0  0  0  0  0
  147.1193  139.0094  152.5094 C   0  0  0  0  0  0  0  0  0  0  0  0
  148.4796  138.9271  153.0398 N   0  0  0  0  0  0  0  0  0  0  0  0
  149.0152  139.7708  153.9389 C   0  0  0  0  0  0  0  0  0  0  0  0
  150.1760  139.6432  154.3265 O   0  0  0  0  0  0  0  0  0  0  0  0
  150.0442  143.6413  156.1710 H   0  0  0  0  0  0  0  0  0  0  0  0
  151.0344  145.1627  157.6356 H   0  0  0  0  0  0  0  0  0  0  0  0
  152.6135  145.5431  159.5335 H   0  0  0  0  0  0  0  0  0  0  0  0
  153.1304  141.4890  160.1316 H   0  0  0  0  0  0  0  0  0  0  0  0
  151.5817  140.9064  158.2870 H   0  0  0  0  0  0  0  0  0  0  0  0
  148.7743  142.8585  154.9123 H   0  0  0  0  0  0  0  0  0  0  0  0
  147.7248  141.4000  153.6078 H   0  0  0  0  0  0  0  0  0  0  0  0
  147.1662  140.4523  156.3928 H   0  0  0  0  0  0  0  0  0  0  0  0
  146.0932  141.1476  155.2170 H   0  0  0  0  0  0  0  0  0  0  0  0
  147.0940  138.2697  155.3665 H   0  0  0  0  0  0  0  0  0  0  0  0
  145.4825  138.8346  155.6403 H   0  0  0  0  0  0  0  0  0  0  0  0
  145.7159  137.6911  153.4769 H   0  0  0  0  0  0  0  0  0  0  0  0
  145.1230  139.3102  153.2823 H   0  0  0  0  0  0  0  0  0  0  0  0
  147.0267  138.2974  151.6891 H   0  0  0  0  0  0  0  0  0  0  0  0
  146.9722  139.9896  152.0547 H   0  0  0  0  0  0  0  0  0  0  0  0
  149.0641  138.1842  152.6845 H   0  0  0  0  0  0  0  0  0  0  0  0
  1  2  2  0  0  0  0
  2  3  1  0  0  0  0
  2 10  1  0  0  0  0
  3  4  1  0  0  0  0
  3 19  1  0  0  0  0
  4  9  1  0  0  0  0
  4  5  2  0  0  0  0
  5  6  1  0  0  0  0
  5 20  1  0  0  0  0
  6  7  2  0  0  0  0
  6 21  1  0  0  0  0
  7  8  1  0  0  0  0
  8  9  2  0  0  0  0
  8 22  1  0  0  0  0
  9 23  1  0  0  0  0
 10 11  1  0  0  0  0
 10 24  1  0  0  0  0
 11 17  1  0  0  0  0
 11 12  1  0  0  0  0
 11 25  1  0  0  0  0
 12 13  1  0  0  0  0
 12 26  1  0  0  0  0
 12 27  1  0  0  0  0
 13 14  1  0  0  0  0
 13 28  1  0  0  0  0
 13 29  1  0  0  0  0
 14 15  1  0  0  0  0
 14 30  1  0  0  0  0
 14 31  1  0  0  0  0
 15 16  1  0  0  0  0
 15 32  1  0  0  0  0
 15 33  1  0  0  0  0
 16 17  1  0  0  0  0
 16 34  1  0  0  0  0
 17 18  2  0  0  0  0
M  END
> <s_m_source_file>
AV-unprocessed.smi

> <i_m_source_file_index>
2035

> <i_lp_mmshare_version>
43012

> <i_f3d_flags>
0

> <s_epik_input>
W2NIXTFbY0hdbltjSF1bY0hdYzFbTkhdQyg9TylbTkhdW0NAQEhdMltDSDJdW0NIMl1bQ0gyXVtDSDJdW05IXUMyPU8=

> <s_epik_cmdline>
J2VwaWtfcHl0aG9uJywgJy1waCcsICc3LjAnLCAnLXRuJywgJzgnLCAnLW1hJywgJzIwMCcsICctbWV0YWxfYmluZGluZycsICctaW1hZScsICc8aW5maWxlLm1hZT4nLCAnLW9tYWUnLCAnPG91dGZpbGUubWFlPic=

> <r_epik_Ionization_Penalty>
0.100041

> <r_epik_Ionization_Penalty_Charging>
0

> <r_epik_Ionization_Penalty_Neutral>
0.100041

> <r_epik_State_Penalty>
0.0900442

> <r_epik_Charging_Adjusted_Penalty>
0.0900442

> <i_epik_Tot_Q>
0

> <i_epik_Tot_abs_Q>
0

> <r_epik_Metal_State_Penalty>
0.0769377

> <b_epik_Metal_Only>
0

> <s_lp_Force_Field>
OPLS_2005

> <r_lp_Energy>
20.0166

> <b_lp_Chiralities_Consistent>
1

> <s_lp_Variant>
AV-unprocessed.smi:2035-1

> <Gold.Version>
5.8.1

> <Gold.Id.Protein>
6NUR|6NUR_protein|mol2

> <Gold.PLP.Fitness>
42.7579

> <Gold.PLP.PLP>
-32.0577

> <Gold.PLP.part.hbond>
-4.7621

> <Gold.PLP.part.metal>
0.0000

> <Gold.PLP.part.buried>
-1.7991

> <Gold.PLP.part.nonpolar>
-26.6838

> <Gold.PLP.part.repulsive>
0.4692

> <Gold.PLP.ligand.clash>
0.0000

> <Gold.PLP.ligand.torsion>
0.1133

> <Gold.PLP.Chemscore.Hbond>
3.6243

> <Gold.PLP.Chemscore.CHOScore>
0.0000

> <Gold.PLP.Chemscore.Metal>
0.0000

> <Gold.Chemscore.Hbonds>
donor molecule, donor type, donor heavy atom, donor atom, acceptor molecule, acceptor atom, score
      L1  H     3    19       P1  8028  0.98
      L1  H    10    24       P1  8028  0.82
      L1  H    16    34       P1  7948  0.73
      P1  H  7989  7998       L1    18  0.89

> <Gold.PLP.Chemscore.Internal.Correction>
0.0539

> <Gold.Rescore>
     Score         DG    S(hbond)    S(metal)    S(lipo)     H(rot)  DE(clash)    DE(int)     intcor
     18.95     -22.98       3.38        0.00      75.06       1.00       0.09       3.94       ----

> <Gold.Chemscore.Fitness>
18.9523

> <Gold.Chemscore.DG>
-22.9808

> <Gold.Chemscore.ZeroCoef>
-5.4800

> <Gold.Chemscore.Hbond>
3.3769

> <Gold.Chemscore.Metal>
0.0000

> <Gold.Chemscore.Lipo>
75.0589

> <Gold.Chemscore.Internal_Hbond>
0.0000

> <Gold.Chemscore.DEClash>
0.0872

> <Gold.Chemscore.DEInternal>
3.9413

> <Gold.Chemscore.Rot>
1.0000

> <Gold.Chemscore.Internal.Correction>
   9.000000E+99

> <Gold.Chemscore.Hbonds>
donor molecule, donor type, donor heavy atom, donor atom, acceptor molecule, acceptor atom, score
      L1  H     3    19       P1  8028  0.93
      L1  H    10    24       P1  8028  0.79
      L1  H    16    34       P1  7948  0.70
      P1  H  7989  7998       L1    18  0.83

> <Gold.Chemscore.Hbond.Weighted>
-11.2789

> <Gold.Chemscore.Metal.Weighted>
-0.0000

> <Gold.Chemscore.Lipo.Weighted>
-8.7819

> <Gold.Chemscore.Internal_Hbond.Weighted>
0.0000

> <Gold.Chemscore.DEClash.Weighted>
0.0872

> <Gold.Chemscore.DEInternal.Weighted>
3.9413

> <Gold.Chemscore.Rot.Weighted>
2.5600

> <Gold.Chemscore.Internal.Correction.Weighted>
   9.000000E+99

> <Gold.Protein.RotatedTorsions>
[ 6907 6896 6895 6894 ] final   45.53 input  -60.11 | X-H torsion
[ 7974 7965 7964 7962 ] final  -30.12 input  175.53 | X-H torsion
[ 8008 7997 7996 7995 ] final -166.17 input   59.86 | X-H torsion
[ 10167 10162 10161 10158 ] final   22.88 input  -65.29 | X-H torsion
[ 10718 10713 10712 10709 ] final  147.66 input   66.30 | X-H torsion
[ 10763 10752 10751 10750 ] final -168.79 input  -60.55 | X-H torsion
[ 11005 11000 10999 10996 ] final  -83.02 input  -57.11 | X-H torsion

> <Gold.Protein.ActiveResidues>
 VAL166  LYS551  ARG553  GLY616  TRP617  ASP618  TYR619  PRO620  LYS621  CYS622 
 ASP623  PHE694  ASN695  SER759  ASP760  ASP761  ALA762  ILE779  LEU786  VAL792 
 PHE793  MET794  SER795  GLU796  ALA797  LYS798  CYS799  TRP800  GLU811  SER814 

> <Gold.Protein.RotatedAtoms>
  152.2456  134.8184  160.0453 H   0  0  0  0  0  0  0  0  0  0  0  0  # atno 6907 bound_to 6896
  151.8883  133.3505  159.3798 H   0  0  0  0  0  0  0  0  0  0  0  0  # atno 6908 bound_to 6896
  150.7067  134.4876  159.5544 H   0  0  0  0  0  0  0  0  0  0  0  0  # atno 6909 bound_to 6896
  146.1166  140.5500  142.8754 H   0  0  0  0  0  0  0  0  0  0  0  0  # atno 7974 bound_to 7965
  155.8601  140.0977  157.1619 H   0  0  0  0  0  0  0  0  0  0  0  0  # atno 8008 bound_to 7997
  154.3990  140.1366  156.4013 H   0  0  0  0  0  0  0  0  0  0  0  0  # atno 8009 bound_to 7997
  155.7866  140.3457  155.5328 H   0  0  0  0  0  0  0  0  0  0  0  0  # atno 8010 bound_to 7997
  140.5314  143.9835  150.6467 H   0  0  0  0  0  0  0  0  0  0  0  0  # atno 10167 bound_to 10162
  157.3182  131.0900  151.1261 H   0  0  0  0  0  0  0  0  0  0  0  0  # atno 10718 bound_to 10713
  154.6592  135.2922  154.9889 H   0  0  0  0  0  0  0  0  0  0  0  0  # atno 10763 bound_to 10752
  154.0954  135.6584  153.4863 H   0  0  0  0  0  0  0  0  0  0  0  0  # atno 10764 bound_to 10752
  153.0420  135.5230  154.7535 H   0  0  0  0  0  0  0  0  0  0  0  0  # atno 10765 bound_to 10752
  141.1660  133.7273  156.8658 H   0  0  0  0  0  0  0  0  0  0  0  0  # atno 11005 bound_to 11000
  144.7559  140.5305  143.6769 LP  0  0  0  0  0  0  0  0  0  0  0  0  # atno 17320 bound_to 7965
  145.5553  139.1478  143.3371 LP  0  0  0  0  0  0  0  0  0  0  0  0  # atno 17321 bound_to 7965
  140.3211  143.3136  152.0783 LP  0  0  0  0  0  0  0  0  0  0  0  0  # atno 17342 bound_to 10162
  139.4955  144.6573  151.6544 LP  0  0  0  0  0  0  0  0  0  0  0  0  # atno 17343 bound_to 10162
  157.2557  130.6635  149.5951 LP  0  0  0  0  0  0  0  0  0  0  0  0  # atno 17370 bound_to 10713
  155.9683  130.4524  150.5774 LP  0  0  0  0  0  0  0  0  0  0  0  0  # atno 17371 bound_to 10713
  140.1816  134.9029  157.2955 LP  0  0  0  0  0  0  0  0  0  0  0  0  # atno 17394 bound_to 11000
  140.2388  134.3820  155.7489 LP  0  0  0  0  0  0  0  0  0  0  0  0  # atno 17395 bound_to 11000

$$$$
