AV-unprocessed.smi:1897|AV-procd|sdf|7698|dock8
  -GOLD-   22720 9433D 1   1.00000     0.00000
 Structure written by MMmdl.
 38 40  0  0  0  0  0  0  0  0  3 V2000
  145.7530  143.8346  153.8112 C   0  0  0  0  0  0  0  0  0  0  0  0
  146.5146  142.7776  154.5348 C   0  0  0  0  0  0  0  0  0  0  0  0
  146.1293  142.2912  155.7170 N   0  0  0  0  0  0  0  0  0  0  0  0
  146.9978  141.3192  156.1903 N   0  0  0  0  0  0  0  0  0  0  0  0
  148.0176  141.0734  155.3548 C   0  0  0  0  0  0  0  0  0  0  0  0
  148.9647  140.1547  155.6213 N   0  5  0  0  0  0  0  0  0  0  0  0
  150.2341  140.4934  155.9654 C   0  0  0  0  0  0  0  0  0  0  0  0
  151.1811  140.4572  155.1810 O   0  0  0  0  0  0  0  0  0  0  0  0
  150.4534  140.9001  157.2307 N   0  0  0  0  0  0  0  0  0  0  0  0
  151.7231  141.3800  157.7654 C   0  0  2  0  0  0  0  0  0  0  0  0
  152.1497  140.6620  159.0389 C   0  0  0  0  0  0  0  0  0  0  0  0
  153.1737  141.6249  159.6475 C   0  0  0  0  0  0  0  0  0  0  0  0
  152.8154  142.9858  159.1777 N   0  3  2  0  0  0  0  0  0  0  0  0
  152.5829  143.9615  160.2759 C   0  0  0  0  0  0  0  0  0  0  0  0
  151.8544  145.2097  159.7569 C   0  0  0  0  0  0  0  0  0  0  0  0
  150.4634  144.8585  159.1966 C   0  0  0  0  0  0  0  0  0  0  0  0
  150.3631  143.3881  158.7475 C   0  0  0  0  0  0  0  0  0  0  0  0
  151.7084  142.8616  158.1871 C   0  0  2  0  0  0  0  0  0  0  0  0
  147.9875  142.0652  153.8979 S   0  0  0  0  0  0  0  0  0  0  0  0
  144.9146  143.3888  153.2761 H   0  0  0  0  0  0  0  0  0  0  0  0
  146.3983  144.3415  153.0935 H   0  0  0  0  0  0  0  0  0  0  0  0
  145.3682  144.5731  154.5150 H   0  0  0  0  0  0  0  0  0  0  0  0
  149.6602  140.9167  157.8550 H   0  0  0  0  0  0  0  0  0  0  0  0
  152.5081  141.2300  157.0213 H   0  0  0  0  0  0  0  0  0  0  0  0
  151.2996  140.5507  159.7140 H   0  0  0  0  0  0  0  0  0  0  0  0
  152.5623  139.6703  158.8514 H   0  0  0  0  0  0  0  0  0  0  0  0
  153.2091  141.5395  160.7344 H   0  0  0  0  0  0  0  0  0  0  0  0
  154.1710  141.3941  159.2717 H   0  0  0  0  0  0  0  0  0  0  0  0
  151.9878  143.5027  161.0675 H   0  0  0  0  0  0  0  0  0  0  0  0
  153.5418  144.2327  160.7185 H   0  0  0  0  0  0  0  0  0  0  0  0
  151.7600  145.9547  160.5474 H   0  0  0  0  0  0  0  0  0  0  0  0
  152.4573  145.6712  158.9737 H   0  0  0  0  0  0  0  0  0  0  0  0
  149.6964  145.0509  159.9476 H   0  0  0  0  0  0  0  0  0  0  0  0
  150.2402  145.5214  158.3599 H   0  0  0  0  0  0  0  0  0  0  0  0
  150.0599  142.7716  159.5950 H   0  0  0  0  0  0  0  0  0  0  0  0
  149.5653  143.2984  158.0096 H   0  0  0  0  0  0  0  0  0  0  0  0
  151.9628  143.4737  157.3206 H   0  0  0  0  0  0  0  0  0  0  0  0
  153.6111  143.3231  158.6554 H   0  0  0  0  0  0  0  0  0  0  0  0
  1  2  1  0  0  0  0
  1 20  1  0  0  0  0
  1 21  1  0  0  0  0
  1 22  1  0  0  0  0
  2 19  1  0  0  0  0
  2  3  2  0  0  0  0
  3  4  1  0  0  0  0
  4  5  2  0  0  0  0
  5  6  1  0  0  0  0
  5 19  1  0  0  0  0
  6  7  1  0  0  0  0
  7  8  2  0  0  0  0
  7  9  1  0  0  0  0
  9 10  1  0  0  0  0
  9 23  1  0  0  0  0
 10 18  1  0  0  0  0
 10 11  1  0  0  0  0
 10 24  1  0  0  0  0
 11 12  1  0  0  0  0
 11 25  1  0  0  0  0
 11 26  1  0  0  0  0
 12 13  1  0  0  0  0
 12 27  1  0  0  0  0
 12 28  1  0  0  0  0
 13 18  1  0  0  0  0
 13 14  1  0  0  0  0
 13 38  1  0  0  0  0
 14 15  1  0  0  0  0
 14 29  1  0  0  0  0
 14 30  1  0  0  0  0
 15 16  1  0  0  0  0
 15 31  1  0  0  0  0
 15 32  1  0  0  0  0
 16 17  1  0  0  0  0
 16 33  1  0  0  0  0
 16 34  1  0  0  0  0
 17 18  1  0  0  0  0
 17 35  1  0  0  0  0
 17 36  1  0  0  0  0
 18 37  1  0  0  0  0
M  CHG  1   6  -1
M  CHG  1  13   1
M  END
> <s_m_source_file>
AV-unprocessed.smi

> <i_m_source_file_index>
1897

> <i_lp_mmshare_version>
43012

> <i_f3d_flags>
0

> <s_epik_input>
W0NIM11jMW5uYyhzMSlbTkhdQyg9TylbTkhdW0NASF0oW0NIMl1bQ0gyXTIpW0NAQEhdKE4yMylbQ0gyXVtDSDJdW0NIMl1bQ0gyXTM=

> <s_epik_cmdline>
J2VwaWtfcHl0aG9uJywgJy1waCcsICc3LjAnLCAnLXRuJywgJzgnLCAnLW1hJywgJzIwMCcsICctbWV0YWxfYmluZGluZycsICctaW1hZScsICc8aW5maWxlLm1hZT4nLCAnLW9tYWUnLCAnPG91dGZpbGUubWFlPic=

> <r_lp_tautomer_probability>
1

> <r_epik_Ionization_Penalty>
3.77712

> <r_epik_Ionization_Penalty_Charging>
3.67739

> <r_epik_Ionization_Penalty_Neutral>
0.0997294

> <r_epik_State_Penalty>
3.67514

> <r_epik_Charging_Adjusted_Penalty>
7.35254

> <i_epik_Tot_Q>
0

> <i_epik_Tot_abs_Q>
2

> <r_epik_Metal_State_Penalty>
0.540795

> <b_epik_Metal_Only>
1

> <s_lp_Force_Field>
OPLS_2005

> <r_lp_Energy>
34.1596

> <b_lp_Chiralities_Consistent>
1

> <s_lp_Variant>
AV-unprocessed.smi:1897-15

> <Gold.Version>
5.8.1

> <Gold.Id.Protein>
6NUR|6NUR_protein|mol2

> <Gold.PLP.Fitness>
36.9811

> <Gold.PLP.PLP>
-36.8625

> <Gold.PLP.part.hbond>
-1.0000

> <Gold.PLP.part.metal>
0.0000

> <Gold.PLP.part.buried>
-7.0881

> <Gold.PLP.part.nonpolar>
-29.7061

> <Gold.PLP.part.repulsive>
0.2866

> <Gold.PLP.ligand.clash>
0.0000

> <Gold.PLP.ligand.torsion>
1.4426

> <Gold.PLP.Chemscore.Hbond>
1.0000

> <Gold.PLP.Chemscore.CHOScore>
0.0000

> <Gold.PLP.Chemscore.Metal>
0.0000

> <Gold.Chemscore.Hbonds>
donor molecule, donor type, donor heavy atom, donor atom, acceptor molecule, acceptor atom, score
      P1  H  7989  7998       L1     8  0.98

> <Gold.PLP.Chemscore.Internal.Correction>
0.0039

> <Gold.Rescore>
     Score         DG    S(hbond)    S(metal)    S(lipo)     H(rot)  DE(clash)    DE(int)     intcor
     16.18     -17.85       0.99        0.00      99.25       1.00       0.08       1.59       ----

> <Gold.Chemscore.Fitness>
16.1807

> <Gold.Chemscore.DG>
-17.8485

> <Gold.Chemscore.ZeroCoef>
-5.4800

> <Gold.Chemscore.Hbond>
0.9930

> <Gold.Chemscore.Metal>
0.0000

> <Gold.Chemscore.Lipo>
99.2456

> <Gold.Chemscore.Internal_Hbond>
0.0000

> <Gold.Chemscore.DEClash>
0.0798

> <Gold.Chemscore.DEInternal>
1.5881

> <Gold.Chemscore.Rot>
1.0000

> <Gold.Chemscore.Internal.Correction>
   9.000000E+99

> <Gold.Chemscore.Hbonds>
donor molecule, donor type, donor heavy atom, donor atom, acceptor molecule, acceptor atom, score
      P1  H  7989  7998       L1     8  0.93

> <Gold.Chemscore.Hbond.Weighted>
-3.3167

> <Gold.Chemscore.Metal.Weighted>
-0.0000

> <Gold.Chemscore.Lipo.Weighted>
-11.6117

> <Gold.Chemscore.Internal_Hbond.Weighted>
0.0000

> <Gold.Chemscore.DEClash.Weighted>
0.0798

> <Gold.Chemscore.DEInternal.Weighted>
1.5881

> <Gold.Chemscore.Rot.Weighted>
2.5600

> <Gold.Chemscore.Internal.Correction.Weighted>
   9.000000E+99

> <Gold.Protein.RotatedTorsions>
[ 6907 6896 6895 6894 ] final   -5.75 input  -60.11 | X-H torsion
[ 7974 7965 7964 7962 ] final -144.61 input  175.53 | X-H torsion
[ 8008 7997 7996 7995 ] final  120.91 input   59.86 | X-H torsion
[ 10167 10162 10161 10158 ] final  -88.67 input  -65.29 | X-H torsion
[ 10718 10713 10712 10709 ] final  163.18 input   66.30 | X-H torsion
[ 10763 10752 10751 10750 ] final  -43.54 input  -60.55 | X-H torsion
[ 11005 11000 10999 10996 ] final   40.74 input  -57.11 | X-H torsion

> <Gold.Protein.ActiveResidues>
 VAL166  LYS551  ARG553  GLY616  TRP617  ASP618  TYR619  PRO620  LYS621  CYS622 
 ASP623  PHE694  ASN695  SER759  ASP760  ASP761  ALA762  ILE779  LEU786  VAL792 
 PHE793  MET794  SER795  GLU796  ALA797  LYS798  CYS799  TRP800  GLU811  SER814 

> <Gold.Protein.RotatedAtoms>
  151.4765  135.1049  159.9765 H   0  0  0  0  0  0  0  0  0  0  0  0  # atno 6907 bound_to 6896
  152.4796  133.8217  159.7067 H   0  0  0  0  0  0  0  0  0  0  0  0  # atno 6908 bound_to 6896
  150.8858  133.7249  159.2945 H   0  0  0  0  0  0  0  0  0  0  0  0  # atno 6909 bound_to 6896
  144.8285  140.5688  143.5531 H   0  0  0  0  0  0  0  0  0  0  0  0  # atno 7974 bound_to 7965
  156.2663  140.2820  156.1225 H   0  0  0  0  0  0  0  0  0  0  0  0  # atno 8008 bound_to 7997
  155.1141  140.0391  157.2749 H   0  0  0  0  0  0  0  0  0  0  0  0  # atno 8009 bound_to 7997
  154.6720  140.2590  155.7003 H   0  0  0  0  0  0  0  0  0  0  0  0  # atno 8010 bound_to 7997
  140.3723  143.2788  151.9485 H   0  0  0  0  0  0  0  0  0  0  0  0  # atno 10167 bound_to 10162
  157.1122  131.0470  151.2452 H   0  0  0  0  0  0  0  0  0  0  0  0  # atno 10718 bound_to 10713
  153.9972  135.6698  153.4757 H   0  0  0  0  0  0  0  0  0  0  0  0  # atno 10763 bound_to 10752
  153.0678  135.4991  154.8235 H   0  0  0  0  0  0  0  0  0  0  0  0  # atno 10764 bound_to 10752
  154.7074  135.3090  154.9212 H   0  0  0  0  0  0  0  0  0  0  0  0  # atno 10765 bound_to 10752
  140.1901  134.3997  155.8151 H   0  0  0  0  0  0  0  0  0  0  0  0  # atno 11005 bound_to 11000
  145.4947  139.1486  143.3690 LP  0  0  0  0  0  0  0  0  0  0  0  0  # atno 17320 bound_to 7965
  146.2589  140.5086  142.8862 LP  0  0  0  0  0  0  0  0  0  0  0  0  # atno 17321 bound_to 7965
  139.4802  144.5895  151.7796 LP  0  0  0  0  0  0  0  0  0  0  0  0  # atno 17342 bound_to 10162
  140.5020  144.1154  150.5973 LP  0  0  0  0  0  0  0  0  0  0  0  0  # atno 17343 bound_to 10162
  157.4550  130.7620  149.7184 LP  0  0  0  0  0  0  0  0  0  0  0  0  # atno 17370 bound_to 10713
  155.9848  130.3988  150.3294 LP  0  0  0  0  0  0  0  0  0  0  0  0  # atno 17371 bound_to 10713
  141.2226  133.7042  156.8081 LP  0  0  0  0  0  0  0  0  0  0  0  0  # atno 17394 bound_to 11000
  140.2169  134.8786  157.3335 LP  0  0  0  0  0  0  0  0  0  0  0  0  # atno 17395 bound_to 11000

$$$$
