AV-unprocessed.smi:915|AV-procd|sdf|4156|dock10
  -GOLD-   22720 2 63D 1   1.00000     0.00000
 Structure written by MMmdl.
 33 34  0  0  0  0  0  0  0  0  2 V2000
  153.4983  143.1291  162.8145 C   0  0  0  0  0  0  0  0  0  0  0  0
  153.1417  142.3387  161.5503 C   0  0  0  0  0  0  0  0  0  0  0  0
  152.5625  143.2102  160.4776 C   0  0  0  0  0  0  0  0  0  0  0  0
  152.4633  144.5773  160.4908 C   0  0  0  0  0  0  0  0  0  0  0  0
  151.7174  145.1820  159.0393 S   0  0  0  0  0  0  0  0  0  0  0  0
  151.5671  143.5283  158.4409 C   0  0  0  0  0  0  0  0  0  0  0  0
  151.0263  143.1839  157.2609 N   0  5  0  0  0  0  0  0  0  0  0  0
  150.3695  142.0081  157.1374 C   0  0  0  0  0  0  0  0  0  0  0  0
  150.6089  140.9688  157.7566 O   0  0  0  0  0  0  0  0  0  0  0  0
  149.3768  142.0358  156.2368 N   0  0  0  0  0  0  0  0  0  0  0  0
  148.5147  140.9127  155.8820 C   0  0  0  0  0  0  0  0  0  0  0  0
  147.1719  141.3744  155.2849 C   0  0  2  0  0  0  0  0  0  0  0  0
  147.3139  142.3809  154.1338 C   0  0  0  0  0  0  0  0  0  0  0  0
  145.9748  143.1096  154.0183 C   0  0  0  0  0  0  0  0  0  0  0  0
  145.5625  143.4853  155.4424 C   0  0  0  0  0  0  0  0  0  0  0  0
  146.1103  142.1491  156.5361 S   0  0  0  0  0  0  0  0  0  0  0  0
  152.0443  142.6347  159.3145 N   0  0  0  0  0  0  0  0  0  0  0  0
  153.9199  142.4738  163.5767 H   0  0  0  0  0  0  0  0  0  0  0  0
  152.6170  143.6108  163.2395 H   0  0  0  0  0  0  0  0  0  0  0  0
  154.2327  143.9053  162.5975 H   0  0  0  0  0  0  0  0  0  0  0  0
  154.0343  141.8339  161.1797 H   0  0  0  0  0  0  0  0  0  0  0  0
  152.4365  141.5475  161.8078 H   0  0  0  0  0  0  0  0  0  0  0  0
  152.7804  145.2626  161.2620 H   0  0  0  0  0  0  0  0  0  0  0  0
  149.2133  142.9076  155.7552 H   0  0  0  0  0  0  0  0  0  0  0  0
  149.0348  140.2549  155.1840 H   0  0  0  0  0  0  0  0  0  0  0  0
  148.3388  140.3256  156.7837 H   0  0  0  0  0  0  0  0  0  0  0  0
  146.6209  140.5088  154.9148 H   0  0  0  0  0  0  0  0  0  0  0  0
  148.0989  143.1030  154.3634 H   0  0  0  0  0  0  0  0  0  0  0  0
  147.5887  141.8900  153.1995 H   0  0  0  0  0  0  0  0  0  0  0  0
  146.0401  143.9842  153.3706 H   0  0  0  0  0  0  0  0  0  0  0  0
  145.2321  142.4381  153.5855 H   0  0  0  0  0  0  0  0  0  0  0  0
  146.0662  144.4027  155.7481 H   0  0  0  0  0  0  0  0  0  0  0  0
  144.4881  143.6491  155.5306 H   0  0  0  0  0  0  0  0  0  0  0  0
  1  2  1  0  0  0  0
  1 18  1  0  0  0  0
  1 19  1  0  0  0  0
  1 20  1  0  0  0  0
  2  3  1  0  0  0  0
  2 21  1  0  0  0  0
  2 22  1  0  0  0  0
  3 17  1  0  0  0  0
  3  4  2  0  0  0  0
  4  5  1  0  0  0  0
  4 23  1  0  0  0  0
  5  6  1  0  0  0  0
  6  7  1  0  0  0  0
  6 17  2  0  0  0  0
  7  8  1  0  0  0  0
  8  9  2  0  0  0  0
  8 10  1  0  0  0  0
 10 11  1  0  0  0  0
 10 24  1  0  0  0  0
 11 12  1  0  0  0  0
 11 25  1  0  0  0  0
 11 26  1  0  0  0  0
 12 16  1  0  0  0  0
 12 13  1  0  0  0  0
 12 27  1  0  0  0  0
 13 14  1  0  0  0  0
 13 28  1  0  0  0  0
 13 29  1  0  0  0  0
 14 15  1  0  0  0  0
 14 30  1  0  0  0  0
 14 31  1  0  0  0  0
 15 16  1  0  0  0  0
 15 32  1  0  0  0  0
 15 33  1  0  0  0  0
M  CHG  1   7  -1
M  END
> <s_m_source_file>
AV-unprocessed.smi

> <i_m_source_file_index>
915

> <i_lp_mmshare_version>
43012

> <i_f3d_flags>
0

> <s_epik_input>
W0NIM11bQ0gyXWMxW2NIXXNjKG4xKVtOSF1DKD1PKVtOSF1bQ0gyXVtDQEBIXTJbQ0gyXVtDSDJdW0NIMl1TMg==

> <s_epik_cmdline>
J2VwaWtfcHl0aG9uJywgJy1waCcsICc3LjAnLCAnLXRuJywgJzgnLCAnLW1hJywgJzIwMCcsICctbWV0YWxfYmluZGluZycsICctaW1hZScsICc8aW5maWxlLm1hZT4nLCAnLW9tYWUnLCAnPG91dGZpbGUubWFlPic=

> <r_lp_tautomer_probability>
0.999

> <r_epik_Ionization_Penalty>
8.73043

> <r_epik_Ionization_Penalty_Charging>
6.79141

> <r_epik_Ionization_Penalty_Neutral>
1.93902

> <r_epik_State_Penalty>
6.79158

> <r_epik_Charging_Adjusted_Penalty>
13.583

> <i_epik_Tot_Q>
-1

> <i_epik_Tot_abs_Q>
1

> <r_epik_Metal_State_Penalty>
2.71141

> <b_epik_Metal_Only>
1

> <s_lp_Force_Field>
OPLS_2005

> <r_lp_Energy>
4.53782

> <b_lp_Chiralities_Consistent>
1

> <s_lp_Variant>
AV-unprocessed.smi:915-3

> <Gold.Version>
5.8.1

> <Gold.Id.Protein>
6NUR|6NUR_protein|mol2

> <Gold.PLP.Fitness>
41.3254

> <Gold.PLP.PLP>
-39.6244

> <Gold.PLP.part.hbond>
-1.0000

> <Gold.PLP.part.metal>
0.0000

> <Gold.PLP.part.buried>
-7.4679

> <Gold.PLP.part.nonpolar>
-31.4437

> <Gold.PLP.part.repulsive>
0.6910

> <Gold.PLP.ligand.clash>
0.0000

> <Gold.PLP.ligand.torsion>
0.6637

> <Gold.PLP.Chemscore.Hbond>
1.0000

> <Gold.PLP.Chemscore.CHOScore>
0.0000

> <Gold.PLP.Chemscore.Metal>
0.0000

> <Gold.Chemscore.Hbonds>
donor molecule, donor type, donor heavy atom, donor atom, acceptor molecule, acceptor atom, score
      L1  H    10    24       P1  8028  1.00

> <Gold.PLP.Chemscore.Internal.Correction>
0.0284

> <Gold.Rescore>
     Score         DG    S(hbond)    S(metal)    S(lipo)     H(rot)  DE(clash)    DE(int)     intcor
     13.78     -15.87       0.99        0.00      89.81       1.33       0.02       2.07       ----

> <Gold.Chemscore.Fitness>
13.7833

> <Gold.Chemscore.DG>
-15.8737

> <Gold.Chemscore.ZeroCoef>
-5.4800

> <Gold.Chemscore.Hbond>
0.9855

> <Gold.Chemscore.Metal>
0.0000

> <Gold.Chemscore.Lipo>
89.8121

> <Gold.Chemscore.Internal_Hbond>
0.0000

> <Gold.Chemscore.DEClash>
0.0226

> <Gold.Chemscore.DEInternal>
2.0678

> <Gold.Chemscore.Rot>
1.3305

> <Gold.Chemscore.Internal.Correction>
   9.000000E+99

> <Gold.Chemscore.Hbonds>
donor molecule, donor type, donor heavy atom, donor atom, acceptor molecule, acceptor atom, score
      L1  H    10    24       P1  8028  0.98

> <Gold.Chemscore.Hbond.Weighted>
-3.2917

> <Gold.Chemscore.Metal.Weighted>
-0.0000

> <Gold.Chemscore.Lipo.Weighted>
-10.5080

> <Gold.Chemscore.Internal_Hbond.Weighted>
0.0000

> <Gold.Chemscore.DEClash.Weighted>
0.0226

> <Gold.Chemscore.DEInternal.Weighted>
2.0678

> <Gold.Chemscore.Rot.Weighted>
3.4060

> <Gold.Chemscore.Internal.Correction.Weighted>
   9.000000E+99

> <Gold.Protein.RotatedTorsions>
[ 6907 6896 6895 6894 ] final   67.51 input  -60.11 | X-H torsion
[ 7974 7965 7964 7962 ] final  -15.76 input  175.53 | X-H torsion
[ 8008 7997 7996 7995 ] final -122.56 input   59.86 | X-H torsion
[ 10167 10162 10161 10158 ] final   94.02 input  -65.29 | X-H torsion
[ 10718 10713 10712 10709 ] final  -59.04 input   66.30 | X-H torsion
[ 10763 10752 10751 10750 ] final   45.58 input  -60.55 | X-H torsion
[ 11005 11000 10999 10996 ] final   31.32 input  -57.11 | X-H torsion

> <Gold.Protein.ActiveResidues>
 VAL166  LYS551  ARG553  GLY616  TRP617  ASP618  TYR619  PRO620  LYS621  CYS622 
 ASP623  PHE694  ASN695  SER759  ASP760  ASP761  ALA762  ILE779  LEU786  VAL792 
 PHE793  MET794  SER795  GLU796  ALA797  LYS798  CYS799  TRP800  GLU811  SER814 

> <Gold.Protein.RotatedAtoms>
  152.4556  134.5298  159.9807 H   0  0  0  0  0  0  0  0  0  0  0  0  # atno 6907 bound_to 6896
  151.5359  133.3435  159.2934 H   0  0  0  0  0  0  0  0  0  0  0  0  # atno 6908 bound_to 6896
  150.8500  134.7852  159.7064 H   0  0  0  0  0  0  0  0  0  0  0  0  # atno 6909 bound_to 6896
  146.2018  140.3539  142.8421 H   0  0  0  0  0  0  0  0  0  0  0  0  # atno 7974 bound_to 7965
  155.1662  140.0407  157.2853 H   0  0  0  0  0  0  0  0  0  0  0  0  # atno 8008 bound_to 7997
  154.6302  140.2522  155.7416 H   0  0  0  0  0  0  0  0  0  0  0  0  # atno 8009 bound_to 7997
  156.2480  140.2877  156.0650 H   0  0  0  0  0  0  0  0  0  0  0  0  # atno 8010 bound_to 7997
  139.8124  144.6767  150.9623 H   0  0  0  0  0  0  0  0  0  0  0  0  # atno 10167 bound_to 10162
  156.1091  130.4177  150.0660 H   0  0  0  0  0  0  0  0  0  0  0  0  # atno 10718 bound_to 10713
  152.9822  135.6035  154.3460 H   0  0  0  0  0  0  0  0  0  0  0  0  # atno 10763 bound_to 10752
  154.3153  135.2770  155.2548 H   0  0  0  0  0  0  0  0  0  0  0  0  # atno 10764 bound_to 10752
  154.4739  135.5934  153.6397 H   0  0  0  0  0  0  0  0  0  0  0  0  # atno 10765 bound_to 10752
  140.2851  134.2928  155.7790 H   0  0  0  0  0  0  0  0  0  0  0  0  # atno 11005 bound_to 11000
  144.8700  140.7259  143.6053 LP  0  0  0  0  0  0  0  0  0  0  0  0  # atno 17320 bound_to 7965
  145.3458  139.1719  143.4461 LP  0  0  0  0  0  0  0  0  0  0  0  0  # atno 17321 bound_to 7965
  140.7817  143.4172  151.0898 LP  0  0  0  0  0  0  0  0  0  0  0  0  # atno 17342 bound_to 10162
  139.7838  143.8317  152.3142 LP  0  0  0  0  0  0  0  0  0  0  0  0  # atno 17343 bound_to 10162
  156.8628  130.9497  151.3616 LP  0  0  0  0  0  0  0  0  0  0  0  0  # atno 17370 bound_to 10713
  157.6270  130.8699  149.9207 LP  0  0  0  0  0  0  0  0  0  0  0  0  # atno 17371 bound_to 10713
  141.2156  133.7550  156.9540 LP  0  0  0  0  0  0  0  0  0  0  0  0  # atno 17394 bound_to 11000
  140.1247  134.9394  157.2253 LP  0  0  0  0  0  0  0  0  0  0  0  0  # atno 17395 bound_to 11000

$$$$
