AV-unprocessed.smi:49|AV-procd|sdf|486|dock10
  -GOLD-   2262016353D 1   1.00000     0.00000
 Structure written by MMmdl.
 27 28  0  0  0  0  0  0  0  0  3 V2000
  153.1537  143.3349  159.6308 C   0  0  0  0  0  0  0  0  0  0  0  0
  153.3799  141.8266  159.7728 C   0  0  0  0  0  0  0  0  0  0  0  0
  152.6137  141.0358  158.7349 C   0  0  0  0  0  0  0  0  0  0  0  0
  151.3058  141.1085  158.5090 N   0  0  0  0  0  0  0  0  0  0  0  0
  151.0626  140.2696  157.4934 C   0  0  0  0  0  0  0  0  0  0  0  0
  149.6936  140.0499  156.8789 C   0  0  1  0  0  0  0  0  0  0  0  0
  149.0502  141.3618  156.4066 C   0  0  0  0  0  0  0  0  0  0  0  0
  149.3560  141.3988  154.9119 C   0  0  2  0  0  0  0  0  0  0  0  0
  148.4298  142.1905  154.1981 O   0  0  0  0  0  0  0  0  0  0  0  0
  149.2817  139.9244  154.5186 C   0  0  0  0  0  0  0  0  0  0  0  0
  149.7950  139.1831  155.6852 N   0  3  0  0  0  0  0  0  0  0  0  0
  152.2008  139.6982  157.0675 N   0  0  0  0  0  0  0  0  0  0  0  0
  153.1471  140.1802  157.8451 N   0  5  0  0  0  0  0  0  0  0  0  0
  149.0579  139.5654  157.6210 H   0  0  0  0  0  0  0  0  0  0  0  0
  150.3662  141.7779  154.7497 H   0  0  0  0  0  0  0  0  0  0  0  0
  153.7153  143.8850  160.3859 H   0  0  0  0  0  0  0  0  0  0  0  0
  152.0993  143.5860  159.7489 H   0  0  0  0  0  0  0  0  0  0  0  0
  153.4756  143.6890  158.6509 H   0  0  0  0  0  0  0  0  0  0  0  0
  154.4417  141.5980  159.6773 H   0  0  0  0  0  0  0  0  0  0  0  0
  153.0748  141.4952  160.7658 H   0  0  0  0  0  0  0  0  0  0  0  0
  147.9704  141.2975  156.5529 H   0  0  0  0  0  0  0  0  0  0  0  0
  149.4020  142.2418  156.9469 H   0  0  0  0  0  0  0  0  0  0  0  0
  148.4539  143.0693  154.5458 H   0  0  0  0  0  0  0  0  0  0  0  0
  148.2458  139.6231  154.3564 H   0  0  0  0  0  0  0  0  0  0  0  0
  149.8467  139.6978  153.6141 H   0  0  0  0  0  0  0  0  0  0  0  0
  150.7740  138.9784  155.5406 H   0  0  0  0  0  0  0  0  0  0  0  0
  149.2833  138.3232  155.8184 H   0  0  0  0  0  0  0  0  0  0  0  0
  1  2  1  0  0  0  0
  1 16  1  0  0  0  0
  1 17  1  0  0  0  0
  1 18  1  0  0  0  0
  2  3  1  0  0  0  0
  2 19  1  0  0  0  0
  2 20  1  0  0  0  0
  3 13  1  0  0  0  0
  3  4  2  0  0  0  0
  4  5  1  0  0  0  0
  5  6  1  0  0  0  0
  5 12  2  0  0  0  0
  6 14  1  0  0  0  0
  6 11  1  0  0  0  0
  6  7  1  0  0  0  0
  7  8  1  0  0  0  0
  7 21  1  0  0  0  0
  7 22  1  0  0  0  0
  8 15  1  0  0  0  0
  8  9  1  0  0  0  0
  8 10  1  0  0  0  0
  9 23  1  0  0  0  0
 10 11  1  0  0  0  0
 10 24  1  0  0  0  0
 10 25  1  0  0  0  0
 11 26  1  0  0  0  0
 11 27  1  0  0  0  0
 12 13  1  0  0  0  0
M  CHG  1  11   1
M  CHG  1  13  -1
M  END
> <s_m_source_file>
AV-unprocessed.smi

> <i_m_source_file_index>
49

> <i_lp_mmshare_version>
43012

> <i_f3d_flags>
0

> <s_epik_input>
W0NIM11bQ0gyXWMxbmMobltuSF0xKVtDQEBIXTJbQ0gyXVtDQEBIXShbT0hdKVtDSDJdW05IXTI=

> <s_epik_cmdline>
J2VwaWtfcHl0aG9uJywgJy1waCcsICc3LjAnLCAnLXRuJywgJzgnLCAnLW1hJywgJzIwMCcsICctbWV0YWxfYmluZGluZycsICctaW1hZScsICc8aW5maWxlLm1hZT4nLCAnLW9tYWUnLCAnPG91dGZpbGUubWFlPic=

> <r_lp_tautomer_probability>
0.948284

> <r_epik_Ionization_Penalty>
3.22013

> <r_epik_Ionization_Penalty_Charging>
3.22013

> <r_epik_Ionization_Penalty_Neutral>
3.9133e-08

> <r_epik_State_Penalty>
2.79459

> <r_epik_Charging_Adjusted_Penalty>
6.01472

> <i_epik_Tot_Q>
0

> <i_epik_Tot_abs_Q>
2

> <r_epik_Metal_State_Penalty>
0.589377

> <b_epik_Metal_Only>
1

> <s_lp_Force_Field>
OPLS_2005

> <r_lp_Energy>
10.3781

> <b_lp_Chiralities_Consistent>
1

> <s_lp_Variant>
AV-unprocessed.smi:49-24

> <Gold.Version>
5.8.1

> <Gold.Id.Protein>
6NUR|6NUR_protein|mol2

> <Gold.PLP.Fitness>
32.5943

> <Gold.PLP.PLP>
-22.9416

> <Gold.PLP.part.hbond>
-3.1020

> <Gold.PLP.part.metal>
0.0000

> <Gold.PLP.part.buried>
-1.9408

> <Gold.PLP.part.nonpolar>
-17.2163

> <Gold.PLP.part.repulsive>
0.0371

> <Gold.PLP.ligand.clash>
0.0000

> <Gold.PLP.ligand.torsion>
0.0601

> <Gold.PLP.Chemscore.Hbond>
3.2527

> <Gold.PLP.Chemscore.CHOScore>
0.0000

> <Gold.PLP.Chemscore.Metal>
0.0000

> <Gold.Chemscore.Hbonds>
donor molecule, donor type, donor heavy atom, donor atom, acceptor molecule, acceptor atom, score
      L1  H     9    23       P1  8028  1.00
      P1  H  7997  8010       L1    13  1.95
      P1  H  8011  8017       L1     9  0.07

> <Gold.PLP.Chemscore.Internal.Correction>
0.0148

> <Gold.Rescore>
     Score         DG    S(hbond)    S(metal)    S(lipo)     H(rot)  DE(clash)    DE(int)     intcor
     12.54     -12.66       1.92        0.00      47.20       1.86       0.01       0.10       ----

> <Gold.Chemscore.Fitness>
12.5404

> <Gold.Chemscore.DG>
-12.6552

> <Gold.Chemscore.ZeroCoef>
-5.4800

> <Gold.Chemscore.Hbond>
1.9178

> <Gold.Chemscore.Metal>
0.0000

> <Gold.Chemscore.Lipo>
47.2031

> <Gold.Chemscore.Internal_Hbond>
0.0000

> <Gold.Chemscore.DEClash>
0.0149

> <Gold.Chemscore.DEInternal>
0.1000

> <Gold.Chemscore.Rot>
1.8567

> <Gold.Chemscore.Internal.Correction>
   9.000000E+99

> <Gold.Chemscore.Hbonds>
donor molecule, donor type, donor heavy atom, donor atom, acceptor molecule, acceptor atom, score
      L1  H     9    23       P1  8028  0.95
      P1  H  7997  8010       L1    13  0.47

> <Gold.Chemscore.Hbond.Weighted>
-6.4056

> <Gold.Chemscore.Metal.Weighted>
-0.0000

> <Gold.Chemscore.Lipo.Weighted>
-5.5228

> <Gold.Chemscore.Internal_Hbond.Weighted>
0.0000

> <Gold.Chemscore.DEClash.Weighted>
0.0149

> <Gold.Chemscore.DEInternal.Weighted>
0.1000

> <Gold.Chemscore.Rot.Weighted>
4.7531

> <Gold.Chemscore.Internal.Correction.Weighted>
   9.000000E+99

> <Gold.Protein.RotatedTorsions>
[ 6907 6896 6895 6894 ] final -118.09 input  -60.11 | X-H torsion
[ 7974 7965 7964 7962 ] final -146.31 input  175.53 | X-H torsion
[ 8008 7997 7996 7995 ] final   39.11 input   59.86 | X-H torsion
[ 10167 10162 10161 10158 ] final -145.12 input  -65.29 | X-H torsion
[ 10718 10713 10712 10709 ] final  123.83 input   66.30 | X-H torsion
[ 10763 10752 10751 10750 ] final   15.89 input  -60.55 | X-H torsion
[ 11005 11000 10999 10996 ] final   60.22 input  -57.11 | X-H torsion

> <Gold.Protein.ActiveResidues>
 VAL166  LYS551  ARG553  GLY616  TRP617  ASP618  TYR619  PRO620  LYS621  CYS622 
 ASP623  PHE694  ASN695  SER759  ASP760  ASP761  ALA762  ILE779  LEU786  VAL792 
 PHE793  MET794  SER795  GLU796  ALA797  LYS798  CYS799  TRP800  GLU811  SER814 

> <Gold.Protein.RotatedAtoms>
  150.8191  133.8285  159.3146 H   0  0  0  0  0  0  0  0  0  0  0  0  # atno 6907 bound_to 6896
  151.6048  135.1043  160.0078 H   0  0  0  0  0  0  0  0  0  0  0  0  # atno 6908 bound_to 6896
  152.4281  133.7189  159.6578 H   0  0  0  0  0  0  0  0  0  0  0  0  # atno 6909 bound_to 6896
  144.8168  140.5472  143.5605 H   0  0  0  0  0  0  0  0  0  0  0  0  # atno 7974 bound_to 7965
  155.2312  140.3338  155.4303 H   0  0  0  0  0  0  0  0  0  0  0  0  # atno 8008 bound_to 7997
  156.2294  140.1844  156.7327 H   0  0  0  0  0  0  0  0  0  0  0  0  # atno 8009 bound_to 7997
  154.5952  140.0631  156.9279 H   0  0  0  0  0  0  0  0  0  0  0  0  # atno 8010 bound_to 7997
  139.7835  143.8067  152.2642 H   0  0  0  0  0  0  0  0  0  0  0  0  # atno 10167 bound_to 10162
  157.5634  131.1088  150.8498 H   0  0  0  0  0  0  0  0  0  0  0  0  # atno 10718 bound_to 10713
  153.1482  135.6773  153.8922 H   0  0  0  0  0  0  0  0  0  0  0  0  # atno 10763 bound_to 10752
  153.8357  135.3112  155.3423 H   0  0  0  0  0  0  0  0  0  0  0  0  # atno 10764 bound_to 10752
  154.7841  135.4872  153.9994 H   0  0  0  0  0  0  0  0  0  0  0  0  # atno 10765 bound_to 10752
  140.0248  134.6100  155.9589 H   0  0  0  0  0  0  0  0  0  0  0  0  # atno 11005 bound_to 11000
  145.5197  139.1477  143.3559 LP  0  0  0  0  0  0  0  0  0  0  0  0  # atno 17320 bound_to 7965
  146.2471  140.5338  142.8909 LP  0  0  0  0  0  0  0  0  0  0  0  0  # atno 17321 bound_to 7965
  139.8137  144.7325  150.9664 LP  0  0  0  0  0  0  0  0  0  0  0  0  # atno 17342 bound_to 10162
  140.7819  143.4226  151.0818 LP  0  0  0  0  0  0  0  0  0  0  0  0  # atno 17343 bound_to 10162
  156.8990  130.5240  149.5283 LP  0  0  0  0  0  0  0  0  0  0  0  0  # atno 17370 bound_to 10713
  156.0684  130.5722  150.9334 LP  0  0  0  0  0  0  0  0  0  0  0  0  # atno 17371 bound_to 10713
  141.1796  133.6544  156.4965 LP  0  0  0  0  0  0  0  0  0  0  0  0  # atno 17394 bound_to 11000
  140.4326  134.7088  157.4950 LP  0  0  0  0  0  0  0  0  0  0  0  0  # atno 17395 bound_to 11000

$$$$
