AV-unprocessed.smi:2693|AV-procd|sdf|10398|dock4
  -GOLD-   2272014433D 1   1.00000     0.00000
 Structure written by MMmdl.
 45 47  0  0  0  0  0  0  0  0  1 V2000
  151.5846  140.8567  158.3456 C   0  0  0  0  0  0  0  0  0  0  0  0
  150.9548  141.1156  157.0542 N   0  0  0  0  0  0  0  0  0  0  0  0
  150.9960  142.4828  156.5437 C   0  0  0  0  0  0  0  0  0  0  0  0
  150.3341  140.0917  156.3327 C   0  0  0  0  0  0  0  0  0  0  0  0
  150.4697  140.1052  154.9999 N   0  0  0  0  0  0  0  0  0  0  0  0
  149.8757  139.1152  154.3007 C   0  0  0  0  0  0  0  0  0  0  0  0
  149.1288  138.0997  154.9309 C   0  0  0  0  0  0  0  0  0  0  0  0
  148.5503  137.0730  154.1375 N   0  0  0  0  0  0  0  0  0  0  0  0
  147.5699  136.2172  154.4713 C   0  0  0  0  0  0  0  0  0  0  0  0
  146.9239  136.2491  155.5183 O   0  0  0  0  0  0  0  0  0  0  0  0
  147.3621  135.3145  153.5042 N   0  0  0  0  0  0  0  0  0  0  0  0
  146.3862  134.2341  153.5857 C   0  0  1  0  0  0  0  0  0  0  0  0
  145.9420  133.7402  152.2087 C   0  0  2  0  0  0  0  0  0  0  0  0
  144.6629  133.7676  151.4507 C   0  0  0  0  0  0  0  0  0  0  0  0
  144.6623  132.2880  150.9812 C   0  0  0  0  0  0  0  0  0  0  0  0
  145.7197  131.6342  151.7251 O   0  0  0  0  0  0  0  0  0  0  0  0
  145.8200  132.4001  152.9078 C   0  0  1  0  0  0  0  0  0  0  0  0
  147.0354  132.8090  153.7633 C   0  0  0  0  0  0  0  0  0  0  0  0
  148.4410  132.5318  153.1922 C   0  0  0  0  0  0  0  0  0  0  0  0
  147.0389  132.2647  155.1922 C   0  0  0  0  0  0  0  0  0  0  0  0
  149.0554  138.1765  156.3423 C   0  0  0  0  0  0  0  0  0  0  0  0
  149.6563  139.1706  157.0300 N   0  0  0  0  0  0  0  0  0  0  0  0
  150.8405  140.5253  159.0705 H   0  0  0  0  0  0  0  0  0  0  0  0
  152.0701  141.7459  158.7478 H   0  0  0  0  0  0  0  0  0  0  0  0
  152.3436  140.0795  158.2505 H   0  0  0  0  0  0  0  0  0  0  0  0
  149.9878  142.8447  156.3382 H   0  0  0  0  0  0  0  0  0  0  0  0
  151.5717  142.5249  155.6186 H   0  0  0  0  0  0  0  0  0  0  0  0
  151.4544  143.1701  157.2548 H   0  0  0  0  0  0  0  0  0  0  0  0
  149.9993  139.1361  153.2279 H   0  0  0  0  0  0  0  0  0  0  0  0
  148.9238  136.9831  153.2038 H   0  0  0  0  0  0  0  0  0  0  0  0
  147.9281  135.3615  152.6698 H   0  0  0  0  0  0  0  0  0  0  0  0
  145.5489  134.4355  154.2602 H   0  0  0  0  0  0  0  0  0  0  0  0
  146.7755  133.7813  151.5038 H   0  0  0  0  0  0  0  0  0  0  0  0
  143.8115  133.9926  152.0946 H   0  0  0  0  0  0  0  0  0  0  0  0
  144.6772  134.4712  150.6180 H   0  0  0  0  0  0  0  0  0  0  0  0
  143.7015  131.8154  151.1882 H   0  0  0  0  0  0  0  0  0  0  0  0
  144.8603  132.1991  149.9127 H   0  0  0  0  0  0  0  0  0  0  0  0
  144.9114  132.2971  153.5123 H   0  0  0  0  0  0  0  0  0  0  0  0
  148.6479  131.4615  153.1654 H   0  0  0  0  0  0  0  0  0  0  0  0
  149.2156  132.9943  153.8049 H   0  0  0  0  0  0  0  0  0  0  0  0
  148.5849  132.9013  152.1786 H   0  0  0  0  0  0  0  0  0  0  0  0
  147.2188  131.1896  155.2102 H   0  0  0  0  0  0  0  0  0  0  0  0
  146.0853  132.4408  155.6907 H   0  0  0  0  0  0  0  0  0  0  0  0
  147.8096  132.7388  155.8005 H   0  0  0  0  0  0  0  0  0  0  0  0
  148.5420  137.4422  156.9429 H   0  0  0  0  0  0  0  0  0  0  0  0
  1  2  1  0  0  0  0
  1 23  1  0  0  0  0
  1 24  1  0  0  0  0
  1 25  1  0  0  0  0
  2  3  1  0  0  0  0
  2  4  1  0  0  0  0
  3 26  1  0  0  0  0
  3 27  1  0  0  0  0
  3 28  1  0  0  0  0
  4 22  1  0  0  0  0
  4  5  2  0  0  0  0
  5  6  1  0  0  0  0
  6  7  2  0  0  0  0
  6 29  1  0  0  0  0
  7  8  1  0  0  0  0
  7 21  1  0  0  0  0
  8  9  1  0  0  0  0
  8 30  1  0  0  0  0
  9 10  2  0  0  0  0
  9 11  1  0  0  0  0
 11 12  1  0  0  0  0
 11 31  1  0  0  0  0
 12 18  1  0  0  0  0
 12 13  1  0  0  0  0
 12 32  1  0  0  0  0
 13 17  1  0  0  0  0
 13 14  1  0  0  0  0
 13 33  1  0  0  0  0
 14 15  1  0  0  0  0
 14 34  1  0  0  0  0
 14 35  1  0  0  0  0
 15 16  1  0  0  0  0
 15 36  1  0  0  0  0
 15 37  1  0  0  0  0
 16 17  1  0  0  0  0
 17 18  1  0  0  0  0
 17 38  1  0  0  0  0
 18 19  1  0  0  0  0
 18 20  1  0  0  0  0
 19 39  1  0  0  0  0
 19 40  1  0  0  0  0
 19 41  1  0  0  0  0
 20 42  1  0  0  0  0
 20 43  1  0  0  0  0
 20 44  1  0  0  0  0
 21 22  2  0  0  0  0
 21 45  1  0  0  0  0
M  END
> <s_m_source_file>
AV-unprocessed.smi

> <i_m_source_file_index>
2693

> <i_lp_mmshare_version>
43012

> <i_f3d_flags>
0

> <s_epik_input>
W0NIM11OKFtDSDNdKWMxbltjSF1jKFtjSF1uMSlbTkhdQyg9TylbTkhdW0NASF0yQyhbQ0gzXSkoW0NIM10pW0NAQEhdKFtDQEhdMjMpT1tDSDJdW0NIMl0z

> <s_epik_cmdline>
J2VwaWtfcHl0aG9uJywgJy1waCcsICc3LjAnLCAnLXRuJywgJzgnLCAnLW1hJywgJzIwMCcsICctbWV0YWxfYmluZGluZycsICctaW1hZScsICc8aW5maWxlLm1hZT4nLCAnLW9tYWUnLCAnPG91dGZpbGUubWFlPic=

> <r_lp_tautomer_probability>
1

> <r_epik_Ionization_Penalty>
0.00031779

> <r_epik_Ionization_Penalty_Charging>
0

> <r_epik_Ionization_Penalty_Neutral>
0.00031779

> <r_epik_State_Penalty>
-0

> <r_epik_Charging_Adjusted_Penalty>
0

> <i_epik_Tot_Q>
0

> <i_epik_Tot_abs_Q>
0

> <r_epik_Metal_State_Penalty>
-0

> <b_epik_Metal_Only>
0

> <s_lp_Force_Field>
OPLS_2005

> <r_lp_Energy>
52.7678

> <b_lp_Chiralities_Consistent>
1

> <s_lp_Variant>
AV-unprocessed.smi:2693-2

> <Gold.Version>
5.8.1

> <Gold.Id.Protein>
6NUR|6NUR_protein|mol2

> <Gold.PLP.Fitness>
36.5727

> <Gold.PLP.PLP>
-26.3563

> <Gold.PLP.part.hbond>
-2.5310

> <Gold.PLP.part.metal>
0.0000

> <Gold.PLP.part.buried>
-3.5195

> <Gold.PLP.part.nonpolar>
-20.3562

> <Gold.PLP.part.repulsive>
0.2331

> <Gold.PLP.ligand.clash>
0.0000

> <Gold.PLP.ligand.torsion>
0.8666

> <Gold.PLP.Chemscore.Hbond>
2.8940

> <Gold.PLP.Chemscore.CHOScore>
1.0000

> <Gold.PLP.Chemscore.Metal>
0.0000

> <Gold.Chemscore.Hbonds>
donor molecule, donor type, donor heavy atom, donor atom, acceptor molecule, acceptor atom, score
      L1  H     8    30       P1  7948  0.99
      L1  H    11    31       P1  7948  0.93
      P1  H  7989  7998       L1     5  0.86
      L1  C     6    29       P1  7957  1.00

> <Gold.PLP.Chemscore.Internal.Correction>
0.2675

> <Gold.Rescore>
     Score         DG    S(hbond)    S(metal)    S(lipo)     H(rot)  DE(clash)    DE(int)     intcor
     15.01     -16.97       2.07        0.00      61.05       1.00       0.05       1.91       ----

> <Gold.Chemscore.Fitness>
15.0056

> <Gold.Chemscore.DG>
-16.9654

> <Gold.Chemscore.ZeroCoef>
-5.4800

> <Gold.Chemscore.Hbond>
2.0668

> <Gold.Chemscore.Metal>
0.0000

> <Gold.Chemscore.Lipo>
61.0452

> <Gold.Chemscore.Internal_Hbond>
0.0000

> <Gold.Chemscore.DEClash>
0.0477

> <Gold.Chemscore.DEInternal>
1.9120

> <Gold.Chemscore.Rot>
1.0000

> <Gold.Chemscore.Internal.Correction>
   9.000000E+99

> <Gold.Chemscore.Hbonds>
donor molecule, donor type, donor heavy atom, donor atom, acceptor molecule, acceptor atom, score
      L1  H     8    30       P1  7948  0.87
      L1  H    11    31       P1  7948  0.86
      P1  H  7989  7998       L1     5  0.16

> <Gold.Chemscore.Hbond.Weighted>
-6.9031

> <Gold.Chemscore.Metal.Weighted>
-0.0000

> <Gold.Chemscore.Lipo.Weighted>
-7.1423

> <Gold.Chemscore.Internal_Hbond.Weighted>
0.0000

> <Gold.Chemscore.DEClash.Weighted>
0.0477

> <Gold.Chemscore.DEInternal.Weighted>
1.9120

> <Gold.Chemscore.Rot.Weighted>
2.5600

> <Gold.Chemscore.Internal.Correction.Weighted>
   9.000000E+99

> <Gold.Protein.RotatedTorsions>
[ 6907 6896 6895 6894 ] final   92.71 input  -60.11 | X-H torsion
[ 7974 7965 7964 7962 ] final -105.40 input  175.53 | X-H torsion
[ 8008 7997 7996 7995 ] final   17.09 input   59.86 | X-H torsion
[ 10167 10162 10161 10158 ] final -168.04 input  -65.29 | X-H torsion
[ 10718 10713 10712 10709 ] final  -11.00 input   66.30 | X-H torsion
[ 10763 10752 10751 10750 ] final  170.59 input  -60.55 | X-H torsion
[ 11005 11000 10999 10996 ] final  178.76 input  -57.11 | X-H torsion

> <Gold.Protein.ActiveResidues>
 VAL166  LYS551  ARG553  GLY616  TRP617  ASP618  TYR619  PRO620  LYS621  CYS622 
 ASP623  PHE694  ASN695  SER759  ASP760  ASP761  ALA762  ILE779  LEU786  VAL792 
 PHE793  MET794  SER795  GLU796  ALA797  LYS798  CYS799  TRP800  GLU811  SER814 

> <Gold.Protein.RotatedAtoms>
  152.5453  134.1460  159.8498 H   0  0  0  0  0  0  0  0  0  0  0  0  # atno 6907 bound_to 6896
  151.1491  133.4912  159.2603 H   0  0  0  0  0  0  0  0  0  0  0  0  # atno 6908 bound_to 6896
  151.1491  135.0229  159.8715 H   0  0  0  0  0  0  0  0  0  0  0  0  # atno 6909 bound_to 6896
  145.2309  140.9170  143.3205 H   0  0  0  0  0  0  0  0  0  0  0  0  # atno 7974 bound_to 7965
  154.8863  140.2980  155.5396 H   0  0  0  0  0  0  0  0  0  0  0  0  # atno 8008 bound_to 7997
  156.3021  140.2433  156.3807 H   0  0  0  0  0  0  0  0  0  0  0  0  # atno 8009 bound_to 7997
  154.8664  140.0403  157.1686 H   0  0  0  0  0  0  0  0  0  0  0  0  # atno 8010 bound_to 7997
  139.6011  144.1010  152.1743 H   0  0  0  0  0  0  0  0  0  0  0  0  # atno 10167 bound_to 10162
  156.6654  130.4994  149.6017 H   0  0  0  0  0  0  0  0  0  0  0  0  # atno 10718 bound_to 10713
  154.3998  135.2755  155.2103 H   0  0  0  0  0  0  0  0  0  0  0  0  # atno 10763 bound_to 10752
  154.4134  135.6017  153.5970 H   0  0  0  0  0  0  0  0  0  0  0  0  # atno 10764 bound_to 10752
  152.9831  135.5955  154.4264 H   0  0  0  0  0  0  0  0  0  0  0  0  # atno 10765 bound_to 10752
  140.3987  134.6797  157.4549 H   0  0  0  0  0  0  0  0  0  0  0  0  # atno 11005 bound_to 11000
  144.9677  139.3913  143.6324 LP  0  0  0  0  0  0  0  0  0  0  0  0  # atno 17320 bound_to 7965
  146.3353  139.8760  142.8832 LP  0  0  0  0  0  0  0  0  0  0  0  0  # atno 17321 bound_to 7965
  140.0606  144.5859  150.7266 LP  0  0  0  0  0  0  0  0  0  0  0  0  # atno 17342 bound_to 10162
  140.7250  143.2627  151.4151 LP  0  0  0  0  0  0  0  0  0  0  0  0  # atno 17343 bound_to 10162
  156.1979  130.6601  151.1134 LP  0  0  0  0  0  0  0  0  0  0  0  0  # atno 17370 bound_to 10713
  157.7095  131.0741  150.6550 LP  0  0  0  0  0  0  0  0  0  0  0  0  # atno 17371 bound_to 10713
  140.0353  134.6347  155.9052 LP  0  0  0  0  0  0  0  0  0  0  0  0  # atno 17394 bound_to 11000
  141.1865  133.6557  156.5241 LP  0  0  0  0  0  0  0  0  0  0  0  0  # atno 17395 bound_to 11000

$$$$
