AV-unprocessed.smi:1632|AV-procd|sdf|6528|dock7
  -GOLD-   22720 7203D 1   1.00000     0.00000
 Structure written by MMmdl.
 42 44  0  0  0  0  0  0  0  0  1 V2000
  145.7692  139.2527  153.3111 O   0  0  0  0  0  0  0  0  0  0  0  0
  146.9223  140.0435  153.1178 C   0  0  0  0  0  0  0  0  0  0  0  0
  147.0121  141.1399  154.1887 C   0  0  0  0  0  0  0  0  0  0  0  0
  148.4237  141.7319  154.3383 C   0  0  0  0  0  0  0  0  0  0  0  0
  149.4543  140.6950  154.6884 C   0  0  0  0  0  0  0  0  0  0  0  0
  149.4205  139.4880  154.1210 N   0  0  0  0  0  0  0  0  0  0  0  0
  150.4998  138.8458  154.6919 C   0  0  0  0  0  0  0  0  0  0  0  0
  151.0026  137.5402  154.4921 C   0  0  0  0  0  0  0  0  0  0  0  0
  152.1359  137.0954  155.2037 C   0  0  0  0  0  0  0  0  0  0  0  0
  152.7798  137.9478  156.1238 C   0  0  0  0  0  0  0  0  0  0  0  0
  152.2931  139.2515  156.3382 C   0  0  0  0  0  0  0  0  0  0  0  0
  151.1624  139.6916  155.6235 C   0  0  0  0  0  0  0  0  0  0  0  0
  150.4451  140.8848  155.6030 N   0  0  0  0  0  0  0  0  0  0  0  0
  150.7436  142.0477  156.4322 C   0  0  0  0  0  0  0  0  0  0  0  0
  150.7028  141.7324  157.9407 C   0  0  2  0  0  0  0  0  0  0  0  0
  149.3795  141.3622  158.2718 O   0  0  0  0  0  0  0  0  0  0  0  0
  151.2062  142.8830  158.8037 C   0  0  0  0  0  0  0  0  0  0  0  0
  150.5635  144.1403  158.7559 C   0  0  0  0  0  0  0  0  0  0  0  0
  151.0152  145.2030  159.5619 C   0  0  0  0  0  0  0  0  0  0  0  0
  152.1147  145.0168  160.4207 C   0  0  0  0  0  0  0  0  0  0  0  0
  152.7645  143.7687  160.4689 C   0  0  0  0  0  0  0  0  0  0  0  0
  152.3158  142.7048  159.6616 C   0  0  0  0  0  0  0  0  0  0  0  0
  152.9593  141.5138  159.7158 F   0  0  0  0  0  0  0  0  0  0  0  0
  145.0607  139.6251  152.8088 H   0  0  0  0  0  0  0  0  0  0  0  0
  147.7976  139.3959  153.1723 H   0  0  0  0  0  0  0  0  0  0  0  0
  146.9050  140.4762  152.1173 H   0  0  0  0  0  0  0  0  0  0  0  0
  146.2915  141.9298  153.9720 H   0  0  0  0  0  0  0  0  0  0  0  0
  146.7090  140.7127  155.1431 H   0  0  0  0  0  0  0  0  0  0  0  0
  148.6825  142.2479  153.4180 H   0  0  0  0  0  0  0  0  0  0  0  0
  148.4272  142.4917  155.1204 H   0  0  0  0  0  0  0  0  0  0  0  0
  150.5150  136.8799  153.7902 H   0  0  0  0  0  0  0  0  0  0  0  0
  152.5119  136.0956  155.0435 H   0  0  0  0  0  0  0  0  0  0  0  0
  153.6468  137.5997  156.6659 H   0  0  0  0  0  0  0  0  0  0  0  0
  152.7842  139.9057  157.0430 H   0  0  0  0  0  0  0  0  0  0  0  0
  151.6894  142.5017  156.1453 H   0  0  0  0  0  0  0  0  0  0  0  0
  149.9886  142.8018  156.2045 H   0  0  0  0  0  0  0  0  0  0  0  0
  151.3130  140.8496  158.1328 H   0  0  0  0  0  0  0  0  0  0  0  0
  148.9505  141.0531  157.4885 H   0  0  0  0  0  0  0  0  0  0  0  0
  149.7193  144.2937  158.0996 H   0  0  0  0  0  0  0  0  0  0  0  0
  150.5183  146.1611  159.5202 H   0  0  0  0  0  0  0  0  0  0  0  0
  152.4622  145.8315  161.0387 H   0  0  0  0  0  0  0  0  0  0  0  0
  153.6117  143.6276  161.1236 H   0  0  0  0  0  0  0  0  0  0  0  0
  1  2  1  0  0  0  0
  1 24  1  0  0  0  0
  2  3  1  0  0  0  0
  2 25  1  0  0  0  0
  2 26  1  0  0  0  0
  3  4  1  0  0  0  0
  3 27  1  0  0  0  0
  3 28  1  0  0  0  0
  4  5  1  0  0  0  0
  4 29  1  0  0  0  0
  4 30  1  0  0  0  0
  5 13  1  0  0  0  0
  5  6  2  0  0  0  0
  6  7  1  0  0  0  0
  7 12  2  0  0  0  0
  7  8  1  0  0  0  0
  8  9  2  0  0  0  0
  8 31  1  0  0  0  0
  9 10  1  0  0  0  0
  9 32  1  0  0  0  0
 10 11  2  0  0  0  0
 10 33  1  0  0  0  0
 11 12  1  0  0  0  0
 11 34  1  0  0  0  0
 12 13  1  0  0  0  0
 13 14  1  0  0  0  0
 14 15  1  0  0  0  0
 14 35  1  0  0  0  0
 14 36  1  0  0  0  0
 15 16  1  0  0  0  0
 15 17  1  0  0  0  0
 15 37  1  0  0  0  0
 16 38  1  0  0  0  0
 17 22  1  0  0  0  0
 17 18  2  0  0  0  0
 18 19  1  0  0  0  0
 18 39  1  0  0  0  0
 19 20  2  0  0  0  0
 19 40  1  0  0  0  0
 20 21  1  0  0  0  0
 20 41  1  0  0  0  0
 21 22  2  0  0  0  0
 21 42  1  0  0  0  0
 22 23  1  0  0  0  0
M  END
> <s_m_source_file>
AV-unprocessed.smi

> <i_m_source_file_index>
1632

> <i_lp_mmshare_version>
43012

> <i_f3d_flags>
0

> <s_epik_input>
W09IXVtDSDJdW0NIMl1bQ0gyXWMobjEpbihjKGMxMilbY0hdW2NIXVtjSF1bY0hdMilbQ0gyXVtDQEhdKFtPSF0pYzNbY0hdW2NIXVtjSF1bY0hdYzNG

> <s_epik_cmdline>
J2VwaWtfcHl0aG9uJywgJy1waCcsICc3LjAnLCAnLXRuJywgJzgnLCAnLW1hJywgJzIwMCcsICctbWV0YWxfYmluZGluZycsICctaW1hZScsICc8aW5maWxlLm1hZT4nLCAnLW9tYWUnLCAnPG91dGZpbGUubWFlPic=

> <r_epik_Ionization_Penalty>
0.182561

> <r_epik_Ionization_Penalty_Charging>
0

> <r_epik_Ionization_Penalty_Neutral>
0.182561

> <r_epik_State_Penalty>
0.172086

> <r_epik_Charging_Adjusted_Penalty>
0.172086

> <i_epik_Tot_Q>
0

> <i_epik_Tot_abs_Q>
0

> <r_epik_Metal_State_Penalty>
0.000199649

> <b_epik_Metal_Only>
0

> <s_lp_Force_Field>
OPLS_2005

> <r_lp_Energy>
12.9461

> <b_lp_Chiralities_Consistent>
1

> <s_lp_Variant>
AV-unprocessed.smi:1632-1

> <Gold.Version>
5.8.1

> <Gold.Id.Protein>
6NUR|6NUR_protein|mol2

> <Gold.PLP.Fitness>
52.2832

> <Gold.PLP.PLP>
-50.0375

> <Gold.PLP.part.hbond>
-1.0000

> <Gold.PLP.part.metal>
0.0000

> <Gold.PLP.part.buried>
-0.5111

> <Gold.PLP.part.nonpolar>
-49.6226

> <Gold.PLP.part.repulsive>
1.1251

> <Gold.PLP.ligand.clash>
0.0431

> <Gold.PLP.ligand.torsion>
0.3797

> <Gold.PLP.Chemscore.Hbond>
1.0000

> <Gold.PLP.Chemscore.CHOScore>
0.0000

> <Gold.PLP.Chemscore.Metal>
0.0000

> <Gold.Chemscore.Hbonds>
donor molecule, donor type, donor heavy atom, donor atom, acceptor molecule, acceptor atom, score
      L1  H     1    24       P1 10175  1.00

> <Gold.PLP.Chemscore.Internal.Correction>
0.0483

> <Gold.Rescore>
     Score         DG    S(hbond)    S(metal)    S(lipo)     H(rot)  DE(clash)    DE(int)     intcor
     13.40     -16.75       1.00        0.00     135.11       3.07       1.80       1.55       ----

> <Gold.Chemscore.Fitness>
13.4022

> <Gold.Chemscore.DG>
-16.7466

> <Gold.Chemscore.ZeroCoef>
-5.4800

> <Gold.Chemscore.Hbond>
0.9966

> <Gold.Chemscore.Metal>
0.0000

> <Gold.Chemscore.Lipo>
135.1103

> <Gold.Chemscore.Internal_Hbond>
0.0000

> <Gold.Chemscore.DEClash>
1.7987

> <Gold.Chemscore.DEInternal>
1.5457

> <Gold.Chemscore.Rot>
3.0741

> <Gold.Chemscore.Internal.Correction>
   9.000000E+99

> <Gold.Chemscore.Hbonds>
donor molecule, donor type, donor heavy atom, donor atom, acceptor molecule, acceptor atom, score
      L1  H     1    24       P1 10175  0.99

> <Gold.Chemscore.Hbond.Weighted>
-3.3286

> <Gold.Chemscore.Metal.Weighted>
-0.0000

> <Gold.Chemscore.Lipo.Weighted>
-15.8079

> <Gold.Chemscore.Internal_Hbond.Weighted>
0.0000

> <Gold.Chemscore.DEClash.Weighted>
1.7987

> <Gold.Chemscore.DEInternal.Weighted>
1.5457

> <Gold.Chemscore.Rot.Weighted>
7.8698

> <Gold.Chemscore.Internal.Correction.Weighted>
   9.000000E+99

> <Gold.Protein.RotatedTorsions>
[ 6907 6896 6895 6894 ] final -136.89 input  -60.11 | X-H torsion
[ 7974 7965 7964 7962 ] final -137.80 input  175.53 | X-H torsion
[ 8008 7997 7996 7995 ] final  -77.63 input   59.86 | X-H torsion
[ 10167 10162 10161 10158 ] final  133.99 input  -65.29 | X-H torsion
[ 10718 10713 10712 10709 ] final -127.94 input   66.30 | X-H torsion
[ 10763 10752 10751 10750 ] final  101.69 input  -60.55 | X-H torsion
[ 11005 11000 10999 10996 ] final  -33.38 input  -57.11 | X-H torsion

> <Gold.Protein.ActiveResidues>
 VAL166  LYS551  ARG553  GLY616  TRP617  ASP618  TYR619  PRO620  LYS621  CYS622 
 ASP623  PHE694  ASN695  SER759  ASP760  ASP761  ALA762  ILE779  LEU786  VAL792 
 PHE793  MET794  SER795  GLU796  ALA797  LYS798  CYS799  TRP800  GLU811  SER814 

> <Gold.Protein.RotatedAtoms>
  151.0156  133.5924  159.2677 H   0  0  0  0  0  0  0  0  0  0  0  0  # atno 6907 bound_to 6896
  151.3060  135.0780  159.9265 H   0  0  0  0  0  0  0  0  0  0  0  0  # atno 6908 bound_to 6896
  152.5310  133.9829  159.7869 H   0  0  0  0  0  0  0  0  0  0  0  0  # atno 6909 bound_to 6896
  144.8811  140.6509  143.5205 H   0  0  0  0  0  0  0  0  0  0  0  0  # atno 7974 bound_to 7965
  154.5614  140.0707  156.8824 H   0  0  0  0  0  0  0  0  0  0  0  0  # atno 8008 bound_to 7997
  155.2804  140.3371  155.4240 H   0  0  0  0  0  0  0  0  0  0  0  0  # atno 8009 bound_to 7997
  156.2045  140.1734  156.7815 H   0  0  0  0  0  0  0  0  0  0  0  0  # atno 8010 bound_to 7997
  139.5274  144.6589  151.5075 H   0  0  0  0  0  0  0  0  0  0  0  0  # atno 10167 bound_to 10162
  156.1904  130.6791  151.0417 H   0  0  0  0  0  0  0  0  0  0  0  0  # atno 10718 bound_to 10713
  153.3299  135.4036  155.1486 H   0  0  0  0  0  0  0  0  0  0  0  0  # atno 10763 bound_to 10752
  154.8620  135.3608  154.5485 H   0  0  0  0  0  0  0  0  0  0  0  0  # atno 10764 bound_to 10752
  153.5923  135.7073  153.5477 H   0  0  0  0  0  0  0  0  0  0  0  0  # atno 10765 bound_to 10752
  140.9630  133.7153  156.1399 H   0  0  0  0  0  0  0  0  0  0  0  0  # atno 11005 bound_to 11000
  145.3952  139.1608  143.4207 LP  0  0  0  0  0  0  0  0  0  0  0  0  # atno 17320 bound_to 7965
  146.2995  140.4045  142.8709 LP  0  0  0  0  0  0  0  0  0  0  0  0  # atno 17321 bound_to 7965
  140.6428  143.8855  150.6708 LP  0  0  0  0  0  0  0  0  0  0  0  0  # atno 17342 bound_to 10162
  140.2195  143.3820  152.1654 LP  0  0  0  0  0  0  0  0  0  0  0  0  # atno 17343 bound_to 10162
  157.6925  131.0805  150.7065 LP  0  0  0  0  0  0  0  0  0  0  0  0  # atno 17370 bound_to 10713
  156.7122  130.4655  149.5544 LP  0  0  0  0  0  0  0  0  0  0  0  0  # atno 17371 bound_to 10713
  140.7440  134.4118  157.5551 LP  0  0  0  0  0  0  0  0  0  0  0  0  # atno 17394 bound_to 11000
  139.8884  134.8856  156.2474 LP  0  0  0  0  0  0  0  0  0  0  0  0  # atno 17395 bound_to 11000

$$$$
