AV-unprocessed.smi:240|AV-procd|sdf|1831|dock1
  -GOLD-   2262020433D 1   1.00000     0.00000
 Structure written by MMmdl.
 55 59  0  0  0  0  0  0  0  0  1 V2000
  151.9907  137.0185  154.0855 O   0  0  0  0  0  0  0  0  0  0  0  0
  151.6069  137.9089  155.1132 C   0  0  1  0  0  0  0  0  0  0  0  0
  151.9407  139.3555  154.7514 C   0  0  0  0  0  0  0  0  0  0  0  0
  151.0210  140.1935  155.6451 C   0  0  0  0  0  0  0  0  0  0  0  0
  149.8118  139.3030  155.9757 C   0  0  0  0  0  0  0  0  0  0  0  0
  150.0857  137.9375  155.3158 C   0  0  2  0  0  0  0  0  0  0  0  0
  149.4676  136.6954  156.0271 C   0  0  1  0  0  0  0  0  0  0  0  0
  150.0174  136.4573  157.4570 C   0  0  0  0  0  0  0  0  0  0  0  0
  149.4209  135.2985  158.0284 O   0  0  0  0  0  0  0  0  0  0  0  0
  148.0129  135.4374  158.1595 C   0  0  0  0  0  0  0  0  0  0  0  0
  147.3985  135.6047  156.7640 C   0  0  0  0  0  0  0  0  0  0  0  0
  147.9992  136.7421  156.0770 N   0  0  0  0  0  0  0  0  0  0  0  0
  147.3469  136.9927  154.9190 C   0  0  0  0  0  0  0  0  0  0  0  0
  147.3225  138.2801  154.4948 N   0  0  0  0  0  0  0  0  0  0  0  0
  146.6995  138.5962  153.3556 C   0  0  0  0  0  0  0  0  0  0  0  0
  146.0454  137.7952  152.5116 N   0  0  0  0  0  0  0  0  0  0  0  0
  146.0562  136.5013  152.9439 C   0  0  0  0  0  0  0  0  0  0  0  0
  146.6791  136.0148  154.1272 C   0  0  0  0  0  0  0  0  0  0  0  0
  146.4824  134.6434  154.2357 N   0  0  0  0  0  0  0  0  0  0  0  0
  145.7901  134.3359  153.1733 C   0  0  0  0  0  0  0  0  0  0  0  0
  145.4783  135.3933  152.3484 N   0  0  0  0  0  0  0  0  0  0  0  0
  144.7161  135.3421  151.1097 C   0  0  0  0  0  0  0  0  0  0  0  0
  144.5993  133.9200  150.5110 C   0  0  1  0  0  0  0  0  0  0  0  0
  144.0117  134.0024  149.2237 O   0  0  0  0  0  0  0  0  0  0  0  0
  145.9485  133.2242  150.3766 C   0  0  0  0  0  0  0  0  0  0  0  0
  145.5844  131.7523  150.5145 C   0  0  0  0  0  0  0  0  0  0  0  0
  144.5946  131.7677  151.5286 O   0  0  0  0  0  0  0  0  0  0  0  0
  143.7802  132.9244  151.3596 C   0  0  0  0  0  0  0  0  0  0  0  0
  151.2975  136.9819  153.4441 H   0  0  0  0  0  0  0  0  0  0  0  0
  152.1289  137.6491  156.0332 H   0  0  0  0  0  0  0  0  0  0  0  0
  152.9956  139.5933  154.8923 H   0  0  0  0  0  0  0  0  0  0  0  0
  151.6956  139.5455  153.7050 H   0  0  0  0  0  0  0  0  0  0  0  0
  151.5411  140.4593  156.5662 H   0  0  0  0  0  0  0  0  0  0  0  0
  150.7255  141.1231  155.1577 H   0  0  0  0  0  0  0  0  0  0  0  0
  149.7050  139.2234  157.0564 H   0  0  0  0  0  0  0  0  0  0  0  0
  148.8844  139.7350  155.5979 H   0  0  0  0  0  0  0  0  0  0  0  0
  149.6655  138.0004  154.3106 H   0  0  0  0  0  0  0  0  0  0  0  0
  149.7441  135.8169  155.4443 H   0  0  0  0  0  0  0  0  0  0  0  0
  151.0925  136.2879  157.4390 H   0  0  0  0  0  0  0  0  0  0  0  0
  149.8406  137.3111  158.1111 H   0  0  0  0  0  0  0  0  0  0  0  0
  147.6102  134.5477  158.6438 H   0  0  0  0  0  0  0  0  0  0  0  0
  147.7722  136.2880  158.7993 H   0  0  0  0  0  0  0  0  0  0  0  0
  147.5581  134.6983  156.1778 H   0  0  0  0  0  0  0  0  0  0  0  0
  146.3202  135.7460  156.8521 H   0  0  0  0  0  0  0  0  0  0  0  0
  146.7301  139.6401  153.0804 H   0  0  0  0  0  0  0  0  0  0  0  0
  145.4832  133.3213  152.9649 H   0  0  0  0  0  0  0  0  0  0  0  0
  143.7235  135.7514  151.3014 H   0  0  0  0  0  0  0  0  0  0  0  0
  145.1895  136.0144  150.3928 H   0  0  0  0  0  0  0  0  0  0  0  0
  144.6074  134.4601  148.6506 H   0  0  0  0  0  0  0  0  0  0  0  0
  146.4706  133.4526  149.4464 H   0  0  0  0  0  0  0  0  0  0  0  0
  146.6039  133.5058  151.2019 H   0  0  0  0  0  0  0  0  0  0  0  0
  145.1563  131.3647  149.5889 H   0  0  0  0  0  0  0  0  0  0  0  0
  146.4352  131.1292  150.7909 H   0  0  0  0  0  0  0  0  0  0  0  0
  143.5455  133.3160  152.3488 H   0  0  0  0  0  0  0  0  0  0  0  0
  142.8367  132.6524  150.8834 H   0  0  0  0  0  0  0  0  0  0  0  0
  1  2  1  0  0  0  0
  1 29  1  0  0  0  0
  2  6  1  0  0  0  0
  2  3  1  0  0  0  0
  2 30  1  0  0  0  0
  3  4  1  0  0  0  0
  3 31  1  0  0  0  0
  3 32  1  0  0  0  0
  4  5  1  0  0  0  0
  4 33  1  0  0  0  0
  4 34  1  0  0  0  0
  5  6  1  0  0  0  0
  5 35  1  0  0  0  0
  5 36  1  0  0  0  0
  6  7  1  0  0  0  0
  6 37  1  0  0  0  0
  7 12  1  0  0  0  0
  7  8  1  0  0  0  0
  7 38  1  0  0  0  0
  8  9  1  0  0  0  0
  8 39  1  0  0  0  0
  8 40  1  0  0  0  0
  9 10  1  0  0  0  0
 10 11  1  0  0  0  0
 10 41  1  0  0  0  0
 10 42  1  0  0  0  0
 11 12  1  0  0  0  0
 11 43  1  0  0  0  0
 11 44  1  0  0  0  0
 12 13  1  0  0  0  0
 13 18  1  0  0  0  0
 13 14  2  0  0  0  0
 14 15  1  0  0  0  0
 15 16  2  0  0  0  0
 15 45  1  0  0  0  0
 16 17  1  0  0  0  0
 17 21  1  0  0  0  0
 17 18  2  0  0  0  0
 18 19  1  0  0  0  0
 19 20  2  0  0  0  0
 20 21  1  0  0  0  0
 20 46  1  0  0  0  0
 21 22  1  0  0  0  0
 22 23  1  0  0  0  0
 22 47  1  0  0  0  0
 22 48  1  0  0  0  0
 23 28  1  0  0  0  0
 23 24  1  0  0  0  0
 23 25  1  0  0  0  0
 24 49  1  0  0  0  0
 25 26  1  0  0  0  0
 25 50  1  0  0  0  0
 25 51  1  0  0  0  0
 26 27  1  0  0  0  0
 26 52  1  0  0  0  0
 26 53  1  0  0  0  0
 27 28  1  0  0  0  0
 28 54  1  0  0  0  0
 28 55  1  0  0  0  0
M  END
> <s_m_source_file>
AV-unprocessed.smi

> <i_m_source_file_index>
240

> <i_lp_mmshare_version>
43012

> <i_f3d_flags>
0

> <s_epik_input>
W09IXVtDQEBIXTFbQ0gyXVtDSDJdW0NIMl1bQ0BIXTFbQ0BASF0yW0NIMl1PW0NIMl1bQ0gyXU4yYyhuW2NIXW4zKWMoYzM0KW5bY0hdbjRbQ0gyXVtDQEBdNShbT0hdKVtDSDJdW0NIMl1PW0NIMl01

> <s_epik_cmdline>
J2VwaWtfcHl0aG9uJywgJy1waCcsICc3LjAnLCAnLXRuJywgJzgnLCAnLW1hJywgJzIwMCcsICctbWV0YWxfYmluZGluZycsICctaW1hZScsICc8aW5maWxlLm1hZT4nLCAnLW9tYWUnLCAnPG91dGZpbGUubWFlPic=

> <r_lp_tautomer_probability>
1

> <r_epik_Ionization_Penalty>
0.000130618

> <r_epik_Ionization_Penalty_Charging>
0

> <r_epik_Ionization_Penalty_Neutral>
0.000130618

> <r_epik_State_Penalty>
-0

> <r_epik_Charging_Adjusted_Penalty>
0

> <i_epik_Tot_Q>
0

> <i_epik_Tot_abs_Q>
0

> <r_epik_Metal_State_Penalty>
-0

> <b_epik_Metal_Only>
0

> <s_lp_Force_Field>
OPLS_2005

> <r_lp_Energy>
62.0257

> <b_lp_Chiralities_Consistent>
1

> <s_lp_Variant>
AV-unprocessed.smi:240-8

> <Gold.Version>
5.8.1

> <Gold.Id.Protein>
6NUR|6NUR_protein|mol2

> <Gold.PLP.Fitness>
43.3010

> <Gold.PLP.PLP>
-34.1907

> <Gold.PLP.part.hbond>
-4.8500

> <Gold.PLP.part.metal>
0.0000

> <Gold.PLP.part.buried>
-2.7591

> <Gold.PLP.part.nonpolar>
-26.6677

> <Gold.PLP.part.repulsive>
0.6481

> <Gold.PLP.ligand.clash>
0.0000

> <Gold.PLP.ligand.torsion>
0.9043

> <Gold.PLP.Chemscore.Hbond>
3.5650

> <Gold.PLP.Chemscore.CHOScore>
0.0000

> <Gold.PLP.Chemscore.Metal>
0.0000

> <Gold.Chemscore.Hbonds>
donor molecule, donor type, donor heavy atom, donor atom, acceptor molecule, acceptor atom, score
      L1  H     1    29       P1  7949  0.37
      L1  H    24    49       P1  7921  1.00
      P1  H  6896  6907       L1     9  0.86
      P1  H 10752 10765       L1     1  1.00

> <Gold.PLP.Chemscore.Internal.Correction>
0.2239

> <Gold.Rescore>
     Score         DG    S(hbond)    S(metal)    S(lipo)     H(rot)  DE(clash)    DE(int)     intcor
     11.46     -16.73       3.01        0.00      75.90       3.00       0.54       4.72       ----

> <Gold.Chemscore.Fitness>
11.4627

> <Gold.Chemscore.DG>
-16.7305

> <Gold.Chemscore.ZeroCoef>
-5.4800

> <Gold.Chemscore.Hbond>
3.0121

> <Gold.Chemscore.Metal>
0.0000

> <Gold.Chemscore.Lipo>
75.8970

> <Gold.Chemscore.Internal_Hbond>
0.0000

> <Gold.Chemscore.DEClash>
0.5441

> <Gold.Chemscore.DEInternal>
4.7238

> <Gold.Chemscore.Rot>
3.0039

> <Gold.Chemscore.Internal.Correction>
   9.000000E+99

> <Gold.Chemscore.Hbonds>
donor molecule, donor type, donor heavy atom, donor atom, acceptor molecule, acceptor atom, score
      L1  H     1    29       P1  7949  0.24
      L1  H    24    49       P1  7921  1.00
      P1  H  6896  6907       L1     9  0.68
      P1  H 10752 10765       L1     1  0.92

> <Gold.Chemscore.Hbond.Weighted>
-10.0605

> <Gold.Chemscore.Metal.Weighted>
-0.0000

> <Gold.Chemscore.Lipo.Weighted>
-8.8799

> <Gold.Chemscore.Internal_Hbond.Weighted>
0.0000

> <Gold.Chemscore.DEClash.Weighted>
0.5441

> <Gold.Chemscore.DEInternal.Weighted>
4.7238

> <Gold.Chemscore.Rot.Weighted>
7.6899

> <Gold.Chemscore.Internal.Correction.Weighted>
   9.000000E+99

> <Gold.Protein.RotatedTorsions>
[ 6907 6896 6895 6894 ] final  -82.59 input  -60.11 | X-H torsion
[ 7974 7965 7964 7962 ] final -136.54 input  175.53 | X-H torsion
[ 8008 7997 7996 7995 ] final  -16.07 input   59.86 | X-H torsion
[ 10167 10162 10161 10158 ] final -127.33 input  -65.29 | X-H torsion
[ 10718 10713 10712 10709 ] final -131.30 input   66.30 | X-H torsion
[ 10763 10752 10751 10750 ] final  158.12 input  -60.55 | X-H torsion
[ 11005 11000 10999 10996 ] final  165.28 input  -57.11 | X-H torsion

> <Gold.Protein.ActiveResidues>
 VAL166  LYS551  ARG553  GLY616  TRP617  ASP618  TYR619  PRO620  LYS621  CYS622 
 ASP623  PHE694  ASN695  SER759  ASP760  ASP761  ALA762  ILE779  LEU786  VAL792 
 PHE793  MET794  SER795  GLU796  ALA797  LYS798  CYS799  TRP800  GLU811  SER814 

> <Gold.Protein.RotatedAtoms>
  150.6895  134.3641  159.4962 H   0  0  0  0  0  0  0  0  0  0  0  0  # atno 6907 bound_to 6896
  152.1466  134.9019  160.0560 H   0  0  0  0  0  0  0  0  0  0  0  0  # atno 6908 bound_to 6896
  152.0132  133.3835  159.4265 H   0  0  0  0  0  0  0  0  0  0  0  0  # atno 6909 bound_to 6896
  144.8918  140.6652  143.5140 H   0  0  0  0  0  0  0  0  0  0  0  0  # atno 7974 bound_to 7965
  154.5081  140.2179  155.9211 H   0  0  0  0  0  0  0  0  0  0  0  0  # atno 8008 bound_to 7997
  156.1518  140.3160  155.8627 H   0  0  0  0  0  0  0  0  0  0  0  0  # atno 8009 bound_to 7997
  155.3923  140.0479  157.3031 H   0  0  0  0  0  0  0  0  0  0  0  0  # atno 8010 bound_to 7997
  139.9620  143.5939  152.2442 H   0  0  0  0  0  0  0  0  0  0  0  0  # atno 10167 bound_to 10162
  156.2231  130.6990  151.0777 H   0  0  0  0  0  0  0  0  0  0  0  0  # atno 10718 bound_to 10713
  154.2111  135.2786  155.2958 H   0  0  0  0  0  0  0  0  0  0  0  0  # atno 10763 bound_to 10752
  154.5778  135.5599  153.7159 H   0  0  0  0  0  0  0  0  0  0  0  0  # atno 10764 bound_to 10752
  153.0064  135.6337  154.2250 H   0  0  0  0  0  0  0  0  0  0  0  0  # atno 10765 bound_to 10752
  140.2545  134.7951  157.3533 H   0  0  0  0  0  0  0  0  0  0  0  0  # atno 11005 bound_to 11000
  145.3769  139.1645  143.4301 LP  0  0  0  0  0  0  0  0  0  0  0  0  # atno 17320 bound_to 7965
  146.3058  140.3847  142.8688 LP  0  0  0  0  0  0  0  0  0  0  0  0  # atno 17321 bound_to 7965
  139.6546  144.7662  151.2080 LP  0  0  0  0  0  0  0  0  0  0  0  0  # atno 17342 bound_to 10162
  140.7550  143.6106  150.8609 LP  0  0  0  0  0  0  0  0  0  0  0  0  # atno 17343 bound_to 10162
  157.7097  131.0740  150.6544 LP  0  0  0  0  0  0  0  0  0  0  0  0  # atno 17370 bound_to 10713
  156.6608  130.4511  149.5688 LP  0  0  0  0  0  0  0  0  0  0  0  0  # atno 17371 bound_to 10713
  140.1525  134.4831  155.7951 LP  0  0  0  0  0  0  0  0  0  0  0  0  # atno 17394 bound_to 11000
  141.2197  133.6868  156.7403 LP  0  0  0  0  0  0  0  0  0  0  0  0  # atno 17395 bound_to 11000

$$$$
