AV-unprocessed.smi:99|AV-procd|sdf|867|dock7
  -GOLD-   2262017323D 1   1.00000     0.00000
 Structure written by MMmdl.
 53 56  0  0  0  0  0  0  0  0  1 V2000
  148.6742  131.9151  153.1860 O   0  0  0  0  0  0  0  0  0  0  0  0
  147.9169  132.8874  153.1765 C   0  0  0  0  0  0  0  0  0  0  0  0
  148.1118  133.9950  153.9178 O   0  0  0  0  0  0  0  0  0  0  0  0
  148.9929  133.9789  155.0300 C   0  0  0  0  0  0  0  0  0  0  0  0
  148.7405  132.6995  155.8376 C   0  0  2  0  0  0  0  0  0  0  0  0
  147.5727  132.8434  156.6416 O   0  0  0  0  0  0  0  0  0  0  0  0
  147.6918  132.0790  157.8096 C   0  0  2  0  0  0  0  0  0  0  0  0
  147.5046  132.9788  159.0112 N   0  0  0  0  0  0  0  0  0  0  0  0
  147.2998  134.3462  158.8749 C   0  0  0  0  0  0  0  0  0  0  0  0
  147.1449  135.1786  159.9315 C   0  0  0  0  0  0  0  0  0  0  0  0
  147.1938  134.6617  161.2953 C   0  0  0  0  0  0  0  0  0  0  0  0
  147.0597  135.3358  162.3141 O   0  0  0  0  0  0  0  0  0  0  0  0
  147.4176  133.2849  161.3859 N   0  0  0  0  0  0  0  0  0  0  0  0
  147.5840  132.4179  160.3049 C   0  0  0  0  0  0  0  0  0  0  0  0
  147.7979  131.2225  160.5016 O   0  0  0  0  0  0  0  0  0  0  0  0
  149.0980  131.4574  157.8296 C   0  0  1  0  0  0  0  0  0  0  0  0
  149.0483  130.1147  157.3824 O   0  0  0  0  0  0  0  0  0  0  0  0
  149.8288  132.3666  156.8567 C   0  0  1  0  0  0  0  0  0  0  0  0
  150.9868  131.7438  156.3077 O   0  0  0  0  0  0  0  0  0  0  0  0
  152.2073  131.9246  156.8596 C   0  0  0  0  0  0  0  0  0  0  0  0
  152.3891  132.3768  157.9916 O   0  0  0  0  0  0  0  0  0  0  0  0
  153.3187  131.5560  155.9374 C   0  0  0  0  0  0  0  0  0  0  0  0
  153.0433  130.7442  154.8124 C   0  0  0  0  0  0  0  0  0  0  0  0
  154.0769  130.3558  153.9383 C   0  0  0  0  0  0  0  0  0  0  0  0
  155.3980  130.7765  154.1774 C   0  0  0  0  0  0  0  0  0  0  0  0
  155.6844  131.5866  155.2916 C   0  0  0  0  0  0  0  0  0  0  0  0
  154.6523  131.9752  156.1678 C   0  0  0  0  0  0  0  0  0  0  0  0
  146.6697  132.9544  152.3610 C   0  0  0  0  0  0  0  0  0  0  0  0
  145.9504  134.1701  152.2912 C   0  0  0  0  0  0  0  0  0  0  0  0
  144.7816  134.2682  151.5114 C   0  0  0  0  0  0  0  0  0  0  0  0
  144.3176  133.1518  150.7918 C   0  0  0  0  0  0  0  0  0  0  0  0
  145.0217  131.9355  150.8560 C   0  0  0  0  0  0  0  0  0  0  0  0
  146.1892  131.8351  151.6368 C   0  0  0  0  0  0  0  0  0  0  0  0
  147.4681  132.8850  162.3117 H   0  0  0  0  0  0  0  0  0  0  0  0
  150.0370  134.0195  154.7162 H   0  0  0  0  0  0  0  0  0  0  0  0
  148.7991  134.8595  155.6431 H   0  0  0  0  0  0  0  0  0  0  0  0
  148.5781  131.8532  155.1681 H   0  0  0  0  0  0  0  0  0  0  0  0
  146.8778  131.3519  157.8407 H   0  0  0  0  0  0  0  0  0  0  0  0
  147.2640  134.7869  157.8895 H   0  0  0  0  0  0  0  0  0  0  0  0
  146.9858  136.2346  159.7673 H   0  0  0  0  0  0  0  0  0  0  0  0
  149.5351  131.4821  158.8287 H   0  0  0  0  0  0  0  0  0  0  0  0
  149.8470  129.6829  157.6446 H   0  0  0  0  0  0  0  0  0  0  0  0
  150.0871  133.2783  157.3972 H   0  0  0  0  0  0  0  0  0  0  0  0
  152.0382  130.4018  154.6126 H   0  0  0  0  0  0  0  0  0  0  0  0
  153.8556  129.7307  153.0859 H   0  0  0  0  0  0  0  0  0  0  0  0
  156.1908  130.4774  153.5077 H   0  0  0  0  0  0  0  0  0  0  0  0
  156.6985  131.9085  155.4770 H   0  0  0  0  0  0  0  0  0  0  0  0
  154.9075  132.5924  157.0168 H   0  0  0  0  0  0  0  0  0  0  0  0
  146.2905  135.0425  152.8305 H   0  0  0  0  0  0  0  0  0  0  0  0
  144.2421  135.2027  151.4637 H   0  0  0  0  0  0  0  0  0  0  0  0
  143.4232  133.2285  150.1911 H   0  0  0  0  0  0  0  0  0  0  0  0
  144.6693  131.0782  150.3013 H   0  0  0  0  0  0  0  0  0  0  0  0
  146.7088  130.8882  151.6575 H   0  0  0  0  0  0  0  0  0  0  0  0
  1  2  2  0  0  0  0
  2  3  1  0  0  0  0
  2 28  1  0  0  0  0
  3  4  1  0  0  0  0
  4  5  1  0  0  0  0
  4 35  1  0  0  0  0
  4 36  1  0  0  0  0
  5 18  1  0  0  0  0
  5  6  1  0  0  0  0
  5 37  1  0  0  0  0
  6  7  1  0  0  0  0
  7  8  1  0  0  0  0
  7 16  1  0  0  0  0
  7 38  1  0  0  0  0
  8 14  1  0  0  0  0
  8  9  1  0  0  0  0
  9 10  2  0  0  0  0
  9 39  1  0  0  0  0
 10 11  1  0  0  0  0
 10 40  1  0  0  0  0
 11 12  2  0  0  0  0
 11 13  1  0  0  0  0
 13 34  1  0  0  0  0
 13 14  1  0  0  0  0
 14 15  2  0  0  0  0
 16 17  1  0  0  0  0
 16 18  1  0  0  0  0
 16 41  1  0  0  0  0
 17 42  1  0  0  0  0
 18 19  1  0  0  0  0
 18 43  1  0  0  0  0
 19 20  1  0  0  0  0
 20 21  2  0  0  0  0
 20 22  1  0  0  0  0
 22 27  1  0  0  0  0
 22 23  2  0  0  0  0
 23 24  1  0  0  0  0
 23 44  1  0  0  0  0
 24 25  2  0  0  0  0
 24 45  1  0  0  0  0
 25 26  1  0  0  0  0
 25 46  1  0  0  0  0
 26 27  2  0  0  0  0
 26 47  1  0  0  0  0
 27 48  1  0  0  0  0
 28 33  1  0  0  0  0
 28 29  2  0  0  0  0
 29 30  1  0  0  0  0
 29 49  1  0  0  0  0
 30 31  2  0  0  0  0
 30 50  1  0  0  0  0
 31 32  1  0  0  0  0
 31 51  1  0  0  0  0
 32 33  2  0  0  0  0
 32 52  1  0  0  0  0
 33 53  1  0  0  0  0
M  END
> <s_m_source_file>
AV-unprocessed.smi

> <i_m_source_file_index>
99

> <i_lp_mmshare_version>
43012

> <i_f3d_flags>
0

> <s_epik_input>
W2NIXTFbY0hdW2NIXVtjSF1bY0hdYzFDKD1PKU9bQ0gyXVtDQEBIXTJPW0NAQEhdKG4zW2NIXVtjSF1jKD1PKVtuSF1jMz1PKVtDQEBIXShbT0hdKVtDQEhdMk9DKD1PKWM0W2NIXVtjSF1bY0hdW2NIXVtjSF00

> <s_epik_cmdline>
J2VwaWtfcHl0aG9uJywgJy1waCcsICc3LjAnLCAnLXRuJywgJzgnLCAnLW1hJywgJzIwMCcsICctbWV0YWxfYmluZGluZycsICctaW1hZScsICc8aW5maWxlLm1hZT4nLCAnLW9tYWUnLCAnPG91dGZpbGUubWFlPic=

> <r_lp_tautomer_probability>
1

> <r_epik_Ionization_Penalty>
0.00454555

> <r_epik_Ionization_Penalty_Charging>
0.0045191

> <r_epik_Ionization_Penalty_Neutral>
2.64449e-05

> <r_epik_State_Penalty>
-0

> <r_epik_Charging_Adjusted_Penalty>
0.0045191

> <i_epik_Tot_Q>
0

> <i_epik_Tot_abs_Q>
0

> <r_epik_Metal_State_Penalty>
1.27877

> <b_epik_Metal_Only>
0

> <s_epik_Chemistry_Notes>
This compound has an ester and may undergo hydrolysis at high or low pH. This compound contains an acetal/aminal-like group ( X-CH(R)-Y where X, Y are N, S, or O) that may be acid/base labile, releasing an aldehyde.

> <s_lp_Force_Field>
OPLS_2005

> <r_lp_Energy>
37.3594

> <b_lp_Chiralities_Consistent>
1

> <s_lp_Variant>
AV-unprocessed.smi:99-3

> <Gold.Version>
5.8.1

> <Gold.Id.Protein>
6NUR|6NUR_protein|mol2

> <Gold.PLP.Fitness>
50.7422

> <Gold.PLP.PLP>
-44.5539

> <Gold.PLP.part.hbond>
-3.0000

> <Gold.PLP.part.metal>
0.0000

> <Gold.PLP.part.buried>
-7.0723

> <Gold.PLP.part.nonpolar>
-36.0344

> <Gold.PLP.part.repulsive>
2.3952

> <Gold.PLP.ligand.clash>
0.0000

> <Gold.PLP.ligand.torsion>
1.2309

> <Gold.PLP.Chemscore.Hbond>
2.8000

> <Gold.PLP.Chemscore.CHOScore>
0.0000

> <Gold.PLP.Chemscore.Metal>
0.0000

> <Gold.Chemscore.Hbonds>
donor molecule, donor type, donor heavy atom, donor atom, acceptor molecule, acceptor atom, score
      P1  H  6896  6908       L1    21  1.00

> <Gold.PLP.Chemscore.Internal.Correction>
0.2501

> <Gold.Rescore>
     Score         DG    S(hbond)    S(metal)    S(lipo)     H(rot)  DE(clash)    DE(int)     intcor
     12.09     -17.30       2.74        0.00      92.53       3.19       1.31       3.90       ----

> <Gold.Chemscore.Fitness>
12.0927

> <Gold.Chemscore.DG>
-17.3041

> <Gold.Chemscore.ZeroCoef>
-5.4800

> <Gold.Chemscore.Hbond>
2.7440

> <Gold.Chemscore.Metal>
0.0000

> <Gold.Chemscore.Lipo>
92.5314

> <Gold.Chemscore.Internal_Hbond>
0.0000

> <Gold.Chemscore.DEClash>
1.3116

> <Gold.Chemscore.DEInternal>
3.8997

> <Gold.Chemscore.Rot>
3.1903

> <Gold.Chemscore.Internal.Correction>
   9.000000E+99

> <Gold.Chemscore.Hbonds>
donor molecule, donor type, donor heavy atom, donor atom, acceptor molecule, acceptor atom, score
      P1  H  6896  6908       L1    21  0.99

> <Gold.Chemscore.Hbond.Weighted>
-9.1650

> <Gold.Chemscore.Metal.Weighted>
-0.0000

> <Gold.Chemscore.Lipo.Weighted>
-10.8262

> <Gold.Chemscore.Internal_Hbond.Weighted>
0.0000

> <Gold.Chemscore.DEClash.Weighted>
1.3116

> <Gold.Chemscore.DEInternal.Weighted>
3.8997

> <Gold.Chemscore.Rot.Weighted>
8.1671

> <Gold.Chemscore.Internal.Correction.Weighted>
   9.000000E+99

> <Gold.Protein.RotatedTorsions>
[ 6907 6896 6895 6894 ] final   38.73 input  -60.11 | X-H torsion
[ 7974 7965 7964 7962 ] final  -11.26 input  175.53 | X-H torsion
[ 8008 7997 7996 7995 ] final  -14.33 input   59.86 | X-H torsion
[ 10167 10162 10161 10158 ] final    8.29 input  -65.29 | X-H torsion
[ 10718 10713 10712 10709 ] final -106.28 input   66.30 | X-H torsion
[ 10763 10752 10751 10750 ] final -151.69 input  -60.55 | X-H torsion
[ 11005 11000 10999 10996 ] final   -0.01 input  -57.11 | X-H torsion

> <Gold.Protein.ActiveResidues>
 VAL166  LYS551  ARG553  GLY616  TRP617  ASP618  TYR619  PRO620  LYS621  CYS622 
 ASP623  PHE694  ASN695  SER759  ASP760  ASP761  ALA762  ILE779  LEU786  VAL792 
 PHE793  MET794  SER795  GLU796  ALA797  LYS798  CYS799  TRP800  GLU811  SER814 

> <Gold.Protein.RotatedAtoms>
  152.1603  134.8917  160.0541 H   0  0  0  0  0  0  0  0  0  0  0  0  # atno 6907 bound_to 6896
  151.9916  133.3788  159.4154 H   0  0  0  0  0  0  0  0  0  0  0  0  # atno 6908 bound_to 6896
  150.6887  134.3853  159.5096 H   0  0  0  0  0  0  0  0  0  0  0  0  # atno 6909 bound_to 6896
  146.2193  140.2885  142.8367 H   0  0  0  0  0  0  0  0  0  0  0  0  # atno 7974 bound_to 7965
  154.5219  140.2226  155.8960 H   0  0  0  0  0  0  0  0  0  0  0  0  # atno 8008 bound_to 7997
  156.1671  140.3130  155.8873 H   0  0  0  0  0  0  0  0  0  0  0  0  # atno 8009 bound_to 7997
  155.3634  140.0462  157.3037 H   0  0  0  0  0  0  0  0  0  0  0  0  # atno 8010 bound_to 7997
  140.6322  143.7967  150.7311 H   0  0  0  0  0  0  0  0  0  0  0  0  # atno 10167 bound_to 10162
  156.0383  130.5605  150.7659 H   0  0  0  0  0  0  0  0  0  0  0  0  # atno 10718 bound_to 10713
  154.8042  135.3254  154.7475 H   0  0  0  0  0  0  0  0  0  0  0  0  # atno 10763 bound_to 10752
  153.8136  135.6893  153.4841 H   0  0  0  0  0  0  0  0  0  0  0  0  # atno 10764 bound_to 10752
  153.1776  135.4599  154.9930 H   0  0  0  0  0  0  0  0  0  0  0  0  # atno 10765 bound_to 10752
  140.6315  133.9570  155.8277 H   0  0  0  0  0  0  0  0  0  0  0  0  # atno 11005 bound_to 11000
  144.9144  140.7795  143.5787 LP  0  0  0  0  0  0  0  0  0  0  0  0  # atno 17320 bound_to 7965
  145.2818  139.1915  143.4787 LP  0  0  0  0  0  0  0  0  0  0  0  0  # atno 17321 bound_to 7965
  140.1580  143.4300  152.2086 LP  0  0  0  0  0  0  0  0  0  0  0  0  # atno 17342 bound_to 10162
  139.5535  144.7356  151.4362 LP  0  0  0  0  0  0  0  0  0  0  0  0  # atno 17343 bound_to 10162
  157.5166  131.0929  151.0132 LP  0  0  0  0  0  0  0  0  0  0  0  0  # atno 17370 bound_to 10713
  157.0474  130.5773  149.5365 LP  0  0  0  0  0  0  0  0  0  0  0  0  # atno 17371 bound_to 10713
  141.0672  134.0260  157.3578 LP  0  0  0  0  0  0  0  0  0  0  0  0  # atno 17394 bound_to 11000
  139.9114  135.0190  156.7707 LP  0  0  0  0  0  0  0  0  0  0  0  0  # atno 17395 bound_to 11000

$$$$
