AV-unprocessed.smi:2664|AV-procd|sdf|10328|dock3
  -GOLD-   2272014343D 1   1.00000     0.00000
 Structure written by MMmdl.
 44 45  0  0  0  0  0  0  0  0  2 V2000
  145.2841  129.1073  152.1867 O   0  0  0  0  0  0  0  0  0  0  0  0
  146.3288  129.5644  151.7246 C   0  0  0  0  0  0  0  0  0  0  0  0
  146.4178  130.6523  150.9399 N   0  0  0  0  0  0  0  0  0  0  0  0
  145.3813  131.5288  150.5172 C   0  0  0  0  0  0  0  0  0  0  0  0
  144.3556  131.8211  151.4436 C   0  0  0  0  0  0  0  0  0  0  0  0
  143.2966  132.6710  151.0645 C   0  0  0  0  0  0  0  0  0  0  0  0
  143.2651  133.1915  149.8191 N   0  3  0  0  0  0  0  0  0  0  0  0
  144.2144  132.9310  148.8950 C   0  0  0  0  0  0  0  0  0  0  0  0
  145.2973  132.0871  149.2159 C   0  0  0  0  0  0  0  0  0  0  0  0
  147.5369  129.0177  151.9299 N   0  0  0  0  0  0  0  0  0  0  0  0
  147.8199  127.8292  152.7401 C   0  0  2  0  0  0  0  0  0  0  0  0
  148.2169  128.2788  154.1693 C   0  0  0  0  0  0  0  0  0  0  0  0
  147.1096  129.0007  154.9607 C   0  0  0  0  0  0  0  0  0  0  0  0
  145.8764  128.3287  154.8153 O   0  0  0  0  0  0  0  0  0  0  0  0
  148.8998  126.9519  152.0421 C   0  0  0  0  0  0  0  0  0  0  0  0
  148.5328  126.6268  150.5705 C   0  0  0  0  0  0  0  0  0  0  0  0
  149.5945  125.7567  149.8791 C   0  0  0  0  0  0  0  0  0  0  0  0
  149.8391  124.4561  150.6534 C   0  0  0  0  0  0  0  0  0  0  0  0
  150.2287  124.7583  152.1053 C   0  0  0  0  0  0  0  0  0  0  0  0
  149.1708  125.6295  152.8018 C   0  0  0  0  0  0  0  0  0  0  0  0
  147.3336  130.8518  150.5647 H   0  0  0  0  0  0  0  0  0  0  0  0
  144.3795  131.4036  152.4399 H   0  0  0  0  0  0  0  0  0  0  0  0
  142.4792  132.9464  151.7149 H   0  0  0  0  0  0  0  0  0  0  0  0
  144.0776  133.3967  147.9298 H   0  0  0  0  0  0  0  0  0  0  0  0
  146.0323  131.8770  148.4542 H   0  0  0  0  0  0  0  0  0  0  0  0
  148.3342  129.4626  151.4991 H   0  0  0  0  0  0  0  0  0  0  0  0
  146.9177  127.2213  152.8267 H   0  0  0  0  0  0  0  0  0  0  0  0
  148.5334  127.4217  154.7619 H   0  0  0  0  0  0  0  0  0  0  0  0
  149.0850  128.9362  154.1065 H   0  0  0  0  0  0  0  0  0  0  0  0
  147.3652  129.0187  156.0204 H   0  0  0  0  0  0  0  0  0  0  0  0
  146.9994  130.0388  154.6476 H   0  0  0  0  0  0  0  0  0  0  0  0
  145.1804  128.9678  154.8312 H   0  0  0  0  0  0  0  0  0  0  0  0
  149.8307  127.5213  152.0283 H   0  0  0  0  0  0  0  0  0  0  0  0
  147.5687  126.1171  150.5381 H   0  0  0  0  0  0  0  0  0  0  0  0
  148.4147  127.5404  149.9883 H   0  0  0  0  0  0  0  0  0  0  0  0
  149.2810  125.5278  148.8602 H   0  0  0  0  0  0  0  0  0  0  0  0
  150.5279  126.3151  149.7974 H   0  0  0  0  0  0  0  0  0  0  0  0
  148.9393  123.8397  150.6334 H   0  0  0  0  0  0  0  0  0  0  0  0
  150.6251  123.8757  150.1694 H   0  0  0  0  0  0  0  0  0  0  0  0
  150.3614  123.8259  152.6549 H   0  0  0  0  0  0  0  0  0  0  0  0
  151.1923  125.2685  152.1263 H   0  0  0  0  0  0  0  0  0  0  0  0
  149.5214  125.8270  153.8134 H   0  0  0  0  0  0  0  0  0  0  0  0
  148.2425  125.0651  152.9003 H   0  0  0  0  0  0  0  0  0  0  0  0
  142.4892  133.8033  149.5639 H   0  0  0  0  0  0  0  0  0  0  0  0
  1  2  2  0  0  0  0
  2  3  1  0  0  0  0
  2 10  1  0  0  0  0
  3  4  1  0  0  0  0
  3 21  1  0  0  0  0
  4  9  1  0  0  0  0
  4  5  2  0  0  0  0
  5  6  1  0  0  0  0
  5 22  1  0  0  0  0
  6  7  2  0  0  0  0
  6 23  1  0  0  0  0
  7  8  1  0  0  0  0
  7 44  1  0  0  0  0
  8  9  2  0  0  0  0
  8 24  1  0  0  0  0
  9 25  1  0  0  0  0
 10 11  1  0  0  0  0
 10 26  1  0  0  0  0
 11 12  1  0  0  0  0
 11 15  1  0  0  0  0
 11 27  1  0  0  0  0
 12 13  1  0  0  0  0
 12 28  1  0  0  0  0
 12 29  1  0  0  0  0
 13 14  1  0  0  0  0
 13 30  1  0  0  0  0
 13 31  1  0  0  0  0
 14 32  1  0  0  0  0
 15 20  1  0  0  0  0
 15 16  1  0  0  0  0
 15 33  1  0  0  0  0
 16 17  1  0  0  0  0
 16 34  1  0  0  0  0
 16 35  1  0  0  0  0
 17 18  1  0  0  0  0
 17 36  1  0  0  0  0
 17 37  1  0  0  0  0
 18 19  1  0  0  0  0
 18 38  1  0  0  0  0
 18 39  1  0  0  0  0
 19 20  1  0  0  0  0
 19 40  1  0  0  0  0
 19 41  1  0  0  0  0
 20 42  1  0  0  0  0
 20 43  1  0  0  0  0
M  CHG  1   7   1
M  END
> <s_m_source_file>
AV-unprocessed.smi

> <i_m_source_file_index>
2664

> <i_lp_mmshare_version>
43012

> <i_f3d_flags>
0

> <s_epik_input>
W2NIXTFbY0hdbltjSF1bY0hdYzFbTkhdQyg9TylbTkhdW0NASF0oW0NIMl1bQ0gyXVtPSF0pW0NIXTJbQ0gyXVtDSDJdW0NIMl1bQ0gyXVtDSDJdMg==

> <s_epik_cmdline>
J2VwaWtfcHl0aG9uJywgJy1waCcsICc3LjAnLCAnLXRuJywgJzgnLCAnLW1hJywgJzIwMCcsICctbWV0YWxfYmluZGluZycsICctaW1hZScsICc8aW5maWxlLm1hZT4nLCAnLW9tYWUnLCAnPG91dGZpbGUubWFlPic=

> <r_epik_Ionization_Penalty>
1.0085

> <r_epik_Ionization_Penalty_Charging>
1.00848

> <r_epik_Ionization_Penalty_Neutral>
2.14516e-05

> <r_epik_State_Penalty>
1.05769

> <r_epik_Charging_Adjusted_Penalty>
2.06617

> <i_epik_Tot_Q>
1

> <i_epik_Tot_abs_Q>
1

> <r_epik_Metal_State_Penalty>
1.15842

> <b_epik_Metal_Only>
0

> <s_lp_Force_Field>
OPLS_2005

> <r_lp_Energy>
27.8621

> <b_lp_Chiralities_Consistent>
1

> <s_lp_Variant>
AV-unprocessed.smi:2664-3

> <Gold.Version>
5.8.1

> <Gold.Id.Protein>
6NUR|6NUR_protein|mol2

> <Gold.PLP.Fitness>
51.2716

> <Gold.PLP.PLP>
-37.6851

> <Gold.PLP.part.hbond>
-4.0000

> <Gold.PLP.part.metal>
0.0000

> <Gold.PLP.part.buried>
-3.6068

> <Gold.PLP.part.nonpolar>
-30.0985

> <Gold.PLP.part.repulsive>
0.3420

> <Gold.PLP.ligand.clash>
0.0000

> <Gold.PLP.ligand.torsion>
0.7105

> <Gold.PLP.Chemscore.Hbond>
4.9760

> <Gold.PLP.Chemscore.CHOScore>
0.0000

> <Gold.PLP.Chemscore.Metal>
0.0000

> <Gold.Chemscore.Hbonds>
donor molecule, donor type, donor heavy atom, donor atom, acceptor molecule, acceptor atom, score
      L1  H     3    21       P1 10747  1.00
      L1  H     7    44       P1 10186  2.00
      L1  H    10    26       P1 10747  0.96
      L1  H    14    32       P1 10956  1.00

> <Gold.PLP.Chemscore.Internal.Correction>
0.0795

> <Gold.Rescore>
     Score         DG    S(hbond)    S(metal)    S(lipo)     H(rot)  DE(clash)    DE(int)     intcor
     20.94     -22.98       3.47        0.00     100.24       2.27       0.26       1.78       ----

> <Gold.Chemscore.Fitness>
20.9355

> <Gold.Chemscore.DG>
-22.9807

> <Gold.Chemscore.ZeroCoef>
-5.4800

> <Gold.Chemscore.Hbond>
3.4705

> <Gold.Chemscore.Metal>
0.0000

> <Gold.Chemscore.Lipo>
100.2446

> <Gold.Chemscore.Internal_Hbond>
0.0000

> <Gold.Chemscore.DEClash>
0.2641

> <Gold.Chemscore.DEInternal>
1.7811

> <Gold.Chemscore.Rot>
2.2731

> <Gold.Chemscore.Internal.Correction>
   9.000000E+99

> <Gold.Chemscore.Hbonds>
donor molecule, donor type, donor heavy atom, donor atom, acceptor molecule, acceptor atom, score
      L1  H     3    21       P1 10747  1.00
      L1  H     7    44       P1 10186  0.98
      L1  H    10    26       P1 10747  0.28
      L1  H    14    32       P1 10956  0.95

> <Gold.Chemscore.Hbond.Weighted>
-11.5913

> <Gold.Chemscore.Metal.Weighted>
-0.0000

> <Gold.Chemscore.Lipo.Weighted>
-11.7286

> <Gold.Chemscore.Internal_Hbond.Weighted>
0.0000

> <Gold.Chemscore.DEClash.Weighted>
0.2641

> <Gold.Chemscore.DEInternal.Weighted>
1.7811

> <Gold.Chemscore.Rot.Weighted>
5.8192

> <Gold.Chemscore.Internal.Correction.Weighted>
   9.000000E+99

> <Gold.Protein.RotatedTorsions>
[ 6907 6896 6895 6894 ] final   90.45 input  -60.11 | X-H torsion
[ 7974 7965 7964 7962 ] final  -16.19 input  175.53 | X-H torsion
[ 8008 7997 7996 7995 ] final  178.26 input   59.86 | X-H torsion
[ 10167 10162 10161 10158 ] final   19.24 input  -65.29 | X-H torsion
[ 10718 10713 10712 10709 ] final   -6.55 input   66.30 | X-H torsion
[ 10763 10752 10751 10750 ] final   19.84 input  -60.55 | X-H torsion
[ 11005 11000 10999 10996 ] final  113.64 input  -57.11 | X-H torsion

> <Gold.Protein.ActiveResidues>
 VAL166  LYS551  ARG553  GLY616  TRP617  ASP618  TYR619  PRO620  LYS621  CYS622 
 ASP623  PHE694  ASN695  SER759  ASP760  ASP761  ALA762  ILE779  LEU786  VAL792 
 PHE793  MET794  SER795  GLU796  ALA797  LYS798  CYS799  TRP800  GLU811  SER814 

> <Gold.Protein.RotatedAtoms>
  152.5444  134.1809  159.8634 H   0  0  0  0  0  0  0  0  0  0  0  0  # atno 6907 bound_to 6896
  151.1811  133.4717  159.2601 H   0  0  0  0  0  0  0  0  0  0  0  0  # atno 6908 bound_to 6896
  151.1177  135.0074  159.8579 H   0  0  0  0  0  0  0  0  0  0  0  0  # atno 6909 bound_to 6896
  146.1999  140.3601  142.8427 H   0  0  0  0  0  0  0  0  0  0  0  0  # atno 7974 bound_to 7965
  156.0566  140.1338  156.9989 H   0  0  0  0  0  0  0  0  0  0  0  0  # atno 8008 bound_to 7997
  154.4461  140.1000  156.6526 H   0  0  0  0  0  0  0  0  0  0  0  0  # atno 8009 bound_to 7997
  155.5442  140.3461  155.4456 H   0  0  0  0  0  0  0  0  0  0  0  0  # atno 8010 bound_to 7997
  140.5593  143.9366  150.6631 H   0  0  0  0  0  0  0  0  0  0  0  0  # atno 10167 bound_to 10162
  156.7302  130.5177  149.5847 H   0  0  0  0  0  0  0  0  0  0  0  0  # atno 10718 bound_to 10713
  153.1128  135.6701  153.9470 H   0  0  0  0  0  0  0  0  0  0  0  0  # atno 10763 bound_to 10752
  153.9009  135.3036  155.3450 H   0  0  0  0  0  0  0  0  0  0  0  0  # atno 10764 bound_to 10752
  154.7547  135.5018  153.9430 H   0  0  0  0  0  0  0  0  0  0  0  0  # atno 10765 bound_to 10752
  139.8958  134.9553  156.6770 H   0  0  0  0  0  0  0  0  0  0  0  0  # atno 11005 bound_to 11000
  144.8660  140.7206  143.6077 LP  0  0  0  0  0  0  0  0  0  0  0  0  # atno 17320 bound_to 7965
  145.3520  139.1704  143.4429 LP  0  0  0  0  0  0  0  0  0  0  0  0  # atno 17321 bound_to 7965
  140.2812  143.3388  152.1149 LP  0  0  0  0  0  0  0  0  0  0  0  0  # atno 17342 bound_to 10162
  139.5063  144.6810  151.6007 LP  0  0  0  0  0  0  0  0  0  0  0  0  # atno 17343 bound_to 10162
  156.1534  130.6325  151.0626 LP  0  0  0  0  0  0  0  0  0  0  0  0  # atno 17370 bound_to 10713
  157.6862  131.0824  150.7236 LP  0  0  0  0  0  0  0  0  0  0  0  0  # atno 17371 bound_to 10713
  140.7329  133.9044  155.8223 LP  0  0  0  0  0  0  0  0  0  0  0  0  # atno 17394 bound_to 11000
  141.0139  134.0982  157.4192 LP  0  0  0  0  0  0  0  0  0  0  0  0  # atno 17395 bound_to 11000

$$$$
