AV-unprocessed.smi:2746|AV-procd|sdf|10573|dock5
  -GOLD-   2272015 23D 1   1.00000     0.00000
 Structure written by MMmdl.
 39 40  0  0  0  0  0  0  0  0  2 V2000
  142.0541  135.4954  153.9027 C   0  0  0  0  0  0  0  0  0  0  0  0
  143.0839  136.3581  153.8528 C   0  0  0  0  0  0  0  0  0  0  0  0
  143.7750  136.8854  152.6014 C   0  0  2  0  0  0  0  0  0  0  0  0
  144.4646  135.7494  151.8348 C   0  0  0  0  0  0  0  0  0  0  0  0
  144.7520  137.9331  152.8972 N   0  0  0  0  0  0  0  0  0  0  0  0
  145.8991  137.7708  153.5775 C   0  0  0  0  0  0  0  0  0  0  0  0
  146.2495  136.7083  154.0914 O   0  0  0  0  0  0  0  0  0  0  0  0
  146.7354  139.0062  153.7337 C   0  0  0  0  0  0  0  0  0  0  0  0
  148.1003  138.9552  154.1039 C   0  0  0  0  0  0  0  0  0  0  0  0
  148.8262  140.1587  154.2678 C   0  0  0  0  0  0  0  0  0  0  0  0
  150.1787  140.1628  154.6345 N   0  0  0  0  0  0  0  0  0  0  0  0
  150.7829  138.8364  154.6290 C   0  0  0  0  0  0  0  0  0  0  0  0
  152.2905  138.9444  154.9166 C   0  0  0  0  0  0  0  0  0  0  0  0
  152.4922  139.6278  156.1504 O   0  0  0  0  0  0  0  0  0  0  0  0
  151.9664  140.9518  156.1211 C   0  0  0  0  0  0  0  0  0  0  0  0
  150.4504  140.8976  155.8643 C   0  0  0  0  0  0  0  0  0  0  0  0
  148.1648  141.3873  154.0584 C   0  0  0  0  0  0  0  0  0  0  0  0
  146.8021  141.3843  153.7018 C   0  0  0  0  0  0  0  0  0  0  0  0
  146.1472  140.2121  153.5594 N   0  3  0  0  0  0  0  0  0  0  0  0
  141.6047  135.0810  153.0125 H   0  0  0  0  0  0  0  0  0  0  0  0
  141.6426  135.1896  154.8534 H   0  0  0  0  0  0  0  0  0  0  0  0
  143.4799  136.7295  154.7870 H   0  0  0  0  0  0  0  0  0  0  0  0
  142.9896  137.2851  151.9578 H   0  0  0  0  0  0  0  0  0  0  0  0
  143.7528  134.9681  151.5658 H   0  0  0  0  0  0  0  0  0  0  0  0
  145.2540  135.2890  152.4301 H   0  0  0  0  0  0  0  0  0  0  0  0
  144.9141  136.1154  150.9111 H   0  0  0  0  0  0  0  0  0  0  0  0
  144.5424  138.8539  152.5402 H   0  0  0  0  0  0  0  0  0  0  0  0
  148.5882  138.0052  154.2684 H   0  0  0  0  0  0  0  0  0  0  0  0
  150.3079  138.2095  155.3849 H   0  0  0  0  0  0  0  0  0  0  0  0
  150.6196  138.3585  153.6622 H   0  0  0  0  0  0  0  0  0  0  0  0
  152.7330  137.9504  154.9836 H   0  0  0  0  0  0  0  0  0  0  0  0
  152.8044  139.4692  154.1098 H   0  0  0  0  0  0  0  0  0  0  0  0
  152.1691  141.4362  157.0764 H   0  0  0  0  0  0  0  0  0  0  0  0
  152.4715  141.5383  155.3519 H   0  0  0  0  0  0  0  0  0  0  0  0
  150.0474  141.9084  155.7883 H   0  0  0  0  0  0  0  0  0  0  0  0
  149.9538  140.4136  156.7062 H   0  0  0  0  0  0  0  0  0  0  0  0
  148.6930  142.3225  154.1763 H   0  0  0  0  0  0  0  0  0  0  0  0
  146.2191  142.2775  153.5313 H   0  0  0  0  0  0  0  0  0  0  0  0
  145.1582  140.2332  153.3076 H   0  0  0  0  0  0  0  0  0  0  0  0
  1  2  2  0  0  0  0
  1 20  1  0  0  0  0
  1 21  1  0  0  0  0
  2  3  1  0  0  0  0
  2 22  1  0  0  0  0
  3  4  1  0  0  0  0
  3  5  1  0  0  0  0
  3 23  1  0  0  0  0
  4 24  1  0  0  0  0
  4 25  1  0  0  0  0
  4 26  1  0  0  0  0
  5  6  1  0  0  0  0
  5 27  1  0  0  0  0
  6  7  2  0  0  0  0
  6  8  1  0  0  0  0
  8 19  1  0  0  0  0
  8  9  2  0  0  0  0
  9 10  1  0  0  0  0
  9 28  1  0  0  0  0
 10 11  1  0  0  0  0
 10 17  2  0  0  0  0
 11 16  1  0  0  0  0
 11 12  1  0  0  0  0
 12 13  1  0  0  0  0
 12 29  1  0  0  0  0
 12 30  1  0  0  0  0
 13 14  1  0  0  0  0
 13 31  1  0  0  0  0
 13 32  1  0  0  0  0
 14 15  1  0  0  0  0
 15 16  1  0  0  0  0
 15 33  1  0  0  0  0
 15 34  1  0  0  0  0
 16 35  1  0  0  0  0
 16 36  1  0  0  0  0
 17 18  1  0  0  0  0
 17 37  1  0  0  0  0
 18 19  2  0  0  0  0
 18 38  1  0  0  0  0
 19 39  1  0  0  0  0
M  CHG  1  19   1
M  END
> <s_m_source_file>
AV-unprocessed.smi

> <i_m_source_file_index>
2746

> <i_lp_mmshare_version>
43012

> <i_f3d_flags>
0

> <s_epik_input>
W0NIMl09W0NIXVtDQEhdKFtDSDNdKVtOSF1DKD1PKWMxW2NIXWMoW2NIXVtjSF1uMSlOMltDSDJdW0NIMl1PW0NIMl1bQ0gyXTI=

> <s_epik_cmdline>
J2VwaWtfcHl0aG9uJywgJy1waCcsICc3LjAnLCAnLXRuJywgJzgnLCAnLW1hJywgJzIwMCcsICctbWV0YWxfYmluZGluZycsICctaW1hZScsICc8aW5maWxlLm1hZT4nLCAnLW9tYWUnLCAnPG91dGZpbGUubWFlPic=

> <r_lp_tautomer_probability>
1

> <r_epik_Ionization_Penalty>
0.451073

> <r_epik_Ionization_Penalty_Charging>
0.450607

> <r_epik_Ionization_Penalty_Neutral>
0.000466544

> <r_epik_State_Penalty>
0.453375

> <r_epik_Charging_Adjusted_Penalty>
0.903982

> <i_epik_Tot_Q>
1

> <i_epik_Tot_abs_Q>
1

> <r_epik_Metal_State_Penalty>
1.0249

> <b_epik_Metal_Only>
0

> <s_lp_Force_Field>
OPLS_2005

> <r_lp_Energy>
26.9967

> <b_lp_Chiralities_Consistent>
1

> <s_lp_Variant>
AV-unprocessed.smi:2746-3

> <Gold.Version>
5.8.1

> <Gold.Id.Protein>
6NUR|6NUR_protein|mol2

> <Gold.PLP.Fitness>
46.7407

> <Gold.PLP.PLP>
-34.6435

> <Gold.PLP.part.hbond>
-4.9278

> <Gold.PLP.part.metal>
0.0000

> <Gold.PLP.part.buried>
-4.4511

> <Gold.PLP.part.nonpolar>
-26.3632

> <Gold.PLP.part.repulsive>
0.1838

> <Gold.PLP.ligand.clash>
0.5039

> <Gold.PLP.ligand.torsion>
0.2923

> <Gold.PLP.Chemscore.Hbond>
4.3500

> <Gold.PLP.Chemscore.CHOScore>
0.0000

> <Gold.PLP.Chemscore.Metal>
0.0000

> <Gold.Chemscore.Hbonds>
donor molecule, donor type, donor heavy atom, donor atom, acceptor molecule, acceptor atom, score
      L1  H     5    27       P1 10175  1.00
      L1  H    19    39       P1 10175  2.00
      P1  H  7989  7998       L1    11  0.60
      P1  H  7997  8009       L1    14  0.80

> <Gold.PLP.Chemscore.Internal.Correction>
0.1357

> <Gold.Rescore>
     Score         DG    S(hbond)    S(metal)    S(lipo)     H(rot)  DE(clash)    DE(int)     intcor
     17.02     -18.74       2.19        0.00      79.38       1.30       1.54       0.19       ----

> <Gold.Chemscore.Fitness>
17.0188

> <Gold.Chemscore.DG>
-18.7449

> <Gold.Chemscore.ZeroCoef>
-5.4800

> <Gold.Chemscore.Hbond>
2.1882

> <Gold.Chemscore.Metal>
0.0000

> <Gold.Chemscore.Lipo>
79.3801

> <Gold.Chemscore.Internal_Hbond>
0.0000

> <Gold.Chemscore.DEClash>
1.5358

> <Gold.Chemscore.DEInternal>
0.1904

> <Gold.Chemscore.Rot>
1.3013

> <Gold.Chemscore.Internal.Correction>
   9.000000E+99

> <Gold.Chemscore.Hbonds>
donor molecule, donor type, donor heavy atom, donor atom, acceptor molecule, acceptor atom, score
      L1  H     5    27       P1 10175  0.99
      L1  H    19    39       P1 10175  1.00
      P1  H  7989  7998       L1    11  0.01
      P1  H  7997  8009       L1    14  0.05

> <Gold.Chemscore.Hbond.Weighted>
-7.3087

> <Gold.Chemscore.Metal.Weighted>
-0.0000

> <Gold.Chemscore.Lipo.Weighted>
-9.2875

> <Gold.Chemscore.Internal_Hbond.Weighted>
0.0000

> <Gold.Chemscore.DEClash.Weighted>
1.5358

> <Gold.Chemscore.DEInternal.Weighted>
0.1904

> <Gold.Chemscore.Rot.Weighted>
3.3313

> <Gold.Chemscore.Internal.Correction.Weighted>
   9.000000E+99

> <Gold.Protein.RotatedTorsions>
[ 6907 6896 6895 6894 ] final  161.48 input  -60.11 | X-H torsion
[ 7974 7965 7964 7962 ] final   64.15 input  175.53 | X-H torsion
[ 8008 7997 7996 7995 ] final -146.57 input   59.86 | X-H torsion
[ 10167 10162 10161 10158 ] final  -54.30 input  -65.29 | X-H torsion
[ 10718 10713 10712 10709 ] final -135.02 input   66.30 | X-H torsion
[ 10763 10752 10751 10750 ] final   90.01 input  -60.55 | X-H torsion
[ 11005 11000 10999 10996 ] final -167.76 input  -57.11 | X-H torsion

> <Gold.Protein.ActiveResidues>
 VAL166  LYS551  ARG553  GLY616  TRP617  ASP618  TYR619  PRO620  LYS621  CYS622 
 ASP623  PHE694  ASN695  SER759  ASP760  ASP761  ALA762  ILE779  LEU786  VAL792 
 PHE793  MET794  SER795  GLU796  ALA797  LYS798  CYS799  TRP800  GLU811  SER814 

> <Gold.Protein.RotatedAtoms>
  151.9550  133.3677  159.4013 H   0  0  0  0  0  0  0  0  0  0  0  0  # atno 6907 bound_to 6896
  150.6974  134.4300  159.5253 H   0  0  0  0  0  0  0  0  0  0  0  0  # atno 6908 bound_to 6896
  152.1980  134.8613  160.0561 H   0  0  0  0  0  0  0  0  0  0  0  0  # atno 6909 bound_to 6896
  145.8535  139.3269  143.0861 H   0  0  0  0  0  0  0  0  0  0  0  0  # atno 7974 bound_to 7965
  155.5615  140.0626  157.2827 H   0  0  0  0  0  0  0  0  0  0  0  0  # atno 8008 bound_to 7997
  154.4389  140.1885  156.0833 H   0  0  0  0  0  0  0  0  0  0  0  0  # atno 8009 bound_to 7997
  156.0443  140.3292  155.7283 H   0  0  0  0  0  0  0  0  0  0  0  0  # atno 8010 bound_to 7997
  140.6438  143.2523  151.4917 H   0  0  0  0  0  0  0  0  0  0  0  0  # atno 10167 bound_to 10162
  156.2617  130.7213  151.1150 H   0  0  0  0  0  0  0  0  0  0  0  0  # atno 10718 bound_to 10713
  153.1931  135.4449  155.0174 H   0  0  0  0  0  0  0  0  0  0  0  0  # atno 10763 bound_to 10752
  154.8102  135.3291  154.7327 H   0  0  0  0  0  0  0  0  0  0  0  0  # atno 10764 bound_to 10752
  153.7779  135.6979  153.4949 H   0  0  0  0  0  0  0  0  0  0  0  0  # atno 10765 bound_to 10752
  140.5496  134.5442  157.5119 H   0  0  0  0  0  0  0  0  0  0  0  0  # atno 11005 bound_to 11000
  145.9330  140.9034  143.0346 LP  0  0  0  0  0  0  0  0  0  0  0  0  # atno 17320 bound_to 7965
  144.6728  140.1444  143.7434 LP  0  0  0  0  0  0  0  0  0  0  0  0  # atno 17321 bound_to 7965
  139.5647  144.2070  152.1747 LP  0  0  0  0  0  0  0  0  0  0  0  0  # atno 17342 bound_to 10162
  140.1348  144.5255  150.6780 LP  0  0  0  0  0  0  0  0  0  0  0  0  # atno 17343 bound_to 10162
  157.7253  131.0654  150.5960 LP  0  0  0  0  0  0  0  0  0  0  0  0  # atno 17370 bound_to 10713
  156.6048  130.4364  149.5882 LP  0  0  0  0  0  0  0  0  0  0  0  0  # atno 17371 bound_to 10713
  139.9462  134.7698  156.0557 LP  0  0  0  0  0  0  0  0  0  0  0  0  # atno 17394 bound_to 11000
  141.1179  133.6622  156.3141 LP  0  0  0  0  0  0  0  0  0  0  0  0  # atno 17395 bound_to 11000

$$$$
