AV-unprocessed.smi:37|AV-procd|sdf|307|dock5
  -GOLD-   2262016123D 1   1.00000     0.00000
 Structure written by MMmdl.
 44 45  0  0  0  0  0  0  0  0  1 V2000
  153.8281  142.4748  159.9685 C   0  0  0  0  0  0  0  0  0  0  0  0
  154.3854  141.2088  160.6368 C   0  0  0  0  0  0  0  0  0  0  0  0
  154.3906  139.9840  159.7193 C   0  0  0  0  0  0  0  0  0  0  0  0
  155.1860  139.8608  158.7860 O   0  0  0  0  0  0  0  0  0  0  0  0
  153.4432  139.0968  160.0604 O   0  0  0  0  0  0  0  0  0  0  0  0
  152.8582  138.2786  159.0609 C   0  0  0  0  0  0  0  0  0  0  0  0
  151.3517  138.5544  158.9892 C   0  0  2  0  0  0  0  0  0  0  0  0
  150.6284  137.4559  159.5468 O   0  0  0  0  0  0  0  0  0  0  0  0
  149.5075  137.1630  158.7669 C   0  0  1  0  0  0  0  0  0  0  0  0
  148.2969  137.0580  159.6686 N   0  0  0  0  0  0  0  0  0  0  0  0
  148.4570  137.0810  161.0473 C   0  0  0  0  0  0  0  0  0  0  0  0
  147.4181  137.0190  161.9137 C   0  0  0  0  0  0  0  0  0  0  0  0
  147.6548  137.0387  163.2364 F   0  0  0  0  0  0  0  0  0  0  0  0
  146.0453  136.9342  161.4248 C   0  0  0  0  0  0  0  0  0  0  0  0
  145.0404  136.8664  162.1296 O   0  0  0  0  0  0  0  0  0  0  0  0
  145.9287  136.9391  160.0318 N   0  0  0  0  0  0  0  0  0  0  0  0
  146.9905  137.0076  159.1278 C   0  0  0  0  0  0  0  0  0  0  0  0
  146.7623  137.0259  157.9194 O   0  0  0  0  0  0  0  0  0  0  0  0
  149.3825  138.2629  157.7101 C   0  0  2  0  0  0  0  0  0  0  0  0
  148.6394  137.5608  156.0021 Br  0  0  0  0  0  0  0  0  0  0  0  0
  150.8251  138.6902  157.5557 C   0  0  1  0  0  0  0  0  0  0  0  0
  150.8708  140.0297  157.0820 O   0  0  0  0  0  0  0  0  0  0  0  0
  150.8147  140.2906  155.7637 C   0  0  0  0  0  0  0  0  0  0  0  0
  151.2275  139.5602  154.8628 O   0  0  0  0  0  0  0  0  0  0  0  0
  150.1715  141.6416  155.4598 C   0  0  0  0  0  0  0  0  0  0  0  0
  148.9440  141.5063  154.5487 C   0  0  0  0  0  0  0  0  0  0  0  0
  144.9960  136.8952  159.6472 H   0  0  0  0  0  0  0  0  0  0  0  0
  153.8373  143.3125  160.6659 H   0  0  0  0  0  0  0  0  0  0  0  0
  152.7979  142.3310  159.6405 H   0  0  0  0  0  0  0  0  0  0  0  0
  154.4232  142.7618  159.1008 H   0  0  0  0  0  0  0  0  0  0  0  0
  155.4052  141.3916  160.9758 H   0  0  0  0  0  0  0  0  0  0  0  0
  153.7961  140.9735  161.5234 H   0  0  0  0  0  0  0  0  0  0  0  0
  153.3227  138.5144  158.1029 H   0  0  0  0  0  0  0  0  0  0  0  0
  153.0468  137.2239  159.2662 H   0  0  0  0  0  0  0  0  0  0  0  0
  151.0989  139.4531  159.5541 H   0  0  0  0  0  0  0  0  0  0  0  0
  149.6627  136.1784  158.3239 H   0  0  0  0  0  0  0  0  0  0  0  0
  149.4526  137.1439  161.4629 H   0  0  0  0  0  0  0  0  0  0  0  0
  148.7557  139.0856  158.0526 H   0  0  0  0  0  0  0  0  0  0  0  0
  151.3377  137.9872  156.8969 H   0  0  0  0  0  0  0  0  0  0  0  0
  149.8896  142.1176  156.3992 H   0  0  0  0  0  0  0  0  0  0  0  0
  150.9129  142.2867  154.9879 H   0  0  0  0  0  0  0  0  0  0  0  0
  148.5297  142.4871  154.3154 H   0  0  0  0  0  0  0  0  0  0  0  0
  148.1557  140.9206  155.0227 H   0  0  0  0  0  0  0  0  0  0  0  0
  149.2015  141.0233  153.6053 H   0  0  0  0  0  0  0  0  0  0  0  0
  1  2  1  0  0  0  0
  1 28  1  0  0  0  0
  1 29  1  0  0  0  0
  1 30  1  0  0  0  0
  2  3  1  0  0  0  0
  2 31  1  0  0  0  0
  2 32  1  0  0  0  0
  3  4  2  0  0  0  0
  3  5  1  0  0  0  0
  5  6  1  0  0  0  0
  6  7  1  0  0  0  0
  6 33  1  0  0  0  0
  6 34  1  0  0  0  0
  7 21  1  0  0  0  0
  7  8  1  0  0  0  0
  7 35  1  0  0  0  0
  8  9  1  0  0  0  0
  9 10  1  0  0  0  0
  9 19  1  0  0  0  0
  9 36  1  0  0  0  0
 10 17  1  0  0  0  0
 10 11  1  0  0  0  0
 11 12  2  0  0  0  0
 11 37  1  0  0  0  0
 12 13  1  0  0  0  0
 12 14  1  0  0  0  0
 14 15  2  0  0  0  0
 14 16  1  0  0  0  0
 16 27  1  0  0  0  0
 16 17  1  0  0  0  0
 17 18  2  0  0  0  0
 19 20  1  0  0  0  0
 19 21  1  0  0  0  0
 19 38  1  0  0  0  0
 21 22  1  0  0  0  0
 21 39  1  0  0  0  0
 22 23  1  0  0  0  0
 23 24  2  0  0  0  0
 23 25  1  0  0  0  0
 25 26  1  0  0  0  0
 25 40  1  0  0  0  0
 25 41  1  0  0  0  0
 26 42  1  0  0  0  0
 26 43  1  0  0  0  0
 26 44  1  0  0  0  0
M  END
> <s_m_source_file>
AV-unprocessed.smi

> <i_m_source_file_index>
37

> <i_lp_mmshare_version>
43012

> <i_f3d_flags>
0

> <s_epik_input>
W0NIM11bQ0gyXUMoPU8pT1tDSDJdW0NAQEhdMU9bQ0BASF0objJbY0hdYyhGKWMoPU8pW25IXWMyPU8pW0NAQEhdKEJyKVtDQEhdMU9DKD1PKVtDSDJdW0NIM10=

> <s_epik_cmdline>
J2VwaWtfcHl0aG9uJywgJy1waCcsICc3LjAnLCAnLXRuJywgJzgnLCAnLW1hJywgJzIwMCcsICctbWV0YWxfYmluZGluZycsICctaW1hZScsICc8aW5maWxlLm1hZT4nLCAnLW9tYWUnLCAnPG91dGZpbGUubWFlPic=

> <r_lp_tautomer_probability>
0.999537

> <r_epik_Ionization_Penalty>
0.104106

> <r_epik_Ionization_Penalty_Charging>
0.104106

> <r_epik_Ionization_Penalty_Neutral>
3.94675e-16

> <r_epik_State_Penalty>
0.0940182

> <r_epik_Charging_Adjusted_Penalty>
0.198124

> <i_epik_Tot_Q>
0

> <i_epik_Tot_abs_Q>
0

> <r_epik_Metal_State_Penalty>
3.05314

> <b_epik_Metal_Only>
0

> <s_epik_Chemistry_Notes>
This compound has an ester and may undergo hydrolysis at high or low pH. This compound contains an acetal/aminal-like group ( X-CH(R)-Y where X, Y are N, S, or O) that may be acid/base labile, releasing an aldehyde.

> <s_lp_Force_Field>
OPLS_2005

> <r_lp_Energy>
20.0289

> <b_lp_Chiralities_Consistent>
1

> <s_lp_Variant>
AV-unprocessed.smi:37-5

> <Gold.Version>
5.8.1

> <Gold.Id.Protein>
6NUR|6NUR_protein|mol2

> <Gold.PLP.Fitness>
44.8450

> <Gold.PLP.PLP>
-40.2732

> <Gold.PLP.part.hbond>
-3.0000

> <Gold.PLP.part.metal>
0.0000

> <Gold.PLP.part.buried>
-6.0591

> <Gold.PLP.part.nonpolar>
-31.2573

> <Gold.PLP.part.repulsive>
0.0688

> <Gold.PLP.ligand.clash>
0.0000

> <Gold.PLP.ligand.torsion>
2.3395

> <Gold.PLP.Chemscore.Hbond>
2.9920

> <Gold.PLP.Chemscore.CHOScore>
0.0000

> <Gold.PLP.Chemscore.Metal>
0.0000

> <Gold.Chemscore.Hbonds>
donor molecule, donor type, donor heavy atom, donor atom, acceptor molecule, acceptor atom, score
      P1  H  7989  7998       L1    24  1.00
      P1  H  7997  8009       L1     4  0.83

> <Gold.PLP.Chemscore.Internal.Correction>
0.2747

> <Gold.Rescore>
     Score         DG    S(hbond)    S(metal)    S(lipo)     H(rot)  DE(clash)    DE(int)     intcor
      9.95     -13.96       2.85        0.00      64.09       3.33       0.06       3.96       ----

> <Gold.Chemscore.Fitness>
9.9492

> <Gold.Chemscore.DG>
-13.9635

> <Gold.Chemscore.ZeroCoef>
-5.4800

> <Gold.Chemscore.Hbond>
2.8474

> <Gold.Chemscore.Metal>
0.0000

> <Gold.Chemscore.Lipo>
64.0911

> <Gold.Chemscore.Internal_Hbond>
0.0000

> <Gold.Chemscore.DEClash>
0.0589

> <Gold.Chemscore.DEInternal>
3.9555

> <Gold.Chemscore.Rot>
3.3303

> <Gold.Chemscore.Internal.Correction>
   9.000000E+99

> <Gold.Chemscore.Hbonds>
donor molecule, donor type, donor heavy atom, donor atom, acceptor molecule, acceptor atom, score
      P1  H  6896  6908       L1     8  0.01
      P1  H  7989  7998       L1    24  0.30
      P1  H  7997  8009       L1     4  0.78

> <Gold.Chemscore.Hbond.Weighted>
-9.5104

> <Gold.Chemscore.Metal.Weighted>
-0.0000

> <Gold.Chemscore.Lipo.Weighted>
-7.4987

> <Gold.Chemscore.Internal_Hbond.Weighted>
0.0000

> <Gold.Chemscore.DEClash.Weighted>
0.0589

> <Gold.Chemscore.DEInternal.Weighted>
3.9555

> <Gold.Chemscore.Rot.Weighted>
8.5256

> <Gold.Chemscore.Internal.Correction.Weighted>
   9.000000E+99

> <Gold.Protein.RotatedTorsions>
[ 6907 6896 6895 6894 ] final -130.26 input  -60.11 | X-H torsion
[ 7974 7965 7964 7962 ] final   86.76 input  175.53 | X-H torsion
[ 8008 7997 7996 7995 ] final   94.79 input   59.86 | X-H torsion
[ 10167 10162 10161 10158 ] final  104.90 input  -65.29 | X-H torsion
[ 10718 10713 10712 10709 ] final -102.78 input   66.30 | X-H torsion
[ 10763 10752 10751 10750 ] final   66.33 input  -60.55 | X-H torsion
[ 11005 11000 10999 10996 ] final -108.78 input  -57.11 | X-H torsion

> <Gold.Protein.ActiveResidues>
 VAL166  LYS551  ARG553  GLY616  TRP617  ASP618  TYR619  PRO620  LYS621  CYS622 
 ASP623  PHE694  ASN695  SER759  ASP760  ASP761  ALA762  ILE779  LEU786  VAL792 
 PHE793  MET794  SER795  GLU796  ALA797  LYS798  CYS799  TRP800  GLU811  SER814 

> <Gold.Protein.RotatedAtoms>
  150.9378  133.6692  159.2796 H   0  0  0  0  0  0  0  0  0  0  0  0  # atno 6907 bound_to 6896
  151.4092  135.0981  159.9589 H   0  0  0  0  0  0  0  0  0  0  0  0  # atno 6908 bound_to 6896
  152.5055  133.8854  159.7422 H   0  0  0  0  0  0  0  0  0  0  0  0  # atno 6909 bound_to 6896
  145.5680  139.2311  143.2422 H   0  0  0  0  0  0  0  0  0  0  0  0  # atno 7974 bound_to 7965
  156.0618  140.3295  155.7470 H   0  0  0  0  0  0  0  0  0  0  0  0  # atno 8008 bound_to 7997
  155.5443  140.0604  157.2881 H   0  0  0  0  0  0  0  0  0  0  0  0  # atno 8009 bound_to 7997
  154.4485  140.1905  156.0611 H   0  0  0  0  0  0  0  0  0  0  0  0  # atno 8010 bound_to 7997
  139.7138  144.7072  151.0984 H   0  0  0  0  0  0  0  0  0  0  0  0  # atno 10167 bound_to 10162
  156.0241  130.5436  150.7157 H   0  0  0  0  0  0  0  0  0  0  0  0  # atno 10718 bound_to 10713
  153.0135  135.5324  154.6806 H   0  0  0  0  0  0  0  0  0  0  0  0  # atno 10763 bound_to 10752
  154.5967  135.2864  155.0581 H   0  0  0  0  0  0  0  0  0  0  0  0  # atno 10764 bound_to 10752
  154.1653  135.6541  153.5048 H   0  0  0  0  0  0  0  0  0  0  0  0  # atno 10765 bound_to 10752
  141.0883  133.9100  157.2134 H   0  0  0  0  0  0  0  0  0  0  0  0  # atno 11005 bound_to 11000
  146.1804  140.6506  142.9192 LP  0  0  0  0  0  0  0  0  0  0  0  0  # atno 17320 bound_to 7965
  144.7451  140.5046  143.6841 LP  0  0  0  0  0  0  0  0  0  0  0  0  # atno 17321 bound_to 7965
  140.7739  143.5258  150.9482 LP  0  0  0  0  0  0  0  0  0  0  0  0  # atno 17342 bound_to 10162
  139.8943  143.6914  152.3141 LP  0  0  0  0  0  0  0  0  0  0  0  0  # atno 17343 bound_to 10162
  157.4785  131.0900  151.0563 LP  0  0  0  0  0  0  0  0  0  0  0  0  # atno 17370 bound_to 10713
  157.1003  130.5979  149.5459 LP  0  0  0  0  0  0  0  0  0  0  0  0  # atno 17371 bound_to 10713
  139.9705  135.0130  156.9499 LP  0  0  0  0  0  0  0  0  0  0  0  0  # atno 17394 bound_to 11000
  140.5311  134.0812  155.7316 LP  0  0  0  0  0  0  0  0  0  0  0  0  # atno 17395 bound_to 11000

$$$$
