AV-unprocessed.smi:1046|AV-procd|sdf|4549|dock2
  -GOLD-   22720 2573D 1   1.00000     0.00000
 Structure written by MMmdl.
 53 55  0  0  0  0  0  0  0  0  2 V2000
  152.5366  143.2788  161.4277 C   0  0  0  0  0  0  0  0  0  0  0  0
  152.0643  142.7443  160.0871 C   0  0  0  0  0  0  0  0  0  0  0  0
  152.5605  141.5030  159.6293 C   0  0  0  0  0  0  0  0  0  0  0  0
  152.1449  140.9702  158.3898 C   0  0  0  0  0  0  0  0  0  0  0  0
  152.4932  139.7893  157.7569 N   0  0  0  0  0  0  0  0  0  0  0  0
  151.7756  139.8617  156.6401 C   0  0  0  0  0  0  0  0  0  0  0  0
  151.0001  140.9505  156.4743 N   0  0  0  0  0  0  0  0  0  0  0  0
  150.1362  141.2423  155.3442 C   0  0  0  0  0  0  0  0  0  0  0  0
  148.6966  140.7312  155.5581 C   0  0  1  0  0  0  0  0  0  0  0  0
  148.7198  139.3282  155.7281 O   0  0  0  0  0  0  0  0  0  0  0  0
  148.0185  141.3426  156.8019 C   0  0  0  0  0  0  0  0  0  0  0  0
  147.0440  142.4140  156.4717 N   0  3  0  0  0  0  0  0  0  0  0  0
  146.2388  142.8273  157.6499 C   0  0  0  0  0  0  0  0  0  0  0  0
  145.3043  143.9973  157.2791 C   0  0  0  0  0  0  0  0  0  0  0  0
  144.4119  143.6932  156.1608 N   0  0  0  0  0  0  0  0  0  0  0  0
  143.3460  142.7533  156.5224 C   0  0  0  0  0  0  0  0  0  0  0  0
  142.3640  142.4234  155.3868 C   0  0  0  0  0  0  0  0  0  0  0  0
  142.6143  141.1179  154.9153 O   0  0  0  0  0  0  0  0  0  0  0  0
  145.2253  143.2798  155.0147 C   0  0  0  0  0  0  0  0  0  0  0  0
  146.1577  142.0900  155.3218 C   0  0  0  0  0  0  0  0  0  0  0  0
  151.2130  141.7197  157.6135 C   0  0  0  0  0  0  0  0  0  0  0  0
  150.7128  142.9561  158.0581 C   0  0  0  0  0  0  0  0  0  0  0  0
  151.1380  143.4737  159.2995 C   0  0  0  0  0  0  0  0  0  0  0  0
  150.5910  144.8090  159.7718 C   0  0  0  0  0  0  0  0  0  0  0  0
  153.2297  142.5890  161.9099 H   0  0  0  0  0  0  0  0  0  0  0  0
  151.6907  143.4265  162.0993 H   0  0  0  0  0  0  0  0  0  0  0  0
  153.0486  144.2326  161.2991 H   0  0  0  0  0  0  0  0  0  0  0  0
  153.2663  140.9474  160.2291 H   0  0  0  0  0  0  0  0  0  0  0  0
  151.8143  139.0760  155.8996 H   0  0  0  0  0  0  0  0  0  0  0  0
  150.1404  142.3188  155.1677 H   0  0  0  0  0  0  0  0  0  0  0  0
  150.5768  140.7817  154.4593 H   0  0  0  0  0  0  0  0  0  0  0  0
  148.1017  140.9283  154.6668 H   0  0  0  0  0  0  0  0  0  0  0  0
  148.8550  138.9230  154.8843 H   0  0  0  0  0  0  0  0  0  0  0  0
  147.5137  140.5682  157.3820 H   0  0  0  0  0  0  0  0  0  0  0  0
  148.7947  141.7524  157.4504 H   0  0  0  0  0  0  0  0  0  0  0  0
  145.6692  141.9778  158.0288 H   0  0  0  0  0  0  0  0  0  0  0  0
  146.9041  143.1428  158.4545 H   0  0  0  0  0  0  0  0  0  0  0  0
  144.7197  144.2955  158.1503 H   0  0  0  0  0  0  0  0  0  0  0  0
  145.9130  144.8651  157.0213 H   0  0  0  0  0  0  0  0  0  0  0  0
  143.7662  141.8281  156.9161 H   0  0  0  0  0  0  0  0  0  0  0  0
  142.7675  143.1858  157.3399 H   0  0  0  0  0  0  0  0  0  0  0  0
  141.3337  142.4832  155.7386 H   0  0  0  0  0  0  0  0  0  0  0  0
  142.4689  143.1148  154.5513 H   0  0  0  0  0  0  0  0  0  0  0  0
  142.8311  141.1657  153.9966 H   0  0  0  0  0  0  0  0  0  0  0  0
  144.5921  143.0462  154.1597 H   0  0  0  0  0  0  0  0  0  0  0  0
  145.8362  144.1257  154.6960 H   0  0  0  0  0  0  0  0  0  0  0  0
  146.7532  141.8812  154.4343 H   0  0  0  0  0  0  0  0  0  0  0  0
  145.5830  141.1873  155.5327 H   0  0  0  0  0  0  0  0  0  0  0  0
  150.0054  143.5004  157.4501 H   0  0  0  0  0  0  0  0  0  0  0  0
  149.9110  145.2432  159.0382 H   0  0  0  0  0  0  0  0  0  0  0  0
  151.4026  145.5183  159.9356 H   0  0  0  0  0  0  0  0  0  0  0  0
  150.0427  144.6875  160.7062 H   0  0  0  0  0  0  0  0  0  0  0  0
  147.5845  143.2244  156.2057 H   0  0  0  0  0  0  0  0  0  0  0  0
  1  2  1  0  0  0  0
  1 25  1  0  0  0  0
  1 26  1  0  0  0  0
  1 27  1  0  0  0  0
  2 23  1  0  0  0  0
  2  3  2  0  0  0  0
  3  4  1  0  0  0  0
  3 28  1  0  0  0  0
  4 21  2  0  0  0  0
  4  5  1  0  0  0  0
  5  6  2  0  0  0  0
  6  7  1  0  0  0  0
  6 29  1  0  0  0  0
  7  8  1  0  0  0  0
  7 21  1  0  0  0  0
  8  9  1  0  0  0  0
  8 30  1  0  0  0  0
  8 31  1  0  0  0  0
  9 10  1  0  0  0  0
  9 11  1  0  0  0  0
  9 32  1  0  0  0  0
 10 33  1  0  0  0  0
 11 12  1  0  0  0  0
 11 34  1  0  0  0  0
 11 35  1  0  0  0  0
 12 20  1  0  0  0  0
 12 13  1  0  0  0  0
 12 53  1  0  0  0  0
 13 14  1  0  0  0  0
 13 36  1  0  0  0  0
 13 37  1  0  0  0  0
 14 15  1  0  0  0  0
 14 38  1  0  0  0  0
 14 39  1  0  0  0  0
 15 16  1  0  0  0  0
 15 19  1  0  0  0  0
 16 17  1  0  0  0  0
 16 40  1  0  0  0  0
 16 41  1  0  0  0  0
 17 18  1  0  0  0  0
 17 42  1  0  0  0  0
 17 43  1  0  0  0  0
 18 44  1  0  0  0  0
 19 20  1  0  0  0  0
 19 45  1  0  0  0  0
 19 46  1  0  0  0  0
 20 47  1  0  0  0  0
 20 48  1  0  0  0  0
 21 22  1  0  0  0  0
 22 23  2  0  0  0  0
 22 49  1  0  0  0  0
 23 24  1  0  0  0  0
 24 50  1  0  0  0  0
 24 51  1  0  0  0  0
 24 52  1  0  0  0  0
M  CHG  1  12   1
M  END
> <s_m_source_file>
AV-unprocessed.smi

> <i_m_source_file_index>
1046

> <i_lp_mmshare_version>
43012

> <i_f3d_flags>
0

> <s_epik_input>
W0NIM11jKFtjSF0xKWMoW0NIM10pW2NIXWMoYzEyKW4oW2NIXW4yKVtDSDJdW0NASF0oW09IXSlbQ0gyXU4zW0NIMl1bQ0gyXU4oW0NIMl1bQ0gyXTMpW0NIMl1bQ0gyXVtPSF0=

> <s_epik_cmdline>
J2VwaWtfcHl0aG9uJywgJy1waCcsICc3LjAnLCAnLXRuJywgJzgnLCAnLW1hJywgJzIwMCcsICctbWV0YWxfYmluZGluZycsICctaW1hZScsICc8aW5maWxlLm1hZT4nLCAnLW9tYWUnLCAnPG91dGZpbGUubWFlPic=

> <r_epik_Ionization_Penalty>
0.131947

> <r_epik_Ionization_Penalty_Charging>
0.00213896

> <r_epik_Ionization_Penalty_Neutral>
0.129808

> <r_epik_State_Penalty>
0.319681

> <r_epik_Charging_Adjusted_Penalty>
0.32182

> <i_epik_Tot_Q>
1

> <i_epik_Tot_abs_Q>
1

> <r_epik_Metal_State_Penalty>
0.225417

> <b_epik_Metal_Only>
0

> <s_lp_Force_Field>
OPLS_2005

> <r_lp_Energy>
33.7571

> <b_lp_Chiralities_Consistent>
1

> <s_lp_Variant>
AV-unprocessed.smi:1046-2

> <Gold.Version>
5.8.1

> <Gold.Id.Protein>
6NUR|6NUR_protein|mol2

> <Gold.PLP.Fitness>
47.7437

> <Gold.PLP.PLP>
-38.7316

> <Gold.PLP.part.hbond>
-2.9944

> <Gold.PLP.part.metal>
0.0000

> <Gold.PLP.part.buried>
-3.6443

> <Gold.PLP.part.nonpolar>
-30.8960

> <Gold.PLP.part.repulsive>
0.0931

> <Gold.PLP.ligand.clash>
0.0000

> <Gold.PLP.ligand.torsion>
1.4067

> <Gold.PLP.Chemscore.Hbond>
3.8960

> <Gold.PLP.Chemscore.CHOScore>
0.0000

> <Gold.PLP.Chemscore.Metal>
0.0000

> <Gold.Chemscore.Hbonds>
donor molecule, donor type, donor heavy atom, donor atom, acceptor molecule, acceptor atom, score
      L1  H    12    53       P1  8028  1.30
      L1  H    18    44       P1 10175  0.80
      P1  H  7997  8009       L1     5  0.20

> <Gold.PLP.Chemscore.Internal.Correction>
0.1377

> <Gold.Rescore>
     Score         DG    S(hbond)    S(metal)    S(lipo)     H(rot)  DE(clash)    DE(int)     intcor
     12.92     -14.51       1.51        0.00     104.18       3.21       0.25       1.34       ----

> <Gold.Chemscore.Fitness>
12.9191

> <Gold.Chemscore.DG>
-14.5073

> <Gold.Chemscore.ZeroCoef>
-5.4800

> <Gold.Chemscore.Hbond>
1.5103

> <Gold.Chemscore.Metal>
0.0000

> <Gold.Chemscore.Lipo>
104.1838

> <Gold.Chemscore.Internal_Hbond>
0.0000

> <Gold.Chemscore.DEClash>
0.2477

> <Gold.Chemscore.DEInternal>
1.3406

> <Gold.Chemscore.Rot>
3.2058

> <Gold.Chemscore.Internal.Correction>
   9.000000E+99

> <Gold.Chemscore.Hbonds>
donor molecule, donor type, donor heavy atom, donor atom, acceptor molecule, acceptor atom, score
      L1  H    12    53       P1  8028  0.05
      L1  H    18    44       P1 10175  0.11
      P1  H  7997  8009       L1     5  0.07

> <Gold.Chemscore.Hbond.Weighted>
-5.0446

> <Gold.Chemscore.Metal.Weighted>
-0.0000

> <Gold.Chemscore.Lipo.Weighted>
-12.1895

> <Gold.Chemscore.Internal_Hbond.Weighted>
0.0000

> <Gold.Chemscore.DEClash.Weighted>
0.2477

> <Gold.Chemscore.DEInternal.Weighted>
1.3406

> <Gold.Chemscore.Rot.Weighted>
8.2067

> <Gold.Chemscore.Internal.Correction.Weighted>
   9.000000E+99

> <Gold.Protein.RotatedTorsions>
[ 6907 6896 6895 6894 ] final  141.15 input  -60.11 | X-H torsion
[ 7974 7965 7964 7962 ] final   66.21 input  175.53 | X-H torsion
[ 8008 7997 7996 7995 ] final  142.86 input   59.86 | X-H torsion
[ 10167 10162 10161 10158 ] final   70.71 input  -65.29 | X-H torsion
[ 10718 10713 10712 10709 ] final  100.94 input   66.30 | X-H torsion
[ 10763 10752 10751 10750 ] final  -29.68 input  -60.55 | X-H torsion
[ 11005 11000 10999 10996 ] final   87.08 input  -57.11 | X-H torsion

> <Gold.Protein.ActiveResidues>
 VAL166  LYS551  ARG553  GLY616  TRP617  ASP618  TYR619  PRO620  LYS621  CYS622 
 ASP623  PHE694  ASN695  SER759  ASP760  ASP761  ALA762  ILE779  LEU786  VAL792 
 PHE793  MET794  SER795  GLU796  ALA797  LYS798  CYS799  TRP800  GLU811  SER814 

> <Gold.Protein.RotatedAtoms>
  152.2345  133.5085  159.5234 H   0  0  0  0  0  0  0  0  0  0  0  0  # atno 6907 bound_to 6896
  150.7046  134.1172  159.4031 H   0  0  0  0  0  0  0  0  0  0  0  0  # atno 6908 bound_to 6896
  151.9093  135.0345  160.0564 H   0  0  0  0  0  0  0  0  0  0  0  0  # atno 6909 bound_to 6896
  145.8293  139.3129  143.0997 H   0  0  0  0  0  0  0  0  0  0  0  0  # atno 7974 bound_to 7965
  156.2941  140.2277  156.4797 H   0  0  0  0  0  0  0  0  0  0  0  0  # atno 8008 bound_to 7997
  154.7864  140.0457  157.1188 H   0  0  0  0  0  0  0  0  0  0  0  0  # atno 8009 bound_to 7997
  154.9698  140.3065  155.4996 H   0  0  0  0  0  0  0  0  0  0  0  0  # atno 8010 bound_to 7997
  140.0539  144.5289  150.7343 H   0  0  0  0  0  0  0  0  0  0  0  0  # atno 10167 bound_to 10162
  157.6842  131.0712  150.5177 H   0  0  0  0  0  0  0  0  0  0  0  0  # atno 10718 bound_to 10713
  153.7685  135.6914  153.4911 H   0  0  0  0  0  0  0  0  0  0  0  0  # atno 10763 bound_to 10752
  153.1890  135.4478  155.0124 H   0  0  0  0  0  0  0  0  0  0  0  0  # atno 10764 bound_to 10752
  154.8126  135.3384  154.7196 H   0  0  0  0  0  0  0  0  0  0  0  0  # atno 10765 bound_to 10752
  139.8928  134.8399  156.2811 H   0  0  0  0  0  0  0  0  0  0  0  0  # atno 11005 bound_to 11000
  145.9589  140.8851  143.0221 LP  0  0  0  0  0  0  0  0  0  0  0  0  # atno 17320 bound_to 7965
  144.6741  140.1784  143.7408 LP  0  0  0  0  0  0  0  0  0  0  0  0  # atno 17321 bound_to 7965
  140.7204  143.2583  151.4299 LP  0  0  0  0  0  0  0  0  0  0  0  0  # atno 17342 bound_to 10162
  139.5935  144.1447  152.2117 LP  0  0  0  0  0  0  0  0  0  0  0  0  # atno 17343 bound_to 10162
  156.5492  130.4227  149.6116 LP  0  0  0  0  0  0  0  0  0  0  0  0  # atno 17370 bound_to 10713
  156.2918  130.7128  151.1979 LP  0  0  0  0  0  0  0  0  0  0  0  0  # atno 17371 bound_to 10713
  141.0038  133.7135  156.1003 LP  0  0  0  0  0  0  0  0  0  0  0  0  # atno 17394 bound_to 11000
  140.7461  134.4096  157.5548 LP  0  0  0  0  0  0  0  0  0  0  0  0  # atno 17395 bound_to 11000

$$$$
