AV-unprocessed.smi:1761|AV-procd|sdf|7096|dock1
  -GOLD-   22720 8313D 1   1.00000     0.00000
 Structure written by MMmdl.
 34 35  0  0  0  0  0  0  0  0  1 V2000
  149.7399  140.6883  157.3383 O   0  0  0  0  0  0  0  0  0  0  0  0
  149.5879  141.8214  156.8810 C   0  0  0  0  0  0  0  0  0  0  0  0
  150.1499  142.9407  157.3706 N   0  0  0  0  0  0  0  0  0  0  0  0
  151.0384  143.0691  158.4718 C   0  0  0  0  0  0  0  0  0  0  0  0
  151.2891  144.3967  158.8866 C   0  0  0  0  0  0  0  0  0  0  0  0
  152.1608  144.6325  159.9675 C   0  0  0  0  0  0  0  0  0  0  0  0
  152.7608  143.5330  160.6067 C   0  0  0  0  0  0  0  0  0  0  0  0
  152.4571  142.2438  160.1321 C   0  0  0  0  0  0  0  0  0  0  0  0
  151.6217  142.0156  159.0965 N   0  0  0  0  0  0  0  0  0  0  0  0
  148.8269  142.0899  155.8097 N   0  0  0  0  0  0  0  0  0  0  0  0
  148.0813  141.1013  155.0329 C   0  0  1  0  0  0  0  0  0  0  0  0
  147.3709  141.7762  153.8434 C   0  0  0  0  0  0  0  0  0  0  0  0
  146.5738  140.7534  153.0175 C   0  0  0  0  0  0  0  0  0  0  0  0
  147.4691  139.5994  152.5391 C   0  0  0  0  0  0  0  0  0  0  0  0
  148.1951  138.9227  153.7161 C   0  0  0  0  0  0  0  0  0  0  0  0
  148.9859  139.9316  154.5715 C   0  0  1  0  0  0  0  0  0  0  0  0
  150.0865  140.4106  153.8199 O   0  0  0  0  0  0  0  0  0  0  0  0
  149.9240  143.8007  156.8935 H   0  0  0  0  0  0  0  0  0  0  0  0
  150.8213  145.2303  158.3833 H   0  0  0  0  0  0  0  0  0  0  0  0
  152.3657  145.6397  160.2987 H   0  0  0  0  0  0  0  0  0  0  0  0
  153.4354  143.6739  161.4381 H   0  0  0  0  0  0  0  0  0  0  0  0
  152.8963  141.3726  160.5950 H   0  0  0  0  0  0  0  0  0  0  0  0
  148.7589  143.0491  155.5029 H   0  0  0  0  0  0  0  0  0  0  0  0
  147.3025  140.6893  155.6779 H   0  0  0  0  0  0  0  0  0  0  0  0
  146.6983  142.5555  154.2036 H   0  0  0  0  0  0  0  0  0  0  0  0
  148.1012  142.2722  153.2027 H   0  0  0  0  0  0  0  0  0  0  0  0
  145.7563  140.3552  153.6199 H   0  0  0  0  0  0  0  0  0  0  0  0
  146.1143  141.2459  152.1601 H   0  0  0  0  0  0  0  0  0  0  0  0
  146.8699  138.8636  152.0022 H   0  0  0  0  0  0  0  0  0  0  0  0
  148.2010  139.9782  151.8247 H   0  0  0  0  0  0  0  0  0  0  0  0
  147.4582  138.4238  154.3469 H   0  0  0  0  0  0  0  0  0  0  0  0
  148.8581  138.1393  153.3466 H   0  0  0  0  0  0  0  0  0  0  0  0
  149.3893  139.4130  155.4420 H   0  0  0  0  0  0  0  0  0  0  0  0
  149.7988  140.5565  152.9319 H   0  0  0  0  0  0  0  0  0  0  0  0
  1  2  2  0  0  0  0
  2  3  1  0  0  0  0
  2 10  1  0  0  0  0
  3  4  1  0  0  0  0
  3 18  1  0  0  0  0
  4  9  1  0  0  0  0
  4  5  2  0  0  0  0
  5  6  1  0  0  0  0
  5 19  1  0  0  0  0
  6  7  2  0  0  0  0
  6 20  1  0  0  0  0
  7  8  1  0  0  0  0
  7 21  1  0  0  0  0
  8  9  2  0  0  0  0
  8 22  1  0  0  0  0
 10 11  1  0  0  0  0
 10 23  1  0  0  0  0
 11 16  1  0  0  0  0
 11 12  1  0  0  0  0
 11 24  1  0  0  0  0
 12 13  1  0  0  0  0
 12 25  1  0  0  0  0
 12 26  1  0  0  0  0
 13 14  1  0  0  0  0
 13 27  1  0  0  0  0
 13 28  1  0  0  0  0
 14 15  1  0  0  0  0
 14 29  1  0  0  0  0
 14 30  1  0  0  0  0
 15 16  1  0  0  0  0
 15 31  1  0  0  0  0
 15 32  1  0  0  0  0
 16 17  1  0  0  0  0
 16 33  1  0  0  0  0
 17 34  1  0  0  0  0
M  END
> <s_m_source_file>
AV-unprocessed.smi

> <i_m_source_file_index>
1761

> <i_lp_mmshare_version>
43012

> <i_f3d_flags>
0

> <s_epik_input>
bjFbY0hdW2NIXVtjSF1bY0hdYzFbTkhdQyg9TylbTkhdW0NAQEhdMltDSDJdW0NIMl1bQ0gyXVtDSDJdW0NASF0yW09IXQ==

> <s_epik_cmdline>
J2VwaWtfcHl0aG9uJywgJy1waCcsICc3LjAnLCAnLXRuJywgJzgnLCAnLW1hJywgJzIwMCcsICctbWV0YWxfYmluZGluZycsICctaW1hZScsICc8aW5maWxlLm1hZT4nLCAnLW9tYWUnLCAnPG91dGZpbGUubWFlPic=

> <r_lp_tautomer_probability>
1

> <r_epik_Ionization_Penalty>
4.92589e-05

> <r_epik_Ionization_Penalty_Charging>
0

> <r_epik_Ionization_Penalty_Neutral>
4.92589e-05

> <r_epik_State_Penalty>
-0

> <r_epik_Charging_Adjusted_Penalty>
0

> <i_epik_Tot_Q>
0

> <i_epik_Tot_abs_Q>
0

> <r_epik_Metal_State_Penalty>
-0

> <b_epik_Metal_Only>
0

> <s_lp_Force_Field>
OPLS_2005

> <r_lp_Energy>
15.389

> <b_lp_Chiralities_Consistent>
1

> <s_lp_Variant>
AV-unprocessed.smi:1761-2

> <Gold.Version>
5.8.1

> <Gold.Id.Protein>
6NUR|6NUR_protein|mol2

> <Gold.PLP.Fitness>
42.5772

> <Gold.PLP.PLP>
-32.2954

> <Gold.PLP.part.hbond>
-3.6817

> <Gold.PLP.part.metal>
0.0000

> <Gold.PLP.part.buried>
1.9655

> <Gold.PLP.part.nonpolar>
-29.8127

> <Gold.PLP.part.repulsive>
0.1431

> <Gold.PLP.ligand.clash>
0.0000

> <Gold.PLP.ligand.torsion>
0.0521

> <Gold.PLP.Chemscore.Hbond>
3.4576

> <Gold.PLP.Chemscore.CHOScore>
0.0000

> <Gold.PLP.Chemscore.Metal>
0.0000

> <Gold.Chemscore.Hbonds>
donor molecule, donor type, donor heavy atom, donor atom, acceptor molecule, acceptor atom, score
      L1  H     3    18       P1  8028  1.00
      L1  H    10    23       P1  8028  1.00
      L1  H    17    34       P1  7957  1.00
      P1  H  7989  7998       L1    17  0.42

> <Gold.PLP.Chemscore.Internal.Correction>
0.0131

> <Gold.Rescore>
     Score         DG    S(hbond)    S(metal)    S(lipo)     H(rot)  DE(clash)    DE(int)     intcor
     18.05     -21.52       2.90        0.00      86.27       1.47       2.17       1.31       ----

> <Gold.Chemscore.Fitness>
18.0455

> <Gold.Chemscore.DG>
-21.5210

> <Gold.Chemscore.ZeroCoef>
-5.4800

> <Gold.Chemscore.Hbond>
2.9037

> <Gold.Chemscore.Metal>
0.0000

> <Gold.Chemscore.Lipo>
86.2715

> <Gold.Chemscore.Internal_Hbond>
0.0000

> <Gold.Chemscore.DEClash>
2.1682

> <Gold.Chemscore.DEInternal>
1.3073

> <Gold.Chemscore.Rot>
1.4653

> <Gold.Chemscore.Internal.Correction>
   9.000000E+99

> <Gold.Chemscore.Hbonds>
donor molecule, donor type, donor heavy atom, donor atom, acceptor molecule, acceptor atom, score
      L1  H     3    18       P1  8028  0.94
      L1  H    10    23       P1  8028  0.99
      L1  H    17    34       P1  7957  0.97
      P1  H  7989  7998       L1    17  0.03

> <Gold.Chemscore.Hbond.Weighted>
-9.6983

> <Gold.Chemscore.Metal.Weighted>
-0.0000

> <Gold.Chemscore.Lipo.Weighted>
-10.0938

> <Gold.Chemscore.Internal_Hbond.Weighted>
0.0000

> <Gold.Chemscore.DEClash.Weighted>
2.1682

> <Gold.Chemscore.DEInternal.Weighted>
1.3073

> <Gold.Chemscore.Rot.Weighted>
3.7511

> <Gold.Chemscore.Internal.Correction.Weighted>
   9.000000E+99

> <Gold.Protein.RotatedTorsions>
[ 6907 6896 6895 6894 ] final  -27.89 input  -60.11 | X-H torsion
[ 7974 7965 7964 7962 ] final   12.38 input  175.53 | X-H torsion
[ 8008 7997 7996 7995 ] final  -46.43 input   59.86 | X-H torsion
[ 10167 10162 10161 10158 ] final   88.63 input  -65.29 | X-H torsion
[ 10718 10713 10712 10709 ] final   33.10 input   66.30 | X-H torsion
[ 10763 10752 10751 10750 ] final   25.08 input  -60.55 | X-H torsion
[ 11005 11000 10999 10996 ] final   17.02 input  -57.11 | X-H torsion

> <Gold.Protein.ActiveResidues>
 VAL166  LYS551  ARG553  GLY616  TRP617  ASP618  TYR619  PRO620  LYS621  CYS622 
 ASP623  PHE694  ASN695  SER759  ASP760  ASP761  ALA762  ILE779  LEU786  VAL792 
 PHE793  MET794  SER795  GLU796  ALA797  LYS798  CYS799  TRP800  GLU811  SER814 

> <Gold.Protein.RotatedAtoms>
  151.1405  135.0177  159.8623 H   0  0  0  0  0  0  0  0  0  0  0  0  # atno 6907 bound_to 6896
  152.5452  134.1504  159.8526 H   0  0  0  0  0  0  0  0  0  0  0  0  # atno 6908 bound_to 6896
  151.1579  133.4818  159.2627 H   0  0  0  0  0  0  0  0  0  0  0  0  # atno 6909 bound_to 6896
  146.2352  139.9345  142.8491 H   0  0  0  0  0  0  0  0  0  0  0  0  # atno 7974 bound_to 7965
  154.4007  140.1372  156.4009 H   0  0  0  0  0  0  0  0  0  0  0  0  # atno 8008 bound_to 7997
  155.7825  140.3481  155.5284 H   0  0  0  0  0  0  0  0  0  0  0  0  # atno 8009 bound_to 7997
  155.8660  140.0964  157.1572 H   0  0  0  0  0  0  0  0  0  0  0  0  # atno 8010 bound_to 7997
  139.8653  144.6522  150.9011 H   0  0  0  0  0  0  0  0  0  0  0  0  # atno 10167 bound_to 10162
  157.2936  130.7315  149.6625 H   0  0  0  0  0  0  0  0  0  0  0  0  # atno 10718 bound_to 10713
  153.0717  135.6591  154.0232 H   0  0  0  0  0  0  0  0  0  0  0  0  # atno 10763 bound_to 10752
  153.9876  135.2949  155.3416 H   0  0  0  0  0  0  0  0  0  0  0  0  # atno 10764 bound_to 10752
  154.7094  135.5211  153.8713 H   0  0  0  0  0  0  0  0  0  0  0  0  # atno 10765 bound_to 10752
  140.4406  134.1325  155.7690 H   0  0  0  0  0  0  0  0  0  0  0  0  # atno 11005 bound_to 11000
  145.2012  140.9855  143.4154 LP  0  0  0  0  0  0  0  0  0  0  0  0  # atno 17320 bound_to 7965
  144.9772  139.3820  143.6280 LP  0  0  0  0  0  0  0  0  0  0  0  0  # atno 17321 bound_to 7965
  140.7769  143.3709  151.1651 LP  0  0  0  0  0  0  0  0  0  0  0  0  # atno 17342 bound_to 10162
  139.7335  143.9036  152.3027 LP  0  0  0  0  0  0  0  0  0  0  0  0  # atno 17343 bound_to 10162
  155.9668  130.4301  150.4862 LP  0  0  0  0  0  0  0  0  0  0  0  0  # atno 17370 bound_to 10713
  157.2830  131.0610  151.2185 LP  0  0  0  0  0  0  0  0  0  0  0  0  # atno 17371 bound_to 10713
  141.1707  133.8614  157.1579 LP  0  0  0  0  0  0  0  0  0  0  0  0  # atno 17394 bound_to 11000
  140.0072  135.0003  157.0318 LP  0  0  0  0  0  0  0  0  0  0  0  0  # atno 17395 bound_to 11000

$$$$
