AV-unprocessed.smi:294|AV-procd|sdf|2252|dock9
  -GOLD-   2262022133D 1   1.00000     0.00000
 Structure written by MMmdl.
 29 30  0  0  0  0  0  0  0  0  1 V2000
  146.9909  143.0057  160.0884 N   0  0  0  0  0  0  0  0  0  0  0  0
  146.7617  142.9093  158.9583 C   0  0  0  0  0  0  0  0  0  0  0  0
  146.4746  142.7882  157.5393 C   0  0  0  0  0  0  0  0  0  0  0  0
  145.3280  143.2933  156.9980 N   0  0  0  0  0  0  0  0  0  0  0  0
  145.5302  142.9517  155.7313 C   0  0  0  0  0  0  0  0  0  0  0  0
  146.6801  142.3021  155.5208 N   0  0  0  0  0  0  0  0  0  0  0  0
  147.2596  141.7862  154.2951 C   0  0  0  0  0  0  0  0  0  0  0  0
  148.5552  141.0297  154.5869 C   0  0  0  0  0  0  0  0  0  0  0  0
  149.6059  141.3798  154.0501 O   0  0  0  0  0  0  0  0  0  0  0  0
  148.4685  140.0064  155.4504 N   0  0  0  0  0  0  0  0  0  0  0  0
  149.5920  139.1898  155.8967 C   0  0  2  0  0  0  0  0  0  0  0  0
  150.4591  139.9456  156.9202 C   0  0  0  0  0  0  0  0  0  0  0  0
  151.7933  139.2049  157.0751 C   0  0  0  0  0  0  0  0  0  0  0  0
  152.1346  138.4273  155.4500 S   0  0  0  0  0  0  0  0  0  0  0  0
  153.1573  139.2061  154.7355 O   0  0  0  0  0  0  0  0  0  0  0  0
  152.2814  136.9760  155.6375 O   0  0  0  0  0  0  0  0  0  0  0  0
  150.4930  138.7843  154.7199 C   0  0  0  0  0  0  0  0  0  0  0  0
  147.3222  142.1839  156.7090 N   0  0  0  0  0  0  0  0  0  0  0  0
  144.8309  143.1827  154.9410 H   0  0  0  0  0  0  0  0  0  0  0  0
  146.5373  141.1378  153.7957 H   0  0  0  0  0  0  0  0  0  0  0  0
  147.4621  142.6206  153.6224 H   0  0  0  0  0  0  0  0  0  0  0  0
  147.5632  139.7935  155.8445 H   0  0  0  0  0  0  0  0  0  0  0  0
  149.2216  138.2842  156.3812 H   0  0  0  0  0  0  0  0  0  0  0  0
  150.6611  140.9509  156.5475 H   0  0  0  0  0  0  0  0  0  0  0  0
  149.9510  140.0580  157.8787 H   0  0  0  0  0  0  0  0  0  0  0  0
  152.6154  139.8613  157.3605 H   0  0  0  0  0  0  0  0  0  0  0  0
  151.7098  138.4094  157.8163 H   0  0  0  0  0  0  0  0  0  0  0  0
  150.1231  137.9129  154.1793 H   0  0  0  0  0  0  0  0  0  0  0  0
  150.6155  139.6061  154.0133 H   0  0  0  0  0  0  0  0  0  0  0  0
  1  2  3  0  0  0  0
  2  3  1  0  0  0  0
  3 18  2  0  0  0  0
  3  4  1  0  0  0  0
  4  5  2  0  0  0  0
  5  6  1  0  0  0  0
  5 19  1  0  0  0  0
  6  7  1  0  0  0  0
  6 18  1  0  0  0  0
  7  8  1  0  0  0  0
  7 20  1  0  0  0  0
  7 21  1  0  0  0  0
  8  9  2  0  0  0  0
  8 10  1  0  0  0  0
 10 11  1  0  0  0  0
 10 22  1  0  0  0  0
 11 17  1  0  0  0  0
 11 12  1  0  0  0  0
 11 23  1  0  0  0  0
 12 13  1  0  0  0  0
 12 24  1  0  0  0  0
 12 25  1  0  0  0  0
 13 14  1  0  0  0  0
 13 26  1  0  0  0  0
 13 27  1  0  0  0  0
 14 15  2  0  0  0  0
 14 16  2  0  0  0  0
 14 17  1  0  0  0  0
 17 28  1  0  0  0  0
 17 29  1  0  0  0  0
M  END
> <s_m_source_file>
AV-unprocessed.smi

> <i_m_source_file_index>
294

> <i_lp_mmshare_version>
43012

> <i_f3d_flags>
0

> <s_epik_input>
TiNDYzFuW2NIXW4objEpW0NIMl1DKD1PKVtOSF1bQ0BASF0oW0NIMl0yKVtDSDJdW0NIMl1TMig9Tyk9Tw==

> <s_epik_cmdline>
J2VwaWtfcHl0aG9uJywgJy1waCcsICc3LjAnLCAnLXRuJywgJzgnLCAnLW1hJywgJzIwMCcsICctbWV0YWxfYmluZGluZycsICctaW1hZScsICc8aW5maWxlLm1hZT4nLCAnLW9tYWUnLCAnPG91dGZpbGUubWFlPic=

> <r_lp_tautomer_probability>
1

> <r_epik_Ionization_Penalty>
6.08231e-07

> <r_epik_Ionization_Penalty_Charging>
0

> <r_epik_Ionization_Penalty_Neutral>
6.08231e-07

> <r_epik_State_Penalty>
-0

> <r_epik_Charging_Adjusted_Penalty>
0

> <i_epik_Tot_Q>
0

> <i_epik_Tot_abs_Q>
0

> <r_epik_Metal_State_Penalty>
-0

> <b_epik_Metal_Only>
0

> <s_lp_Force_Field>
OPLS_2005

> <r_lp_Energy>
6.42809

> <b_lp_Chiralities_Consistent>
1

> <s_lp_Variant>
AV-unprocessed.smi:294-1

> <Gold.Version>
5.8.1

> <Gold.Id.Protein>
6NUR|6NUR_protein|mol2

> <Gold.PLP.Fitness>
37.7168

> <Gold.PLP.PLP>
-24.9777

> <Gold.PLP.part.hbond>
-6.7626

> <Gold.PLP.part.metal>
0.0000

> <Gold.PLP.part.buried>
-4.0373

> <Gold.PLP.part.nonpolar>
-16.7396

> <Gold.PLP.part.repulsive>
0.5713

> <Gold.PLP.ligand.clash>
0.0000

> <Gold.PLP.ligand.torsion>
0.2200

> <Gold.PLP.Chemscore.Hbond>
4.3923

> <Gold.PLP.Chemscore.CHOScore>
0.0000

> <Gold.PLP.Chemscore.Metal>
0.0000

> <Gold.Chemscore.Hbonds>
donor molecule, donor type, donor heavy atom, donor atom, acceptor molecule, acceptor atom, score
      P1  H  6933  6944       L1     1  0.74
      P1  H  6934  6946       L1     1  0.44
      P1  H  7989  7998       L1     9  0.22
      P1  H  7997  8009       L1    15  1.00
      P1  H  8011  8017       L1     9  0.70
      P1  H 10752 10764       L1    16  0.85

> <Gold.PLP.Chemscore.Internal.Correction>
0.0022

> <Gold.Rescore>
     Score         DG    S(hbond)    S(metal)    S(lipo)     H(rot)  DE(clash)    DE(int)     intcor
     12.91     -16.37       4.00        0.00      25.97       2.15       0.36       3.11       ----

> <Gold.Chemscore.Fitness>
12.9093

> <Gold.Chemscore.DG>
-16.3707

> <Gold.Chemscore.ZeroCoef>
-5.4800

> <Gold.Chemscore.Hbond>
4.0023

> <Gold.Chemscore.Metal>
0.0000

> <Gold.Chemscore.Lipo>
25.9733

> <Gold.Chemscore.Internal_Hbond>
0.0000

> <Gold.Chemscore.DEClash>
0.3559

> <Gold.Chemscore.DEInternal>
3.1054

> <Gold.Chemscore.Rot>
2.1546

> <Gold.Chemscore.Internal.Correction>
   9.000000E+99

> <Gold.Chemscore.Hbonds>
donor molecule, donor type, donor heavy atom, donor atom, acceptor molecule, acceptor atom, score
      P1  H  6933  6944       L1     1  0.70
      P1  H  6934  6946       L1     1  0.13
      P1  H  7989  7998       L1     9  0.21
      P1  H  7997  8009       L1    15  0.94
      P1  H  8011  8017       L1     9  0.67
      P1  H 10752 10764       L1    16  0.83

> <Gold.Chemscore.Hbond.Weighted>
-13.3675

> <Gold.Chemscore.Metal.Weighted>
-0.0000

> <Gold.Chemscore.Lipo.Weighted>
-3.0389

> <Gold.Chemscore.Internal_Hbond.Weighted>
0.0000

> <Gold.Chemscore.DEClash.Weighted>
0.3559

> <Gold.Chemscore.DEInternal.Weighted>
3.1054

> <Gold.Chemscore.Rot.Weighted>
5.5158

> <Gold.Chemscore.Internal.Correction.Weighted>
   9.000000E+99

> <Gold.Protein.RotatedTorsions>
[ 6907 6896 6895 6894 ] final   89.16 input  -60.11 | X-H torsion
[ 7974 7965 7964 7962 ] final  135.61 input  175.53 | X-H torsion
[ 8008 7997 7996 7995 ] final -129.34 input   59.86 | X-H torsion
[ 10167 10162 10161 10158 ] final   24.39 input  -65.29 | X-H torsion
[ 10718 10713 10712 10709 ] final   52.36 input   66.30 | X-H torsion
[ 10763 10752 10751 10750 ] final  -52.18 input  -60.55 | X-H torsion
[ 11005 11000 10999 10996 ] final  101.04 input  -57.11 | X-H torsion

> <Gold.Protein.ActiveResidues>
 VAL166  LYS551  ARG553  GLY616  TRP617  ASP618  TYR619  PRO620  LYS621  CYS622 
 ASP623  PHE694  ASN695  SER759  ASP760  ASP761  ALA762  ILE779  LEU786  VAL792 
 PHE793  MET794  SER795  GLU796  ALA797  LYS798  CYS799  TRP800  GLU811  SER814 

> <Gold.Protein.RotatedAtoms>
  152.5433  134.2010  159.8711 H   0  0  0  0  0  0  0  0  0  0  0  0  # atno 6907 bound_to 6896
  151.1998  133.4610  159.2603 H   0  0  0  0  0  0  0  0  0  0  0  0  # atno 6908 bound_to 6896
  151.1000  134.9979  159.8500 H   0  0  0  0  0  0  0  0  0  0  0  0  # atno 6909 bound_to 6896
  144.9646  139.4672  143.5462 H   0  0  0  0  0  0  0  0  0  0  0  0  # atno 7974 bound_to 7965
  155.2775  140.0442  157.3012 H   0  0  0  0  0  0  0  0  0  0  0  0  # atno 8008 bound_to 7997
  154.5616  140.2348  155.8295 H   0  0  0  0  0  0  0  0  0  0  0  0  # atno 8009 bound_to 7997
  156.2052  140.3014  155.9619 H   0  0  0  0  0  0  0  0  0  0  0  0  # atno 8010 bound_to 7997
  140.5192  144.0031  150.6408 H   0  0  0  0  0  0  0  0  0  0  0  0  # atno 10167 bound_to 10162
  157.5067  130.8474  149.8384 H   0  0  0  0  0  0  0  0  0  0  0  0  # atno 10718 bound_to 10713
  154.1386  135.6509  153.4937 H   0  0  0  0  0  0  0  0  0  0  0  0  # atno 10763 bound_to 10752
  153.0173  135.5310  154.6928 H   0  0  0  0  0  0  0  0  0  0  0  0  # atno 10764 bound_to 10752
  154.6183  135.2961  155.0326 H   0  0  0  0  0  0  0  0  0  0  0  0  # atno 10765 bound_to 10752
  139.8772  134.9166  156.4847 H   0  0  0  0  0  0  0  0  0  0  0  0  # atno 11005 bound_to 11000
  146.3364  139.8819  142.8823 LP  0  0  0  0  0  0  0  0  0  0  0  0  # atno 17320 bound_to 7965
  145.2648  141.0089  143.3805 LP  0  0  0  0  0  0  0  0  0  0  0  0  # atno 17321 bound_to 7965
  140.3375  143.3040  152.0623 LP  0  0  0  0  0  0  0  0  0  0  0  0  # atno 17342 bound_to 10162
  139.4918  144.6466  151.6765 LP  0  0  0  0  0  0  0  0  0  0  0  0  # atno 17343 bound_to 10162
  156.0263  130.3778  150.1814 LP  0  0  0  0  0  0  0  0  0  0  0  0  # atno 17370 bound_to 10713
  157.0004  130.9920  151.3392 LP  0  0  0  0  0  0  0  0  0  0  0  0  # atno 17371 bound_to 10713
  140.8702  133.7994  155.9356 LP  0  0  0  0  0  0  0  0  0  0  0  0  # atno 17394 bound_to 11000
  140.8961  134.2436  157.5068 LP  0  0  0  0  0  0  0  0  0  0  0  0  # atno 17395 bound_to 11000

$$$$
