AV-unprocessed.smi:1027|AV-procd|sdf|4471|dock5
  -GOLD-   22720 2443D 1   1.00000     0.00000
 Structure written by MMmdl.
 34 35  0  0  0  0  0  0  0  0  2 V2000
  152.8278  144.0646  159.0163 C   0  0  0  0  0  0  0  0  0  0  0  0
  152.3146  142.7183  159.5589 C   0  0  0  0  0  0  0  0  0  0  0  0
  153.4026  142.0737  160.4402 C   0  0  0  0  0  0  0  0  0  0  0  0
  151.8357  141.7679  158.4294 C   0  0  2  0  0  0  0  0  0  0  0  0
  150.7101  142.3669  157.5646 C   0  0  0  0  0  0  0  0  0  0  0  0
  151.3702  140.5031  159.0001 N   0  0  0  0  0  0  0  0  0  0  0  0
  151.7973  139.2745  158.6727 C   0  0  0  0  0  0  0  0  0  0  0  0
  152.6576  139.1316  157.8006 O   0  0  0  0  0  0  0  0  0  0  0  0
  151.2007  138.2865  159.3782 N   0  5  0  0  0  0  0  0  0  0  0  0
  150.5917  137.2763  158.7355 C   0  0  0  0  0  0  0  0  0  0  0  0
  149.6229  136.5440  159.3027 N   0  0  0  0  0  0  0  0  0  0  0  0
  149.1309  135.5516  158.4674 N   0  0  0  0  0  0  0  0  0  0  0  0
  149.7423  135.5431  157.2806 C   0  0  0  0  0  0  0  0  0  0  0  0
  149.3876  134.5707  156.2057 C   0  0  0  0  0  0  0  0  0  0  0  0
  148.0335  134.5957  155.5307 C   0  0  0  0  0  0  0  0  0  0  0  0
  148.3887  133.4658  156.4629 C   0  0  0  0  0  0  0  0  0  0  0  0
  150.9920  136.7636  157.0966 S   0  0  0  0  0  0  0  0  0  0  0  0
  153.6431  143.9206  158.3069 H   0  0  0  0  0  0  0  0  0  0  0  0
  153.1996  144.6965  159.8234 H   0  0  0  0  0  0  0  0  0  0  0  0
  152.0409  144.6271  158.5151 H   0  0  0  0  0  0  0  0  0  0  0  0
  151.4615  142.9319  160.2047 H   0  0  0  0  0  0  0  0  0  0  0  0
  154.2720  141.7885  159.8471 H   0  0  0  0  0  0  0  0  0  0  0  0
  153.0398  141.1803  160.9489 H   0  0  0  0  0  0  0  0  0  0  0  0
  153.7411  142.7631  161.2141 H   0  0  0  0  0  0  0  0  0  0  0  0
  152.6914  141.5664  157.7823 H   0  0  0  0  0  0  0  0  0  0  0  0
  151.0451  143.2466  157.0165 H   0  0  0  0  0  0  0  0  0  0  0  0
  149.8528  142.6552  158.1735 H   0  0  0  0  0  0  0  0  0  0  0  0
  150.3607  141.6493  156.8213 H   0  0  0  0  0  0  0  0  0  0  0  0
  150.6634  140.5654  159.7182 H   0  0  0  0  0  0  0  0  0  0  0  0
  150.2572  134.3405  155.5934 H   0  0  0  0  0  0  0  0  0  0  0  0
  147.2962  135.3153  155.8810 H   0  0  0  0  0  0  0  0  0  0  0  0
  148.0008  134.3768  154.4655 H   0  0  0  0  0  0  0  0  0  0  0  0
  148.5926  132.4926  156.0209 H   0  0  0  0  0  0  0  0  0  0  0  0
  147.8985  133.4442  157.4342 H   0  0  0  0  0  0  0  0  0  0  0  0
  1  2  1  0  0  0  0
  1 18  1  0  0  0  0
  1 19  1  0  0  0  0
  1 20  1  0  0  0  0
  2  3  1  0  0  0  0
  2  4  1  0  0  0  0
  2 21  1  0  0  0  0
  3 22  1  0  0  0  0
  3 23  1  0  0  0  0
  3 24  1  0  0  0  0
  4  5  1  0  0  0  0
  4  6  1  0  0  0  0
  4 25  1  0  0  0  0
  5 26  1  0  0  0  0
  5 27  1  0  0  0  0
  5 28  1  0  0  0  0
  6  7  1  0  0  0  0
  6 29  1  0  0  0  0
  7  8  2  0  0  0  0
  7  9  1  0  0  0  0
  9 10  1  0  0  0  0
 10 17  1  0  0  0  0
 10 11  2  0  0  0  0
 11 12  1  0  0  0  0
 12 13  2  0  0  0  0
 13 14  1  0  0  0  0
 13 17  1  0  0  0  0
 14 16  1  0  0  0  0
 14 15  1  0  0  0  0
 14 30  1  0  0  0  0
 15 16  1  0  0  0  0
 15 31  1  0  0  0  0
 15 32  1  0  0  0  0
 16 33  1  0  0  0  0
 16 34  1  0  0  0  0
M  CHG  1   9  -1
M  END
> <s_m_source_file>
AV-unprocessed.smi

> <i_m_source_file_index>
1027

> <i_lp_mmshare_version>
43012

> <i_f3d_flags>
0

> <s_epik_input>
W0NIM11bQ0hdKFtDSDNdKVtDQEhdKFtDSDNdKVtOSF1DKD1PKVtOSF1jMW5uYyhzMSlbQ0hdMltDSDJdW0NIMl0y

> <s_epik_cmdline>
J2VwaWtfcHl0aG9uJywgJy1waCcsICc3LjAnLCAnLXRuJywgJzgnLCAnLW1hJywgJzIwMCcsICctbWV0YWxfYmluZGluZycsICctaW1hZScsICc8aW5maWxlLm1hZT4nLCAnLW9tYWUnLCAnPG91dGZpbGUubWFlPic=

> <r_lp_tautomer_probability>
1

> <r_epik_Ionization_Penalty>
3.99975

> <r_epik_Ionization_Penalty_Charging>
3.83446

> <r_epik_Ionization_Penalty_Neutral>
0.165297

> <r_epik_State_Penalty>
3.83354

> <r_epik_Charging_Adjusted_Penalty>
7.668

> <i_epik_Tot_Q>
-1

> <i_epik_Tot_abs_Q>
1

> <r_epik_Metal_State_Penalty>
0.575872

> <b_epik_Metal_Only>
1

> <s_lp_Force_Field>
OPLS_2005

> <r_lp_Energy>
2.28672

> <b_lp_Chiralities_Consistent>
1

> <s_lp_Variant>
AV-unprocessed.smi:1027-3

> <Gold.Version>
5.8.1

> <Gold.Id.Protein>
6NUR|6NUR_protein|mol2

> <Gold.PLP.Fitness>
34.4088

> <Gold.PLP.PLP>
-30.9470

> <Gold.PLP.part.hbond>
-3.0000

> <Gold.PLP.part.metal>
0.0000

> <Gold.PLP.part.buried>
-4.4217

> <Gold.PLP.part.nonpolar>
-23.9466

> <Gold.PLP.part.repulsive>
0.1500

> <Gold.PLP.ligand.clash>
0.0000

> <Gold.PLP.ligand.torsion>
0.7509

> <Gold.PLP.Chemscore.Hbond>
1.6016

> <Gold.PLP.Chemscore.CHOScore>
0.0000

> <Gold.PLP.Chemscore.Metal>
0.0000

> <Gold.Chemscore.Hbonds>
donor molecule, donor type, donor heavy atom, donor atom, acceptor molecule, acceptor atom, score
      P1  H  6896  6908       L1    11  0.06
      P1  H  7997  8009       L1     8  0.44

> <Gold.PLP.Chemscore.Internal.Correction>
0.1589

> <Gold.Rescore>
     Score         DG    S(hbond)    S(metal)    S(lipo)     H(rot)  DE(clash)    DE(int)     intcor
     13.03     -14.97       1.27        0.00      74.71       1.36       0.04       1.91       ----

> <Gold.Chemscore.Fitness>
13.0318

> <Gold.Chemscore.DG>
-14.9738

> <Gold.Chemscore.ZeroCoef>
-5.4800

> <Gold.Chemscore.Hbond>
1.2693

> <Gold.Chemscore.Metal>
0.0000

> <Gold.Chemscore.Lipo>
74.7063

> <Gold.Chemscore.Internal_Hbond>
0.0000

> <Gold.Chemscore.DEClash>
0.0354

> <Gold.Chemscore.DEInternal>
1.9066

> <Gold.Chemscore.Rot>
1.3618

> <Gold.Chemscore.Internal.Correction>
   9.000000E+99

> <Gold.Chemscore.Hbonds>
donor molecule, donor type, donor heavy atom, donor atom, acceptor molecule, acceptor atom, score
      P1  H  7997  8009       L1     8  0.44

> <Gold.Chemscore.Hbond.Weighted>
-4.2395

> <Gold.Chemscore.Metal.Weighted>
-0.0000

> <Gold.Chemscore.Lipo.Weighted>
-8.7406

> <Gold.Chemscore.Internal_Hbond.Weighted>
0.0000

> <Gold.Chemscore.DEClash.Weighted>
0.0354

> <Gold.Chemscore.DEInternal.Weighted>
1.9066

> <Gold.Chemscore.Rot.Weighted>
3.4863

> <Gold.Chemscore.Internal.Correction.Weighted>
   9.000000E+99

> <Gold.Protein.RotatedTorsions>
[ 6907 6896 6895 6894 ] final -139.77 input  -60.11 | X-H torsion
[ 7974 7965 7964 7962 ] final -130.85 input  175.53 | X-H torsion
[ 8008 7997 7996 7995 ] final  157.64 input   59.86 | X-H torsion
[ 10167 10162 10161 10158 ] final  -13.02 input  -65.29 | X-H torsion
[ 10718 10713 10712 10709 ] final -179.17 input   66.30 | X-H torsion
[ 10763 10752 10751 10750 ] final  131.30 input  -60.55 | X-H torsion
[ 11005 11000 10999 10996 ] final   12.74 input  -57.11 | X-H torsion

> <Gold.Protein.ActiveResidues>
 VAL166  LYS551  ARG553  GLY616  TRP617  ASP618  TYR619  PRO620  LYS621  CYS622 
 ASP623  PHE694  ASN695  SER759  ASP760  ASP761  ALA762  ILE779  LEU786  VAL792 
 PHE793  MET794  SER795  GLU796  ALA797  LYS798  CYS799  TRP800  GLU811  SER814 

> <Gold.Protein.RotatedAtoms>
  151.0521  133.5615  159.2641 H   0  0  0  0  0  0  0  0  0  0  0  0  # atno 6907 bound_to 6896
  151.2622  135.0657  159.9112 H   0  0  0  0  0  0  0  0  0  0  0  0  # atno 6908 bound_to 6896
  152.5383  134.0265  159.8059 H   0  0  0  0  0  0  0  0  0  0  0  0  # atno 6909 bound_to 6896
  144.9435  140.7265  143.4832 H   0  0  0  0  0  0  0  0  0  0  0  0  # atno 7974 bound_to 7965
  156.2351  140.1880  156.7140 H   0  0  0  0  0  0  0  0  0  0  0  0  # atno 8008 bound_to 7997
  154.6092  140.0624  156.9499 H   0  0  0  0  0  0  0  0  0  0  0  0  # atno 8009 bound_to 7997
  155.2044  140.3295  155.4341 H   0  0  0  0  0  0  0  0  0  0  0  0  # atno 8010 bound_to 7997
  140.7173  143.5471  150.9343 H   0  0  0  0  0  0  0  0  0  0  0  0  # atno 10167 bound_to 10162
  156.8551  130.9732  151.3089 H   0  0  0  0  0  0  0  0  0  0  0  0  # atno 10718 bound_to 10713
  153.7722  135.3180  155.3353 H   0  0  0  0  0  0  0  0  0  0  0  0  # atno 10763 bound_to 10752
  154.8192  135.4615  154.0733 H   0  0  0  0  0  0  0  0  0  0  0  0  # atno 10764 bound_to 10752
  153.1996  135.6920  153.8332 H   0  0  0  0  0  0  0  0  0  0  0  0  # atno 10765 bound_to 10752
  140.4886  134.0863  155.7766 H   0  0  0  0  0  0  0  0  0  0  0  0  # atno 11005 bound_to 11000
  145.2954  139.1869  143.4718 LP  0  0  0  0  0  0  0  0  0  0  0  0  # atno 17320 bound_to 7965
  146.3295  140.2937  142.8616 LP  0  0  0  0  0  0  0  0  0  0  0  0  # atno 17321 bound_to 7965
  139.9194  143.6624  152.3100 LP  0  0  0  0  0  0  0  0  0  0  0  0  # atno 17342 bound_to 10162
  139.7035  144.7631  151.1232 LP  0  0  0  0  0  0  0  0  0  0  0  0  # atno 17343 bound_to 10162
  157.6281  130.8708  149.9226 LP  0  0  0  0  0  0  0  0  0  0  0  0  # atno 17370 bound_to 10713
  156.0807  130.3673  150.0587 LP  0  0  0  0  0  0  0  0  0  0  0  0  # atno 17371 bound_to 10713
  141.1495  133.8994  157.2133 LP  0  0  0  0  0  0  0  0  0  0  0  0  # atno 17394 bound_to 11000
  139.9783  135.0107  156.9685 LP  0  0  0  0  0  0  0  0  0  0  0  0  # atno 17395 bound_to 11000

$$$$
