AV-unprocessed.smi:2273|AV-procd|sdf|9164|dock7
  -GOLD-   2272012373D 1   1.00000     0.00000
 Structure written by MMmdl.
 53 54  0  0  0  0  0  0  0  0  1 V2000
  152.6891  141.9165  159.3565 C   0  0  0  0  0  0  0  0  0  0  0  0
  151.8803  140.8527  158.6046 C   0  0  0  0  0  0  0  0  0  0  0  0
  151.5831  141.1469  157.1091 C   0  0  0  0  0  0  0  0  0  0  0  0
  150.7095  142.4242  156.9833 C   0  0  0  0  0  0  0  0  0  0  0  0
  149.4177  142.4178  157.8159 C   0  0  0  0  0  0  0  0  0  0  0  0
  150.9332  139.9239  156.3926 C   0  0  2  0  0  0  0  0  0  0  0  0
  151.7785  138.6298  156.5045 C   0  0  0  0  0  0  0  0  0  0  0  0
  151.0968  137.4406  155.8019 C   0  0  1  0  0  0  0  0  0  0  0  0
  149.8947  137.0101  156.5238 N   0  0  0  0  0  0  0  0  0  0  0  0
  149.8050  136.4329  157.7355 C   0  0  0  0  0  0  0  0  0  0  0  0
  150.8093  136.1852  158.4009 O   0  0  0  0  0  0  0  0  0  0  0  0
  148.5454  136.1530  158.1284 N   0  0  0  0  0  0  0  0  0  0  0  0
  148.1567  135.5413  159.3312 C   0  0  0  0  0  0  0  0  0  0  0  0
  147.9892  134.1927  159.3554 C   0  0  0  0  0  0  0  0  0  0  0  0
  148.2531  133.3298  158.1321 C   0  0  0  0  0  0  0  0  0  0  0  0
  147.5760  133.5553  160.5883 C   0  0  0  0  0  0  0  0  0  0  0  0
  147.3584  134.3047  161.6769 C   0  0  0  0  0  0  0  0  0  0  0  0
  147.5018  135.6990  161.6513 N   0  0  0  0  0  0  0  0  0  0  0  0
  147.2243  136.4315  162.8896 C   0  0  0  0  0  0  0  0  0  0  0  0
  147.8486  136.3761  160.5189 C   0  0  0  0  0  0  0  0  0  0  0  0
  147.8768  137.6089  160.5065 O   0  0  0  0  0  0  0  0  0  0  0  0
  150.7404  137.8379  154.3622 C   0  0  0  0  0  0  0  0  0  0  0  0
  149.9991  139.1836  154.3208 C   0  0  0  0  0  0  0  0  0  0  0  0
  150.7634  140.1766  154.9968 O   0  0  0  0  0  0  0  0  0  0  0  0
  152.7340  141.6817  160.4202 H   0  0  0  0  0  0  0  0  0  0  0  0
  152.2344  142.9022  159.2565 H   0  0  0  0  0  0  0  0  0  0  0  0
  153.7176  141.9671  158.9997 H   0  0  0  0  0  0  0  0  0  0  0  0
  152.3907  139.8930  158.6940 H   0  0  0  0  0  0  0  0  0  0  0  0
  150.9416  140.7428  159.1454 H   0  0  0  0  0  0  0  0  0  0  0  0
  152.5276  141.3675  156.6095 H   0  0  0  0  0  0  0  0  0  0  0  0
  151.2804  143.2904  157.3178 H   0  0  0  0  0  0  0  0  0  0  0  0
  150.4660  142.6064  155.9359 H   0  0  0  0  0  0  0  0  0  0  0  0
  148.9422  143.3983  157.7893 H   0  0  0  0  0  0  0  0  0  0  0  0
  149.6211  142.1781  158.8599 H   0  0  0  0  0  0  0  0  0  0  0  0
  148.6888  141.7024  157.4365 H   0  0  0  0  0  0  0  0  0  0  0  0
  149.9422  139.7664  156.8224 H   0  0  0  0  0  0  0  0  0  0  0  0
  152.7501  138.8026  156.0395 H   0  0  0  0  0  0  0  0  0  0  0  0
  151.9939  138.3716  157.5383 H   0  0  0  0  0  0  0  0  0  0  0  0
  151.7963  136.6051  155.7478 H   0  0  0  0  0  0  0  0  0  0  0  0
  149.0186  137.2139  156.0647 H   0  0  0  0  0  0  0  0  0  0  0  0
  147.8115  136.2912  157.4494 H   0  0  0  0  0  0  0  0  0  0  0  0
  147.9971  132.2870  158.3213 H   0  0  0  0  0  0  0  0  0  0  0  0
  149.3079  133.3730  157.8637 H   0  0  0  0  0  0  0  0  0  0  0  0
  147.6622  133.6697  157.2809 H   0  0  0  0  0  0  0  0  0  0  0  0
  147.4519  132.4834  160.6387 H   0  0  0  0  0  0  0  0  0  0  0  0
  147.0520  133.8862  162.6245 H   0  0  0  0  0  0  0  0  0  0  0  0
  148.0583  137.0867  163.1465 H   0  0  0  0  0  0  0  0  0  0  0  0
  147.0622  135.7708  163.7420 H   0  0  0  0  0  0  0  0  0  0  0  0
  146.3309  137.0468  162.7754 H   0  0  0  0  0  0  0  0  0  0  0  0
  151.6587  137.9263  153.7802 H   0  0  0  0  0  0  0  0  0  0  0  0
  150.1468  137.0592  153.8817 H   0  0  0  0  0  0  0  0  0  0  0  0
  149.8534  139.4964  153.2870 H   0  0  0  0  0  0  0  0  0  0  0  0
  149.0071  139.1012  154.7675 H   0  0  0  0  0  0  0  0  0  0  0  0
  1  2  1  0  0  0  0
  1 25  1  0  0  0  0
  1 26  1  0  0  0  0
  1 27  1  0  0  0  0
  2  3  1  0  0  0  0
  2 28  1  0  0  0  0
  2 29  1  0  0  0  0
  3  4  1  0  0  0  0
  3  6  1  0  0  0  0
  3 30  1  0  0  0  0
  4  5  1  0  0  0  0
  4 31  1  0  0  0  0
  4 32  1  0  0  0  0
  5 33  1  0  0  0  0
  5 34  1  0  0  0  0
  5 35  1  0  0  0  0
  6 24  1  0  0  0  0
  6  7  1  0  0  0  0
  6 36  1  0  0  0  0
  7  8  1  0  0  0  0
  7 37  1  0  0  0  0
  7 38  1  0  0  0  0
  8  9  1  0  0  0  0
  8 22  1  0  0  0  0
  8 39  1  0  0  0  0
  9 10  1  0  0  0  0
  9 40  1  0  0  0  0
 10 11  2  0  0  0  0
 10 12  1  0  0  0  0
 12 13  1  0  0  0  0
 12 41  1  0  0  0  0
 13 20  1  0  0  0  0
 13 14  2  0  0  0  0
 14 15  1  0  0  0  0
 14 16  1  0  0  0  0
 15 42  1  0  0  0  0
 15 43  1  0  0  0  0
 15 44  1  0  0  0  0
 16 17  2  0  0  0  0
 16 45  1  0  0  0  0
 17 18  1  0  0  0  0
 17 46  1  0  0  0  0
 18 19  1  0  0  0  0
 18 20  1  0  0  0  0
 19 47  1  0  0  0  0
 19 48  1  0  0  0  0
 19 49  1  0  0  0  0
 20 21  2  0  0  0  0
 22 23  1  0  0  0  0
 22 50  1  0  0  0  0
 22 51  1  0  0  0  0
 23 24  1  0  0  0  0
 23 52  1  0  0  0  0
 23 53  1  0  0  0  0
M  END
> <s_m_source_file>
AV-unprocessed.smi

> <i_m_source_file_index>
2273

> <i_lp_mmshare_version>
43012

> <i_f3d_flags>
0

> <s_epik_input>
W0NIM11bQ0gyXVtDSF0oW0NIMl1bQ0gzXSlbQ0BASF0xW0NIMl1bQ0BIXShbQ0gyXVtDSDJdTzEpW05IXUMoPU8pW05IXWMyYyhbQ0gzXSlbY0hdW2NIXW4oW0NIM10pYzI9Tw==

> <s_epik_cmdline>
J2VwaWtfcHl0aG9uJywgJy1waCcsICc3LjAnLCAnLXRuJywgJzgnLCAnLW1hJywgJzIwMCcsICctbWV0YWxfYmluZGluZycsICctaW1hZScsICc8aW5maWxlLm1hZT4nLCAnLW9tYWUnLCAnPG91dGZpbGUubWFlPic=

> <r_lp_tautomer_probability>
1

> <r_epik_Ionization_Penalty>
2.66245e-05

> <r_epik_Ionization_Penalty_Charging>
6.91055e-06

> <r_epik_Ionization_Penalty_Neutral>
1.97139e-05

> <r_epik_State_Penalty>
-0

> <r_epik_Charging_Adjusted_Penalty>
6.91055e-06

> <i_epik_Tot_Q>
0

> <i_epik_Tot_abs_Q>
0

> <r_epik_Metal_State_Penalty>
-0

> <b_epik_Metal_Only>
0

> <s_lp_Force_Field>
OPLS_2005

> <r_lp_Energy>
42.8548

> <b_lp_Chiralities_Consistent>
1

> <s_lp_Variant>
AV-unprocessed.smi:2273-1

> <Gold.Version>
5.8.1

> <Gold.Id.Protein>
6NUR|6NUR_protein|mol2

> <Gold.PLP.Fitness>
48.2705

> <Gold.PLP.PLP>
-40.3429

> <Gold.PLP.part.hbond>
-4.0000

> <Gold.PLP.part.metal>
0.0000

> <Gold.PLP.part.buried>
-5.2241

> <Gold.PLP.part.nonpolar>
-32.9366

> <Gold.PLP.part.repulsive>
0.1271

> <Gold.PLP.ligand.clash>
0.0000

> <Gold.PLP.ligand.torsion>
0.8894

> <Gold.PLP.Chemscore.Hbond>
3.0480

> <Gold.PLP.Chemscore.CHOScore>
0.0000

> <Gold.PLP.Chemscore.Metal>
0.0000

> <Gold.Chemscore.Hbonds>
donor molecule, donor type, donor heavy atom, donor atom, acceptor molecule, acceptor atom, score
      P1  H  6896  6908       L1    11  0.72
      P1  H  6931  6943       L1    21  0.56
      P1  H  6934  6947       L1    21  0.72
      P1  H  7989  7998       L1    24  0.90

> <Gold.PLP.Chemscore.Internal.Correction>
0.5623

> <Gold.Rescore>
     Score         DG    S(hbond)    S(metal)    S(lipo)     H(rot)  DE(clash)    DE(int)     intcor
     19.25     -20.88       2.23        0.00      99.05       1.42       0.36       1.28       ----

> <Gold.Chemscore.Fitness>
19.2495

> <Gold.Chemscore.DG>
-20.8821

> <Gold.Chemscore.ZeroCoef>
-5.4800

> <Gold.Chemscore.Hbond>
2.2329

> <Gold.Chemscore.Metal>
0.0000

> <Gold.Chemscore.Lipo>
99.0495

> <Gold.Chemscore.Internal_Hbond>
0.0000

> <Gold.Chemscore.DEClash>
0.3573

> <Gold.Chemscore.DEInternal>
1.2753

> <Gold.Chemscore.Rot>
1.4236

> <Gold.Chemscore.Internal.Correction>
   9.000000E+99

> <Gold.Chemscore.Hbonds>
donor molecule, donor type, donor heavy atom, donor atom, acceptor molecule, acceptor atom, score
      P1  H  6896  6908       L1    11  0.72
      P1  H  6931  6943       L1    21  0.44
      P1  H  6934  6947       L1    21  0.71
      P1  H  7989  7998       L1    24  0.18

> <Gold.Chemscore.Hbond.Weighted>
-7.4578

> <Gold.Chemscore.Metal.Weighted>
-0.0000

> <Gold.Chemscore.Lipo.Weighted>
-11.5888

> <Gold.Chemscore.Internal_Hbond.Weighted>
0.0000

> <Gold.Chemscore.DEClash.Weighted>
0.3573

> <Gold.Chemscore.DEInternal.Weighted>
1.2753

> <Gold.Chemscore.Rot.Weighted>
3.6445

> <Gold.Chemscore.Internal.Correction.Weighted>
   9.000000E+99

> <Gold.Protein.RotatedTorsions>
[ 6907 6896 6895 6894 ] final -165.62 input  -60.11 | X-H torsion
[ 7974 7965 7964 7962 ] final -149.30 input  175.53 | X-H torsion
[ 8008 7997 7996 7995 ] final -171.79 input   59.86 | X-H torsion
[ 10167 10162 10161 10158 ] final  162.13 input  -65.29 | X-H torsion
[ 10718 10713 10712 10709 ] final -112.34 input   66.30 | X-H torsion
[ 10763 10752 10751 10750 ] final   12.28 input  -60.55 | X-H torsion
[ 11005 11000 10999 10996 ] final   74.97 input  -57.11 | X-H torsion

> <Gold.Protein.ActiveResidues>
 VAL166  LYS551  ARG553  GLY616  TRP617  ASP618  TYR619  PRO620  LYS621  CYS622 
 ASP623  PHE694  ASN695  SER759  ASP760  ASP761  ALA762  ILE779  LEU786  VAL792 
 PHE793  MET794  SER795  GLU796  ALA797  LYS798  CYS799  TRP800  GLU811  SER814 

> <Gold.Protein.RotatedAtoms>
  151.4306  133.3671  159.2767 H   0  0  0  0  0  0  0  0  0  0  0  0  # atno 6907 bound_to 6896
  150.9228  134.8647  159.7511 H   0  0  0  0  0  0  0  0  0  0  0  0  # atno 6908 bound_to 6896
  152.4990  134.4245  159.9543 H   0  0  0  0  0  0  0  0  0  0  0  0  # atno 6909 bound_to 6896
  144.7976  140.5083  143.5729 H   0  0  0  0  0  0  0  0  0  0  0  0  # atno 7974 bound_to 7965
  155.9362  140.1100  157.1093 H   0  0  0  0  0  0  0  0  0  0  0  0  # atno 8008 bound_to 7997
  154.4080  140.1228  156.4933 H   0  0  0  0  0  0  0  0  0  0  0  0  # atno 8009 bound_to 7997
  155.7019  140.3472  155.4939 H   0  0  0  0  0  0  0  0  0  0  0  0  # atno 8010 bound_to 7997
  139.4857  144.4467  151.8882 H   0  0  0  0  0  0  0  0  0  0  0  0  # atno 10167 bound_to 10162
  156.0700  130.5915  150.8495 H   0  0  0  0  0  0  0  0  0  0  0  0  # atno 10718 bound_to 10713
  153.1838  135.6832  153.8442 H   0  0  0  0  0  0  0  0  0  0  0  0  # atno 10763 bound_to 10752
  153.7765  135.3188  155.3361 H   0  0  0  0  0  0  0  0  0  0  0  0  # atno 10764 bound_to 10752
  154.8076  135.4738  154.0528 H   0  0  0  0  0  0  0  0  0  0  0  0  # atno 10765 bound_to 10752
  139.9365  134.7478  156.1213 H   0  0  0  0  0  0  0  0  0  0  0  0  # atno 11005 bound_to 11000
  145.5634  139.1480  143.3328 LP  0  0  0  0  0  0  0  0  0  0  0  0  # atno 17320 bound_to 7965
  146.2248  140.5770  142.9001 LP  0  0  0  0  0  0  0  0  0  0  0  0  # atno 17321 bound_to 7965
  140.3922  144.2601  150.5899 LP  0  0  0  0  0  0  0  0  0  0  0  0  # atno 17342 bound_to 10162
  140.5135  143.2284  151.8498 LP  0  0  0  0  0  0  0  0  0  0  0  0  # atno 17343 bound_to 10162
  157.5765  131.0946  150.9338 LP  0  0  0  0  0  0  0  0  0  0  0  0  # atno 17370 bound_to 10713
  156.9543  130.5431  149.5283 LP  0  0  0  0  0  0  0  0  0  0  0  0  # atno 17371 bound_to 10713
  141.0982  133.6687  156.2692 LP  0  0  0  0  0  0  0  0  0  0  0  0  # atno 17394 bound_to 11000
  140.6061  134.5505  157.5526 LP  0  0  0  0  0  0  0  0  0  0  0  0  # atno 17395 bound_to 11000

$$$$
