AV-unprocessed.smi:217|AV-procd|sdf|1661|dock8
  -GOLD-   2262020 63D 1   1.00000     0.00000
 Structure written by MMmdl.
 57 61  0  0  0  0  0  0  0  0  1 V2000
  147.2665  134.3634  152.0444 O   0  0  0  0  0  0  0  0  0  0  0  0
  147.9184  133.1143  152.1490 C   0  0  0  0  0  0  0  0  0  0  0  0
  148.5442  132.9255  153.5407 C   0  0  0  0  0  0  0  0  0  0  0  0
  148.4847  131.4339  153.9303 C   0  0  0  0  0  0  0  0  0  0  0  0
  149.1462  130.6210  152.9820 O   0  0  0  0  0  0  0  0  0  0  0  0
  149.9162  133.6055  153.7486 C   0  0  0  0  0  0  0  0  0  0  0  0
  149.4767  134.0496  155.1458 C   0  0  0  0  0  0  0  0  0  0  0  0
  149.9423  135.2808  155.7141 N   0  0  0  0  0  0  0  0  0  0  0  0
  150.6229  136.2838  155.0618 C   0  0  0  0  0  0  0  0  0  0  0  0
  150.8921  137.3360  155.7857 N   0  0  0  0  0  0  0  0  0  0  0  0
  150.3279  137.0512  157.0238 C   0  0  0  0  0  0  0  0  0  0  0  0
  150.2303  137.7580  158.2564 C   0  0  0  0  0  0  0  0  0  0  0  0
  150.7763  138.9871  158.4459 N   0  0  0  0  0  0  0  0  0  0  0  0
  150.2126  140.0414  157.6042 C   0  0  0  0  0  0  0  0  0  0  0  0
  150.5941  141.4329  158.1350 C   0  0  0  0  0  0  0  0  0  0  0  0
  152.1216  141.5800  158.2873 C   0  0  0  0  0  0  0  0  0  0  0  0
  152.5055  142.9685  158.8378 C   0  0  1  0  0  0  0  0  0  0  0  0
  151.8299  144.1471  158.1351 C   0  0  0  0  0  0  0  0  0  0  0  0
  151.8520  145.2484  159.1828 C   0  0  0  0  0  0  0  0  0  0  0  0
  152.1230  144.5078  160.4953 C   0  0  0  0  0  0  0  0  0  0  0  0
  152.0424  143.1270  160.1699 O   0  0  0  0  0  0  0  0  0  0  0  0
  152.6408  140.4374  159.1837 C   0  0  0  0  0  0  0  0  0  0  0  0
  152.2258  139.0621  158.6367 C   0  0  0  0  0  0  0  0  0  0  0  0
  149.5513  137.1540  159.2689 N   0  0  0  0  0  0  0  0  0  0  0  0
  149.0113  135.9445  159.0950 C   0  0  0  0  0  0  0  0  0  0  0  0
  149.0300  135.1714  158.0083 N   0  0  0  0  0  0  0  0  0  0  0  0
  149.7076  135.7698  156.9873 C   0  0  0  0  0  0  0  0  0  0  0  0
  148.0447  133.9064  154.6246 C   0  0  0  0  0  0  0  0  0  0  0  0
  147.9174  135.0296  151.8836 H   0  0  0  0  0  0  0  0  0  0  0  0
  147.2072  132.3216  151.9164 H   0  0  0  0  0  0  0  0  0  0  0  0
  148.6835  133.0735  151.3730 H   0  0  0  0  0  0  0  0  0  0  0  0
  148.9559  131.2609  154.8979 H   0  0  0  0  0  0  0  0  0  0  0  0
  147.4558  131.0881  154.0321 H   0  0  0  0  0  0  0  0  0  0  0  0
  149.1440  131.0690  152.1498 H   0  0  0  0  0  0  0  0  0  0  0  0
  150.7737  132.9317  153.7411 H   0  0  0  0  0  0  0  0  0  0  0  0
  150.0811  134.4508  153.0776 H   0  0  0  0  0  0  0  0  0  0  0  0
  149.6990  133.2762  155.8829 H   0  0  0  0  0  0  0  0  0  0  0  0
  150.9193  136.2100  154.0254 H   0  0  0  0  0  0  0  0  0  0  0  0
  150.5894  139.9162  156.5883 H   0  0  0  0  0  0  0  0  0  0  0  0
  149.1274  139.9671  157.5439 H   0  0  0  0  0  0  0  0  0  0  0  0
  150.2062  142.1951  157.4589 H   0  0  0  0  0  0  0  0  0  0  0  0
  150.1088  141.5985  159.0978 H   0  0  0  0  0  0  0  0  0  0  0  0
  152.5716  141.4698  157.2995 H   0  0  0  0  0  0  0  0  0  0  0  0
  153.5895  143.0986  158.8239 H   0  0  0  0  0  0  0  0  0  0  0  0
  152.3329  144.4341  157.2114 H   0  0  0  0  0  0  0  0  0  0  0  0
  150.7961  143.8978  157.8916 H   0  0  0  0  0  0  0  0  0  0  0  0
  152.6434  145.9717  158.9820 H   0  0  0  0  0  0  0  0  0  0  0  0
  150.9036  145.7859  159.2066 H   0  0  0  0  0  0  0  0  0  0  0  0
  153.1252  144.7328  160.8626 H   0  0  0  0  0  0  0  0  0  0  0  0
  151.4082  144.7663  161.2767 H   0  0  0  0  0  0  0  0  0  0  0  0
  153.7274  140.4764  159.2636 H   0  0  0  0  0  0  0  0  0  0  0  0
  152.2520  140.5576  160.1958 H   0  0  0  0  0  0  0  0  0  0  0  0
  152.5524  138.2863  159.3306 H   0  0  0  0  0  0  0  0  0  0  0  0
  152.7251  138.8756  157.6847 H   0  0  0  0  0  0  0  0  0  0  0  0
  148.4907  135.5374  159.9491 H   0  0  0  0  0  0  0  0  0  0  0  0
  147.6562  134.8375  154.2071 H   0  0  0  0  0  0  0  0  0  0  0  0
  147.3433  133.4785  155.3414 H   0  0  0  0  0  0  0  0  0  0  0  0
  1  2  1  0  0  0  0
  1 29  1  0  0  0  0
  2  3  1  0  0  0  0
  2 30  1  0  0  0  0
  2 31  1  0  0  0  0
  3 28  1  0  0  0  0
  3  4  1  0  0  0  0
  3  6  1  0  0  0  0
  4  5  1  0  0  0  0
  4 32  1  0  0  0  0
  4 33  1  0  0  0  0
  5 34  1  0  0  0  0
  6  7  1  0  0  0  0
  6 35  1  0  0  0  0
  6 36  1  0  0  0  0
  7  8  1  0  0  0  0
  7 28  1  0  0  0  0
  7 37  1  0  0  0  0
  8 27  1  0  0  0  0
  8  9  1  0  0  0  0
  9 10  2  0  0  0  0
  9 38  1  0  0  0  0
 10 11  1  0  0  0  0
 11 27  2  0  0  0  0
 11 12  1  0  0  0  0
 12 13  1  0  0  0  0
 12 24  2  0  0  0  0
 13 23  1  0  0  0  0
 13 14  1  0  0  0  0
 14 15  1  0  0  0  0
 14 39  1  0  0  0  0
 14 40  1  0  0  0  0
 15 16  1  0  0  0  0
 15 41  1  0  0  0  0
 15 42  1  0  0  0  0
 16 17  1  0  0  0  0
 16 22  1  0  0  0  0
 16 43  1  0  0  0  0
 17 21  1  0  0  0  0
 17 18  1  0  0  0  0
 17 44  1  0  0  0  0
 18 19  1  0  0  0  0
 18 45  1  0  0  0  0
 18 46  1  0  0  0  0
 19 20  1  0  0  0  0
 19 47  1  0  0  0  0
 19 48  1  0  0  0  0
 20 21  1  0  0  0  0
 20 49  1  0  0  0  0
 20 50  1  0  0  0  0
 22 23  1  0  0  0  0
 22 51  1  0  0  0  0
 22 52  1  0  0  0  0
 23 53  1  0  0  0  0
 23 54  1  0  0  0  0
 24 25  1  0  0  0  0
 25 26  2  0  0  0  0
 25 55  1  0  0  0  0
 26 27  1  0  0  0  0
 28 56  1  0  0  0  0
 28 57  1  0  0  0  0
M  END
> <s_m_source_file>
AV-unprocessed.smi

> <i_m_source_file_index>
217

> <i_lp_mmshare_version>
43012

> <i_f3d_flags>
0

> <s_epik_input>
W09IXVtDSDJdQzEoW0NIMl1bT0hdKVtDSDJdW0NIXShbQ0gyXTEpbihbY0hdbjIpYyhjMjMpbltjSF1uYzNONFtDSDJdW0NIMl1bQ0hdKFtDSDJdW0NIMl00KVtDQEBIXTVbQ0gyXVtDSDJdW0NIMl1PNQ==

> <s_epik_cmdline>
J2VwaWtfcHl0aG9uJywgJy1waCcsICc3LjAnLCAnLXRuJywgJzgnLCAnLW1hJywgJzIwMCcsICctbWV0YWxfYmluZGluZycsICctaW1hZScsICc8aW5maWxlLm1hZT4nLCAnLW9tYWUnLCAnPG91dGZpbGUubWFlPic=

> <r_lp_tautomer_probability>
1

> <r_epik_Ionization_Penalty>
0.0037022

> <r_epik_Ionization_Penalty_Charging>
0

> <r_epik_Ionization_Penalty_Neutral>
0.0037022

> <r_epik_State_Penalty>
0.00257654

> <r_epik_Charging_Adjusted_Penalty>
0.00257654

> <i_epik_Tot_Q>
0

> <i_epik_Tot_abs_Q>
0

> <r_epik_Metal_State_Penalty>
-0

> <b_epik_Metal_Only>
0

> <s_lp_Force_Field>
OPLS_2005

> <r_lp_Energy>
55.0996

> <b_lp_Chiralities_Consistent>
1

> <s_lp_Variant>
AV-unprocessed.smi:217-2

> <Gold.Version>
5.8.1

> <Gold.Id.Protein>
6NUR|6NUR_protein|mol2

> <Gold.PLP.Fitness>
51.1852

> <Gold.PLP.PLP>
-45.9008

> <Gold.PLP.part.hbond>
-2.0269

> <Gold.PLP.part.metal>
0.0000

> <Gold.PLP.part.buried>
-7.7989

> <Gold.PLP.part.nonpolar>
-36.3113

> <Gold.PLP.part.repulsive>
0.0657

> <Gold.PLP.ligand.clash>
0.6003

> <Gold.PLP.ligand.torsion>
1.3752

> <Gold.PLP.Chemscore.Hbond>
1.9120

> <Gold.PLP.Chemscore.CHOScore>
0.6700

> <Gold.PLP.Chemscore.Metal>
0.0000

> <Gold.Chemscore.Hbonds>
donor molecule, donor type, donor heavy atom, donor atom, acceptor molecule, acceptor atom, score
      L1  H     1    29       P1  7948  1.00
      L1  H     5    34       P1 10747  0.90
      L1  C     9    38       P1  7948  0.02
      L1  C     9    38       P1  7949  0.85

> <Gold.PLP.Chemscore.Internal.Correction>
0.8893

> <Gold.Rescore>
     Score         DG    S(hbond)    S(metal)    S(lipo)     H(rot)  DE(clash)    DE(int)     intcor
     14.28     -16.02       1.80        0.00     110.71       3.28       0.10       1.64       ----

> <Gold.Chemscore.Fitness>
14.2782

> <Gold.Chemscore.DG>
-16.0233

> <Gold.Chemscore.ZeroCoef>
-5.4800

> <Gold.Chemscore.Hbond>
1.7963

> <Gold.Chemscore.Metal>
0.0000

> <Gold.Chemscore.Lipo>
110.7082

> <Gold.Chemscore.Internal_Hbond>
0.0000

> <Gold.Chemscore.DEClash>
0.1027

> <Gold.Chemscore.DEInternal>
1.6424

> <Gold.Chemscore.Rot>
3.2848

> <Gold.Chemscore.Internal.Correction>
   9.000000E+99

> <Gold.Chemscore.Hbonds>
donor molecule, donor type, donor heavy atom, donor atom, acceptor molecule, acceptor atom, score
      L1  H     1    29       P1  7948  0.52
      L1  H     5    34       P1 10747  0.26

> <Gold.Chemscore.Hbond.Weighted>
-5.9996

> <Gold.Chemscore.Metal.Weighted>
-0.0000

> <Gold.Chemscore.Lipo.Weighted>
-12.9529

> <Gold.Chemscore.Internal_Hbond.Weighted>
0.0000

> <Gold.Chemscore.DEClash.Weighted>
0.1027

> <Gold.Chemscore.DEInternal.Weighted>
1.6424

> <Gold.Chemscore.Rot.Weighted>
8.4092

> <Gold.Chemscore.Internal.Correction.Weighted>
   9.000000E+99

> <Gold.Protein.RotatedTorsions>
[ 6907 6896 6895 6894 ] final  -87.12 input  -60.11 | X-H torsion
[ 7974 7965 7964 7962 ] final  -19.08 input  175.53 | X-H torsion
[ 8008 7997 7996 7995 ] final    5.65 input   59.86 | X-H torsion
[ 10167 10162 10161 10158 ] final  -77.82 input  -65.29 | X-H torsion
[ 10718 10713 10712 10709 ] final  -49.59 input   66.30 | X-H torsion
[ 10763 10752 10751 10750 ] final   89.99 input  -60.55 | X-H torsion
[ 11005 11000 10999 10996 ] final -175.50 input  -57.11 | X-H torsion

> <Gold.Protein.ActiveResidues>
 VAL166  LYS551  ARG553  GLY616  TRP617  ASP618  TYR619  PRO620  LYS621  CYS622 
 ASP623  PHE694  ASN695  SER759  ASP760  ASP761  ALA762  ILE779  LEU786  VAL792 
 PHE793  MET794  SER795  GLU796  ALA797  LYS798  CYS799  TRP800  GLU811  SER814 

> <Gold.Protein.RotatedAtoms>
  150.6866  134.2945  159.4680 H   0  0  0  0  0  0  0  0  0  0  0  0  # atno 6907 bound_to 6896
  152.0847  134.9445  160.0582 H   0  0  0  0  0  0  0  0  0  0  0  0  # atno 6908 bound_to 6896
  152.0784  133.4106  159.4527 H   0  0  0  0  0  0  0  0  0  0  0  0  # atno 6909 bound_to 6896
  146.1859  140.4012  142.8476 H   0  0  0  0  0  0  0  0  0  0  0  0  # atno 7974 bound_to 7965
  154.7311  140.2730  155.6455 H   0  0  0  0  0  0  0  0  0  0  0  0  # atno 8008 bound_to 7997
  156.2850  140.2715  156.1936 H   0  0  0  0  0  0  0  0  0  0  0  0  # atno 8009 bound_to 7997
  155.0381  140.0371  157.2489 H   0  0  0  0  0  0  0  0  0  0  0  0  # atno 8010 bound_to 7997
  140.4737  143.2420  151.8166 H   0  0  0  0  0  0  0  0  0  0  0  0  # atno 10167 bound_to 10162
  156.1879  130.4152  149.9414 H   0  0  0  0  0  0  0  0  0  0  0  0  # atno 10718 bound_to 10713
  153.1929  135.4450  155.0171 H   0  0  0  0  0  0  0  0  0  0  0  0  # atno 10763 bound_to 10752
  154.8101  135.3291  154.7330 H   0  0  0  0  0  0  0  0  0  0  0  0  # atno 10764 bound_to 10752
  153.7783  135.6979  153.4948 H   0  0  0  0  0  0  0  0  0  0  0  0  # atno 10765 bound_to 10752
  140.4626  134.6240  157.4849 H   0  0  0  0  0  0  0  0  0  0  0  0  # atno 11005 bound_to 11000
  144.8397  140.6838  143.6237 LP  0  0  0  0  0  0  0  0  0  0  0  0  # atno 17320 bound_to 7965
  145.3938  139.1611  143.4214 LP  0  0  0  0  0  0  0  0  0  0  0  0  # atno 17321 bound_to 7965
  139.4822  144.4860  151.9246 LP  0  0  0  0  0  0  0  0  0  0  0  0  # atno 17342 bound_to 10162
  140.3945  144.2573  150.5897 LP  0  0  0  0  0  0  0  0  0  0  0  0  # atno 17343 bound_to 10162
  156.7163  130.8989  151.3614 LP  0  0  0  0  0  0  0  0  0  0  0  0  # atno 17370 bound_to 10713
  157.6910  130.9234  150.0514 LP  0  0  0  0  0  0  0  0  0  0  0  0  # atno 17371 bound_to 10713
  139.9935  134.6947  155.9648 LP  0  0  0  0  0  0  0  0  0  0  0  0  # atno 17394 bound_to 11000
  141.1614  133.6538  156.4331 LP  0  0  0  0  0  0  0  0  0  0  0  0  # atno 17395 bound_to 11000

$$$$
