AV-unprocessed.smi:2608|AV-procd|sdf|10204|dock5
  -GOLD-   2272014213D 1   1.00000     0.00000
 Structure written by MMmdl.
 40 41  0  0  0  0  0  0  0  0  1 V2000
  153.0225  143.2304  159.9420 C   0  0  0  0  0  0  0  0  0  0  0  0
  152.1882  144.0925  158.9825 C   0  0  0  0  0  0  0  0  0  0  0  0
  151.9138  145.4733  159.6058 C   0  0  0  0  0  0  0  0  0  0  0  0
  150.9016  143.3451  158.5623 C   0  0  0  0  0  0  0  0  0  0  0  0
  151.1642  141.9865  157.9047 C   0  0  0  0  0  0  0  0  0  0  0  0
  151.8345  141.1413  158.4970 O   0  0  0  0  0  0  0  0  0  0  0  0
  150.6254  141.8187  156.6837 N   0  0  0  0  0  0  0  0  0  0  0  0
  150.6776  140.6745  155.8381 C   0  0  0  0  0  0  0  0  0  0  0  0
  151.7770  139.7825  155.8150 C   0  0  0  0  0  0  0  0  0  0  0  0
  151.7537  138.6893  154.9297 C   0  0  0  0  0  0  0  0  0  0  0  0
  150.6363  138.5311  154.0903 C   0  0  0  0  0  0  0  0  0  0  0  0
  149.5885  139.3801  154.0883 N   0  0  0  0  0  0  0  0  0  0  0  0
  149.6067  140.4339  154.9399 C   0  0  0  0  0  0  0  0  0  0  0  0
  148.5017  141.3014  154.9158 N   0  0  0  0  0  0  0  0  0  0  0  0
  147.6860  141.1868  153.7139 C   0  0  0  0  0  0  0  0  0  0  0  0
  146.5989  142.2751  153.7149 C   0  0  0  0  0  0  0  0  0  0  0  0
  145.8256  142.1760  154.9077 O   0  0  0  0  0  0  0  0  0  0  0  0
  146.6183  142.3594  156.0778 C   0  0  0  0  0  0  0  0  0  0  0  0
  147.7087  141.2758  156.1383 C   0  0  0  0  0  0  0  0  0  0  0  0
  152.4809  143.0302  160.8670 H   0  0  0  0  0  0  0  0  0  0  0  0
  153.9582  143.7252  160.2039 H   0  0  0  0  0  0  0  0  0  0  0  0
  153.2762  142.2708  159.4906 H   0  0  0  0  0  0  0  0  0  0  0  0
  152.7936  144.2503  158.0886 H   0  0  0  0  0  0  0  0  0  0  0  0
  151.2614  145.3920  160.4757 H   0  0  0  0  0  0  0  0  0  0  0  0
  151.4416  146.1521  158.8961 H   0  0  0  0  0  0  0  0  0  0  0  0
  152.8404  145.9476  159.9301 H   0  0  0  0  0  0  0  0  0  0  0  0
  150.2643  143.1910  159.4347 H   0  0  0  0  0  0  0  0  0  0  0  0
  150.3202  143.9602  157.8741 H   0  0  0  0  0  0  0  0  0  0  0  0
  150.0292  142.5663  156.3589 H   0  0  0  0  0  0  0  0  0  0  0  0
  152.6409  139.9245  156.4456 H   0  0  0  0  0  0  0  0  0  0  0  0
  152.5766  137.9913  154.8915 H   0  0  0  0  0  0  0  0  0  0  0  0
  150.5850  137.7050  153.3967 H   0  0  0  0  0  0  0  0  0  0  0  0
  148.3153  141.2849  152.8285 H   0  0  0  0  0  0  0  0  0  0  0  0
  147.2219  140.2003  153.6745 H   0  0  0  0  0  0  0  0  0  0  0  0
  147.0433  143.2691  153.6390 H   0  0  0  0  0  0  0  0  0  0  0  0
  145.9423  142.1526  152.8534 H   0  0  0  0  0  0  0  0  0  0  0  0
  147.0608  143.3568  156.0769 H   0  0  0  0  0  0  0  0  0  0  0  0
  145.9760  142.2965  156.9562 H   0  0  0  0  0  0  0  0  0  0  0  0
  147.2480  140.2942  156.2590 H   0  0  0  0  0  0  0  0  0  0  0  0
  148.3540  141.4396  157.0022 H   0  0  0  0  0  0  0  0  0  0  0  0
  1  2  1  0  0  0  0
  1 20  1  0  0  0  0
  1 21  1  0  0  0  0
  1 22  1  0  0  0  0
  2  3  1  0  0  0  0
  2  4  1  0  0  0  0
  2 23  1  0  0  0  0
  3 24  1  0  0  0  0
  3 25  1  0  0  0  0
  3 26  1  0  0  0  0
  4  5  1  0  0  0  0
  4 27  1  0  0  0  0
  4 28  1  0  0  0  0
  5  6  2  0  0  0  0
  5  7  1  0  0  0  0
  7  8  1  0  0  0  0
  7 29  1  0  0  0  0
  8 13  1  0  0  0  0
  8  9  2  0  0  0  0
  9 10  1  0  0  0  0
  9 30  1  0  0  0  0
 10 11  2  0  0  0  0
 10 31  1  0  0  0  0
 11 12  1  0  0  0  0
 11 32  1  0  0  0  0
 12 13  2  0  0  0  0
 13 14  1  0  0  0  0
 14 19  1  0  0  0  0
 14 15  1  0  0  0  0
 15 16  1  0  0  0  0
 15 33  1  0  0  0  0
 15 34  1  0  0  0  0
 16 17  1  0  0  0  0
 16 35  1  0  0  0  0
 16 36  1  0  0  0  0
 17 18  1  0  0  0  0
 18 19  1  0  0  0  0
 18 37  1  0  0  0  0
 18 38  1  0  0  0  0
 19 39  1  0  0  0  0
 19 40  1  0  0  0  0
M  END
> <s_m_source_file>
AV-unprocessed.smi

> <i_m_source_file_index>
2608

> <i_lp_mmshare_version>
43012

> <i_f3d_flags>
0

> <s_epik_input>
W0NIM11bQ0hdKFtDSDNdKVtDSDJdQyg9TylbTkhdYzFbY0hdW2NIXVtjSF1uYzFOMltDSDJdW0NIMl1PW0NIMl1bQ0gyXTI=

> <s_epik_cmdline>
J2VwaWtfcHl0aG9uJywgJy1waCcsICc3LjAnLCAnLXRuJywgJzgnLCAnLW1hJywgJzIwMCcsICctbWV0YWxfYmluZGluZycsICctaW1hZScsICc8aW5maWxlLm1hZT4nLCAnLW9tYWUnLCAnPG91dGZpbGUubWFlPic=

> <r_lp_tautomer_probability>
1

> <r_epik_Ionization_Penalty>
0.0006373

> <r_epik_Ionization_Penalty_Charging>
0

> <r_epik_Ionization_Penalty_Neutral>
0.0006373

> <r_epik_State_Penalty>
0.000394234

> <r_epik_Charging_Adjusted_Penalty>
0.000394234

> <i_epik_Tot_Q>
0

> <i_epik_Tot_abs_Q>
0

> <r_epik_Metal_State_Penalty>
-0

> <b_epik_Metal_Only>
0

> <s_lp_Force_Field>
OPLS_2005

> <r_lp_Energy>
24.3939

> <b_lp_Chiralities_Consistent>
1

> <s_lp_Variant>
AV-unprocessed.smi:2608-1

> <Gold.Version>
5.8.1

> <Gold.Id.Protein>
6NUR|6NUR_protein|mol2

> <Gold.PLP.Fitness>
43.5366

> <Gold.PLP.PLP>
-41.4428

> <Gold.PLP.part.hbond>
0.0000

> <Gold.PLP.part.metal>
0.0000

> <Gold.PLP.part.buried>
-7.6511

> <Gold.PLP.part.nonpolar>
-35.7873

> <Gold.PLP.part.repulsive>
1.2681

> <Gold.PLP.ligand.clash>
0.0000

> <Gold.PLP.ligand.torsion>
0.4957

> <Gold.PLP.Chemscore.Hbond>
0.0000

> <Gold.PLP.Chemscore.CHOScore>
0.9829

> <Gold.PLP.Chemscore.Metal>
0.0000

> <Gold.Chemscore.Hbonds>
donor molecule, donor type, donor heavy atom, donor atom, acceptor molecule, acceptor atom, score
      L1  C    11    32       P1  7948  0.49
      L1  C    11    32       P1  7949  0.49

> <Gold.PLP.Chemscore.Internal.Correction>
0.1363

> <Gold.Rescore>
     Score         DG    S(hbond)    S(metal)    S(lipo)     H(rot)  DE(clash)    DE(int)     intcor
     10.97     -14.00       0.01        0.00     101.27       1.31       0.05       2.97       ----

> <Gold.Chemscore.Fitness>
10.9724

> <Gold.Chemscore.DG>
-13.9960

> <Gold.Chemscore.ZeroCoef>
-5.4800

> <Gold.Chemscore.Hbond>
0.0080

> <Gold.Chemscore.Metal>
0.0000

> <Gold.Chemscore.Lipo>
101.2701

> <Gold.Chemscore.Internal_Hbond>
0.0000

> <Gold.Chemscore.DEClash>
0.0509

> <Gold.Chemscore.DEInternal>
2.9728

> <Gold.Chemscore.Rot>
1.3122

> <Gold.Chemscore.Internal.Correction>
   9.000000E+99

> <Gold.Chemscore.Hbond.Weighted>
-0.0266

> <Gold.Chemscore.Metal.Weighted>
-0.0000

> <Gold.Chemscore.Lipo.Weighted>
-11.8486

> <Gold.Chemscore.Internal_Hbond.Weighted>
0.0000

> <Gold.Chemscore.DEClash.Weighted>
0.0509

> <Gold.Chemscore.DEInternal.Weighted>
2.9728

> <Gold.Chemscore.Rot.Weighted>
3.3592

> <Gold.Chemscore.Internal.Correction.Weighted>
   9.000000E+99

> <Gold.Protein.RotatedTorsions>
[ 6907 6896 6895 6894 ] final  -34.04 input  -60.11 | X-H torsion
[ 7974 7965 7964 7962 ] final   85.63 input  175.53 | X-H torsion
[ 8008 7997 7996 7995 ] final   65.08 input   59.86 | X-H torsion
[ 10167 10162 10161 10158 ] final  173.77 input  -65.29 | X-H torsion
[ 10718 10713 10712 10709 ] final  -40.65 input   66.30 | X-H torsion
[ 10763 10752 10751 10750 ] final -137.23 input  -60.55 | X-H torsion
[ 11005 11000 10999 10996 ] final  -61.41 input  -57.11 | X-H torsion

> <Gold.Protein.ActiveResidues>
 VAL166  LYS551  ARG553  GLY616  TRP617  ASP618  TYR619  PRO620  LYS621  CYS622 
 ASP623  PHE694  ASN695  SER759  ASP760  ASP761  ALA762  ILE779  LEU786  VAL792 
 PHE793  MET794  SER795  GLU796  ALA797  LYS798  CYS799  TRP800  GLU811  SER814 

> <Gold.Protein.RotatedAtoms>
  151.0577  134.9716  159.8244 H   0  0  0  0  0  0  0  0  0  0  0  0  # atno 6907 bound_to 6896
  152.5391  134.2457  159.8889 H   0  0  0  0  0  0  0  0  0  0  0  0  # atno 6908 bound_to 6896
  151.2475  133.4324  159.2644 H   0  0  0  0  0  0  0  0  0  0  0  0  # atno 6909 bound_to 6896
  145.5830  139.2327  143.2342 H   0  0  0  0  0  0  0  0  0  0  0  0  # atno 7974 bound_to 7965
  155.6562  140.3497  155.4766 H   0  0  0  0  0  0  0  0  0  0  0  0  # atno 8008 bound_to 7997
  155.9807  140.1174  157.0752 H   0  0  0  0  0  0  0  0  0  0  0  0  # atno 8009 bound_to 7997
  154.4191  140.1139  156.5417 H   0  0  0  0  0  0  0  0  0  0  0  0  # atno 8010 bound_to 7997
  139.5119  144.3223  152.0190 H   0  0  0  0  0  0  0  0  0  0  0  0  # atno 10167 bound_to 10162
  156.2790  130.4215  149.8356 H   0  0  0  0  0  0  0  0  0  0  0  0  # atno 10718 bound_to 10713
  154.8666  135.3648  154.5190 H   0  0  0  0  0  0  0  0  0  0  0  0  # atno 10763 bound_to 10752
  153.5821  135.7018  153.5464 H   0  0  0  0  0  0  0  0  0  0  0  0  # atno 10764 bound_to 10752
  153.3448  135.4088  155.1562 H   0  0  0  0  0  0  0  0  0  0  0  0  # atno 10765 bound_to 10752
  141.1323  133.6630  156.5371 H   0  0  0  0  0  0  0  0  0  0  0  0  # atno 11005 bound_to 11000
  146.1702  140.6657  142.9236 LP  0  0  0  0  0  0  0  0  0  0  0  0  # atno 17320 bound_to 7965
  144.7385  140.4877  143.6886 LP  0  0  0  0  0  0  0  0  0  0  0  0  # atno 17321 bound_to 7965
  140.2665  144.4011  150.6166 LP  0  0  0  0  0  0  0  0  0  0  0  0  # atno 17342 bound_to 10162
  140.6120  143.2170  151.6868 LP  0  0  0  0  0  0  0  0  0  0  0  0  # atno 17343 bound_to 10162
  156.5811  130.8466  151.3383 LP  0  0  0  0  0  0  0  0  0  0  0  0  # atno 17370 bound_to 10713
  157.7308  130.9691  150.1852 LP  0  0  0  0  0  0  0  0  0  0  0  0  # atno 17371 bound_to 10713
  140.4169  134.7222  157.4868 LP  0  0  0  0  0  0  0  0  0  0  0  0  # atno 17394 bound_to 11000
  140.0387  134.6299  155.9009 LP  0  0  0  0  0  0  0  0  0  0  0  0  # atno 17395 bound_to 11000

$$$$
