AV-unprocessed.smi:2057|AV-procd|sdf|8342|dock10
  -GOLD-   2272011 13D 1   1.00000     0.00000
 Structure written by MMmdl.
 45 47  0  0  0  0  0  0  0  0  2 V2000
  151.5285  145.5054  159.6916 C   0  0  0  0  0  0  0  0  0  0  0  0
  152.3275  144.4977  160.2944 O   0  0  0  0  0  0  0  0  0  0  0  0
  152.2815  143.2266  159.7629 C   0  0  0  0  0  0  0  0  0  0  0  0
  153.1840  142.2815  160.2844 C   0  0  0  0  0  0  0  0  0  0  0  0
  153.1984  140.9582  159.8084 C   0  0  0  0  0  0  0  0  0  0  0  0
  152.3070  140.5482  158.7863 C   0  0  0  0  0  0  0  0  0  0  0  0
  152.2607  139.2598  158.2919 O   0  0  0  0  0  0  0  0  0  0  0  0
  153.1141  138.2823  158.8685 C   0  0  0  0  0  0  0  0  0  0  0  0
  151.4075  141.4980  158.2433 C   0  0  0  0  0  0  0  0  0  0  0  0
  150.4336  141.0837  157.1441 C   0  0  2  0  0  0  0  0  0  0  0  0
  149.5362  140.0684  157.5531 O   0  0  0  0  0  0  0  0  0  0  0  0
  151.1902  140.6416  155.8764 C   0  0  0  0  0  0  0  0  0  0  0  0
  150.3303  139.9336  154.9161 N   0  0  0  0  0  0  0  0  0  0  0  0
  150.4678  138.6888  154.3769 C   0  0  0  0  0  0  0  0  0  0  0  0
  151.5731  137.7197  154.6553 C   0  0  0  0  0  0  0  0  0  0  0  0
  151.2989  136.4121  154.1973 O   0  0  0  0  0  0  0  0  0  0  0  0
  149.4067  138.4934  153.5427 N   0  3  0  0  0  0  0  0  0  0  0  0
  148.5865  139.6222  153.5463 C   0  0  0  0  0  0  0  0  0  0  0  0
  147.4051  139.8923  152.8627 C   0  0  0  0  0  0  0  0  0  0  0  0
  146.8168  141.1540  153.0897 C   0  0  0  0  0  0  0  0  0  0  0  0
  147.4030  142.0902  153.9661 C   0  0  0  0  0  0  0  0  0  0  0  0
  148.6003  141.8043  154.6544 C   0  0  0  0  0  0  0  0  0  0  0  0
  149.1748  140.5539  154.4261 C   0  0  0  0  0  0  0  0  0  0  0  0
  151.3913  142.8217  158.7395 C   0  0  0  0  0  0  0  0  0  0  0  0
  151.6734  146.4456  160.2236 H   0  0  0  0  0  0  0  0  0  0  0  0
  150.4676  145.2571  159.7444 H   0  0  0  0  0  0  0  0  0  0  0  0
  151.8104  145.6696  158.6506 H   0  0  0  0  0  0  0  0  0  0  0  0
  153.8714  142.5728  161.0650 H   0  0  0  0  0  0  0  0  0  0  0  0
  153.9057  140.2736  160.2508 H   0  0  0  0  0  0  0  0  0  0  0  0
  152.9408  137.3228  158.3813 H   0  0  0  0  0  0  0  0  0  0  0  0
  152.9111  138.1523  159.9323 H   0  0  0  0  0  0  0  0  0  0  0  0
  154.1653  138.5384  158.7283 H   0  0  0  0  0  0  0  0  0  0  0  0
  149.8046  141.9397  156.8995 H   0  0  0  0  0  0  0  0  0  0  0  0
  148.8742  139.9694  156.8857 H   0  0  0  0  0  0  0  0  0  0  0  0
  151.5880  141.5160  155.3596 H   0  0  0  0  0  0  0  0  0  0  0  0
  152.0517  140.0208  156.1228 H   0  0  0  0  0  0  0  0  0  0  0  0
  152.4896  138.0726  154.1816 H   0  0  0  0  0  0  0  0  0  0  0  0
  151.7558  137.6875  155.7297 H   0  0  0  0  0  0  0  0  0  0  0  0
  151.0730  136.4572  153.2804 H   0  0  0  0  0  0  0  0  0  0  0  0
  146.9554  139.1772  152.1895 H   0  0  0  0  0  0  0  0  0  0  0  0
  145.8989  141.4094  152.5803 H   0  0  0  0  0  0  0  0  0  0  0  0
  146.9256  143.0482  154.1129 H   0  0  0  0  0  0  0  0  0  0  0  0
  149.0436  142.5317  155.3180 H   0  0  0  0  0  0  0  0  0  0  0  0
  150.6809  143.5195  158.3240 H   0  0  0  0  0  0  0  0  0  0  0  0
  149.2617  137.6452  153.0102 H   0  0  0  0  0  0  0  0  0  0  0  0
  1  2  1  0  0  0  0
  1 25  1  0  0  0  0
  1 26  1  0  0  0  0
  1 27  1  0  0  0  0
  2  3  1  0  0  0  0
  3 24  1  0  0  0  0
  3  4  2  0  0  0  0
  4  5  1  0  0  0  0
  4 28  1  0  0  0  0
  5  6  2  0  0  0  0
  5 29  1  0  0  0  0
  6  7  1  0  0  0  0
  6  9  1  0  0  0  0
  7  8  1  0  0  0  0
  8 30  1  0  0  0  0
  8 31  1  0  0  0  0
  8 32  1  0  0  0  0
  9 10  1  0  0  0  0
  9 24  2  0  0  0  0
 10 11  1  0  0  0  0
 10 12  1  0  0  0  0
 10 33  1  0  0  0  0
 11 34  1  0  0  0  0
 12 13  1  0  0  0  0
 12 35  1  0  0  0  0
 12 36  1  0  0  0  0
 13 23  1  0  0  0  0
 13 14  1  0  0  0  0
 14 15  1  0  0  0  0
 14 17  2  0  0  0  0
 15 16  1  0  0  0  0
 15 37  1  0  0  0  0
 15 38  1  0  0  0  0
 16 39  1  0  0  0  0
 17 18  1  0  0  0  0
 17 45  1  0  0  0  0
 18 23  2  0  0  0  0
 18 19  1  0  0  0  0
 19 20  2  0  0  0  0
 19 40  1  0  0  0  0
 20 21  1  0  0  0  0
 20 41  1  0  0  0  0
 21 22  2  0  0  0  0
 21 42  1  0  0  0  0
 22 23  1  0  0  0  0
 22 43  1  0  0  0  0
 24 44  1  0  0  0  0
M  CHG  1  17   1
M  END
> <s_m_source_file>
AV-unprocessed.smi

> <i_m_source_file_index>
2057

> <i_lp_mmshare_version>
43012

> <i_f3d_flags>
0

> <s_epik_input>
W0NIM11PYzFbY0hdW2NIXWMoT1tDSDNdKWMoW2NIXTEpW0NASF0oW09IXSlbQ0gyXW4oYyhuMilbQ0gyXVtPSF0pYyhjMjMpW2NIXVtjSF1bY0hdW2NIXTM=

> <s_epik_cmdline>
J2VwaWtfcHl0aG9uJywgJy1waCcsICc3LjAnLCAnLXRuJywgJzgnLCAnLW1hJywgJzIwMCcsICctbWV0YWxfYmluZGluZycsICctaW1hZScsICc8aW5maWxlLm1hZT4nLCAnLW9tYWUnLCAnPG91dGZpbGUubWFlPic=

> <r_lp_tautomer_probability>
1

> <r_epik_Ionization_Penalty>
1.35643

> <r_epik_Ionization_Penalty_Charging>
1.35557

> <r_epik_Ionization_Penalty_Neutral>
0.000857128

> <r_epik_State_Penalty>
1.43401

> <r_epik_Charging_Adjusted_Penalty>
2.78958

> <i_epik_Tot_Q>
1

> <i_epik_Tot_abs_Q>
1

> <r_epik_Metal_State_Penalty>
5.47166

> <b_epik_Metal_Only>
0

> <s_lp_Force_Field>
OPLS_2005

> <r_lp_Energy>
20.8096

> <b_lp_Chiralities_Consistent>
1

> <s_lp_Variant>
AV-unprocessed.smi:2057-3

> <Gold.Version>
5.8.1

> <Gold.Id.Protein>
6NUR|6NUR_protein|mol2

> <Gold.PLP.Fitness>
63.8559

> <Gold.PLP.PLP>
-52.5021

> <Gold.PLP.part.hbond>
-4.2691

> <Gold.PLP.part.metal>
0.0000

> <Gold.PLP.part.buried>
0.7157

> <Gold.PLP.part.nonpolar>
-48.7235

> <Gold.PLP.part.repulsive>
0.1552

> <Gold.PLP.ligand.clash>
0.0000

> <Gold.PLP.ligand.torsion>
0.3664

> <Gold.PLP.Chemscore.Hbond>
4.0000

> <Gold.PLP.Chemscore.CHOScore>
0.0000

> <Gold.PLP.Chemscore.Metal>
0.0000

> <Gold.Chemscore.Hbonds>
donor molecule, donor type, donor heavy atom, donor atom, acceptor molecule, acceptor atom, score
      L1  H    16    39       P1  7949  1.00
      L1  H    17    45       P1  7948  2.00
      P1  H 10752 10765       L1    16  1.00

> <Gold.PLP.Chemscore.Internal.Correction>
0.0866

> <Gold.Rescore>
     Score         DG    S(hbond)    S(metal)    S(lipo)     H(rot)  DE(clash)    DE(int)     intcor
     19.24     -21.10       2.59        0.00     130.93       3.25       1.41       0.46       ----

> <Gold.Chemscore.Fitness>
19.2413

> <Gold.Chemscore.DG>
-21.1043

> <Gold.Chemscore.ZeroCoef>
-5.4800

> <Gold.Chemscore.Hbond>
2.5851

> <Gold.Chemscore.Metal>
0.0000

> <Gold.Chemscore.Lipo>
130.9350

> <Gold.Chemscore.Internal_Hbond>
0.0000

> <Gold.Chemscore.DEClash>
1.4074

> <Gold.Chemscore.DEInternal>
0.4555

> <Gold.Chemscore.Rot>
3.2537

> <Gold.Chemscore.Internal.Correction>
   9.000000E+99

> <Gold.Chemscore.Hbonds>
donor molecule, donor type, donor heavy atom, donor atom, acceptor molecule, acceptor atom, score
      L1  H    16    39       P1  7949  0.34
      L1  H    17    45       P1  7948  0.98
      P1  H 10752 10765       L1    16  0.10

> <Gold.Chemscore.Hbond.Weighted>
-8.6344

> <Gold.Chemscore.Metal.Weighted>
-0.0000

> <Gold.Chemscore.Lipo.Weighted>
-15.3194

> <Gold.Chemscore.Internal_Hbond.Weighted>
0.0000

> <Gold.Chemscore.DEClash.Weighted>
1.4074

> <Gold.Chemscore.DEInternal.Weighted>
0.4555

> <Gold.Chemscore.Rot.Weighted>
8.3295

> <Gold.Chemscore.Internal.Correction.Weighted>
   9.000000E+99

> <Gold.Protein.RotatedTorsions>
[ 6907 6896 6895 6894 ] final -132.70 input  -60.11 | X-H torsion
[ 7974 7965 7964 7962 ] final  102.19 input  175.53 | X-H torsion
[ 8008 7997 7996 7995 ] final   46.67 input   59.86 | X-H torsion
[ 10167 10162 10161 10158 ] final   73.76 input  -65.29 | X-H torsion
[ 10718 10713 10712 10709 ] final  127.14 input   66.30 | X-H torsion
[ 10763 10752 10751 10750 ] final  149.92 input  -60.55 | X-H torsion
[ 11005 11000 10999 10996 ] final   50.28 input  -57.11 | X-H torsion

> <Gold.Protein.ActiveResidues>
 VAL166  LYS551  ARG553  GLY616  TRP617  ASP618  TYR619  PRO620  LYS621  CYS622 
 ASP623  PHE694  ASN695  SER759  ASP760  ASP761  ALA762  ILE779  LEU786  VAL792 
 PHE793  MET794  SER795  GLU796  ALA797  LYS798  CYS799  TRP800  GLU811  SER814 

> <Gold.Protein.RotatedAtoms>
  150.9654  133.6400  159.2746 H   0  0  0  0  0  0  0  0  0  0  0  0  # atno 6907 bound_to 6896
  151.3708  135.0921  159.9474 H   0  0  0  0  0  0  0  0  0  0  0  0  # atno 6908 bound_to 6896
  152.5163  133.9208  159.7588 H   0  0  0  0  0  0  0  0  0  0  0  0  # atno 6909 bound_to 6896
  145.3623  139.2415  143.3500 H   0  0  0  0  0  0  0  0  0  0  0  0  # atno 7974 bound_to 7965
  155.3563  140.3416  155.4240 H   0  0  0  0  0  0  0  0  0  0  0  0  # atno 8008 bound_to 7997
  156.1737  140.1640  156.8436 H   0  0  0  0  0  0  0  0  0  0  0  0  # atno 8009 bound_to 7997
  154.5260  140.0756  156.8241 H   0  0  0  0  0  0  0  0  0  0  0  0  # atno 8010 bound_to 7997
  140.0211  144.5540  150.7581 H   0  0  0  0  0  0  0  0  0  0  0  0  # atno 10167 bound_to 10162
  157.5358  131.1097  150.8937 H   0  0  0  0  0  0  0  0  0  0  0  0  # atno 10718 bound_to 10713
  154.0791  135.2861  155.3294 H   0  0  0  0  0  0  0  0  0  0  0  0  # atno 10763 bound_to 10752
  154.6696  135.5304  153.8124 H   0  0  0  0  0  0  0  0  0  0  0  0  # atno 10764 bound_to 10752
  153.0456  135.6554  154.0967 H   0  0  0  0  0  0  0  0  0  0  0  0  # atno 10765 bound_to 10752
  140.1031  134.5055  155.8745 H   0  0  0  0  0  0  0  0  0  0  0  0  # atno 11005 bound_to 11000
  146.2922  140.4259  142.8735 LP  0  0  0  0  0  0  0  0  0  0  0  0  # atno 17320 bound_to 7965
  144.8637  140.7176  143.6091 LP  0  0  0  0  0  0  0  0  0  0  0  0  # atno 17321 bound_to 7965
  140.7342  143.2726  151.3840 LP  0  0  0  0  0  0  0  0  0  0  0  0  # atno 17342 bound_to 10162
  139.6139  144.1042  152.2326 LP  0  0  0  0  0  0  0  0  0  0  0  0  # atno 17343 bound_to 10162
  156.9504  130.5418  149.5282 LP  0  0  0  0  0  0  0  0  0  0  0  0  # atno 17370 bound_to 10713
  156.0458  130.5534  150.8876 LP  0  0  0  0  0  0  0  0  0  0  0  0  # atno 17371 bound_to 10713
  141.2111  133.6702  156.6556 LP  0  0  0  0  0  0  0  0  0  0  0  0  # atno 17394 bound_to 11000
  140.3193  134.8021  157.4240 LP  0  0  0  0  0  0  0  0  0  0  0  0  # atno 17395 bound_to 11000

$$$$
