AV-unprocessed.smi:2646|AV-procd|sdf|10282|dock3
  -GOLD-   2272014293D 1   1.00000     0.00000
 Structure written by MMmdl.
 43 44  0  0  0  0  0  0  0  0  1 V2000
  143.8307  136.2029  153.3448 C   0  0  0  0  0  0  0  0  0  0  0  0
  145.1689  135.4287  153.1676 C   0  0  2  0  0  0  0  0  0  0  0  0
  145.3290  134.4766  154.3888 C   0  0  0  0  0  0  0  0  0  0  0  0
  144.1111  133.8814  154.7940 O   0  0  0  0  0  0  0  0  0  0  0  0
  146.3507  136.3088  153.1903 N   0  0  0  0  0  0  0  0  0  0  0  0
  146.5169  137.5336  153.7173 C   0  0  0  0  0  0  0  0  0  0  0  0
  145.6388  138.1707  154.2971 O   0  0  0  0  0  0  0  0  0  0  0  0
  147.7653  137.9791  153.4966 N   0  0  0  0  0  0  0  0  0  0  0  0
  148.3424  139.2076  153.9152 C   0  0  0  0  0  0  0  0  0  0  0  0
  147.5557  140.3752  153.8383 C   0  0  0  0  0  0  0  0  0  0  0  0
  148.1163  141.6061  154.2293 C   0  0  0  0  0  0  0  0  0  0  0  0
  149.4529  141.6222  154.6728 C   0  0  0  0  0  0  0  0  0  0  0  0
  150.2255  140.5175  154.7355 N   0  0  0  0  0  0  0  0  0  0  0  0
  149.6803  139.3394  154.3623 C   0  0  0  0  0  0  0  0  0  0  0  0
  145.1516  134.5697  151.8480 C   0  0  0  0  0  0  0  0  0  0  0  0
  143.9192  133.6297  151.7307 C   0  0  0  0  0  0  0  0  0  0  0  0
  143.8753  132.8842  150.3871 C   0  0  0  0  0  0  0  0  0  0  0  0
  145.1592  132.0811  150.1503 C   0  0  0  0  0  0  0  0  0  0  0  0
  146.3894  132.9908  150.2445 C   0  0  0  0  0  0  0  0  0  0  0  0
  146.4337  133.7308  151.5910 C   0  0  0  0  0  0  0  0  0  0  0  0
  142.9945  135.5113  153.4525 H   0  0  0  0  0  0  0  0  0  0  0  0
  143.5886  136.8587  152.5121 H   0  0  0  0  0  0  0  0  0  0  0  0
  143.8428  136.8391  154.2301 H   0  0  0  0  0  0  0  0  0  0  0  0
  146.0232  133.6694  154.1518 H   0  0  0  0  0  0  0  0  0  0  0  0
  145.7330  134.9964  155.2570 H   0  0  0  0  0  0  0  0  0  0  0  0
  144.0559  133.0188  154.4123 H   0  0  0  0  0  0  0  0  0  0  0  0
  147.1656  135.9160  152.7428 H   0  0  0  0  0  0  0  0  0  0  0  0
  148.3514  137.3972  152.9163 H   0  0  0  0  0  0  0  0  0  0  0  0
  146.5338  140.3308  153.4908 H   0  0  0  0  0  0  0  0  0  0  0  0
  147.5367  142.5165  154.1893 H   0  0  0  0  0  0  0  0  0  0  0  0
  149.9156  142.5485  154.9798 H   0  0  0  0  0  0  0  0  0  0  0  0
  150.3508  138.4951  154.4067 H   0  0  0  0  0  0  0  0  0  0  0  0
  145.0845  135.2790  151.0215 H   0  0  0  0  0  0  0  0  0  0  0  0
  143.9247  132.9013  152.5426 H   0  0  0  0  0  0  0  0  0  0  0  0
  142.9885  134.1861  151.8225 H   0  0  0  0  0  0  0  0  0  0  0  0
  143.0124  132.2181  150.3610 H   0  0  0  0  0  0  0  0  0  0  0  0
  143.7366  133.6008  149.5764 H   0  0  0  0  0  0  0  0  0  0  0  0
  145.2350  131.2822  150.8891 H   0  0  0  0  0  0  0  0  0  0  0  0
  145.1242  131.5989  149.1729 H   0  0  0  0  0  0  0  0  0  0  0  0
  147.2963  132.3987  150.1181 H   0  0  0  0  0  0  0  0  0  0  0  0
  146.3766  133.7140  149.4280 H   0  0  0  0  0  0  0  0  0  0  0  0
  147.3232  134.3575  151.5905 H   0  0  0  0  0  0  0  0  0  0  0  0
  146.5699  132.9963  152.3837 H   0  0  0  0  0  0  0  0  0  0  0  0
  1  2  1  0  0  0  0
  1 21  1  0  0  0  0
  1 22  1  0  0  0  0
  1 23  1  0  0  0  0
  2  3  1  0  0  0  0
  2  5  1  0  0  0  0
  2 15  1  0  0  0  0
  3  4  1  0  0  0  0
  3 24  1  0  0  0  0
  3 25  1  0  0  0  0
  4 26  1  0  0  0  0
  5  6  1  0  0  0  0
  5 27  1  0  0  0  0
  6  7  2  0  0  0  0
  6  8  1  0  0  0  0
  8  9  1  0  0  0  0
  8 28  1  0  0  0  0
  9 14  1  0  0  0  0
  9 10  2  0  0  0  0
 10 11  1  0  0  0  0
 10 29  1  0  0  0  0
 11 12  2  0  0  0  0
 11 30  1  0  0  0  0
 12 13  1  0  0  0  0
 12 31  1  0  0  0  0
 13 14  2  0  0  0  0
 14 32  1  0  0  0  0
 15 20  1  0  0  0  0
 15 16  1  0  0  0  0
 15 33  1  0  0  0  0
 16 17  1  0  0  0  0
 16 34  1  0  0  0  0
 16 35  1  0  0  0  0
 17 18  1  0  0  0  0
 17 36  1  0  0  0  0
 17 37  1  0  0  0  0
 18 19  1  0  0  0  0
 18 38  1  0  0  0  0
 18 39  1  0  0  0  0
 19 20  1  0  0  0  0
 19 40  1  0  0  0  0
 19 41  1  0  0  0  0
 20 42  1  0  0  0  0
 20 43  1  0  0  0  0
M  END
> <s_m_source_file>
AV-unprocessed.smi

> <i_m_source_file_index>
2646

> <i_lp_mmshare_version>
43012

> <i_f3d_flags>
0

> <s_epik_input>
W0NIMl0xW0NIMl1bQ0gyXVtDSDJdW0NIMl1bQ0hdMVtDQF0oW0NIM10pKFtDSDJdW09IXSlbTkhdQyg9TylbTkhdYzJbY0hdW2NIXVtjSF1uW2NIXTI=

> <s_epik_cmdline>
J2VwaWtfcHl0aG9uJywgJy1waCcsICc3LjAnLCAnLXRuJywgJzgnLCAnLW1hJywgJzIwMCcsICctbWV0YWxfYmluZGluZycsICctaW1hZScsICc8aW5maWxlLm1hZT4nLCAnLW9tYWUnLCAnPG91dGZpbGUubWFlPic=

> <r_epik_Ionization_Penalty>
0.00498697

> <r_epik_Ionization_Penalty_Charging>
0

> <r_epik_Ionization_Penalty_Neutral>
0.00498697

> <r_epik_State_Penalty>
0.00359645

> <r_epik_Charging_Adjusted_Penalty>
0.00359645

> <i_epik_Tot_Q>
0

> <i_epik_Tot_abs_Q>
0

> <r_epik_Metal_State_Penalty>
-0

> <b_epik_Metal_Only>
0

> <s_lp_Force_Field>
OPLS_2005

> <r_lp_Energy>
27.1909

> <b_lp_Chiralities_Consistent>
1

> <s_lp_Variant>
AV-unprocessed.smi:2646-2

> <Gold.Version>
5.8.1

> <Gold.Id.Protein>
6NUR|6NUR_protein|mol2

> <Gold.PLP.Fitness>
44.8344

> <Gold.PLP.PLP>
-33.7812

> <Gold.PLP.part.hbond>
-4.0000

> <Gold.PLP.part.metal>
0.0000

> <Gold.PLP.part.buried>
-3.3565

> <Gold.PLP.part.nonpolar>
-26.2650

> <Gold.PLP.part.repulsive>
0.2189

> <Gold.PLP.ligand.clash>
0.0000

> <Gold.PLP.ligand.torsion>
1.1588

> <Gold.PLP.Chemscore.Hbond>
3.4480

> <Gold.PLP.Chemscore.CHOScore>
0.9886

> <Gold.PLP.Chemscore.Metal>
0.0000

> <Gold.Chemscore.Hbonds>
donor molecule, donor type, donor heavy atom, donor atom, acceptor molecule, acceptor atom, score
      L1  H     4    26       P1 10957  0.50
      L1  H     5    27       P1  7948  0.98
      L1  H     8    28       P1  7948  1.00
      P1  H  7989  7998       L1    13  0.94
      L1  C    12    31       P1  8028  1.00

> <Gold.PLP.Chemscore.Internal.Correction>
0.0612

> <Gold.Rescore>
     Score         DG    S(hbond)    S(metal)    S(lipo)     H(rot)  DE(clash)    DE(int)     intcor
     17.34     -21.55       3.41        0.00      83.42       1.98       0.15       4.06       ----

> <Gold.Chemscore.Fitness>
17.3360

> <Gold.Chemscore.DG>
-21.5528

> <Gold.Chemscore.ZeroCoef>
-5.4800

> <Gold.Chemscore.Hbond>
3.4075

> <Gold.Chemscore.Metal>
0.0000

> <Gold.Chemscore.Lipo>
83.4192

> <Gold.Chemscore.Internal_Hbond>
0.0000

> <Gold.Chemscore.DEClash>
0.1530

> <Gold.Chemscore.DEInternal>
4.0638

> <Gold.Chemscore.Rot>
1.9798

> <Gold.Chemscore.Internal.Correction>
   9.000000E+99

> <Gold.Chemscore.Hbonds>
donor molecule, donor type, donor heavy atom, donor atom, acceptor molecule, acceptor atom, score
      L1  H     4    26       P1 10957  0.50
      L1  H     5    27       P1  7948  0.89
      L1  H     8    28       P1  7948  1.00
      P1  H  7989  7998       L1    13  0.22

> <Gold.Chemscore.Hbond.Weighted>
-11.3809

> <Gold.Chemscore.Metal.Weighted>
-0.0000

> <Gold.Chemscore.Lipo.Weighted>
-9.7600

> <Gold.Chemscore.Internal_Hbond.Weighted>
0.0000

> <Gold.Chemscore.DEClash.Weighted>
0.1530

> <Gold.Chemscore.DEInternal.Weighted>
4.0638

> <Gold.Chemscore.Rot.Weighted>
5.0682

> <Gold.Chemscore.Internal.Correction.Weighted>
   9.000000E+99

> <Gold.Protein.RotatedTorsions>
[ 6907 6896 6895 6894 ] final  -98.88 input  -60.11 | X-H torsion
[ 7974 7965 7964 7962 ] final  -70.06 input  175.53 | X-H torsion
[ 8008 7997 7996 7995 ] final -150.83 input   59.86 | X-H torsion
[ 10167 10162 10161 10158 ] final  -95.91 input  -65.29 | X-H torsion
[ 10718 10713 10712 10709 ] final   71.64 input   66.30 | X-H torsion
[ 10763 10752 10751 10750 ] final -144.72 input  -60.55 | X-H torsion
[ 11005 11000 10999 10996 ] final  -76.95 input  -57.11 | X-H torsion

> <Gold.Protein.ActiveResidues>
 VAL166  LYS551  ARG553  GLY616  TRP617  ASP618  TYR619  PRO620  LYS621  CYS622 
 ASP623  PHE694  ASN695  SER759  ASP760  ASP761  ALA762  ILE779  LEU786  VAL792 
 PHE793  MET794  SER795  GLU796  ALA797  LYS798  CYS799  TRP800  GLU811  SER814 

> <Gold.Protein.RotatedAtoms>
  150.7061  134.1126  159.4005 H   0  0  0  0  0  0  0  0  0  0  0  0  # atno 6907 bound_to 6896
  151.9112  135.0335  160.0524 H   0  0  0  0  0  0  0  0  0  0  0  0  # atno 6908 bound_to 6896
  152.2334  133.5041  159.5265 H   0  0  0  0  0  0  0  0  0  0  0  0  # atno 6909 bound_to 6896
  145.6958  140.9135  143.0757 H   0  0  0  0  0  0  0  0  0  0  0  0  # atno 7974 bound_to 7965
  155.6298  140.0690  157.2652 H   0  0  0  0  0  0  0  0  0  0  0  0  # atno 8008 bound_to 7997
  154.4209  140.1769  156.1509 H   0  0  0  0  0  0  0  0  0  0  0  0  # atno 8009 bound_to 7997
  155.9942  140.3342  155.6786 H   0  0  0  0  0  0  0  0  0  0  0  0  # atno 8010 bound_to 7997
  140.2993  143.3172  152.0265 H   0  0  0  0  0  0  0  0  0  0  0  0  # atno 10167 bound_to 10162
  157.6461  130.9538  150.0817 H   0  0  0  0  0  0  0  0  0  0  0  0  # atno 10718 bound_to 10713
  154.8416  135.3433  154.6390 H   0  0  0  0  0  0  0  0  0  0  0  0  # atno 10763 bound_to 10752
  153.7001  135.6970  153.5070 H   0  0  0  0  0  0  0  0  0  0  0  0  # atno 10764 bound_to 10752
  153.2529  135.4347  155.0771 H   0  0  0  0  0  0  0  0  0  0  0  0  # atno 10765 bound_to 10752
  141.1657  133.7003  156.7746 H   0  0  0  0  0  0  0  0  0  0  0  0  # atno 11005 bound_to 11000
  144.6983  139.8882  143.7451 LP  0  0  0  0  0  0  0  0  0  0  0  0  # atno 17320 bound_to 7965
  146.0841  139.3829  143.0446 LP  0  0  0  0  0  0  0  0  0  0  0  0  # atno 17321 bound_to 7965
  139.4919  144.6467  151.6762 LP  0  0  0  0  0  0  0  0  0  0  0  0  # atno 17342 bound_to 10162
  140.5665  144.0181  150.6195 LP  0  0  0  0  0  0  0  0  0  0  0  0  # atno 17343 bound_to 10162
  156.1791  130.3649  149.9059 LP  0  0  0  0  0  0  0  0  0  0  0  0  # atno 17370 bound_to 10713
  156.7016  130.8935  151.3600 LP  0  0  0  0  0  0  0  0  0  0  0  0  # atno 17371 bound_to 10713
  140.2439  134.8593  157.3600 LP  0  0  0  0  0  0  0  0  0  0  0  0  # atno 17394 bound_to 11000
  140.1769  134.4538  155.7796 LP  0  0  0  0  0  0  0  0  0  0  0  0  # atno 17395 bound_to 11000

$$$$
