AV-unprocessed.smi:1680|AV-procd|sdf|6738|dock7
  -GOLD-   22720 7483D 1   1.00000     0.00000
 Structure written by MMmdl.
 39 40  0  0  0  0  0  0  0  0  2 V2000
  151.0697  141.6514  157.7790 C   0  0  0  0  0  0  0  0  0  0  0  0
  151.5130  140.5112  156.8598 C   0  0  0  0  0  0  0  0  0  0  0  0
  152.3193  139.6924  157.3010 O   0  0  0  0  0  0  0  0  0  0  0  0
  151.0102  140.4373  155.6039 N   0  0  0  0  0  0  0  0  0  0  0  0
  149.9832  141.3205  155.0433 C   0  0  0  0  0  0  0  0  0  0  0  0
  148.6955  140.5081  154.8152 C   0  0  0  0  0  0  0  0  0  0  0  0
  148.9440  139.3181  153.9567 N   0  3  0  0  0  0  0  0  0  0  0  0
  147.7068  138.5326  153.7203 C   0  0  0  0  0  0  0  0  0  0  0  0
  146.9151  139.0313  152.4955 C   0  0  0  0  0  0  0  0  0  0  0  0
  145.4971  138.7075  152.6045 N   0  0  0  0  0  0  0  0  0  0  0  0
  145.0112  137.4958  152.9111 C   0  0  0  0  0  0  0  0  0  0  0  0
  145.7274  136.5182  153.1297 O   0  0  0  0  0  0  0  0  0  0  0  0
  143.6668  137.4998  152.9397 N   0  0  0  0  0  0  0  0  0  0  0  0
  142.7898  136.4140  153.2021 C   0  0  0  0  0  0  0  0  0  0  0  0
  141.6879  136.5142  153.9619 N   0  0  0  0  0  0  0  0  0  0  0  0
  141.0128  135.3045  154.0598 N   0  0  0  0  0  0  0  0  0  0  0  0
  141.6309  134.3411  153.3706 C   0  0  0  0  0  0  0  0  0  0  0  0
  143.0977  134.8178  152.5334 S   0  0  0  0  0  0  0  0  0  0  0  0
  150.0879  138.4926  154.4354 C   0  0  0  0  0  0  0  0  0  0  0  0
  151.3425  139.3517  154.6774 C   0  0  0  0  0  0  0  0  0  0  0  0
  149.9927  141.6179  157.9471 H   0  0  0  0  0  0  0  0  0  0  0  0
  151.3331  142.6186  157.3500 H   0  0  0  0  0  0  0  0  0  0  0  0
  151.5602  141.5745  158.7502 H   0  0  0  0  0  0  0  0  0  0  0  0
  149.7640  142.1885  155.6635 H   0  0  0  0  0  0  0  0  0  0  0  0
  150.3417  141.7237  154.0951 H   0  0  0  0  0  0  0  0  0  0  0  0
  148.2887  140.1830  155.7743 H   0  0  0  0  0  0  0  0  0  0  0  0
  147.9423  141.1451  154.3497 H   0  0  0  0  0  0  0  0  0  0  0  0
  147.9533  137.4746  153.6175 H   0  0  0  0  0  0  0  0  0  0  0  0
  147.0685  138.6147  154.6012 H   0  0  0  0  0  0  0  0  0  0  0  0
  147.0415  140.1080  152.3700 H   0  0  0  0  0  0  0  0  0  0  0  0
  147.2814  138.5665  151.5811 H   0  0  0  0  0  0  0  0  0  0  0  0
  144.8419  139.4586  152.4425 H   0  0  0  0  0  0  0  0  0  0  0  0
  143.2157  138.3803  152.7402 H   0  0  0  0  0  0  0  0  0  0  0  0
  141.2205  133.3424  153.3555 H   0  0  0  0  0  0  0  0  0  0  0  0
  149.8064  137.9857  155.3599 H   0  0  0  0  0  0  0  0  0  0  0  0
  150.3256  137.7171  153.7082 H   0  0  0  0  0  0  0  0  0  0  0  0
  151.6915  139.7792  153.7362 H   0  0  0  0  0  0  0  0  0  0  0  0
  152.1570  138.7210  155.0361 H   0  0  0  0  0  0  0  0  0  0  0  0
  149.2179  139.6890  153.0579 H   0  0  0  0  0  0  0  0  0  0  0  0
  1  2  1  0  0  0  0
  1 21  1  0  0  0  0
  1 22  1  0  0  0  0
  1 23  1  0  0  0  0
  2  3  2  0  0  0  0
  2  4  1  0  0  0  0
  4 20  1  0  0  0  0
  4  5  1  0  0  0  0
  5  6  1  0  0  0  0
  5 24  1  0  0  0  0
  5 25  1  0  0  0  0
  6  7  1  0  0  0  0
  6 26  1  0  0  0  0
  6 27  1  0  0  0  0
  7  8  1  0  0  0  0
  7 19  1  0  0  0  0
  7 39  1  0  0  0  0
  8  9  1  0  0  0  0
  8 28  1  0  0  0  0
  8 29  1  0  0  0  0
  9 10  1  0  0  0  0
  9 30  1  0  0  0  0
  9 31  1  0  0  0  0
 10 11  1  0  0  0  0
 10 32  1  0  0  0  0
 11 12  2  0  0  0  0
 11 13  1  0  0  0  0
 13 14  1  0  0  0  0
 13 33  1  0  0  0  0
 14 18  1  0  0  0  0
 14 15  2  0  0  0  0
 15 16  1  0  0  0  0
 16 17  2  0  0  0  0
 17 18  1  0  0  0  0
 17 34  1  0  0  0  0
 19 20  1  0  0  0  0
 19 35  1  0  0  0  0
 19 36  1  0  0  0  0
 20 37  1  0  0  0  0
 20 38  1  0  0  0  0
M  CHG  1   7   1
M  END
> <s_m_source_file>
AV-unprocessed.smi

> <i_m_source_file_index>
1680

> <i_lp_mmshare_version>
43012

> <i_f3d_flags>
0

> <s_epik_input>
W0NIM11DKD1PKU4xW0NIMl1bQ0gyXU4oW0NIMl1bQ0gyXTEpW0NIMl1bQ0gyXVtOSF1DKD1PKVtOSF1jMm5uW2NIXXMy

> <s_epik_cmdline>
J2VwaWtfcHl0aG9uJywgJy1waCcsICc3LjAnLCAnLXRuJywgJzgnLCAnLW1hJywgJzIwMCcsICctbWV0YWxfYmluZGluZycsICctaW1hZScsICc8aW5maWxlLm1hZT4nLCAnLW9tYWUnLCAnPG91dGZpbGUubWFlPic=

> <r_lp_tautomer_probability>
1

> <r_epik_Ionization_Penalty>
0.679071

> <r_epik_Ionization_Penalty_Charging>
0.67523

> <r_epik_Ionization_Penalty_Neutral>
0.00384089

> <r_epik_State_Penalty>
0.695776

> <r_epik_Charging_Adjusted_Penalty>
1.37101

> <i_epik_Tot_Q>
1

> <i_epik_Tot_abs_Q>
1

> <r_epik_Metal_State_Penalty>
1.03363

> <b_epik_Metal_Only>
0

> <s_lp_Force_Field>
OPLS_2005

> <r_lp_Energy>
38.3378

> <b_lp_Chiralities_Consistent>
1

> <s_lp_Variant>
AV-unprocessed.smi:1680-2

> <Gold.Version>
5.8.1

> <Gold.Id.Protein>
6NUR|6NUR_protein|mol2

> <Gold.PLP.Fitness>
44.8398

> <Gold.PLP.PLP>
-32.0912

> <Gold.PLP.part.hbond>
-4.8644

> <Gold.PLP.part.metal>
0.0000

> <Gold.PLP.part.buried>
0.9315

> <Gold.PLP.part.nonpolar>
-28.3031

> <Gold.PLP.part.repulsive>
0.4212

> <Gold.PLP.ligand.clash>
0.0000

> <Gold.PLP.ligand.torsion>
0.9505

> <Gold.PLP.Chemscore.Hbond>
4.2303

> <Gold.PLP.Chemscore.CHOScore>
0.6413

> <Gold.PLP.Chemscore.Metal>
0.0000

> <Gold.Chemscore.Hbonds>
donor molecule, donor type, donor heavy atom, donor atom, acceptor molecule, acceptor atom, score
      L1  H     7    39       P1  7957  1.00
      L1  H    10    32       P1 10175  1.00
      L1  H    13    33       P1 10175  0.68
      P1  H  7997  8008       L1     3  0.50
      P1  H 11000 11005       L1    16  0.94
      L1  C    17    34       P1 10957  0.63

> <Gold.PLP.Chemscore.Internal.Correction>
0.0349

> <Gold.Rescore>
     Score         DG    S(hbond)    S(metal)    S(lipo)     H(rot)  DE(clash)    DE(int)     intcor
     17.88     -21.14       3.92        0.00      61.90       1.83       1.17       2.09       ----

> <Gold.Chemscore.Fitness>
17.8752

> <Gold.Chemscore.DG>
-21.1394

> <Gold.Chemscore.ZeroCoef>
-5.4800

> <Gold.Chemscore.Hbond>
3.9204

> <Gold.Chemscore.Metal>
0.0000

> <Gold.Chemscore.Lipo>
61.9045

> <Gold.Chemscore.Internal_Hbond>
0.0000

> <Gold.Chemscore.DEClash>
1.1708

> <Gold.Chemscore.DEInternal>
2.0934

> <Gold.Chemscore.Rot>
1.8272

> <Gold.Chemscore.Internal.Correction>
   9.000000E+99

> <Gold.Chemscore.Hbonds>
donor molecule, donor type, donor heavy atom, donor atom, acceptor molecule, acceptor atom, score
      L1  H     7    39       P1  7957  0.98
      L1  H    10    32       P1 10175  0.93
      L1  H    13    33       P1 10175  0.65
      P1  H  7997  8008       L1     3  0.49
      P1  H 11000 11005       L1    16  0.38

> <Gold.Chemscore.Hbond.Weighted>
-13.0942

> <Gold.Chemscore.Metal.Weighted>
-0.0000

> <Gold.Chemscore.Lipo.Weighted>
-7.2428

> <Gold.Chemscore.Internal_Hbond.Weighted>
0.0000

> <Gold.Chemscore.DEClash.Weighted>
1.1708

> <Gold.Chemscore.DEInternal.Weighted>
2.0934

> <Gold.Chemscore.Rot.Weighted>
4.6776

> <Gold.Chemscore.Internal.Correction.Weighted>
   9.000000E+99

> <Gold.Protein.RotatedTorsions>
[ 6907 6896 6895 6894 ] final -156.58 input  -60.11 | X-H torsion
[ 7974 7965 7964 7962 ] final  167.53 input  175.53 | X-H torsion
[ 8008 7997 7996 7995 ] final  -74.69 input   59.86 | X-H torsion
[ 10167 10162 10161 10158 ] final   35.80 input  -65.29 | X-H torsion
[ 10718 10713 10712 10709 ] final  -20.48 input   66.30 | X-H torsion
[ 10763 10752 10751 10750 ] final   35.26 input  -60.55 | X-H torsion
[ 11005 11000 10999 10996 ] final   31.88 input  -57.11 | X-H torsion

> <Gold.Protein.ActiveResidues>
 VAL166  LYS551  ARG553  GLY616  TRP617  ASP618  TYR619  PRO620  LYS621  CYS622 
 ASP623  PHE694  ASN695  SER759  ASP760  ASP761  ALA762  ILE779  LEU786  VAL792 
 PHE793  MET794  SER795  GLU796  ALA797  LYS798  CYS799  TRP800  GLU811  SER814 

> <Gold.Protein.RotatedAtoms>
  151.2898  133.4170  159.2632 H   0  0  0  0  0  0  0  0  0  0  0  0  # atno 6907 bound_to 6896
  151.0287  134.9524  159.8109 H   0  0  0  0  0  0  0  0  0  0  0  0  # atno 6908 bound_to 6896
  152.5341  134.2859  159.9077 H   0  0  0  0  0  0  0  0  0  0  0  0  # atno 6909 bound_to 6896
  144.7421  139.8774  143.6393 H   0  0  0  0  0  0  0  0  0  0  0  0  # atno 7974 bound_to 7965
  154.5352  140.0757  156.8415 H   0  0  0  0  0  0  0  0  0  0  0  0  # atno 8008 bound_to 7997
  155.3292  140.3401  155.4221 H   0  0  0  0  0  0  0  0  0  0  0  0  # atno 8009 bound_to 7997
  156.1821  140.1656  156.8241 H   0  0  0  0  0  0  0  0  0  0  0  0  # atno 8010 bound_to 7997
  140.4188  144.1489  150.6146 H   0  0  0  0  0  0  0  0  0  0  0  0  # atno 10167 bound_to 10162
  156.5312  130.4655  149.6546 H   0  0  0  0  0  0  0  0  0  0  0  0  # atno 10718 bound_to 10713
  153.0127  135.6338  154.1798 H   0  0  0  0  0  0  0  0  0  0  0  0  # atno 10763 bound_to 10752
  154.1539  135.2827  155.3129 H   0  0  0  0  0  0  0  0  0  0  0  0  # atno 10764 bound_to 10752
  154.6032  135.5580  153.7457 H   0  0  0  0  0  0  0  0  0  0  0  0  # atno 10765 bound_to 10752
  140.2792  134.2992  155.7805 H   0  0  0  0  0  0  0  0  0  0  0  0  # atno 11005 bound_to 11000
  146.1236  139.4258  143.0213 LP  0  0  0  0  0  0  0  0  0  0  0  0  # atno 17320 bound_to 7965
  145.7268  141.0056  143.1373 LP  0  0  0  0  0  0  0  0  0  0  0  0  # atno 17321 bound_to 7965
  140.4557  143.2469  151.9288 LP  0  0  0  0  0  0  0  0  0  0  0  0  # atno 17342 bound_to 10162
  139.4782  144.5518  151.8374 LP  0  0  0  0  0  0  0  0  0  0  0  0  # atno 17343 bound_to 10162
  156.3058  130.7202  151.2083 LP  0  0  0  0  0  0  0  0  0  0  0  0  # atno 17370 bound_to 10713
  157.7421  131.0494  150.5047 LP  0  0  0  0  0  0  0  0  0  0  0  0  # atno 17371 bound_to 10713
  141.2165  133.7515  156.9455 LP  0  0  0  0  0  0  0  0  0  0  0  0  # atno 17394 bound_to 11000
  140.1299  134.9362  157.2322 LP  0  0  0  0  0  0  0  0  0  0  0  0  # atno 17395 bound_to 11000

$$$$
