AV-unprocessed.smi:2547|AV-procd|sdf|10006|dock1
  -GOLD-   2272014 53D 1   1.00000     0.00000
 Structure written by MMmdl.
 44 45  0  0  0  0  0  0  0  0  2 V2000
  144.1837  142.7979  154.9966 C   0  0  0  0  0  0  0  0  0  0  0  0
  145.3051  141.8900  154.6728 N   0  3  2  0  0  0  0  0  0  0  0  0
  145.9283  141.3070  155.8869 C   0  0  0  0  0  0  0  0  0  0  0  0
  147.0036  140.2698  155.5143 C   0  0  0  0  0  0  0  0  0  0  0  0
  148.0695  140.8568  154.5719 C   0  0  2  0  0  0  0  0  0  0  0  0
  148.9085  141.8228  155.2824 N   0  0  0  0  0  0  0  0  0  0  0  0
  150.1874  141.6563  155.6516 C   0  0  0  0  0  0  0  0  0  0  0  0
  150.8013  140.6129  155.4094 O   0  0  0  0  0  0  0  0  0  0  0  0
  150.6348  142.7999  156.3042 N   0  0  0  0  0  0  0  0  0  0  0  0
  151.3379  142.7588  157.3991 C   0  0  0  0  0  0  0  0  0  0  0  0
  151.7710  143.9965  158.0255 C   0  0  0  0  0  0  0  0  0  0  0  0
  152.5003  143.9839  159.1599 C   0  0  0  0  0  0  0  0  0  0  0  0
  152.8767  142.7369  159.7924 C   0  0  0  0  0  0  0  0  0  0  0  0
  152.4934  141.5700  159.2408 C   0  0  0  0  0  0  0  0  0  0  0  0
  152.8549  140.3827  159.8479 N   0  0  0  0  0  0  0  0  0  0  0  0
  152.4643  139.0994  159.2893 C   0  0  0  0  0  0  0  0  0  0  0  0
  153.8724  140.3436  160.8845 C   0  0  0  0  0  0  0  0  0  0  0  0
  151.7398  141.5872  158.0684 N   0  0  0  0  0  0  0  0  0  0  0  0
  147.3918  141.5179  153.3587 C   0  0  0  0  0  0  0  0  0  0  0  0
  146.3073  142.5259  153.7817 C   0  0  0  0  0  0  0  0  0  0  0  0
  144.5314  143.6645  155.5609 H   0  0  0  0  0  0  0  0  0  0  0  0
  143.4297  142.2815  155.5914 H   0  0  0  0  0  0  0  0  0  0  0  0
  143.7007  143.1534  154.0856 H   0  0  0  0  0  0  0  0  0  0  0  0
  146.3623  142.1028  156.4942 H   0  0  0  0  0  0  0  0  0  0  0  0
  145.1610  140.8289  156.4968 H   0  0  0  0  0  0  0  0  0  0  0  0
  147.4732  139.8743  156.4161 H   0  0  0  0  0  0  0  0  0  0  0  0
  146.5240  139.4203  155.0256 H   0  0  0  0  0  0  0  0  0  0  0  0
  148.6834  140.0327  154.2054 H   0  0  0  0  0  0  0  0  0  0  0  0
  148.4776  142.7051  155.5178 H   0  0  0  0  0  0  0  0  0  0  0  0
  151.5211  144.9579  157.6005 H   0  0  0  0  0  0  0  0  0  0  0  0
  152.8091  144.9184  159.6049 H   0  0  0  0  0  0  0  0  0  0  0  0
  153.4614  142.7502  160.7010 H   0  0  0  0  0  0  0  0  0  0  0  0
  151.5479  139.1940  158.7059 H   0  0  0  0  0  0  0  0  0  0  0  0
  152.2872  138.3696  160.0799 H   0  0  0  0  0  0  0  0  0  0  0  0
  153.2483  138.7175  158.6352 H   0  0  0  0  0  0  0  0  0  0  0  0
  153.9313  141.3001  161.4053 H   0  0  0  0  0  0  0  0  0  0  0  0
  154.8486  140.1315  160.4480 H   0  0  0  0  0  0  0  0  0  0  0  0
  153.6474  139.5718  161.6207 H   0  0  0  0  0  0  0  0  0  0  0  0
  148.1367  142.0085  152.7306 H   0  0  0  0  0  0  0  0  0  0  0  0
  146.9357  140.7444  152.7392 H   0  0  0  0  0  0  0  0  0  0  0  0
  145.8098  142.9158  152.8929 H   0  0  0  0  0  0  0  0  0  0  0  0
  146.7593  143.3798  154.2891 H   0  0  0  0  0  0  0  0  0  0  0  0
  144.9077  141.1192  154.1548 H   0  0  0  0  0  0  0  0  0  0  0  0
  151.4839  140.6804  157.7049 H   0  0  0  0  0  0  0  0  0  0  0  0
  1  2  1  0  0  0  0
  1 21  1  0  0  0  0
  1 22  1  0  0  0  0
  1 23  1  0  0  0  0
  2 20  1  0  0  0  0
  2  3  1  0  0  0  0
  2 43  1  0  0  0  0
  3  4  1  0  0  0  0
  3 24  1  0  0  0  0
  3 25  1  0  0  0  0
  4  5  1  0  0  0  0
  4 26  1  0  0  0  0
  4 27  1  0  0  0  0
  5  6  1  0  0  0  0
  5 19  1  0  0  0  0
  5 28  1  0  0  0  0
  6  7  1  0  0  0  0
  6 29  1  0  0  0  0
  7  8  2  0  0  0  0
  7  9  1  0  0  0  0
  9 10  2  0  0  0  0
 10 18  1  0  0  0  0
 10 11  1  0  0  0  0
 11 12  2  0  0  0  0
 11 30  1  0  0  0  0
 12 13  1  0  0  0  0
 12 31  1  0  0  0  0
 13 14  2  0  0  0  0
 13 32  1  0  0  0  0
 14 15  1  0  0  0  0
 14 18  1  0  0  0  0
 15 16  1  0  0  0  0
 15 17  1  0  0  0  0
 16 33  1  0  0  0  0
 16 34  1  0  0  0  0
 16 35  1  0  0  0  0
 17 36  1  0  0  0  0
 17 37  1  0  0  0  0
 17 38  1  0  0  0  0
 18 44  1  0  0  0  0
 19 20  1  0  0  0  0
 19 39  1  0  0  0  0
 19 40  1  0  0  0  0
 20 41  1  0  0  0  0
 20 42  1  0  0  0  0
M  CHG  1   2   1
M  END
> <s_m_source_file>
AV-unprocessed.smi

> <i_m_source_file_index>
2547

> <i_lp_mmshare_version>
43012

> <i_f3d_flags>
0

> <s_epik_input>
W0NIM11OMVtDSDJdW0NIMl1bQ0hdKFtDSDJdW0NIMl0xKVtOSF1DKD1PKVtOSF1jMltjSF1bY0hdW2NIXWMobjIpTihbQ0gzXSlbQ0gzXQ==

> <s_epik_cmdline>
J2VwaWtfcHl0aG9uJywgJy1waCcsICc3LjAnLCAnLXRuJywgJzgnLCAnLW1hJywgJzIwMCcsICctbWV0YWxfYmluZGluZycsICctaW1hZScsICc8aW5maWxlLm1hZT4nLCAnLW9tYWUnLCAnPG91dGZpbGUubWFlPic=

> <r_lp_tautomer_probability>
0.999994

> <r_epik_Ionization_Penalty>
1.33208

> <r_epik_Ionization_Penalty_Charging>
1.33208

> <r_epik_Ionization_Penalty_Neutral>
6.0327e-08

> <r_epik_State_Penalty>
3.49719

> <r_epik_Charging_Adjusted_Penalty>
4.82927

> <i_epik_Tot_Q>
1

> <i_epik_Tot_abs_Q>
1

> <r_epik_Metal_State_Penalty>
3.51567

> <b_epik_Metal_Only>
1

> <s_lp_Force_Field>
OPLS_2005

> <r_lp_Energy>
40.5886

> <b_lp_Chiralities_Consistent>
1

> <s_lp_Variant>
AV-unprocessed.smi:2547-6

> <Gold.Version>
5.8.1

> <Gold.Id.Protein>
6NUR|6NUR_protein|mol2

> <Gold.PLP.Fitness>
45.0831

> <Gold.PLP.PLP>
-36.9624

> <Gold.PLP.part.hbond>
-2.8721

> <Gold.PLP.part.metal>
0.0000

> <Gold.PLP.part.buried>
-5.9826

> <Gold.PLP.part.nonpolar>
-29.8246

> <Gold.PLP.part.repulsive>
3.1779

> <Gold.PLP.ligand.clash>
0.0000

> <Gold.PLP.ligand.torsion>
0.5121

> <Gold.PLP.Chemscore.Hbond>
3.0192

> <Gold.PLP.Chemscore.CHOScore>
0.0000

> <Gold.PLP.Chemscore.Metal>
0.0000

> <Gold.Chemscore.Hbonds>
donor molecule, donor type, donor heavy atom, donor atom, acceptor molecule, acceptor atom, score
      L1  H     2    43       P1 10175  1.27
      L1  H     6    29       P1  8028  0.81
      P1  H  7989  7998       L1     8  0.77

> <Gold.PLP.Chemscore.Internal.Correction>
0.0873

> <Gold.Rescore>
     Score         DG    S(hbond)    S(metal)    S(lipo)     H(rot)  DE(clash)    DE(int)     intcor
     15.66     -18.20       1.74        0.00      80.82       1.00       1.99       0.55       ----

> <Gold.Chemscore.Fitness>
15.6578

> <Gold.Chemscore.DG>
-18.2022

> <Gold.Chemscore.ZeroCoef>
-5.4800

> <Gold.Chemscore.Hbond>
1.7444

> <Gold.Chemscore.Metal>
0.0000

> <Gold.Chemscore.Lipo>
80.8203

> <Gold.Chemscore.Internal_Hbond>
0.0000

> <Gold.Chemscore.DEClash>
1.9923

> <Gold.Chemscore.DEInternal>
0.5521

> <Gold.Chemscore.Rot>
1.0000

> <Gold.Chemscore.Internal.Correction>
   9.000000E+99

> <Gold.Chemscore.Hbonds>
donor molecule, donor type, donor heavy atom, donor atom, acceptor molecule, acceptor atom, score
      L1  H     2    43       P1 10175  0.51
      L1  H     6    29       P1  8028  0.76
      P1  H  7989  7998       L1     8  0.37

> <Gold.Chemscore.Hbond.Weighted>
-5.8262

> <Gold.Chemscore.Metal.Weighted>
-0.0000

> <Gold.Chemscore.Lipo.Weighted>
-9.4560

> <Gold.Chemscore.Internal_Hbond.Weighted>
0.0000

> <Gold.Chemscore.DEClash.Weighted>
1.9923

> <Gold.Chemscore.DEInternal.Weighted>
0.5521

> <Gold.Chemscore.Rot.Weighted>
2.5600

> <Gold.Chemscore.Internal.Correction.Weighted>
   9.000000E+99

> <Gold.Protein.RotatedTorsions>
[ 6907 6896 6895 6894 ] final   87.69 input  -60.11 | X-H torsion
[ 7974 7965 7964 7962 ] final  128.80 input  175.53 | X-H torsion
[ 8008 7997 7996 7995 ] final  155.94 input   59.86 | X-H torsion
[ 10167 10162 10161 10158 ] final  -76.17 input  -65.29 | X-H torsion
[ 10718 10713 10712 10709 ] final  168.74 input   66.30 | X-H torsion
[ 10763 10752 10751 10750 ] final   16.25 input  -60.55 | X-H torsion
[ 11005 11000 10999 10996 ] final  178.60 input  -57.11 | X-H torsion

> <Gold.Protein.ActiveResidues>
 VAL166  LYS551  ARG553  GLY616  TRP617  ASP618  TYR619  PRO620  LYS621  CYS622 
 ASP623  PHE694  ASN695  SER759  ASP760  ASP761  ALA762  ILE779  LEU786  VAL792 
 PHE793  MET794  SER795  GLU796  ALA797  LYS798  CYS799  TRP800  GLU811  SER814 

> <Gold.Protein.RotatedAtoms>
  152.5415  134.2238  159.8797 H   0  0  0  0  0  0  0  0  0  0  0  0  # atno 6907 bound_to 6896
  151.2213  133.4494  159.2608 H   0  0  0  0  0  0  0  0  0  0  0  0  # atno 6908 bound_to 6896
  151.0802  134.9867  159.8408 H   0  0  0  0  0  0  0  0  0  0  0  0  # atno 6909 bound_to 6896
  145.0356  139.4007  143.5128 H   0  0  0  0  0  0  0  0  0  0  0  0  # atno 7974 bound_to 7965
  156.2450  140.1926  156.6879 H   0  0  0  0  0  0  0  0  0  0  0  0  # atno 8008 bound_to 7997
  154.6273  140.0600  156.9716 H   0  0  0  0  0  0  0  0  0  0  0  0  # atno 8009 bound_to 7997
  155.1765  140.3273  155.4385 H   0  0  0  0  0  0  0  0  0  0  0  0  # atno 8010 bound_to 7997
  140.4880  143.2386  151.7952 H   0  0  0  0  0  0  0  0  0  0  0  0  # atno 10167 bound_to 10162
  157.0327  131.0264  151.2739 H   0  0  0  0  0  0  0  0  0  0  0  0  # atno 10718 bound_to 10713
  153.1448  135.6767  153.8972 H   0  0  0  0  0  0  0  0  0  0  0  0  # atno 10763 bound_to 10752
  153.8417  135.3104  155.3428 H   0  0  0  0  0  0  0  0  0  0  0  0  # atno 10764 bound_to 10752
  154.7816  135.4885  153.9942 H   0  0  0  0  0  0  0  0  0  0  0  0  # atno 10765 bound_to 10752
  140.3969  134.6812  157.4540 H   0  0  0  0  0  0  0  0  0  0  0  0  # atno 11005 bound_to 11000
  146.3504  139.9930  142.8684 LP  0  0  0  0  0  0  0  0  0  0  0  0  # atno 17320 bound_to 7965
  145.1714  140.9722  143.4320 LP  0  0  0  0  0  0  0  0  0  0  0  0  # atno 17321 bound_to 7965
  139.4845  144.4686  151.9453 LP  0  0  0  0  0  0  0  0  0  0  0  0  # atno 17342 bound_to 10162
  140.3773  144.2781  150.5912 LP  0  0  0  0  0  0  0  0  0  0  0  0  # atno 17343 bound_to 10162
  157.5165  130.7971  149.7762 LP  0  0  0  0  0  0  0  0  0  0  0  0  # atno 17370 bound_to 10713
  156.0064  130.3853  150.2417 LP  0  0  0  0  0  0  0  0  0  0  0  0  # atno 17371 bound_to 10713
  140.0365  134.6330  155.9037 LP  0  0  0  0  0  0  0  0  0  0  0  0  # atno 17394 bound_to 11000
  141.1871  133.6559  156.5266 LP  0  0  0  0  0  0  0  0  0  0  0  0  # atno 17395 bound_to 11000

$$$$
