AV-unprocessed.smi:3031|AV-procd|sdf|11554|dock6
  -GOLD-   2272016513D 1   1.00000     0.00000
 Structure written by MMmdl.
 46 47  0  0  0  0  0  0  0  0  1 V2000
  153.1193  142.6516  161.1324 C   0  0  0  0  0  0  0  0  0  0  0  0
  152.5784  142.0536  159.8658 C   0  0  0  0  0  0  0  0  0  0  0  0
  151.8285  142.6992  158.8420 C   0  0  0  0  0  0  0  0  0  0  0  0
  151.4981  141.8831  157.8546 N   0  0  0  0  0  0  0  0  0  0  0  0
  152.0395  140.6951  158.2004 N   0  0  0  0  0  0  0  0  0  0  0  0
  151.8525  139.5384  157.3392 C   0  0  0  0  0  0  0  0  0  0  0  0
  152.1516  139.8133  155.8439 C   0  0  1  0  0  0  0  0  0  0  0  0
  152.5670  138.5157  155.1360 C   0  0  0  0  0  0  0  0  0  0  0  0
  151.0123  140.3937  155.1220 N   0  0  0  0  0  0  0  0  0  0  0  0
  149.8263  139.5475  154.9955 C   0  0  0  0  0  0  0  0  0  0  0  0
  148.6503  140.3229  154.3804 C   0  0  2  0  0  0  0  0  0  0  0  0
  149.1584  141.0456  153.2780 O   0  0  0  0  0  0  0  0  0  0  0  0
  148.0343  141.3315  155.3749 C   0  0  0  0  0  0  0  0  0  0  0  0
  146.6908  141.8098  155.0441 N   0  0  0  0  0  0  0  0  0  0  0  0
  146.7412  142.7895  153.9640 C   0  0  0  0  0  0  0  0  0  0  0  0
  145.3419  143.3072  153.5900 C   0  0  0  0  0  0  0  0  0  0  0  0
  144.7206  143.8671  154.7419 O   0  0  0  0  0  0  0  0  0  0  0  0
  144.6087  142.9343  155.8118 C   0  0  0  0  0  0  0  0  0  0  0  0
  146.0037  142.4048  156.1893 C   0  0  0  0  0  0  0  0  0  0  0  0
  152.6792  140.7661  159.4206 C   0  0  0  0  0  0  0  0  0  0  0  0
  152.9452  143.7269  161.1805 H   0  0  0  0  0  0  0  0  0  0  0  0
  154.1947  142.4966  161.2222 H   0  0  0  0  0  0  0  0  0  0  0  0
  152.6553  142.2111  162.0149 H   0  0  0  0  0  0  0  0  0  0  0  0
  151.5125  143.7308  158.7898 H   0  0  0  0  0  0  0  0  0  0  0  0
  152.5247  138.7651  157.7129 H   0  0  0  0  0  0  0  0  0  0  0  0
  150.8413  139.1460  157.4614 H   0  0  0  0  0  0  0  0  0  0  0  0
  153.0017  140.4923  155.7693 H   0  0  0  0  0  0  0  0  0  0  0  0
  153.4581  138.0851  155.5936 H   0  0  0  0  0  0  0  0  0  0  0  0
  152.7960  138.6951  154.0849 H   0  0  0  0  0  0  0  0  0  0  0  0
  151.7751  137.7671  155.1815 H   0  0  0  0  0  0  0  0  0  0  0  0
  150.7516  141.2724  155.5581 H   0  0  0  0  0  0  0  0  0  0  0  0
  150.0359  138.6744  154.3802 H   0  0  0  0  0  0  0  0  0  0  0  0
  149.5390  139.1798  155.9816 H   0  0  0  0  0  0  0  0  0  0  0  0
  147.9110  139.6116  154.0139 H   0  0  0  0  0  0  0  0  0  0  0  0
  149.4527  140.4284  152.6258 H   0  0  0  0  0  0  0  0  0  0  0  0
  148.0120  140.8878  156.3714 H   0  0  0  0  0  0  0  0  0  0  0  0
  148.7106  142.1843  155.4513 H   0  0  0  0  0  0  0  0  0  0  0  0
  147.3694  143.6320  154.2576 H   0  0  0  0  0  0  0  0  0  0  0  0
  147.2067  142.3460  153.0831 H   0  0  0  0  0  0  0  0  0  0  0  0
  145.4142  144.0717  152.8165 H   0  0  0  0  0  0  0  0  0  0  0  0
  144.7252  142.5012  153.1890 H   0  0  0  0  0  0  0  0  0  0  0  0
  144.1464  143.4273  156.6670 H   0  0  0  0  0  0  0  0  0  0  0  0
  143.9508  142.1141  155.5202 H   0  0  0  0  0  0  0  0  0  0  0  0
  145.8887  141.6734  156.9880 H   0  0  0  0  0  0  0  0  0  0  0  0
  146.6013  143.2219  156.5961 H   0  0  0  0  0  0  0  0  0  0  0  0
  153.1538  139.9042  159.8660 H   0  0  0  0  0  0  0  0  0  0  0  0
  1  2  1  0  0  0  0
  1 21  1  0  0  0  0
  1 22  1  0  0  0  0
  1 23  1  0  0  0  0
  2 20  2  0  0  0  0
  2  3  1  0  0  0  0
  3  4  2  0  0  0  0
  3 24  1  0  0  0  0
  4  5  1  0  0  0  0
  5  6  1  0  0  0  0
  5 20  1  0  0  0  0
  6  7  1  0  0  0  0
  6 25  1  0  0  0  0
  6 26  1  0  0  0  0
  7  8  1  0  0  0  0
  7  9  1  0  0  0  0
  7 27  1  0  0  0  0
  8 28  1  0  0  0  0
  8 29  1  0  0  0  0
  8 30  1  0  0  0  0
  9 10  1  0  0  0  0
  9 31  1  0  0  0  0
 10 11  1  0  0  0  0
 10 32  1  0  0  0  0
 10 33  1  0  0  0  0
 11 12  1  0  0  0  0
 11 13  1  0  0  0  0
 11 34  1  0  0  0  0
 12 35  1  0  0  0  0
 13 14  1  0  0  0  0
 13 36  1  0  0  0  0
 13 37  1  0  0  0  0
 14 19  1  0  0  0  0
 14 15  1  0  0  0  0
 15 16  1  0  0  0  0
 15 38  1  0  0  0  0
 15 39  1  0  0  0  0
 16 17  1  0  0  0  0
 16 40  1  0  0  0  0
 16 41  1  0  0  0  0
 17 18  1  0  0  0  0
 18 19  1  0  0  0  0
 18 42  1  0  0  0  0
 18 43  1  0  0  0  0
 19 44  1  0  0  0  0
 19 45  1  0  0  0  0
 20 46  1  0  0  0  0
M  END
> <s_m_source_file>
AV-unprocessed.smi

> <i_m_source_file_index>
3031

> <i_lp_mmshare_version>
43012

> <i_f3d_flags>
0

> <s_epik_input>
W0NIM11jMVtjSF1ubihbY0hdMSlbQ0gyXVtDQEhdKFtDSDNdKVtOSF1bQ0gyXVtDQEhdKFtPSF0pW0NIMl1OMltDSDJdW0NIMl1PW0NIMl1bQ0gyXTI=

> <s_epik_cmdline>
J2VwaWtfcHl0aG9uJywgJy1waCcsICc3LjAnLCAnLXRuJywgJzgnLCAnLW1hJywgJzIwMCcsICctbWV0YWxfYmluZGluZycsICctaW1hZScsICc8aW5maWxlLm1hZT4nLCAnLW9tYWUnLCAnPG91dGZpbGUubWFlPic=

> <r_lp_tautomer_probability>
1

> <r_epik_Ionization_Penalty>
2.8101

> <r_epik_Ionization_Penalty_Charging>
0

> <r_epik_Ionization_Penalty_Neutral>
2.8101

> <r_epik_State_Penalty>
2.12351

> <r_epik_Charging_Adjusted_Penalty>
2.12351

> <i_epik_Tot_Q>
0

> <i_epik_Tot_abs_Q>
0

> <r_epik_Metal_State_Penalty>
2.12345

> <b_epik_Metal_Only>
0

> <s_lp_Force_Field>
OPLS_2005

> <r_lp_Energy>
32.7569

> <b_lp_Chiralities_Consistent>
1

> <s_lp_Variant>
AV-unprocessed.smi:3031-14

> <Gold.Version>
5.8.1

> <Gold.Id.Protein>
6NUR|6NUR_protein|mol2

> <Gold.PLP.Fitness>
46.9355

> <Gold.PLP.PLP>
-41.2146

> <Gold.PLP.part.hbond>
-3.6132

> <Gold.PLP.part.metal>
0.0000

> <Gold.PLP.part.buried>
-4.9680

> <Gold.PLP.part.nonpolar>
-33.1470

> <Gold.PLP.part.repulsive>
0.3200

> <Gold.PLP.ligand.clash>
0.0000

> <Gold.PLP.ligand.torsion>
0.8572

> <Gold.PLP.Chemscore.Hbond>
2.4500

> <Gold.PLP.Chemscore.CHOScore>
0.0000

> <Gold.PLP.Chemscore.Metal>
0.0000

> <Gold.Chemscore.Hbonds>
donor molecule, donor type, donor heavy atom, donor atom, acceptor molecule, acceptor atom, score
      L1  H    12    35       P1  7957  0.95
      P1  H  7989  7998       L1     9  1.00
      P1  H  8011  8017       L1    12  0.55

> <Gold.PLP.Chemscore.Internal.Correction>
0.0854

> <Gold.Rescore>
     Score         DG    S(hbond)    S(metal)    S(lipo)     H(rot)  DE(clash)    DE(int)     intcor
     13.26     -14.34       1.20        0.00      96.83       2.53       0.10       0.98       ----

> <Gold.Chemscore.Fitness>
13.2602

> <Gold.Chemscore.DG>
-14.3386

> <Gold.Chemscore.ZeroCoef>
-5.4800

> <Gold.Chemscore.Hbond>
1.2019

> <Gold.Chemscore.Metal>
0.0000

> <Gold.Chemscore.Lipo>
96.8337

> <Gold.Chemscore.Internal_Hbond>
0.0000

> <Gold.Chemscore.DEClash>
0.1008

> <Gold.Chemscore.DEInternal>
0.9775

> <Gold.Chemscore.Rot>
2.5333

> <Gold.Chemscore.Internal.Correction>
   9.000000E+99

> <Gold.Chemscore.Hbonds>
donor molecule, donor type, donor heavy atom, donor atom, acceptor molecule, acceptor atom, score
      L1  H    12    35       P1  7957  0.86
      P1  H  7989  7998       L1     9  0.19
      P1  H  8011  8017       L1    12  0.03

> <Gold.Chemscore.Hbond.Weighted>
-4.0142

> <Gold.Chemscore.Metal.Weighted>
-0.0000

> <Gold.Chemscore.Lipo.Weighted>
-11.3295

> <Gold.Chemscore.Internal_Hbond.Weighted>
0.0000

> <Gold.Chemscore.DEClash.Weighted>
0.1008

> <Gold.Chemscore.DEInternal.Weighted>
0.9775

> <Gold.Chemscore.Rot.Weighted>
6.4852

> <Gold.Chemscore.Internal.Correction.Weighted>
   9.000000E+99

> <Gold.Protein.RotatedTorsions>
[ 6907 6896 6895 6894 ] final   14.86 input  -60.11 | X-H torsion
[ 7974 7965 7964 7962 ] final   79.26 input  175.53 | X-H torsion
[ 8008 7997 7996 7995 ] final -139.18 input   59.86 | X-H torsion
[ 10167 10162 10161 10158 ] final -128.97 input  -65.29 | X-H torsion
[ 10718 10713 10712 10709 ] final  154.43 input   66.30 | X-H torsion
[ 10763 10752 10751 10750 ] final -115.64 input  -60.55 | X-H torsion
[ 11005 11000 10999 10996 ] final  -37.42 input  -57.11 | X-H torsion

> <Gold.Protein.ActiveResidues>
 VAL166  LYS551  ARG553  GLY616  TRP617  ASP618  TYR619  PRO620  LYS621  CYS622 
 ASP623  PHE694  ASN695  SER759  ASP760  ASP761  ALA762  ILE779  LEU786  VAL792 
 PHE793  MET794  SER795  GLU796  ALA797  LYS798  CYS799  TRP800  GLU811  SER814 

> <Gold.Protein.RotatedAtoms>
  151.8089  135.0687  160.0409 H   0  0  0  0  0  0  0  0  0  0  0  0  # atno 6907 bound_to 6896
  152.3035  133.5675  159.5642 H   0  0  0  0  0  0  0  0  0  0  0  0  # atno 6908 bound_to 6896
  150.7285  134.0173  159.3731 H   0  0  0  0  0  0  0  0  0  0  0  0  # atno 6909 bound_to 6896
  145.6666  139.2485  143.1892 H   0  0  0  0  0  0  0  0  0  0  0  0  # atno 7974 bound_to 7965
  155.4406  140.0531  157.3010 H   0  0  0  0  0  0  0  0  0  0  0  0  # atno 8008 bound_to 7997
  154.4820  140.2085  155.9699 H   0  0  0  0  0  0  0  0  0  0  0  0  # atno 8009 bound_to 7997
  156.1219  140.3187  155.8226 H   0  0  0  0  0  0  0  0  0  0  0  0  # atno 8010 bound_to 7997
  139.9447  143.6123  152.2493 H   0  0  0  0  0  0  0  0  0  0  0  0  # atno 10167 bound_to 10162
  157.2318  131.0740  151.1848 H   0  0  0  0  0  0  0  0  0  0  0  0  # atno 10718 bound_to 10713
  154.8489  135.4374  154.1695 H   0  0  0  0  0  0  0  0  0  0  0  0  # atno 10763 bound_to 10752
  153.2812  135.6953  153.7390 H   0  0  0  0  0  0  0  0  0  0  0  0  # atno 10764 bound_to 10752
  153.6593  135.3438  155.3097 H   0  0  0  0  0  0  0  0  0  0  0  0  # atno 10765 bound_to 10752
  140.9950  133.6985  156.1918 H   0  0  0  0  0  0  0  0  0  0  0  0  # atno 11005 bound_to 11000
  146.1081  140.7462  142.9516 LP  0  0  0  0  0  0  0  0  0  0  0  0  # atno 17320 bound_to 7965
  144.7071  140.3894  143.7109 LP  0  0  0  0  0  0  0  0  0  0  0  0  # atno 17321 bound_to 7965
  139.6676  144.7662  151.1844 LP  0  0  0  0  0  0  0  0  0  0  0  0  # atno 17342 bound_to 10162
  140.7600  143.5914  150.8792 LP  0  0  0  0  0  0  0  0  0  0  0  0  # atno 17343 bound_to 10162
  157.3470  130.7063  149.6417 LP  0  0  0  0  0  0  0  0  0  0  0  0  # atno 17370 bound_to 10713
  155.9675  130.4263  150.4694 LP  0  0  0  0  0  0  0  0  0  0  0  0  # atno 17371 bound_to 10713
  140.6980  134.4595  157.5587 LP  0  0  0  0  0  0  0  0  0  0  0  0  # atno 17394 bound_to 11000
  139.9010  134.8556  156.1895 LP  0  0  0  0  0  0  0  0  0  0  0  0  # atno 17395 bound_to 11000

$$$$
