AV-unprocessed.smi:560|AV-procd|sdf|2932|dock7
  -GOLD-   2262023423D 1   1.00000     0.00000
 Structure written by MMmdl.
 41 42  0  0  0  0  0  0  0  0  3 V2000
  154.3820  141.1846  160.5332 C   0  0  0  0  0  0  0  0  0  0  0  0
  152.9199  141.3695  160.0871 C   0  0  2  0  0  0  0  0  0  0  0  0
  152.6455  140.7847  158.6931 C   0  0  0  0  0  0  0  0  0  0  0  0
  153.4288  139.9832  158.1818 O   0  0  0  0  0  0  0  0  0  0  0  0
  151.5259  141.2057  158.0837 N   0  0  0  0  0  0  0  0  0  0  0  0
  151.0938  140.8104  156.7467 C   0  0  2  0  0  0  0  0  0  0  0  0
  149.7762  141.5193  156.3948 C   0  0  0  0  0  0  0  0  0  0  0  0
  149.2490  141.0653  155.0237 C   0  0  0  0  0  0  0  0  0  0  0  0
  149.0767  139.5883  154.9774 N   0  3  1  0  0  0  0  0  0  0  0  0
  148.4448  139.1097  153.7212 C   0  0  0  0  0  0  0  0  0  0  0  0
  147.0857  139.7845  153.5088 C   0  0  0  0  0  0  0  0  0  0  0  0
  146.0720  138.8964  153.4658 N   0  5  0  0  0  0  0  0  0  0  0  0
  147.0240  141.0072  153.4045 O   0  0  0  0  0  0  0  0  0  0  0  0
  150.3454  138.8789  155.2786 C   0  0  0  0  0  0  0  0  0  0  0  0
  150.8964  139.2860  156.6550 C   0  0  0  0  0  0  0  0  0  0  0  0
  152.5335  142.7737  160.1263 N   0  0  0  0  0  0  0  0  0  0  0  0
  152.3903  143.6028  161.2222 C   0  0  0  0  0  0  0  0  0  0  0  0
  152.0216  144.8330  160.7593 C   0  0  0  0  0  0  0  0  0  0  0  0
  151.9621  144.6589  159.3488 C   0  0  0  0  0  0  0  0  0  0  0  0
  152.2704  143.4280  158.9732 N   0  0  0  0  0  0  0  0  0  0  0  0
  154.6712  140.1332  160.5140 H   0  0  0  0  0  0  0  0  0  0  0  0
  154.5237  141.5434  161.5531 H   0  0  0  0  0  0  0  0  0  0  0  0
  155.0752  141.7320  159.8933 H   0  0  0  0  0  0  0  0  0  0  0  0
  152.2941  140.8246  160.7970 H   0  0  0  0  0  0  0  0  0  0  0  0
  150.9419  141.8673  158.5756 H   0  0  0  0  0  0  0  0  0  0  0  0
  151.8530  141.1175  156.0243 H   0  0  0  0  0  0  0  0  0  0  0  0
  149.0244  141.3091  157.1574 H   0  0  0  0  0  0  0  0  0  0  0  0
  149.9205  142.6003  156.3935 H   0  0  0  0  0  0  0  0  0  0  0  0
  148.2987  141.5622  154.8268 H   0  0  0  0  0  0  0  0  0  0  0  0
  149.9365  141.3774  154.2360 H   0  0  0  0  0  0  0  0  0  0  0  0
  149.1028  139.2926  152.8701 H   0  0  0  0  0  0  0  0  0  0  0  0
  148.2835  138.0307  153.7617 H   0  0  0  0  0  0  0  0  0  0  0  0
  145.2202  139.1358  152.9449 H   0  0  0  0  0  0  0  0  0  0  0  0
  150.1762  137.8015  155.2677 H   0  0  0  0  0  0  0  0  0  0  0  0
  151.0778  139.0941  154.4987 H   0  0  0  0  0  0  0  0  0  0  0  0
  151.8396  138.7694  156.8361 H   0  0  0  0  0  0  0  0  0  0  0  0
  150.2079  138.9537  157.4333 H   0  0  0  0  0  0  0  0  0  0  0  0
  152.5625  143.2513  162.2292 H   0  0  0  0  0  0  0  0  0  0  0  0
  151.8238  145.7215  161.3401 H   0  0  0  0  0  0  0  0  0  0  0  0
  151.7066  145.3856  158.5918 H   0  0  0  0  0  0  0  0  0  0  0  0
  148.4293  139.3429  155.7136 H   0  0  0  0  0  0  0  0  0  0  0  0
  1  2  1  0  0  0  0
  1 21  1  0  0  0  0
  1 22  1  0  0  0  0
  1 23  1  0  0  0  0
  2  3  1  0  0  0  0
  2 16  1  0  0  0  0
  2 24  1  0  0  0  0
  3  4  2  0  0  0  0
  3  5  1  0  0  0  0
  5  6  1  0  0  0  0
  5 25  1  0  0  0  0
  6 15  1  0  0  0  0
  6  7  1  0  0  0  0
  6 26  1  0  0  0  0
  7  8  1  0  0  0  0
  7 27  1  0  0  0  0
  7 28  1  0  0  0  0
  8  9  1  0  0  0  0
  8 29  1  0  0  0  0
  8 30  1  0  0  0  0
  9 10  1  0  0  0  0
  9 14  1  0  0  0  0
  9 41  1  0  0  0  0
 10 11  1  0  0  0  0
 10 31  1  0  0  0  0
 10 32  1  0  0  0  0
 11 12  1  0  0  0  0
 11 13  2  0  0  0  0
 12 33  1  0  0  0  0
 14 15  1  0  0  0  0
 14 34  1  0  0  0  0
 14 35  1  0  0  0  0
 15 36  1  0  0  0  0
 15 37  1  0  0  0  0
 16 20  1  0  0  0  0
 16 17  1  0  0  0  0
 17 18  2  0  0  0  0
 17 38  1  0  0  0  0
 18 19  1  0  0  0  0
 18 39  1  0  0  0  0
 19 20  2  0  0  0  0
 19 40  1  0  0  0  0
M  CHG  1   9   1
M  CHG  1  12  -1
M  END
> <s_m_source_file>
AV-unprocessed.smi

> <i_m_source_file_index>
560

> <i_lp_mmshare_version>
43012

> <i_f3d_flags>
0

> <s_epik_input>
bjFbY0hdW2NIXVtjSF1uMVtDQEhdKFtDSDNdKUMoPU8pW05IXVtDSF0yW0NIMl1bQ0gyXU4oW0NIMl1bQ0gyXTIpW0NIMl1DKD1PKVtOSDJd

> <s_epik_cmdline>
J2VwaWtfcHl0aG9uJywgJy1waCcsICc3LjAnLCAnLXRuJywgJzgnLCAnLW1hJywgJzIwMCcsICctbWV0YWxfYmluZGluZycsICctaW1hZScsICc8aW5maWxlLm1hZT4nLCAnLW9tYWUnLCAnPG91dGZpbGUubWFlPic=

> <r_lp_tautomer_probability>
1

> <r_epik_Ionization_Penalty>
5.71084

> <r_epik_Ionization_Penalty_Charging>
5.71081

> <r_epik_Ionization_Penalty_Neutral>
3.04611e-05

> <r_epik_State_Penalty>
6.71277

> <r_epik_Charging_Adjusted_Penalty>
12.4236

> <i_epik_Tot_Q>
0

> <i_epik_Tot_abs_Q>
2

> <r_epik_Metal_State_Penalty>
2.67562

> <b_epik_Metal_Only>
1

> <s_lp_Force_Field>
OPLS_2005

> <r_lp_Energy>
10.6989

> <b_lp_Chiralities_Consistent>
1

> <s_lp_Variant>
AV-unprocessed.smi:560-7

> <Gold.Version>
5.8.1

> <Gold.Id.Protein>
6NUR|6NUR_protein|mol2

> <Gold.PLP.Fitness>
43.3931

> <Gold.PLP.PLP>
-38.7857

> <Gold.PLP.part.hbond>
-2.0000

> <Gold.PLP.part.metal>
0.0000

> <Gold.PLP.part.buried>
-4.6657

> <Gold.PLP.part.nonpolar>
-32.4432

> <Gold.PLP.part.repulsive>
0.3116

> <Gold.PLP.ligand.clash>
0.0000

> <Gold.PLP.ligand.torsion>
0.7401

> <Gold.PLP.Chemscore.Hbond>
2.0000

> <Gold.PLP.Chemscore.CHOScore>
0.0000

> <Gold.PLP.Chemscore.Metal>
0.0000

> <Gold.Chemscore.Hbonds>
donor molecule, donor type, donor heavy atom, donor atom, acceptor molecule, acceptor atom, score
      L1  H    12    33       P1 10175  0.84
      P1  H  7997  8009       L1     4  0.96

> <Gold.PLP.Chemscore.Internal.Correction>
0.0876

> <Gold.Rescore>
     Score         DG    S(hbond)    S(metal)    S(lipo)     H(rot)  DE(clash)    DE(int)     intcor
     12.47     -16.32       1.98        0.00      90.33       2.47       0.22       3.64       ----

> <Gold.Chemscore.Fitness>
12.4716

> <Gold.Chemscore.DG>
-16.3246

> <Gold.Chemscore.ZeroCoef>
-5.4800

> <Gold.Chemscore.Hbond>
1.9783

> <Gold.Chemscore.Metal>
0.0000

> <Gold.Chemscore.Lipo>
90.3330

> <Gold.Chemscore.Internal_Hbond>
0.0000

> <Gold.Chemscore.DEClash>
0.2162

> <Gold.Chemscore.DEInternal>
3.6368

> <Gold.Chemscore.Rot>
2.4734

> <Gold.Chemscore.Internal.Correction>
   9.000000E+99

> <Gold.Chemscore.Hbonds>
donor molecule, donor type, donor heavy atom, donor atom, acceptor molecule, acceptor atom, score
      L1  H    12    33       P1 10175  0.80
      P1  H  7997  8009       L1     4  0.92

> <Gold.Chemscore.Hbond.Weighted>
-6.6075

> <Gold.Chemscore.Metal.Weighted>
-0.0000

> <Gold.Chemscore.Lipo.Weighted>
-10.5690

> <Gold.Chemscore.Internal_Hbond.Weighted>
0.0000

> <Gold.Chemscore.DEClash.Weighted>
0.2162

> <Gold.Chemscore.DEInternal.Weighted>
3.6368

> <Gold.Chemscore.Rot.Weighted>
6.3318

> <Gold.Chemscore.Internal.Correction.Weighted>
   9.000000E+99

> <Gold.Protein.RotatedTorsions>
[ 6907 6896 6895 6894 ] final  -92.21 input  -60.11 | X-H torsion
[ 7974 7965 7964 7962 ] final  158.58 input  175.53 | X-H torsion
[ 8008 7997 7996 7995 ] final  139.82 input   59.86 | X-H torsion
[ 10167 10162 10161 10158 ] final -169.73 input  -65.29 | X-H torsion
[ 10718 10713 10712 10709 ] final -163.36 input   66.30 | X-H torsion
[ 10763 10752 10751 10750 ] final  121.43 input  -60.55 | X-H torsion
[ 11005 11000 10999 10996 ] final  125.95 input  -57.11 | X-H torsion

> <Gold.Protein.ActiveResidues>
 VAL166  LYS551  ARG553  GLY616  TRP617  ASP618  TYR619  PRO620  LYS621  CYS622 
 ASP623  PHE694  ASN695  SER759  ASP760  ASP761  ALA762  ILE779  LEU786  VAL792 
 PHE793  MET794  SER795  GLU796  ALA797  LYS798  CYS799  TRP800  GLU811  SER814 

> <Gold.Protein.RotatedAtoms>
  150.6903  134.2157  159.4376 H   0  0  0  0  0  0  0  0  0  0  0  0  # atno 6907 bound_to 6896
  152.0117  134.9870  160.0577 H   0  0  0  0  0  0  0  0  0  0  0  0  # atno 6908 bound_to 6896
  152.1482  133.4471  159.4837 H   0  0  0  0  0  0  0  0  0  0  0  0  # atno 6909 bound_to 6896
  144.7838  139.7498  143.6249 H   0  0  0  0  0  0  0  0  0  0  0  0  # atno 7974 bound_to 7965
  156.2986  140.2357  156.4300 H   0  0  0  0  0  0  0  0  0  0  0  0  # atno 8008 bound_to 7997
  154.8279  140.0434  157.1477 H   0  0  0  0  0  0  0  0  0  0  0  0  # atno 8009 bound_to 7997
  154.9241  140.3007  155.5205 H   0  0  0  0  0  0  0  0  0  0  0  0  # atno 8010 bound_to 7997
  139.5904  144.1225  152.1628 H   0  0  0  0  0  0  0  0  0  0  0  0  # atno 10167 bound_to 10162
  156.6235  130.8900  151.2963 H   0  0  0  0  0  0  0  0  0  0  0  0  # atno 10718 bound_to 10713
  153.6139  135.3425  155.2988 H   0  0  0  0  0  0  0  0  0  0  0  0  # atno 10763 bound_to 10752
  154.8613  135.4257  154.2280 H   0  0  0  0  0  0  0  0  0  0  0  0  # atno 10764 bound_to 10752
  153.3137  135.7033  153.7165 H   0  0  0  0  0  0  0  0  0  0  0  0  # atno 10765 bound_to 10752
  139.9432  134.9633  156.8634 H   0  0  0  0  0  0  0  0  0  0  0  0  # atno 11005 bound_to 11000
  146.2059  139.5384  142.9712 LP  0  0  0  0  0  0  0  0  0  0  0  0  # atno 17320 bound_to 7965
  145.5978  141.0360  143.2035 LP  0  0  0  0  0  0  0  0  0  0  0  0  # atno 17321 bound_to 7965
  140.0798  144.5710  150.7130 LP  0  0  0  0  0  0  0  0  0  0  0  0  # atno 17342 bound_to 10162
  140.7168  143.2552  151.4407 LP  0  0  0  0  0  0  0  0  0  0  0  0  # atno 17343 bound_to 10162
  157.7221  130.9572  150.1480 LP  0  0  0  0  0  0  0  0  0  0  0  0  # atno 17370 bound_to 10713
  156.2292  130.3680  149.8465 LP  0  0  0  0  0  0  0  0  0  0  0  0  # atno 17371 bound_to 10713
  140.5901  134.0270  155.7496 LP  0  0  0  0  0  0  0  0  0  0  0  0  # atno 17394 bound_to 11000
  141.1073  133.9673  157.2973 LP  0  0  0  0  0  0  0  0  0  0  0  0  # atno 17395 bound_to 11000

$$$$
