AV-unprocessed.smi:437|AV-procd|sdf|2561|dock7
  -GOLD-   2262022533D 1   1.00000     0.00000
 Structure written by MMmdl.
 48 49  0  0  0  0  0  0  0  0  1 V2000
  149.1657  141.7420  154.6418 C   0  0  0  0  0  0  0  0  0  0  0  0
  150.1805  140.8855  155.3503 C   0  0  0  0  0  0  0  0  0  0  0  0
  150.5149  139.7801  154.7698 N   0  0  0  0  0  0  0  0  0  0  0  0
  151.4335  138.9184  155.3373 N   0  0  0  0  0  0  0  0  0  0  0  0
  151.6819  137.7032  154.5471 C   0  0  0  0  0  0  0  0  0  0  0  0
  151.0876  136.4361  155.1822 C   0  0  0  0  0  0  0  0  0  0  0  0
  151.5720  135.9766  156.2198 O   0  0  0  0  0  0  0  0  0  0  0  0
  150.0312  135.9138  154.5268 N   0  0  0  0  0  0  0  0  0  0  0  0
  149.3230  134.8159  154.8544 C   0  0  0  0  0  0  0  0  0  0  0  0
  149.4788  134.1351  155.8704 O   0  0  0  0  0  0  0  0  0  0  0  0
  148.4027  134.5434  153.9180 N   0  0  0  0  0  0  0  0  0  0  0  0
  147.3839  133.4960  154.0024 C   0  0  2  0  0  0  0  0  0  0  0  0
  147.5437  132.4846  152.8472 C   0  0  0  0  0  0  0  0  0  0  0  0
  147.1669  133.0936  151.4858 C   0  0  0  0  0  0  0  0  0  0  0  0
  145.7488  133.6831  151.5135 C   0  0  0  0  0  0  0  0  0  0  0  0
  145.5904  134.7082  152.6478 C   0  0  0  0  0  0  0  0  0  0  0  0
  145.9584  134.1020  154.0180 C   0  0  2  0  0  0  0  0  0  0  0  0
  145.7529  135.1148  155.1575 C   0  0  0  0  0  0  0  0  0  0  0  0
  152.0735  139.1359  156.5225 C   0  0  0  0  0  0  0  0  0  0  0  0
  152.8921  138.3418  156.9885 O   0  0  0  0  0  0  0  0  0  0  0  0
  151.6900  140.3900  157.1745 C   0  0  0  0  0  0  0  0  0  0  0  0
  152.3311  140.6533  158.4222 C   0  0  0  0  0  0  0  0  0  0  0  0
  152.8347  140.8598  159.4438 N   0  0  0  0  0  0  0  0  0  0  0  0
  150.7861  141.2422  156.6292 C   0  0  0  0  0  0  0  0  0  0  0  0
  150.3539  142.5565  157.2646 C   0  0  0  0  0  0  0  0  0  0  0  0
  149.5946  142.7080  154.3743 H   0  0  0  0  0  0  0  0  0  0  0  0
  148.2981  141.9209  155.2771 H   0  0  0  0  0  0  0  0  0  0  0  0
  148.8086  141.2743  153.7230 H   0  0  0  0  0  0  0  0  0  0  0  0
  151.2564  137.8115  153.5478 H   0  0  0  0  0  0  0  0  0  0  0  0
  152.7542  137.5666  154.3940 H   0  0  0  0  0  0  0  0  0  0  0  0
  149.7368  136.4038  153.6952 H   0  0  0  0  0  0  0  0  0  0  0  0
  148.4008  135.1027  153.0778 H   0  0  0  0  0  0  0  0  0  0  0  0
  147.5215  132.9583  154.9426 H   0  0  0  0  0  0  0  0  0  0  0  0
  148.5642  132.1010  152.8147 H   0  0  0  0  0  0  0  0  0  0  0  0
  146.9047  131.6215  153.0385 H   0  0  0  0  0  0  0  0  0  0  0  0
  147.8824  133.8719  151.2179 H   0  0  0  0  0  0  0  0  0  0  0  0
  147.2360  132.3324  150.7081 H   0  0  0  0  0  0  0  0  0  0  0  0
  145.5225  134.1519  150.5555 H   0  0  0  0  0  0  0  0  0  0  0  0
  145.0221  132.8799  151.6434 H   0  0  0  0  0  0  0  0  0  0  0  0
  146.2176  135.5767  152.4435 H   0  0  0  0  0  0  0  0  0  0  0  0
  144.5622  135.0713  152.6665 H   0  0  0  0  0  0  0  0  0  0  0  0
  145.2654  133.2798  154.2028 H   0  0  0  0  0  0  0  0  0  0  0  0
  146.3660  136.0061  155.0221 H   0  0  0  0  0  0  0  0  0  0  0  0
  146.0094  134.6767  156.1224 H   0  0  0  0  0  0  0  0  0  0  0  0
  144.7127  135.4371  155.2094 H   0  0  0  0  0  0  0  0  0  0  0  0
  150.8894  142.7635  158.1907 H   0  0  0  0  0  0  0  0  0  0  0  0
  149.2887  142.5351  157.4977 H   0  0  0  0  0  0  0  0  0  0  0  0
  150.5409  143.3902  156.5866 H   0  0  0  0  0  0  0  0  0  0  0  0
  1  2  1  0  0  0  0
  1 26  1  0  0  0  0
  1 27  1  0  0  0  0
  1 28  1  0  0  0  0
  2 24  1  0  0  0  0
  2  3  2  0  0  0  0
  3  4  1  0  0  0  0
  4  5  1  0  0  0  0
  4 19  1  0  0  0  0
  5  6  1  0  0  0  0
  5 29  1  0  0  0  0
  5 30  1  0  0  0  0
  6  7  2  0  0  0  0
  6  8  1  0  0  0  0
  8  9  1  0  0  0  0
  8 31  1  0  0  0  0
  9 10  2  0  0  0  0
  9 11  1  0  0  0  0
 11 12  1  0  0  0  0
 11 32  1  0  0  0  0
 12 17  1  0  0  0  0
 12 13  1  0  0  0  0
 12 33  1  0  0  0  0
 13 14  1  0  0  0  0
 13 34  1  0  0  0  0
 13 35  1  0  0  0  0
 14 15  1  0  0  0  0
 14 36  1  0  0  0  0
 14 37  1  0  0  0  0
 15 16  1  0  0  0  0
 15 38  1  0  0  0  0
 15 39  1  0  0  0  0
 16 17  1  0  0  0  0
 16 40  1  0  0  0  0
 16 41  1  0  0  0  0
 17 18  1  0  0  0  0
 17 42  1  0  0  0  0
 18 43  1  0  0  0  0
 18 44  1  0  0  0  0
 18 45  1  0  0  0  0
 19 20  2  0  0  0  0
 19 21  1  0  0  0  0
 21 22  1  0  0  0  0
 21 24  2  0  0  0  0
 22 23  3  0  0  0  0
 24 25  1  0  0  0  0
 25 46  1  0  0  0  0
 25 47  1  0  0  0  0
 25 48  1  0  0  0  0
M  END
> <s_m_source_file>
AV-unprocessed.smi

> <i_m_source_file_index>
437

> <i_lp_mmshare_version>
43012

> <i_f3d_flags>
0

> <s_epik_input>
TiNDYyhjMVtDSDNdKWMoPU8pbihuYzFbQ0gzXSlbQ0gyXUMoPU8pW05IXUMoPU8pW05IXVtDQEBIXTJbQ0gyXVtDSDJdW0NIMl1bQ0gyXVtDQEhdMltDSDNd

> <s_epik_cmdline>
J2VwaWtfcHl0aG9uJywgJy1waCcsICc3LjAnLCAnLXRuJywgJzgnLCAnLW1hJywgJzIwMCcsICctbWV0YWxfYmluZGluZycsICctaW1hZScsICc8aW5maWxlLm1hZT4nLCAnLW9tYWUnLCAnPG91dGZpbGUubWFlPic=

> <r_lp_tautomer_probability>
1

> <r_epik_Ionization_Penalty>
3.27035e-05

> <r_epik_Ionization_Penalty_Charging>
1.6965e-11

> <r_epik_Ionization_Penalty_Neutral>
3.27035e-05

> <r_epik_State_Penalty>
-0

> <r_epik_Charging_Adjusted_Penalty>
1.6965e-11

> <i_epik_Tot_Q>
0

> <i_epik_Tot_abs_Q>
0

> <r_epik_Metal_State_Penalty>
-0

> <b_epik_Metal_Only>
0

> <s_lp_Force_Field>
OPLS_2005

> <r_lp_Energy>
26.4777

> <b_lp_Chiralities_Consistent>
1

> <s_lp_Variant>
AV-unprocessed.smi:437-3

> <Gold.Version>
5.8.1

> <Gold.Id.Protein>
6NUR|6NUR_protein|mol2

> <Gold.PLP.Fitness>
47.0502

> <Gold.PLP.PLP>
-36.7738

> <Gold.PLP.part.hbond>
-5.3060

> <Gold.PLP.part.metal>
0.0000

> <Gold.PLP.part.buried>
-0.5225

> <Gold.PLP.part.nonpolar>
-32.2327

> <Gold.PLP.part.repulsive>
0.1954

> <Gold.PLP.ligand.clash>
0.0000

> <Gold.PLP.ligand.torsion>
0.2303

> <Gold.PLP.Chemscore.Hbond>
3.5674

> <Gold.PLP.Chemscore.CHOScore>
0.0000

> <Gold.PLP.Chemscore.Metal>
0.0000

> <Gold.Chemscore.Hbonds>
donor molecule, donor type, donor heavy atom, donor atom, acceptor molecule, acceptor atom, score
      L1  H     8    31       P1  7948  0.91
      L1  H    11    32       P1  7948  1.00
      P1  H  7989  7998       L1     3  0.40
      P1  H  7997  8010       L1    20  0.11
      P1  H 10752 10763       L1     7  0.45

> <Gold.PLP.Chemscore.Internal.Correction>
0.0348

> <Gold.Rescore>
     Score         DG    S(hbond)    S(metal)    S(lipo)     H(rot)  DE(clash)    DE(int)     intcor
     14.18     -19.93       3.12        0.00      68.62       1.57       2.72       3.03       ----

> <Gold.Chemscore.Fitness>
14.1783

> <Gold.Chemscore.DG>
-19.9315

> <Gold.Chemscore.ZeroCoef>
-5.4800

> <Gold.Chemscore.Hbond>
3.1231

> <Gold.Chemscore.Metal>
0.0000

> <Gold.Chemscore.Lipo>
68.6178

> <Gold.Chemscore.Internal_Hbond>
0.0000

> <Gold.Chemscore.DEClash>
2.7241

> <Gold.Chemscore.DEInternal>
3.0291

> <Gold.Chemscore.Rot>
1.5656

> <Gold.Chemscore.Internal.Correction>
   9.000000E+99

> <Gold.Chemscore.Hbonds>
donor molecule, donor type, donor heavy atom, donor atom, acceptor molecule, acceptor atom, score
      L1  H     8    31       P1  7948  0.35
      L1  H    11    32       P1  7948  0.85
      P1  H 10752 10763       L1     7  0.02

> <Gold.Chemscore.Hbond.Weighted>
-10.4311

> <Gold.Chemscore.Metal.Weighted>
-0.0000

> <Gold.Chemscore.Lipo.Weighted>
-8.0283

> <Gold.Chemscore.Internal_Hbond.Weighted>
0.0000

> <Gold.Chemscore.DEClash.Weighted>
2.7241

> <Gold.Chemscore.DEInternal.Weighted>
3.0291

> <Gold.Chemscore.Rot.Weighted>
4.0079

> <Gold.Chemscore.Internal.Correction.Weighted>
   9.000000E+99

> <Gold.Protein.RotatedTorsions>
[ 6907 6896 6895 6894 ] final  156.17 input  -60.11 | X-H torsion
[ 7974 7965 7964 7962 ] final    9.93 input  175.53 | X-H torsion
[ 8008 7997 7996 7995 ] final   50.06 input   59.86 | X-H torsion
[ 10167 10162 10161 10158 ] final -153.29 input  -65.29 | X-H torsion
[ 10718 10713 10712 10709 ] final  -22.88 input   66.30 | X-H torsion
[ 10763 10752 10751 10750 ] final  102.11 input  -60.55 | X-H torsion
[ 11005 11000 10999 10996 ] final  153.61 input  -57.11 | X-H torsion

> <Gold.Protein.ActiveResidues>
 VAL166  LYS551  ARG553  GLY616  TRP617  ASP618  TYR619  PRO620  LYS621  CYS622 
 ASP623  PHE694  ASN695  SER759  ASP760  ASP761  ALA762  ILE779  LEU786  VAL792 
 PHE793  MET794  SER795  GLU796  ALA797  LYS798  CYS799  TRP800  GLU811  SER814 

> <Gold.Protein.RotatedAtoms>
  152.0336  133.3947  159.4307 H   0  0  0  0  0  0  0  0  0  0  0  0  # atno 6907 bound_to 6896
  150.6880  134.3493  159.4911 H   0  0  0  0  0  0  0  0  0  0  0  0  # atno 6908 bound_to 6896
  152.1283  134.9154  160.0610 H   0  0  0  0  0  0  0  0  0  0  0  0  # atno 6909 bound_to 6896
  146.2396  139.9710  142.8447 H   0  0  0  0  0  0  0  0  0  0  0  0  # atno 7974 bound_to 7965
  155.4125  140.3443  155.4265 H   0  0  0  0  0  0  0  0  0  0  0  0  # atno 8008 bound_to 7997
  156.1440  140.1551  156.8907 H   0  0  0  0  0  0  0  0  0  0  0  0  # atno 8009 bound_to 7997
  154.4995  140.0818  156.7749 H   0  0  0  0  0  0  0  0  0  0  0  0  # atno 8010 bound_to 7997
  139.7109  143.9110  152.2467 H   0  0  0  0  0  0  0  0  0  0  0  0  # atno 10167 bound_to 10162
  156.4986  130.4583  149.6714 H   0  0  0  0  0  0  0  0  0  0  0  0  # atno 10718 bound_to 10713
  153.3353  135.4021  155.1529 H   0  0  0  0  0  0  0  0  0  0  0  0  # atno 10763 bound_to 10752
  154.8632  135.3620  154.5416 H   0  0  0  0  0  0  0  0  0  0  0  0  # atno 10764 bound_to 10752
  153.5857  135.7075  153.5503 H   0  0  0  0  0  0  0  0  0  0  0  0  # atno 10765 bound_to 10752
  140.1413  134.8737  157.2335 H   0  0  0  0  0  0  0  0  0  0  0  0  # atno 11005 bound_to 11000
  145.1681  140.9707  143.4338 LP  0  0  0  0  0  0  0  0  0  0  0  0  # atno 17320 bound_to 7965
  145.0054  139.3559  143.6146 LP  0  0  0  0  0  0  0  0  0  0  0  0  # atno 17321 bound_to 7965
  139.8979  144.6928  150.8697 LP  0  0  0  0  0  0  0  0  0  0  0  0  # atno 17342 bound_to 10162
  140.7733  143.3536  151.1965 LP  0  0  0  0  0  0  0  0  0  0  0  0  # atno 17343 bound_to 10162
  156.3355  130.7354  151.2291 LP  0  0  0  0  0  0  0  0  0  0  0  0  # atno 17370 bound_to 10713
  157.7465  131.0418  150.4664 LP  0  0  0  0  0  0  0  0  0  0  0  0  # atno 17371 bound_to 10713
  140.2718  134.3451  155.7371 LP  0  0  0  0  0  0  0  0  0  0  0  0  # atno 17394 bound_to 11000
  141.2186  133.7428  156.9234 LP  0  0  0  0  0  0  0  0  0  0  0  0  # atno 17395 bound_to 11000

$$$$
