AV-unprocessed.smi:2228|AV-procd|sdf|9026|dock6
  -GOLD-   2272012233D 1   1.00000     0.00000
 Structure written by MMmdl.
 40 41  0  0  0  0  0  0  0  0  1 V2000
  150.7229  141.2474  156.2271 C   0  0  0  0  0  0  0  0  0  0  0  0
  151.3822  140.2991  155.4022 O   0  0  0  0  0  0  0  0  0  0  0  0
  150.7694  139.0169  155.4059 C   0  0  1  0  0  0  0  0  0  0  0  0
  151.4175  138.1353  154.3350 C   0  0  0  0  0  0  0  0  0  0  0  0
  151.2294  136.7138  154.8528 C   0  0  0  0  0  0  0  0  0  0  0  0
  151.4413  136.8411  156.3615 C   0  0  0  0  0  0  0  0  0  0  0  0
  150.9630  138.2567  156.7380 C   0  0  2  0  0  0  0  0  0  0  0  0
  149.7066  138.2003  157.4811 N   0  0  0  0  0  0  0  0  0  0  0  0
  149.4437  137.3647  158.4957 C   0  0  0  0  0  0  0  0  0  0  0  0
  150.2393  136.5176  158.9028 O   0  0  0  0  0  0  0  0  0  0  0  0
  148.2148  137.5830  158.9960 N   0  0  0  0  0  0  0  0  0  0  0  0
  147.5838  136.9324  160.0891 C   0  0  0  0  0  0  0  0  0  0  0  0
  148.0866  135.6471  160.3919 C   0  0  0  0  0  0  0  0  0  0  0  0
  147.5259  134.9151  161.4577 C   0  0  0  0  0  0  0  0  0  0  0  0
  148.0495  133.5356  161.7983 C   0  0  0  0  0  0  0  0  0  0  0  0
  146.4750  135.4925  162.1955 C   0  0  0  0  0  0  0  0  0  0  0  0
  146.0338  136.7791  161.8290 C   0  0  0  0  0  0  0  0  0  0  0  0
  144.9110  137.4617  162.5814 C   0  0  0  0  0  0  0  0  0  0  0  0
  146.5713  137.4788  160.8071 N   0  0  0  0  0  0  0  0  0  0  0  0
  151.2259  142.2109  156.1468 H   0  0  0  0  0  0  0  0  0  0  0  0
  150.7399  140.9512  157.2765 H   0  0  0  0  0  0  0  0  0  0  0  0
  149.6853  141.3841  155.9206 H   0  0  0  0  0  0  0  0  0  0  0  0
  149.7083  139.1085  155.1632 H   0  0  0  0  0  0  0  0  0  0  0  0
  150.9832  138.2869  153.3463 H   0  0  0  0  0  0  0  0  0  0  0  0
  152.4843  138.3544  154.2665 H   0  0  0  0  0  0  0  0  0  0  0  0
  150.2116  136.3792  154.6486 H   0  0  0  0  0  0  0  0  0  0  0  0
  151.9149  136.0031  154.3905 H   0  0  0  0  0  0  0  0  0  0  0  0
  150.9343  136.0490  156.9148 H   0  0  0  0  0  0  0  0  0  0  0  0
  152.5058  136.7531  156.5829 H   0  0  0  0  0  0  0  0  0  0  0  0
  151.7394  138.7437  157.3313 H   0  0  0  0  0  0  0  0  0  0  0  0
  148.9919  138.8599  157.2108 H   0  0  0  0  0  0  0  0  0  0  0  0
  147.6741  138.3116  158.5544 H   0  0  0  0  0  0  0  0  0  0  0  0
  148.8942  135.2229  159.8125 H   0  0  0  0  0  0  0  0  0  0  0  0
  147.4683  133.0769  162.5987 H   0  0  0  0  0  0  0  0  0  0  0  0
  149.0885  133.5959  162.1228 H   0  0  0  0  0  0  0  0  0  0  0  0
  147.9990  132.8849  160.9251 H   0  0  0  0  0  0  0  0  0  0  0  0
  146.0197  134.9641  163.0205 H   0  0  0  0  0  0  0  0  0  0  0  0
  144.4557  136.7882  163.3080 H   0  0  0  0  0  0  0  0  0  0  0  0
  144.1336  137.7911  161.8912 H   0  0  0  0  0  0  0  0  0  0  0  0
  145.2898  138.3340  163.1148 H   0  0  0  0  0  0  0  0  0  0  0  0
  1  2  1  0  0  0  0
  1 20  1  0  0  0  0
  1 21  1  0  0  0  0
  1 22  1  0  0  0  0
  2  3  1  0  0  0  0
  3  7  1  0  0  0  0
  3  4  1  0  0  0  0
  3 23  1  0  0  0  0
  4  5  1  0  0  0  0
  4 24  1  0  0  0  0
  4 25  1  0  0  0  0
  5  6  1  0  0  0  0
  5 26  1  0  0  0  0
  5 27  1  0  0  0  0
  6  7  1  0  0  0  0
  6 28  1  0  0  0  0
  6 29  1  0  0  0  0
  7  8  1  0  0  0  0
  7 30  1  0  0  0  0
  8  9  1  0  0  0  0
  8 31  1  0  0  0  0
  9 10  2  0  0  0  0
  9 11  1  0  0  0  0
 11 12  1  0  0  0  0
 11 32  1  0  0  0  0
 12 19  1  0  0  0  0
 12 13  2  0  0  0  0
 13 14  1  0  0  0  0
 13 33  1  0  0  0  0
 14 15  1  0  0  0  0
 14 16  2  0  0  0  0
 15 34  1  0  0  0  0
 15 35  1  0  0  0  0
 15 36  1  0  0  0  0
 16 17  1  0  0  0  0
 16 37  1  0  0  0  0
 17 18  1  0  0  0  0
 17 19  2  0  0  0  0
 18 38  1  0  0  0  0
 18 39  1  0  0  0  0
 18 40  1  0  0  0  0
M  END
> <s_m_source_file>
AV-unprocessed.smi

> <i_m_source_file_index>
2228

> <i_lp_mmshare_version>
43012

> <i_f3d_flags>
0

> <s_epik_input>
W0NIM11PW0NAQEhdMVtDSDJdW0NIMl1bQ0gyXVtDQEhdMVtOSF1DKD1PKVtOSF1jMltjSF1jKFtDSDNdKVtjSF1jKG4yKVtDSDNd

> <s_epik_cmdline>
J2VwaWtfcHl0aG9uJywgJy1waCcsICc3LjAnLCAnLXRuJywgJzgnLCAnLW1hJywgJzIwMCcsICctbWV0YWxfYmluZGluZycsICctaW1hZScsICc8aW5maWxlLm1hZT4nLCAnLW9tYWUnLCAnPG91dGZpbGUubWFlPic=

> <r_lp_tautomer_probability>
1

> <r_epik_Ionization_Penalty>
0.000275391

> <r_epik_Ionization_Penalty_Charging>
0

> <r_epik_Ionization_Penalty_Neutral>
0.000275391

> <r_epik_State_Penalty>
-0

> <r_epik_Charging_Adjusted_Penalty>
0

> <i_epik_Tot_Q>
0

> <i_epik_Tot_abs_Q>
0

> <r_epik_Metal_State_Penalty>
-0

> <b_epik_Metal_Only>
0

> <s_lp_Force_Field>
OPLS_2005

> <r_lp_Energy>
19.8708

> <b_lp_Chiralities_Consistent>
1

> <s_lp_Variant>
AV-unprocessed.smi:2228-4

> <Gold.Version>
5.8.1

> <Gold.Id.Protein>
6NUR|6NUR_protein|mol2

> <Gold.PLP.Fitness>
38.1026

> <Gold.PLP.PLP>
-29.8214

> <Gold.PLP.part.hbond>
-3.0000

> <Gold.PLP.part.metal>
0.0000

> <Gold.PLP.part.buried>
-4.5357

> <Gold.PLP.part.nonpolar>
-22.2616

> <Gold.PLP.part.repulsive>
0.2288

> <Gold.PLP.ligand.clash>
0.0000

> <Gold.PLP.ligand.torsion>
0.3623

> <Gold.PLP.Chemscore.Hbond>
3.0000

> <Gold.PLP.Chemscore.CHOScore>
0.0000

> <Gold.PLP.Chemscore.Metal>
0.0000

> <Gold.Chemscore.Hbonds>
donor molecule, donor type, donor heavy atom, donor atom, acceptor molecule, acceptor atom, score
      P1  H  6896  6907       L1    10  1.00
      P1  H  6934  6947       L1    19  0.95
      P1  H  7989  7998       L1     2  0.96

> <Gold.PLP.Chemscore.Internal.Correction>
0.0059

> <Gold.Rescore>
     Score         DG    S(hbond)    S(metal)    S(lipo)     H(rot)  DE(clash)    DE(int)     intcor
     15.52     -18.78       2.12        0.00      79.72       1.21       0.03       3.23       ----

> <Gold.Chemscore.Fitness>
15.5163

> <Gold.Chemscore.DG>
-18.7787

> <Gold.Chemscore.ZeroCoef>
-5.4800

> <Gold.Chemscore.Hbond>
2.1178

> <Gold.Chemscore.Metal>
0.0000

> <Gold.Chemscore.Lipo>
79.7240

> <Gold.Chemscore.Internal_Hbond>
0.0000

> <Gold.Chemscore.DEClash>
0.0343

> <Gold.Chemscore.DEInternal>
3.2280

> <Gold.Chemscore.Rot>
1.2119

> <Gold.Chemscore.Internal.Correction>
   9.000000E+99

> <Gold.Chemscore.Hbonds>
donor molecule, donor type, donor heavy atom, donor atom, acceptor molecule, acceptor atom, score
      P1  H  6896  6907       L1    10  0.97
      P1  H  6934  6947       L1    19  0.21
      P1  H  7989  7998       L1     2  0.57

> <Gold.Chemscore.Hbond.Weighted>
-7.0735

> <Gold.Chemscore.Metal.Weighted>
-0.0000

> <Gold.Chemscore.Lipo.Weighted>
-9.3277

> <Gold.Chemscore.Internal_Hbond.Weighted>
0.0000

> <Gold.Chemscore.DEClash.Weighted>
0.0343

> <Gold.Chemscore.DEInternal.Weighted>
3.2280

> <Gold.Chemscore.Rot.Weighted>
3.1026

> <Gold.Chemscore.Internal.Correction.Weighted>
   9.000000E+99

> <Gold.Protein.RotatedTorsions>
[ 6907 6896 6895 6894 ] final  -52.03 input  -60.11 | X-H torsion
[ 7974 7965 7964 7962 ] final  -34.58 input  175.53 | X-H torsion
[ 8008 7997 7996 7995 ] final    5.85 input   59.86 | X-H torsion
[ 10167 10162 10161 10158 ] final   91.49 input  -65.29 | X-H torsion
[ 10718 10713 10712 10709 ] final -143.25 input   66.30 | X-H torsion
[ 10763 10752 10751 10750 ] final   21.92 input  -60.55 | X-H torsion
[ 11005 11000 10999 10996 ] final  132.40 input  -57.11 | X-H torsion

> <Gold.Protein.ActiveResidues>
 VAL166  LYS551  ARG553  GLY616  TRP617  ASP618  TYR619  PRO620  LYS621  CYS622 
 ASP623  PHE694  ASN695  SER759  ASP760  ASP761  ALA762  ILE779  LEU786  VAL792 
 PHE793  MET794  SER795  GLU796  ALA797  LYS798  CYS799  TRP800  GLU811  SER814 

> <Gold.Protein.RotatedAtoms>
  150.8556  134.7893  159.7042 H   0  0  0  0  0  0  0  0  0  0  0  0  # atno 6907 bound_to 6896
  152.4608  134.5185  159.9785 H   0  0  0  0  0  0  0  0  0  0  0  0  # atno 6908 bound_to 6896
  151.5298  133.3413  159.2952 H   0  0  0  0  0  0  0  0  0  0  0  0  # atno 6909 bound_to 6896
  146.0817  140.6056  142.8905 H   0  0  0  0  0  0  0  0  0  0  0  0  # atno 7974 bound_to 7965
  154.7336  140.2735  155.6434 H   0  0  0  0  0  0  0  0  0  0  0  0  # atno 8008 bound_to 7997
  156.2856  140.2711  156.1969 H   0  0  0  0  0  0  0  0  0  0  0  0  # atno 8009 bound_to 7997
  155.0349  140.0371  157.2478 H   0  0  0  0  0  0  0  0  0  0  0  0  # atno 8010 bound_to 7997
  139.8369  144.6660  150.9330 H   0  0  0  0  0  0  0  0  0  0  0  0  # atno 10167 bound_to 10162
  156.3557  130.7712  151.1872 H   0  0  0  0  0  0  0  0  0  0  0  0  # atno 10718 bound_to 10713
  153.0956  135.6659  153.9769 H   0  0  0  0  0  0  0  0  0  0  0  0  # atno 10763 bound_to 10752
  153.9354  135.2999  155.3446 H   0  0  0  0  0  0  0  0  0  0  0  0  # atno 10764 bound_to 10752
  154.7375  135.5095  153.9140 H   0  0  0  0  0  0  0  0  0  0  0  0  # atno 10765 bound_to 10752
  139.9788  134.9555  156.9577 H   0  0  0  0  0  0  0  0  0  0  0  0  # atno 11005 bound_to 11000
  144.7298  140.4636  143.6946 LP  0  0  0  0  0  0  0  0  0  0  0  0  # atno 17320 bound_to 7965
  145.6205  139.1523  143.3025 LP  0  0  0  0  0  0  0  0  0  0  0  0  # atno 17321 bound_to 7965
  140.7802  143.3948  151.1248 LP  0  0  0  0  0  0  0  0  0  0  0  0  # atno 17342 bound_to 10162
  139.7597  143.8653  152.3097 LP  0  0  0  0  0  0  0  0  0  0  0  0  # atno 17343 bound_to 10162
  157.7467  131.0414  150.4646 LP  0  0  0  0  0  0  0  0  0  0  0  0  # atno 17370 bound_to 10713
  156.4849  130.4082  149.6440 LP  0  0  0  0  0  0  0  0  0  0  0  0  # atno 17371 bound_to 10713
  140.5139  134.0974  155.7276 LP  0  0  0  0  0  0  0  0  0  0  0  0  # atno 17394 bound_to 11000
  141.1462  133.9050  157.2209 LP  0  0  0  0  0  0  0  0  0  0  0  0  # atno 17395 bound_to 11000

$$$$
