AV-unprocessed.smi:656|AV-procd|sdf|3218|dock2
  -GOLD-   22720 0153D 1   1.00000     0.00000
 Structure written by MMmdl.
 41 42  0  0  0  0  0  0  0  0  2 V2000
  148.4711  127.3976  150.9297 C   0  0  0  0  0  0  0  0  0  0  0  0
  148.5107  127.8271  152.4002 C   0  0  0  0  0  0  0  0  0  0  0  0
  147.4020  128.8370  152.7445 C   0  0  0  0  0  0  0  0  0  0  0  0
  147.8982  130.2362  152.7895 N   0  3  2  0  0  0  0  0  0  0  0  0
  149.0300  130.3977  153.7389 C   0  0  0  0  0  0  0  0  0  0  0  0
  149.6201  131.8163  153.6696 C   0  0  0  0  0  0  0  0  0  0  0  0
  148.5423  132.8781  153.9381 C   0  0  1  0  0  0  0  0  0  0  0  0
  149.1121  134.2144  153.7918 N   0  0  0  0  0  0  0  0  0  0  0  0
  150.1034  134.7155  154.5439 C   0  0  0  0  0  0  0  0  0  0  0  0
  150.6402  134.0910  155.4590 O   0  0  0  0  0  0  0  0  0  0  0  0
  150.4188  135.9662  154.1653 N   0  0  0  0  0  0  0  0  0  0  0  0
  151.4049  136.8245  154.7195 C   0  0  0  0  0  0  0  0  0  0  0  0
  151.4137  138.1416  154.2131 C   0  0  0  0  0  0  0  0  0  0  0  0
  152.3644  139.0442  154.7195 C   0  0  0  0  0  0  0  0  0  0  0  0
  153.2459  138.5654  155.7036 C   0  0  0  0  0  0  0  0  0  0  0  0
  153.2014  137.2951  156.1600 N   0  0  0  0  0  0  0  0  0  0  0  0
  152.2940  136.4415  155.6730 N   0  0  0  0  0  0  0  0  0  0  0  0
  147.3661  132.6700  152.9669 C   0  0  0  0  0  0  0  0  0  0  0  0
  146.8248  131.2328  153.0491 C   0  0  0  0  0  0  0  0  0  0  0  0
  149.2650  126.6828  150.7124 H   0  0  0  0  0  0  0  0  0  0  0  0
  148.6026  128.2524  150.2658 H   0  0  0  0  0  0  0  0  0  0  0  0
  147.5211  126.9232  150.6820 H   0  0  0  0  0  0  0  0  0  0  0  0
  148.4108  126.9439  153.0324 H   0  0  0  0  0  0  0  0  0  0  0  0
  149.4930  128.2488  152.6106 H   0  0  0  0  0  0  0  0  0  0  0  0
  146.5720  128.7585  152.0406 H   0  0  0  0  0  0  0  0  0  0  0  0
  147.0008  128.5708  153.7236 H   0  0  0  0  0  0  0  0  0  0  0  0
  148.6900  130.1808  154.7530 H   0  0  0  0  0  0  0  0  0  0  0  0
  149.8138  129.6758  153.5058 H   0  0  0  0  0  0  0  0  0  0  0  0
  150.4299  131.9133  154.3940 H   0  0  0  0  0  0  0  0  0  0  0  0
  150.0644  131.9759  152.6858 H   0  0  0  0  0  0  0  0  0  0  0  0
  148.1866  132.7531  154.9628 H   0  0  0  0  0  0  0  0  0  0  0  0
  148.7284  134.7973  153.0621 H   0  0  0  0  0  0  0  0  0  0  0  0
  149.8944  136.3492  153.3930 H   0  0  0  0  0  0  0  0  0  0  0  0
  150.7112  138.4560  153.4551 H   0  0  0  0  0  0  0  0  0  0  0  0
  152.4162  140.0638  154.3676 H   0  0  0  0  0  0  0  0  0  0  0  0
  153.9988  139.2098  156.1327 H   0  0  0  0  0  0  0  0  0  0  0  0
  146.5632  133.3741  153.1889 H   0  0  0  0  0  0  0  0  0  0  0  0
  147.6858  132.8790  151.9448 H   0  0  0  0  0  0  0  0  0  0  0  0
  146.0187  131.1223  152.3247 H   0  0  0  0  0  0  0  0  0  0  0  0
  146.3897  131.0533  154.0335 H   0  0  0  0  0  0  0  0  0  0  0  0
  148.2709  130.4351  151.8721 H   0  0  0  0  0  0  0  0  0  0  0  0
  1  2  1  0  0  0  0
  1 20  1  0  0  0  0
  1 21  1  0  0  0  0
  1 22  1  0  0  0  0
  2  3  1  0  0  0  0
  2 23  1  0  0  0  0
  2 24  1  0  0  0  0
  3  4  1  0  0  0  0
  3 25  1  0  0  0  0
  3 26  1  0  0  0  0
  4 19  1  0  0  0  0
  4  5  1  0  0  0  0
  4 41  1  0  0  0  0
  5  6  1  0  0  0  0
  5 27  1  0  0  0  0
  5 28  1  0  0  0  0
  6  7  1  0  0  0  0
  6 29  1  0  0  0  0
  6 30  1  0  0  0  0
  7  8  1  0  0  0  0
  7 18  1  0  0  0  0
  7 31  1  0  0  0  0
  8  9  1  0  0  0  0
  8 32  1  0  0  0  0
  9 10  2  0  0  0  0
  9 11  1  0  0  0  0
 11 12  1  0  0  0  0
 11 33  1  0  0  0  0
 12 17  1  0  0  0  0
 12 13  2  0  0  0  0
 13 14  1  0  0  0  0
 13 34  1  0  0  0  0
 14 15  2  0  0  0  0
 14 35  1  0  0  0  0
 15 16  1  0  0  0  0
 15 36  1  0  0  0  0
 16 17  2  0  0  0  0
 18 19  1  0  0  0  0
 18 37  1  0  0  0  0
 18 38  1  0  0  0  0
 19 39  1  0  0  0  0
 19 40  1  0  0  0  0
M  CHG  1   4   1
M  END
> <s_m_source_file>
AV-unprocessed.smi

> <i_m_source_file_index>
656

> <i_lp_mmshare_version>
43012

> <i_f3d_flags>
0

> <s_epik_input>
W0NIM11bQ0gyXVtDSDJdTjFbQ0gyXVtDSDJdW0NIXShbQ0gyXVtDSDJdMSlbTkhdQyg9TylbTkhdYzJbY0hdW2NIXVtjSF1ubjI=

> <s_epik_cmdline>
J2VwaWtfcHl0aG9uJywgJy1waCcsICc3LjAnLCAnLXRuJywgJzgnLCAnLW1hJywgJzIwMCcsICctbWV0YWxfYmluZGluZycsICctaW1hZScsICc8aW5maWxlLm1hZT4nLCAnLW9tYWUnLCAnPG91dGZpbGUubWFlPic=

> <r_lp_tautomer_probability>
1

> <r_epik_Ionization_Penalty>
0.00614766

> <r_epik_Ionization_Penalty_Charging>
0.00269617

> <r_epik_Ionization_Penalty_Neutral>
0.00345149

> <r_epik_State_Penalty>
-0

> <r_epik_Charging_Adjusted_Penalty>
0.00269617

> <i_epik_Tot_Q>
1

> <i_epik_Tot_abs_Q>
1

> <r_epik_Metal_State_Penalty>
-0

> <b_epik_Metal_Only>
0

> <s_lp_Force_Field>
OPLS_2005

> <r_lp_Energy>
22.9703

> <b_lp_Chiralities_Consistent>
1

> <s_lp_Variant>
AV-unprocessed.smi:656-1

> <Gold.Version>
5.8.1

> <Gold.Id.Protein>
6NUR|6NUR_protein|mol2

> <Gold.PLP.Fitness>
46.7444

> <Gold.PLP.PLP>
-36.6585

> <Gold.PLP.part.hbond>
-5.5780

> <Gold.PLP.part.metal>
0.0000

> <Gold.PLP.part.buried>
-2.3297

> <Gold.PLP.part.nonpolar>
-28.7248

> <Gold.PLP.part.repulsive>
0.1375

> <Gold.PLP.ligand.clash>
0.0000

> <Gold.PLP.ligand.torsion>
0.3110

> <Gold.PLP.Chemscore.Hbond>
3.5600

> <Gold.PLP.Chemscore.CHOScore>
0.0000

> <Gold.PLP.Chemscore.Metal>
0.0000

> <Gold.Chemscore.Hbonds>
donor molecule, donor type, donor heavy atom, donor atom, acceptor molecule, acceptor atom, score
      L1  H     4    41       P1 10747  1.00
      L1  H     8    32       P1  7948  0.96
      L1  H    11    33       P1  7948  0.75
      P1  H 10752 10764       L1    17  0.73

> <Gold.PLP.Chemscore.Internal.Correction>
0.0280

> <Gold.Rescore>
     Score         DG    S(hbond)    S(metal)    S(lipo)     H(rot)  DE(clash)    DE(int)     intcor
     17.33     -18.97       2.50        0.00      75.54       1.45       0.01       1.62       ----

> <Gold.Chemscore.Fitness>
17.3332

> <Gold.Chemscore.DG>
-18.9656

> <Gold.Chemscore.ZeroCoef>
-5.4800

> <Gold.Chemscore.Hbond>
2.5040

> <Gold.Chemscore.Metal>
0.0000

> <Gold.Chemscore.Lipo>
75.5434

> <Gold.Chemscore.Internal_Hbond>
0.0000

> <Gold.Chemscore.DEClash>
0.0098

> <Gold.Chemscore.DEInternal>
1.6226

> <Gold.Chemscore.Rot>
1.4518

> <Gold.Chemscore.Internal.Correction>
   9.000000E+99

> <Gold.Chemscore.Hbonds>
donor molecule, donor type, donor heavy atom, donor atom, acceptor molecule, acceptor atom, score
      L1  H     4    41       P1 10747  0.96
      L1  H     8    32       P1  7948  0.24
      L1  H    11    33       P1  7948  0.09
      P1  H 10752 10764       L1    17  0.10

> <Gold.Chemscore.Hbond.Weighted>
-8.3635

> <Gold.Chemscore.Metal.Weighted>
-0.0000

> <Gold.Chemscore.Lipo.Weighted>
-8.8386

> <Gold.Chemscore.Internal_Hbond.Weighted>
0.0000

> <Gold.Chemscore.DEClash.Weighted>
0.0098

> <Gold.Chemscore.DEInternal.Weighted>
1.6226

> <Gold.Chemscore.Rot.Weighted>
3.7165

> <Gold.Chemscore.Internal.Correction.Weighted>
   9.000000E+99

> <Gold.Protein.RotatedTorsions>
[ 6907 6896 6895 6894 ] final -158.49 input  -60.11 | X-H torsion
[ 7974 7965 7964 7962 ] final  156.82 input  175.53 | X-H torsion
[ 8008 7997 7996 7995 ] final  152.48 input   59.86 | X-H torsion
[ 10167 10162 10161 10158 ] final  -31.16 input  -65.29 | X-H torsion
[ 10718 10713 10712 10709 ] final   98.35 input   66.30 | X-H torsion
[ 10763 10752 10751 10750 ] final  -25.93 input  -60.55 | X-H torsion
[ 11005 11000 10999 10996 ] final  -37.51 input  -57.11 | X-H torsion

> <Gold.Protein.ActiveResidues>
 VAL166  LYS551  ARG553  GLY616  TRP617  ASP618  TYR619  PRO620  LYS621  CYS622 
 ASP623  PHE694  ASN695  SER759  ASP760  ASP761  ALA762  ILE779  LEU786  VAL792 
 PHE793  MET794  SER795  GLU796  ALA797  LYS798  CYS799  TRP800  GLU811  SER814 

> <Gold.Protein.RotatedAtoms>
  151.3190  133.4048  159.2652 H   0  0  0  0  0  0  0  0  0  0  0  0  # atno 6907 bound_to 6896
  151.0050  134.9353  159.7986 H   0  0  0  0  0  0  0  0  0  0  0  0  # atno 6908 bound_to 6896
  152.5285  134.3155  159.9181 H   0  0  0  0  0  0  0  0  0  0  0  0  # atno 6909 bound_to 6896
  144.7940  139.7256  143.6209 H   0  0  0  0  0  0  0  0  0  0  0  0  # atno 7974 bound_to 7965
  156.2627  140.2019  156.6340 H   0  0  0  0  0  0  0  0  0  0  0  0  # atno 8008 bound_to 7997
  154.6661  140.0555  157.0139 H   0  0  0  0  0  0  0  0  0  0  0  0  # atno 8009 bound_to 7997
  155.1205  140.3224  155.4501 H   0  0  0  0  0  0  0  0  0  0  0  0  # atno 8010 bound_to 7997
  140.7240  143.3792  151.1631 H   0  0  0  0  0  0  0  0  0  0  0  0  # atno 10167 bound_to 10162
  157.6897  131.0637  150.4782 H   0  0  0  0  0  0  0  0  0  0  0  0  # atno 10718 bound_to 10713
  153.7078  135.6952  153.5045 H   0  0  0  0  0  0  0  0  0  0  0  0  # atno 10763 bound_to 10752
  153.2295  135.4342  155.0578 H   0  0  0  0  0  0  0  0  0  0  0  0  # atno 10764 bound_to 10752
  154.8324  135.3480  154.6615 H   0  0  0  0  0  0  0  0  0  0  0  0  # atno 10765 bound_to 10752
  140.9957  133.6981  156.1930 H   0  0  0  0  0  0  0  0  0  0  0  0  # atno 11005 bound_to 11000
  146.2202  139.5622  142.9623 LP  0  0  0  0  0  0  0  0  0  0  0  0  # atno 17320 bound_to 7965
  145.5721  141.0393  143.2168 LP  0  0  0  0  0  0  0  0  0  0  0  0  # atno 17321 bound_to 7965
  139.7378  143.8971  152.3040 LP  0  0  0  0  0  0  0  0  0  0  0  0  # atno 17342 bound_to 10162
  139.8782  144.7032  150.8908 LP  0  0  0  0  0  0  0  0  0  0  0  0  # atno 17343 bound_to 10162
  156.5116  130.4140  149.6298 LP  0  0  0  0  0  0  0  0  0  0  0  0  # atno 17370 bound_to 10713
  156.3235  130.7293  151.2210 LP  0  0  0  0  0  0  0  0  0  0  0  0  # atno 17371 bound_to 10713
  140.6969  134.4605  157.5587 LP  0  0  0  0  0  0  0  0  0  0  0  0  # atno 17394 bound_to 11000
  139.9013  134.8548  156.1882 LP  0  0  0  0  0  0  0  0  0  0  0  0  # atno 17395 bound_to 11000

$$$$
