AV-unprocessed.smi:113|AV-procd|sdf|1097|dock4
  -GOLD-   2262018203D 1   1.00000     0.00000
 Structure written by MMmdl.
 52 55  0  0  0  0  0  0  0  0  1 V2000
  152.6351  137.4409  158.1798 C   0  0  0  0  0  0  0  0  0  0  0  0
  152.3947  138.9326  158.2832 C   0  0  0  0  0  0  0  0  0  0  0  0
  151.7754  139.6361  157.2350 C   0  0  0  0  0  0  0  0  0  0  0  0
  151.5710  141.0285  157.3697 C   0  0  0  0  0  0  0  0  0  0  0  0
  150.8981  141.8424  156.2587 C   0  0  0  0  0  0  0  0  0  0  0  0
  149.4691  141.6392  156.0667 N   0  0  0  0  0  0  0  0  0  0  0  0
  149.0191  141.3045  154.7662 C   0  0  0  0  0  0  0  0  0  0  0  0
  149.8023  141.1963  153.8200 O   0  0  0  0  0  0  0  0  0  0  0  0
  147.5768  141.0799  154.6454 C   0  0  0  0  0  0  0  0  0  0  0  0
  147.0213  140.7116  153.2786 C   0  0  0  0  0  0  0  0  0  0  0  0
  146.7840  141.1956  155.7381 C   0  0  0  0  0  0  0  0  0  0  0  0
  147.2486  141.5299  156.9977 N   0  0  0  0  0  0  0  0  0  0  0  0
  146.2863  141.5669  158.1643 C   0  0  2  0  0  0  0  0  0  0  0  0
  144.8335  141.2357  157.7796 C   0  0  0  0  0  0  0  0  0  0  0  0
  144.0320  142.3609  158.4267 C   0  0  2  0  0  0  0  0  0  0  0  0
  143.4968  143.2183  157.4363 O   0  0  0  0  0  0  0  0  0  0  0  0
  145.0499  143.0652  159.3428 C   0  0  2  0  0  0  0  0  0  0  0  0
  144.8297  144.5628  159.6217 C   0  0  0  0  0  0  0  0  0  0  0  0
  144.7953  145.2893  158.4111 O   0  0  0  0  0  0  0  0  0  0  0  0
  146.2983  142.8491  158.7049 O   0  0  0  0  0  0  0  0  0  0  0  0
  148.6313  141.7349  157.2004 C   0  0  0  0  0  0  0  0  0  0  0  0
  149.0849  141.9666  158.3229 O   0  0  0  0  0  0  0  0  0  0  0  0
  152.0062  141.6513  158.5710 C   0  0  0  0  0  0  0  0  0  0  0  0
  151.8362  143.0403  158.7881 C   0  0  0  0  0  0  0  0  0  0  0  0
  152.2753  143.6376  159.9832 C   0  0  0  0  0  0  0  0  0  0  0  0
  152.8882  142.8534  160.9743 C   0  0  0  0  0  0  0  0  0  0  0  0
  153.0604  141.4731  160.7669 C   0  0  0  0  0  0  0  0  0  0  0  0
  152.6274  140.8520  159.5757 C   0  0  0  0  0  0  0  0  0  0  0  0
  152.8117  139.5224  159.4203 N   0  0  0  0  0  0  0  0  0  0  0  0
  152.0020  136.9933  157.4131 H   0  0  0  0  0  0  0  0  0  0  0  0
  152.4163  136.9471  159.1273 H   0  0  0  0  0  0  0  0  0  0  0  0
  153.6759  137.2447  157.9216 H   0  0  0  0  0  0  0  0  0  0  0  0
  151.4663  139.1023  156.3491 H   0  0  0  0  0  0  0  0  0  0  0  0
  151.0563  142.9087  156.4273 H   0  0  0  0  0  0  0  0  0  0  0  0
  151.3823  141.6471  155.3005 H   0  0  0  0  0  0  0  0  0  0  0  0
  145.9383  140.5869  153.3000 H   0  0  0  0  0  0  0  0  0  0  0  0
  147.4583  139.7750  152.9301 H   0  0  0  0  0  0  0  0  0  0  0  0
  147.2525  141.4897  152.5501 H   0  0  0  0  0  0  0  0  0  0  0  0
  145.7254  141.0166  155.6141 H   0  0  0  0  0  0  0  0  0  0  0  0
  146.6744  140.8701  158.9083 H   0  0  0  0  0  0  0  0  0  0  0  0
  144.6949  141.1761  156.6993 H   0  0  0  0  0  0  0  0  0  0  0  0
  144.5748  140.2653  158.2042 H   0  0  0  0  0  0  0  0  0  0  0  0
  143.1980  141.9677  159.0090 H   0  0  0  0  0  0  0  0  0  0  0  0
  143.3491  142.7179  156.6486 H   0  0  0  0  0  0  0  0  0  0  0  0
  145.0911  142.5297  160.2934 H   0  0  0  0  0  0  0  0  0  0  0  0
  143.8750  144.7061  160.1283 H   0  0  0  0  0  0  0  0  0  0  0  0
  145.5980  144.9694  160.2795 H   0  0  0  0  0  0  0  0  0  0  0  0
  145.6417  145.6853  158.2711 H   0  0  0  0  0  0  0  0  0  0  0  0
  151.3684  143.6716  158.0482 H   0  0  0  0  0  0  0  0  0  0  0  0
  152.1409  144.6981  160.1388 H   0  0  0  0  0  0  0  0  0  0  0  0
  153.2258  143.3092  161.8935 H   0  0  0  0  0  0  0  0  0  0  0  0
  153.5330  140.8802  161.5365 H   0  0  0  0  0  0  0  0  0  0  0  0
  1  2  1  0  0  0  0
  1 30  1  0  0  0  0
  1 31  1  0  0  0  0
  1 32  1  0  0  0  0
  2 29  1  0  0  0  0
  2  3  2  0  0  0  0
  3  4  1  0  0  0  0
  3 33  1  0  0  0  0
  4  5  1  0  0  0  0
  4 23  2  0  0  0  0
  5  6  1  0  0  0  0
  5 34  1  0  0  0  0
  5 35  1  0  0  0  0
  6 21  1  0  0  0  0
  6  7  1  0  0  0  0
  7  8  2  0  0  0  0
  7  9  1  0  0  0  0
  9 10  1  0  0  0  0
  9 11  2  0  0  0  0
 10 36  1  0  0  0  0
 10 37  1  0  0  0  0
 10 38  1  0  0  0  0
 11 12  1  0  0  0  0
 11 39  1  0  0  0  0
 12 13  1  0  0  0  0
 12 21  1  0  0  0  0
 13 20  1  0  0  0  0
 13 14  1  0  0  0  0
 13 40  1  0  0  0  0
 14 15  1  0  0  0  0
 14 41  1  0  0  0  0
 14 42  1  0  0  0  0
 15 16  1  0  0  0  0
 15 17  1  0  0  0  0
 15 43  1  0  0  0  0
 16 44  1  0  0  0  0
 17 18  1  0  0  0  0
 17 20  1  0  0  0  0
 17 45  1  0  0  0  0
 18 19  1  0  0  0  0
 18 46  1  0  0  0  0
 18 47  1  0  0  0  0
 19 48  1  0  0  0  0
 21 22  2  0  0  0  0
 23 28  1  0  0  0  0
 23 24  1  0  0  0  0
 24 25  2  0  0  0  0
 24 49  1  0  0  0  0
 25 26  1  0  0  0  0
 25 50  1  0  0  0  0
 26 27  2  0  0  0  0
 26 51  1  0  0  0  0
 27 28  1  0  0  0  0
 27 52  1  0  0  0  0
 28 29  2  0  0  0  0
M  END
> <s_m_source_file>
AV-unprocessed.smi

> <i_m_source_file_index>
113

> <i_lp_mmshare_version>
43012

> <i_f3d_flags>
0

> <s_epik_input>
W2NIXTFbY0hdW2NIXVtjSF1jKGMxMiluYyhbQ0gzXSlbY0hdYzJbQ0gyXW4zYyg9TyljKFtDSDNdKVtjSF1uKGMzPU8pW0NAQEhdNFtDSDJdW0NAQEhdKFtPSF0pW0NASF0oTzQpW0NIMl1bT0hd

> <s_epik_cmdline>
J2VwaWtfcHl0aG9uJywgJy1waCcsICc3LjAnLCAnLXRuJywgJzgnLCAnLW1hJywgJzIwMCcsICctbWV0YWxfYmluZGluZycsICctaW1hZScsICc8aW5maWxlLm1hZT4nLCAnLW9tYWUnLCAnPG91dGZpbGUubWFlPic=

> <r_lp_tautomer_probability>
1

> <r_epik_Ionization_Penalty>
0.214728

> <r_epik_Ionization_Penalty_Charging>
3.04883e-08

> <r_epik_Ionization_Penalty_Neutral>
0.214728

> <r_epik_State_Penalty>
0.204913

> <r_epik_Charging_Adjusted_Penalty>
0.204913

> <i_epik_Tot_Q>
0

> <i_epik_Tot_abs_Q>
0

> <r_epik_Metal_State_Penalty>
0.000244761

> <b_epik_Metal_Only>
0

> <s_epik_Chemistry_Notes>
This compound contains an acetal/aminal-like group ( X-CH(R)-Y where X, Y are N, S, or O) that may be acid/base labile, releasing an aldehyde.

> <s_lp_Force_Field>
OPLS_2005

> <r_lp_Energy>
37.3201

> <b_lp_Chiralities_Consistent>
1

> <s_lp_Variant>
AV-unprocessed.smi:113-7

> <Gold.Version>
5.8.1

> <Gold.Id.Protein>
6NUR|6NUR_protein|mol2

> <Gold.PLP.Fitness>
49.1536

> <Gold.PLP.PLP>
-42.7743

> <Gold.PLP.part.hbond>
-2.7313

> <Gold.PLP.part.metal>
0.0000

> <Gold.PLP.part.buried>
-4.5106

> <Gold.PLP.part.nonpolar>
-36.0778

> <Gold.PLP.part.repulsive>
2.1906

> <Gold.PLP.ligand.clash>
0.0000

> <Gold.PLP.ligand.torsion>
0.1994

> <Gold.PLP.Chemscore.Hbond>
2.2480

> <Gold.PLP.Chemscore.CHOScore>
0.0000

> <Gold.PLP.Chemscore.Metal>
0.0000

> <Gold.Chemscore.Hbonds>
donor molecule, donor type, donor heavy atom, donor atom, acceptor molecule, acceptor atom, score
      L1  H    19    48       P1  8029  0.03
      P1  H  7989  7998       L1     8  0.29
      P1  H  8011  8017       L1     8  0.83

> <Gold.PLP.Chemscore.Internal.Correction>
0.0340

> <Gold.Rescore>
     Score         DG    S(hbond)    S(metal)    S(lipo)     H(rot)  DE(clash)    DE(int)     intcor
     14.17     -18.07       2.20        0.00     109.24       2.95       1.40       2.50       ----

> <Gold.Chemscore.Fitness>
14.1729

> <Gold.Chemscore.DG>
-18.0724

> <Gold.Chemscore.ZeroCoef>
-5.4800

> <Gold.Chemscore.Hbond>
2.2021

> <Gold.Chemscore.Metal>
0.0000

> <Gold.Chemscore.Lipo>
109.2418

> <Gold.Chemscore.Internal_Hbond>
0.0000

> <Gold.Chemscore.DEClash>
1.3962

> <Gold.Chemscore.DEInternal>
2.5033

> <Gold.Chemscore.Rot>
2.9469

> <Gold.Chemscore.Internal.Correction>
   9.000000E+99

> <Gold.Chemscore.Hbonds>
donor molecule, donor type, donor heavy atom, donor atom, acceptor molecule, acceptor atom, score
      L1  H    19    48       P1  8029  0.08
      P1  H  7989  7998       L1     8  0.30
      P1  H  8011  8017       L1     8  0.81

> <Gold.Chemscore.Hbond.Weighted>
-7.3551

> <Gold.Chemscore.Metal.Weighted>
-0.0000

> <Gold.Chemscore.Lipo.Weighted>
-12.7813

> <Gold.Chemscore.Internal_Hbond.Weighted>
0.0000

> <Gold.Chemscore.DEClash.Weighted>
1.3962

> <Gold.Chemscore.DEInternal.Weighted>
2.5033

> <Gold.Chemscore.Rot.Weighted>
7.5439

> <Gold.Chemscore.Internal.Correction.Weighted>
   9.000000E+99

> <Gold.Protein.RotatedTorsions>
[ 6907 6896 6895 6894 ] final  -50.91 input  -60.11 | X-H torsion
[ 7974 7965 7964 7962 ] final  131.60 input  175.53 | X-H torsion
[ 8008 7997 7996 7995 ] final  175.69 input   59.86 | X-H torsion
[ 10167 10162 10161 10158 ] final   73.28 input  -65.29 | X-H torsion
[ 10718 10713 10712 10709 ] final  137.09 input   66.30 | X-H torsion
[ 10763 10752 10751 10750 ] final    4.38 input  -60.55 | X-H torsion
[ 11005 11000 10999 10996 ] final  -83.76 input  -57.11 | X-H torsion

> <Gold.Protein.ActiveResidues>
 VAL166  LYS551  ARG553  GLY616  TRP617  ASP618  TYR619  PRO620  LYS621  CYS622 
 ASP623  PHE694  ASN695  SER759  ASP760  ASP761  ALA762  ILE779  LEU786  VAL792 
 PHE793  MET794  SER795  GLU796  ALA797  LYS798  CYS799  TRP800  GLU811  SER814 

> <Gold.Protein.RotatedAtoms>
  150.8662  134.8025  159.7119 H   0  0  0  0  0  0  0  0  0  0  0  0  # atno 6907 bound_to 6896
  152.4682  134.5020  159.9737 H   0  0  0  0  0  0  0  0  0  0  0  0  # atno 6908 bound_to 6896
  151.5116  133.3445  159.2921 H   0  0  0  0  0  0  0  0  0  0  0  0  # atno 6909 bound_to 6896
  145.0056  139.4270  143.5270 H   0  0  0  0  0  0  0  0  0  0  0  0  # atno 7974 bound_to 7965
  156.0843  140.1402  156.9672 H   0  0  0  0  0  0  0  0  0  0  0  0  # atno 8008 bound_to 7997
  154.4603  140.0945  156.6924 H   0  0  0  0  0  0  0  0  0  0  0  0  # atno 8009 bound_to 7997
  155.5024  140.3451  155.4375 H   0  0  0  0  0  0  0  0  0  0  0  0  # atno 8010 bound_to 7997
  140.0261  144.5502  150.7543 H   0  0  0  0  0  0  0  0  0  0  0  0  # atno 10167 bound_to 10162
  157.4397  131.1056  151.0157 H   0  0  0  0  0  0  0  0  0  0  0  0  # atno 10718 bound_to 10713
  153.2720  135.6933  153.7471 H   0  0  0  0  0  0  0  0  0  0  0  0  # atno 10763 bound_to 10752
  153.6491  135.3380  155.3095 H   0  0  0  0  0  0  0  0  0  0  0  0  # atno 10764 bound_to 10752
  154.8467  135.4450  154.1745 H   0  0  0  0  0  0  0  0  0  0  0  0  # atno 10765 bound_to 10752
  141.1655  133.7311  156.8768 H   0  0  0  0  0  0  0  0  0  0  0  0  # atno 11005 bound_to 11000
  146.3460  139.9469  142.8734 LP  0  0  0  0  0  0  0  0  0  0  0  0  # atno 17320 bound_to 7965
  145.2094  140.9889  143.4109 LP  0  0  0  0  0  0  0  0  0  0  0  0  # atno 17321 bound_to 7965
  140.7322  143.2703  151.3911 LP  0  0  0  0  0  0  0  0  0  0  0  0  # atno 17342 bound_to 10162
  139.6107  144.1105  152.2295 LP  0  0  0  0  0  0  0  0  0  0  0  0  # atno 17343 bound_to 10162
  157.1024  130.5987  149.5463 LP  0  0  0  0  0  0  0  0  0  0  0  0  # atno 17370 bound_to 10713
  155.9944  130.5008  150.7419 LP  0  0  0  0  0  0  0  0  0  0  0  0  # atno 17371 bound_to 10713
  140.1743  134.9078  157.2872 LP  0  0  0  0  0  0  0  0  0  0  0  0  # atno 17394 bound_to 11000
  140.2466  134.3732  155.7459 LP  0  0  0  0  0  0  0  0  0  0  0  0  # atno 17395 bound_to 11000

$$$$
