AV-unprocessed.smi:683|AV-procd|sdf|3330|dock6
  -GOLD-   22720 0303D 1   1.00000     0.00000
 Structure written by MMmdl.
 30 31  0  0  0  0  0  0  0  0  1 V2000
  154.7528  142.1567  162.7459 N   0  0  0  0  0  0  0  0  0  0  0  0
  154.0720  142.3036  161.8220 C   0  0  0  0  0  0  0  0  0  0  0  0
  153.2167  142.4887  160.6616 C   0  0  0  0  0  0  0  0  0  0  0  0
  152.7948  143.7826  160.2969 C   0  0  0  0  0  0  0  0  0  0  0  0
  151.9661  143.9588  159.1736 C   0  0  0  0  0  0  0  0  0  0  0  0
  151.5599  142.8437  158.4163 C   0  0  0  0  0  0  0  0  0  0  0  0
  151.9734  141.5422  158.7676 C   0  0  0  0  0  0  0  0  0  0  0  0
  151.5281  140.5092  157.9708 O   0  0  0  0  0  0  0  0  0  0  0  0
  150.3723  140.7247  157.1732 C   0  0  0  0  0  0  0  0  0  0  0  0
  150.7882  140.6984  155.6944 C   0  0  0  0  0  0  0  0  0  0  0  0
  149.6819  140.4451  154.8053 N   0  0  0  0  0  0  0  0  0  0  0  0
  148.5644  141.2640  154.7549 C   0  0  0  0  0  0  0  0  0  0  0  0
  147.5098  141.0313  153.9364 C   0  0  0  0  0  0  0  0  0  0  0  0
  146.1515  142.0986  153.9313 Cl  0  0  0  0  0  0  0  0  0  0  0  0
  147.5136  139.8676  153.0504 C   0  0  0  0  0  0  0  0  0  0  0  0
  146.6144  139.5647  152.2686 O   0  0  0  0  0  0  0  0  0  0  0  0
  148.6558  139.0663  153.1415 N   0  0  0  0  0  0  0  0  0  0  0  0
  149.7446  139.2966  153.9830 C   0  0  0  0  0  0  0  0  0  0  0  0
  150.6953  138.5146  153.9849 O   0  0  0  0  0  0  0  0  0  0  0  0
  152.8086  141.3728  159.9014 C   0  0  0  0  0  0  0  0  0  0  0  0
  148.6951  138.2501  152.5483 H   0  0  0  0  0  0  0  0  0  0  0  0
  153.1028  144.6434  160.8735 H   0  0  0  0  0  0  0  0  0  0  0  0
  151.6416  144.9497  158.8921 H   0  0  0  0  0  0  0  0  0  0  0  0
  150.9244  142.9890  157.5550 H   0  0  0  0  0  0  0  0  0  0  0  0
  149.6326  139.9475  157.3709 H   0  0  0  0  0  0  0  0  0  0  0  0
  149.9248  141.6911  157.4117 H   0  0  0  0  0  0  0  0  0  0  0  0
  151.2069  141.6605  155.3948 H   0  0  0  0  0  0  0  0  0  0  0  0
  151.5582  139.9519  155.4882 H   0  0  0  0  0  0  0  0  0  0  0  0
  148.5262  142.1307  155.3995 H   0  0  0  0  0  0  0  0  0  0  0  0
  153.1466  140.3927  160.2043 H   0  0  0  0  0  0  0  0  0  0  0  0
  1  2  3  0  0  0  0
  2  3  1  0  0  0  0
  3 20  1  0  0  0  0
  3  4  2  0  0  0  0
  4  5  1  0  0  0  0
  4 22  1  0  0  0  0
  5  6  2  0  0  0  0
  5 23  1  0  0  0  0
  6  7  1  0  0  0  0
  6 24  1  0  0  0  0
  7  8  1  0  0  0  0
  7 20  2  0  0  0  0
  8  9  1  0  0  0  0
  9 10  1  0  0  0  0
  9 25  1  0  0  0  0
  9 26  1  0  0  0  0
 10 11  1  0  0  0  0
 10 27  1  0  0  0  0
 10 28  1  0  0  0  0
 11 18  1  0  0  0  0
 11 12  1  0  0  0  0
 12 13  2  0  0  0  0
 12 29  1  0  0  0  0
 13 14  1  0  0  0  0
 13 15  1  0  0  0  0
 15 16  2  0  0  0  0
 15 17  1  0  0  0  0
 17 21  1  0  0  0  0
 17 18  1  0  0  0  0
 18 19  2  0  0  0  0
 20 30  1  0  0  0  0
M  END
> <s_m_source_file>
AV-unprocessed.smi

> <i_m_source_file_index>
683

> <i_lp_mmshare_version>
43012

> <i_f3d_flags>
0

> <s_epik_input>
TiNDYzFbY0hdW2NIXVtjSF1jKFtjSF0xKU9bQ0gyXVtDSDJdbjJbY0hdYyhDbCljKD1PKVtuSF1jMj1P

> <s_epik_cmdline>
J2VwaWtfcHl0aG9uJywgJy1waCcsICc3LjAnLCAnLXRuJywgJzgnLCAnLW1hJywgJzIwMCcsICctbWV0YWxfYmluZGluZycsICctaW1hZScsICc8aW5maWxlLm1hZT4nLCAnLW9tYWUnLCAnPG91dGZpbGUubWFlPic=

> <r_lp_tautomer_probability>
0.999537

> <r_epik_Ionization_Penalty>
0.0498777

> <r_epik_Ionization_Penalty_Charging>
0.0498777

> <r_epik_Ionization_Penalty_Neutral>
0

> <r_epik_State_Penalty>
0.042632

> <r_epik_Charging_Adjusted_Penalty>
0.0925097

> <i_epik_Tot_Q>
0

> <i_epik_Tot_abs_Q>
0

> <r_epik_Metal_State_Penalty>
2.56282

> <b_epik_Metal_Only>
0

> <s_lp_Force_Field>
OPLS_2005

> <r_lp_Energy>
12.7666

> <b_lp_Chiralities_Consistent>
1

> <s_lp_Variant>
AV-unprocessed.smi:683-1

> <Gold.Version>
5.8.1

> <Gold.Id.Protein>
6NUR|6NUR_protein|mol2

> <Gold.PLP.Fitness>
47.1085

> <Gold.PLP.PLP>
-43.5172

> <Gold.PLP.part.hbond>
-2.7616

> <Gold.PLP.part.metal>
0.0000

> <Gold.PLP.part.buried>
-2.3684

> <Gold.PLP.part.nonpolar>
-36.9688

> <Gold.PLP.part.repulsive>
1.7325

> <Gold.PLP.ligand.clash>
0.7724

> <Gold.PLP.ligand.torsion>
0.7572

> <Gold.PLP.Chemscore.Hbond>
0.9750

> <Gold.PLP.Chemscore.CHOScore>
0.9775

> <Gold.PLP.Chemscore.Metal>
0.0000

> <Gold.Chemscore.Hbonds>
donor molecule, donor type, donor heavy atom, donor atom, acceptor molecule, acceptor atom, score
      L1  H    17    21       P1  7948  0.78
      L1  C    12    29       P1  8028  0.79

> <Gold.PLP.Chemscore.Internal.Correction>
0.0207

> <Gold.Rescore>
     Score         DG    S(hbond)    S(metal)    S(lipo)     H(rot)  DE(clash)    DE(int)     intcor
     12.55     -14.27       0.99        0.00      91.31       2.03       0.97       0.75       ----

> <Gold.Chemscore.Fitness>
12.5455

> <Gold.Chemscore.DG>
-14.2702

> <Gold.Chemscore.ZeroCoef>
-5.4800

> <Gold.Chemscore.Hbond>
0.9860

> <Gold.Chemscore.Metal>
0.0000

> <Gold.Chemscore.Lipo>
91.3062

> <Gold.Chemscore.Internal_Hbond>
0.0000

> <Gold.Chemscore.DEClash>
0.9743

> <Gold.Chemscore.DEInternal>
0.7503

> <Gold.Chemscore.Rot>
2.0258

> <Gold.Chemscore.Internal.Correction>
   9.000000E+99

> <Gold.Chemscore.Hbonds>
donor molecule, donor type, donor heavy atom, donor atom, acceptor molecule, acceptor atom, score
      L1  H    17    21       P1  7948  0.78

> <Gold.Chemscore.Hbond.Weighted>
-3.2933

> <Gold.Chemscore.Metal.Weighted>
-0.0000

> <Gold.Chemscore.Lipo.Weighted>
-10.6828

> <Gold.Chemscore.Internal_Hbond.Weighted>
0.0000

> <Gold.Chemscore.DEClash.Weighted>
0.9743

> <Gold.Chemscore.DEInternal.Weighted>
0.7503

> <Gold.Chemscore.Rot.Weighted>
5.1860

> <Gold.Chemscore.Internal.Correction.Weighted>
   9.000000E+99

> <Gold.Protein.RotatedTorsions>
[ 6907 6896 6895 6894 ] final  -23.63 input  -60.11 | X-H torsion
[ 7974 7965 7964 7962 ] final  -69.82 input  175.53 | X-H torsion
[ 8008 7997 7996 7995 ] final -148.44 input   59.86 | X-H torsion
[ 10167 10162 10161 10158 ] final  -20.52 input  -65.29 | X-H torsion
[ 10718 10713 10712 10709 ] final  -84.84 input   66.30 | X-H torsion
[ 10763 10752 10751 10750 ] final -157.77 input  -60.55 | X-H torsion
[ 11005 11000 10999 10996 ] final  -87.15 input  -57.11 | X-H torsion

> <Gold.Protein.ActiveResidues>
 VAL166  LYS551  ARG553  GLY616  TRP617  ASP618  TYR619  PRO620  LYS621  CYS622 
 ASP623  PHE694  ASN695  SER759  ASP760  ASP761  ALA762  ILE779  LEU786  VAL792 
 PHE793  MET794  SER795  GLU796  ALA797  LYS798  CYS799  TRP800  GLU811  SER814 

> <Gold.Protein.RotatedAtoms>
  151.2012  135.0443  159.8872 H   0  0  0  0  0  0  0  0  0  0  0  0  # atno 6907 bound_to 6896
  152.5432  134.0848  159.8261 H   0  0  0  0  0  0  0  0  0  0  0  0  # atno 6908 bound_to 6896
  151.0989  133.5211  159.2643 H   0  0  0  0  0  0  0  0  0  0  0  0  # atno 6909 bound_to 6896
  145.6988  140.9124  143.0742 H   0  0  0  0  0  0  0  0  0  0  0  0  # atno 7974 bound_to 7965
  155.5916  140.0653  157.2757 H   0  0  0  0  0  0  0  0  0  0  0  0  # atno 8008 bound_to 7997
  154.4303  140.1834  156.1128 H   0  0  0  0  0  0  0  0  0  0  0  0  # atno 8009 bound_to 7997
  156.0228  140.3315  155.7060 H   0  0  0  0  0  0  0  0  0  0  0  0  # atno 8010 bound_to 7997
  140.7276  143.4714  151.0241 H   0  0  0  0  0  0  0  0  0  0  0  0  # atno 10167 bound_to 10162
  156.0002  130.4711  150.4471 H   0  0  0  0  0  0  0  0  0  0  0  0  # atno 10718 bound_to 10713
  154.7610  135.3118  154.8379 H   0  0  0  0  0  0  0  0  0  0  0  0  # atno 10763 bound_to 10752
  153.9140  135.6803  153.4754 H   0  0  0  0  0  0  0  0  0  0  0  0  # atno 10764 bound_to 10752
  153.1210  135.4822  154.9127 H   0  0  0  0  0  0  0  0  0  0  0  0  # atno 10765 bound_to 10752
  141.1621  133.7495  156.9264 H   0  0  0  0  0  0  0  0  0  0  0  0  # atno 11005 bound_to 11000
  144.6974  139.8920  143.7453 LP  0  0  0  0  0  0  0  0  0  0  0  0  # atno 17320 bound_to 7965
  146.0816  139.3804  143.0461 LP  0  0  0  0  0  0  0  0  0  0  0  0  # atno 17321 bound_to 7965
  139.8407  143.7568  152.3180 LP  0  0  0  0  0  0  0  0  0  0  0  0  # atno 17342 bound_to 10162
  139.7716  144.7475  151.0217 LP  0  0  0  0  0  0  0  0  0  0  0  0  # atno 17343 bound_to 10162
  157.2508  131.0546  151.2380 LP  0  0  0  0  0  0  0  0  0  0  0  0  # atno 17370 bound_to 10713
  157.3530  130.7092  149.6453 LP  0  0  0  0  0  0  0  0  0  0  0  0  # atno 17371 bound_to 10713
  140.1416  134.9290  157.2474 LP  0  0  0  0  0  0  0  0  0  0  0  0  # atno 17394 bound_to 11000
  140.2830  134.3328  155.7337 LP  0  0  0  0  0  0  0  0  0  0  0  0  # atno 17395 bound_to 11000

$$$$
