AV-unprocessed.smi:713|AV-procd|sdf|3475|dock10
  -GOLD-   22720 0463D 1   1.00000     0.00000
 Structure written by MMmdl.
 41 42  0  0  0  0  0  0  0  0  1 V2000
  144.5911  135.6640  151.3796 C   0  0  0  0  0  0  0  0  0  0  0  0
  145.6800  134.6327  151.7399 C   0  0  1  0  0  0  0  0  0  0  0  0
  146.0489  134.6411  153.2341 C   0  0  0  0  0  0  0  0  0  0  0  0
  145.2445  134.2609  154.0860 O   0  0  0  0  0  0  0  0  0  0  0  0
  147.2786  135.0872  153.5396 N   0  0  0  0  0  0  0  0  0  0  0  0
  147.8379  135.1695  154.8848 C   0  0  2  0  0  0  0  0  0  0  0  0
  148.0863  136.6472  155.2408 C   0  0  0  0  0  0  0  0  0  0  0  0
  148.7717  136.8011  156.6076 C   0  0  0  0  0  0  0  0  0  0  0  0
  150.0854  136.0044  156.6645 C   0  0  0  0  0  0  0  0  0  0  0  0
  149.8917  134.5140  156.3212 C   0  0  1  0  0  0  0  0  0  0  0  0
  149.0920  133.5932  157.7281 S   0  0  0  0  0  0  0  0  0  0  0  0
  147.6389  132.8024  156.9210 C   0  0  0  0  0  0  0  0  0  0  0  0
  150.0143  132.5288  158.1519 O   0  0  0  0  0  0  0  0  0  0  0  0
  148.5842  134.5417  158.7299 O   0  0  0  0  0  0  0  0  0  0  0  0
  149.1480  134.3537  154.9763 C   0  0  0  0  0  0  0  0  0  0  0  0
  145.3175  133.2881  151.3038 N   0  0  0  0  0  0  0  0  0  0  0  0
  146.1215  132.1673  151.2507 C   0  0  0  0  0  0  0  0  0  0  0  0
  145.3505  131.1290  150.8126 C   0  0  0  0  0  0  0  0  0  0  0  0
  144.0676  131.7147  150.6287 C   0  0  0  0  0  0  0  0  0  0  0  0
  144.0482  133.0027  150.9298 N   0  0  0  0  0  0  0  0  0  0  0  0
  144.9046  136.6757  151.6388 H   0  0  0  0  0  0  0  0  0  0  0  0
  143.6525  135.4649  151.8987 H   0  0  0  0  0  0  0  0  0  0  0  0
  144.3846  135.6522  150.3091 H   0  0  0  0  0  0  0  0  0  0  0  0
  146.5823  134.9141  151.1948 H   0  0  0  0  0  0  0  0  0  0  0  0
  147.8759  135.3818  152.7810 H   0  0  0  0  0  0  0  0  0  0  0  0
  147.0988  134.7692  155.5774 H   0  0  0  0  0  0  0  0  0  0  0  0
  148.7117  137.1102  154.4759 H   0  0  0  0  0  0  0  0  0  0  0  0
  147.1431  137.1949  155.2403 H   0  0  0  0  0  0  0  0  0  0  0  0
  148.9746  137.8551  156.7986 H   0  0  0  0  0  0  0  0  0  0  0  0
  148.0974  136.4767  157.3995 H   0  0  0  0  0  0  0  0  0  0  0  0
  150.7916  136.4414  155.9576 H   0  0  0  0  0  0  0  0  0  0  0  0
  150.5431  136.1086  157.6486 H   0  0  0  0  0  0  0  0  0  0  0  0
  150.8799  134.0659  156.2146 H   0  0  0  0  0  0  0  0  0  0  0  0
  147.1672  132.1178  157.6256 H   0  0  0  0  0  0  0  0  0  0  0  0
  147.9642  132.2469  156.0419 H   0  0  0  0  0  0  0  0  0  0  0  0
  146.9140  133.5616  156.6298 H   0  0  0  0  0  0  0  0  0  0  0  0
  148.9576  133.3014  154.7719 H   0  0  0  0  0  0  0  0  0  0  0  0
  149.8162  134.6855  154.1801 H   0  0  0  0  0  0  0  0  0  0  0  0
  147.1651  132.2012  151.5270 H   0  0  0  0  0  0  0  0  0  0  0  0
  145.6558  130.1058  150.6511 H   0  0  0  0  0  0  0  0  0  0  0  0
  143.1554  131.2449  150.2917 H   0  0  0  0  0  0  0  0  0  0  0  0
  1  2  1  0  0  0  0
  1 21  1  0  0  0  0
  1 22  1  0  0  0  0
  1 23  1  0  0  0  0
  2  3  1  0  0  0  0
  2 16  1  0  0  0  0
  2 24  1  0  0  0  0
  3  4  2  0  0  0  0
  3  5  1  0  0  0  0
  5  6  1  0  0  0  0
  5 25  1  0  0  0  0
  6 15  1  0  0  0  0
  6  7  1  0  0  0  0
  6 26  1  0  0  0  0
  7  8  1  0  0  0  0
  7 27  1  0  0  0  0
  7 28  1  0  0  0  0
  8  9  1  0  0  0  0
  8 29  1  0  0  0  0
  8 30  1  0  0  0  0
  9 10  1  0  0  0  0
  9 31  1  0  0  0  0
  9 32  1  0  0  0  0
 10 11  1  0  0  0  0
 10 15  1  0  0  0  0
 10 33  1  0  0  0  0
 11 12  1  0  0  0  0
 11 13  2  0  0  0  0
 11 14  2  0  0  0  0
 12 34  1  0  0  0  0
 12 35  1  0  0  0  0
 12 36  1  0  0  0  0
 15 37  1  0  0  0  0
 15 38  1  0  0  0  0
 16 20  1  0  0  0  0
 16 17  1  0  0  0  0
 17 18  2  0  0  0  0
 17 39  1  0  0  0  0
 18 19  1  0  0  0  0
 18 40  1  0  0  0  0
 19 20  2  0  0  0  0
 19 41  1  0  0  0  0
M  END
> <s_m_source_file>
AV-unprocessed.smi

> <i_m_source_file_index>
713

> <i_lp_mmshare_version>
43012

> <i_f3d_flags>
0

> <s_epik_input>
bjFbY0hdW2NIXVtjSF1uMVtDQEhdKFtDSDNdKUMoPU8pW05IXVtDQEBIXTJbQ0gyXVtDSDJdW0NIMl1bQ0BIXShbQ0gyXTIpUyg9TykoPU8pW0NIM10=

> <s_epik_cmdline>
J2VwaWtfcHl0aG9uJywgJy1waCcsICc3LjAnLCAnLXRuJywgJzgnLCAnLW1hJywgJzIwMCcsICctbWV0YWxfYmluZGluZycsICctaW1hZScsICc8aW5maWxlLm1hZT4nLCAnLW9tYWUnLCAnPG91dGZpbGUubWFlPic=

> <r_lp_tautomer_probability>
1

> <r_epik_Ionization_Penalty>
4.07816e-05

> <r_epik_Ionization_Penalty_Charging>
0

> <r_epik_Ionization_Penalty_Neutral>
4.07816e-05

> <r_epik_State_Penalty>
-0

> <r_epik_Charging_Adjusted_Penalty>
0

> <i_epik_Tot_Q>
0

> <i_epik_Tot_abs_Q>
0

> <r_epik_Metal_State_Penalty>
-0

> <b_epik_Metal_Only>
0

> <s_lp_Force_Field>
OPLS_2005

> <r_lp_Energy>
4.9413

> <b_lp_Chiralities_Consistent>
1

> <s_lp_Variant>
AV-unprocessed.smi:713-2

> <Gold.Version>
5.8.1

> <Gold.Id.Protein>
6NUR|6NUR_protein|mol2

> <Gold.PLP.Fitness>
37.3901

> <Gold.PLP.PLP>
-25.0962

> <Gold.PLP.part.hbond>
-2.7715

> <Gold.PLP.part.metal>
0.0000

> <Gold.PLP.part.buried>
-3.5779

> <Gold.PLP.part.nonpolar>
-19.2439

> <Gold.PLP.part.repulsive>
0.2602

> <Gold.PLP.ligand.clash>
0.0000

> <Gold.PLP.ligand.torsion>
0.3793

> <Gold.PLP.Chemscore.Hbond>
2.3600

> <Gold.PLP.Chemscore.CHOScore>
1.8972

> <Gold.PLP.Chemscore.Metal>
0.0000

> <Gold.Chemscore.Hbonds>
donor molecule, donor type, donor heavy atom, donor atom, acceptor molecule, acceptor atom, score
      L1  H     5    25       P1  7948  1.00
      P1  H  6896  6907       L1    14  0.04
      P1  H  6896  6909       L1    13  0.56
      L1  C    17    39       P1 10747  0.75
      L1  C    19    41       P1 10952  0.82

> <Gold.PLP.Chemscore.Internal.Correction>
0.2808

> <Gold.Rescore>
     Score         DG    S(hbond)    S(metal)    S(lipo)     H(rot)  DE(clash)    DE(int)     intcor
     13.74     -13.94       1.75        0.00      60.09       1.72       0.03       0.16       ----

> <Gold.Chemscore.Fitness>
13.7408

> <Gold.Chemscore.DG>
-13.9395

> <Gold.Chemscore.ZeroCoef>
-5.4800

> <Gold.Chemscore.Hbond>
1.7498

> <Gold.Chemscore.Metal>
0.0000

> <Gold.Chemscore.Lipo>
60.0945

> <Gold.Chemscore.Internal_Hbond>
0.0000

> <Gold.Chemscore.DEClash>
0.0340

> <Gold.Chemscore.DEInternal>
0.1647

> <Gold.Chemscore.Rot>
1.7249

> <Gold.Chemscore.Internal.Correction>
   9.000000E+99

> <Gold.Chemscore.Hbonds>
donor molecule, donor type, donor heavy atom, donor atom, acceptor molecule, acceptor atom, score
      L1  H     5    25       P1  7948  0.99
      P1  H  6896  6909       L1    13  0.39

> <Gold.Chemscore.Hbond.Weighted>
-5.8442

> <Gold.Chemscore.Metal.Weighted>
-0.0000

> <Gold.Chemscore.Lipo.Weighted>
-7.0311

> <Gold.Chemscore.Internal_Hbond.Weighted>
0.0000

> <Gold.Chemscore.DEClash.Weighted>
0.0340

> <Gold.Chemscore.DEInternal.Weighted>
0.1647

> <Gold.Chemscore.Rot.Weighted>
4.4157

> <Gold.Chemscore.Internal.Correction.Weighted>
   9.000000E+99

> <Gold.Protein.RotatedTorsions>
[ 6907 6896 6895 6894 ] final  -55.25 input  -60.11 | X-H torsion
[ 7974 7965 7964 7962 ] final   55.67 input  175.53 | X-H torsion
[ 8008 7997 7996 7995 ] final    2.93 input   59.86 | X-H torsion
[ 10167 10162 10161 10158 ] final -128.71 input  -65.29 | X-H torsion
[ 10718 10713 10712 10709 ] final  138.28 input   66.30 | X-H torsion
[ 10763 10752 10751 10750 ] final -153.04 input  -60.55 | X-H torsion
[ 11005 11000 10999 10996 ] final  -48.45 input  -57.11 | X-H torsion

> <Gold.Protein.ActiveResidues>
 VAL166  LYS551  ARG553  GLY616  TRP617  ASP618  TYR619  PRO620  LYS621  CYS622 
 ASP623  PHE694  ASN695  SER759  ASP760  ASP761  ALA762  ILE779  LEU786  VAL792 
 PHE793  MET794  SER795  GLU796  ALA797  LYS798  CYS799  TRP800  GLU811  SER814 

> <Gold.Protein.RotatedAtoms>
  150.8268  134.7503  159.6819 H   0  0  0  0  0  0  0  0  0  0  0  0  # atno 6907 bound_to 6896
  152.4378  134.5649  159.9914 H   0  0  0  0  0  0  0  0  0  0  0  0  # atno 6908 bound_to 6896
  151.5819  133.3339  159.3046 H   0  0  0  0  0  0  0  0  0  0  0  0  # atno 6909 bound_to 6896
  145.9479  139.3946  143.0323 H   0  0  0  0  0  0  0  0  0  0  0  0  # atno 7974 bound_to 7965
  154.6975  140.2666  155.6752 H   0  0  0  0  0  0  0  0  0  0  0  0  # atno 8008 bound_to 7997
  156.2753  140.2779  156.1498 H   0  0  0  0  0  0  0  0  0  0  0  0  # atno 8009 bound_to 7997
  155.0811  140.0372  157.2629 H   0  0  0  0  0  0  0  0  0  0  0  0  # atno 8010 bound_to 7997
  139.9474  143.6094  152.2486 H   0  0  0  0  0  0  0  0  0  0  0  0  # atno 10167 bound_to 10162
  157.4270  131.1044  151.0291 H   0  0  0  0  0  0  0  0  0  0  0  0  # atno 10718 bound_to 10713
  154.7954  135.3222  154.7679 H   0  0  0  0  0  0  0  0  0  0  0  0  # atno 10763 bound_to 10752
  153.8358  135.6875  153.4813 H   0  0  0  0  0  0  0  0  0  0  0  0  # atno 10764 bound_to 10752
  153.1643  135.4648  154.9757 H   0  0  0  0  0  0  0  0  0  0  0  0  # atno 10765 bound_to 10752
  141.0702  133.6681  156.3443 H   0  0  0  0  0  0  0  0  0  0  0  0  # atno 11005 bound_to 11000
  145.8211  140.9679  143.0898 LP  0  0  0  0  0  0  0  0  0  0  0  0  # atno 17320 bound_to 7965
  144.6790  140.0042  143.7484 LP  0  0  0  0  0  0  0  0  0  0  0  0  # atno 17321 bound_to 7965
  139.6656  144.7662  151.1880 LP  0  0  0  0  0  0  0  0  0  0  0  0  # atno 17342 bound_to 10162
  140.7593  143.5943  150.8764 LP  0  0  0  0  0  0  0  0  0  0  0  0  # atno 17343 bound_to 10162
  157.1201  130.6058  149.5503 LP  0  0  0  0  0  0  0  0  0  0  0  0  # atno 17370 bound_to 10713
  155.9900  130.4949  150.7238 LP  0  0  0  0  0  0  0  0  0  0  0  0  # atno 17371 bound_to 10713
  140.5690  134.5859  157.5453 LP  0  0  0  0  0  0  0  0  0  0  0  0  # atno 17394 bound_to 11000
  139.9515  134.7608  156.0437 LP  0  0  0  0  0  0  0  0  0  0  0  0  # atno 17395 bound_to 11000

$$$$
