AV-unprocessed.smi:790|AV-procd|sdf|3745|dock3
  -GOLD-   22720 1173D 1   1.00000     0.00000
 Structure written by MMmdl.
 38 40  0  0  0  0  0  0  0  0  1 V2000
  145.3805  137.4043  153.8728 O   0  0  0  0  0  0  0  0  0  0  0  0
  146.4377  137.0559  153.3488 C   0  0  0  0  0  0  0  0  0  0  0  0
  147.5650  137.7867  153.3019 N   0  0  0  0  0  0  0  0  0  0  0  0
  147.8202  139.0822  153.8308 C   0  0  0  0  0  0  0  0  0  0  0  0
  149.0878  139.5445  154.2630 C   0  0  0  0  0  0  0  0  0  0  0  0
  149.1963  140.8515  154.7759 C   0  0  0  0  0  0  0  0  0  0  0  0
  148.0364  141.6469  154.8437 C   0  0  0  0  0  0  0  0  0  0  0  0
  146.8208  141.2171  154.4460 N   0  0  0  0  0  0  0  0  0  0  0  0
  146.7248  139.9631  153.9550 C   0  0  0  0  0  0  0  0  0  0  0  0
  146.6105  135.8695  152.7495 N   0  0  0  0  0  0  0  0  0  0  0  0
  145.5975  134.8223  152.6403 C   0  0  1  0  0  0  0  0  0  0  0  0
  144.3014  135.3876  152.0176 C   0  0  2  0  0  0  0  0  0  0  0  0
  143.1534  134.3992  152.2878 C   0  0  0  0  0  0  0  0  0  0  0  0
  143.4962  133.2281  151.3480 C   0  0  0  0  0  0  0  0  0  0  0  0
  144.7957  133.7025  150.6610 C   0  0  1  0  0  0  0  0  0  0  0  0
  144.5254  135.1949  150.5201 C   0  0  0  0  0  0  0  0  0  0  0  0
  145.9966  133.7086  151.6368 C   0  0  2  0  0  0  0  0  0  0  0  0
  146.3208  132.3424  152.2721 C   0  0  0  0  0  0  0  0  0  0  0  0
  146.6199  131.3957  151.2693 O   0  0  0  0  0  0  0  0  0  0  0  0
  148.3598  137.3379  152.8706 H   0  0  0  0  0  0  0  0  0  0  0  0
  149.9741  138.9318  154.2246 H   0  0  0  0  0  0  0  0  0  0  0  0
  150.1483  141.2343  155.1129 H   0  0  0  0  0  0  0  0  0  0  0  0
  148.0858  142.6535  155.2321 H   0  0  0  0  0  0  0  0  0  0  0  0
  145.7362  139.6536  153.6481 H   0  0  0  0  0  0  0  0  0  0  0  0
  147.5135  135.6686  152.3455 H   0  0  0  0  0  0  0  0  0  0  0  0
  145.3824  134.4154  153.6302 H   0  0  0  0  0  0  0  0  0  0  0  0
  144.0687  136.4087  152.3225 H   0  0  0  0  0  0  0  0  0  0  0  0
  143.0990  134.0953  153.3337 H   0  0  0  0  0  0  0  0  0  0  0  0
  142.1918  134.8376  152.0177 H   0  0  0  0  0  0  0  0  0  0  0  0
  143.6075  132.2828  151.8776 H   0  0  0  0  0  0  0  0  0  0  0  0
  142.7034  133.0935  150.6112 H   0  0  0  0  0  0  0  0  0  0  0  0
  145.0033  133.1890  149.7218 H   0  0  0  0  0  0  0  0  0  0  0  0
  143.6440  135.4218  149.9174 H   0  0  0  0  0  0  0  0  0  0  0  0
  145.3764  135.7567  150.1312 H   0  0  0  0  0  0  0  0  0  0  0  0
  146.8693  134.0258  151.0616 H   0  0  0  0  0  0  0  0  0  0  0  0
  147.1658  132.4076  152.9575 H   0  0  0  0  0  0  0  0  0  0  0  0
  145.4655  131.9773  152.8411 H   0  0  0  0  0  0  0  0  0  0  0  0
  147.5583  131.3509  151.1663 H   0  0  0  0  0  0  0  0  0  0  0  0
  1  2  2  0  0  0  0
  2  3  1  0  0  0  0
  2 10  1  0  0  0  0
  3  4  1  0  0  0  0
  3 20  1  0  0  0  0
  4  9  1  0  0  0  0
  4  5  2  0  0  0  0
  5  6  1  0  0  0  0
  5 21  1  0  0  0  0
  6  7  2  0  0  0  0
  6 22  1  0  0  0  0
  7  8  1  0  0  0  0
  7 23  1  0  0  0  0
  8  9  2  0  0  0  0
  9 24  1  0  0  0  0
 10 11  1  0  0  0  0
 10 25  1  0  0  0  0
 11 17  1  0  0  0  0
 11 12  1  0  0  0  0
 11 26  1  0  0  0  0
 12 16  1  0  0  0  0
 12 13  1  0  0  0  0
 12 27  1  0  0  0  0
 13 14  1  0  0  0  0
 13 28  1  0  0  0  0
 13 29  1  0  0  0  0
 14 15  1  0  0  0  0
 14 30  1  0  0  0  0
 14 31  1  0  0  0  0
 15 16  1  0  0  0  0
 15 17  1  0  0  0  0
 15 32  1  0  0  0  0
 16 33  1  0  0  0  0
 16 34  1  0  0  0  0
 17 18  1  0  0  0  0
 17 35  1  0  0  0  0
 18 19  1  0  0  0  0
 18 36  1  0  0  0  0
 18 37  1  0  0  0  0
 19 38  1  0  0  0  0
M  END
> <s_m_source_file>
AV-unprocessed.smi

> <i_m_source_file_index>
790

> <i_lp_mmshare_version>
43012

> <i_f3d_flags>
0

> <s_epik_input>
W0NIMl0xW0NIMl1bQ0BASF0oW0NIMl0yKVtDQEBIXShbQ0gyXVtPSF0pW0NAQEhdKFtDQEhdMTIpW05IXUMoPU8pW05IXWMzW2NIXVtjSF1bY0hdbltjSF0z

> <s_epik_cmdline>
J2VwaWtfcHl0aG9uJywgJy1waCcsICc3LjAnLCAnLXRuJywgJzgnLCAnLW1hJywgJzIwMCcsICctbWV0YWxfYmluZGluZycsICctaW1hZScsICc8aW5maWxlLm1hZT4nLCAnLW9tYWUnLCAnPG91dGZpbGUubWFlPic=

> <r_epik_Ionization_Penalty>
0.00497582

> <r_epik_Ionization_Penalty_Charging>
0

> <r_epik_Ionization_Penalty_Neutral>
0.00497582

> <r_epik_State_Penalty>
0.00358602

> <r_epik_Charging_Adjusted_Penalty>
0.00358602

> <i_epik_Tot_Q>
0

> <i_epik_Tot_abs_Q>
0

> <r_epik_Metal_State_Penalty>
-0

> <b_epik_Metal_Only>
0

> <s_lp_Force_Field>
OPLS_2005

> <r_lp_Energy>
52.5349

> <b_lp_Chiralities_Consistent>
1

> <s_lp_Variant>
AV-unprocessed.smi:790-6

> <Gold.Version>
5.8.1

> <Gold.Id.Protein>
6NUR|6NUR_protein|mol2

> <Gold.PLP.Fitness>
44.9978

> <Gold.PLP.PLP>
-30.5235

> <Gold.PLP.part.hbond>
-2.6887

> <Gold.PLP.part.metal>
0.0000

> <Gold.PLP.part.buried>
-2.5871

> <Gold.PLP.part.nonpolar>
-26.0155

> <Gold.PLP.part.repulsive>
0.3259

> <Gold.PLP.ligand.clash>
0.0000

> <Gold.PLP.ligand.torsion>
0.2607

> <Gold.PLP.Chemscore.Hbond>
2.9920

> <Gold.PLP.Chemscore.CHOScore>
2.0000

> <Gold.PLP.Chemscore.Metal>
0.0000

> <Gold.Chemscore.Hbonds>
donor molecule, donor type, donor heavy atom, donor atom, acceptor molecule, acceptor atom, score
      L1  H     3    20       P1  7948  1.00
      L1  H    10    25       P1  7948  0.98
      L1  H    19    38       P1 10747  1.00
      L1  C     7    23       P1  8028  1.00
      L1  C     9    24       P1 10175  1.00

> <Gold.PLP.Chemscore.Internal.Correction>
0.0196

> <Gold.Rescore>
     Score         DG    S(hbond)    S(metal)    S(lipo)     H(rot)  DE(clash)    DE(int)     intcor
     16.56     -19.39       2.87        0.00      75.73       1.78       0.04       2.79       ----

> <Gold.Chemscore.Fitness>
16.5568

> <Gold.Chemscore.DG>
-19.3887

> <Gold.Chemscore.ZeroCoef>
-5.4800

> <Gold.Chemscore.Hbond>
2.8745

> <Gold.Chemscore.Metal>
0.0000

> <Gold.Chemscore.Lipo>
75.7306

> <Gold.Chemscore.Internal_Hbond>
0.0000

> <Gold.Chemscore.DEClash>
0.0431

> <Gold.Chemscore.DEInternal>
2.7888

> <Gold.Chemscore.Rot>
1.7783

> <Gold.Chemscore.Internal.Correction>
   9.000000E+99

> <Gold.Chemscore.Hbonds>
donor molecule, donor type, donor heavy atom, donor atom, acceptor molecule, acceptor atom, score
      L1  H     3    20       P1  7948  0.93
      L1  H    10    25       P1  7948  0.92
      L1  H    19    38       P1 10747  0.95

> <Gold.Chemscore.Hbond.Weighted>
-9.6008

> <Gold.Chemscore.Metal.Weighted>
-0.0000

> <Gold.Chemscore.Lipo.Weighted>
-8.8605

> <Gold.Chemscore.Internal_Hbond.Weighted>
0.0000

> <Gold.Chemscore.DEClash.Weighted>
0.0431

> <Gold.Chemscore.DEInternal.Weighted>
2.7888

> <Gold.Chemscore.Rot.Weighted>
4.5525

> <Gold.Chemscore.Internal.Correction.Weighted>
   9.000000E+99

> <Gold.Protein.RotatedTorsions>
[ 6907 6896 6895 6894 ] final -115.69 input  -60.11 | X-H torsion
[ 7974 7965 7964 7962 ] final -155.76 input  175.53 | X-H torsion
[ 8008 7997 7996 7995 ] final  -97.61 input   59.86 | X-H torsion
[ 10167 10162 10161 10158 ] final  -60.18 input  -65.29 | X-H torsion
[ 10718 10713 10712 10709 ] final   54.65 input   66.30 | X-H torsion
[ 10763 10752 10751 10750 ] final  -11.46 input  -60.55 | X-H torsion
[ 11005 11000 10999 10996 ] final  -52.54 input  -57.11 | X-H torsion

> <Gold.Protein.ActiveResidues>
 VAL166  LYS551  ARG553  GLY616  TRP617  ASP618  TYR619  PRO620  LYS621  CYS622 
 ASP623  PHE694  ASN695  SER759  ASP760  ASP761  ALA762  ILE779  LEU786  VAL792 
 PHE793  MET794  SER795  GLU796  ALA797  LYS798  CYS799  TRP800  GLU811  SER814 

> <Gold.Protein.RotatedAtoms>
  150.7998  133.8622  159.3234 H   0  0  0  0  0  0  0  0  0  0  0  0  # atno 6907 bound_to 6896
  151.6437  135.1008  160.0156 H   0  0  0  0  0  0  0  0  0  0  0  0  # atno 6908 bound_to 6896
  152.4083  133.6885  159.6411 H   0  0  0  0  0  0  0  0  0  0  0  0  # atno 6909 bound_to 6896
  144.7625  140.4205  143.5966 H   0  0  0  0  0  0  0  0  0  0  0  0  # atno 7974 bound_to 7965
  154.7901  140.0461  157.1194 H   0  0  0  0  0  0  0  0  0  0  0  0  # atno 8008 bound_to 7997
  154.9602  140.3076  155.5015 H   0  0  0  0  0  0  0  0  0  0  0  0  # atno 8009 bound_to 7997
  156.2948  140.2272  156.4686 H   0  0  0  0  0  0  0  0  0  0  0  0  # atno 8010 bound_to 7997
  140.6088  143.2381  151.5759 H   0  0  0  0  0  0  0  0  0  0  0  0  # atno 10167 bound_to 10162
  157.5276  130.8608  149.8642 H   0  0  0  0  0  0  0  0  0  0  0  0  # atno 10718 bound_to 10713
  153.4841  135.7017  153.5921 H   0  0  0  0  0  0  0  0  0  0  0  0  # atno 10763 bound_to 10752
  153.4121  135.3846  155.2057 H   0  0  0  0  0  0  0  0  0  0  0  0  # atno 10764 bound_to 10752
  154.8720  135.3907  154.4294 H   0  0  0  0  0  0  0  0  0  0  0  0  # atno 10765 bound_to 10752
  141.0929  133.6629  156.4039 H   0  0  0  0  0  0  0  0  0  0  0  0  # atno 11005 bound_to 11000
  145.6574  139.1575  143.2827 LP  0  0  0  0  0  0  0  0  0  0  0  0  # atno 17320 bound_to 7965
  146.1702  140.6658  142.9237 LP  0  0  0  0  0  0  0  0  0  0  0  0  # atno 17321 bound_to 7965
  139.5345  144.2821  152.1221 LP  0  0  0  0  0  0  0  0  0  0  0  0  # atno 17342 bound_to 10162
  140.2016  144.4652  150.6429 LP  0  0  0  0  0  0  0  0  0  0  0  0  # atno 17343 bound_to 10162
  156.0398  130.3742  150.1465 LP  0  0  0  0  0  0  0  0  0  0  0  0  # atno 17370 bound_to 10713
  156.9651  130.9817  151.3471 LP  0  0  0  0  0  0  0  0  0  0  0  0  # atno 17371 bound_to 10713
  140.5208  134.6306  157.5317 LP  0  0  0  0  0  0  0  0  0  0  0  0  # atno 17394 bound_to 11000
  139.9759  134.7216  155.9950 LP  0  0  0  0  0  0  0  0  0  0  0  0  # atno 17395 bound_to 11000

$$$$
