AV-unprocessed.smi:2720|AV-procd|sdf|10498|dock3
  -GOLD-   2272014543D 1   1.00000     0.00000
 Structure written by MMmdl.
 31 32  0  0  0  0  0  0  0  0  2 V2000
  149.4338  141.0819  153.3712 O   0  0  0  0  0  0  0  0  0  0  0  0
  148.7676  140.6374  154.5399 C   0  0  0  0  0  0  0  0  0  0  0  0
  149.8425  140.5068  155.6526 C   0  0  0  0  0  0  0  0  0  0  0  0
  150.7351  139.2789  155.5507 C   0  0  0  0  0  0  0  0  0  0  0  0
  151.2691  138.6713  156.7070 C   0  0  0  0  0  0  0  0  0  0  0  0
  152.0876  137.5343  156.5520 C   0  0  0  0  0  0  0  0  0  0  0  0
  152.3883  136.9951  155.3512 N   0  0  0  0  0  0  0  0  0  0  0  0
  151.8773  137.5837  154.2488 C   0  0  0  0  0  0  0  0  0  0  0  0
  151.0497  138.7236  154.2934 C   0  0  0  0  0  0  0  0  0  0  0  0
  147.7191  141.7061  154.9286 C   0  0  0  0  0  0  0  0  0  0  0  0
  146.5761  141.8200  153.9028 C   0  0  0  0  0  0  0  0  0  0  0  0
  145.9372  140.5065  153.6824 N   0  3  0  0  0  0  0  0  0  0  0  0
  146.8910  139.4808  153.2123 C   0  0  0  0  0  0  0  0  0  0  0  0
  148.0483  139.3040  154.2129 C   0  0  0  0  0  0  0  0  0  0  0  0
  149.2725  140.4619  152.6759 H   0  0  0  0  0  0  0  0  0  0  0  0
  150.4635  141.4029  155.6980 H   0  0  0  0  0  0  0  0  0  0  0  0
  149.3464  140.4535  156.6229 H   0  0  0  0  0  0  0  0  0  0  0  0
  151.0570  139.0612  157.6917 H   0  0  0  0  0  0  0  0  0  0  0  0
  152.5106  137.0440  157.4163 H   0  0  0  0  0  0  0  0  0  0  0  0
  152.1346  137.1326  153.3021 H   0  0  0  0  0  0  0  0  0  0  0  0
  150.6644  139.1565  153.3819 H   0  0  0  0  0  0  0  0  0  0  0  0
  147.2871  141.4530  155.8981 H   0  0  0  0  0  0  0  0  0  0  0  0
  148.1977  142.6780  155.0567 H   0  0  0  0  0  0  0  0  0  0  0  0
  145.8232  142.5253  154.2555 H   0  0  0  0  0  0  0  0  0  0  0  0
  146.9479  142.2043  152.9521 H   0  0  0  0  0  0  0  0  0  0  0  0
  145.5297  140.1945  154.5522 H   0  0  0  0  0  0  0  0  0  0  0  0
  146.3609  138.5372  153.0808 H   0  0  0  0  0  0  0  0  0  0  0  0
  147.2728  139.7676  152.2316 H   0  0  0  0  0  0  0  0  0  0  0  0
  148.7511  138.5720  153.8127 H   0  0  0  0  0  0  0  0  0  0  0  0
  147.6523  138.8746  155.1343 H   0  0  0  0  0  0  0  0  0  0  0  0
  145.2027  140.6098  152.9965 H   0  0  0  0  0  0  0  0  0  0  0  0
  1  2  1  0  0  0  0
  1 15  1  0  0  0  0
  2 14  1  0  0  0  0
  2  3  1  0  0  0  0
  2 10  1  0  0  0  0
  3  4  1  0  0  0  0
  3 16  1  0  0  0  0
  3 17  1  0  0  0  0
  4  9  1  0  0  0  0
  4  5  2  0  0  0  0
  5  6  1  0  0  0  0
  5 18  1  0  0  0  0
  6  7  2  0  0  0  0
  6 19  1  0  0  0  0
  7  8  1  0  0  0  0
  8  9  2  0  0  0  0
  8 20  1  0  0  0  0
  9 21  1  0  0  0  0
 10 11  1  0  0  0  0
 10 22  1  0  0  0  0
 10 23  1  0  0  0  0
 11 12  1  0  0  0  0
 11 24  1  0  0  0  0
 11 25  1  0  0  0  0
 12 13  1  0  0  0  0
 12 26  1  0  0  0  0
 12 31  1  0  0  0  0
 13 14  1  0  0  0  0
 13 27  1  0  0  0  0
 13 28  1  0  0  0  0
 14 29  1  0  0  0  0
 14 30  1  0  0  0  0
M  CHG  1  12   1
M  END
> <s_m_source_file>
AV-unprocessed.smi

> <i_m_source_file_index>
2720

> <i_lp_mmshare_version>
43012

> <i_f3d_flags>
0

> <s_epik_input>
W0NIMl0xW0NIMl1bTkhdW0NIMl1bQ0gyXUMxKFtPSF0pW0NIMl1jMltjSF1bY0hdbltjSF1bY0hdMg==

> <s_epik_cmdline>
J2VwaWtfcHl0aG9uJywgJy1waCcsICc3LjAnLCAnLXRuJywgJzgnLCAnLW1hJywgJzIwMCcsICctbWV0YWxfYmluZGluZycsICctaW1hZScsICc8aW5maWxlLm1hZT4nLCAnLW9tYWUnLCAnPG91dGZpbGUubWFlPic=

> <r_epik_Ionization_Penalty>
0.069741

> <r_epik_Ionization_Penalty_Charging>
0.000197202

> <r_epik_Ionization_Penalty_Neutral>
0.0695438

> <r_epik_State_Penalty>
0.060924

> <r_epik_Charging_Adjusted_Penalty>
0.0611212

> <i_epik_Tot_Q>
1

> <i_epik_Tot_abs_Q>
1

> <r_epik_Metal_State_Penalty>
6.4163e-05

> <b_epik_Metal_Only>
0

> <s_lp_Force_Field>
OPLS_2005

> <r_lp_Energy>
18.1257

> <b_lp_Chiralities_Consistent>
1

> <s_lp_Variant>
AV-unprocessed.smi:2720-1

> <Gold.Version>
5.8.1

> <Gold.Id.Protein>
6NUR|6NUR_protein|mol2

> <Gold.PLP.Fitness>
42.0570

> <Gold.PLP.PLP>
-25.8310

> <Gold.PLP.part.hbond>
-4.5051

> <Gold.PLP.part.metal>
0.0000

> <Gold.PLP.part.buried>
-2.1578

> <Gold.PLP.part.nonpolar>
-20.7045

> <Gold.PLP.part.repulsive>
0.0295

> <Gold.PLP.ligand.clash>
0.0000

> <Gold.PLP.ligand.torsion>
0.5574

> <Gold.PLP.Chemscore.Hbond>
4.7790

> <Gold.PLP.Chemscore.CHOScore>
1.0000

> <Gold.PLP.Chemscore.Metal>
0.0000

> <Gold.Chemscore.Hbonds>
donor molecule, donor type, donor heavy atom, donor atom, acceptor molecule, acceptor atom, score
      L1  H     1    15       P1  7957  0.91
      L1  H    12    31       P1 10175  2.00
      P1  H  7989  7998       L1     1  0.11
      P1  H  8011  8017       L1     1  0.75
      P1  H 10752 10764       L1     7  0.72
      L1  C     8    20       P1  7949  1.00

> <Gold.PLP.Chemscore.Internal.Correction>
0.0037

> <Gold.Rescore>
     Score         DG    S(hbond)    S(metal)    S(lipo)     H(rot)  DE(clash)    DE(int)     intcor
     15.62     -17.50       2.45        0.00      67.94       1.61       0.33       1.55       ----

> <Gold.Chemscore.Fitness>
15.6158

> <Gold.Chemscore.DG>
-17.4950

> <Gold.Chemscore.ZeroCoef>
-5.4800

> <Gold.Chemscore.Hbond>
2.4516

> <Gold.Chemscore.Metal>
0.0000

> <Gold.Chemscore.Lipo>
67.9407

> <Gold.Chemscore.Internal_Hbond>
0.0000

> <Gold.Chemscore.DEClash>
0.3289

> <Gold.Chemscore.DEInternal>
1.5503

> <Gold.Chemscore.Rot>
1.6102

> <Gold.Chemscore.Internal.Correction>
   9.000000E+99

> <Gold.Chemscore.Hbonds>
donor molecule, donor type, donor heavy atom, donor atom, acceptor molecule, acceptor atom, score
      L1  H     1    15       P1  7957  0.87
      L1  H    12    31       P1 10175  0.79
      P1  H  7989  7998       L1     1  0.02
      P1  H  8011  8017       L1     1  0.09
      P1  H 10752 10764       L1     7  0.56

> <Gold.Chemscore.Hbond.Weighted>
-8.1882

> <Gold.Chemscore.Metal.Weighted>
-0.0000

> <Gold.Chemscore.Lipo.Weighted>
-7.9491

> <Gold.Chemscore.Internal_Hbond.Weighted>
0.0000

> <Gold.Chemscore.DEClash.Weighted>
0.3289

> <Gold.Chemscore.DEInternal.Weighted>
1.5503

> <Gold.Chemscore.Rot.Weighted>
4.1222

> <Gold.Chemscore.Internal.Correction.Weighted>
   9.000000E+99

> <Gold.Protein.RotatedTorsions>
[ 6907 6896 6895 6894 ] final  -37.42 input  -60.11 | X-H torsion
[ 7974 7965 7964 7962 ] final  -41.77 input  175.53 | X-H torsion
[ 8008 7997 7996 7995 ] final -106.93 input   59.86 | X-H torsion
[ 10167 10162 10161 10158 ] final  162.00 input  -65.29 | X-H torsion
[ 10718 10713 10712 10709 ] final  -77.19 input   66.30 | X-H torsion
[ 10763 10752 10751 10750 ] final  -34.27 input  -60.55 | X-H torsion
[ 11005 11000 10999 10996 ] final  142.76 input  -57.11 | X-H torsion

> <Gold.Protein.ActiveResidues>
 VAL166  LYS551  ARG553  GLY616  TRP617  ASP618  TYR619  PRO620  LYS621  CYS622 
 ASP623  PHE694  ASN695  SER759  ASP760  ASP761  ALA762  ILE779  LEU786  VAL792 
 PHE793  MET794  SER795  GLU796  ALA797  LYS798  CYS799  TRP800  GLU811  SER814 

> <Gold.Protein.RotatedAtoms>
  151.0149  134.9425  159.8027 H   0  0  0  0  0  0  0  0  0  0  0  0  # atno 6907 bound_to 6896
  152.5311  134.2979  159.9077 H   0  0  0  0  0  0  0  0  0  0  0  0  # atno 6908 bound_to 6896
  151.2985  133.4091  159.2672 H   0  0  0  0  0  0  0  0  0  0  0  0  # atno 6909 bound_to 6896
  146.0180  140.6885  142.9192 H   0  0  0  0  0  0  0  0  0  0  0  0  # atno 7974 bound_to 7965
  154.9217  140.0407  157.2001 H   0  0  0  0  0  0  0  0  0  0  0  0  # atno 8008 bound_to 7997
  154.8247  140.2889  155.5741 H   0  0  0  0  0  0  0  0  0  0  0  0  # atno 8009 bound_to 7997
  156.2982  140.2512  156.3161 H   0  0  0  0  0  0  0  0  0  0  0  0  # atno 8010 bound_to 7997
  139.4855  144.4481  151.8865 H   0  0  0  0  0  0  0  0  0  0  0  0  # atno 10167 bound_to 10162
  156.0152  130.4485  150.3308 H   0  0  0  0  0  0  0  0  0  0  0  0  # atno 10718 bound_to 10713
  153.8440  135.6855  153.4799 H   0  0  0  0  0  0  0  0  0  0  0  0  # atno 10763 bound_to 10752
  153.1436  135.4647  154.9531 H   0  0  0  0  0  0  0  0  0  0  0  0  # atno 10764 bound_to 10752
  154.7832  135.3276  154.7891 H   0  0  0  0  0  0  0  0  0  0  0  0  # atno 10765 bound_to 10752
  140.0501  134.9260  157.1002 H   0  0  0  0  0  0  0  0  0  0  0  0  # atno 11005 bound_to 11000
  144.6978  140.3515  143.7181 LP  0  0  0  0  0  0  0  0  0  0  0  0  # atno 17320 bound_to 7965
  145.7239  139.1717  143.2469 LP  0  0  0  0  0  0  0  0  0  0  0  0  # atno 17321 bound_to 7965
  140.3936  144.2583  150.5898 LP  0  0  0  0  0  0  0  0  0  0  0  0  # atno 17342 bound_to 10162
  140.5123  143.2287  151.8517 LP  0  0  0  0  0  0  0  0  0  0  0  0  # atno 17343 bound_to 10162
  157.1406  131.0295  151.2929 LP  0  0  0  0  0  0  0  0  0  0  0  0  # atno 17370 bound_to 10713
  157.4475  130.7579  149.7122 LP  0  0  0  0  0  0  0  0  0  0  0  0  # atno 17371 bound_to 10713
  140.3930  134.2164  155.7165 LP  0  0  0  0  0  0  0  0  0  0  0  0  # atno 17394 bound_to 11000
  141.1926  133.8169  157.0832 LP  0  0  0  0  0  0  0  0  0  0  0  0  # atno 17395 bound_to 11000

$$$$
