AV-unprocessed.smi:1120|AV-procd|sdf|4824|dock6
  -GOLD-   22720 3383D 1   1.00000     0.00000
 Structure written by MMmdl.
 48 49  0  0  0  0  0  0  0  0  3 V2000
  152.5269  145.4813  159.6763 C   0  0  0  0  0  0  0  0  0  0  0  0
  151.7841  144.2063  159.2541 C   0  0  2  0  0  0  0  0  0  0  0  0
  152.4762  142.9310  159.7896 C   0  0  0  0  0  0  0  0  0  0  0  0
  151.7705  141.6285  159.3353 C   0  0  0  0  0  0  0  0  0  0  0  0
  151.6338  141.5117  157.7986 C   0  0  1  0  0  0  0  0  0  0  0  0
  150.8544  140.3298  157.4595 N   0  5  0  0  0  0  0  0  0  0  0  0
  151.2888  139.4151  156.1942 S   0  0  0  0  0  0  0  0  0  0  0  0
  151.0005  140.0595  154.9015 O   0  0  0  0  0  0  0  0  0  0  0  0
  152.6273  138.8240  156.3551 O   0  0  0  0  0  0  0  0  0  0  0  0
  150.0898  138.0208  156.3533 C   0  0  0  0  0  0  0  0  0  0  0  0
  150.3824  136.9536  155.3007 C   0  0  0  0  0  0  0  0  0  0  0  0
  151.3993  137.0296  154.6112 O   0  0  0  0  0  0  0  0  0  0  0  0
  149.4789  135.9674  155.1821 N   0  0  0  0  0  0  0  0  0  0  0  0
  149.5433  134.8666  154.2249 C   0  0  0  0  0  0  0  0  0  0  0  0
  148.7015  133.6509  154.6590 C   0  0  0  0  0  0  0  0  0  0  0  0
  147.5549  133.3233  153.7178 C   0  0  0  0  0  0  0  0  0  0  0  0
  146.8715  132.0892  153.7730 C   0  0  0  0  0  0  0  0  0  0  0  0
  145.8316  131.8354  152.8541 C   0  0  0  0  0  0  0  0  0  0  0  0
  145.4953  132.8201  151.9021 C   0  0  0  0  0  0  0  0  0  0  0  0
  146.2101  134.0346  151.8920 C   0  0  0  0  0  0  0  0  0  0  0  0
  147.2012  134.2388  152.7865 N   0  3  0  0  0  0  0  0  0  0  0  0
  150.9497  142.7934  157.2613 C   0  0  0  0  0  0  0  0  0  0  0  0
  151.6516  144.0976  157.7168 C   0  0  0  0  0  0  0  0  0  0  0  0
  153.5427  145.4977  159.2801 H   0  0  0  0  0  0  0  0  0  0  0  0
  152.5913  145.5560  160.7621 H   0  0  0  0  0  0  0  0  0  0  0  0
  152.0131  146.3718  159.3137 H   0  0  0  0  0  0  0  0  0  0  0  0
  150.7796  144.2493  159.6781 H   0  0  0  0  0  0  0  0  0  0  0  0
  153.5212  142.9189  159.4726 H   0  0  0  0  0  0  0  0  0  0  0  0
  152.4988  142.9613  160.8794 H   0  0  0  0  0  0  0  0  0  0  0  0
  152.3179  140.7683  159.7225 H   0  0  0  0  0  0  0  0  0  0  0  0
  150.7812  141.5901  159.7944 H   0  0  0  0  0  0  0  0  0  0  0  0
  152.6401  141.4596  157.3805 H   0  0  0  0  0  0  0  0  0  0  0  0
  150.1769  137.6017  157.3560 H   0  0  0  0  0  0  0  0  0  0  0  0
  149.0791  138.4123  156.2371 H   0  0  0  0  0  0  0  0  0  0  0  0
  148.6733  135.9929  155.7913 H   0  0  0  0  0  0  0  0  0  0  0  0
  149.2365  135.1988  153.2317 H   0  0  0  0  0  0  0  0  0  0  0  0
  150.5873  134.5673  154.1324 H   0  0  0  0  0  0  0  0  0  0  0  0
  149.3454  132.7745  154.7406 H   0  0  0  0  0  0  0  0  0  0  0  0
  148.2996  133.8227  155.6585 H   0  0  0  0  0  0  0  0  0  0  0  0
  147.1465  131.3419  154.5032 H   0  0  0  0  0  0  0  0  0  0  0  0
  145.3013  130.8947  152.8768 H   0  0  0  0  0  0  0  0  0  0  0  0
  144.7070  132.6443  151.1848 H   0  0  0  0  0  0  0  0  0  0  0  0
  146.0325  134.8384  151.1919 H   0  0  0  0  0  0  0  0  0  0  0  0
  150.9165  142.7704  156.1718 H   0  0  0  0  0  0  0  0  0  0  0  0
  149.9113  142.8203  157.5954 H   0  0  0  0  0  0  0  0  0  0  0  0
  151.0892  144.9527  157.3407 H   0  0  0  0  0  0  0  0  0  0  0  0
  152.6395  144.1684  157.2570 H   0  0  0  0  0  0  0  0  0  0  0  0
  147.7170  135.1190  152.7446 H   0  0  0  0  0  0  0  0  0  0  0  0
  1  2  1  0  0  0  0
  1 24  1  0  0  0  0
  1 25  1  0  0  0  0
  1 26  1  0  0  0  0
  2 23  1  0  0  0  0
  2  3  1  0  0  0  0
  2 27  1  0  0  0  0
  3  4  1  0  0  0  0
  3 28  1  0  0  0  0
  3 29  1  0  0  0  0
  4  5  1  0  0  0  0
  4 30  1  0  0  0  0
  4 31  1  0  0  0  0
  5  6  1  0  0  0  0
  5 22  1  0  0  0  0
  5 32  1  0  0  0  0
  6  7  1  0  0  0  0
  7  8  2  0  0  0  0
  7  9  2  0  0  0  0
  7 10  1  0  0  0  0
 10 11  1  0  0  0  0
 10 33  1  0  0  0  0
 10 34  1  0  0  0  0
 11 12  2  0  0  0  0
 11 13  1  0  0  0  0
 13 14  1  0  0  0  0
 13 35  1  0  0  0  0
 14 15  1  0  0  0  0
 14 36  1  0  0  0  0
 14 37  1  0  0  0  0
 15 16  1  0  0  0  0
 15 38  1  0  0  0  0
 15 39  1  0  0  0  0
 16 21  1  0  0  0  0
 16 17  2  0  0  0  0
 17 18  1  0  0  0  0
 17 40  1  0  0  0  0
 18 19  2  0  0  0  0
 18 41  1  0  0  0  0
 19 20  1  0  0  0  0
 19 42  1  0  0  0  0
 20 21  2  0  0  0  0
 20 43  1  0  0  0  0
 21 48  1  0  0  0  0
 22 23  1  0  0  0  0
 22 44  1  0  0  0  0
 22 45  1  0  0  0  0
 23 46  1  0  0  0  0
 23 47  1  0  0  0  0
M  CHG  1   6  -1
M  CHG  1  21   1
M  END
> <s_m_source_file>
AV-unprocessed.smi

> <i_m_source_file_index>
1120

> <i_lp_mmshare_version>
43012

> <i_f3d_flags>
0

> <s_epik_input>
W0NIM11bQ0BASF0xW0NIMl1bQ0gyXVtDQEhdKFtDSDJdW0NIMl0xKVtOSF1TKD1PKSg9TylbQ0gyXUMoPU8pW05IXVtDSDJdW0NIMl1jMltjSF1bY0hdW2NIXVtjSF1uMg==

> <s_epik_cmdline>
J2VwaWtfcHl0aG9uJywgJy1waCcsICc3LjAnLCAnLXRuJywgJzgnLCAnLW1hJywgJzIwMCcsICctbWV0YWxfYmluZGluZycsICctaW1hZScsICc8aW5maWxlLm1hZT4nLCAnLW9tYWUnLCAnPG91dGZpbGUubWFlPic=

> <r_epik_Ionization_Penalty>
7.48373

> <r_epik_Ionization_Penalty_Charging>
7.48373

> <r_epik_Ionization_Penalty_Neutral>
1.58512e-08

> <r_epik_State_Penalty>
7.71683

> <r_epik_Charging_Adjusted_Penalty>
15.2006

> <i_epik_Tot_Q>
0

> <i_epik_Tot_abs_Q>
2

> <r_epik_Metal_State_Penalty>
3.7254

> <b_epik_Metal_Only>
1

> <s_lp_Force_Field>
OPLS_2005

> <r_lp_Energy>
6.08915

> <b_lp_Chiralities_Consistent>
1

> <s_lp_Variant>
AV-unprocessed.smi:1120-7

> <Gold.Version>
5.8.1

> <Gold.Id.Protein>
6NUR|6NUR_protein|mol2

> <Gold.PLP.Fitness>
56.4025

> <Gold.PLP.PLP>
-43.7029

> <Gold.PLP.part.hbond>
-4.0000

> <Gold.PLP.part.metal>
0.0000

> <Gold.PLP.part.buried>
-4.7751

> <Gold.PLP.part.nonpolar>
-34.1807

> <Gold.PLP.part.repulsive>
0.2306

> <Gold.PLP.ligand.clash>
0.0000

> <Gold.PLP.ligand.torsion>
1.7183

> <Gold.PLP.Chemscore.Hbond>
5.0000

> <Gold.PLP.Chemscore.CHOScore>
0.0000

> <Gold.PLP.Chemscore.Metal>
0.0000

> <Gold.Chemscore.Hbonds>
donor molecule, donor type, donor heavy atom, donor atom, acceptor molecule, acceptor atom, score
      L1  H    21    48       P1  7948  1.92
      P1  H  7989  7998       L1     8  1.00
      P1  H  7997  8009       L1     9  0.70
      P1  H 10752 10764       L1    12  0.83

> <Gold.PLP.Chemscore.Internal.Correction>
1.1362

> <Gold.Rescore>
     Score         DG    S(hbond)    S(metal)    S(lipo)     H(rot)  DE(clash)    DE(int)     intcor
     22.67     -25.69       3.79        0.00     108.06       1.98       0.11       2.91       ----

> <Gold.Chemscore.Fitness>
22.6663

> <Gold.Chemscore.DG>
-25.6892

> <Gold.Chemscore.ZeroCoef>
-5.4800

> <Gold.Chemscore.Hbond>
3.7853

> <Gold.Chemscore.Metal>
0.0000

> <Gold.Chemscore.Lipo>
108.0612

> <Gold.Chemscore.Internal_Hbond>
0.0000

> <Gold.Chemscore.DEClash>
0.1107

> <Gold.Chemscore.DEInternal>
2.9121

> <Gold.Chemscore.Rot>
1.9832

> <Gold.Chemscore.Internal.Correction>
   9.000000E+99

> <Gold.Chemscore.Hbonds>
donor molecule, donor type, donor heavy atom, donor atom, acceptor molecule, acceptor atom, score
      L1  H    21    48       P1  7948  0.92
      P1  H  7989  7998       L1     8  1.00
      P1  H  7997  8009       L1     9  0.67
      P1  H 10752 10764       L1    12  0.79

> <Gold.Chemscore.Hbond.Weighted>
-12.6429

> <Gold.Chemscore.Metal.Weighted>
-0.0000

> <Gold.Chemscore.Lipo.Weighted>
-12.6432

> <Gold.Chemscore.Internal_Hbond.Weighted>
0.0000

> <Gold.Chemscore.DEClash.Weighted>
0.1107

> <Gold.Chemscore.DEInternal.Weighted>
2.9121

> <Gold.Chemscore.Rot.Weighted>
5.0769

> <Gold.Chemscore.Internal.Correction.Weighted>
   9.000000E+99

> <Gold.Protein.RotatedTorsions>
[ 6907 6896 6895 6894 ] final   22.10 input  -60.11 | X-H torsion
[ 7974 7965 7964 7962 ] final  -21.66 input  175.53 | X-H torsion
[ 8008 7997 7996 7995 ] final -177.04 input   59.86 | X-H torsion
[ 10167 10162 10161 10158 ] final  118.55 input  -65.29 | X-H torsion
[ 10718 10713 10712 10709 ] final -116.01 input   66.30 | X-H torsion
[ 10763 10752 10751 10750 ] final  -58.89 input  -60.55 | X-H torsion
[ 11005 11000 10999 10996 ] final  126.16 input  -57.11 | X-H torsion

> <Gold.Protein.ActiveResidues>
 VAL166  LYS551  ARG553  GLY616  TRP617  ASP618  TYR619  PRO620  LYS621  CYS622 
 ASP623  PHE694  ASN695  SER759  ASP760  ASP761  ALA762  ILE779  LEU786  VAL792 
 PHE793  MET794  SER795  GLU796  ALA797  LYS798  CYS799  TRP800  GLU811  SER814 

> <Gold.Protein.RotatedAtoms>
  151.9220  135.0294  160.0522 H   0  0  0  0  0  0  0  0  0  0  0  0  # atno 6907 bound_to 6896
  152.2191  133.4965  159.5161 H   0  0  0  0  0  0  0  0  0  0  0  0  # atno 6908 bound_to 6896
  150.6995  134.1282  159.4103 H   0  0  0  0  0  0  0  0  0  0  0  0  # atno 6909 bound_to 6896
  146.1720  140.4372  142.8528 H   0  0  0  0  0  0  0  0  0  0  0  0  # atno 7974 bound_to 7965
  156.0022  140.1223  157.0537 H   0  0  0  0  0  0  0  0  0  0  0  0  # atno 8008 bound_to 7997
  154.4246  140.1104  156.5781 H   0  0  0  0  0  0  0  0  0  0  0  0  # atno 8009 bound_to 7997
  155.6197  140.3472  155.4650 H   0  0  0  0  0  0  0  0  0  0  0  0  # atno 8010 bound_to 7997
  139.6104  144.7080  151.2857 H   0  0  0  0  0  0  0  0  0  0  0  0  # atno 10167 bound_to 10162
  156.0934  130.6112  150.8981 H   0  0  0  0  0  0  0  0  0  0  0  0  # atno 10718 bound_to 10713
  154.2452  135.6336  153.5221 H   0  0  0  0  0  0  0  0  0  0  0  0  # atno 10763 bound_to 10752
  152.9922  135.5551  154.5867 H   0  0  0  0  0  0  0  0  0  0  0  0  # atno 10764 bound_to 10752
  154.5382  135.2893  155.1094 H   0  0  0  0  0  0  0  0  0  0  0  0  # atno 10765 bound_to 10752
  139.9442  134.9632  156.8666 H   0  0  0  0  0  0  0  0  0  0  0  0  # atno 11005 bound_to 11000
  144.8178  140.6497  143.6373 LP  0  0  0  0  0  0  0  0  0  0  0  0  # atno 17320 bound_to 7965
  145.4314  139.1548  143.4020 LP  0  0  0  0  0  0  0  0  0  0  0  0  # atno 17321 bound_to 7965
  140.7315  143.6850  150.7969 LP  0  0  0  0  0  0  0  0  0  0  0  0  # atno 17342 bound_to 10162
  140.0444  143.5313  152.2703 LP  0  0  0  0  0  0  0  0  0  0  0  0  # atno 17343 bound_to 10162
  157.6090  131.0937  150.8829 LP  0  0  0  0  0  0  0  0  0  0  0  0  # atno 17370 bound_to 10713
  156.8972  130.5234  149.5284 LP  0  0  0  0  0  0  0  0  0  0  0  0  # atno 17371 bound_to 10713
  140.5876  134.0293  155.7487 LP  0  0  0  0  0  0  0  0  0  0  0  0  # atno 17394 bound_to 11000
  141.1087  133.9651  157.2950 LP  0  0  0  0  0  0  0  0  0  0  0  0  # atno 17395 bound_to 11000

$$$$
