AV-unprocessed.smi:671|AV-procd|sdf|3273|dock8
  -GOLD-   22720 0233D 1   1.00000     0.00000
 Structure written by MMmdl.
 49 50  0  0  0  0  0  0  0  0  1 V2000
  145.2886  132.0256  151.8635 C   0  0  0  0  0  0  0  0  0  0  0  0
  146.2341  130.9375  152.2874 C   0  0  0  0  0  0  0  0  0  0  0  0
  146.1464  129.7471  151.7185 N   0  0  0  0  0  0  0  0  0  0  0  0
  147.1039  129.0089  152.3148 N   0  0  0  0  0  0  0  0  0  0  0  0
  147.2832  127.6255  151.9191 C   0  0  0  0  0  0  0  0  0  0  0  0
  147.8012  129.7358  153.2603 C   0  0  0  0  0  0  0  0  0  0  0  0
  148.9156  129.1408  154.0595 C   0  0  0  0  0  0  0  0  0  0  0  0
  147.2638  130.9954  153.2724 C   0  0  0  0  0  0  0  0  0  0  0  0
  147.6458  132.1816  154.1199 C   0  0  0  0  0  0  0  0  0  0  0  0
  149.1294  132.5765  153.9450 C   0  0  2  0  0  0  0  0  0  0  0  0
  150.0150  132.0604  155.0899 C   0  0  0  0  0  0  0  0  0  0  0  0
  149.2680  134.0327  153.8617 N   0  0  0  0  0  0  0  0  0  0  0  0
  149.3930  134.9151  154.8703 C   0  0  0  0  0  0  0  0  0  0  0  0
  149.3881  134.5605  156.0475 O   0  0  0  0  0  0  0  0  0  0  0  0
  149.5028  136.1963  154.4815 N   0  0  0  0  0  0  0  0  0  0  0  0
  149.6410  137.3473  155.3682 C   0  0  2  0  0  0  0  0  0  0  0  0
  148.7087  138.4837  154.9088 C   0  0  0  0  0  0  0  0  0  0  0  0
  149.6174  139.5647  154.3248 C   0  0  0  0  0  0  0  0  0  0  0  0
  150.9069  139.4311  155.1273 C   0  0  0  0  0  0  0  0  0  0  0  0
  151.0765  137.9201  155.3206 C   0  0  1  0  0  0  0  0  0  0  0  0
  151.9303  137.5555  156.5432 C   0  0  0  0  0  0  0  0  0  0  0  0
  145.7960  132.9877  151.8003 H   0  0  0  0  0  0  0  0  0  0  0  0
  144.4713  132.1290  152.5769 H   0  0  0  0  0  0  0  0  0  0  0  0
  144.8520  131.8224  150.8853 H   0  0  0  0  0  0  0  0  0  0  0  0
  148.2095  127.5245  151.3531 H   0  0  0  0  0  0  0  0  0  0  0  0
  146.4501  127.2917  151.2991 H   0  0  0  0  0  0  0  0  0  0  0  0
  147.3349  126.9921  152.8050 H   0  0  0  0  0  0  0  0  0  0  0  0
  149.4847  129.9102  154.5801 H   0  0  0  0  0  0  0  0  0  0  0  0
  149.6085  128.5955  153.4184 H   0  0  0  0  0  0  0  0  0  0  0  0
  148.5270  128.4479  154.8059 H   0  0  0  0  0  0  0  0  0  0  0  0
  147.0077  133.0266  153.8608 H   0  0  0  0  0  0  0  0  0  0  0  0
  147.4434  131.9917  155.1743 H   0  0  0  0  0  0  0  0  0  0  0  0
  149.5114  132.1393  153.0212 H   0  0  0  0  0  0  0  0  0  0  0  0
  150.0008  130.9719  155.1451 H   0  0  0  0  0  0  0  0  0  0  0  0
  149.6836  132.4468  156.0543 H   0  0  0  0  0  0  0  0  0  0  0  0
  151.0531  132.3631  154.9493 H   0  0  0  0  0  0  0  0  0  0  0  0
  149.2148  134.4227  152.9317 H   0  0  0  0  0  0  0  0  0  0  0  0
  149.4911  136.3888  153.4907 H   0  0  0  0  0  0  0  0  0  0  0  0
  149.3653  137.0690  156.3874 H   0  0  0  0  0  0  0  0  0  0  0  0
  147.9455  138.1610  154.1994 H   0  0  0  0  0  0  0  0  0  0  0  0
  148.1849  138.8885  155.7757 H   0  0  0  0  0  0  0  0  0  0  0  0
  149.8148  139.3547  153.2729 H   0  0  0  0  0  0  0  0  0  0  0  0
  149.1809  140.5617  154.3916 H   0  0  0  0  0  0  0  0  0  0  0  0
  151.7606  139.8879  154.6259 H   0  0  0  0  0  0  0  0  0  0  0  0
  150.7852  139.9244  156.0929 H   0  0  0  0  0  0  0  0  0  0  0  0
  151.5804  137.5401  154.4297 H   0  0  0  0  0  0  0  0  0  0  0  0
  151.4783  137.9191  157.4666 H   0  0  0  0  0  0  0  0  0  0  0  0
  152.9279  137.9886  156.4662 H   0  0  0  0  0  0  0  0  0  0  0  0
  152.0445  136.4749  156.6312 H   0  0  0  0  0  0  0  0  0  0  0  0
  1  2  1  0  0  0  0
  1 22  1  0  0  0  0
  1 23  1  0  0  0  0
  1 24  1  0  0  0  0
  2  8  1  0  0  0  0
  2  3  2  0  0  0  0
  3  4  1  0  0  0  0
  4  5  1  0  0  0  0
  4  6  1  0  0  0  0
  5 25  1  0  0  0  0
  5 26  1  0  0  0  0
  5 27  1  0  0  0  0
  6  7  1  0  0  0  0
  6  8  2  0  0  0  0
  7 28  1  0  0  0  0
  7 29  1  0  0  0  0
  7 30  1  0  0  0  0
  8  9  1  0  0  0  0
  9 10  1  0  0  0  0
  9 31  1  0  0  0  0
  9 32  1  0  0  0  0
 10 11  1  0  0  0  0
 10 12  1  0  0  0  0
 10 33  1  0  0  0  0
 11 34  1  0  0  0  0
 11 35  1  0  0  0  0
 11 36  1  0  0  0  0
 12 13  1  0  0  0  0
 12 37  1  0  0  0  0
 13 14  2  0  0  0  0
 13 15  1  0  0  0  0
 15 16  1  0  0  0  0
 15 38  1  0  0  0  0
 16 20  1  0  0  0  0
 16 17  1  0  0  0  0
 16 39  1  0  0  0  0
 17 18  1  0  0  0  0
 17 40  1  0  0  0  0
 17 41  1  0  0  0  0
 18 19  1  0  0  0  0
 18 42  1  0  0  0  0
 18 43  1  0  0  0  0
 19 20  1  0  0  0  0
 19 44  1  0  0  0  0
 19 45  1  0  0  0  0
 20 21  1  0  0  0  0
 20 46  1  0  0  0  0
 21 47  1  0  0  0  0
 21 48  1  0  0  0  0
 21 49  1  0  0  0  0
M  END
> <s_m_source_file>
AV-unprocessed.smi

> <i_m_source_file_index>
671

> <i_lp_mmshare_version>
43012

> <i_f3d_flags>
0

> <s_epik_input>
W0NIM11jMW5uKFtDSDNdKWMoW0NIM10pYzFbQ0gyXVtDQEhdKFtDSDNdKVtOSF1DKD1PKVtOSF1bQ0BASF0yW0NIMl1bQ0gyXVtDSDJdW0NASF0yW0NIM10=

> <s_epik_cmdline>
J2VwaWtfcHl0aG9uJywgJy1waCcsICc3LjAnLCAnLXRuJywgJzgnLCAnLW1hJywgJzIwMCcsICctbWV0YWxfYmluZGluZycsICctaW1hZScsICc8aW5maWxlLm1hZT4nLCAnLW9tYWUnLCAnPG91dGZpbGUubWFlPic=

> <r_lp_tautomer_probability>
1

> <r_epik_Ionization_Penalty>
0.0126855

> <r_epik_Ionization_Penalty_Charging>
0

> <r_epik_Ionization_Penalty_Neutral>
0.0126855

> <r_epik_State_Penalty>
0.00977547

> <r_epik_Charging_Adjusted_Penalty>
0.00977547

> <i_epik_Tot_Q>
0

> <i_epik_Tot_abs_Q>
0

> <r_epik_Metal_State_Penalty>
0.00957132

> <b_epik_Metal_Only>
0

> <s_lp_Force_Field>
OPLS_2005

> <r_lp_Energy>
21.9144

> <b_lp_Chiralities_Consistent>
1

> <s_lp_Variant>
AV-unprocessed.smi:671-1

> <Gold.Version>
5.8.1

> <Gold.Id.Protein>
6NUR|6NUR_protein|mol2

> <Gold.PLP.Fitness>
35.8480

> <Gold.PLP.PLP>
-34.7576

> <Gold.PLP.part.hbond>
-2.0679

> <Gold.PLP.part.metal>
0.0000

> <Gold.PLP.part.buried>
-3.3279

> <Gold.PLP.part.nonpolar>
-29.5365

> <Gold.PLP.part.repulsive>
0.2063

> <Gold.PLP.ligand.clash>
0.0143

> <Gold.PLP.ligand.torsion>
1.0941

> <Gold.PLP.Chemscore.Hbond>
1.0904

> <Gold.PLP.Chemscore.CHOScore>
0.0000

> <Gold.PLP.Chemscore.Metal>
0.0000

> <Gold.Chemscore.Hbonds>
donor molecule, donor type, donor heavy atom, donor atom, acceptor molecule, acceptor atom, score
      L1  H    12    37       P1  7948  0.17
      L1  H    15    38       P1  7948  1.00

> <Gold.PLP.Chemscore.Internal.Correction>
0.0216

> <Gold.Rescore>
     Score         DG    S(hbond)    S(metal)    S(lipo)     H(rot)  DE(clash)    DE(int)     intcor
     12.75     -15.31       0.99        0.00      87.58       1.45       0.03       2.53       ----

> <Gold.Chemscore.Fitness>
12.7455

> <Gold.Chemscore.DG>
-15.3113

> <Gold.Chemscore.ZeroCoef>
-5.4800

> <Gold.Chemscore.Hbond>
0.9869

> <Gold.Chemscore.Metal>
0.0000

> <Gold.Chemscore.Lipo>
87.5814

> <Gold.Chemscore.Internal_Hbond>
0.0000

> <Gold.Chemscore.DEClash>
0.0346

> <Gold.Chemscore.DEInternal>
2.5312

> <Gold.Chemscore.Rot>
1.4499

> <Gold.Chemscore.Internal.Correction>
   9.000000E+99

> <Gold.Chemscore.Hbonds>
donor molecule, donor type, donor heavy atom, donor atom, acceptor molecule, acceptor atom, score
      L1  H    15    38       P1  7948  0.65

> <Gold.Chemscore.Hbond.Weighted>
-3.2961

> <Gold.Chemscore.Metal.Weighted>
-0.0000

> <Gold.Chemscore.Lipo.Weighted>
-10.2470

> <Gold.Chemscore.Internal_Hbond.Weighted>
0.0000

> <Gold.Chemscore.DEClash.Weighted>
0.0346

> <Gold.Chemscore.DEInternal.Weighted>
2.5312

> <Gold.Chemscore.Rot.Weighted>
3.7118

> <Gold.Chemscore.Internal.Correction.Weighted>
   9.000000E+99

> <Gold.Protein.RotatedTorsions>
[ 6907 6896 6895 6894 ] final -159.54 input  -60.11 | X-H torsion
[ 7974 7965 7964 7962 ] final  142.82 input  175.53 | X-H torsion
[ 8008 7997 7996 7995 ] final  156.41 input   59.86 | X-H torsion
[ 10167 10162 10161 10158 ] final  -30.97 input  -65.29 | X-H torsion
[ 10718 10713 10712 10709 ] final   57.65 input   66.30 | X-H torsion
[ 10763 10752 10751 10750 ] final -178.29 input  -60.55 | X-H torsion
[ 11005 11000 10999 10996 ] final -149.90 input  -57.11 | X-H torsion

> <Gold.Protein.ActiveResidues>
 VAL166  LYS551  ARG553  GLY616  TRP617  ASP618  TYR619  PRO620  LYS621  CYS622 
 ASP623  PHE694  ASN695  SER759  ASP760  ASP761  ALA762  ILE779  LEU786  VAL792 
 PHE793  MET794  SER795  GLU796  ALA797  LYS798  CYS799  TRP800  GLU811  SER814 

> <Gold.Protein.RotatedAtoms>
  151.3352  133.3984  159.2665 H   0  0  0  0  0  0  0  0  0  0  0  0  # atno 6907 bound_to 6896
  150.9923  134.9256  159.7917 H   0  0  0  0  0  0  0  0  0  0  0  0  # atno 6908 bound_to 6896
  152.5251  134.3316  159.9237 H   0  0  0  0  0  0  0  0  0  0  0  0  # atno 6909 bound_to 6896
  144.8974  139.5471  143.5770 H   0  0  0  0  0  0  0  0  0  0  0  0  # atno 7974 bound_to 7965
  156.2424  140.1913  156.6951 H   0  0  0  0  0  0  0  0  0  0  0  0  # atno 8008 bound_to 7997
  154.6223  140.0607  156.9657 H   0  0  0  0  0  0  0  0  0  0  0  0  # atno 8009 bound_to 7997
  155.1842  140.3279  155.4372 H   0  0  0  0  0  0  0  0  0  0  0  0  # atno 8010 bound_to 7997
  140.7242  143.3807  151.1606 H   0  0  0  0  0  0  0  0  0  0  0  0  # atno 10167 bound_to 10162
  157.5532  130.8780  149.8995 H   0  0  0  0  0  0  0  0  0  0  0  0  # atno 10718 bound_to 10713
  154.5496  135.2812  155.1021 H   0  0  0  0  0  0  0  0  0  0  0  0  # atno 10763 bound_to 10752
  154.2472  135.6346  153.5231 H   0  0  0  0  0  0  0  0  0  0  0  0  # atno 10764 bound_to 10752
  152.9999  135.5574  154.6058 H   0  0  0  0  0  0  0  0  0  0  0  0  # atno 10765 bound_to 10752
  140.7459  134.3462  157.5137 H   0  0  0  0  0  0  0  0  0  0  0  0  # atno 11005 bound_to 11000
  146.3089  139.7676  142.9035 LP  0  0  0  0  0  0  0  0  0  0  0  0  # atno 17320 bound_to 7965
  145.3676  141.0337  143.3249 LP  0  0  0  0  0  0  0  0  0  0  0  0  # atno 17321 bound_to 7965
  139.7396  143.8945  152.3045 LP  0  0  0  0  0  0  0  0  0  0  0  0  # atno 17342 bound_to 10162
  139.8762  144.7042  150.8930 LP  0  0  0  0  0  0  0  0  0  0  0  0  # atno 17343 bound_to 10162
  156.0595  130.3702  150.1015 LP  0  0  0  0  0  0  0  0  0  0  0  0  # atno 17370 bound_to 10713
  156.9186  130.9675  151.3552 LP  0  0  0  0  0  0  0  0  0  0  0  0  # atno 17371 bound_to 10713
  139.8797  134.9111  156.3028 LP  0  0  0  0  0  0  0  0  0  0  0  0  # atno 17394 bound_to 11000
  140.9795  133.7276  156.0651 LP  0  0  0  0  0  0  0  0  0  0  0  0  # atno 17395 bound_to 11000

$$$$
