AV-unprocessed.smi:1419|AV-procd|sdf|5777|dock8
  -GOLD-   22720 5423D 1   1.00000     0.00000
 Structure written by MMmdl.
 42 43  0  0  0  0  0  0  0  0  2 V2000
  145.8075  135.3905  152.8376 C   0  0  0  0  0  0  0  0  0  0  0  0
  146.4174  133.9858  152.7051 C   0  0  1  0  0  0  0  0  0  0  0  0
  146.6729  133.5750  151.2385 C   0  0  0  0  0  0  0  0  0  0  0  0
  145.4436  133.2242  150.5224 N   0  0  0  0  0  0  0  0  0  0  0  0
  145.1927  132.0867  149.7983 C   0  0  0  0  0  0  0  0  0  0  0  0
  143.9131  132.2032  149.3196 C   0  0  0  0  0  0  0  0  0  0  0  0
  143.4369  133.4042  149.7734 N   0  3  0  0  0  0  0  0  0  0  0  0
  144.3685  134.0224  150.5066 C   0  0  0  0  0  0  0  0  0  0  0  0
  147.6611  133.9295  153.4670 N   0  0  0  0  0  0  0  0  0  0  0  0
  148.0088  132.9532  154.3233 C   0  0  0  0  0  0  0  0  0  0  0  0
  147.2697  131.9966  154.5598 O   0  0  0  0  0  0  0  0  0  0  0  0
  149.2244  133.1149  154.9018 N   0  0  0  0  0  0  0  0  0  0  0  0
  149.9489  132.1339  155.7215 C   0  0  0  0  0  0  0  0  0  0  0  0
  149.9449  132.6061  157.1904 C   0  0  2  0  0  0  0  0  0  0  0  0
  148.5682  132.5137  157.8732 C   0  0  0  0  0  0  0  0  0  0  0  0
  150.4819  133.9304  157.2729 O   0  0  0  0  0  0  0  0  0  0  0  0
  149.8691  134.9045  156.4234 C   0  0  1  0  0  0  0  0  0  0  0  0
  150.6205  136.2278  156.6029 C   0  0  0  0  0  0  0  0  0  0  0  0
  149.9030  134.4106  154.9638 C   0  0  0  0  0  0  0  0  0  0  0  0
  144.8301  135.4490  152.3586 H   0  0  0  0  0  0  0  0  0  0  0  0
  146.4484  136.1457  152.3815 H   0  0  0  0  0  0  0  0  0  0  0  0
  145.6698  135.6605  153.8854 H   0  0  0  0  0  0  0  0  0  0  0  0
  145.7118  133.2811  153.1496 H   0  0  0  0  0  0  0  0  0  0  0  0
  147.1601  134.3842  150.6925 H   0  0  0  0  0  0  0  0  0  0  0  0
  147.3399  132.7131  151.1844 H   0  0  0  0  0  0  0  0  0  0  0  0
  145.9249  131.3011  149.6790 H   0  0  0  0  0  0  0  0  0  0  0  0
  143.3209  131.5388  148.7070 H   0  0  0  0  0  0  0  0  0  0  0  0
  144.2723  134.9786  150.9899 H   0  0  0  0  0  0  0  0  0  0  0  0
  148.3139  134.6878  153.3301 H   0  0  0  0  0  0  0  0  0  0  0  0
  149.5580  131.1186  155.6546 H   0  0  0  0  0  0  0  0  0  0  0  0
  150.9768  132.0684  155.3615 H   0  0  0  0  0  0  0  0  0  0  0  0
  150.6244  131.9635  157.7509 H   0  0  0  0  0  0  0  0  0  0  0  0
  148.2069  131.4852  157.8761 H   0  0  0  0  0  0  0  0  0  0  0  0
  147.8135  133.1216  157.3753 H   0  0  0  0  0  0  0  0  0  0  0  0
  148.6284  132.8447  158.9102 H   0  0  0  0  0  0  0  0  0  0  0  0
  148.8348  135.0575  156.7331 H   0  0  0  0  0  0  0  0  0  0  0  0
  150.1859  137.0136  155.9846 H   0  0  0  0  0  0  0  0  0  0  0  0
  151.6705  136.1265  156.3266 H   0  0  0  0  0  0  0  0  0  0  0  0
  150.5797  136.5609  157.6401 H   0  0  0  0  0  0  0  0  0  0  0  0
  150.9335  134.2983  154.6233 H   0  0  0  0  0  0  0  0  0  0  0  0
  149.4504  135.1536  154.3056 H   0  0  0  0  0  0  0  0  0  0  0  0
  142.5134  133.7734  149.5842 H   0  0  0  0  0  0  0  0  0  0  0  0
  1  2  1  0  0  0  0
  1 20  1  0  0  0  0
  1 21  1  0  0  0  0
  1 22  1  0  0  0  0
  2  3  1  0  0  0  0
  2  9  1  0  0  0  0
  2 23  1  0  0  0  0
  3  4  1  0  0  0  0
  3 24  1  0  0  0  0
  3 25  1  0  0  0  0
  4  8  1  0  0  0  0
  4  5  1  0  0  0  0
  5  6  2  0  0  0  0
  5 26  1  0  0  0  0
  6  7  1  0  0  0  0
  6 27  1  0  0  0  0
  7  8  2  0  0  0  0
  7 42  1  0  0  0  0
  8 28  1  0  0  0  0
  9 10  1  0  0  0  0
  9 29  1  0  0  0  0
 10 11  2  0  0  0  0
 10 12  1  0  0  0  0
 12 19  1  0  0  0  0
 12 13  1  0  0  0  0
 13 14  1  0  0  0  0
 13 30  1  0  0  0  0
 13 31  1  0  0  0  0
 14 15  1  0  0  0  0
 14 16  1  0  0  0  0
 14 32  1  0  0  0  0
 15 33  1  0  0  0  0
 15 34  1  0  0  0  0
 15 35  1  0  0  0  0
 16 17  1  0  0  0  0
 17 18  1  0  0  0  0
 17 19  1  0  0  0  0
 17 36  1  0  0  0  0
 18 37  1  0  0  0  0
 18 38  1  0  0  0  0
 18 39  1  0  0  0  0
 19 40  1  0  0  0  0
 19 41  1  0  0  0  0
M  CHG  1   7   1
M  END
> <s_m_source_file>
AV-unprocessed.smi

> <i_m_source_file_index>
1419

> <i_lp_mmshare_version>
43012

> <i_f3d_flags>
0

> <s_epik_input>
W2NIXTFuW2NIXVtjSF1uMVtDSDJdW0NAQEhdKFtDSDNdKVtOSF1DKD1PKU4yW0NIMl1bQ0BASF0oW0NIM10pT1tDQEBIXShbQ0gzXSlbQ0gyXTI=

> <s_epik_cmdline>
J2VwaWtfcHl0aG9uJywgJy1waCcsICc3LjAnLCAnLXRuJywgJzgnLCAnLW1hJywgJzIwMCcsICctbWV0YWxfYmluZGluZycsICctaW1hZScsICc8aW5maWxlLm1hZT4nLCAnLW9tYWUnLCAnPG91dGZpbGUubWFlPic=

> <r_lp_tautomer_probability>
1

> <r_epik_Ionization_Penalty>
0.253607

> <r_epik_Ionization_Penalty_Charging>
0

> <r_epik_Ionization_Penalty_Neutral>
0.253607

> <r_epik_State_Penalty>
0.245018

> <r_epik_Charging_Adjusted_Penalty>
0.245018

> <i_epik_Tot_Q>
1

> <i_epik_Tot_abs_Q>
1

> <r_epik_Metal_State_Penalty>
0.535379

> <b_epik_Metal_Only>
0

> <s_lp_Force_Field>
OPLS_2005

> <r_lp_Energy>
32.5002

> <b_lp_Chiralities_Consistent>
1

> <s_lp_Variant>
AV-unprocessed.smi:1419-4

> <Gold.Version>
5.8.1

> <Gold.Id.Protein>
6NUR|6NUR_protein|mol2

> <Gold.PLP.Fitness>
40.1730

> <Gold.PLP.PLP>
-31.9063

> <Gold.PLP.part.hbond>
-3.0000

> <Gold.PLP.part.metal>
0.0000

> <Gold.PLP.part.buried>
-3.8619

> <Gold.PLP.part.nonpolar>
-25.3522

> <Gold.PLP.part.repulsive>
0.1255

> <Gold.PLP.ligand.clash>
0.4259

> <Gold.PLP.ligand.torsion>
0.4913

> <Gold.PLP.Chemscore.Hbond>
3.2095

> <Gold.PLP.Chemscore.CHOScore>
0.0000

> <Gold.PLP.Chemscore.Metal>
0.0000

> <Gold.Chemscore.Hbonds>
donor molecule, donor type, donor heavy atom, donor atom, acceptor molecule, acceptor atom, score
      L1  H     7    42       P1 10186  2.00
      L1  H     9    29       P1  7948  0.51
      P1  H  6896  6907       L1    16  0.41

> <Gold.PLP.Chemscore.Internal.Correction>
0.0466

> <Gold.Rescore>
     Score         DG    S(hbond)    S(metal)    S(lipo)     H(rot)  DE(clash)    DE(int)     intcor
     14.38     -15.06       2.02        0.00      59.89       1.63       0.07       0.62       ----

> <Gold.Chemscore.Fitness>
14.3765

> <Gold.Chemscore.DG>
-15.0608

> <Gold.Chemscore.ZeroCoef>
-5.4800

> <Gold.Chemscore.Hbond>
2.0176

> <Gold.Chemscore.Metal>
0.0000

> <Gold.Chemscore.Lipo>
59.8946

> <Gold.Chemscore.Internal_Hbond>
0.0000

> <Gold.Chemscore.DEClash>
0.0680

> <Gold.Chemscore.DEInternal>
0.6163

> <Gold.Chemscore.Rot>
1.6273

> <Gold.Chemscore.Internal.Correction>
   9.000000E+99

> <Gold.Chemscore.Hbonds>
donor molecule, donor type, donor heavy atom, donor atom, acceptor molecule, acceptor atom, score
      L1  H     7    42       P1 10186  1.00
      L1  H     9    29       P1  7948  0.38
      P1  H  6896  6907       L1    16  0.02

> <Gold.Chemscore.Hbond.Weighted>
-6.7389

> <Gold.Chemscore.Metal.Weighted>
-0.0000

> <Gold.Chemscore.Lipo.Weighted>
-7.0077

> <Gold.Chemscore.Internal_Hbond.Weighted>
0.0000

> <Gold.Chemscore.DEClash.Weighted>
0.0680

> <Gold.Chemscore.DEInternal.Weighted>
0.6163

> <Gold.Chemscore.Rot.Weighted>
4.1658

> <Gold.Chemscore.Internal.Correction.Weighted>
   9.000000E+99

> <Gold.Protein.RotatedTorsions>
[ 6907 6896 6895 6894 ] final -130.42 input  -60.11 | X-H torsion
[ 7974 7965 7964 7962 ] final -132.15 input  175.53 | X-H torsion
[ 8008 7997 7996 7995 ] final  101.38 input   59.86 | X-H torsion
[ 10167 10162 10161 10158 ] final  -26.30 input  -65.29 | X-H torsion
[ 10718 10713 10712 10709 ] final  -47.06 input   66.30 | X-H torsion
[ 10763 10752 10751 10750 ] final  -84.33 input  -60.55 | X-H torsion
[ 11005 11000 10999 10996 ] final -113.39 input  -57.11 | X-H torsion

> <Gold.Protein.ActiveResidues>
 VAL166  LYS551  ARG553  GLY616  TRP617  ASP618  TYR619  PRO620  LYS621  CYS622 
 ASP623  PHE694  ASN695  SER759  ASP760  ASP761  ALA762  ILE779  LEU786  VAL792 
 PHE793  MET794  SER795  GLU796  ALA797  LYS798  CYS799  TRP800  GLU811  SER814 

> <Gold.Protein.RotatedAtoms>
  150.9396  133.6672  159.2793 H   0  0  0  0  0  0  0  0  0  0  0  0  # atno 6907 bound_to 6896
  151.4066  135.0977  159.9582 H   0  0  0  0  0  0  0  0  0  0  0  0  # atno 6908 bound_to 6896
  152.5063  133.8878  159.7433 H   0  0  0  0  0  0  0  0  0  0  0  0  # atno 6909 bound_to 6896
  144.9312  140.7131  143.4904 H   0  0  0  0  0  0  0  0  0  0  0  0  # atno 7974 bound_to 7965
  156.1294  140.3198  155.8326 H   0  0  0  0  0  0  0  0  0  0  0  0  # atno 8008 bound_to 7997
  155.4360  140.0522  157.3031 H   0  0  0  0  0  0  0  0  0  0  0  0  # atno 8009 bound_to 7997
  154.4887  140.2083  155.9609 H   0  0  0  0  0  0  0  0  0  0  0  0  # atno 8010 bound_to 7997
  140.7283  143.4190  151.0982 H   0  0  0  0  0  0  0  0  0  0  0  0  # atno 10167 bound_to 10162
  156.2122  130.4161  149.9100 H   0  0  0  0  0  0  0  0  0  0  0  0  # atno 10718 bound_to 10713
  154.5982  135.5524  153.7347 H   0  0  0  0  0  0  0  0  0  0  0  0  # atno 10763 bound_to 10752
  153.0144  135.6360  154.1752 H   0  0  0  0  0  0  0  0  0  0  0  0  # atno 10764 bound_to 10752
  154.1692  135.2893  155.3066 H   0  0  0  0  0  0  0  0  0  0  0  0  # atno 10765 bound_to 10752
  141.0617  133.9524  157.2654 H   0  0  0  0  0  0  0  0  0  0  0  0  # atno 11005 bound_to 11000
  145.3138  139.1810  143.4624 LP  0  0  0  0  0  0  0  0  0  0  0  0  # atno 17320 bound_to 7965
  146.3248  140.3146  142.8629 LP  0  0  0  0  0  0  0  0  0  0  0  0  # atno 17321 bound_to 7965
  139.7833  143.8324  152.3141 LP  0  0  0  0  0  0  0  0  0  0  0  0  # atno 17342 bound_to 10162
  139.8282  144.7265  150.9484 LP  0  0  0  0  0  0  0  0  0  0  0  0  # atno 17343 bound_to 10162
  156.6775  130.8845  151.3571 LP  0  0  0  0  0  0  0  0  0  0  0  0  # atno 17370 bound_to 10713
  157.7044  130.9369  150.0885 LP  0  0  0  0  0  0  0  0  0  0  0  0  # atno 17371 bound_to 10713
  139.9439  135.0187  156.8793 LP  0  0  0  0  0  0  0  0  0  0  0  0  # atno 17394 bound_to 11000
  140.5854  134.0312  155.7480 LP  0  0  0  0  0  0  0  0  0  0  0  0  # atno 17395 bound_to 11000

$$$$
