AV-unprocessed.smi:25|AV-procd|sdf|182|dock8
  -GOLD-   2262015443D 1   1.00000     0.00000
 Structure written by MMmdl.
 47 50  0  0  0  0  0  0  0  0  1 V2000
  154.6150  139.7400  159.5021 C   0  0  0  0  0  0  0  0  0  0  0  0
  153.2794  140.3098  160.0226 C   0  0  1  0  0  0  0  0  0  0  0  0
  153.4904  141.6654  160.7328 C   0  0  0  0  0  0  0  0  0  0  0  0
  152.6948  142.6183  159.8966 C   0  0  0  0  0  0  0  0  0  0  0  0
  152.6054  144.0071  160.0925 C   0  0  0  0  0  0  0  0  0  0  0  0
  151.8081  144.7578  159.2064 C   0  0  0  0  0  0  0  0  0  0  0  0
  151.1226  144.1146  158.1531 C   0  0  0  0  0  0  0  0  0  0  0  0
  151.2245  142.7179  157.9711 C   0  0  0  0  0  0  0  0  0  0  0  0
  152.0278  141.9639  158.8616 C   0  0  0  0  0  0  0  0  0  0  0  0
  152.3157  140.5657  158.9260 N   0  0  0  0  0  0  0  0  0  0  0  0
  151.7501  139.5282  158.2490 C   0  0  0  0  0  0  0  0  0  0  0  0
  151.0375  139.7292  157.2624 O   0  0  0  0  0  0  0  0  0  0  0  0
  151.9960  138.0669  158.6700 C   0  0  0  0  0  0  0  0  0  0  0  0
  150.9788  137.1207  158.1544 N   0  0  0  0  0  0  0  0  0  0  0  0
  149.7394  137.0118  158.8324 C   0  0  0  0  0  0  0  0  0  0  0  0
  149.5024  137.6722  159.8449 O   0  0  0  0  0  0  0  0  0  0  0  0
  148.7833  136.0798  158.2470 C   0  0  0  0  0  0  0  0  0  0  0  0
  147.5564  135.9611  158.7823 F   0  0  0  0  0  0  0  0  0  0  0  0
  149.1038  135.3453  157.1623 C   0  0  0  0  0  0  0  0  0  0  0  0
  150.3456  135.4016  156.5542 N   0  0  0  0  0  0  0  0  0  0  0  0
  150.6502  134.6233  155.2904 C   0  0  1  0  0  0  0  0  0  0  0  0
  150.6365  133.0952  155.4718 C   0  0  0  0  0  0  0  0  0  0  0  0
  149.3303  132.7029  154.8096 C   0  0  0  0  0  0  0  0  0  0  0  0
  149.2039  133.7666  153.7260 C   0  0  0  0  0  0  0  0  0  0  0  0
  149.6741  134.9549  154.3485 O   0  0  0  0  0  0  0  0  0  0  0  0
  151.2944  136.3434  157.0128 C   0  0  0  0  0  0  0  0  0  0  0  0
  152.3777  136.4789  156.4393 O   0  0  0  0  0  0  0  0  0  0  0  0
  155.3262  139.6123  160.3184 H   0  0  0  0  0  0  0  0  0  0  0  0
  155.0682  140.4080  158.7688 H   0  0  0  0  0  0  0  0  0  0  0  0
  154.4906  138.7659  159.0297 H   0  0  0  0  0  0  0  0  0  0  0  0
  152.8431  139.6081  160.7360 H   0  0  0  0  0  0  0  0  0  0  0  0
  153.1002  141.6499  161.7511 H   0  0  0  0  0  0  0  0  0  0  0  0
  154.5370  141.9706  160.7671 H   0  0  0  0  0  0  0  0  0  0  0  0
  153.1353  144.4876  160.9018 H   0  0  0  0  0  0  0  0  0  0  0  0
  151.7217  145.8269  159.3327 H   0  0  0  0  0  0  0  0  0  0  0  0
  150.5142  144.6981  157.4778 H   0  0  0  0  0  0  0  0  0  0  0  0
  150.6797  142.2926  157.1484 H   0  0  0  0  0  0  0  0  0  0  0  0
  152.9936  137.7750  158.3416 H   0  0  0  0  0  0  0  0  0  0  0  0
  152.0096  138.0133  159.7588 H   0  0  0  0  0  0  0  0  0  0  0  0
  148.3406  134.6958  156.7647 H   0  0  0  0  0  0  0  0  0  0  0  0
  151.6366  134.9523  154.9599 H   0  0  0  0  0  0  0  0  0  0  0  0
  151.4740  132.6802  154.9093 H   0  0  0  0  0  0  0  0  0  0  0  0
  150.7421  132.7781  156.5092 H   0  0  0  0  0  0  0  0  0  0  0  0
  149.3414  131.6884  154.4110 H   0  0  0  0  0  0  0  0  0  0  0  0
  148.5006  132.7839  155.5122 H   0  0  0  0  0  0  0  0  0  0  0  0
  149.8470  133.5289  152.8771 H   0  0  0  0  0  0  0  0  0  0  0  0
  148.1829  133.8809  153.3622 H   0  0  0  0  0  0  0  0  0  0  0  0
  1  2  1  0  0  0  0
  1 28  1  0  0  0  0
  1 29  1  0  0  0  0
  1 30  1  0  0  0  0
  2 10  1  0  0  0  0
  2  3  1  0  0  0  0
  2 31  1  0  0  0  0
  3  4  1  0  0  0  0
  3 32  1  0  0  0  0
  3 33  1  0  0  0  0
  4  9  2  0  0  0  0
  4  5  1  0  0  0  0
  5  6  2  0  0  0  0
  5 34  1  0  0  0  0
  6  7  1  0  0  0  0
  6 35  1  0  0  0  0
  7  8  2  0  0  0  0
  7 36  1  0  0  0  0
  8  9  1  0  0  0  0
  8 37  1  0  0  0  0
  9 10  1  0  0  0  0
 10 11  1  0  0  0  0
 11 12  2  0  0  0  0
 11 13  1  0  0  0  0
 13 14  1  0  0  0  0
 13 38  1  0  0  0  0
 13 39  1  0  0  0  0
 14 26  1  0  0  0  0
 14 15  1  0  0  0  0
 15 16  2  0  0  0  0
 15 17  1  0  0  0  0
 17 18  1  0  0  0  0
 17 19  2  0  0  0  0
 19 20  1  0  0  0  0
 19 40  1  0  0  0  0
 20 21  1  0  0  0  0
 20 26  1  0  0  0  0
 21 25  1  0  0  0  0
 21 22  1  0  0  0  0
 21 41  1  0  0  0  0
 22 23  1  0  0  0  0
 22 42  1  0  0  0  0
 22 43  1  0  0  0  0
 23 24  1  0  0  0  0
 23 44  1  0  0  0  0
 23 45  1  0  0  0  0
 24 25  1  0  0  0  0
 24 46  1  0  0  0  0
 24 47  1  0  0  0  0
 26 27  2  0  0  0  0
M  END
> <s_m_source_file>
AV-unprocessed.smi

> <i_m_source_file_index>
25

> <i_lp_mmshare_version>
43012

> <i_f3d_flags>
0

> <s_epik_input>
W2NIXTFbY0hdW2NIXVtjSF1jKGMxMilOKFtDQEhdKFtDSDNdKVtDSDJdMilDKD1PKVtDSDJdbjNjKD1PKWMoRilbY0hdbihjMz1PKVtDQEBIXTRbQ0gyXVtDSDJdW0NIMl1PNA==

> <s_epik_cmdline>
J2VwaWtfcHl0aG9uJywgJy1waCcsICc3LjAnLCAnLXRuJywgJzgnLCAnLW1hJywgJzIwMCcsICctbWV0YWxfYmluZGluZycsICctaW1hZScsICc8aW5maWxlLm1hZT4nLCAnLW9tYWUnLCAnPG91dGZpbGUubWFlPic=

> <r_lp_tautomer_probability>
1

> <r_epik_Ionization_Penalty>
1.67943e-06

> <r_epik_Ionization_Penalty_Charging>
3.79603e-09

> <r_epik_Ionization_Penalty_Neutral>
1.67563e-06

> <r_epik_State_Penalty>
-0

> <r_epik_Charging_Adjusted_Penalty>
3.79603e-09

> <i_epik_Tot_Q>
0

> <i_epik_Tot_abs_Q>
0

> <r_epik_Metal_State_Penalty>
-0

> <b_epik_Metal_Only>
0

> <s_epik_Chemistry_Notes>
This compound contains an acetal/aminal-like group ( X-CH(R)-Y where X, Y are N, S, or O) that may be acid/base labile, releasing an aldehyde.

> <s_lp_Force_Field>
OPLS_2005

> <r_lp_Energy>
55.1146

> <b_lp_Chiralities_Consistent>
1

> <s_lp_Variant>
AV-unprocessed.smi:25-4

> <Gold.Version>
5.8.1

> <Gold.Id.Protein>
6NUR|6NUR_protein|mol2

> <Gold.PLP.Fitness>
51.3675

> <Gold.PLP.PLP>
-49.3724

> <Gold.PLP.part.hbond>
-2.5203

> <Gold.PLP.part.metal>
0.0000

> <Gold.PLP.part.buried>
-4.7886

> <Gold.PLP.part.nonpolar>
-42.0085

> <Gold.PLP.part.repulsive>
0.9793

> <Gold.PLP.ligand.clash>
0.0000

> <Gold.PLP.ligand.torsion>
0.6625

> <Gold.PLP.Chemscore.Hbond>
1.0481

> <Gold.PLP.Chemscore.CHOScore>
0.0000

> <Gold.PLP.Chemscore.Metal>
0.0000

> <Gold.Chemscore.Hbonds>
donor molecule, donor type, donor heavy atom, donor atom, acceptor molecule, acceptor atom, score
      P1  H  6931  6943       L1    16  0.09
      P1  H 10752 10765       L1    27  1.00

> <Gold.PLP.Chemscore.Internal.Correction>
0.1758

> <Gold.Rescore>
     Score         DG    S(hbond)    S(metal)    S(lipo)     H(rot)  DE(clash)    DE(int)     intcor
     17.71     -19.15       0.99        0.00     122.38       1.55       0.17       1.28       ----

> <Gold.Chemscore.Fitness>
17.7127

> <Gold.Chemscore.DG>
-19.1539

> <Gold.Chemscore.ZeroCoef>
-5.4800

> <Gold.Chemscore.Hbond>
0.9943

> <Gold.Chemscore.Metal>
0.0000

> <Gold.Chemscore.Lipo>
122.3767

> <Gold.Chemscore.Internal_Hbond>
0.0000

> <Gold.Chemscore.DEClash>
0.1653

> <Gold.Chemscore.DEInternal>
1.2758

> <Gold.Chemscore.Rot>
1.5489

> <Gold.Chemscore.Internal.Correction>
   9.000000E+99

> <Gold.Chemscore.Hbonds>
donor molecule, donor type, donor heavy atom, donor atom, acceptor molecule, acceptor atom, score
      P1  H  6931  6943       L1    16  0.10
      P1  H 10752 10765       L1    27  0.99

> <Gold.Chemscore.Hbond.Weighted>
-3.3209

> <Gold.Chemscore.Metal.Weighted>
-0.0000

> <Gold.Chemscore.Lipo.Weighted>
-14.3181

> <Gold.Chemscore.Internal_Hbond.Weighted>
0.0000

> <Gold.Chemscore.DEClash.Weighted>
0.1653

> <Gold.Chemscore.DEInternal.Weighted>
1.2758

> <Gold.Chemscore.Rot.Weighted>
3.9651

> <Gold.Chemscore.Internal.Correction.Weighted>
   9.000000E+99

> <Gold.Protein.RotatedTorsions>
[ 6907 6896 6895 6894 ] final   88.15 input  -60.11 | X-H torsion
[ 7974 7965 7964 7962 ] final  -99.13 input  175.53 | X-H torsion
[ 8008 7997 7996 7995 ] final  105.17 input   59.86 | X-H torsion
[ 10167 10162 10161 10158 ] final -173.69 input  -65.29 | X-H torsion
[ 10718 10713 10712 10709 ] final  100.77 input   66.30 | X-H torsion
[ 10763 10752 10751 10750 ] final -148.91 input  -60.55 | X-H torsion
[ 11005 11000 10999 10996 ] final   66.22 input  -57.11 | X-H torsion

> <Gold.Protein.ActiveResidues>
 VAL166  LYS551  ARG553  GLY616  TRP617  ASP618  TYR619  PRO620  LYS621  CYS622 
 ASP623  PHE694  ASN695  SER759  ASP760  ASP761  ALA762  ILE779  LEU786  VAL792 
 PHE793  MET794  SER795  GLU796  ALA797  LYS798  CYS799  TRP800  GLU811  SER814 

> <Gold.Protein.RotatedAtoms>
  152.5421  134.2166  159.8770 H   0  0  0  0  0  0  0  0  0  0  0  0  # atno 6907 bound_to 6896
  151.2145  133.4530  159.2606 H   0  0  0  0  0  0  0  0  0  0  0  0  # atno 6908 bound_to 6896
  151.0864  134.9902  159.8437 H   0  0  0  0  0  0  0  0  0  0  0  0  # atno 6909 bound_to 6896
  145.3116  140.9401  143.2766 H   0  0  0  0  0  0  0  0  0  0  0  0  # atno 7974 bound_to 7965
  156.1636  140.3135  155.8849 H   0  0  0  0  0  0  0  0  0  0  0  0  # atno 8008 bound_to 7997
  155.3732  140.0483  157.3062 H   0  0  0  0  0  0  0  0  0  0  0  0  # atno 8009 bound_to 7997
  154.5170  140.2185  155.9057 H   0  0  0  0  0  0  0  0  0  0  0  0  # atno 8010 bound_to 7997
  139.5674  144.1722  152.1334 H   0  0  0  0  0  0  0  0  0  0  0  0  # atno 10167 bound_to 10162
  157.6846  131.0707  150.5151 H   0  0  0  0  0  0  0  0  0  0  0  0  # atno 10718 bound_to 10713
  154.8206  135.3322  154.7048 H   0  0  0  0  0  0  0  0  0  0  0  0  # atno 10763 bound_to 10752
  153.7681  135.6927  153.4916 H   0  0  0  0  0  0  0  0  0  0  0  0  # atno 10764 bound_to 10752
  153.2063  135.4498  155.0276 H   0  0  0  0  0  0  0  0  0  0  0  0  # atno 10765 bound_to 10752
  139.9846  134.6689  156.0200 H   0  0  0  0  0  0  0  0  0  0  0  0  # atno 11005 bound_to 11000
  144.9011  139.4648  143.6632 LP  0  0  0  0  0  0  0  0  0  0  0  0  # atno 17320 bound_to 7965
  146.3116  139.7766  142.9016 LP  0  0  0  0  0  0  0  0  0  0  0  0  # atno 17321 bound_to 7965
  140.1248  144.5341  150.6840 LP  0  0  0  0  0  0  0  0  0  0  0  0  # atno 17342 bound_to 10162
  140.6958  143.2403  151.5004 LP  0  0  0  0  0  0  0  0  0  0  0  0  # atno 17343 bound_to 10162
  156.5466  130.4221  149.6128 LP  0  0  0  0  0  0  0  0  0  0  0  0  # atno 17370 bound_to 10713
  156.2938  130.7139  151.1994 LP  0  0  0  0  0  0  0  0  0  0  0  0  # atno 17371 bound_to 10713
  141.1513  133.6548  156.4021 LP  0  0  0  0  0  0  0  0  0  0  0  0  # atno 17394 bound_to 11000
  140.5029  134.6469  157.5255 LP  0  0  0  0  0  0  0  0  0  0  0  0  # atno 17395 bound_to 11000

$$$$
