AV-unprocessed.smi:2365|AV-procd|sdf|9421|dock9
  -GOLD-   2272013 53D 1   1.00000     0.00000
 Structure written by MMmdl.
 29 30  0  0  0  0  0  0  0  0  1 V2000
  150.6595  144.7092  159.3857 C   0  0  0  0  0  0  0  0  0  0  0  0
  151.6423  143.6507  159.8965 C   0  0  2  0  0  0  0  0  0  0  0  0
  153.0252  143.7239  159.2591 C   0  0  0  0  0  0  0  0  0  0  0  0
  153.5677  142.3373  159.5415 C   0  0  0  0  0  0  0  0  0  0  0  0
  152.3087  141.4509  159.5464 C   0  0  2  0  0  0  0  0  0  0  0  0
  152.1817  140.5400  158.3194 C   0  0  0  0  0  0  0  0  0  0  0  0
  153.0684  139.7241  158.0672 O   0  0  0  0  0  0  0  0  0  0  0  0
  151.0648  140.7028  157.5875 N   0  0  0  0  0  0  0  0  0  0  0  0
  150.6696  140.0101  156.4091 C   0  0  0  0  0  0  0  0  0  0  0  0
  151.5121  139.1026  155.7201 C   0  0  0  0  0  0  0  0  0  0  0  0
  151.1490  138.4590  154.5904 N   0  0  0  0  0  0  0  0  0  0  0  0
  149.9199  138.7013  154.0905 C   0  0  0  0  0  0  0  0  0  0  0  0
  149.0062  139.5953  154.6815 C   0  0  0  0  0  0  0  0  0  0  0  0
  147.4566  139.8487  153.9601 Cl  0  0  0  0  0  0  0  0  0  0  0  0
  149.3909  140.2677  155.8620 C   0  0  0  0  0  0  0  0  0  0  0  0
  148.3095  141.3829  156.6270 Cl  0  0  0  0  0  0  0  0  0  0  0  0
  151.1989  142.3477  159.5475 O   0  0  0  0  0  0  0  0  0  0  0  0
  151.0081  145.7144  159.6236 H   0  0  0  0  0  0  0  0  0  0  0  0
  149.6779  144.5796  159.8421 H   0  0  0  0  0  0  0  0  0  0  0  0
  150.5351  144.6436  158.3044 H   0  0  0  0  0  0  0  0  0  0  0  0
  151.7305  143.7100  160.9829 H   0  0  0  0  0  0  0  0  0  0  0  0
  152.9419  143.8787  158.1823 H   0  0  0  0  0  0  0  0  0  0  0  0
  153.6463  144.5183  159.6735 H   0  0  0  0  0  0  0  0  0  0  0  0
  154.3243  142.0364  158.8154 H   0  0  0  0  0  0  0  0  0  0  0  0
  154.0359  142.3144  160.5263 H   0  0  0  0  0  0  0  0  0  0  0  0
  152.2852  140.8554  160.4607 H   0  0  0  0  0  0  0  0  0  0  0  0
  150.3836  141.3481  157.9610 H   0  0  0  0  0  0  0  0  0  0  0  0
  152.5157  138.8904  156.0551 H   0  0  0  0  0  0  0  0  0  0  0  0
  149.6597  138.1698  153.1869 H   0  0  0  0  0  0  0  0  0  0  0  0
  1  2  1  0  0  0  0
  1 18  1  0  0  0  0
  1 19  1  0  0  0  0
  1 20  1  0  0  0  0
  2 17  1  0  0  0  0
  2  3  1  0  0  0  0
  2 21  1  0  0  0  0
  3  4  1  0  0  0  0
  3 22  1  0  0  0  0
  3 23  1  0  0  0  0
  4  5  1  0  0  0  0
  4 24  1  0  0  0  0
  4 25  1  0  0  0  0
  5  6  1  0  0  0  0
  5 17  1  0  0  0  0
  5 26  1  0  0  0  0
  6  7  2  0  0  0  0
  6  8  1  0  0  0  0
  8  9  1  0  0  0  0
  8 27  1  0  0  0  0
  9 15  1  0  0  0  0
  9 10  2  0  0  0  0
 10 11  1  0  0  0  0
 10 28  1  0  0  0  0
 11 12  2  0  0  0  0
 12 13  1  0  0  0  0
 12 29  1  0  0  0  0
 13 14  1  0  0  0  0
 13 15  2  0  0  0  0
 15 16  1  0  0  0  0
M  END
> <s_m_source_file>
AV-unprocessed.smi

> <i_m_source_file_index>
2365

> <i_lp_mmshare_version>
43012

> <i_f3d_flags>
0

> <s_epik_input>
W0NIM11bQ0BASF0xW0NIMl1bQ0gyXVtDQEhdKE8xKUMoPU8pW05IXWMyW2NIXW5bY0hdYyhDbCljMkNs

> <s_epik_cmdline>
J2VwaWtfcHl0aG9uJywgJy1waCcsICc3LjAnLCAnLXRuJywgJzgnLCAnLW1hJywgJzIwMCcsICctbWV0YWxfYmluZGluZycsICctaW1hZScsICc8aW5maWxlLm1hZT4nLCAnLW9tYWUnLCAnPG91dGZpbGUubWFlPic=

> <r_lp_tautomer_probability>
1

> <r_epik_Ionization_Penalty>
7.32461e-06

> <r_epik_Ionization_Penalty_Charging>
0

> <r_epik_Ionization_Penalty_Neutral>
7.32461e-06

> <r_epik_State_Penalty>
-0

> <r_epik_Charging_Adjusted_Penalty>
0

> <i_epik_Tot_Q>
0

> <i_epik_Tot_abs_Q>
0

> <r_epik_Metal_State_Penalty>
-0

> <b_epik_Metal_Only>
0

> <s_lp_Force_Field>
OPLS_2005

> <r_lp_Energy>
23.8837

> <b_lp_Chiralities_Consistent>
1

> <s_lp_Variant>
AV-unprocessed.smi:2365-3

> <Gold.Version>
5.8.1

> <Gold.Id.Protein>
6NUR|6NUR_protein|mol2

> <Gold.PLP.Fitness>
40.2460

> <Gold.PLP.PLP>
-32.5381

> <Gold.PLP.part.hbond>
-1.5102

> <Gold.PLP.part.metal>
0.0000

> <Gold.PLP.part.buried>
-2.9612

> <Gold.PLP.part.nonpolar>
-28.5205

> <Gold.PLP.part.repulsive>
0.1994

> <Gold.PLP.ligand.clash>
0.0000

> <Gold.PLP.ligand.torsion>
0.0283

> <Gold.PLP.Chemscore.Hbond>
1.0000

> <Gold.PLP.Chemscore.CHOScore>
1.5856

> <Gold.PLP.Chemscore.Metal>
0.0000

> <Gold.Chemscore.Hbonds>
donor molecule, donor type, donor heavy atom, donor atom, acceptor molecule, acceptor atom, score
      P1  H  7997  8008       L1     7  1.00
      L1  C    12    29       P1  7948  1.00
      L1  C    12    29       P1  7957  0.26

> <Gold.PLP.Chemscore.Internal.Correction>
0.0077

> <Gold.Rescore>
     Score         DG    S(hbond)    S(metal)    S(lipo)     H(rot)  DE(clash)    DE(int)     intcor
     15.82     -17.23       0.86        0.00      97.67       1.00       0.04       1.38       ----

> <Gold.Chemscore.Fitness>
15.8170

> <Gold.Chemscore.DG>
-17.2319

> <Gold.Chemscore.ZeroCoef>
-5.4800

> <Gold.Chemscore.Hbond>
0.8636

> <Gold.Chemscore.Metal>
0.0000

> <Gold.Chemscore.Lipo>
97.6723

> <Gold.Chemscore.Internal_Hbond>
0.0000

> <Gold.Chemscore.DEClash>
0.0371

> <Gold.Chemscore.DEInternal>
1.3779

> <Gold.Chemscore.Rot>
1.0000

> <Gold.Chemscore.Internal.Correction>
   9.000000E+99

> <Gold.Chemscore.Hbonds>
donor molecule, donor type, donor heavy atom, donor atom, acceptor molecule, acceptor atom, score
      P1  H  7997  8008       L1     7  0.97

> <Gold.Chemscore.Hbond.Weighted>
-2.8843

> <Gold.Chemscore.Metal.Weighted>
-0.0000

> <Gold.Chemscore.Lipo.Weighted>
-11.4277

> <Gold.Chemscore.Internal_Hbond.Weighted>
0.0000

> <Gold.Chemscore.DEClash.Weighted>
0.0371

> <Gold.Chemscore.DEInternal.Weighted>
1.3779

> <Gold.Chemscore.Rot.Weighted>
2.5600

> <Gold.Chemscore.Internal.Correction.Weighted>
   9.000000E+99

> <Gold.Protein.RotatedTorsions>
[ 6907 6896 6895 6894 ] final  -90.19 input  -60.11 | X-H torsion
[ 7974 7965 7964 7962 ] final  -22.95 input  175.53 | X-H torsion
[ 8008 7997 7996 7995 ] final  -95.06 input   59.86 | X-H torsion
[ 10167 10162 10161 10158 ] final  -40.25 input  -65.29 | X-H torsion
[ 10718 10713 10712 10709 ] final -166.58 input   66.30 | X-H torsion
[ 10763 10752 10751 10750 ] final   50.47 input  -60.55 | X-H torsion
[ 11005 11000 10999 10996 ] final   74.13 input  -57.11 | X-H torsion

> <Gold.Protein.ActiveResidues>
 VAL166  LYS551  ARG553  GLY616  TRP617  ASP618  TYR619  PRO620  LYS621  CYS622 
 ASP623  PHE694  ASN695  SER759  ASP760  ASP761  ALA762  ILE779  LEU786  VAL792 
 PHE793  MET794  SER795  GLU796  ALA797  LYS798  CYS799  TRP800  GLU811  SER814 

> <Gold.Protein.RotatedAtoms>
  150.6879  134.2471  159.4495 H   0  0  0  0  0  0  0  0  0  0  0  0  # atno 6907 bound_to 6896
  152.0411  134.9708  160.0583 H   0  0  0  0  0  0  0  0  0  0  0  0  # atno 6908 bound_to 6896
  152.1210  133.4318  159.4712 H   0  0  0  0  0  0  0  0  0  0  0  0  # atno 6909 bound_to 6896
  146.1645  140.4549  142.8557 H   0  0  0  0  0  0  0  0  0  0  0  0  # atno 7974 bound_to 7965
  154.7565  140.0483  157.0937 H   0  0  0  0  0  0  0  0  0  0  0  0  # atno 8008 bound_to 7997
  154.9991  140.3122  155.4855 H   0  0  0  0  0  0  0  0  0  0  0  0  # atno 8009 bound_to 7997
  156.2896  140.2204  156.5100 H   0  0  0  0  0  0  0  0  0  0  0  0  # atno 8010 bound_to 7997
  140.7040  143.3164  151.2898 H   0  0  0  0  0  0  0  0  0  0  0  0  # atno 10167 bound_to 10162
  156.6699  130.9080  151.3042 H   0  0  0  0  0  0  0  0  0  0  0  0  # atno 10718 bound_to 10713
  152.9784  135.5878  154.4257 H   0  0  0  0  0  0  0  0  0  0  0  0  # atno 10763 bound_to 10752
  154.3876  135.2767  155.2176 H   0  0  0  0  0  0  0  0  0  0  0  0  # atno 10764 bound_to 10752
  154.4062  135.6092  153.5980 H   0  0  0  0  0  0  0  0  0  0  0  0  # atno 10765 bound_to 10752
  139.9406  134.7406  156.1110 H   0  0  0  0  0  0  0  0  0  0  0  0  # atno 11005 bound_to 11000
  144.8073  140.6323  143.6438 LP  0  0  0  0  0  0  0  0  0  0  0  0  # atno 17320 bound_to 7965
  145.4502  139.1524  143.3922 LP  0  0  0  0  0  0  0  0  0  0  0  0  # atno 17321 bound_to 7965
  139.6605  144.0199  152.2689 LP  0  0  0  0  0  0  0  0  0  0  0  0  # atno 17342 bound_to 10162
  139.9764  144.6458  150.7941 LP  0  0  0  0  0  0  0  0  0  0  0  0  # atno 17343 bound_to 10162
  157.7080  130.9408  150.0996 LP  0  0  0  0  0  0  0  0  0  0  0  0  # atno 17370 bound_to 10713
  156.1946  130.3656  149.8865 LP  0  0  0  0  0  0  0  0  0  0  0  0  # atno 17371 bound_to 10713
  141.1038  133.6667  156.2817 LP  0  0  0  0  0  0  0  0  0  0  0  0  # atno 17394 bound_to 11000
  140.5962  134.5601  157.5509 LP  0  0  0  0  0  0  0  0  0  0  0  0  # atno 17395 bound_to 11000

$$$$
