AV-unprocessed.smi:1952|AV-procd|sdf|7883|dock5
  -GOLD-   2272010 33D 1   1.00000     0.00000
 Structure written by MMmdl.
 39 40  0  0  0  0  0  0  0  0  1 V2000
  143.7892  132.7363  150.3097 C   0  0  0  0  0  0  0  0  0  0  0  0
  144.3233  133.9547  150.9813 C   0  0  0  0  0  0  0  0  0  0  0  0
  145.5828  134.4684  151.1126 C   0  0  0  0  0  0  0  0  0  0  0  0
  145.3689  135.6508  151.8697 C   0  0  0  0  0  0  0  0  0  0  0  0
  146.4530  136.4937  152.2239 N   0  0  0  0  0  0  0  0  0  0  0  0
  146.4137  137.6059  152.9770 C   0  0  0  0  0  0  0  0  0  0  0  0
  145.3992  138.0751  153.4935 O   0  0  0  0  0  0  0  0  0  0  0  0
  147.6342  138.1488  153.1032 N   0  0  0  0  0  0  0  0  0  0  0  0
  147.9631  139.3460  153.8753 C   0  0  2  0  0  0  0  0  0  0  0  0
  147.1125  140.5172  153.3659 C   0  0  0  0  0  0  0  0  0  0  0  0
  149.4704  139.6611  153.7585 C   0  0  0  0  0  0  0  0  0  0  0  0
  150.2793  139.3424  154.9357 N   0  0  0  0  0  0  0  0  0  0  0  0
  151.4928  138.6244  154.5622 C   0  0  0  0  0  0  0  0  0  0  0  0
  152.3503  138.2694  155.7893 C   0  0  0  0  0  0  0  0  0  0  0  0
  152.6669  139.4560  156.5098 O   0  0  0  0  0  0  0  0  0  0  0  0
  151.5080  140.1685  156.9301 C   0  0  0  0  0  0  0  0  0  0  0  0
  150.6505  140.5285  155.7047 C   0  0  0  0  0  0  0  0  0  0  0  0
  144.0943  135.8411  152.1743 N   0  0  0  0  0  0  0  0  0  0  0  0
  143.4177  134.7552  151.6063 O   0  0  0  0  0  0  0  0  0  0  0  0
  144.5983  132.1276  149.9060 H   0  0  0  0  0  0  0  0  0  0  0  0
  143.1270  133.0074  149.4874 H   0  0  0  0  0  0  0  0  0  0  0  0
  143.2238  132.1239  151.0122 H   0  0  0  0  0  0  0  0  0  0  0  0
  146.5060  134.0618  150.7272 H   0  0  0  0  0  0  0  0  0  0  0  0
  147.3559  136.2198  151.8662 H   0  0  0  0  0  0  0  0  0  0  0  0
  148.4044  137.6871  152.6423 H   0  0  0  0  0  0  0  0  0  0  0  0
  147.6995  139.2036  154.9238 H   0  0  0  0  0  0  0  0  0  0  0  0
  147.3163  141.4248  153.9346 H   0  0  0  0  0  0  0  0  0  0  0  0
  146.0479  140.3012  153.4631 H   0  0  0  0  0  0  0  0  0  0  0  0
  147.3152  140.7301  152.3157 H   0  0  0  0  0  0  0  0  0  0  0  0
  149.8590  139.1049  152.9039 H   0  0  0  0  0  0  0  0  0  0  0  0
  149.6001  140.7148  153.5074 H   0  0  0  0  0  0  0  0  0  0  0  0
  151.2328  137.7092  154.0295 H   0  0  0  0  0  0  0  0  0  0  0  0
  152.0835  139.2295  153.8726 H   0  0  0  0  0  0  0  0  0  0  0  0
  151.8231  137.5703  156.4399 H   0  0  0  0  0  0  0  0  0  0  0  0
  153.2752  137.7838  155.4778 H   0  0  0  0  0  0  0  0  0  0  0  0
  150.9360  139.5640  157.6358 H   0  0  0  0  0  0  0  0  0  0  0  0
  151.8156  141.0718  157.4573 H   0  0  0  0  0  0  0  0  0  0  0  0
  151.2012  141.2244  155.0700 H   0  0  0  0  0  0  0  0  0  0  0  0
  149.7617  141.0563  156.0473 H   0  0  0  0  0  0  0  0  0  0  0  0
  1  2  1  0  0  0  0
  1 20  1  0  0  0  0
  1 21  1  0  0  0  0
  1 22  1  0  0  0  0
  2 19  1  0  0  0  0
  2  3  2  0  0  0  0
  3  4  1  0  0  0  0
  3 23  1  0  0  0  0
  4  5  1  0  0  0  0
  4 18  2  0  0  0  0
  5  6  1  0  0  0  0
  5 24  1  0  0  0  0
  6  7  2  0  0  0  0
  6  8  1  0  0  0  0
  8  9  1  0  0  0  0
  8 25  1  0  0  0  0
  9 10  1  0  0  0  0
  9 11  1  0  0  0  0
  9 26  1  0  0  0  0
 10 27  1  0  0  0  0
 10 28  1  0  0  0  0
 10 29  1  0  0  0  0
 11 12  1  0  0  0  0
 11 30  1  0  0  0  0
 11 31  1  0  0  0  0
 12 17  1  0  0  0  0
 12 13  1  0  0  0  0
 13 14  1  0  0  0  0
 13 32  1  0  0  0  0
 13 33  1  0  0  0  0
 14 15  1  0  0  0  0
 14 34  1  0  0  0  0
 14 35  1  0  0  0  0
 15 16  1  0  0  0  0
 16 17  1  0  0  0  0
 16 36  1  0  0  0  0
 16 37  1  0  0  0  0
 17 38  1  0  0  0  0
 17 39  1  0  0  0  0
 18 19  1  0  0  0  0
M  END
> <s_m_source_file>
AV-unprocessed.smi

> <i_m_source_file_index>
1952

> <i_lp_mmshare_version>
43012

> <i_f3d_flags>
0

> <s_epik_input>
W0NIM11jMVtjSF1jKG5vMSlbTkhdQyg9TylbTkhdW0NASF0oW0NIM10pW0NIMl1OMltDSDJdW0NIMl1PW0NIMl1bQ0gyXTI=

> <s_epik_cmdline>
J2VwaWtfcHl0aG9uJywgJy1waCcsICc3LjAnLCAnLXRuJywgJzgnLCAnLW1hJywgJzIwMCcsICctbWV0YWxfYmluZGluZycsICctaW1hZScsICc8aW5maWxlLm1hZT4nLCAnLW9tYWUnLCAnPG91dGZpbGUubWFlPic=

> <r_epik_Ionization_Penalty>
0.214075

> <r_epik_Ionization_Penalty_Charging>
0

> <r_epik_Ionization_Penalty_Neutral>
0.214075

> <r_epik_State_Penalty>
0.204211

> <r_epik_Charging_Adjusted_Penalty>
0.204211

> <i_epik_Tot_Q>
0

> <i_epik_Tot_abs_Q>
0

> <r_epik_Metal_State_Penalty>
0.218782

> <b_epik_Metal_Only>
0

> <s_lp_Force_Field>
OPLS_2005

> <r_lp_Energy>
23.1599

> <b_lp_Chiralities_Consistent>
1

> <s_lp_Variant>
AV-unprocessed.smi:1952-1

> <Gold.Version>
5.8.1

> <Gold.Id.Protein>
6NUR|6NUR_protein|mol2

> <Gold.PLP.Fitness>
35.0576

> <Gold.PLP.PLP>
-28.9191

> <Gold.PLP.part.hbond>
-3.0247

> <Gold.PLP.part.metal>
0.0000

> <Gold.PLP.part.buried>
0.5230

> <Gold.PLP.part.nonpolar>
-26.0134

> <Gold.PLP.part.repulsive>
0.6749

> <Gold.PLP.ligand.clash>
0.0000

> <Gold.PLP.ligand.torsion>
1.3040

> <Gold.PLP.Chemscore.Hbond>
2.9120

> <Gold.PLP.Chemscore.CHOScore>
0.0000

> <Gold.PLP.Chemscore.Metal>
0.0000

> <Gold.Chemscore.Hbonds>
donor molecule, donor type, donor heavy atom, donor atom, acceptor molecule, acceptor atom, score
      L1  H     5    24       P1  7948  1.00
      L1  H     8    25       P1  7948  0.94
      P1  H  7997  8008       L1    15  1.00

> <Gold.PLP.Chemscore.Internal.Correction>
0.0105

> <Gold.Rescore>
     Score         DG    S(hbond)    S(metal)    S(lipo)     H(rot)  DE(clash)    DE(int)     intcor
     15.50     -18.38       2.89        0.00      61.77       1.56       0.17       2.71       ----

> <Gold.Chemscore.Fitness>
15.5039

> <Gold.Chemscore.DG>
-18.3801

> <Gold.Chemscore.ZeroCoef>
-5.4800

> <Gold.Chemscore.Hbond>
2.8940

> <Gold.Chemscore.Metal>
0.0000

> <Gold.Chemscore.Lipo>
61.7692

> <Gold.Chemscore.Internal_Hbond>
0.0000

> <Gold.Chemscore.DEClash>
0.1656

> <Gold.Chemscore.DEInternal>
2.7105

> <Gold.Chemscore.Rot>
1.5597

> <Gold.Chemscore.Internal.Correction>
   9.000000E+99

> <Gold.Chemscore.Hbonds>
donor molecule, donor type, donor heavy atom, donor atom, acceptor molecule, acceptor atom, score
      L1  H     5    24       P1  7948  0.95
      L1  H     8    25       P1  7948  0.91
      P1  H  7997  8008       L1    15  0.97

> <Gold.Chemscore.Hbond.Weighted>
-9.6659

> <Gold.Chemscore.Metal.Weighted>
-0.0000

> <Gold.Chemscore.Lipo.Weighted>
-7.2270

> <Gold.Chemscore.Internal_Hbond.Weighted>
0.0000

> <Gold.Chemscore.DEClash.Weighted>
0.1656

> <Gold.Chemscore.DEInternal.Weighted>
2.7105

> <Gold.Chemscore.Rot.Weighted>
3.9928

> <Gold.Chemscore.Internal.Correction.Weighted>
   9.000000E+99

> <Gold.Protein.RotatedTorsions>
[ 6907 6896 6895 6894 ] final  150.40 input  -60.11 | X-H torsion
[ 7974 7965 7964 7962 ] final  -34.95 input  175.53 | X-H torsion
[ 8008 7997 7996 7995 ] final  -46.32 input   59.86 | X-H torsion
[ 10167 10162 10161 10158 ] final   99.98 input  -65.29 | X-H torsion
[ 10718 10713 10712 10709 ] final  147.37 input   66.30 | X-H torsion
[ 10763 10752 10751 10750 ] final   -6.69 input  -60.55 | X-H torsion
[ 11005 11000 10999 10996 ] final  -99.47 input  -57.11 | X-H torsion

> <Gold.Protein.ActiveResidues>
 VAL166  LYS551  ARG553  GLY616  TRP617  ASP618  TYR619  PRO620  LYS621  CYS622 
 ASP623  PHE694  ASN695  SER759  ASP760  ASP761  ALA762  ILE779  LEU786  VAL792 
 PHE793  MET794  SER795  GLU796  ALA797  LYS798  CYS799  TRP800  GLU811  SER814 

> <Gold.Protein.RotatedAtoms>
  152.1149  133.4321  159.4647 H   0  0  0  0  0  0  0  0  0  0  0  0  # atno 6907 bound_to 6896
  150.6869  134.2604  159.4556 H   0  0  0  0  0  0  0  0  0  0  0  0  # atno 6908 bound_to 6896
  152.0476  134.9673  160.0625 H   0  0  0  0  0  0  0  0  0  0  0  0  # atno 6909 bound_to 6896
  146.0787  140.6100  142.8918 H   0  0  0  0  0  0  0  0  0  0  0  0  # atno 7974 bound_to 7965
  154.4006  140.1374  156.3993 H   0  0  0  0  0  0  0  0  0  0  0  0  # atno 8008 bound_to 7997
  155.7840  140.3480  155.5292 H   0  0  0  0  0  0  0  0  0  0  0  0  # atno 8009 bound_to 7997
  155.8646  140.0962  157.1581 H   0  0  0  0  0  0  0  0  0  0  0  0  # atno 8010 bound_to 7997
  139.7568  144.6967  151.0350 H   0  0  0  0  0  0  0  0  0  0  0  0  # atno 10167 bound_to 10162
  157.3218  131.0905  151.1234 H   0  0  0  0  0  0  0  0  0  0  0  0  # atno 10718 bound_to 10713
  153.4159  135.7009  153.6327 H   0  0  0  0  0  0  0  0  0  0  0  0  # atno 10763 bound_to 10752
  153.4802  135.3695  155.2438 H   0  0  0  0  0  0  0  0  0  0  0  0  # atno 10764 bound_to 10752
  154.8719  135.4064  154.3519 H   0  0  0  0  0  0  0  0  0  0  0  0  # atno 10765 bound_to 10752
  141.1307  133.8324  157.0976 H   0  0  0  0  0  0  0  0  0  0  0  0  # atno 11005 bound_to 11000
  144.7279  140.4581  143.6960 LP  0  0  0  0  0  0  0  0  0  0  0  0  # atno 17320 bound_to 7965
  145.6258  139.1530  143.2997 LP  0  0  0  0  0  0  0  0  0  0  0  0  # atno 17321 bound_to 7965
  140.7803  143.4743  151.0103 LP  0  0  0  0  0  0  0  0  0  0  0  0  # atno 17342 bound_to 10162
  139.8430  143.7538  152.3180 LP  0  0  0  0  0  0  0  0  0  0  0  0  # atno 17343 bound_to 10162
  157.2516  130.6617  149.5934 LP  0  0  0  0  0  0  0  0  0  0  0  0  # atno 17370 bound_to 10713
  155.9686  130.4536  150.5820 LP  0  0  0  0  0  0  0  0  0  0  0  0  # atno 17371 bound_to 10713
  140.0354  134.9881  157.0860 LP  0  0  0  0  0  0  0  0  0  0  0  0  # atno 17394 bound_to 11000
  140.4219  134.1871  155.7165 LP  0  0  0  0  0  0  0  0  0  0  0  0  # atno 17395 bound_to 11000

$$$$
