AV-unprocessed.smi:1010|AV-procd|sdf|4416|dock2
  -GOLD-   22720 2363D 1   1.00000     0.00000
 Structure written by MMmdl.
 56 58  0  0  0  0  0  0  0  0  3 V2000
  148.4817  139.7429  153.4862 C   0  0  0  0  0  0  0  0  0  0  0  0
  148.7381  138.4234  154.1181 N   0  3  0  0  0  0  0  0  0  0  0  0
  147.5307  137.9680  154.8565 C   0  0  0  0  0  0  0  0  0  0  0  0
  150.0443  138.2685  154.8627 C   0  0  0  0  0  0  0  0  0  0  0  0
  150.0952  136.8280  155.4683 C   0  0  0  0  0  0  0  0  0  0  0  0
  149.5792  135.7950  154.5696 N   0  0  0  0  0  0  0  0  0  0  0  0
  149.6288  134.4716  154.7775 C   0  0  0  0  0  0  0  0  0  0  0  0
  150.0993  133.9603  155.7926 O   0  0  0  0  0  0  0  0  0  0  0  0
  149.1113  133.7963  153.7383 N   0  0  0  0  0  0  0  0  0  0  0  0
  148.9975  132.3864  153.5705 C   0  0  0  0  0  0  0  0  0  0  0  0
  149.9782  131.4761  154.0421 C   0  0  0  0  0  0  0  0  0  0  0  0
  149.7898  130.0914  153.8624 C   0  0  0  0  0  0  0  0  0  0  0  0
  148.6215  129.6359  153.2245 C   0  0  0  0  0  0  0  0  0  0  0  0
  147.7008  130.5263  152.8001 N   0  3  0  0  0  0  0  0  0  0  0  0
  147.8342  131.8675  152.9465 C   0  0  0  0  0  0  0  0  0  0  0  0
  146.8148  132.7094  152.4688 N   0  0  0  0  0  0  0  0  0  0  0  0
  147.1020  133.3929  151.2184 C   0  0  0  0  0  0  0  0  0  0  0  0
  145.7515  133.9128  150.7190 C   0  0  0  0  0  0  0  0  0  0  0  0
  144.7065  133.0410  151.4264 C   0  0  0  0  0  0  0  0  0  0  0  0
  145.5199  132.0741  152.2908 C   0  0  0  0  0  0  0  0  0  0  0  0
  151.2758  138.4807  153.9268 C   0  0  0  0  0  0  0  0  0  0  0  0
  152.6125  138.5127  154.6883 C   0  0  0  0  0  0  0  0  0  0  0  0
  152.5747  139.5509  155.6580 O   0  0  0  0  0  0  0  0  0  0  0  0
  151.5689  139.3556  156.6430 C   0  0  0  0  0  0  0  0  0  0  0  0
  150.1713  139.3283  155.9923 C   0  0  0  0  0  0  0  0  0  0  0  0
  148.5192  140.5494  154.2192 H   0  0  0  0  0  0  0  0  0  0  0  0
  147.4955  139.7626  153.0212 H   0  0  0  0  0  0  0  0  0  0  0  0
  149.1945  139.9524  152.6886 H   0  0  0  0  0  0  0  0  0  0  0  0
  147.2563  138.6711  155.6440 H   0  0  0  0  0  0  0  0  0  0  0  0
  147.6595  136.9859  155.3072 H   0  0  0  0  0  0  0  0  0  0  0  0
  146.6822  137.8912  154.1760 H   0  0  0  0  0  0  0  0  0  0  0  0
  151.1158  136.5361  155.7066 H   0  0  0  0  0  0  0  0  0  0  0  0
  149.5791  136.7805  156.4269 H   0  0  0  0  0  0  0  0  0  0  0  0
  149.1775  136.1191  153.7013 H   0  0  0  0  0  0  0  0  0  0  0  0
  148.8479  134.3494  152.9357 H   0  0  0  0  0  0  0  0  0  0  0  0
  150.8672  131.8132  154.5523 H   0  0  0  0  0  0  0  0  0  0  0  0
  150.5300  129.3879  154.2153 H   0  0  0  0  0  0  0  0  0  0  0  0
  148.3939  128.5944  153.0479 H   0  0  0  0  0  0  0  0  0  0  0  0
  147.8140  134.2049  151.3687 H   0  0  0  0  0  0  0  0  0  0  0  0
  147.5282  132.7008  150.4907 H   0  0  0  0  0  0  0  0  0  0  0  0
  145.6177  134.9571  151.0039 H   0  0  0  0  0  0  0  0  0  0  0  0
  145.6761  133.8532  149.6328 H   0  0  0  0  0  0  0  0  0  0  0  0
  144.0667  133.6640  152.0526 H   0  0  0  0  0  0  0  0  0  0  0  0
  144.0655  132.5082  150.7234 H   0  0  0  0  0  0  0  0  0  0  0  0
  145.6309  131.1164  151.7804 H   0  0  0  0  0  0  0  0  0  0  0  0
  145.0362  131.8903  153.2506 H   0  0  0  0  0  0  0  0  0  0  0  0
  151.3104  137.7263  153.1403 H   0  0  0  0  0  0  0  0  0  0  0  0
  151.2178  139.4438  153.4204 H   0  0  0  0  0  0  0  0  0  0  0  0
  152.8463  137.5562  155.1556 H   0  0  0  0  0  0  0  0  0  0  0  0
  153.4266  138.7220  153.9944 H   0  0  0  0  0  0  0  0  0  0  0  0
  151.7681  138.4440  157.2068 H   0  0  0  0  0  0  0  0  0  0  0  0
  151.6247  140.1759  157.3588 H   0  0  0  0  0  0  0  0  0  0  0  0
  149.9664  140.3207  155.5890 H   0  0  0  0  0  0  0  0  0  0  0  0
  149.4311  139.1573  156.7743 H   0  0  0  0  0  0  0  0  0  0  0  0
  148.8192  137.7853  153.3393 H   0  0  0  0  0  0  0  0  0  0  0  0
  146.8598  130.1701  152.3453 H   0  0  0  0  0  0  0  0  0  0  0  0
  1  2  1  0  0  0  0
  1 26  1  0  0  0  0
  1 27  1  0  0  0  0
  1 28  1  0  0  0  0
  2  3  1  0  0  0  0
  2  4  1  0  0  0  0
  2 55  1  0  0  0  0
  3 29  1  0  0  0  0
  3 30  1  0  0  0  0
  3 31  1  0  0  0  0
  4 25  1  0  0  0  0
  4  5  1  0  0  0  0
  4 21  1  0  0  0  0
  5  6  1  0  0  0  0
  5 32  1  0  0  0  0
  5 33  1  0  0  0  0
  6  7  1  0  0  0  0
  6 34  1  0  0  0  0
  7  8  2  0  0  0  0
  7  9  1  0  0  0  0
  9 10  1  0  0  0  0
  9 35  1  0  0  0  0
 10 15  1  0  0  0  0
 10 11  2  0  0  0  0
 11 12  1  0  0  0  0
 11 36  1  0  0  0  0
 12 13  2  0  0  0  0
 12 37  1  0  0  0  0
 13 14  1  0  0  0  0
 13 38  1  0  0  0  0
 14 15  2  0  0  0  0
 14 56  1  0  0  0  0
 15 16  1  0  0  0  0
 16 20  1  0  0  0  0
 16 17  1  0  0  0  0
 17 18  1  0  0  0  0
 17 39  1  0  0  0  0
 17 40  1  0  0  0  0
 18 19  1  0  0  0  0
 18 41  1  0  0  0  0
 18 42  1  0  0  0  0
 19 20  1  0  0  0  0
 19 43  1  0  0  0  0
 19 44  1  0  0  0  0
 20 45  1  0  0  0  0
 20 46  1  0  0  0  0
 21 22  1  0  0  0  0
 21 47  1  0  0  0  0
 21 48  1  0  0  0  0
 22 23  1  0  0  0  0
 22 49  1  0  0  0  0
 22 50  1  0  0  0  0
 23 24  1  0  0  0  0
 24 25  1  0  0  0  0
 24 51  1  0  0  0  0
 24 52  1  0  0  0  0
 25 53  1  0  0  0  0
 25 54  1  0  0  0  0
M  CHG  1   2   1
M  CHG  1  14   1
M  END
> <s_m_source_file>
AV-unprocessed.smi

> <i_m_source_file_index>
1010

> <i_lp_mmshare_version>
43012

> <i_f3d_flags>
0

> <s_epik_input>
W0NIMl0xW0NIMl1PW0NIMl1bQ0gyXUMxKE4oW0NIM10pW0NIM10pW0NIMl1bTkhdQyg9TylbTkhdYzJbY0hdW2NIXVtjSF1uYzJOM1tDSDJdW0NIMl1bQ0gyXVtDSDJdMw==

> <s_epik_cmdline>
J2VwaWtfcHl0aG9uJywgJy1waCcsICc3LjAnLCAnLXRuJywgJzgnLCAnLW1hJywgJzIwMCcsICctbWV0YWxfYmluZGluZycsICctaW1hZScsICc8aW5maWxlLm1hZT4nLCAnLW9tYWUnLCAnPG91dGZpbGUubWFlPic=

> <r_lp_tautomer_probability>
0.999994

> <r_epik_Ionization_Penalty>
1.20932

> <r_epik_Ionization_Penalty_Charging>
1.2093

> <r_epik_Ionization_Penalty_Neutral>
2.0507e-05

> <r_epik_State_Penalty>
1.27047

> <r_epik_Charging_Adjusted_Penalty>
2.47977

> <i_epik_Tot_Q>
2

> <i_epik_Tot_abs_Q>
2

> <r_epik_Metal_State_Penalty>
1.34666

> <b_epik_Metal_Only>
0

> <s_lp_Force_Field>
OPLS_2005

> <r_lp_Energy>
72.2457

> <b_lp_Chiralities_Consistent>
1

> <s_lp_Variant>
AV-unprocessed.smi:1010-2

> <Gold.Version>
5.8.1

> <Gold.Id.Protein>
6NUR|6NUR_protein|mol2

> <Gold.PLP.Fitness>
46.5626

> <Gold.PLP.PLP>
-36.7237

> <Gold.PLP.part.hbond>
-4.4873

> <Gold.PLP.part.metal>
0.0000

> <Gold.PLP.part.buried>
-2.1752

> <Gold.PLP.part.nonpolar>
-30.7645

> <Gold.PLP.part.repulsive>
0.1933

> <Gold.PLP.ligand.clash>
1.0013

> <Gold.PLP.ligand.torsion>
1.1923

> <Gold.PLP.Chemscore.Hbond>
4.3521

> <Gold.PLP.Chemscore.CHOScore>
0.0000

> <Gold.PLP.Chemscore.Metal>
0.0000

> <Gold.Chemscore.Hbonds>
donor molecule, donor type, donor heavy atom, donor atom, acceptor molecule, acceptor atom, score
      L1  H     2    55       P1  7948  1.50
      L1  H     6    34       P1  7948  1.00
      L1  H     9    35       P1  7948  0.43
      P1  H  7997  8009       L1    23  1.00

> <Gold.PLP.Chemscore.Internal.Correction>
0.1684

> <Gold.Rescore>
     Score         DG    S(hbond)    S(metal)    S(lipo)     H(rot)  DE(clash)    DE(int)     intcor
     16.96     -21.57       2.79        0.00      93.77       1.63       2.68       1.94       ----

> <Gold.Chemscore.Fitness>
16.9554

> <Gold.Chemscore.DG>
-21.5737

> <Gold.Chemscore.ZeroCoef>
-5.4800

> <Gold.Chemscore.Hbond>
2.7854

> <Gold.Chemscore.Metal>
0.0000

> <Gold.Chemscore.Lipo>
93.7726

> <Gold.Chemscore.Internal_Hbond>
0.0000

> <Gold.Chemscore.DEClash>
2.6830

> <Gold.Chemscore.DEInternal>
1.9353

> <Gold.Chemscore.Rot>
1.6332

> <Gold.Chemscore.Internal.Correction>
   9.000000E+99

> <Gold.Chemscore.Hbonds>
donor molecule, donor type, donor heavy atom, donor atom, acceptor molecule, acceptor atom, score
      L1  H     2    55       P1  7948  0.75
      L1  H     6    34       P1  7948  0.89
      L1  H     9    35       P1  7948  0.02
      P1  H  7997  8009       L1    23  0.82

> <Gold.Chemscore.Hbond.Weighted>
-9.3034

> <Gold.Chemscore.Metal.Weighted>
-0.0000

> <Gold.Chemscore.Lipo.Weighted>
-10.9714

> <Gold.Chemscore.Internal_Hbond.Weighted>
0.0000

> <Gold.Chemscore.DEClash.Weighted>
2.6830

> <Gold.Chemscore.DEInternal.Weighted>
1.9353

> <Gold.Chemscore.Rot.Weighted>
4.1810

> <Gold.Chemscore.Internal.Correction.Weighted>
   9.000000E+99

> <Gold.Protein.RotatedTorsions>
[ 6907 6896 6895 6894 ] final -151.04 input  -60.11 | X-H torsion
[ 7974 7965 7964 7962 ] final  -24.11 input  175.53 | X-H torsion
[ 8008 7997 7996 7995 ] final -155.31 input   59.86 | X-H torsion
[ 10167 10162 10161 10158 ] final  -95.17 input  -65.29 | X-H torsion
[ 10718 10713 10712 10709 ] final -159.18 input   66.30 | X-H torsion
[ 10763 10752 10751 10750 ] final   94.96 input  -60.55 | X-H torsion
[ 11005 11000 10999 10996 ] final   16.94 input  -57.11 | X-H torsion

> <Gold.Protein.ActiveResidues>
 VAL166  LYS551  ARG553  GLY616  TRP617  ASP618  TYR619  PRO620  LYS621  CYS622 
 ASP623  PHE694  ASN695  SER759  ASP760  ASP761  ALA762  ILE779  LEU786  VAL792 
 PHE793  MET794  SER795  GLU796  ALA797  LYS798  CYS799  TRP800  GLU811  SER814 

> <Gold.Protein.RotatedAtoms>
  151.2074  133.4576  159.2597 H   0  0  0  0  0  0  0  0  0  0  0  0  # atno 6907 bound_to 6896
  151.1010  134.9972  159.8459 H   0  0  0  0  0  0  0  0  0  0  0  0  # atno 6908 bound_to 6896
  152.5443  134.2000  159.8761 H   0  0  0  0  0  0  0  0  0  0  0  0  # atno 6909 bound_to 6896
  146.1575  140.4707  142.8585 H   0  0  0  0  0  0  0  0  0  0  0  0  # atno 7974 bound_to 7965
  155.6998  140.0765  157.2415 H   0  0  0  0  0  0  0  0  0  0  0  0  # atno 8008 bound_to 7997
  154.4075  140.1649  156.2231 H   0  0  0  0  0  0  0  0  0  0  0  0  # atno 8009 bound_to 7997
  155.9378  140.3386  155.6305 H   0  0  0  0  0  0  0  0  0  0  0  0  # atno 8010 bound_to 7997
  140.3069  143.3128  152.0189 H   0  0  0  0  0  0  0  0  0  0  0  0  # atno 10167 bound_to 10162
  156.5646  130.8662  151.2820 H   0  0  0  0  0  0  0  0  0  0  0  0  # atno 10718 bound_to 10713
  153.2477  135.4271  155.0765 H   0  0  0  0  0  0  0  0  0  0  0  0  # atno 10763 bound_to 10752
  154.8368  135.3418  154.6558 H   0  0  0  0  0  0  0  0  0  0  0  0  # atno 10764 bound_to 10752
  153.6980  135.7030  153.5128 H   0  0  0  0  0  0  0  0  0  0  0  0  # atno 10765 bound_to 10752
  140.4415  134.1316  155.7691 H   0  0  0  0  0  0  0  0  0  0  0  0  # atno 11005 bound_to 11000
  144.7982  140.6164  143.6496 LP  0  0  0  0  0  0  0  0  0  0  0  0  # atno 17320 bound_to 7965
  145.4672  139.1507  143.3834 LP  0  0  0  0  0  0  0  0  0  0  0  0  # atno 17321 bound_to 7965
  139.4902  144.6414  151.6870 LP  0  0  0  0  0  0  0  0  0  0  0  0  # atno 17342 bound_to 10162
  140.5602  144.0281  150.6166 LP  0  0  0  0  0  0  0  0  0  0  0  0  # atno 17343 bound_to 10162
  157.7361  130.9774  150.2119 LP  0  0  0  0  0  0  0  0  0  0  0  0  # atno 17370 bound_to 10713
  156.2769  130.3728  149.7975 LP  0  0  0  0  0  0  0  0  0  0  0  0  # atno 17371 bound_to 10713
  141.1703  133.8621  157.1590 LP  0  0  0  0  0  0  0  0  0  0  0  0  # atno 17394 bound_to 11000
  140.0066  135.0006  157.0306 LP  0  0  0  0  0  0  0  0  0  0  0  0  # atno 17395 bound_to 11000

$$$$
