AV-unprocessed.smi:2191|AV-procd|sdf|8892|dock8
  -GOLD-   2272012 93D 1   1.00000     0.00000
 Structure written by MMmdl.
 36 38  0  0  0  0  0  0  0  0  1 V2000
  151.2106  140.5954  156.0793 O   0  0  0  0  0  0  0  0  0  0  0  0
  150.7662  141.2532  157.2500 C   0  0  2  0  0  0  0  0  0  0  0  0
  149.2341  141.1517  157.3089 C   0  0  0  0  0  0  0  0  0  0  0  0
  148.6899  141.7379  156.1340 O   0  0  0  0  0  0  0  0  0  0  0  0
  148.2225  140.9022  155.1422 C   0  0  0  0  0  0  0  0  0  0  0  0
  147.6416  141.5144  154.0122 C   0  0  0  0  0  0  0  0  0  0  0  0
  147.1394  140.7386  152.9497 C   0  0  0  0  0  0  0  0  0  0  0  0
  147.2133  139.3348  153.0078 C   0  0  0  0  0  0  0  0  0  0  0  0
  147.7888  138.7101  154.1299 C   0  0  0  0  0  0  0  0  0  0  0  0
  148.2921  139.4864  155.1922 C   0  0  0  0  0  0  0  0  0  0  0  0
  151.2433  142.7184  157.2172 C   0  0  0  0  0  0  0  0  0  0  0  0
  151.3148  143.3140  158.5400 N   0  0  0  0  0  0  0  0  0  0  0  0
  150.6540  144.4047  158.9734 C   0  0  0  0  0  0  0  0  0  0  0  0
  150.8658  144.7872  160.2294 N   0  0  0  0  0  0  0  0  0  0  0  0
  151.7713  143.8338  160.6624 C   0  0  0  0  0  0  0  0  0  0  0  0
  152.4028  143.6720  161.9165 C   0  0  0  0  0  0  0  0  0  0  0  0
  153.3067  142.6103  162.1297 C   0  0  0  0  0  0  0  0  0  0  0  0
  153.5909  141.6945  161.0958 C   0  0  0  0  0  0  0  0  0  0  0  0
  152.9725  141.8341  159.8384 C   0  0  0  0  0  0  0  0  0  0  0  0
  152.0736  142.8967  159.6285 C   0  0  0  0  0  0  0  0  0  0  0  0
  150.4701  140.4779  155.5039 H   0  0  0  0  0  0  0  0  0  0  0  0
  151.2008  140.7594  158.1202 H   0  0  0  0  0  0  0  0  0  0  0  0
  148.9419  140.1006  157.3348 H   0  0  0  0  0  0  0  0  0  0  0  0
  148.8508  141.6274  158.2137 H   0  0  0  0  0  0  0  0  0  0  0  0
  147.5809  142.5917  153.9596 H   0  0  0  0  0  0  0  0  0  0  0  0
  146.6976  141.2212  152.0906 H   0  0  0  0  0  0  0  0  0  0  0  0
  146.8292  138.7381  152.1936 H   0  0  0  0  0  0  0  0  0  0  0  0
  147.8453  137.6326  154.1762 H   0  0  0  0  0  0  0  0  0  0  0  0
  148.7270  138.9706  156.0347 H   0  0  0  0  0  0  0  0  0  0  0  0
  152.2251  142.7889  156.7474 H   0  0  0  0  0  0  0  0  0  0  0  0
  150.5656  143.3214  156.6112 H   0  0  0  0  0  0  0  0  0  0  0  0
  149.9782  144.9483  158.3293 H   0  0  0  0  0  0  0  0  0  0  0  0
  152.1921  144.3670  162.7158 H   0  0  0  0  0  0  0  0  0  0  0  0
  153.7842  142.4980  163.0920 H   0  0  0  0  0  0  0  0  0  0  0  0
  154.2834  140.8836  161.2685 H   0  0  0  0  0  0  0  0  0  0  0  0
  153.1853  141.1328  159.0454 H   0  0  0  0  0  0  0  0  0  0  0  0
  1  2  1  0  0  0  0
  1 21  1  0  0  0  0
  2  3  1  0  0  0  0
  2 11  1  0  0  0  0
  2 22  1  0  0  0  0
  3  4  1  0  0  0  0
  3 23  1  0  0  0  0
  3 24  1  0  0  0  0
  4  5  1  0  0  0  0
  5 10  1  0  0  0  0
  5  6  2  0  0  0  0
  6  7  1  0  0  0  0
  6 25  1  0  0  0  0
  7  8  2  0  0  0  0
  7 26  1  0  0  0  0
  8  9  1  0  0  0  0
  8 27  1  0  0  0  0
  9 10  2  0  0  0  0
  9 28  1  0  0  0  0
 10 29  1  0  0  0  0
 11 12  1  0  0  0  0
 11 30  1  0  0  0  0
 11 31  1  0  0  0  0
 12 20  1  0  0  0  0
 12 13  1  0  0  0  0
 13 14  2  0  0  0  0
 13 32  1  0  0  0  0
 14 15  1  0  0  0  0
 15 20  2  0  0  0  0
 15 16  1  0  0  0  0
 16 17  2  0  0  0  0
 16 33  1  0  0  0  0
 17 18  1  0  0  0  0
 17 34  1  0  0  0  0
 18 19  2  0  0  0  0
 18 35  1  0  0  0  0
 19 20  1  0  0  0  0
 19 36  1  0  0  0  0
M  END
> <s_m_source_file>
AV-unprocessed.smi

> <i_m_source_file_index>
2191

> <i_lp_mmshare_version>
43012

> <i_f3d_flags>
0

> <s_epik_input>
W2NIXTFbY0hdW2NIXVtjSF1jKGMxMiluKFtjSF1uMilbQ0gyXVtDQEhdKFtPSF0pW0NIMl1PYzNbY0hdW2NIXVtjSF1bY0hdW2NIXTM=

> <s_epik_cmdline>
J2VwaWtfcHl0aG9uJywgJy1waCcsICc3LjAnLCAnLXRuJywgJzgnLCAnLW1hJywgJzIwMCcsICctbWV0YWxfYmluZGluZycsICctaW1hZScsICc8aW5maWxlLm1hZT4nLCAnLW9tYWUnLCAnPG91dGZpbGUubWFlPic=

> <r_lp_tautomer_probability>
1

> <r_epik_Ionization_Penalty>
0.0640132

> <r_epik_Ionization_Penalty_Charging>
0

> <r_epik_Ionization_Penalty_Neutral>
0.0640132

> <r_epik_State_Penalty>
0.0557325

> <r_epik_Charging_Adjusted_Penalty>
0.0557325

> <i_epik_Tot_Q>
0

> <i_epik_Tot_abs_Q>
0

> <r_epik_Metal_State_Penalty>
5.8435e-05

> <b_epik_Metal_Only>
0

> <s_lp_Force_Field>
OPLS_2005

> <r_lp_Energy>
16.2786

> <b_lp_Chiralities_Consistent>
1

> <s_lp_Variant>
AV-unprocessed.smi:2191-1

> <Gold.Version>
5.8.1

> <Gold.Id.Protein>
6NUR|6NUR_protein|mol2

> <Gold.PLP.Fitness>
45.7417

> <Gold.PLP.PLP>
-43.7699

> <Gold.PLP.part.hbond>
0.0000

> <Gold.PLP.part.metal>
0.0000

> <Gold.PLP.part.buried>
-6.3853

> <Gold.PLP.part.nonpolar>
-37.0572

> <Gold.PLP.part.repulsive>
1.2958

> <Gold.PLP.ligand.clash>
0.0000

> <Gold.PLP.ligand.torsion>
0.5601

> <Gold.PLP.Chemscore.Hbond>
0.0000

> <Gold.PLP.Chemscore.CHOScore>
1.0220

> <Gold.PLP.Chemscore.Metal>
0.0000

> <Gold.Chemscore.Hbonds>
donor molecule, donor type, donor heavy atom, donor atom, acceptor molecule, acceptor atom, score
      L1  C    13    32       P1  8028  0.06
      L1  C    13    32       P1  8029  1.00

> <Gold.PLP.Chemscore.Internal.Correction>
0.0261

> <Gold.Rescore>
     Score         DG    S(hbond)    S(metal)    S(lipo)     H(rot)  DE(clash)    DE(int)     intcor
     13.14     -13.74       0.00        0.00     119.18       2.22       0.05       0.54       ----

> <Gold.Chemscore.Fitness>
13.1450

> <Gold.Chemscore.DG>
-13.7403

> <Gold.Chemscore.ZeroCoef>
-5.4800

> <Gold.Chemscore.Hbond>
0.0000

> <Gold.Chemscore.Metal>
0.0000

> <Gold.Chemscore.Lipo>
119.1755

> <Gold.Chemscore.Internal_Hbond>
0.0000

> <Gold.Chemscore.DEClash>
0.0537

> <Gold.Chemscore.DEInternal>
0.5417

> <Gold.Chemscore.Rot>
2.2200

> <Gold.Chemscore.Internal.Correction>
   9.000000E+99

> <Gold.Chemscore.Hbond.Weighted>
-0.0000

> <Gold.Chemscore.Metal.Weighted>
-0.0000

> <Gold.Chemscore.Lipo.Weighted>
-13.9435

> <Gold.Chemscore.Internal_Hbond.Weighted>
0.0000

> <Gold.Chemscore.DEClash.Weighted>
0.0537

> <Gold.Chemscore.DEInternal.Weighted>
0.5417

> <Gold.Chemscore.Rot.Weighted>
5.6832

> <Gold.Chemscore.Internal.Correction.Weighted>
   9.000000E+99

> <Gold.Protein.RotatedTorsions>
[ 6907 6896 6895 6894 ] final  -36.36 input  -60.11 | X-H torsion
[ 7974 7965 7964 7962 ] final -160.10 input  175.53 | X-H torsion
[ 8008 7997 7996 7995 ] final  -91.76 input   59.86 | X-H torsion
[ 10167 10162 10161 10158 ] final -152.45 input  -65.29 | X-H torsion
[ 10718 10713 10712 10709 ] final  -39.24 input   66.30 | X-H torsion
[ 10763 10752 10751 10750 ] final -167.72 input  -60.55 | X-H torsion
[ 11005 11000 10999 10996 ] final -118.34 input  -57.11 | X-H torsion

> <Gold.Protein.ActiveResidues>
 VAL166  LYS551  ARG553  GLY616  TRP617  ASP618  TYR619  PRO620  LYS621  CYS622 
 ASP623  PHE694  ASN695  SER759  ASP760  ASP761  ALA762  ILE779  LEU786  VAL792 
 PHE793  MET794  SER795  GLU796  ALA797  LYS798  CYS799  TRP800  GLU811  SER814 

> <Gold.Protein.RotatedAtoms>
  151.0282  134.9519  159.8096 H   0  0  0  0  0  0  0  0  0  0  0  0  # atno 6907 bound_to 6896
  152.5340  134.2815  159.9019 H   0  0  0  0  0  0  0  0  0  0  0  0  # atno 6908 bound_to 6896
  151.2824  133.4161  159.2662 H   0  0  0  0  0  0  0  0  0  0  0  0  # atno 6909 bound_to 6896
  144.7440  140.3590  143.6100 H   0  0  0  0  0  0  0  0  0  0  0  0  # atno 7974 bound_to 7965
  154.7147  140.0516  157.0583 H   0  0  0  0  0  0  0  0  0  0  0  0  # atno 8008 bound_to 7997
  155.0507  140.3179  155.4674 H   0  0  0  0  0  0  0  0  0  0  0  0  # atno 8009 bound_to 7997
  156.2799  140.2116  156.5633 H   0  0  0  0  0  0  0  0  0  0  0  0  # atno 8010 bound_to 7997
  139.7180  143.9002  152.2493 H   0  0  0  0  0  0  0  0  0  0  0  0  # atno 10167 bound_to 10162
  156.2947  130.4232  149.8203 H   0  0  0  0  0  0  0  0  0  0  0  0  # atno 10718 bound_to 10713
  154.6702  135.2938  154.9751 H   0  0  0  0  0  0  0  0  0  0  0  0  # atno 10763 bound_to 10752
  154.0781  135.6608  153.4838 H   0  0  0  0  0  0  0  0  0  0  0  0  # atno 10764 bound_to 10752
  153.0482  135.5191  154.7695 H   0  0  0  0  0  0  0  0  0  0  0  0  # atno 10765 bound_to 10752
  141.0292  134.0007  157.3168 H   0  0  0  0  0  0  0  0  0  0  0  0  # atno 11005 bound_to 11000
  145.7196  139.1706  143.2492 LP  0  0  0  0  0  0  0  0  0  0  0  0  # atno 17320 bound_to 7965
  146.1286  140.7215  142.9423 LP  0  0  0  0  0  0  0  0  0  0  0  0  # atno 17321 bound_to 7965
  139.8890  144.6976  150.8792 LP  0  0  0  0  0  0  0  0  0  0  0  0  # atno 17342 bound_to 10162
  140.7748  143.3601  151.1844 LP  0  0  0  0  0  0  0  0  0  0  0  0  # atno 17343 bound_to 10162
  156.5604  130.8381  151.3327 LP  0  0  0  0  0  0  0  0  0  0  0  0  # atno 17370 bound_to 10713
  157.7352  130.9758  150.2069 LP  0  0  0  0  0  0  0  0  0  0  0  0  # atno 17371 bound_to 10713
  139.9196  135.0199  156.8015 LP  0  0  0  0  0  0  0  0  0  0  0  0  # atno 17394 bound_to 11000
  140.6437  133.9795  155.7720 LP  0  0  0  0  0  0  0  0  0  0  0  0  # atno 17395 bound_to 11000

$$$$
