AV-unprocessed.smi:2775|AV-procd|sdf|10702|dock8
  -GOLD-   2272015143D 1   1.00000     0.00000
 Structure written by MMmdl.
 43 46  0  0  0  0  0  0  0  0  2 V2000
  153.2774  143.6665  163.4108 C   0  0  0  0  0  0  0  0  0  0  0  0
  153.3794  142.6449  162.2946 C   0  0  0  0  0  0  0  0  0  0  0  0
  154.2988  141.6635  162.4230 N   0  3  0  0  0  0  0  0  0  0  0  0
  154.4847  140.7046  161.4928 C   0  0  0  0  0  0  0  0  0  0  0  0
  153.6983  140.6957  160.3245 C   0  0  0  0  0  0  0  0  0  0  0  0
  152.7094  141.6965  160.1417 C   0  0  0  0  0  0  0  0  0  0  0  0
  151.8705  141.7846  158.9950 N   0  0  0  0  0  0  0  0  0  0  0  0
  151.9094  141.1027  157.8342 C   0  0  0  0  0  0  0  0  0  0  0  0
  152.6912  140.1908  157.5765 O   0  0  0  0  0  0  0  0  0  0  0  0
  150.9796  141.4941  156.9462 N   0  0  0  0  0  0  0  0  0  0  0  0
  150.7530  140.9628  155.6021 C   0  0  2  0  0  0  0  0  0  0  0  0
  149.2748  140.9927  155.2083 C   0  0  1  0  0  0  0  0  0  0  0  0
  148.4780  141.7880  154.2385 C   0  0  0  0  0  0  0  0  0  0  0  0
  147.6416  140.6222  153.6519 C   0  0  0  0  0  0  0  0  0  0  0  0
  148.2324  139.4089  154.1780 O   0  0  0  0  0  0  0  0  0  0  0  0
  149.5890  139.7456  154.3973 C   0  0  2  0  0  0  0  0  0  0  0  0
  150.5498  139.4115  155.5480 C   0  0  0  0  0  0  0  0  0  0  0  0
  150.1044  138.5461  156.7417 C   0  0  0  0  0  0  0  0  0  0  0  0
  150.9066  137.3929  156.1300 C   0  0  0  0  0  0  0  0  0  0  0  0
  151.7080  138.4289  155.3338 C   0  0  0  0  0  0  0  0  0  0  0  0
  152.5590  142.6885  161.1428 C   0  0  0  0  0  0  0  0  0  0  0  0
  151.3822  143.9475  160.9632 Cl  0  0  0  0  0  0  0  0  0  0  0  0
  152.2792  143.6511  163.8499 H   0  0  0  0  0  0  0  0  0  0  0  0
  153.4695  144.6688  163.0266 H   0  0  0  0  0  0  0  0  0  0  0  0
  153.9993  143.4644  164.2031 H   0  0  0  0  0  0  0  0  0  0  0  0
  155.2564  139.9794  161.7071 H   0  0  0  0  0  0  0  0  0  0  0  0
  153.8825  139.9238  159.5945 H   0  0  0  0  0  0  0  0  0  0  0  0
  151.1265  142.4635  159.0679 H   0  0  0  0  0  0  0  0  0  0  0  0
  150.3562  142.2333  157.2383 H   0  0  0  0  0  0  0  0  0  0  0  0
  151.4145  141.3605  154.8276 H   0  0  0  0  0  0  0  0  0  0  0  0
  148.6579  140.7660  156.0861 H   0  0  0  0  0  0  0  0  0  0  0  0
  147.8609  142.5482  154.7181 H   0  0  0  0  0  0  0  0  0  0  0  0
  149.1074  142.2604  153.4832 H   0  0  0  0  0  0  0  0  0  0  0  0
  146.5945  140.6795  153.9506 H   0  0  0  0  0  0  0  0  0  0  0  0
  147.6841  140.6247  152.5620 H   0  0  0  0  0  0  0  0  0  0  0  0
  150.1132  139.9491  153.4576 H   0  0  0  0  0  0  0  0  0  0  0  0
  150.5160  138.8772  157.6959 H   0  0  0  0  0  0  0  0  0  0  0  0
  149.0310  138.3658  156.8055 H   0  0  0  0  0  0  0  0  0  0  0  0
  151.4920  136.8145  156.8454 H   0  0  0  0  0  0  0  0  0  0  0  0
  150.2980  136.7506  155.4916 H   0  0  0  0  0  0  0  0  0  0  0  0
  151.8933  138.1593  154.2937 H   0  0  0  0  0  0  0  0  0  0  0  0
  152.6254  138.7246  155.8425 H   0  0  0  0  0  0  0  0  0  0  0  0
  154.8823  141.6491  163.2600 H   0  0  0  0  0  0  0  0  0  0  0  0
  1  2  1  0  0  0  0
  1 23  1  0  0  0  0
  1 24  1  0  0  0  0
  1 25  1  0  0  0  0
  2 21  1  0  0  0  0
  2  3  2  0  0  0  0
  3  4  1  0  0  0  0
  3 43  1  0  0  0  0
  4  5  2  0  0  0  0
  4 26  1  0  0  0  0
  5  6  1  0  0  0  0
  5 27  1  0  0  0  0
  6  7  1  0  0  0  0
  6 21  2  0  0  0  0
  7  8  1  0  0  0  0
  7 28  1  0  0  0  0
  8  9  2  0  0  0  0
  8 10  1  0  0  0  0
 10 11  1  0  0  0  0
 10 29  1  0  0  0  0
 11 17  1  0  0  0  0
 11 12  1  0  0  0  0
 11 30  1  0  0  0  0
 12 16  1  0  0  0  0
 12 13  1  0  0  0  0
 12 31  1  0  0  0  0
 13 14  1  0  0  0  0
 13 32  1  0  0  0  0
 13 33  1  0  0  0  0
 14 15  1  0  0  0  0
 14 34  1  0  0  0  0
 14 35  1  0  0  0  0
 15 16  1  0  0  0  0
 16 17  1  0  0  0  0
 16 36  1  0  0  0  0
 17 20  1  0  0  0  0
 17 18  1  0  0  0  0
 18 19  1  0  0  0  0
 18 37  1  0  0  0  0
 18 38  1  0  0  0  0
 19 20  1  0  0  0  0
 19 39  1  0  0  0  0
 19 40  1  0  0  0  0
 20 41  1  0  0  0  0
 20 42  1  0  0  0  0
 21 22  1  0  0  0  0
M  CHG  1   3   1
M  END
> <s_m_source_file>
AV-unprocessed.smi

> <i_m_source_file_index>
2775

> <i_lp_mmshare_version>
43012

> <i_f3d_flags>
0

> <s_epik_input>
W0NIM11jMW5bY0hdW2NIXWMoYzFDbClbTkhdQyg9TylbTkhdW0NAQEhdMltDQEhdKFtDSDJdW0NIMl1PMylbQ0BASF0zQzI0W0NIMl1bQ0gyXVtDSDJdNA==

> <s_epik_cmdline>
J2VwaWtfcHl0aG9uJywgJy1waCcsICc3LjAnLCAnLXRuJywgJzgnLCAnLW1hJywgJzIwMCcsICctbWV0YWxfYmluZGluZycsICctaW1hZScsICc8aW5maWxlLm1hZT4nLCAnLW9tYWUnLCAnPG91dGZpbGUubWFlPic=

> <r_epik_Ionization_Penalty>
2.4104

> <r_epik_Ionization_Penalty_Charging>
2.41038

> <r_epik_Ionization_Penalty_Neutral>
1.9872e-05

> <r_epik_State_Penalty>
2.56896

> <r_epik_Charging_Adjusted_Penalty>
4.97934

> <i_epik_Tot_Q>
1

> <i_epik_Tot_abs_Q>
1

> <r_epik_Metal_State_Penalty>
2.57906

> <b_epik_Metal_Only>
0

> <s_lp_Force_Field>
OPLS_2005

> <r_lp_Energy>
84.5881

> <b_lp_Chiralities_Consistent>
1

> <s_lp_Variant>
AV-unprocessed.smi:2775-15

> <Gold.Version>
5.8.1

> <Gold.Id.Protein>
6NUR|6NUR_protein|mol2

> <Gold.PLP.Fitness>
47.2258

> <Gold.PLP.PLP>
-44.3423

> <Gold.PLP.part.hbond>
-2.0000

> <Gold.PLP.part.metal>
0.0000

> <Gold.PLP.part.buried>
-2.3075

> <Gold.PLP.part.nonpolar>
-38.4811

> <Gold.PLP.part.repulsive>
0.3178

> <Gold.PLP.ligand.clash>
0.0000

> <Gold.PLP.ligand.torsion>
0.2185

> <Gold.PLP.Chemscore.Hbond>
1.0000

> <Gold.PLP.Chemscore.CHOScore>
0.0000

> <Gold.PLP.Chemscore.Metal>
0.0000

> <Gold.Chemscore.Hbonds>
donor molecule, donor type, donor heavy atom, donor atom, acceptor molecule, acceptor atom, score
      P1  H  7997  8009       L1     9  1.00

> <Gold.PLP.Chemscore.Internal.Correction>
0.3206

> <Gold.Rescore>
     Score         DG    S(hbond)    S(metal)    S(lipo)     H(rot)  DE(clash)    DE(int)     intcor
     17.66     -21.01       0.98        0.00     126.74       1.00       1.44       1.91       ----

> <Gold.Chemscore.Fitness>
17.6593

> <Gold.Chemscore.DG>
-21.0063

> <Gold.Chemscore.ZeroCoef>
-5.4800

> <Gold.Chemscore.Hbond>
0.9753

> <Gold.Chemscore.Metal>
0.0000

> <Gold.Chemscore.Lipo>
126.7410

> <Gold.Chemscore.Internal_Hbond>
0.0000

> <Gold.Chemscore.DEClash>
1.4373

> <Gold.Chemscore.DEInternal>
1.9098

> <Gold.Chemscore.Rot>
1.0000

> <Gold.Chemscore.Internal.Correction>
   9.000000E+99

> <Gold.Chemscore.Hbonds>
donor molecule, donor type, donor heavy atom, donor atom, acceptor molecule, acceptor atom, score
      P1  H  7997  8009       L1     9  0.95

> <Gold.Chemscore.Hbond.Weighted>
-3.2576

> <Gold.Chemscore.Metal.Weighted>
-0.0000

> <Gold.Chemscore.Lipo.Weighted>
-14.8287

> <Gold.Chemscore.Internal_Hbond.Weighted>
0.0000

> <Gold.Chemscore.DEClash.Weighted>
1.4373

> <Gold.Chemscore.DEInternal.Weighted>
1.9098

> <Gold.Chemscore.Rot.Weighted>
2.5600

> <Gold.Chemscore.Internal.Correction.Weighted>
   9.000000E+99

> <Gold.Protein.RotatedTorsions>
[ 6907 6896 6895 6894 ] final  -73.69 input  -60.11 | X-H torsion
[ 7974 7965 7964 7962 ] final -114.11 input  175.53 | X-H torsion
[ 8008 7997 7996 7995 ] final  173.77 input   59.86 | X-H torsion
[ 10167 10162 10161 10158 ] final -175.34 input  -65.29 | X-H torsion
[ 10718 10713 10712 10709 ] final  105.42 input   66.30 | X-H torsion
[ 10763 10752 10751 10750 ] final  -86.50 input  -60.55 | X-H torsion
[ 11005 11000 10999 10996 ] final -147.01 input  -57.11 | X-H torsion

> <Gold.Protein.ActiveResidues>
 VAL166  LYS551  ARG553  GLY616  TRP617  ASP618  TYR619  PRO620  LYS621  CYS622 
 ASP623  PHE694  ASN695  SER759  ASP760  ASP761  ALA762  ILE779  LEU786  VAL792 
 PHE793  MET794  SER795  GLU796  ALA797  LYS798  CYS799  TRP800  GLU811  SER814 

> <Gold.Protein.RotatedAtoms>
  150.7120  134.4979  159.5546 H   0  0  0  0  0  0  0  0  0  0  0  0  # atno 6907 bound_to 6896
  152.2582  134.8059  160.0444 H   0  0  0  0  0  0  0  0  0  0  0  0  # atno 6908 bound_to 6896
  151.8782  133.3454  159.3794 H   0  0  0  0  0  0  0  0  0  0  0  0  # atno 6909 bound_to 6896
  145.1240  140.8686  143.3797 H   0  0  0  0  0  0  0  0  0  0  0  0  # atno 7974 bound_to 7965
  156.1042  140.1451  156.9427 H   0  0  0  0  0  0  0  0  0  0  0  0  # atno 8008 bound_to 7997
  154.4722  140.0906  156.7218 H   0  0  0  0  0  0  0  0  0  0  0  0  # atno 8009 bound_to 7997
  155.4708  140.3441  155.4328 H   0  0  0  0  0  0  0  0  0  0  0  0  # atno 8010 bound_to 7997
  139.5586  144.1926  152.1201 H   0  0  0  0  0  0  0  0  0  0  0  0  # atno 10167 bound_to 10162
  157.6706  131.0827  150.5854 H   0  0  0  0  0  0  0  0  0  0  0  0  # atno 10718 bound_to 10713
  154.6232  135.5447  153.7598 H   0  0  0  0  0  0  0  0  0  0  0  0  # atno 10763 bound_to 10752
  153.0248  135.6418  154.1410 H   0  0  0  0  0  0  0  0  0  0  0  0  # atno 10764 bound_to 10752
  154.1344  135.2912  155.3157 H   0  0  0  0  0  0  0  0  0  0  0  0  # atno 10765 bound_to 10752
  140.7760  134.3134  157.5060 H   0  0  0  0  0  0  0  0  0  0  0  0  # atno 11005 bound_to 11000
  145.0708  139.3033  143.5833 LP  0  0  0  0  0  0  0  0  0  0  0  0  # atno 17320 bound_to 7965
  146.3519  140.0182  142.8661 LP  0  0  0  0  0  0  0  0  0  0  0  0  # atno 17321 bound_to 7965
  140.1436  144.5180  150.6729 LP  0  0  0  0  0  0  0  0  0  0  0  0  # atno 17342 bound_to 10162
  140.6863  143.2351  151.5252 LP  0  0  0  0  0  0  0  0  0  0  0  0  # atno 17343 bound_to 10162
  156.6154  130.4391  149.5842 LP  0  0  0  0  0  0  0  0  0  0  0  0  # atno 17370 bound_to 10713
  156.2397  130.6844  151.1544 LP  0  0  0  0  0  0  0  0  0  0  0  0  # atno 17371 bound_to 10713
  139.8749  134.9290  156.3465 LP  0  0  0  0  0  0  0  0  0  0  0  0  # atno 17394 bound_to 11000
  140.9528  133.7440  156.0295 LP  0  0  0  0  0  0  0  0  0  0  0  0  # atno 17395 bound_to 11000

$$$$
