AV-unprocessed.smi:2158|AV-procd|sdf|8788|dock8
  -GOLD-   2272011563D 1   1.00000     0.00000
 Structure written by MMmdl.
 31 31  0  0  0  0  0  0  0  0  1 V2000
  153.8434  141.1860  159.7699 C   0  0  0  0  0  0  0  0  0  0  0  0
  153.5494  142.6910  159.6878 C   0  0  0  0  0  0  0  0  0  0  0  0
  152.0714  143.0292  159.4063 C   0  0  1  0  0  0  0  0  0  0  0  0
  151.7987  144.5327  159.5521 C   0  0  0  0  0  0  0  0  0  0  0  0
  151.6847  142.6030  158.0620 N   0  0  0  0  0  0  0  0  0  0  0  0
  150.8170  141.6225  157.7646 C   0  0  0  0  0  0  0  0  0  0  0  0
  150.2502  140.9384  158.6181 O   0  0  0  0  0  0  0  0  0  0  0  0
  150.5800  141.3681  156.2689 C   0  0  0  0  0  0  0  0  0  0  0  0
  150.7188  139.9534  155.8926 N   0  0  0  0  0  0  0  0  0  0  0  0
  149.7353  139.3302  155.1376 C   0  0  0  0  0  0  0  0  0  0  0  0
  149.8025  138.0348  154.7488 C   0  0  0  0  0  0  0  0  0  0  0  0
  150.9490  137.2114  155.1178 C   0  0  0  0  0  0  0  0  0  0  0  0
  151.0995  136.0294  154.8170 O   0  0  0  0  0  0  0  0  0  0  0  0
  151.9191  137.8755  155.8731 N   0  0  0  0  0  0  0  0  0  0  0  0
  151.8568  139.2106  156.2757 C   0  0  0  0  0  0  0  0  0  0  0  0
  152.7712  139.7000  156.9377 O   0  0  0  0  0  0  0  0  0  0  0  0
  152.7345  137.3475  156.1483 H   0  0  0  0  0  0  0  0  0  0  0  0
  154.8852  141.0096  160.0373 H   0  0  0  0  0  0  0  0  0  0  0  0
  153.6620  140.6887  158.8169 H   0  0  0  0  0  0  0  0  0  0  0  0
  153.2204  140.7039  160.5238 H   0  0  0  0  0  0  0  0  0  0  0  0
  153.8441  143.1502  160.6320 H   0  0  0  0  0  0  0  0  0  0  0  0
  154.1841  143.1407  158.9233 H   0  0  0  0  0  0  0  0  0  0  0  0
  151.4579  142.5186  160.1507 H   0  0  0  0  0  0  0  0  0  0  0  0
  152.0451  144.8806  160.5558 H   0  0  0  0  0  0  0  0  0  0  0  0
  150.7466  144.7597  159.3758 H   0  0  0  0  0  0  0  0  0  0  0  0
  152.3888  145.1154  158.8441 H   0  0  0  0  0  0  0  0  0  0  0  0
  152.1081  143.1021  157.2929 H   0  0  0  0  0  0  0  0  0  0  0  0
  149.5917  141.7363  155.9860 H   0  0  0  0  0  0  0  0  0  0  0  0
  151.2866  141.9788  155.7050 H   0  0  0  0  0  0  0  0  0  0  0  0
  148.8694  139.9031  154.8373 H   0  0  0  0  0  0  0  0  0  0  0  0
  149.0040  137.6057  154.1610 H   0  0  0  0  0  0  0  0  0  0  0  0
  1  2  1  0  0  0  0
  1 18  1  0  0  0  0
  1 19  1  0  0  0  0
  1 20  1  0  0  0  0
  2  3  1  0  0  0  0
  2 21  1  0  0  0  0
  2 22  1  0  0  0  0
  3  4  1  0  0  0  0
  3  5  1  0  0  0  0
  3 23  1  0  0  0  0
  4 24  1  0  0  0  0
  4 25  1  0  0  0  0
  4 26  1  0  0  0  0
  5  6  1  0  0  0  0
  5 27  1  0  0  0  0
  6  7  2  0  0  0  0
  6  8  1  0  0  0  0
  8  9  1  0  0  0  0
  8 28  1  0  0  0  0
  8 29  1  0  0  0  0
  9 15  1  0  0  0  0
  9 10  1  0  0  0  0
 10 11  2  0  0  0  0
 10 30  1  0  0  0  0
 11 12  1  0  0  0  0
 11 31  1  0  0  0  0
 12 13  2  0  0  0  0
 12 14  1  0  0  0  0
 14 17  1  0  0  0  0
 14 15  1  0  0  0  0
 15 16  2  0  0  0  0
M  END
> <s_m_source_file>
AV-unprocessed.smi

> <i_m_source_file_index>
2158

> <i_lp_mmshare_version>
43012

> <i_f3d_flags>
0

> <s_epik_input>
W0NIM11bQ0gyXVtDQEhdKFtDSDNdKVtOSF1DKD1PKVtDSDJdbjFbY0hdW2NIXWMoPU8pW25IXWMxPU8=

> <s_epik_cmdline>
J2VwaWtfcHl0aG9uJywgJy1waCcsICc3LjAnLCAnLXRuJywgJzgnLCAnLW1hJywgJzIwMCcsICctbWV0YWxfYmluZGluZycsICctaW1hZScsICc8aW5maWxlLm1hZT4nLCAnLW9tYWUnLCAnPG91dGZpbGUubWFlPic=

> <r_lp_tautomer_probability>
0.999537

> <r_epik_Ionization_Penalty>
0.00326083

> <r_epik_Ionization_Penalty_Charging>
0.00326081

> <r_epik_Ionization_Penalty_Neutral>
1.93017e-08

> <r_epik_State_Penalty>
0.00230249

> <r_epik_Charging_Adjusted_Penalty>
0.0055633

> <i_epik_Tot_Q>
0

> <i_epik_Tot_abs_Q>
0

> <r_epik_Metal_State_Penalty>
0.364899

> <b_epik_Metal_Only>
0

> <s_lp_Force_Field>
OPLS_2005

> <r_lp_Energy>
2.92089

> <b_lp_Chiralities_Consistent>
1

> <s_lp_Variant>
AV-unprocessed.smi:2158-2

> <Gold.Version>
5.8.1

> <Gold.Id.Protein>
6NUR|6NUR_protein|mol2

> <Gold.PLP.Fitness>
39.7786

> <Gold.PLP.PLP>
-34.2748

> <Gold.PLP.part.hbond>
-2.0000

> <Gold.PLP.part.metal>
0.0000

> <Gold.PLP.part.buried>
-4.3563

> <Gold.PLP.part.nonpolar>
-29.1876

> <Gold.PLP.part.repulsive>
0.3611

> <Gold.PLP.ligand.clash>
0.0000

> <Gold.PLP.ligand.torsion>
0.2563

> <Gold.PLP.Chemscore.Hbond>
2.0000

> <Gold.PLP.Chemscore.CHOScore>
0.0000

> <Gold.PLP.Chemscore.Metal>
0.0000

> <Gold.Chemscore.Hbonds>
donor molecule, donor type, donor heavy atom, donor atom, acceptor molecule, acceptor atom, score
      P1  H  7997  8010       L1    16  1.00
      P1  H 10752 10763       L1    13  1.00

> <Gold.PLP.Chemscore.Internal.Correction>
0.0162

> <Gold.Rescore>
     Score         DG    S(hbond)    S(metal)    S(lipo)     H(rot)  DE(clash)    DE(int)     intcor
     13.32     -14.74       1.94        0.00      67.27       1.99       0.02       1.40       ----

> <Gold.Chemscore.Fitness>
13.3202

> <Gold.Chemscore.DG>
-14.7364

> <Gold.Chemscore.ZeroCoef>
-5.4800

> <Gold.Chemscore.Hbond>
1.9405

> <Gold.Chemscore.Metal>
0.0000

> <Gold.Chemscore.Lipo>
67.2709

> <Gold.Chemscore.Internal_Hbond>
0.0000

> <Gold.Chemscore.DEClash>
0.0199

> <Gold.Chemscore.DEInternal>
1.3963

> <Gold.Chemscore.Rot>
1.9904

> <Gold.Chemscore.Internal.Correction>
   9.000000E+99

> <Gold.Chemscore.Hbonds>
donor molecule, donor type, donor heavy atom, donor atom, acceptor molecule, acceptor atom, score
      P1  H  7997  8010       L1    16  1.00
      P1  H 10752 10763       L1    13  0.82

> <Gold.Chemscore.Hbond.Weighted>
-6.4812

> <Gold.Chemscore.Metal.Weighted>
-0.0000

> <Gold.Chemscore.Lipo.Weighted>
-7.8707

> <Gold.Chemscore.Internal_Hbond.Weighted>
0.0000

> <Gold.Chemscore.DEClash.Weighted>
0.0199

> <Gold.Chemscore.DEInternal.Weighted>
1.3963

> <Gold.Chemscore.Rot.Weighted>
5.0955

> <Gold.Chemscore.Internal.Correction.Weighted>
   9.000000E+99

> <Gold.Protein.RotatedTorsions>
[ 6907 6896 6895 6894 ] final -173.18 input  -60.11 | X-H torsion
[ 7974 7965 7964 7962 ] final   44.87 input  175.53 | X-H torsion
[ 8008 7997 7996 7995 ] final   52.79 input   59.86 | X-H torsion
[ 10167 10162 10161 10158 ] final   35.56 input  -65.29 | X-H torsion
[ 10718 10713 10712 10709 ] final   54.07 input   66.30 | X-H torsion
[ 10763 10752 10751 10750 ] final   59.98 input  -60.55 | X-H torsion
[ 11005 11000 10999 10996 ] final   26.74 input  -57.11 | X-H torsion

> <Gold.Protein.ActiveResidues>
 VAL166  LYS551  ARG553  GLY616  TRP617  ASP618  TYR619  PRO620  LYS621  CYS622 
 ASP623  PHE694  ASN695  SER759  ASP760  ASP761  ALA762  ILE779  LEU786  VAL792 
 PHE793  MET794  SER795  GLU796  ALA797  LYS798  CYS799  TRP800  GLU811  SER814 

> <Gold.Protein.RotatedAtoms>
  151.5520  133.3416  159.2954 H   0  0  0  0  0  0  0  0  0  0  0  0  # atno 6907 bound_to 6896
  150.8473  134.7789  159.6992 H   0  0  0  0  0  0  0  0  0  0  0  0  # atno 6908 bound_to 6896
  152.4528  134.5365  159.9878 H   0  0  0  0  0  0  0  0  0  0  0  0  # atno 6909 bound_to 6896
  146.0530  139.5026  142.9706 H   0  0  0  0  0  0  0  0  0  0  0  0  # atno 7974 bound_to 7965
  155.4577  140.3460  155.4308 H   0  0  0  0  0  0  0  0  0  0  0  0  # atno 8008 bound_to 7997
  156.1181  140.1479  156.9274 H   0  0  0  0  0  0  0  0  0  0  0  0  # atno 8009 bound_to 7997
  154.4803  140.0872  156.7341 H   0  0  0  0  0  0  0  0  0  0  0  0  # atno 8010 bound_to 7997
  140.4211  144.1459  150.6148 H   0  0  0  0  0  0  0  0  0  0  0  0  # atno 10167 bound_to 10162
  157.5224  130.8574  149.8576 H   0  0  0  0  0  0  0  0  0  0  0  0  # atno 10718 bound_to 10713
  152.9909  135.5552  154.5800 H   0  0  0  0  0  0  0  0  0  0  0  0  # atno 10763 bound_to 10752
  154.5183  135.2806  155.1286 H   0  0  0  0  0  0  0  0  0  0  0  0  # atno 10764 bound_to 10752
  154.2650  135.6374  153.5341 H   0  0  0  0  0  0  0  0  0  0  0  0  # atno 10765 bound_to 10752
  140.3338  134.2408  155.7699 H   0  0  0  0  0  0  0  0  0  0  0  0  # atno 11005 bound_to 11000
  145.6691  141.0221  143.1667 LP  0  0  0  0  0  0  0  0  0  0  0  0  # atno 17320 bound_to 7965
  144.7133  139.8290  143.7407 LP  0  0  0  0  0  0  0  0  0  0  0  0  # atno 17321 bound_to 7965
  140.4533  143.2478  151.9319 LP  0  0  0  0  0  0  0  0  0  0  0  0  # atno 17342 bound_to 10162
  139.4782  144.5541  151.8341 LP  0  0  0  0  0  0  0  0  0  0  0  0  # atno 17343 bound_to 10162
  156.0363  130.3750  150.1552 LP  0  0  0  0  0  0  0  0  0  0  0  0  # atno 17370 bound_to 10713
  156.9740  130.9843  151.3452 LP  0  0  0  0  0  0  0  0  0  0  0  0  # atno 17371 bound_to 10713
  141.2056  133.7854  157.0221 LP  0  0  0  0  0  0  0  0  0  0  0  0  # atno 17394 bound_to 11000
  140.0838  134.9632  157.1667 LP  0  0  0  0  0  0  0  0  0  0  0  0  # atno 17395 bound_to 11000

$$$$
