AV-unprocessed.smi:701|AV-procd|sdf|3410|dock7
  -GOLD-   22720 0393D 1   1.00000     0.00000
 Structure written by MMmdl.
 49 51  0  0  0  0  0  0  0  0  1 V2000
  151.0106  141.9423  156.1859 C   0  0  0  0  0  0  0  0  0  0  0  0
  150.6461  140.4776  155.9348 C   0  0  0  0  0  0  0  0  0  0  0  0
  149.5457  140.4289  155.0429 O   0  0  0  0  0  0  0  0  0  0  0  0
  148.6034  139.4234  155.3760 C   0  0  2  0  0  0  0  0  0  0  0  0
  148.8391  138.0893  154.6618 C   0  0  0  0  0  0  0  0  0  0  0  0
  147.3167  137.9909  154.5823 C   0  0  2  0  0  0  0  0  0  0  0  0
  146.8558  137.3913  153.3351 N   0  0  0  0  0  0  0  0  0  0  0  0
  145.5663  137.2351  153.0031 C   0  0  0  0  0  0  0  0  0  0  0  0
  144.6365  137.6024  153.7227 O   0  0  0  0  0  0  0  0  0  0  0  0
  145.2874  136.5900  151.6390 C   0  0  0  0  0  0  0  0  0  0  0  0
  145.2073  135.1244  151.7163 N   0  0  0  0  0  0  0  0  0  0  0  0
  145.8676  134.3339  150.7863 C   0  0  0  0  0  0  0  0  0  0  0  0
  145.8221  132.9804  150.7920 C   0  0  0  0  0  0  0  0  0  0  0  0
  145.0522  132.2714  151.8086 C   0  0  0  0  0  0  0  0  0  0  0  0
  144.9508  131.0499  151.8982 O   0  0  0  0  0  0  0  0  0  0  0  0
  144.4011  133.1016  152.7247 N   0  0  0  0  0  0  0  0  0  0  0  0
  144.4421  134.4965  152.7234 C   0  0  0  0  0  0  0  0  0  0  0  0
  143.8257  135.1340  153.5765 O   0  0  0  0  0  0  0  0  0  0  0  0
  147.2460  139.5425  154.6297 C   0  0  0  0  0  0  0  0  0  0  0  0
  147.2537  140.2821  153.2662 C   0  0  0  0  0  0  0  0  0  0  0  0
  147.2963  141.8177  153.3882 C   0  0  0  0  0  0  0  0  0  0  0  0
  146.1645  142.3450  154.2775 C   0  0  0  0  0  0  0  0  0  0  0  0
  146.1493  141.6298  155.6333 C   0  0  0  0  0  0  0  0  0  0  0  0
  146.0744  140.1063  155.4498 C   0  0  0  0  0  0  0  0  0  0  0  0
  143.8537  132.6554  153.4464 H   0  0  0  0  0  0  0  0  0  0  0  0
  151.8553  142.0219  156.8706 H   0  0  0  0  0  0  0  0  0  0  0  0
  150.1722  142.4847  156.6235 H   0  0  0  0  0  0  0  0  0  0  0  0
  151.2846  142.4414  155.2561 H   0  0  0  0  0  0  0  0  0  0  0  0
  151.5023  139.9495  155.5130 H   0  0  0  0  0  0  0  0  0  0  0  0
  150.3883  139.9905  156.8763 H   0  0  0  0  0  0  0  0  0  0  0  0
  148.4705  139.3045  156.4541 H   0  0  0  0  0  0  0  0  0  0  0  0
  149.3293  138.1984  153.6927 H   0  0  0  0  0  0  0  0  0  0  0  0
  149.3152  137.3229  155.2737 H   0  0  0  0  0  0  0  0  0  0  0  0
  146.9042  137.5217  155.4792 H   0  0  0  0  0  0  0  0  0  0  0  0
  147.5614  137.0715  152.6876 H   0  0  0  0  0  0  0  0  0  0  0  0
  144.3524  137.0022  151.2568 H   0  0  0  0  0  0  0  0  0  0  0  0
  146.0496  136.8875  150.9156 H   0  0  0  0  0  0  0  0  0  0  0  0
  146.4463  134.8164  150.0114 H   0  0  0  0  0  0  0  0  0  0  0  0
  146.3565  132.4189  150.0395 H   0  0  0  0  0  0  0  0  0  0  0  0
  148.0958  139.9585  152.6544 H   0  0  0  0  0  0  0  0  0  0  0  0
  146.3618  140.0155  152.6979 H   0  0  0  0  0  0  0  0  0  0  0  0
  148.2544  142.1391  153.7950 H   0  0  0  0  0  0  0  0  0  0  0  0
  147.2260  142.2679  152.3978 H   0  0  0  0  0  0  0  0  0  0  0  0
  146.2709  143.4206  154.4213 H   0  0  0  0  0  0  0  0  0  0  0  0
  145.2078  142.1921  153.7763 H   0  0  0  0  0  0  0  0  0  0  0  0
  147.0467  141.8879  156.1970 H   0  0  0  0  0  0  0  0  0  0  0  0
  145.3011  141.9758  156.2246 H   0  0  0  0  0  0  0  0  0  0  0  0
  145.1290  139.8503  154.9699 H   0  0  0  0  0  0  0  0  0  0  0  0
  146.0386  139.6347  156.4324 H   0  0  0  0  0  0  0  0  0  0  0  0
  1  2  1  0  0  0  0
  1 26  1  0  0  0  0
  1 27  1  0  0  0  0
  1 28  1  0  0  0  0
  2  3  1  0  0  0  0
  2 29  1  0  0  0  0
  2 30  1  0  0  0  0
  3  4  1  0  0  0  0
  4 19  1  0  0  0  0
  4  5  1  0  0  0  0
  4 31  1  0  0  0  0
  5  6  1  0  0  0  0
  5 32  1  0  0  0  0
  5 33  1  0  0  0  0
  6  7  1  0  0  0  0
  6 19  1  0  0  0  0
  6 34  1  0  0  0  0
  7  8  1  0  0  0  0
  7 35  1  0  0  0  0
  8  9  2  0  0  0  0
  8 10  1  0  0  0  0
 10 11  1  0  0  0  0
 10 36  1  0  0  0  0
 10 37  1  0  0  0  0
 11 17  1  0  0  0  0
 11 12  1  0  0  0  0
 12 13  2  0  0  0  0
 12 38  1  0  0  0  0
 13 14  1  0  0  0  0
 13 39  1  0  0  0  0
 14 15  2  0  0  0  0
 14 16  1  0  0  0  0
 16 25  1  0  0  0  0
 16 17  1  0  0  0  0
 17 18  2  0  0  0  0
 19 24  1  0  0  0  0
 19 20  1  0  0  0  0
 20 21  1  0  0  0  0
 20 40  1  0  0  0  0
 20 41  1  0  0  0  0
 21 22  1  0  0  0  0
 21 42  1  0  0  0  0
 21 43  1  0  0  0  0
 22 23  1  0  0  0  0
 22 44  1  0  0  0  0
 22 45  1  0  0  0  0
 23 24  1  0  0  0  0
 23 46  1  0  0  0  0
 23 47  1  0  0  0  0
 24 48  1  0  0  0  0
 24 49  1  0  0  0  0
M  END
> <s_m_source_file>
AV-unprocessed.smi

> <i_m_source_file_index>
701

> <i_lp_mmshare_version>
43012

> <i_f3d_flags>
0

> <s_epik_input>
W0NIMl0xW0NIMl1bQ0gyXVtDSDJdW0NIMl1DMTJbQ0BIXShPW0NIMl1bQ0gzXSlbQ0gyXVtDQEhdMltOSF1DKD1PKVtDSDJdbjNbY0hdW2NIXWMoPU8pW25IXWMzPU8=

> <s_epik_cmdline>
J2VwaWtfcHl0aG9uJywgJy1waCcsICc3LjAnLCAnLXRuJywgJzgnLCAnLW1hJywgJzIwMCcsICctbWV0YWxfYmluZGluZycsICctaW1hZScsICc8aW5maWxlLm1hZT4nLCAnLW9tYWUnLCAnPG91dGZpbGUubWFlPic=

> <r_lp_tautomer_probability>
0.999537

> <r_epik_Ionization_Penalty>
0.00304597

> <r_epik_Ionization_Penalty_Charging>
0.00304595

> <r_epik_Ionization_Penalty_Neutral>
1.88422e-08

> <r_epik_State_Penalty>
0.00214084

> <r_epik_Charging_Adjusted_Penalty>
0.00518679

> <i_epik_Tot_Q>
0

> <i_epik_Tot_abs_Q>
0

> <r_epik_Metal_State_Penalty>
0.361872

> <b_epik_Metal_Only>
0

> <s_lp_Force_Field>
OPLS_2005

> <r_lp_Energy>
27.3359

> <b_lp_Chiralities_Consistent>
1

> <s_lp_Variant>
AV-unprocessed.smi:701-3

> <Gold.Version>
5.8.1

> <Gold.Id.Protein>
6NUR|6NUR_protein|mol2

> <Gold.PLP.Fitness>
37.3523

> <Gold.PLP.PLP>
-30.5069

> <Gold.PLP.part.hbond>
-2.0000

> <Gold.PLP.part.metal>
0.0000

> <Gold.PLP.part.buried>
-6.1257

> <Gold.PLP.part.nonpolar>
-22.8942

> <Gold.PLP.part.repulsive>
0.4696

> <Gold.PLP.ligand.clash>
0.0000

> <Gold.PLP.ligand.torsion>
1.1938

> <Gold.PLP.Chemscore.Hbond>
2.0000

> <Gold.PLP.Chemscore.CHOScore>
0.9695

> <Gold.PLP.Chemscore.Metal>
0.0000

> <Gold.Chemscore.Hbonds>
donor molecule, donor type, donor heavy atom, donor atom, acceptor molecule, acceptor atom, score
      L1  H     7    35       P1  7948  1.00
      L1  H    16    25       P1 10957  1.00
      L1  C    12    38       P1  7921  0.96

> <Gold.PLP.Chemscore.Internal.Correction>
0.3246

> <Gold.Rescore>
     Score         DG    S(hbond)    S(metal)    S(lipo)     H(rot)  DE(clash)    DE(int)     intcor
      9.50     -13.53       1.78        0.00      63.92       2.09       0.15       3.88       ----

> <Gold.Chemscore.Fitness>
9.4991

> <Gold.Chemscore.DG>
-13.5349

> <Gold.Chemscore.ZeroCoef>
-5.4800

> <Gold.Chemscore.Hbond>
1.7770

> <Gold.Chemscore.Metal>
0.0000

> <Gold.Chemscore.Lipo>
63.9177

> <Gold.Chemscore.Internal_Hbond>
0.0000

> <Gold.Chemscore.DEClash>
0.1549

> <Gold.Chemscore.DEInternal>
3.8809

> <Gold.Chemscore.Rot>
2.0933

> <Gold.Chemscore.Internal.Correction>
   9.000000E+99

> <Gold.Chemscore.Hbonds>
donor molecule, donor type, donor heavy atom, donor atom, acceptor molecule, acceptor atom, score
      L1  H     7    35       P1  7948  1.00
      L1  H    16    25       P1 10957  0.44

> <Gold.Chemscore.Hbond.Weighted>
-5.9353

> <Gold.Chemscore.Metal.Weighted>
-0.0000

> <Gold.Chemscore.Lipo.Weighted>
-7.4784

> <Gold.Chemscore.Internal_Hbond.Weighted>
0.0000

> <Gold.Chemscore.DEClash.Weighted>
0.1549

> <Gold.Chemscore.DEInternal.Weighted>
3.8809

> <Gold.Chemscore.Rot.Weighted>
5.3588

> <Gold.Chemscore.Internal.Correction.Weighted>
   9.000000E+99

> <Gold.Protein.RotatedTorsions>
[ 6907 6896 6895 6894 ] final   78.83 input  -60.11 | X-H torsion
[ 7974 7965 7964 7962 ] final -131.64 input  175.53 | X-H torsion
[ 8008 7997 7996 7995 ] final  153.14 input   59.86 | X-H torsion
[ 10167 10162 10161 10158 ] final  -38.00 input  -65.29 | X-H torsion
[ 10718 10713 10712 10709 ] final  -97.32 input   66.30 | X-H torsion
[ 10763 10752 10751 10750 ] final  -82.76 input  -60.55 | X-H torsion
[ 11005 11000 10999 10996 ] final    9.85 input  -57.11 | X-H torsion

> <Gold.Protein.ActiveResidues>
 VAL166  LYS551  ARG553  GLY616  TRP617  ASP618  TYR619  PRO620  LYS621  CYS622 
 ASP623  PHE694  ASN695  SER759  ASP760  ASP761  ALA762  ILE779  LEU786  VAL792 
 PHE793  MET794  SER795  GLU796  ALA797  LYS798  CYS799  TRP800  GLU811  SER814 

> <Gold.Protein.RotatedAtoms>
  152.5175  134.3605  159.9282 H   0  0  0  0  0  0  0  0  0  0  0  0  # atno 6907 bound_to 6896
  151.3557  133.3902  159.2692 H   0  0  0  0  0  0  0  0  0  0  0  0  # atno 6908 bound_to 6896
  150.9692  134.9086  159.7835 H   0  0  0  0  0  0  0  0  0  0  0  0  # atno 6909 bound_to 6896
  144.9360  140.7184  143.4876 H   0  0  0  0  0  0  0  0  0  0  0  0  # atno 7974 bound_to 7965
  156.2596  140.2001  156.6444 H   0  0  0  0  0  0  0  0  0  0  0  0  # atno 8008 bound_to 7997
  154.6585  140.0563  157.0060 H   0  0  0  0  0  0  0  0  0  0  0  0  # atno 8009 bound_to 7997
  155.1312  140.3234  155.4476 H   0  0  0  0  0  0  0  0  0  0  0  0  # atno 8010 bound_to 7997
  140.7104  143.3306  151.2579 H   0  0  0  0  0  0  0  0  0  0  0  0  # atno 10167 bound_to 10162
  156.0081  130.5189  150.6357 H   0  0  0  0  0  0  0  0  0  0  0  0  # atno 10718 bound_to 10713
  154.5796  135.5580  153.7172 H   0  0  0  0  0  0  0  0  0  0  0  0  # atno 10763 bound_to 10752
  153.0076  135.6317  154.2001 H   0  0  0  0  0  0  0  0  0  0  0  0  # atno 10764 bound_to 10752
  154.1942  135.2881  155.2992 H   0  0  0  0  0  0  0  0  0  0  0  0  # atno 10765 bound_to 10752
  140.5211  134.0558  155.7845 H   0  0  0  0  0  0  0  0  0  0  0  0  # atno 11005 bound_to 11000
  145.3066  139.1832  143.4661 LP  0  0  0  0  0  0  0  0  0  0  0  0  # atno 17320 bound_to 7965
  146.3267  140.3064  142.8624 LP  0  0  0  0  0  0  0  0  0  0  0  0  # atno 17321 bound_to 7965
  139.6786  143.9893  152.2795 LP  0  0  0  0  0  0  0  0  0  0  0  0  # atno 17342 bound_to 10162
  139.9516  144.6617  150.8166 LP  0  0  0  0  0  0  0  0  0  0  0  0  # atno 17343 bound_to 10162
  157.4147  131.0828  151.1188 LP  0  0  0  0  0  0  0  0  0  0  0  0  # atno 17370 bound_to 10713
  157.1808  130.6309  149.5671 LP  0  0  0  0  0  0  0  0  0  0  0  0  # atno 17371 bound_to 10713
  141.1333  133.9264  157.2488 LP  0  0  0  0  0  0  0  0  0  0  0  0  # atno 17394 bound_to 11000
  139.9605  135.0155  156.9248 LP  0  0  0  0  0  0  0  0  0  0  0  0  # atno 17395 bound_to 11000

$$$$
