AV-unprocessed.smi:1815|AV-procd|sdf|7358|dock5
  -GOLD-   22720 9 23D 1   1.00000     0.00000
 Structure written by MMmdl.
 38 39  0  0  0  0  0  0  0  0  2 V2000
  153.0746  142.7295  160.6352 C   0  0  0  0  0  0  0  0  0  0  0  0
  152.2688  142.3342  159.3935 C   0  0  1  0  0  0  0  0  0  0  0  0
  152.1353  140.8068  159.2481 C   0  0  0  0  0  0  0  0  0  0  0  0
  151.3058  140.4363  158.1074 N   0  0  0  0  0  0  0  0  0  0  0  0
  151.2041  138.9826  157.9864 C   0  0  0  0  0  0  0  0  0  0  0  0
  149.8903  138.4704  157.3750 C   0  0  0  0  0  0  0  0  0  0  0  0
  148.8969  138.2613  158.4194 N   0  0  0  0  0  0  0  0  0  0  0  0
  148.7791  137.1529  159.1626 C   0  0  0  0  0  0  0  0  0  0  0  0
  149.5527  136.2092  158.9838 O   0  0  0  0  0  0  0  0  0  0  0  0
  147.7730  137.2063  160.0652 N   0  5  0  0  0  0  0  0  0  0  0  0
  147.6000  136.2020  160.9400 C   0  0  0  0  0  0  0  0  0  0  0  0
  147.6671  134.9122  160.5908 N   0  0  0  0  0  0  0  0  0  0  0  0
  147.4640  134.0361  161.6583 C   0  0  0  0  0  0  0  0  0  0  0  0
  147.2460  134.6735  162.8506 C   0  0  0  0  0  0  0  0  0  0  0  0
  147.2902  136.4038  162.6671 S   0  0  0  0  0  0  0  0  0  0  0  0
  150.0021  141.0815  158.2422 C   0  0  0  0  0  0  0  0  0  0  0  0
  150.1277  142.6101  158.3911 C   0  0  1  0  0  0  0  0  0  0  0  0
  148.7708  143.2841  158.6214 C   0  0  0  0  0  0  0  0  0  0  0  0
  150.9682  142.9055  159.5033 O   0  0  0  0  0  0  0  0  0  0  0  0
  154.0838  142.3194  160.5942 H   0  0  0  0  0  0  0  0  0  0  0  0
  152.6004  142.3636  161.5464 H   0  0  0  0  0  0  0  0  0  0  0  0
  153.1589  143.8134  160.7156 H   0  0  0  0  0  0  0  0  0  0  0  0
  152.7622  142.7436  158.5102 H   0  0  0  0  0  0  0  0  0  0  0  0
  153.1274  140.3674  159.1390 H   0  0  0  0  0  0  0  0  0  0  0  0
  151.7101  140.3909  160.1632 H   0  0  0  0  0  0  0  0  0  0  0  0
  152.0199  138.6272  157.3550 H   0  0  0  0  0  0  0  0  0  0  0  0
  151.3585  138.5200  158.9627 H   0  0  0  0  0  0  0  0  0  0  0  0
  149.4876  139.1826  156.6546 H   0  0  0  0  0  0  0  0  0  0  0  0
  150.0664  137.5327  156.8455 H   0  0  0  0  0  0  0  0  0  0  0  0
  148.2475  139.0136  158.5951 H   0  0  0  0  0  0  0  0  0  0  0  0
  147.4923  132.9717  161.4782 H   0  0  0  0  0  0  0  0  0  0  0  0
  147.0642  134.2346  163.8197 H   0  0  0  0  0  0  0  0  0  0  0  0
  149.3836  140.8674  157.3714 H   0  0  0  0  0  0  0  0  0  0  0  0
  149.4771  140.6730  159.1072 H   0  0  0  0  0  0  0  0  0  0  0  0
  150.5774  143.0279  157.4888 H   0  0  0  0  0  0  0  0  0  0  0  0
  148.0933  143.0973  157.7881 H   0  0  0  0  0  0  0  0  0  0  0  0
  148.8843  144.3638  158.7219 H   0  0  0  0  0  0  0  0  0  0  0  0
  148.2953  142.9137  159.5298 H   0  0  0  0  0  0  0  0  0  0  0  0
  1  2  1  0  0  0  0
  1 20  1  0  0  0  0
  1 21  1  0  0  0  0
  1 22  1  0  0  0  0
  2 19  1  0  0  0  0
  2  3  1  0  0  0  0
  2 23  1  0  0  0  0
  3  4  1  0  0  0  0
  3 24  1  0  0  0  0
  3 25  1  0  0  0  0
  4  5  1  0  0  0  0
  4 16  1  0  0  0  0
  5  6  1  0  0  0  0
  5 26  1  0  0  0  0
  5 27  1  0  0  0  0
  6  7  1  0  0  0  0
  6 28  1  0  0  0  0
  6 29  1  0  0  0  0
  7  8  1  0  0  0  0
  7 30  1  0  0  0  0
  8  9  2  0  0  0  0
  8 10  1  0  0  0  0
 10 11  1  0  0  0  0
 11 15  1  0  0  0  0
 11 12  2  0  0  0  0
 12 13  1  0  0  0  0
 13 14  2  0  0  0  0
 13 31  1  0  0  0  0
 14 15  1  0  0  0  0
 14 32  1  0  0  0  0
 16 17  1  0  0  0  0
 16 33  1  0  0  0  0
 16 34  1  0  0  0  0
 17 18  1  0  0  0  0
 17 19  1  0  0  0  0
 17 35  1  0  0  0  0
 18 36  1  0  0  0  0
 18 37  1  0  0  0  0
 18 38  1  0  0  0  0
M  CHG  1  10  -1
M  END
> <s_m_source_file>
AV-unprocessed.smi

> <i_m_source_file_index>
1815

> <i_lp_mmshare_version>
43012

> <i_f3d_flags>
0

> <s_epik_input>
W0NIM11bQ0BASF0xW0NIMl1OKFtDSDJdW0NASF0oTzEpW0NIM10pW0NIMl1bQ0gyXVtOSF1DKD1PKVtOSF1jMm5bY0hdW2NIXXMy

> <s_epik_cmdline>
J2VwaWtfcHl0aG9uJywgJy1waCcsICc3LjAnLCAnLXRuJywgJzgnLCAnLW1hJywgJzIwMCcsICctbWV0YWxfYmluZGluZycsICctaW1hZScsICc8aW5maWxlLm1hZT4nLCAnLW9tYWUnLCAnPG91dGZpbGUubWFlPic=

> <r_lp_tautomer_probability>
0.999

> <r_epik_Ionization_Penalty>
7.22374

> <r_epik_Ionization_Penalty_Charging>
5.82415

> <r_epik_Ionization_Penalty_Neutral>
1.39959

> <r_epik_State_Penalty>
6.03347

> <r_epik_Charging_Adjusted_Penalty>
11.8576

> <i_epik_Tot_Q>
-1

> <i_epik_Tot_abs_Q>
1

> <r_epik_Metal_State_Penalty>
2.01024

> <b_epik_Metal_Only>
1

> <s_lp_Force_Field>
OPLS_2005

> <r_lp_Energy>
15.5459

> <b_lp_Chiralities_Consistent>
1

> <s_lp_Variant>
AV-unprocessed.smi:1815-9

> <Gold.Version>
5.8.1

> <Gold.Id.Protein>
6NUR|6NUR_protein|mol2

> <Gold.PLP.Fitness>
40.5848

> <Gold.PLP.PLP>
-34.7944

> <Gold.PLP.part.hbond>
-3.2664

> <Gold.PLP.part.metal>
0.0000

> <Gold.PLP.part.buried>
-4.5592

> <Gold.PLP.part.nonpolar>
-27.5122

> <Gold.PLP.part.repulsive>
0.1991

> <Gold.PLP.ligand.clash>
0.0000

> <Gold.PLP.ligand.torsion>
1.1294

> <Gold.PLP.Chemscore.Hbond>
2.6749

> <Gold.PLP.Chemscore.CHOScore>
0.0000

> <Gold.PLP.Chemscore.Metal>
0.0000

> <Gold.Chemscore.Hbonds>
donor molecule, donor type, donor heavy atom, donor atom, acceptor molecule, acceptor atom, score
      P1  H  6896  6907       L1     9  0.99
      P1  H  6934  6947       L1    10  1.43

> <Gold.PLP.Chemscore.Internal.Correction>
0.0244

> <Gold.Rescore>
     Score         DG    S(hbond)    S(metal)    S(lipo)     H(rot)  DE(clash)    DE(int)     intcor
     13.25     -16.37       1.72        0.00      78.32       1.57       0.00       3.12       ----

> <Gold.Chemscore.Fitness>
13.2520

> <Gold.Chemscore.DG>
-16.3711

> <Gold.Chemscore.ZeroCoef>
-5.4800

> <Gold.Chemscore.Hbond>
1.7188

> <Gold.Chemscore.Metal>
0.0000

> <Gold.Chemscore.Lipo>
78.3202

> <Gold.Chemscore.Internal_Hbond>
0.0000

> <Gold.Chemscore.DEClash>
0.0000

> <Gold.Chemscore.DEInternal>
3.1192

> <Gold.Chemscore.Rot>
1.5676

> <Gold.Chemscore.Internal.Correction>
   9.000000E+99

> <Gold.Chemscore.Hbonds>
donor molecule, donor type, donor heavy atom, donor atom, acceptor molecule, acceptor atom, score
      P1  H  6896  6907       L1     9  0.92
      P1  H  6934  6947       L1    10  0.54

> <Gold.Chemscore.Hbond.Weighted>
-5.7407

> <Gold.Chemscore.Metal.Weighted>
-0.0000

> <Gold.Chemscore.Lipo.Weighted>
-9.1635

> <Gold.Chemscore.Internal_Hbond.Weighted>
0.0000

> <Gold.Chemscore.DEClash.Weighted>
0.0000

> <Gold.Chemscore.DEInternal.Weighted>
3.1192

> <Gold.Chemscore.Rot.Weighted>
4.0130

> <Gold.Chemscore.Internal.Correction.Weighted>
   9.000000E+99

> <Gold.Protein.RotatedTorsions>
[ 6907 6896 6895 6894 ] final  -68.05 input  -60.11 | X-H torsion
[ 7974 7965 7964 7962 ] final   78.31 input  175.53 | X-H torsion
[ 8008 7997 7996 7995 ] final  -76.14 input   59.86 | X-H torsion
[ 10167 10162 10161 10158 ] final  -89.56 input  -65.29 | X-H torsion
[ 10718 10713 10712 10709 ] final   43.87 input   66.30 | X-H torsion
[ 10763 10752 10751 10750 ] final    8.37 input  -60.55 | X-H torsion
[ 11005 11000 10999 10996 ] final  -38.35 input  -57.11 | X-H torsion

> <Gold.Protein.ActiveResidues>
 VAL166  LYS551  ARG553  GLY616  TRP617  ASP618  TYR619  PRO620  LYS621  CYS622 
 ASP623  PHE694  ASN695  SER759  ASP760  ASP761  ALA762  ILE779  LEU786  VAL792 
 PHE793  MET794  SER795  GLU796  ALA797  LYS798  CYS799  TRP800  GLU811  SER814 

> <Gold.Protein.RotatedAtoms>
  150.7377  134.5794  159.5930 H   0  0  0  0  0  0  0  0  0  0  0  0  # atno 6907 bound_to 6896
  152.3212  134.7375  160.0322 H   0  0  0  0  0  0  0  0  0  0  0  0  # atno 6908 bound_to 6896
  151.7890  133.3321  159.3530 H   0  0  0  0  0  0  0  0  0  0  0  0  # atno 6909 bound_to 6896
  145.6788  139.2518  143.1826 H   0  0  0  0  0  0  0  0  0  0  0  0  # atno 7974 bound_to 7965
  154.5478  140.0732  156.8618 H   0  0  0  0  0  0  0  0  0  0  0  0  # atno 8008 bound_to 7997
  155.3052  140.3386  155.4228 H   0  0  0  0  0  0  0  0  0  0  0  0  # atno 8009 bound_to 7997
  156.1934  140.1694  156.8032 H   0  0  0  0  0  0  0  0  0  0  0  0  # atno 8010 bound_to 7997
  140.3636  143.2829  151.9585 H   0  0  0  0  0  0  0  0  0  0  0  0  # atno 10167 bound_to 10162
  157.4207  130.7967  149.7513 H   0  0  0  0  0  0  0  0  0  0  0  0  # atno 10718 bound_to 10713
  153.2258  135.6887  153.7946 H   0  0  0  0  0  0  0  0  0  0  0  0  # atno 10763 bound_to 10752
  153.7128  135.3279  155.3251 H   0  0  0  0  0  0  0  0  0  0  0  0  # atno 10764 bound_to 10752
  154.8291  135.4594  154.1124 H   0  0  0  0  0  0  0  0  0  0  0  0  # atno 10765 bound_to 10752
  141.0021  133.6950  156.2042 H   0  0  0  0  0  0  0  0  0  0  0  0  # atno 11005 bound_to 11000
  146.0982  140.7575  142.9562 LP  0  0  0  0  0  0  0  0  0  0  0  0  # atno 17320 bound_to 7965
  144.7033  140.3745  143.7139 LP  0  0  0  0  0  0  0  0  0  0  0  0  # atno 17321 bound_to 7965
  139.4811  144.5971  151.7672 LP  0  0  0  0  0  0  0  0  0  0  0  0  # atno 17342 bound_to 10162
  140.5103  144.1035  150.5993 LP  0  0  0  0  0  0  0  0  0  0  0  0  # atno 17343 bound_to 10162
  155.9880  130.3963  150.3140 LP  0  0  0  0  0  0  0  0  0  0  0  0  # atno 17370 bound_to 10713
  157.1288  131.0266  151.2978 LP  0  0  0  0  0  0  0  0  0  0  0  0  # atno 17371 bound_to 10713
  140.6872  134.4705  157.5589 LP  0  0  0  0  0  0  0  0  0  0  0  0  # atno 17394 bound_to 11000
  139.9044  134.8482  156.1764 LP  0  0  0  0  0  0  0  0  0  0  0  0  # atno 17395 bound_to 11000

$$$$
