AV-unprocessed.smi:2675|AV-procd|sdf|10360|dock1
  -GOLD-   2272014383D 1   1.00000     0.00000
 Structure written by MMmdl.
 37 38  0  0  0  0  0  0  0  0  2 V2000
  151.8029  145.3312  158.5826 C   0  0  0  0  0  0  0  0  0  0  0  0
  151.5688  143.8624  158.4626 C   0  0  0  0  0  0  0  0  0  0  0  0
  150.8126  143.3347  157.4498 N   0  3  0  0  0  0  0  0  0  0  0  0
  150.7473  142.0071  157.5551 C   0  0  0  0  0  0  0  0  0  0  0  0
  151.4589  141.6696  158.6365 N   0  0  0  0  0  0  0  0  0  0  0  0
  151.5873  140.2706  159.0691 C   0  0  0  0  0  0  0  0  0  0  0  0
  152.2348  139.4240  157.9740 C   0  0  0  0  0  0  0  0  0  0  0  0
  153.4176  139.1025  158.0719 O   0  0  0  0  0  0  0  0  0  0  0  0
  151.4308  139.0454  156.9655 N   0  0  0  0  0  0  0  0  0  0  0  0
  151.7377  138.1563  155.8376 C   0  0  1  0  0  0  0  0  0  0  0  0
  153.0233  138.7073  155.1992 C   0  0  0  0  0  0  0  0  0  0  0  0
  152.0128  136.7759  156.2831 C   0  0  0  0  0  0  0  0  0  0  0  0
  152.2311  135.6939  156.6311 N   0  0  0  0  0  0  0  0  0  0  0  0
  150.6524  138.0878  154.7604 C   0  0  0  0  0  0  0  0  0  0  0  0
  149.7105  139.2400  154.4885 C   0  0  0  0  0  0  0  0  0  0  0  0
  149.1742  137.9424  155.0508 C   0  0  0  0  0  0  0  0  0  0  0  0
  151.9866  142.7967  159.2279 C   0  0  0  0  0  0  0  0  0  0  0  0
  152.8299  142.7485  160.4616 C   0  0  0  0  0  0  0  0  0  0  0  0
  152.3964  145.5594  159.4675 H   0  0  0  0  0  0  0  0  0  0  0  0
  150.8521  145.8588  158.6609 H   0  0  0  0  0  0  0  0  0  0  0  0
  152.3352  145.6999  157.7055 H   0  0  0  0  0  0  0  0  0  0  0  0
  150.2171  141.3400  156.8989 H   0  0  0  0  0  0  0  0  0  0  0  0
  152.1778  140.2397  159.9863 H   0  0  0  0  0  0  0  0  0  0  0  0
  150.5979  139.8823  159.3115 H   0  0  0  0  0  0  0  0  0  0  0  0
  150.4818  139.3884  156.9938 H   0  0  0  0  0  0  0  0  0  0  0  0
  153.3446  138.0903  154.3591 H   0  0  0  0  0  0  0  0  0  0  0  0
  153.8446  138.7308  155.9170 H   0  0  0  0  0  0  0  0  0  0  0  0
  152.8805  139.7220  154.8253 H   0  0  0  0  0  0  0  0  0  0  0  0
  150.9850  137.5466  153.8759 H   0  0  0  0  0  0  0  0  0  0  0  0
  149.7373  140.0994  155.1551 H   0  0  0  0  0  0  0  0  0  0  0  0
  149.4872  139.4680  153.4483 H   0  0  0  0  0  0  0  0  0  0  0  0
  148.5960  137.3088  154.3813 H   0  0  0  0  0  0  0  0  0  0  0  0
  148.8289  137.9546  156.0805 H   0  0  0  0  0  0  0  0  0  0  0  0
  153.1738  143.7454  160.7352 H   0  0  0  0  0  0  0  0  0  0  0  0
  153.7052  142.1200  160.2986 H   0  0  0  0  0  0  0  0  0  0  0  0
  152.2574  142.3436  161.2961 H   0  0  0  0  0  0  0  0  0  0  0  0
  150.3626  143.8754  156.7219 H   0  0  0  0  0  0  0  0  0  0  0  0
  1  2  1  0  0  0  0
  1 19  1  0  0  0  0
  1 20  1  0  0  0  0
  1 21  1  0  0  0  0
  2 17  2  0  0  0  0
  2  3  1  0  0  0  0
  3  4  2  0  0  0  0
  3 37  1  0  0  0  0
  4  5  1  0  0  0  0
  4 22  1  0  0  0  0
  5  6  1  0  0  0  0
  5 17  1  0  0  0  0
  6  7  1  0  0  0  0
  6 23  1  0  0  0  0
  6 24  1  0  0  0  0
  7  8  2  0  0  0  0
  7  9  1  0  0  0  0
  9 10  1  0  0  0  0
  9 25  1  0  0  0  0
 10 11  1  0  0  0  0
 10 12  1  0  0  0  0
 10 14  1  0  0  0  0
 11 26  1  0  0  0  0
 11 27  1  0  0  0  0
 11 28  1  0  0  0  0
 12 13  3  0  0  0  0
 14 16  1  0  0  0  0
 14 15  1  0  0  0  0
 14 29  1  0  0  0  0
 15 16  1  0  0  0  0
 15 30  1  0  0  0  0
 15 31  1  0  0  0  0
 16 32  1  0  0  0  0
 16 33  1  0  0  0  0
 17 18  1  0  0  0  0
 18 34  1  0  0  0  0
 18 35  1  0  0  0  0
 18 36  1  0  0  0  0
M  CHG  1   3   1
M  END
> <s_m_source_file>
AV-unprocessed.smi

> <i_m_source_file_index>
2675

> <i_lp_mmshare_version>
43012

> <i_f3d_flags>
0

> <s_epik_input>
W0NIM11jMW5bY0hdbihjMVtDSDNdKVtDSDJdQyg9TylbTkhdW0NAQF0oW0NIM10pKEMjTilbQ0hdMltDSDJdW0NIMl0y

> <s_epik_cmdline>
J2VwaWtfcHl0aG9uJywgJy1waCcsICc3LjAnLCAnLXRuJywgJzgnLCAnLW1hJywgJzIwMCcsICctbWV0YWxfYmluZGluZycsICctaW1hZScsICc8aW5maWxlLm1hZT4nLCAnLW9tYWUnLCAnPG91dGZpbGUubWFlPic=

> <r_lp_tautomer_probability>
1

> <r_epik_Ionization_Penalty>
0.153253

> <r_epik_Ionization_Penalty_Charging>
0

> <r_epik_Ionization_Penalty_Neutral>
0.153253

> <r_epik_State_Penalty>
0.14254

> <r_epik_Charging_Adjusted_Penalty>
0.14254

> <i_epik_Tot_Q>
1

> <i_epik_Tot_abs_Q>
1

> <r_epik_Metal_State_Penalty>
0.466899

> <b_epik_Metal_Only>
0

> <s_lp_Force_Field>
OPLS_2005

> <r_lp_Energy>
18.2007

> <b_lp_Chiralities_Consistent>
1

> <s_lp_Variant>
AV-unprocessed.smi:2675-1

> <Gold.Version>
5.8.1

> <Gold.Id.Protein>
6NUR|6NUR_protein|mol2

> <Gold.PLP.Fitness>
49.9702

> <Gold.PLP.PLP>
-38.6949

> <Gold.PLP.part.hbond>
-3.0000

> <Gold.PLP.part.metal>
0.0000

> <Gold.PLP.part.buried>
-3.3380

> <Gold.PLP.part.nonpolar>
-32.6900

> <Gold.PLP.part.repulsive>
0.1026

> <Gold.PLP.ligand.clash>
0.0000

> <Gold.PLP.ligand.torsion>
1.0819

> <Gold.PLP.Chemscore.Hbond>
3.9666

> <Gold.PLP.Chemscore.CHOScore>
0.0000

> <Gold.PLP.Chemscore.Metal>
0.0000

> <Gold.Chemscore.Hbonds>
donor molecule, donor type, donor heavy atom, donor atom, acceptor molecule, acceptor atom, score
      L1  H     3    37       P1  8028  2.00
      P1  H  7997  8009       L1     8  1.00
      P1  H 10752 10763       L1    13  0.24

> <Gold.PLP.Chemscore.Internal.Correction>
1.5392

> <Gold.Rescore>
     Score         DG    S(hbond)    S(metal)    S(lipo)     H(rot)  DE(clash)    DE(int)     intcor
     16.69     -19.53       2.83        0.00      78.69       1.80       0.29       2.55       ----

> <Gold.Chemscore.Fitness>
16.6912

> <Gold.Chemscore.DG>
-19.5307

> <Gold.Chemscore.ZeroCoef>
-5.4800

> <Gold.Chemscore.Hbond>
2.8263

> <Gold.Chemscore.Metal>
0.0000

> <Gold.Chemscore.Lipo>
78.6949

> <Gold.Chemscore.Internal_Hbond>
0.0000

> <Gold.Chemscore.DEClash>
0.2857

> <Gold.Chemscore.DEInternal>
2.5537

> <Gold.Chemscore.Rot>
1.7955

> <Gold.Chemscore.Internal.Correction>
   9.000000E+99

> <Gold.Chemscore.Hbonds>
donor molecule, donor type, donor heavy atom, donor atom, acceptor molecule, acceptor atom, score
      L1  H     3    37       P1  8028  0.96
      P1  H  7997  8009       L1     8  0.96

> <Gold.Chemscore.Hbond.Weighted>
-9.4399

> <Gold.Chemscore.Metal.Weighted>
-0.0000

> <Gold.Chemscore.Lipo.Weighted>
-9.2073

> <Gold.Chemscore.Internal_Hbond.Weighted>
0.0000

> <Gold.Chemscore.DEClash.Weighted>
0.2857

> <Gold.Chemscore.DEInternal.Weighted>
2.5537

> <Gold.Chemscore.Rot.Weighted>
4.5965

> <Gold.Chemscore.Internal.Correction.Weighted>
   9.000000E+99

> <Gold.Protein.RotatedTorsions>
[ 6907 6896 6895 6894 ] final  -33.60 input  -60.11 | X-H torsion
[ 7974 7965 7964 7962 ] final  -72.66 input  175.53 | X-H torsion
[ 8008 7997 7996 7995 ] final  150.52 input   59.86 | X-H torsion
[ 10167 10162 10161 10158 ] final   33.78 input  -65.29 | X-H torsion
[ 10718 10713 10712 10709 ] final   46.24 input   66.30 | X-H torsion
[ 10763 10752 10751 10750 ] final   80.08 input  -60.55 | X-H torsion
[ 11005 11000 10999 10996 ] final  137.32 input  -57.11 | X-H torsion

> <Gold.Protein.ActiveResidues>
 VAL166  LYS551  ARG553  GLY616  TRP617  ASP618  TYR619  PRO620  LYS621  CYS622 
 ASP623  PHE694  ASN695  SER759  ASP760  ASP761  ALA762  ILE779  LEU786  VAL792 
 PHE793  MET794  SER795  GLU796  ALA797  LYS798  CYS799  TRP800  GLU811  SER814 

> <Gold.Protein.RotatedAtoms>
  151.0635  134.9752  159.8272 H   0  0  0  0  0  0  0  0  0  0  0  0  # atno 6907 bound_to 6896
  152.5399  134.2387  159.8863 H   0  0  0  0  0  0  0  0  0  0  0  0  # atno 6908 bound_to 6896
  151.2409  133.4357  159.2641 H   0  0  0  0  0  0  0  0  0  0  0  0  # atno 6909 bound_to 6896
  145.6623  140.9249  143.0927 H   0  0  0  0  0  0  0  0  0  0  0  0  # atno 7974 bound_to 7965
  156.2712  140.2072  156.6031 H   0  0  0  0  0  0  0  0  0  0  0  0  # atno 8008 bound_to 7997
  154.6891  140.0532  157.0369 H   0  0  0  0  0  0  0  0  0  0  0  0  # atno 8009 bound_to 7997
  155.0892  140.3194  155.4581 H   0  0  0  0  0  0  0  0  0  0  0  0  # atno 8010 bound_to 7997
  140.4375  144.1235  150.6168 H   0  0  0  0  0  0  0  0  0  0  0  0  # atno 10167 bound_to 10162
  157.4460  130.8110  149.7741 H   0  0  0  0  0  0  0  0  0  0  0  0  # atno 10718 bound_to 10713
  153.1004  135.4816  154.8857 H   0  0  0  0  0  0  0  0  0  0  0  0  # atno 10763 bound_to 10752
  154.7373  135.3074  154.8792 H   0  0  0  0  0  0  0  0  0  0  0  0  # atno 10764 bound_to 10752
  153.9411  135.6834  153.4797 H   0  0  0  0  0  0  0  0  0  0  0  0  # atno 10765 bound_to 10752
  140.0106  134.9440  157.0269 H   0  0  0  0  0  0  0  0  0  0  0  0  # atno 11005 bound_to 11000
  144.7085  139.8464  143.7422 LP  0  0  0  0  0  0  0  0  0  0  0  0  # atno 17320 bound_to 7965
  146.1115  139.4121  143.0284 LP  0  0  0  0  0  0  0  0  0  0  0  0  # atno 17321 bound_to 7965
  140.4356  143.2549  151.9539 LP  0  0  0  0  0  0  0  0  0  0  0  0  # atno 17342 bound_to 10162
  139.4788  144.5703  151.8099 LP  0  0  0  0  0  0  0  0  0  0  0  0  # atno 17343 bound_to 10162
  155.9968  130.3904  150.2766 LP  0  0  0  0  0  0  0  0  0  0  0  0  # atno 17370 bound_to 10713
  157.0934  131.0176  151.3113 LP  0  0  0  0  0  0  0  0  0  0  0  0  # atno 17371 bound_to 10713
  140.4562  134.1531  155.7186 LP  0  0  0  0  0  0  0  0  0  0  0  0  # atno 17394 bound_to 11000
  141.1708  133.8612  157.1576 LP  0  0  0  0  0  0  0  0  0  0  0  0  # atno 17395 bound_to 11000

$$$$
