AV-unprocessed.smi:3280|AV-procd|sdf|12554|dock2
  -GOLD-   2272018473D 1   1.00000     0.00000
 Structure written by MMmdl.
 38 39  0  0  0  0  0  0  0  0  1 V2000
  153.8254  139.0440  154.3980 C   0  0  0  0  0  0  0  0  0  0  0  0
  152.6203  138.2516  154.9257 C   0  0  0  0  0  0  0  0  0  0  0  0
  151.2825  138.9690  154.6911 C   0  0  0  0  0  0  0  0  0  0  0  0
  152.7999  137.8644  156.3617 C   0  0  0  0  0  0  0  0  0  0  0  0
  152.7018  136.5984  156.7510 N   0  0  0  0  0  0  0  0  0  0  0  0
  152.9547  136.6609  158.1288 O   0  0  0  0  0  0  0  0  0  0  0  0
  153.1585  137.9706  158.4081 C   0  0  0  0  0  0  0  0  0  0  0  0
  153.5092  138.3643  159.8036 C   0  0  0  0  0  0  0  0  0  0  0  0
  154.0000  139.8150  159.8893 C   0  0  0  0  0  0  0  0  0  0  0  0
  153.0018  140.7057  159.3134 N   0  0  0  0  0  0  0  0  0  0  0  0
  153.0771  142.0494  159.8764 C   0  0  2  0  0  0  0  0  0  0  0  0
  152.7057  142.0377  161.3771 C   0  0  0  0  0  0  0  0  0  0  0  0
  152.7765  143.4356  162.0128 C   0  0  0  0  0  0  0  0  0  0  0  0
  151.8123  144.4316  161.3545 C   0  0  0  0  0  0  0  0  0  0  0  0
  152.2184  144.6751  159.6048 S   0  0  0  0  0  0  0  0  0  0  0  0
  152.1217  142.9458  159.0672 C   0  0  0  0  0  0  0  0  0  0  0  0
  153.0903  138.7647  157.3429 N   0  0  0  0  0  0  0  0  0  0  0  0
  154.7494  138.4771  154.5166 H   0  0  0  0  0  0  0  0  0  0  0  0
  153.9435  139.9886  154.9302 H   0  0  0  0  0  0  0  0  0  0  0  0
  153.7117  139.2722  153.3381 H   0  0  0  0  0  0  0  0  0  0  0  0
  152.5803  137.3293  154.3435 H   0  0  0  0  0  0  0  0  0  0  0  0
  150.4440  138.3503  155.0128 H   0  0  0  0  0  0  0  0  0  0  0  0
  151.1393  139.1953  153.6343 H   0  0  0  0  0  0  0  0  0  0  0  0
  151.2337  139.9093  155.2411 H   0  0  0  0  0  0  0  0  0  0  0  0
  152.6314  138.2226  160.4356 H   0  0  0  0  0  0  0  0  0  0  0  0
  154.2767  137.6829  160.1735 H   0  0  0  0  0  0  0  0  0  0  0  0
  154.1899  140.0753  160.9301 H   0  0  0  0  0  0  0  0  0  0  0  0
  154.9412  139.9178  159.3475 H   0  0  0  0  0  0  0  0  0  0  0  0
  153.1561  140.7599  158.3165 H   0  0  0  0  0  0  0  0  0  0  0  0
  154.0916  142.4307  159.7488 H   0  0  0  0  0  0  0  0  0  0  0  0
  151.7032  141.6282  161.5089 H   0  0  0  0  0  0  0  0  0  0  0  0
  153.3762  141.3826  161.9323 H   0  0  0  0  0  0  0  0  0  0  0  0
  152.5416  143.3581  163.0747 H   0  0  0  0  0  0  0  0  0  0  0  0
  153.7968  143.8161  161.9533 H   0  0  0  0  0  0  0  0  0  0  0  0
  150.7843  144.0767  161.4358 H   0  0  0  0  0  0  0  0  0  0  0  0
  151.8598  145.3952  161.8620 H   0  0  0  0  0  0  0  0  0  0  0  0
  152.3673  142.9085  158.0052 H   0  0  0  0  0  0  0  0  0  0  0  0
  151.0908  142.6040  159.1692 H   0  0  0  0  0  0  0  0  0  0  0  0
  1  2  1  0  0  0  0
  1 18  1  0  0  0  0
  1 19  1  0  0  0  0
  1 20  1  0  0  0  0
  2  3  1  0  0  0  0
  2  4  1  0  0  0  0
  2 21  1  0  0  0  0
  3 22  1  0  0  0  0
  3 23  1  0  0  0  0
  3 24  1  0  0  0  0
  4 17  1  0  0  0  0
  4  5  2  0  0  0  0
  5  6  1  0  0  0  0
  6  7  1  0  0  0  0
  7  8  1  0  0  0  0
  7 17  2  0  0  0  0
  8  9  1  0  0  0  0
  8 25  1  0  0  0  0
  8 26  1  0  0  0  0
  9 10  1  0  0  0  0
  9 27  1  0  0  0  0
  9 28  1  0  0  0  0
 10 11  1  0  0  0  0
 10 29  1  0  0  0  0
 11 16  1  0  0  0  0
 11 12  1  0  0  0  0
 11 30  1  0  0  0  0
 12 13  1  0  0  0  0
 12 31  1  0  0  0  0
 12 32  1  0  0  0  0
 13 14  1  0  0  0  0
 13 33  1  0  0  0  0
 13 34  1  0  0  0  0
 14 15  1  0  0  0  0
 14 35  1  0  0  0  0
 14 36  1  0  0  0  0
 15 16  1  0  0  0  0
 16 37  1  0  0  0  0
 16 38  1  0  0  0  0
M  END
> <s_m_source_file>
AV-unprocessed.smi

> <i_m_source_file_index>
3280

> <i_lp_mmshare_version>
43012

> <i_f3d_flags>
0

> <s_epik_input>
W0NIM11bQ0hdKFtDSDNdKWMxbm9jKG4xKVtDSDJdW0NIMl1bTkhdW0NAQEhdMltDSDJdW0NIMl1bQ0gyXVNbQ0gyXTI=

> <s_epik_cmdline>
J2VwaWtfcHl0aG9uJywgJy1waCcsICc3LjAnLCAnLXRuJywgJzgnLCAnLW1hJywgJzIwMCcsICctbWV0YWxfYmluZGluZycsICctaW1hZScsICc8aW5maWxlLm1hZT4nLCAnLW9tYWUnLCAnPG91dGZpbGUubWFlPic=

> <r_lp_tautomer_probability>
1

> <r_epik_Ionization_Penalty>
2.40576

> <r_epik_Ionization_Penalty_Charging>
0

> <r_epik_Ionization_Penalty_Neutral>
2.40576

> <r_epik_State_Penalty>
2.56401

> <r_epik_Charging_Adjusted_Penalty>
2.56401

> <i_epik_Tot_Q>
0

> <i_epik_Tot_abs_Q>
0

> <r_epik_Metal_State_Penalty>
2.56401

> <b_epik_Metal_Only>
0

> <s_lp_Force_Field>
OPLS_2005

> <r_lp_Energy>
1.17925

> <b_lp_Chiralities_Consistent>
1

> <s_lp_Variant>
AV-unprocessed.smi:3280-3

> <Gold.Version>
5.8.1

> <Gold.Id.Protein>
6NUR|6NUR_protein|mol2

> <Gold.PLP.Fitness>
40.1737

> <Gold.PLP.PLP>
-35.0369

> <Gold.PLP.part.hbond>
-2.0000

> <Gold.PLP.part.metal>
0.0000

> <Gold.PLP.part.buried>
-1.2049

> <Gold.PLP.part.nonpolar>
-31.5413

> <Gold.PLP.part.repulsive>
0.0000

> <Gold.PLP.ligand.clash>
0.0000

> <Gold.PLP.ligand.torsion>
0.4681

> <Gold.PLP.Chemscore.Hbond>
1.9913

> <Gold.PLP.Chemscore.CHOScore>
0.0000

> <Gold.PLP.Chemscore.Metal>
0.0000

> <Gold.Chemscore.Hbonds>
donor molecule, donor type, donor heavy atom, donor atom, acceptor molecule, acceptor atom, score
      P1  H  7997  8010       L1    17  1.00
      P1  H 10752 10763       L1     5  1.00

> <Gold.PLP.Chemscore.Internal.Correction>
0.0993

> <Gold.Rescore>
     Score         DG    S(hbond)    S(metal)    S(lipo)     H(rot)  DE(clash)    DE(int)     intcor
     16.64     -20.01       1.83        0.00     108.72       1.68       1.66       1.71       ----

> <Gold.Chemscore.Fitness>
16.6384

> <Gold.Chemscore.DG>
-20.0098

> <Gold.Chemscore.ZeroCoef>
-5.4800

> <Gold.Chemscore.Hbond>
1.8319

> <Gold.Chemscore.Metal>
0.0000

> <Gold.Chemscore.Lipo>
108.7222

> <Gold.Chemscore.Internal_Hbond>
0.0000

> <Gold.Chemscore.DEClash>
1.6582

> <Gold.Chemscore.DEInternal>
1.7132

> <Gold.Chemscore.Rot>
1.6833

> <Gold.Chemscore.Internal.Correction>
   9.000000E+99

> <Gold.Chemscore.Hbonds>
donor molecule, donor type, donor heavy atom, donor atom, acceptor molecule, acceptor atom, score
      P1  H  7997  8010       L1    17  0.84
      P1  H 10752 10763       L1     5  0.55

> <Gold.Chemscore.Hbond.Weighted>
-6.1185

> <Gold.Chemscore.Metal.Weighted>
-0.0000

> <Gold.Chemscore.Lipo.Weighted>
-12.7205

> <Gold.Chemscore.Internal_Hbond.Weighted>
0.0000

> <Gold.Chemscore.DEClash.Weighted>
1.6582

> <Gold.Chemscore.DEInternal.Weighted>
1.7132

> <Gold.Chemscore.Rot.Weighted>
4.3092

> <Gold.Chemscore.Internal.Correction.Weighted>
   9.000000E+99

> <Gold.Protein.RotatedTorsions>
[ 6907 6896 6895 6894 ] final  167.62 input  -60.11 | X-H torsion
[ 7974 7965 7964 7962 ] final -101.08 input  175.53 | X-H torsion
[ 8008 7997 7996 7995 ] final   47.41 input   59.86 | X-H torsion
[ 10167 10162 10161 10158 ] final  128.18 input  -65.29 | X-H torsion
[ 10718 10713 10712 10709 ] final  120.49 input   66.30 | X-H torsion
[ 10763 10752 10751 10750 ] final   99.55 input  -60.55 | X-H torsion
[ 11005 11000 10999 10996 ] final  104.55 input  -57.11 | X-H torsion

> <Gold.Protein.ActiveResidues>
 VAL166  LYS551  ARG553  GLY616  TRP617  ASP618  TYR619  PRO620  LYS621  CYS622 
 ASP623  PHE694  ASN695  SER759  ASP760  ASP761  ALA762  ILE779  LEU786  VAL792 
 PHE793  MET794  SER795  GLU796  ALA797  LYS798  CYS799  TRP800  GLU811  SER814 

> <Gold.Protein.RotatedAtoms>
  151.8604  133.3456  159.3701 H   0  0  0  0  0  0  0  0  0  0  0  0  # atno 6907 bound_to 6896
  150.7180  134.5211  159.5663 H   0  0  0  0  0  0  0  0  0  0  0  0  # atno 6908 bound_to 6896
  152.2724  134.7919  160.0463 H   0  0  0  0  0  0  0  0  0  0  0  0  # atno 6909 bound_to 6896
  145.2863  140.9340  143.2903 H   0  0  0  0  0  0  0  0  0  0  0  0  # atno 7974 bound_to 7965
  155.3687  140.3422  155.4242 H   0  0  0  0  0  0  0  0  0  0  0  0  # atno 8008 bound_to 7997
  156.1674  140.1620  156.8541 H   0  0  0  0  0  0  0  0  0  0  0  0  # atno 8009 bound_to 7997
  154.5199  140.0769  156.8134 H   0  0  0  0  0  0  0  0  0  0  0  0  # atno 8010 bound_to 7997
  139.5540  144.6835  151.4238 H   0  0  0  0  0  0  0  0  0  0  0  0  # atno 10167 bound_to 10162
  157.5887  131.1067  150.8043 H   0  0  0  0  0  0  0  0  0  0  0  0  # atno 10718 bound_to 10713
  153.3028  135.4109  155.1268 H   0  0  0  0  0  0  0  0  0  0  0  0  # atno 10763 bound_to 10752
  154.8554  135.3545  154.5828 H   0  0  0  0  0  0  0  0  0  0  0  0  # atno 10764 bound_to 10752
  153.6254  135.7063  153.5353 H   0  0  0  0  0  0  0  0  0  0  0  0  # atno 10765 bound_to 10752
  139.8793  134.9304  156.5379 H   0  0  0  0  0  0  0  0  0  0  0  0  # atno 11005 bound_to 11000
  144.9210  139.4411  143.6541 LP  0  0  0  0  0  0  0  0  0  0  0  0  # atno 17320 bound_to 7965
  146.3200  139.8071  142.8953 LP  0  0  0  0  0  0  0  0  0  0  0  0  # atno 17321 bound_to 7965
  140.6809  143.8084  150.7120 LP  0  0  0  0  0  0  0  0  0  0  0  0  # atno 17342 bound_to 10162
  140.1537  143.4336  152.2114 LP  0  0  0  0  0  0  0  0  0  0  0  0  # atno 17343 bound_to 10162
  156.8470  130.5067  149.5315 LP  0  0  0  0  0  0  0  0  0  0  0  0  # atno 17370 bound_to 10713
  156.0939  130.5917  150.9779 LP  0  0  0  0  0  0  0  0  0  0  0  0  # atno 17371 bound_to 10713
  140.8332  133.8262  155.9004 LP  0  0  0  0  0  0  0  0  0  0  0  0  # atno 17394 bound_to 11000
  140.9308  134.2024  157.4865 LP  0  0  0  0  0  0  0  0  0  0  0  0  # atno 17395 bound_to 11000

$$$$
