AV-unprocessed.smi:907|AV-procd|sdf|4110|dock8
  -GOLD-   22720 2 03D 1   1.00000     0.00000
 Structure written by MMmdl.
 54 57  0  0  0  0  0  0  0  0  3 V2000
  148.6582  138.7783  154.4493 O   0  0  0  0  0  0  0  0  0  0  0  0
  147.8004  139.6301  154.6844 C   0  0  0  0  0  0  0  0  0  0  0  0
  146.4862  139.3686  154.5762 N   0  0  0  0  0  0  0  0  0  0  0  0
  145.9212  138.0744  154.2103 C   0  0  0  0  0  0  0  0  0  0  0  0
  145.8661  137.8901  152.6843 C   0  0  0  0  0  0  0  0  0  0  0  0
  145.2247  136.5744  152.2893 C   0  0  0  0  0  0  0  0  0  0  0  0
  143.8673  136.2955  152.5589 C   0  0  0  0  0  0  0  0  0  0  0  0
  143.3258  135.0558  152.1599 C   0  0  0  0  0  0  0  0  0  0  0  0
  144.1519  134.1228  151.4993 C   0  0  0  0  0  0  0  0  0  0  0  0
  145.4998  134.4547  151.2525 C   0  0  0  0  0  0  0  0  0  0  0  0
  145.9818  135.6530  151.6502 N   0  3  0  0  0  0  0  0  0  0  0  0
  148.0998  140.9138  155.0031 N   0  0  0  0  0  0  0  0  0  0  0  0
  147.3046  141.7989  155.8641 C   0  0  0  0  0  0  0  0  0  0  0  0
  148.0026  141.9248  157.2314 C   0  0  0  0  0  0  0  0  0  0  0  0
  149.4096  142.4012  157.0944 N   0  3  0  0  0  0  0  0  0  0  0  0
  150.1013  142.5292  158.4094 C   0  0  2  0  0  0  0  0  0  0  0  0
  149.6196  143.7218  159.2721 C   0  0  0  0  0  0  0  0  0  0  0  0
  150.9350  144.4104  159.6830 C   0  0  2  0  0  0  0  0  0  0  0  0
  151.4807  145.1922  158.4762 C   0  0  0  0  0  0  0  0  0  0  0  0
  151.9497  144.0681  157.5357 C   0  0  0  0  0  0  0  0  0  0  0  0
  151.6274  142.7870  158.3364 C   0  0  1  0  0  0  0  0  0  0  0  0
  151.9110  143.2426  159.7638 C   0  0  0  0  0  0  0  0  0  0  0  0
  150.1791  141.5976  156.1015 C   0  0  0  0  0  0  0  0  0  0  0  0
  149.4284  141.4813  154.7631 C   0  0  0  0  0  0  0  0  0  0  0  0
  145.8351  140.1188  154.7577 H   0  0  0  0  0  0  0  0  0  0  0  0
  146.5058  137.2751  154.6693 H   0  0  0  0  0  0  0  0  0  0  0  0
  144.9183  138.0058  154.6326 H   0  0  0  0  0  0  0  0  0  0  0  0
  145.3108  138.7101  152.2266 H   0  0  0  0  0  0  0  0  0  0  0  0
  146.8707  137.9273  152.2607 H   0  0  0  0  0  0  0  0  0  0  0  0
  143.2469  137.0224  153.0631 H   0  0  0  0  0  0  0  0  0  0  0  0
  142.2893  134.8245  152.3572 H   0  0  0  0  0  0  0  0  0  0  0  0
  143.7563  133.1677  151.1854 H   0  0  0  0  0  0  0  0  0  0  0  0
  146.2015  133.8029  150.7527 H   0  0  0  0  0  0  0  0  0  0  0  0
  147.2293  142.7803  155.3932 H   0  0  0  0  0  0  0  0  0  0  0  0
  146.2769  141.4663  156.0093 H   0  0  0  0  0  0  0  0  0  0  0  0
  147.4269  142.6046  157.8582 H   0  0  0  0  0  0  0  0  0  0  0  0
  147.9988  140.9564  157.7344 H   0  0  0  0  0  0  0  0  0  0  0  0
  149.9378  141.6030  158.9641 H   0  0  0  0  0  0  0  0  0  0  0  0
  148.9699  144.4150  158.7368 H   0  0  0  0  0  0  0  0  0  0  0  0
  149.0737  143.3639  160.1461 H   0  0  0  0  0  0  0  0  0  0  0  0
  150.8535  145.0095  160.5904 H   0  0  0  0  0  0  0  0  0  0  0  0
  150.7269  145.8336  158.0179 H   0  0  0  0  0  0  0  0  0  0  0  0
  152.3211  145.8229  158.7694 H   0  0  0  0  0  0  0  0  0  0  0  0
  151.4514  144.1028  156.5668 H   0  0  0  0  0  0  0  0  0  0  0  0
  153.0226  144.1483  157.3560 H   0  0  0  0  0  0  0  0  0  0  0  0
  152.2088  141.9178  158.0274 H   0  0  0  0  0  0  0  0  0  0  0  0
  152.9455  143.5531  159.9223 H   0  0  0  0  0  0  0  0  0  0  0  0
  151.6404  142.5034  160.5200 H   0  0  0  0  0  0  0  0  0  0  0  0
  151.1509  142.0525  155.9124 H   0  0  0  0  0  0  0  0  0  0  0  0
  150.3675  140.6028  156.5088 H   0  0  0  0  0  0  0  0  0  0  0  0
  150.0149  140.8940  154.0550 H   0  0  0  0  0  0  0  0  0  0  0  0
  149.3208  142.4667  154.3070 H   0  0  0  0  0  0  0  0  0  0  0  0
  149.3558  143.3339  156.7110 H   0  0  0  0  0  0  0  0  0  0  0  0
  146.9600  135.8715  151.4607 H   0  0  0  0  0  0  0  0  0  0  0  0
  1  2  2  0  0  0  0
  2  3  1  0  0  0  0
  2 12  1  0  0  0  0
  3  4  1  0  0  0  0
  3 25  1  0  0  0  0
  4  5  1  0  0  0  0
  4 26  1  0  0  0  0
  4 27  1  0  0  0  0
  5  6  1  0  0  0  0
  5 28  1  0  0  0  0
  5 29  1  0  0  0  0
  6 11  1  0  0  0  0
  6  7  2  0  0  0  0
  7  8  1  0  0  0  0
  7 30  1  0  0  0  0
  8  9  2  0  0  0  0
  8 31  1  0  0  0  0
  9 10  1  0  0  0  0
  9 32  1  0  0  0  0
 10 11  2  0  0  0  0
 10 33  1  0  0  0  0
 11 54  1  0  0  0  0
 12 24  1  0  0  0  0
 12 13  1  0  0  0  0
 13 14  1  0  0  0  0
 13 34  1  0  0  0  0
 13 35  1  0  0  0  0
 14 15  1  0  0  0  0
 14 36  1  0  0  0  0
 14 37  1  0  0  0  0
 15 16  1  0  0  0  0
 15 23  1  0  0  0  0
 15 53  1  0  0  0  0
 16 21  1  0  0  0  0
 16 17  1  0  0  0  0
 16 38  1  0  0  0  0
 17 18  1  0  0  0  0
 17 39  1  0  0  0  0
 17 40  1  0  0  0  0
 18 22  1  0  0  0  0
 18 19  1  0  0  0  0
 18 41  1  0  0  0  0
 19 20  1  0  0  0  0
 19 42  1  0  0  0  0
 19 43  1  0  0  0  0
 20 21  1  0  0  0  0
 20 44  1  0  0  0  0
 20 45  1  0  0  0  0
 21 22  1  0  0  0  0
 21 46  1  0  0  0  0
 22 47  1  0  0  0  0
 22 48  1  0  0  0  0
 23 24  1  0  0  0  0
 23 49  1  0  0  0  0
 23 50  1  0  0  0  0
 24 51  1  0  0  0  0
 24 52  1  0  0  0  0
M  CHG  1  11   1
M  CHG  1  15   1
M  END
> <s_m_source_file>
AV-unprocessed.smi

> <i_m_source_file_index>
907

> <i_lp_mmshare_version>
43012

> <i_f3d_flags>
0

> <s_epik_input>
W0NIMl0xW0NIMl1bQ0BASF0oW0NIMl0yKVtDQEBIXShbQ0gyXVtDQEhdMTIpTihbQ0gyXVtDSDJdMylbQ0gyXVtDSDJdTjNDKD1PKVtOSF1bQ0gyXVtDSDJdYzRbY0hdW2NIXVtjSF1bY0hdbjQ=

> <s_epik_cmdline>
J2VwaWtfcHl0aG9uJywgJy1waCcsICc3LjAnLCAnLXRuJywgJzgnLCAnLW1hJywgJzIwMCcsICctbWV0YWxfYmluZGluZycsICctaW1hZScsICc8aW5maWxlLm1hZT4nLCAnLW9tYWUnLCAnPG91dGZpbGUubWFlPic=

> <r_epik_Ionization_Penalty>
1.63018

> <r_epik_Ionization_Penalty_Charging>
1.63015

> <r_epik_Ionization_Penalty_Neutral>
2.64641e-05

> <r_epik_State_Penalty>
1.72761

> <r_epik_Charging_Adjusted_Penalty>
3.35777

> <i_epik_Tot_Q>
2

> <i_epik_Tot_abs_Q>
2

> <r_epik_Metal_State_Penalty>
1.76501

> <b_epik_Metal_Only>
0

> <s_lp_Force_Field>
OPLS_2005

> <r_lp_Energy>
102.759

> <b_lp_Chiralities_Consistent>
1

> <s_lp_Variant>
AV-unprocessed.smi:907-5

> <Gold.Version>
5.8.1

> <Gold.Id.Protein>
6NUR|6NUR_protein|mol2

> <Gold.PLP.Fitness>
53.4508

> <Gold.PLP.PLP>
-42.7914

> <Gold.PLP.part.hbond>
-2.0000

> <Gold.PLP.part.metal>
0.0000

> <Gold.PLP.part.buried>
-6.2040

> <Gold.PLP.part.nonpolar>
-36.2502

> <Gold.PLP.part.repulsive>
0.2699

> <Gold.PLP.ligand.clash>
0.0000

> <Gold.PLP.ligand.torsion>
0.7177

> <Gold.PLP.Chemscore.Hbond>
4.0000

> <Gold.PLP.Chemscore.CHOScore>
0.0000

> <Gold.PLP.Chemscore.Metal>
0.0000

> <Gold.Chemscore.Hbonds>
donor molecule, donor type, donor heavy atom, donor atom, acceptor molecule, acceptor atom, score
      L1  H    11    54       P1  7948  2.00
      L1  H    15    53       P1  8028  2.00

> <Gold.PLP.Chemscore.Internal.Correction>
0.0948

> <Gold.Rescore>
     Score         DG    S(hbond)    S(metal)    S(lipo)     H(rot)  DE(clash)    DE(int)     intcor
     21.65     -22.16       1.99        0.00     117.72       1.46       0.04       0.47       ----

> <Gold.Chemscore.Fitness>
21.6529

> <Gold.Chemscore.DG>
-22.1576

> <Gold.Chemscore.ZeroCoef>
-5.4800

> <Gold.Chemscore.Hbond>
1.9863

> <Gold.Chemscore.Metal>
0.0000

> <Gold.Chemscore.Lipo>
117.7247

> <Gold.Chemscore.Internal_Hbond>
0.0000

> <Gold.Chemscore.DEClash>
0.0363

> <Gold.Chemscore.DEInternal>
0.4685

> <Gold.Chemscore.Rot>
1.4572

> <Gold.Chemscore.Internal.Correction>
   9.000000E+99

> <Gold.Chemscore.Hbonds>
donor molecule, donor type, donor heavy atom, donor atom, acceptor molecule, acceptor atom, score
      L1  H    11    54       P1  7948  0.93
      L1  H    15    53       P1  8028  0.99

> <Gold.Chemscore.Hbond.Weighted>
-6.6343

> <Gold.Chemscore.Metal.Weighted>
-0.0000

> <Gold.Chemscore.Lipo.Weighted>
-13.7738

> <Gold.Chemscore.Internal_Hbond.Weighted>
0.0000

> <Gold.Chemscore.DEClash.Weighted>
0.0363

> <Gold.Chemscore.DEInternal.Weighted>
0.4685

> <Gold.Chemscore.Rot.Weighted>
3.7305

> <Gold.Chemscore.Internal.Correction.Weighted>
   9.000000E+99

> <Gold.Protein.RotatedTorsions>
[ 6907 6896 6895 6894 ] final  171.10 input  -60.11 | X-H torsion
[ 7974 7965 7964 7962 ] final  -91.00 input  175.53 | X-H torsion
[ 8008 7997 7996 7995 ] final -160.69 input   59.86 | X-H torsion
[ 10167 10162 10161 10158 ] final -159.98 input  -65.29 | X-H torsion
[ 10718 10713 10712 10709 ] final -132.71 input   66.30 | X-H torsion
[ 10763 10752 10751 10750 ] final  -19.14 input  -60.55 | X-H torsion
[ 11005 11000 10999 10996 ] final    2.37 input  -57.11 | X-H torsion

> <Gold.Protein.ActiveResidues>
 VAL166  LYS551  ARG553  GLY616  TRP617  ASP618  TYR619  PRO620  LYS621  CYS622 
 ASP623  PHE694  ASN695  SER759  ASP760  ASP761  ALA762  ILE779  LEU786  VAL792 
 PHE793  MET794  SER795  GLU796  ALA797  LYS798  CYS799  TRP800  GLU811  SER814 

> <Gold.Protein.RotatedAtoms>
  151.8057  133.3375  159.3539 H   0  0  0  0  0  0  0  0  0  0  0  0  # atno 6907 bound_to 6896
  150.7343  134.5712  159.5900 H   0  0  0  0  0  0  0  0  0  0  0  0  # atno 6908 bound_to 6896
  152.3111  134.7497  160.0387 H   0  0  0  0  0  0  0  0  0  0  0  0  # atno 6909 bound_to 6896
  145.4189  140.9550  143.2192 H   0  0  0  0  0  0  0  0  0  0  0  0  # atno 7974 bound_to 7965
  155.7811  140.0865  157.2058 H   0  0  0  0  0  0  0  0  0  0  0  0  # atno 8008 bound_to 7997
  154.3990  140.1507  156.3111 H   0  0  0  0  0  0  0  0  0  0  0  0  # atno 8009 bound_to 7997
  155.8652  140.3428  155.5786 H   0  0  0  0  0  0  0  0  0  0  0  0  # atno 8010 bound_to 7997
  139.6574  143.9974  152.2203 H   0  0  0  0  0  0  0  0  0  0  0  0  # atno 10167 bound_to 10162
  156.2373  130.7074  151.0921 H   0  0  0  0  0  0  0  0  0  0  0  0  # atno 10718 bound_to 10713
  153.6002  135.6999  153.5387 H   0  0  0  0  0  0  0  0  0  0  0  0  # atno 10763 bound_to 10752
  153.3104  135.4103  155.1330 H   0  0  0  0  0  0  0  0  0  0  0  0  # atno 10764 bound_to 10752
  154.8584  135.3670  154.5537 H   0  0  0  0  0  0  0  0  0  0  0  0  # atno 10765 bound_to 10752
  140.6050  133.9800  155.8150 H   0  0  0  0  0  0  0  0  0  0  0  0  # atno 11005 bound_to 11000
  144.8258  139.5712  143.6966 LP  0  0  0  0  0  0  0  0  0  0  0  0  # atno 17320 bound_to 7965
  146.2667  139.6536  142.9325 LP  0  0  0  0  0  0  0  0  0  0  0  0  # atno 17321 bound_to 7965
  139.9704  144.6497  150.7994 LP  0  0  0  0  0  0  0  0  0  0  0  0  # atno 17342 bound_to 10162
  140.7565  143.3067  151.2944 LP  0  0  0  0  0  0  0  0  0  0  0  0  # atno 17343 bound_to 10162
  157.7160  131.0709  150.6324 LP  0  0  0  0  0  0  0  0  0  0  0  0  # atno 17370 bound_to 10713
  156.6395  130.4454  149.5757 LP  0  0  0  0  0  0  0  0  0  0  0  0  # atno 17371 bound_to 10713
  141.0846  134.0009  157.3333 LP  0  0  0  0  0  0  0  0  0  0  0  0  # atno 17394 bound_to 11000
  139.9216  135.0200  156.8085 LP  0  0  0  0  0  0  0  0  0  0  0  0  # atno 17395 bound_to 11000

$$$$
