AV-unprocessed.smi:2253|AV-procd|sdf|9117|dock7
  -GOLD-   2272012323D 1   1.00000     0.00000
 Structure written by MMmdl.
 52 54  0  0  0  0  0  0  0  0  3 V2000
  144.4408  135.7477  155.6112 C   0  0  0  0  0  0  0  0  0  0  0  0
  145.6898  136.2731  155.0182 N   0  3  2  0  0  0  0  0  0  0  0  0
  146.8991  135.7791  155.7154 C   0  0  0  0  0  0  0  0  0  0  0  0
  148.1810  136.2396  155.0002 C   0  0  0  0  0  0  0  0  0  0  0  0
  148.2581  137.7810  154.8492 C   0  0  1  0  0  0  0  0  0  0  0  0
  149.4631  138.2347  154.0724 N   0  3  2  0  0  0  0  0  0  0  0  0
  150.7891  137.8567  154.6414 C   0  0  0  0  0  0  0  0  0  0  0  0
  151.1192  138.6682  155.9084 C   0  0  0  0  0  0  0  0  0  0  0  0
  151.1134  140.1761  155.6037 C   0  0  2  0  0  0  0  0  0  0  0  0
  151.3428  140.9348  156.8303 N   0  0  0  0  0  0  0  0  0  0  0  0
  152.2341  140.6111  157.7791 C   0  0  0  0  0  0  0  0  0  0  0  0
  152.9842  139.6398  157.6924 O   0  0  0  0  0  0  0  0  0  0  0  0
  152.1868  141.4801  158.8041 N   0  0  0  0  0  0  0  0  0  0  0  0
  152.9307  141.5000  160.0183 C   0  0  0  0  0  0  0  0  0  0  0  0
  153.8925  140.5308  160.3972 C   0  0  0  0  0  0  0  0  0  0  0  0
  154.5490  140.6784  161.6358 C   0  0  0  0  0  0  0  0  0  0  0  0
  154.3119  141.6974  162.4883 N   0  0  0  0  0  0  0  0  0  0  0  0
  153.3948  142.6183  162.1257 C   0  0  0  0  0  0  0  0  0  0  0  0
  152.6822  142.5646  160.9110 C   0  0  0  0  0  0  0  0  0  0  0  0
  151.7728  143.5234  160.6108 F   0  0  0  0  0  0  0  0  0  0  0  0
  149.7819  140.5788  154.9390 C   0  0  0  0  0  0  0  0  0  0  0  0
  149.4740  139.6851  153.7205 C   0  0  0  0  0  0  0  0  0  0  0  0
  146.9425  138.2562  154.1823 C   0  0  0  0  0  0  0  0  0  0  0  0
  145.6906  137.7506  154.9190 C   0  0  0  0  0  0  0  0  0  0  0  0
  144.3210  136.0885  156.6405 H   0  0  0  0  0  0  0  0  0  0  0  0
  144.4426  134.6571  155.6099 H   0  0  0  0  0  0  0  0  0  0  0  0
  143.5738  136.0781  155.0384 H   0  0  0  0  0  0  0  0  0  0  0  0
  146.8970  136.1326  156.7479 H   0  0  0  0  0  0  0  0  0  0  0  0
  146.8769  134.6892  155.7542 H   0  0  0  0  0  0  0  0  0  0  0  0
  149.0207  135.8639  155.5839 H   0  0  0  0  0  0  0  0  0  0  0  0
  148.2401  135.7661  154.0190 H   0  0  0  0  0  0  0  0  0  0  0  0
  148.3083  138.2050  155.8522 H   0  0  0  0  0  0  0  0  0  0  0  0
  150.8718  136.7870  154.8236 H   0  0  0  0  0  0  0  0  0  0  0  0
  151.5496  138.0610  153.8863 H   0  0  0  0  0  0  0  0  0  0  0  0
  150.4028  138.4369  156.6978 H   0  0  0  0  0  0  0  0  0  0  0  0
  152.0981  138.3723  156.2877 H   0  0  0  0  0  0  0  0  0  0  0  0
  151.9289  140.3803  154.9067 H   0  0  0  0  0  0  0  0  0  0  0  0
  150.7660  141.7502  156.9798 H   0  0  0  0  0  0  0  0  0  0  0  0
  151.5195  142.2317  158.7097 H   0  0  0  0  0  0  0  0  0  0  0  0
  154.1434  139.6827  159.7812 H   0  0  0  0  0  0  0  0  0  0  0  0
  155.2861  139.9546  161.9510 H   0  0  0  0  0  0  0  0  0  0  0  0
  153.2225  143.4223  162.8259 H   0  0  0  0  0  0  0  0  0  0  0  0
  148.9675  140.5226  155.6617 H   0  0  0  0  0  0  0  0  0  0  0  0
  149.8266  141.6204  154.6188 H   0  0  0  0  0  0  0  0  0  0  0  0
  150.2471  139.8422  152.9668 H   0  0  0  0  0  0  0  0  0  0  0  0
  148.5511  140.0009  153.2399 H   0  0  0  0  0  0  0  0  0  0  0  0
  146.8809  139.3426  154.1573 H   0  0  0  0  0  0  0  0  0  0  0  0
  146.9128  137.9203  153.1446 H   0  0  0  0  0  0  0  0  0  0  0  0
  144.7980  138.0798  154.3853 H   0  0  0  0  0  0  0  0  0  0  0  0
  145.6405  138.1857  155.9186 H   0  0  0  0  0  0  0  0  0  0  0  0
  149.4043  137.7410  153.1929 H   0  0  0  0  0  0  0  0  0  0  0  0
  145.7285  135.9157  154.0740 H   0  0  0  0  0  0  0  0  0  0  0  0
  1  2  1  0  0  0  0
  1 25  1  0  0  0  0
  1 26  1  0  0  0  0
  1 27  1  0  0  0  0
  2 24  1  0  0  0  0
  2  3  1  0  0  0  0
  2 52  1  0  0  0  0
  3  4  1  0  0  0  0
  3 28  1  0  0  0  0
  3 29  1  0  0  0  0
  4  5  1  0  0  0  0
  4 30  1  0  0  0  0
  4 31  1  0  0  0  0
  5  6  1  0  0  0  0
  5 23  1  0  0  0  0
  5 32  1  0  0  0  0
  6 22  1  0  0  0  0
  6  7  1  0  0  0  0
  6 51  1  0  0  0  0
  7  8  1  0  0  0  0
  7 33  1  0  0  0  0
  7 34  1  0  0  0  0
  8  9  1  0  0  0  0
  8 35  1  0  0  0  0
  8 36  1  0  0  0  0
  9 10  1  0  0  0  0
  9 21  1  0  0  0  0
  9 37  1  0  0  0  0
 10 11  1  0  0  0  0
 10 38  1  0  0  0  0
 11 12  2  0  0  0  0
 11 13  1  0  0  0  0
 13 14  1  0  0  0  0
 13 39  1  0  0  0  0
 14 19  1  0  0  0  0
 14 15  2  0  0  0  0
 15 16  1  0  0  0  0
 15 40  1  0  0  0  0
 16 17  2  0  0  0  0
 16 41  1  0  0  0  0
 17 18  1  0  0  0  0
 18 19  2  0  0  0  0
 18 42  1  0  0  0  0
 19 20  1  0  0  0  0
 21 22  1  0  0  0  0
 21 43  1  0  0  0  0
 21 44  1  0  0  0  0
 22 45  1  0  0  0  0
 22 46  1  0  0  0  0
 23 24  1  0  0  0  0
 23 47  1  0  0  0  0
 23 48  1  0  0  0  0
 24 49  1  0  0  0  0
 24 50  1  0  0  0  0
M  CHG  1   2   1
M  CHG  1   6   1
M  END
> <s_m_source_file>
AV-unprocessed.smi

> <i_m_source_file_index>
2253

> <i_lp_mmshare_version>
43012

> <i_f3d_flags>
0

> <s_epik_input>
W0NIM11OMVtDSDJdW0NIMl1bQ0hdKFtDSDJdW0NIMl0xKU4yW0NIMl1bQ0gyXVtDSF0oW0NIMl1bQ0gyXTIpW05IXUMoPU8pW05IXWMzW2NIXVtjSF1uW2NIXWMzRg==

> <s_epik_cmdline>
J2VwaWtfcHl0aG9uJywgJy1waCcsICc3LjAnLCAnLXRuJywgJzgnLCAnLW1hJywgJzIwMCcsICctbWV0YWxfYmluZGluZycsICctaW1hZScsICc8aW5maWxlLm1hZT4nLCAnLW9tYWUnLCAnPG91dGZpbGUubWFlPic=

> <r_epik_Ionization_Penalty>
0.183544

> <r_epik_Ionization_Penalty_Charging>
0.180787

> <r_epik_Ionization_Penalty_Neutral>
0.00275649

> <r_epik_State_Penalty>
0.153592

> <r_epik_Charging_Adjusted_Penalty>
0.334379

> <i_epik_Tot_Q>
2

> <i_epik_Tot_abs_Q>
2

> <r_epik_Metal_State_Penalty>
0.153693

> <b_epik_Metal_Only>
0

> <s_lp_Force_Field>
OPLS_2005

> <r_lp_Energy>
48.1083

> <b_lp_Chiralities_Consistent>
1

> <s_lp_Variant>
AV-unprocessed.smi:2253-3

> <Gold.Version>
5.8.1

> <Gold.Id.Protein>
6NUR|6NUR_protein|mol2

> <Gold.PLP.Fitness>
45.1673

> <Gold.PLP.PLP>
-36.6727

> <Gold.PLP.part.hbond>
-3.0000

> <Gold.PLP.part.metal>
0.0000

> <Gold.PLP.part.buried>
-0.2055

> <Gold.PLP.part.nonpolar>
-32.0039

> <Gold.PLP.part.repulsive>
0.2381

> <Gold.PLP.ligand.clash>
0.0000

> <Gold.PLP.ligand.torsion>
0.2766

> <Gold.PLP.Chemscore.Hbond>
3.0000

> <Gold.PLP.Chemscore.CHOScore>
0.0000

> <Gold.PLP.Chemscore.Metal>
0.0000

> <Gold.Chemscore.Hbonds>
donor molecule, donor type, donor heavy atom, donor atom, acceptor molecule, acceptor atom, score
      L1  H     6    51       P1  7948  2.00
      P1  H  7997  8010       L1    12  1.00

> <Gold.PLP.Chemscore.Internal.Correction>
0.0479

> <Gold.Rescore>
     Score         DG    S(hbond)    S(metal)    S(lipo)     H(rot)  DE(clash)    DE(int)     intcor
     15.22     -19.45       1.87        0.00      93.41       1.26       1.42       2.81       ----

> <Gold.Chemscore.Fitness>
15.2235

> <Gold.Chemscore.DG>
-19.4510

> <Gold.Chemscore.ZeroCoef>
-5.4800

> <Gold.Chemscore.Hbond>
1.8733

> <Gold.Chemscore.Metal>
0.0000

> <Gold.Chemscore.Lipo>
93.4113

> <Gold.Chemscore.Internal_Hbond>
0.0000

> <Gold.Chemscore.DEClash>
1.4184

> <Gold.Chemscore.DEInternal>
2.8090

> <Gold.Chemscore.Rot>
1.2559

> <Gold.Chemscore.Internal.Correction>
   9.000000E+99

> <Gold.Chemscore.Hbonds>
donor molecule, donor type, donor heavy atom, donor atom, acceptor molecule, acceptor atom, score
      L1  H     6    51       P1  7948  0.88
      P1  H  7997  8010       L1    12  0.82

> <Gold.Chemscore.Hbond.Weighted>
-6.2569

> <Gold.Chemscore.Metal.Weighted>
-0.0000

> <Gold.Chemscore.Lipo.Weighted>
-10.9291

> <Gold.Chemscore.Internal_Hbond.Weighted>
0.0000

> <Gold.Chemscore.DEClash.Weighted>
1.4184

> <Gold.Chemscore.DEInternal.Weighted>
2.8090

> <Gold.Chemscore.Rot.Weighted>
3.2151

> <Gold.Chemscore.Internal.Correction.Weighted>
   9.000000E+99

> <Gold.Protein.RotatedTorsions>
[ 6907 6896 6895 6894 ] final  -18.94 input  -60.11 | X-H torsion
[ 7974 7965 7964 7962 ] final -119.23 input  175.53 | X-H torsion
[ 8008 7997 7996 7995 ] final   43.35 input   59.86 | X-H torsion
[ 10167 10162 10161 10158 ] final -143.98 input  -65.29 | X-H torsion
[ 10718 10713 10712 10709 ] final   10.95 input   66.30 | X-H torsion
[ 10763 10752 10751 10750 ] final   -2.82 input  -60.55 | X-H torsion
[ 11005 11000 10999 10996 ] final  149.37 input  -57.11 | X-H torsion

> <Gold.Protein.ActiveResidues>
 VAL166  LYS551  ARG553  GLY616  TRP617  ASP618  TYR619  PRO620  LYS621  CYS622 
 ASP623  PHE694  ASN695  SER759  ASP760  ASP761  ALA762  ILE779  LEU786  VAL792 
 PHE793  MET794  SER795  GLU796  ALA797  LYS798  CYS799  TRP800  GLU811  SER814 

> <Gold.Protein.RotatedAtoms>
  151.2706  135.0683  159.9132 H   0  0  0  0  0  0  0  0  0  0  0  0  # atno 6907 bound_to 6896
  152.5351  134.0134  159.7959 H   0  0  0  0  0  0  0  0  0  0  0  0  # atno 6908 bound_to 6896
  151.0372  133.5688  159.2685 H   0  0  0  0  0  0  0  0  0  0  0  0  # atno 6909 bound_to 6896
  145.0649  140.8317  143.4130 H   0  0  0  0  0  0  0  0  0  0  0  0  # atno 7974 bound_to 7965
  155.3012  140.3385  155.4247 H   0  0  0  0  0  0  0  0  0  0  0  0  # atno 8008 bound_to 7997
  156.2000  140.1729  156.7958 H   0  0  0  0  0  0  0  0  0  0  0  0  # atno 8009 bound_to 7997
  154.5547  140.0699  156.8708 H   0  0  0  0  0  0  0  0  0  0  0  0  # atno 8010 bound_to 7997
  139.7942  143.7923  152.2653 H   0  0  0  0  0  0  0  0  0  0  0  0  # atno 10167 bound_to 10162
  156.9884  130.6033  149.5683 H   0  0  0  0  0  0  0  0  0  0  0  0  # atno 10718 bound_to 10713
  153.3632  135.6991  153.6696 H   0  0  0  0  0  0  0  0  0  0  0  0  # atno 10763 bound_to 10752
  153.5376  135.3579  155.2704 H   0  0  0  0  0  0  0  0  0  0  0  0  # atno 10764 bound_to 10752
  154.8671  135.4196  154.2893 H   0  0  0  0  0  0  0  0  0  0  0  0  # atno 10765 bound_to 10752
  140.1039  134.8966  157.1837 H   0  0  0  0  0  0  0  0  0  0  0  0  # atno 11005 bound_to 11000
  145.1363  139.2600  143.5513 LP  0  0  0  0  0  0  0  0  0  0  0  0  # atno 17320 bound_to 7965
  146.3526  140.1028  142.8607 LP  0  0  0  0  0  0  0  0  0  0  0  0  # atno 17321 bound_to 7965
  139.8024  144.7369  150.9807 LP  0  0  0  0  0  0  0  0  0  0  0  0  # atno 17342 bound_to 10162
  140.7820  143.4332  151.0663 LP  0  0  0  0  0  0  0  0  0  0  0  0  # atno 17343 bound_to 10162
  156.0217  130.5311  150.8293 LP  0  0  0  0  0  0  0  0  0  0  0  0  # atno 17370 bound_to 10713
  157.5476  131.0943  150.9741 LP  0  0  0  0  0  0  0  0  0  0  0  0  # atno 17371 bound_to 10713
  140.3182  134.2947  155.7252 LP  0  0  0  0  0  0  0  0  0  0  0  0  # atno 17394 bound_to 11000
  141.2113  133.7693  156.9873 LP  0  0  0  0  0  0  0  0  0  0  0  0  # atno 17395 bound_to 11000

$$$$
