AV-unprocessed.smi:1734|AV-procd|sdf|6984|dock2
  -GOLD-   22720 8193D 1   1.00000     0.00000
 Structure written by MMmdl.
 51 53  0  0  0  0  0  0  0  0  2 V2000
  147.8517  133.0089  152.2313 C   0  0  0  0  0  0  0  0  0  0  0  0
  146.5158  133.0288  151.5060 C   0  0  0  0  0  0  0  0  0  0  0  0
  146.0306  131.8398  150.9207 C   0  0  0  0  0  0  0  0  0  0  0  0
  144.7939  131.8587  150.2535 C   0  0  0  0  0  0  0  0  0  0  0  0
  144.0900  133.0739  150.1994 C   0  0  0  0  0  0  0  0  0  0  0  0
  144.5460  134.2145  150.7560 N   0  0  0  0  0  0  0  0  0  0  0  0
  145.7377  134.2132  151.4047 C   0  0  0  0  0  0  0  0  0  0  0  0
  146.2831  135.3807  152.0102 N   0  0  0  0  0  0  0  0  0  0  0  0
  145.7186  136.1886  152.9252 C   0  0  0  0  0  0  0  0  0  0  0  0
  144.6109  136.0264  153.4373 O   0  0  0  0  0  0  0  0  0  0  0  0
  146.5252  137.2131  153.2316 N   0  0  0  0  0  0  0  0  0  0  0  0
  146.2009  138.2531  154.2036 C   0  0  0  0  0  0  0  0  0  0  0  0
  147.0285  139.5524  154.0159 C   0  0  2  0  0  0  0  0  0  0  0  0
  148.2789  139.6325  154.9280 C   0  0  2  0  0  0  0  0  0  0  0  0
  149.3738  140.5475  154.4092 C   0  0  0  0  0  0  0  0  0  0  0  0
  150.5908  140.0702  155.1950 C   0  0  0  0  0  0  0  0  0  0  0  0
  150.3799  138.6820  155.4298 O   0  0  0  0  0  0  0  0  0  0  0  0
  149.0553  138.3187  155.0555 C   0  0  0  0  0  0  0  0  0  0  0  0
  146.2185  140.8064  154.0948 N   0  3  0  0  0  0  0  0  0  0  0  0
  145.5395  141.0111  155.3981 C   0  0  0  0  0  0  0  0  0  0  0  0
  144.5707  142.2027  155.3071 C   0  0  0  0  0  0  0  0  0  0  0  0
  145.2777  143.3665  154.8945 O   0  0  0  0  0  0  0  0  0  0  0  0
  145.8701  143.2078  153.6107 C   0  0  0  0  0  0  0  0  0  0  0  0
  146.8876  142.0559  153.6534 C   0  0  0  0  0  0  0  0  0  0  0  0
  148.3141  132.0224  152.1844 H   0  0  0  0  0  0  0  0  0  0  0  0
  147.7177  133.2670  153.2822 H   0  0  0  0  0  0  0  0  0  0  0  0
  148.5423  133.7236  151.7828 H   0  0  0  0  0  0  0  0  0  0  0  0
  146.5967  130.9218  150.9810 H   0  0  0  0  0  0  0  0  0  0  0  0
  144.3954  130.9657  149.7955 H   0  0  0  0  0  0  0  0  0  0  0  0
  143.1363  133.1328  149.6959 H   0  0  0  0  0  0  0  0  0  0  0  0
  147.2119  135.6287  151.7045 H   0  0  0  0  0  0  0  0  0  0  0  0
  147.4180  137.2776  152.7652 H   0  0  0  0  0  0  0  0  0  0  0  0
  145.1427  138.4974  154.0944 H   0  0  0  0  0  0  0  0  0  0  0  0
  146.3109  137.8556  155.2126 H   0  0  0  0  0  0  0  0  0  0  0  0
  147.4099  139.5165  152.9940 H   0  0  0  0  0  0  0  0  0  0  0  0
  148.0035  139.9617  155.9306 H   0  0  0  0  0  0  0  0  0  0  0  0
  149.5344  140.3868  153.3420 H   0  0  0  0  0  0  0  0  0  0  0  0
  149.1617  141.6055  154.5663 H   0  0  0  0  0  0  0  0  0  0  0  0
  151.5258  140.2481  154.6634 H   0  0  0  0  0  0  0  0  0  0  0  0
  150.6459  140.5795  156.1578 H   0  0  0  0  0  0  0  0  0  0  0  0
  148.6125  137.6394  155.7843 H   0  0  0  0  0  0  0  0  0  0  0  0
  149.1011  137.8001  154.0968 H   0  0  0  0  0  0  0  0  0  0  0  0
  144.9856  140.1149  155.6796 H   0  0  0  0  0  0  0  0  0  0  0  0
  146.2755  141.1942  156.1816 H   0  0  0  0  0  0  0  0  0  0  0  0
  143.7580  141.9914  154.6100 H   0  0  0  0  0  0  0  0  0  0  0  0
  144.1149  142.3920  156.2790 H   0  0  0  0  0  0  0  0  0  0  0  0
  145.0998  143.0215  152.8605 H   0  0  0  0  0  0  0  0  0  0  0  0
  146.3668  144.1378  153.3337 H   0  0  0  0  0  0  0  0  0  0  0  0
  147.6919  142.3159  154.3426 H   0  0  0  0  0  0  0  0  0  0  0  0
  147.3321  141.9266  152.6670 H   0  0  0  0  0  0  0  0  0  0  0  0
  145.4663  140.6597  153.4368 H   0  0  0  0  0  0  0  0  0  0  0  0
  1  2  1  0  0  0  0
  1 25  1  0  0  0  0
  1 26  1  0  0  0  0
  1 27  1  0  0  0  0
  2  7  1  0  0  0  0
  2  3  2  0  0  0  0
  3  4  1  0  0  0  0
  3 28  1  0  0  0  0
  4  5  2  0  0  0  0
  4 29  1  0  0  0  0
  5  6  1  0  0  0  0
  5 30  1  0  0  0  0
  6  7  2  0  0  0  0
  7  8  1  0  0  0  0
  8  9  1  0  0  0  0
  8 31  1  0  0  0  0
  9 10  2  0  0  0  0
  9 11  1  0  0  0  0
 11 12  1  0  0  0  0
 11 32  1  0  0  0  0
 12 13  1  0  0  0  0
 12 33  1  0  0  0  0
 12 34  1  0  0  0  0
 13 14  1  0  0  0  0
 13 19  1  0  0  0  0
 13 35  1  0  0  0  0
 14 18  1  0  0  0  0
 14 15  1  0  0  0  0
 14 36  1  0  0  0  0
 15 16  1  0  0  0  0
 15 37  1  0  0  0  0
 15 38  1  0  0  0  0
 16 17  1  0  0  0  0
 16 39  1  0  0  0  0
 16 40  1  0  0  0  0
 17 18  1  0  0  0  0
 18 41  1  0  0  0  0
 18 42  1  0  0  0  0
 19 24  1  0  0  0  0
 19 20  1  0  0  0  0
 19 51  1  0  0  0  0
 20 21  1  0  0  0  0
 20 43  1  0  0  0  0
 20 44  1  0  0  0  0
 21 22  1  0  0  0  0
 21 45  1  0  0  0  0
 21 46  1  0  0  0  0
 22 23  1  0  0  0  0
 23 24  1  0  0  0  0
 23 47  1  0  0  0  0
 23 48  1  0  0  0  0
 24 49  1  0  0  0  0
 24 50  1  0  0  0  0
M  CHG  1  19   1
M  END
> <s_m_source_file>
AV-unprocessed.smi

> <i_m_source_file_index>
1734

> <i_lp_mmshare_version>
43012

> <i_f3d_flags>
0

> <s_epik_input>
W0NIM11jMVtjSF1bY0hdW2NIXW5jMVtOSF1DKD1PKVtOSF1bQ0gyXVtDQEhdKFtDQEBIXTJbQ0gyXVtDSDJdT1tDSDJdMilOM1tDSDJdW0NIMl1PW0NIMl1bQ0gyXTM=

> <s_epik_cmdline>
J2VwaWtfcHl0aG9uJywgJy1waCcsICc3LjAnLCAnLXRuJywgJzgnLCAnLW1hJywgJzIwMCcsICctbWV0YWxfYmluZGluZycsICctaW1hZScsICc8aW5maWxlLm1hZT4nLCAnLW9tYWUnLCAnPG91dGZpbGUubWFlPic=

> <r_epik_Ionization_Penalty>
0.983302

> <r_epik_Ionization_Penalty_Charging>
0.98326

> <r_epik_Ionization_Penalty_Neutral>
4.21967e-05

> <r_epik_State_Penalty>
1.0303

> <r_epik_Charging_Adjusted_Penalty>
2.01356

> <i_epik_Tot_Q>
1

> <i_epik_Tot_abs_Q>
1

> <r_epik_Metal_State_Penalty>
1.03031

> <b_epik_Metal_Only>
0

> <s_lp_Force_Field>
OPLS_2005

> <r_lp_Energy>
50.4673

> <b_lp_Chiralities_Consistent>
1

> <s_lp_Variant>
AV-unprocessed.smi:1734-5

> <Gold.Version>
5.8.1

> <Gold.Id.Protein>
6NUR|6NUR_protein|mol2

> <Gold.PLP.Fitness>
47.9309

> <Gold.PLP.PLP>
-36.2463

> <Gold.PLP.part.hbond>
-3.0000

> <Gold.PLP.part.metal>
0.0000

> <Gold.PLP.part.buried>
-5.4342

> <Gold.PLP.part.nonpolar>
-28.7130

> <Gold.PLP.part.repulsive>
0.5351

> <Gold.PLP.ligand.clash>
0.0000

> <Gold.PLP.ligand.torsion>
1.5395

> <Gold.PLP.Chemscore.Hbond>
3.8262

> <Gold.PLP.Chemscore.CHOScore>
1.0000

> <Gold.PLP.Chemscore.Metal>
0.0000

> <Gold.Chemscore.Hbonds>
donor molecule, donor type, donor heavy atom, donor atom, acceptor molecule, acceptor atom, score
      L1  H     8    31       P1  7948  1.00
      L1  H    11    32       P1  7948  0.86
      L1  H    19    51       P1 10175  2.00
      L1  C     5    30       P1 10186  1.00

> <Gold.PLP.Chemscore.Internal.Correction>
0.2850

> <Gold.Rescore>
     Score         DG    S(hbond)    S(metal)    S(lipo)     H(rot)  DE(clash)    DE(int)     intcor
     18.05     -20.96       2.81        0.00      89.23       1.70       0.48       2.43       ----

> <Gold.Chemscore.Fitness>
18.0509

> <Gold.Chemscore.DG>
-20.9576

> <Gold.Chemscore.ZeroCoef>
-5.4800

> <Gold.Chemscore.Hbond>
2.8103

> <Gold.Chemscore.Metal>
0.0000

> <Gold.Chemscore.Lipo>
89.2290

> <Gold.Chemscore.Internal_Hbond>
0.0000

> <Gold.Chemscore.DEClash>
0.4800

> <Gold.Chemscore.DEInternal>
2.4267

> <Gold.Chemscore.Rot>
1.6986

> <Gold.Chemscore.Internal.Correction>
   9.000000E+99

> <Gold.Chemscore.Hbonds>
donor molecule, donor type, donor heavy atom, donor atom, acceptor molecule, acceptor atom, score
      L1  H     8    31       P1  7948  0.99
      L1  H    11    32       P1  7948  0.79
      L1  H    19    51       P1 10175  0.85

> <Gold.Chemscore.Hbond.Weighted>
-9.3863

> <Gold.Chemscore.Metal.Weighted>
-0.0000

> <Gold.Chemscore.Lipo.Weighted>
-10.4398

> <Gold.Chemscore.Internal_Hbond.Weighted>
0.0000

> <Gold.Chemscore.DEClash.Weighted>
0.4800

> <Gold.Chemscore.DEInternal.Weighted>
2.4267

> <Gold.Chemscore.Rot.Weighted>
4.3485

> <Gold.Chemscore.Internal.Correction.Weighted>
   9.000000E+99

> <Gold.Protein.RotatedTorsions>
[ 6907 6896 6895 6894 ] final  126.84 input  -60.11 | X-H torsion
[ 7974 7965 7964 7962 ] final  104.94 input  175.53 | X-H torsion
[ 8008 7997 7996 7995 ] final   -8.56 input   59.86 | X-H torsion
[ 10167 10162 10161 10158 ] final   77.47 input  -65.29 | X-H torsion
[ 10718 10713 10712 10709 ] final   33.78 input   66.30 | X-H torsion
[ 10763 10752 10751 10750 ] final  113.82 input  -60.55 | X-H torsion
[ 11005 11000 10999 10996 ] final  -17.61 input  -57.11 | X-H torsion

> <Gold.Protein.ActiveResidues>
 VAL166  LYS551  ARG553  GLY616  TRP617  ASP618  TYR619  PRO620  LYS621  CYS622 
 ASP623  PHE694  ASN695  SER759  ASP760  ASP761  ALA762  ILE779  LEU786  VAL792 
 PHE793  MET794  SER795  GLU796  ALA797  LYS798  CYS799  TRP800  GLU811  SER814 

> <Gold.Protein.RotatedAtoms>
  152.3867  133.6621  159.6204 H   0  0  0  0  0  0  0  0  0  0  0  0  # atno 6907 bound_to 6896
  150.7785  133.9023  159.3353 H   0  0  0  0  0  0  0  0  0  0  0  0  # atno 6908 bound_to 6896
  151.6818  135.0962  160.0268 H   0  0  0  0  0  0  0  0  0  0  0  0  # atno 6909 bound_to 6896
  145.3262  139.2499  143.3685 H   0  0  0  0  0  0  0  0  0  0  0  0  # atno 7974 bound_to 7965
  154.5730  140.2378  155.8164 H   0  0  0  0  0  0  0  0  0  0  0  0  # atno 8008 bound_to 7997
  156.2121  140.3023  155.9714 H   0  0  0  0  0  0  0  0  0  0  0  0  # atno 8009 bound_to 7997
  155.2678  140.0417  157.2994 H   0  0  0  0  0  0  0  0  0  0  0  0  # atno 8010 bound_to 7997
  139.9812  144.5825  150.7899 H   0  0  0  0  0  0  0  0  0  0  0  0  # atno 10167 bound_to 10162
  157.3021  130.7356  149.6673 H   0  0  0  0  0  0  0  0  0  0  0  0  # atno 10718 bound_to 10713
  153.4981  135.3644  155.2526 H   0  0  0  0  0  0  0  0  0  0  0  0  # atno 10763 bound_to 10752
  154.8749  135.3993  154.3510 H   0  0  0  0  0  0  0  0  0  0  0  0  # atno 10764 bound_to 10752
  153.4141  135.7078  153.6405 H   0  0  0  0  0  0  0  0  0  0  0  0  # atno 10765 bound_to 10752
  140.8185  133.8086  155.9635 H   0  0  0  0  0  0  0  0  0  0  0  0  # atno 11005 bound_to 11000
  146.3063  140.3830  142.8686 LP  0  0  0  0  0  0  0  0  0  0  0  0  # atno 17320 bound_to 7965
  144.8900  140.7511  143.5933 LP  0  0  0  0  0  0  0  0  0  0  0  0  # atno 17321 bound_to 7965
  140.7488  143.2929  151.3283 LP  0  0  0  0  0  0  0  0  0  0  0  0  # atno 17342 bound_to 10162
  139.6408  144.0542  152.2553 LP  0  0  0  0  0  0  0  0  0  0  0  0  # atno 17343 bound_to 10162
  155.9672  130.4277  150.4754 LP  0  0  0  0  0  0  0  0  0  0  0  0  # atno 17370 bound_to 10713
  157.2737  131.0592  151.2243 LP  0  0  0  0  0  0  0  0  0  0  0  0  # atno 17371 bound_to 10713
  140.9123  134.2245  157.4978 LP  0  0  0  0  0  0  0  0  0  0  0  0  # atno 17394 bound_to 11000
  139.8710  134.9756  156.4888 LP  0  0  0  0  0  0  0  0  0  0  0  0  # atno 17395 bound_to 11000

$$$$
