AV-unprocessed.smi:3251|AV-procd|sdf|12436|dock2
  -GOLD-   2272018323D 1   1.00000     0.00000
 Structure written by MMmdl.
 41 42  0  0  0  0  0  0  0  0  2 V2000
  144.5589  132.9110  150.8575 C   0  0  0  0  0  0  0  0  0  0  0  0
  144.7998  134.3104  151.3461 C   0  0  0  0  0  0  0  0  0  0  0  0
  144.2591  134.9350  152.5057 C   0  0  0  0  0  0  0  0  0  0  0  0
  144.6708  136.1834  152.6561 N   0  0  0  0  0  0  0  0  0  0  0  0
  145.4854  136.3995  151.6016 N   0  0  0  0  0  0  0  0  0  0  0  0
  146.1359  137.6876  151.4433 C   0  0  0  0  0  0  0  0  0  0  0  0
  146.5621  138.2900  152.7909 C   0  0  0  0  0  0  0  0  0  0  0  0
  148.0158  138.5643  152.8269 N   0  3  0  0  0  0  0  0  0  0  0  0
  148.5233  139.1212  154.1015 C   0  0  1  0  0  0  0  0  0  0  0  0
  150.0081  138.7565  154.2604 C   0  0  0  0  0  0  0  0  0  0  0  0
  148.3483  140.6524  154.1614 C   0  0  0  0  0  0  0  0  0  0  0  0
  149.3166  141.3714  153.9087 O   0  0  0  0  0  0  0  0  0  0  0  0
  147.1463  141.1674  154.4992 N   0  0  0  0  0  0  0  0  0  0  0  0
  146.8858  142.6040  154.5800 C   0  0  0  0  0  0  0  0  0  0  0  0
  145.3707  142.7452  154.7260 C   0  0  0  0  0  0  0  0  0  0  0  0
  144.9360  141.4321  155.3600 C   0  0  0  0  0  0  0  0  0  0  0  0
  145.9373  140.4094  154.8232 C   0  0  0  0  0  0  0  0  0  0  0  0
  145.5826  135.2853  150.7955 C   0  0  0  0  0  0  0  0  0  0  0  0
  143.5393  132.5824  151.0603 H   0  0  0  0  0  0  0  0  0  0  0  0
  145.2281  132.1976  151.3384 H   0  0  0  0  0  0  0  0  0  0  0  0
  144.7148  132.8243  149.7819 H   0  0  0  0  0  0  0  0  0  0  0  0
  143.5825  134.5198  153.2383 H   0  0  0  0  0  0  0  0  0  0  0  0
  147.0116  137.5492  150.8079 H   0  0  0  0  0  0  0  0  0  0  0  0
  145.4670  138.3644  150.9090 H   0  0  0  0  0  0  0  0  0  0  0  0
  145.9991  139.2054  152.9777 H   0  0  0  0  0  0  0  0  0  0  0  0
  146.3162  137.5966  153.5955 H   0  0  0  0  0  0  0  0  0  0  0  0
  148.4963  137.6943  152.6482 H   0  0  0  0  0  0  0  0  0  0  0  0
  147.9639  138.6409  154.9045 H   0  0  0  0  0  0  0  0  0  0  0  0
  150.4190  139.1385  155.1956 H   0  0  0  0  0  0  0  0  0  0  0  0
  150.6093  139.1625  153.4456 H   0  0  0  0  0  0  0  0  0  0  0  0
  150.1456  137.6748  154.2644 H   0  0  0  0  0  0  0  0  0  0  0  0
  147.3942  143.0076  155.4572 H   0  0  0  0  0  0  0  0  0  0  0  0
  147.2493  143.1393  153.7013 H   0  0  0  0  0  0  0  0  0  0  0  0
  145.0812  143.6163  155.3146 H   0  0  0  0  0  0  0  0  0  0  0  0
  144.9158  142.8425  153.7394 H   0  0  0  0  0  0  0  0  0  0  0  0
  145.0304  141.5024  156.4445 H   0  0  0  0  0  0  0  0  0  0  0  0
  143.9018  141.1732  155.1309 H   0  0  0  0  0  0  0  0  0  0  0  0
  145.5525  139.9471  153.9129 H   0  0  0  0  0  0  0  0  0  0  0  0
  146.1189  139.6227  155.5560 H   0  0  0  0  0  0  0  0  0  0  0  0
  146.1948  135.2776  149.9055 H   0  0  0  0  0  0  0  0  0  0  0  0
  148.2424  139.2123  152.0849 H   0  0  0  0  0  0  0  0  0  0  0  0
  1  2  1  0  0  0  0
  1 19  1  0  0  0  0
  1 20  1  0  0  0  0
  1 21  1  0  0  0  0
  2 18  2  0  0  0  0
  2  3  1  0  0  0  0
  3  4  2  0  0  0  0
  3 22  1  0  0  0  0
  4  5  1  0  0  0  0
  5  6  1  0  0  0  0
  5 18  1  0  0  0  0
  6  7  1  0  0  0  0
  6 23  1  0  0  0  0
  6 24  1  0  0  0  0
  7  8  1  0  0  0  0
  7 25  1  0  0  0  0
  7 26  1  0  0  0  0
  8  9  1  0  0  0  0
  8 27  1  0  0  0  0
  8 41  1  0  0  0  0
  9 10  1  0  0  0  0
  9 11  1  0  0  0  0
  9 28  1  0  0  0  0
 10 29  1  0  0  0  0
 10 30  1  0  0  0  0
 10 31  1  0  0  0  0
 11 12  2  0  0  0  0
 11 13  1  0  0  0  0
 13 17  1  0  0  0  0
 13 14  1  0  0  0  0
 14 15  1  0  0  0  0
 14 32  1  0  0  0  0
 14 33  1  0  0  0  0
 15 16  1  0  0  0  0
 15 34  1  0  0  0  0
 15 35  1  0  0  0  0
 16 17  1  0  0  0  0
 16 36  1  0  0  0  0
 16 37  1  0  0  0  0
 17 38  1  0  0  0  0
 17 39  1  0  0  0  0
 18 40  1  0  0  0  0
M  CHG  1   8   1
M  END
> <s_m_source_file>
AV-unprocessed.smi

> <i_m_source_file_index>
3251

> <i_lp_mmshare_version>
43012

> <i_f3d_flags>
0

> <s_epik_input>
W0NIM11jMVtjSF1ubihbY0hdMSlbQ0gyXVtDSDJdW05IXVtDQEhdKFtDSDNdKUMoPU8pTjJbQ0gyXVtDSDJdW0NIMl1bQ0gyXTI=

> <s_epik_cmdline>
J2VwaWtfcHl0aG9uJywgJy1waCcsICc3LjAnLCAnLXRuJywgJzgnLCAnLW1hJywgJzIwMCcsICctbWV0YWxfYmluZGluZycsICctaW1hZScsICc8aW5maWxlLm1hZT4nLCAnLW9tYWUnLCAnPG91dGZpbGUubWFlPic=

> <r_lp_tautomer_probability>
1

> <r_epik_Ionization_Penalty>
0.203173

> <r_epik_Ionization_Penalty_Charging>
0.203168

> <r_epik_Ionization_Penalty_Neutral>
5.06494e-06

> <r_epik_State_Penalty>
0.193072

> <r_epik_Charging_Adjusted_Penalty>
0.39624

> <i_epik_Tot_Q>
1

> <i_epik_Tot_abs_Q>
1

> <r_epik_Metal_State_Penalty>
0.193587

> <b_epik_Metal_Only>
0

> <s_lp_Force_Field>
OPLS_2005

> <r_lp_Energy>
29.7429

> <b_lp_Chiralities_Consistent>
1

> <s_lp_Variant>
AV-unprocessed.smi:3251-2

> <Gold.Version>
5.8.1

> <Gold.Id.Protein>
6NUR|6NUR_protein|mol2

> <Gold.PLP.Fitness>
45.2211

> <Gold.PLP.PLP>
-33.2119

> <Gold.PLP.part.hbond>
-4.0000

> <Gold.PLP.part.metal>
0.0000

> <Gold.PLP.part.buried>
1.7791

> <Gold.PLP.part.nonpolar>
-33.2063

> <Gold.PLP.part.repulsive>
1.4244

> <Gold.PLP.ligand.clash>
0.0000

> <Gold.PLP.ligand.torsion>
1.5851

> <Gold.PLP.Chemscore.Hbond>
4.0379

> <Gold.PLP.Chemscore.CHOScore>
1.0000

> <Gold.PLP.Chemscore.Metal>
0.0000

> <Gold.Chemscore.Hbonds>
donor molecule, donor type, donor heavy atom, donor atom, acceptor molecule, acceptor atom, score
      L1  H     8    27       P1  7948  2.00
      L1  H     8    41       P1  7957  0.93
      P1  H  7989  7998       L1    12  0.04
      P1  H  8011  8017       L1    12  0.77
      L1  C    18    40       P1  7921  1.00

> <Gold.PLP.Chemscore.Internal.Correction>
0.0657

> <Gold.Rescore>
     Score         DG    S(hbond)    S(metal)    S(lipo)     H(rot)  DE(clash)    DE(int)     intcor
     14.48     -18.18       2.78        0.00      67.67       1.76       1.97       1.72       ----

> <Gold.Chemscore.Fitness>
14.4830

> <Gold.Chemscore.DG>
-18.1785

> <Gold.Chemscore.ZeroCoef>
-5.4800

> <Gold.Chemscore.Hbond>
2.7802

> <Gold.Chemscore.Metal>
0.0000

> <Gold.Chemscore.Lipo>
67.6747

> <Gold.Chemscore.Internal_Hbond>
0.0000

> <Gold.Chemscore.DEClash>
1.9713

> <Gold.Chemscore.DEInternal>
1.7243

> <Gold.Chemscore.Rot>
1.7599

> <Gold.Chemscore.Internal.Correction>
   9.000000E+99

> <Gold.Chemscore.Hbonds>
donor molecule, donor type, donor heavy atom, donor atom, acceptor molecule, acceptor atom, score
      L1  H     8    27       P1  7948  1.00
      L1  H     8    41       P1  7957  0.89
      P1  H  7989  7998       L1    12  0.05
      P1  H  8011  8017       L1    12  0.77

> <Gold.Chemscore.Hbond.Weighted>
-9.2859

> <Gold.Chemscore.Metal.Weighted>
-0.0000

> <Gold.Chemscore.Lipo.Weighted>
-7.9179

> <Gold.Chemscore.Internal_Hbond.Weighted>
0.0000

> <Gold.Chemscore.DEClash.Weighted>
1.9713

> <Gold.Chemscore.DEInternal.Weighted>
1.7243

> <Gold.Chemscore.Rot.Weighted>
4.5053

> <Gold.Chemscore.Internal.Correction.Weighted>
   9.000000E+99

> <Gold.Protein.RotatedTorsions>
[ 6907 6896 6895 6894 ] final -107.29 input  -60.11 | X-H torsion
[ 7974 7965 7964 7962 ] final  113.91 input  175.53 | X-H torsion
[ 8008 7997 7996 7995 ] final  151.76 input   59.86 | X-H torsion
[ 10167 10162 10161 10158 ] final  171.37 input  -65.29 | X-H torsion
[ 10718 10713 10712 10709 ] final  -96.69 input   66.30 | X-H torsion
[ 10763 10752 10751 10750 ] final   74.35 input  -60.55 | X-H torsion
[ 11005 11000 10999 10996 ] final -133.10 input  -57.11 | X-H torsion

> <Gold.Protein.ActiveResidues>
 VAL166  LYS551  ARG553  GLY616  TRP617  ASP618  TYR619  PRO620  LYS621  CYS622 
 ASP623  PHE694  ASN695  SER759  ASP760  ASP761  ALA762  ILE779  LEU786  VAL792 
 PHE793  MET794  SER795  GLU796  ALA797  LYS798  CYS799  TRP800  GLU811  SER814 

> <Gold.Protein.RotatedAtoms>
  150.7436  133.9848  159.3587 H   0  0  0  0  0  0  0  0  0  0  0  0  # atno 6907 bound_to 6896
  151.7792  135.0764  160.0380 H   0  0  0  0  0  0  0  0  0  0  0  0  # atno 6908 bound_to 6896
  152.3286  133.5896  159.5830 H   0  0  0  0  0  0  0  0  0  0  0  0  # atno 6909 bound_to 6896
  145.2110  139.2906  143.4268 H   0  0  0  0  0  0  0  0  0  0  0  0  # atno 7974 bound_to 7965
  156.2659  140.2039  156.6227 H   0  0  0  0  0  0  0  0  0  0  0  0  # atno 8008 bound_to 7997
  154.6744  140.0546  157.0224 H   0  0  0  0  0  0  0  0  0  0  0  0  # atno 8009 bound_to 7997
  155.1090  140.3213  155.4529 H   0  0  0  0  0  0  0  0  0  0  0  0  # atno 8010 bound_to 7997
  139.5045  144.3493  151.9939 H   0  0  0  0  0  0  0  0  0  0  0  0  # atno 10167 bound_to 10162
  156.0067  130.5162  150.6263 H   0  0  0  0  0  0  0  0  0  0  0  0  # atno 10718 bound_to 10713
  153.0581  135.5029  154.8029 H   0  0  0  0  0  0  0  0  0  0  0  0  # atno 10763 bound_to 10752
  154.6839  135.2973  154.9576 H   0  0  0  0  0  0  0  0  0  0  0  0  # atno 10764 bound_to 10752
  154.0353  135.6724  153.4837 H   0  0  0  0  0  0  0  0  0  0  0  0  # atno 10765 bound_to 10752
  140.9111  134.1567  157.4389 H   0  0  0  0  0  0  0  0  0  0  0  0  # atno 11005 bound_to 11000
  146.3397  140.2386  142.8595 LP  0  0  0  0  0  0  0  0  0  0  0  0  # atno 17320 bound_to 7965
  144.9856  140.8500  143.5371 LP  0  0  0  0  0  0  0  0  0  0  0  0  # atno 17321 bound_to 7965
  140.2930  144.3732  150.6083 LP  0  0  0  0  0  0  0  0  0  0  0  0  # atno 17342 bound_to 10162
  140.5932  143.2167  151.7214 LP  0  0  0  0  0  0  0  0  0  0  0  0  # atno 17343 bound_to 10162
  157.4069  131.0818  151.1257 LP  0  0  0  0  0  0  0  0  0  0  0  0  # atno 17370 bound_to 10713
  157.1901  130.6348  149.5701 LP  0  0  0  0  0  0  0  0  0  0  0  0  # atno 17371 bound_to 10713
  139.8757  134.9936  156.5652 LP  0  0  0  0  0  0  0  0  0  0  0  0  # atno 17394 bound_to 11000
  140.8109  133.8430  155.8809 LP  0  0  0  0  0  0  0  0  0  0  0  0  # atno 17395 bound_to 11000

$$$$
