AV-unprocessed.smi:2120|AV-procd|sdf|8638|dock7
  -GOLD-   2272011383D 1   1.00000     0.00000
 Structure written by MMmdl.
 45 48  0  0  0  0  0  0  0  0  1 V2000
  155.6369  140.4039  160.7290 O   0  0  0  0  0  0  0  0  0  0  0  0
  154.9294  140.0670  161.6795 C   0  0  0  0  0  0  0  0  0  0  0  0
  153.9795  140.8729  162.1835 N   0  0  0  0  0  0  0  0  0  0  0  0
  153.6687  142.2122  161.6981 C   0  0  0  0  0  0  0  0  0  0  0  0
  153.2625  142.2009  160.2147 C   0  0  0  0  0  0  0  0  0  0  0  0
  152.2750  143.3022  159.8827 C   0  0  0  0  0  0  0  0  0  0  0  0
  151.8752  143.5326  158.5501 C   0  0  0  0  0  0  0  0  0  0  0  0
  150.9577  144.5675  158.2860 C   0  0  0  0  0  0  0  0  0  0  0  0
  150.4756  145.3286  159.3697 C   0  0  0  0  0  0  0  0  0  0  0  0
  150.8505  145.1165  160.6498 N   0  0  0  0  0  0  0  0  0  0  0  0
  151.7320  144.1231  160.8943 C   0  0  0  0  0  0  0  0  0  0  0  0
  155.1245  138.6724  162.3203 C   0  0  0  0  0  0  0  0  0  0  0  0
  155.5178  138.8479  163.8126 C   0  0  0  0  0  0  0  0  0  0  0  0
  155.6675  137.4704  164.4942 C   0  0  1  0  0  0  0  0  0  0  0  0
  154.3270  136.7096  164.4207 C   0  0  0  0  0  0  0  0  0  0  0  0
  153.9374  136.5091  162.9412 C   0  0  2  0  0  0  0  0  0  0  0  0
  155.0302  135.6905  162.2238 C   0  0  0  0  0  0  0  0  0  0  0  0
  156.3696  136.4519  162.3032 C   0  0  2  0  0  0  0  0  0  0  0  0
  156.7656  136.6543  163.7806 C   0  0  0  0  0  0  0  0  0  0  0  0
  156.2262  137.8260  161.6148 C   0  0  0  0  0  0  0  0  0  0  0  0
  153.7861  137.8845  162.2565 C   0  0  0  0  0  0  0  0  0  0  0  0
  153.4364  140.5327  162.9637 H   0  0  0  0  0  0  0  0  0  0  0  0
  152.8527  142.6092  162.3024 H   0  0  0  0  0  0  0  0  0  0  0  0
  154.5239  142.8708  161.8594 H   0  0  0  0  0  0  0  0  0  0  0  0
  154.1397  142.3252  159.5785 H   0  0  0  0  0  0  0  0  0  0  0  0
  152.8284  141.2344  159.9545 H   0  0  0  0  0  0  0  0  0  0  0  0
  152.2664  142.9290  157.7441 H   0  0  0  0  0  0  0  0  0  0  0  0
  150.6308  144.7734  157.2774 H   0  0  0  0  0  0  0  0  0  0  0  0
  149.7704  146.1293  159.2030 H   0  0  0  0  0  0  0  0  0  0  0  0
  152.0112  143.9811  161.9280 H   0  0  0  0  0  0  0  0  0  0  0  0
  156.4537  139.4028  163.8953 H   0  0  0  0  0  0  0  0  0  0  0  0
  154.7676  139.4365  164.3435 H   0  0  0  0  0  0  0  0  0  0  0  0
  155.9448  137.6127  165.5391 H   0  0  0  0  0  0  0  0  0  0  0  0
  154.4111  135.7455  164.9239 H   0  0  0  0  0  0  0  0  0  0  0  0
  153.5480  137.2644  164.9450 H   0  0  0  0  0  0  0  0  0  0  0  0
  152.9897  135.9727  162.8868 H   0  0  0  0  0  0  0  0  0  0  0  0
  155.1275  134.7059  162.6831 H   0  0  0  0  0  0  0  0  0  0  0  0
  154.7527  135.5197  161.1829 H   0  0  0  0  0  0  0  0  0  0  0  0
  157.1436  135.8733  161.7977 H   0  0  0  0  0  0  0  0  0  0  0  0
  157.7246  137.1695  163.8482 H   0  0  0  0  0  0  0  0  0  0  0  0
  156.8982  135.6893  164.2715 H   0  0  0  0  0  0  0  0  0  0  0  0
  155.9826  137.6803  160.5610 H   0  0  0  0  0  0  0  0  0  0  0  0
  157.1878  138.3417  161.6429 H   0  0  0  0  0  0  0  0  0  0  0  0
  152.9833  138.4414  162.7425 H   0  0  0  0  0  0  0  0  0  0  0  0
  153.4763  137.7480  161.2192 H   0  0  0  0  0  0  0  0  0  0  0  0
  1  2  2  0  0  0  0
  2  3  1  0  0  0  0
  2 12  1  0  0  0  0
  3  4  1  0  0  0  0
  3 22  1  0  0  0  0
  4  5  1  0  0  0  0
  4 23  1  0  0  0  0
  4 24  1  0  0  0  0
  5  6  1  0  0  0  0
  5 25  1  0  0  0  0
  5 26  1  0  0  0  0
  6 11  1  0  0  0  0
  6  7  2  0  0  0  0
  7  8  1  0  0  0  0
  7 27  1  0  0  0  0
  8  9  2  0  0  0  0
  8 28  1  0  0  0  0
  9 10  1  0  0  0  0
  9 29  1  0  0  0  0
 10 11  2  0  0  0  0
 11 30  1  0  0  0  0
 12 20  1  0  0  0  0
 12 21  1  0  0  0  0
 12 13  1  0  0  0  0
 13 14  1  0  0  0  0
 13 31  1  0  0  0  0
 13 32  1  0  0  0  0
 14 19  1  0  0  0  0
 14 15  1  0  0  0  0
 14 33  1  0  0  0  0
 15 16  1  0  0  0  0
 15 34  1  0  0  0  0
 15 35  1  0  0  0  0
 16 17  1  0  0  0  0
 16 21  1  0  0  0  0
 16 36  1  0  0  0  0
 17 18  1  0  0  0  0
 17 37  1  0  0  0  0
 17 38  1  0  0  0  0
 18 19  1  0  0  0  0
 18 20  1  0  0  0  0
 18 39  1  0  0  0  0
 19 40  1  0  0  0  0
 19 41  1  0  0  0  0
 20 42  1  0  0  0  0
 20 43  1  0  0  0  0
 21 44  1  0  0  0  0
 21 45  1  0  0  0  0
M  END
> <s_m_source_file>
AV-unprocessed.smi

> <i_m_source_file_index>
2120

> <i_lp_mmshare_version>
43012

> <i_f3d_flags>
0

> <s_epik_input>
W0NIMl0xW0NASF0oW0NIMl0yKVtDSDJdW0NASF0oW0NIMl0zKVtDSDJdW0NAQEhdMVtDSDJdQzIzQyg9TylbTkhdW0NIMl1bQ0gyXWM0W2NIXVtjSF1bY0hdbltjSF00

> <s_epik_cmdline>
J2VwaWtfcHl0aG9uJywgJy1waCcsICc3LjAnLCAnLXRuJywgJzgnLCAnLW1hJywgJzIwMCcsICctbWV0YWxfYmluZGluZycsICctaW1hZScsICc8aW5maWxlLm1hZT4nLCAnLW9tYWUnLCAnPG91dGZpbGUubWFlPic=

> <r_epik_Ionization_Penalty>
0.0137322

> <r_epik_Ionization_Penalty_Charging>
0

> <r_epik_Ionization_Penalty_Neutral>
0.0137322

> <r_epik_State_Penalty>
0.0107033

> <r_epik_Charging_Adjusted_Penalty>
0.0107033

> <i_epik_Tot_Q>
0

> <i_epik_Tot_abs_Q>
0

> <r_epik_Metal_State_Penalty>
0.0104605

> <b_epik_Metal_Only>
0

> <s_lp_Force_Field>
OPLS_2005

> <r_lp_Energy>
34.8386

> <b_lp_Chiralities_Consistent>
1

> <s_lp_Variant>
AV-unprocessed.smi:2120-1

> <Gold.Version>
5.8.1

> <Gold.Id.Protein>
6NUR|6NUR_protein|mol2

> <Gold.PLP.Fitness>
46.1609

> <Gold.PLP.PLP>
-43.6907

> <Gold.PLP.part.hbond>
-1.0000

> <Gold.PLP.part.metal>
0.0000

> <Gold.PLP.part.buried>
-4.7120

> <Gold.PLP.part.nonpolar>
-37.8829

> <Gold.PLP.part.repulsive>
0.2002

> <Gold.PLP.ligand.clash>
0.0000

> <Gold.PLP.ligand.torsion>
0.2386

> <Gold.PLP.Chemscore.Hbond>
0.0000

> <Gold.PLP.Chemscore.CHOScore>
0.9799

> <Gold.PLP.Chemscore.Metal>
0.0000

> <Gold.Chemscore.Hbonds>
donor molecule, donor type, donor heavy atom, donor atom, acceptor molecule, acceptor atom, score
      L1  C     9    29       P1  8029  0.53

> <Gold.PLP.Chemscore.Internal.Correction>
0.0076

> <Gold.Rescore>
     Score         DG    S(hbond)    S(metal)    S(lipo)     H(rot)  DE(clash)    DE(int)     intcor
     17.46     -19.02       0.00        0.00     144.75       1.32       1.27       0.29       ----

> <Gold.Chemscore.Fitness>
17.4574

> <Gold.Chemscore.DG>
-19.0236

> <Gold.Chemscore.ZeroCoef>
-5.4800

> <Gold.Chemscore.Hbond>
0.0000

> <Gold.Chemscore.Metal>
0.0000

> <Gold.Chemscore.Lipo>
144.7488

> <Gold.Chemscore.Internal_Hbond>
0.0000

> <Gold.Chemscore.DEClash>
1.2725

> <Gold.Chemscore.DEInternal>
0.2937

> <Gold.Chemscore.Rot>
1.3250

> <Gold.Chemscore.Internal.Correction>
   9.000000E+99

> <Gold.Chemscore.Hbond.Weighted>
-0.0000

> <Gold.Chemscore.Metal.Weighted>
-0.0000

> <Gold.Chemscore.Lipo.Weighted>
-16.9356

> <Gold.Chemscore.Internal_Hbond.Weighted>
0.0000

> <Gold.Chemscore.DEClash.Weighted>
1.2725

> <Gold.Chemscore.DEInternal.Weighted>
0.2937

> <Gold.Chemscore.Rot.Weighted>
3.3920

> <Gold.Chemscore.Internal.Correction.Weighted>
   9.000000E+99

> <Gold.Protein.RotatedTorsions>
[ 6907 6896 6895 6894 ] final  -24.81 input  -60.11 | X-H torsion
[ 7974 7965 7964 7962 ] final   48.91 input  175.53 | X-H torsion
[ 8008 7997 7996 7995 ] final  178.34 input   59.86 | X-H torsion
[ 10167 10162 10161 10158 ] final   84.23 input  -65.29 | X-H torsion
[ 10718 10713 10712 10709 ] final -119.17 input   66.30 | X-H torsion
[ 10763 10752 10751 10750 ] final   -9.20 input  -60.55 | X-H torsion
[ 11005 11000 10999 10996 ] final  -82.62 input  -57.11 | X-H torsion

> <Gold.Protein.ActiveResidues>
 VAL166  LYS551  ARG553  GLY616  TRP617  ASP618  TYR619  PRO620  LYS621  CYS622 
 ASP623  PHE694  ASN695  SER759  ASP760  ASP761  ALA762  ILE779  LEU786  VAL792 
 PHE793  MET794  SER795  GLU796  ALA797  LYS798  CYS799  TRP800  GLU811  SER814 

> <Gold.Protein.RotatedAtoms>
  151.1842  135.0374  159.8805 H   0  0  0  0  0  0  0  0  0  0  0  0  # atno 6907 bound_to 6896
  152.5443  134.1028  159.8335 H   0  0  0  0  0  0  0  0  0  0  0  0  # atno 6908 bound_to 6896
  151.1149  133.5099  159.2636 H   0  0  0  0  0  0  0  0  0  0  0  0  # atno 6909 bound_to 6896
  146.0159  139.4595  142.9927 H   0  0  0  0  0  0  0  0  0  0  0  0  # atno 7974 bound_to 7965
  156.0557  140.1336  156.9999 H   0  0  0  0  0  0  0  0  0  0  0  0  # atno 8008 bound_to 7997
  154.4456  140.1002  156.6513 H   0  0  0  0  0  0  0  0  0  0  0  0  # atno 8009 bound_to 7997
  155.5455  140.3462  155.4459 H   0  0  0  0  0  0  0  0  0  0  0  0  # atno 8010 bound_to 7997
  139.9101  144.6277  150.8546 H   0  0  0  0  0  0  0  0  0  0  0  0  # atno 10167 bound_to 10162
  156.1161  130.6287  150.9383 H   0  0  0  0  0  0  0  0  0  0  0  0  # atno 10718 bound_to 10713
  153.4514  135.7015  153.6107 H   0  0  0  0  0  0  0  0  0  0  0  0  # atno 10763 bound_to 10752
  153.4440  135.3773  155.2245 H   0  0  0  0  0  0  0  0  0  0  0  0  # atno 10764 bound_to 10752
  154.8728  135.3981  154.3926 H   0  0  0  0  0  0  0  0  0  0  0  0  # atno 10765 bound_to 10752
  141.1662  133.7253  156.8599 H   0  0  0  0  0  0  0  0  0  0  0  0  # atno 11005 bound_to 11000
  145.7270  141.0055  143.1372 LP  0  0  0  0  0  0  0  0  0  0  0  0  # atno 17320 bound_to 7965
  144.6970  139.8938  143.7454 LP  0  0  0  0  0  0  0  0  0  0  0  0  # atno 17321 bound_to 7965
  140.7687  143.3372  151.2285 LP  0  0  0  0  0  0  0  0  0  0  0  0  # atno 17342 bound_to 10162
  139.6950  143.9629  152.2878 LP  0  0  0  0  0  0  0  0  0  0  0  0  # atno 17343 bound_to 10162
  157.6344  131.0917  150.8378 LP  0  0  0  0  0  0  0  0  0  0  0  0  # atno 17370 bound_to 10713
  156.8481  130.5071  149.5314 LP  0  0  0  0  0  0  0  0  0  0  0  0  # atno 17371 bound_to 10713
  140.1856  134.9002  157.3000 LP  0  0  0  0  0  0  0  0  0  0  0  0  # atno 17394 bound_to 11000
  140.2347  134.3867  155.7506 LP  0  0  0  0  0  0  0  0  0  0  0  0  # atno 17395 bound_to 11000

$$$$
