AV-unprocessed.smi:1063|AV-procd|sdf|4663|dock2
  -GOLD-   22720 3173D 1   1.00000     0.00000
 Structure written by MMmdl.
 38 39  0  0  0  0  0  0  0  0  1 V2000
  152.4283  142.6122  158.8035 C   0  0  0  0  0  0  0  0  0  0  0  0
  151.6530  141.6362  157.9151 C   0  0  0  0  0  0  0  0  0  0  0  0
  151.0177  142.4538  156.4230 S   0  0  0  0  0  0  0  0  0  0  0  0
  150.1444  141.2354  155.4859 C   0  0  0  0  0  0  0  0  0  0  0  0
  148.7808  141.4133  155.1837 C   0  0  0  0  0  0  0  0  0  0  0  0
  148.1319  140.4165  154.4306 C   0  0  0  0  0  0  0  0  0  0  0  0
  148.8611  139.2822  154.0172 C   0  0  0  0  0  0  0  0  0  0  0  0
  148.1880  138.3038  153.2371 N   0  0  0  0  0  0  0  0  0  0  0  0
  146.8651  138.1244  153.0837 C   0  0  0  0  0  0  0  0  0  0  0  0
  145.9904  138.8529  153.5510 O   0  0  0  0  0  0  0  0  0  0  0  0
  146.6072  137.0455  152.3311 N   0  0  0  0  0  0  0  0  0  0  0  0
  145.2776  136.5584  151.9775 C   0  0  0  0  0  0  0  0  0  0  0  0
  145.3455  135.3333  151.0489 C   0  0  1  0  0  0  0  0  0  0  0  0
  146.2489  134.1976  151.5296 C   0  0  0  0  0  0  0  0  0  0  0  0
  145.6678  132.9691  150.8479 C   0  0  0  0  0  0  0  0  0  0  0  0
  144.2787  133.4194  150.3848 C   0  0  0  0  0  0  0  0  0  0  0  0
  144.0804  134.6972  150.9750 O   0  0  0  0  0  0  0  0  0  0  0  0
  150.2325  139.2124  154.3690 C   0  0  0  0  0  0  0  0  0  0  0  0
  150.8635  140.1641  155.0895 N   0  0  0  0  0  0  0  0  0  0  0  0
  152.7991  142.1111  159.6977 H   0  0  0  0  0  0  0  0  0  0  0  0
  151.7959  143.4402  159.1241 H   0  0  0  0  0  0  0  0  0  0  0  0
  153.2862  143.0280  158.2748 H   0  0  0  0  0  0  0  0  0  0  0  0
  152.2994  140.8092  157.6202 H   0  0  0  0  0  0  0  0  0  0  0  0
  150.8164  141.2116  158.4704 H   0  0  0  0  0  0  0  0  0  0  0  0
  148.2462  142.2904  155.5177 H   0  0  0  0  0  0  0  0  0  0  0  0
  147.0872  140.5230  154.1772 H   0  0  0  0  0  0  0  0  0  0  0  0
  148.7851  137.6839  152.7095 H   0  0  0  0  0  0  0  0  0  0  0  0
  147.3905  136.5114  151.9842 H   0  0  0  0  0  0  0  0  0  0  0  0
  144.6909  136.3341  152.8701 H   0  0  0  0  0  0  0  0  0  0  0  0
  144.7560  137.3685  151.4674 H   0  0  0  0  0  0  0  0  0  0  0  0
  145.6364  135.6405  150.0423 H   0  0  0  0  0  0  0  0  0  0  0  0
  147.2993  134.3616  151.2871 H   0  0  0  0  0  0  0  0  0  0  0  0
  146.1668  134.0841  152.6114 H   0  0  0  0  0  0  0  0  0  0  0  0
  146.2749  132.6621  149.9955 H   0  0  0  0  0  0  0  0  0  0  0  0
  145.6124  132.1288  151.5406 H   0  0  0  0  0  0  0  0  0  0  0  0
  144.2510  133.5179  149.2988 H   0  0  0  0  0  0  0  0  0  0  0  0
  143.4926  132.7252  150.6828 H   0  0  0  0  0  0  0  0  0  0  0  0
  150.8627  138.3949  154.0558 H   0  0  0  0  0  0  0  0  0  0  0  0
  1  2  1  0  0  0  0
  1 20  1  0  0  0  0
  1 21  1  0  0  0  0
  1 22  1  0  0  0  0
  2  3  1  0  0  0  0
  2 23  1  0  0  0  0
  2 24  1  0  0  0  0
  3  4  1  0  0  0  0
  4 19  1  0  0  0  0
  4  5  2  0  0  0  0
  5  6  1  0  0  0  0
  5 25  1  0  0  0  0
  6  7  2  0  0  0  0
  6 26  1  0  0  0  0
  7  8  1  0  0  0  0
  7 18  1  0  0  0  0
  8  9  1  0  0  0  0
  8 27  1  0  0  0  0
  9 10  2  0  0  0  0
  9 11  1  0  0  0  0
 11 12  1  0  0  0  0
 11 28  1  0  0  0  0
 12 13  1  0  0  0  0
 12 29  1  0  0  0  0
 12 30  1  0  0  0  0
 13 17  1  0  0  0  0
 13 14  1  0  0  0  0
 13 31  1  0  0  0  0
 14 15  1  0  0  0  0
 14 32  1  0  0  0  0
 14 33  1  0  0  0  0
 15 16  1  0  0  0  0
 15 34  1  0  0  0  0
 15 35  1  0  0  0  0
 16 17  1  0  0  0  0
 16 36  1  0  0  0  0
 16 37  1  0  0  0  0
 18 19  2  0  0  0  0
 18 38  1  0  0  0  0
M  END
> <s_m_source_file>
AV-unprocessed.smi

> <i_m_source_file_index>
1063

> <i_lp_mmshare_version>
43012

> <i_f3d_flags>
0

> <s_epik_input>
W0NIM11bQ0gyXVNjMVtjSF1bY0hdYyhbY0hdbjEpW05IXUMoPU8pW05IXVtDSDJdW0NAQEhdMltDSDJdW0NIMl1bQ0gyXU8y

> <s_epik_cmdline>
J2VwaWtfcHl0aG9uJywgJy1waCcsICc3LjAnLCAnLXRuJywgJzgnLCAnLW1hJywgJzIwMCcsICctbWV0YWxfYmluZGluZycsICctaW1hZScsICc8aW5maWxlLm1hZT4nLCAnLW9tYWUnLCAnPG91dGZpbGUubWFlPic=

> <r_lp_tautomer_probability>
1

> <r_epik_Ionization_Penalty>
0.000426617

> <r_epik_Ionization_Penalty_Charging>
0

> <r_epik_Ionization_Penalty_Neutral>
0.000426617

> <r_epik_State_Penalty>
0.000241115

> <r_epik_Charging_Adjusted_Penalty>
0.000241115

> <i_epik_Tot_Q>
0

> <i_epik_Tot_abs_Q>
0

> <r_epik_Metal_State_Penalty>
-0

> <b_epik_Metal_Only>
0

> <s_lp_Force_Field>
OPLS_2005

> <r_lp_Energy>
18.8486

> <b_lp_Chiralities_Consistent>
1

> <s_lp_Variant>
AV-unprocessed.smi:1063-2

> <Gold.Version>
5.8.1

> <Gold.Id.Protein>
6NUR|6NUR_protein|mol2

> <Gold.PLP.Fitness>
42.0892

> <Gold.PLP.PLP>
-34.8795

> <Gold.PLP.part.hbond>
-3.9117

> <Gold.PLP.part.metal>
0.0000

> <Gold.PLP.part.buried>
-4.3355

> <Gold.PLP.part.nonpolar>
-29.2553

> <Gold.PLP.part.repulsive>
1.2387

> <Gold.PLP.ligand.clash>
0.0000

> <Gold.PLP.ligand.torsion>
0.1295

> <Gold.PLP.Chemscore.Hbond>
2.4760

> <Gold.PLP.Chemscore.CHOScore>
0.0000

> <Gold.PLP.Chemscore.Metal>
0.0000

> <Gold.Chemscore.Hbonds>
donor molecule, donor type, donor heavy atom, donor atom, acceptor molecule, acceptor atom, score
      L1  H     8    27       P1  7948  0.99
      L1  H    11    28       P1  7948  1.00
      P1  H  7989  7998       L1    19  0.52

> <Gold.PLP.Chemscore.Internal.Correction>
0.0407

> <Gold.Rescore>
     Score         DG    S(hbond)    S(metal)    S(lipo)     H(rot)  DE(clash)    DE(int)     intcor
     16.81     -18.62       1.92        0.00      89.66       1.47       0.26       1.55       ----

> <Gold.Chemscore.Fitness>
16.8114

> <Gold.Chemscore.DG>
-18.6180

> <Gold.Chemscore.ZeroCoef>
-5.4800

> <Gold.Chemscore.Hbond>
1.9180

> <Gold.Chemscore.Metal>
0.0000

> <Gold.Chemscore.Lipo>
89.6605

> <Gold.Chemscore.Internal_Hbond>
0.0000

> <Gold.Chemscore.DEClash>
0.2614

> <Gold.Chemscore.DEInternal>
1.5452

> <Gold.Chemscore.Rot>
1.4681

> <Gold.Chemscore.Internal.Correction>
   9.000000E+99

> <Gold.Chemscore.Hbonds>
donor molecule, donor type, donor heavy atom, donor atom, acceptor molecule, acceptor atom, score
      L1  H     8    27       P1  7948  0.94
      L1  H    11    28       P1  7948  0.94
      P1  H  7989  7998       L1    19  0.01

> <Gold.Chemscore.Hbond.Weighted>
-6.4061

> <Gold.Chemscore.Metal.Weighted>
-0.0000

> <Gold.Chemscore.Lipo.Weighted>
-10.4903

> <Gold.Chemscore.Internal_Hbond.Weighted>
0.0000

> <Gold.Chemscore.DEClash.Weighted>
0.2614

> <Gold.Chemscore.DEInternal.Weighted>
1.5452

> <Gold.Chemscore.Rot.Weighted>
3.7584

> <Gold.Chemscore.Internal.Correction.Weighted>
   9.000000E+99

> <Gold.Protein.RotatedTorsions>
[ 6907 6896 6895 6894 ] final  -10.31 input  -60.11 | X-H torsion
[ 7974 7965 7964 7962 ] final  -46.13 input  175.53 | X-H torsion
[ 8008 7997 7996 7995 ] final    6.66 input   59.86 | X-H torsion
[ 10167 10162 10161 10158 ] final   99.12 input  -65.29 | X-H torsion
[ 10718 10713 10712 10709 ] final -133.32 input   66.30 | X-H torsion
[ 10763 10752 10751 10750 ] final   86.17 input  -60.55 | X-H torsion
[ 11005 11000 10999 10996 ] final -115.53 input  -57.11 | X-H torsion

> <Gold.Protein.ActiveResidues>
 VAL166  LYS551  ARG553  GLY616  TRP617  ASP618  TYR619  PRO620  LYS621  CYS622 
 ASP623  PHE694  ASN695  SER759  ASP760  ASP761  ALA762  ILE779  LEU786  VAL792 
 PHE793  MET794  SER795  GLU796  ALA797  LYS798  CYS799  TRP800  GLU811  SER814 

> <Gold.Protein.RotatedAtoms>
  151.4040  135.0975  159.9564 H   0  0  0  0  0  0  0  0  0  0  0  0  # atno 6907 bound_to 6896
  152.5041  133.8861  159.7381 H   0  0  0  0  0  0  0  0  0  0  0  0  # atno 6908 bound_to 6896
  150.9341  133.6675  159.2833 H   0  0  0  0  0  0  0  0  0  0  0  0  # atno 6909 bound_to 6896
  145.9751  140.7343  142.9391 H   0  0  0  0  0  0  0  0  0  0  0  0  # atno 7974 bound_to 7965
  154.7438  140.2754  155.6350 H   0  0  0  0  0  0  0  0  0  0  0  0  # atno 8008 bound_to 7997
  156.2880  140.2692  156.2099 H   0  0  0  0  0  0  0  0  0  0  0  0  # atno 8009 bound_to 7997
  155.0224  140.0371  157.2432 H   0  0  0  0  0  0  0  0  0  0  0  0  # atno 8010 bound_to 7997
  139.7646  144.6943  151.0243 H   0  0  0  0  0  0  0  0  0  0  0  0  # atno 10167 bound_to 10162
  156.2437  130.7111  151.0983 H   0  0  0  0  0  0  0  0  0  0  0  0  # atno 10718 bound_to 10713
  153.1545  135.4590  154.9684 H   0  0  0  0  0  0  0  0  0  0  0  0  # atno 10763 bound_to 10752
  154.7850  135.3201  154.7908 H   0  0  0  0  0  0  0  0  0  0  0  0  # atno 10764 bound_to 10752
  153.8408  135.6930  153.4857 H   0  0  0  0  0  0  0  0  0  0  0  0  # atno 10765 bound_to 10752
  141.0481  133.9730  157.2883 H   0  0  0  0  0  0  0  0  0  0  0  0  # atno 11005 bound_to 11000
  144.6846  140.2813  143.7291 LP  0  0  0  0  0  0  0  0  0  0  0  0  # atno 17320 bound_to 7965
  145.7851  139.1906  143.2135 LP  0  0  0  0  0  0  0  0  0  0  0  0  # atno 17321 bound_to 7965
  140.7810  143.4658  151.0215 LP  0  0  0  0  0  0  0  0  0  0  0  0  # atno 17342 bound_to 10162
  139.8343  143.7649  152.3180 LP  0  0  0  0  0  0  0  0  0  0  0  0  # atno 17343 bound_to 10162
  157.7186  131.0695  150.6228 LP  0  0  0  0  0  0  0  0  0  0  0  0  # atno 17370 bound_to 10713
  156.6303  130.4430  149.5789 LP  0  0  0  0  0  0  0  0  0  0  0  0  # atno 17371 bound_to 10713
  139.9328  135.0199  156.8457 LP  0  0  0  0  0  0  0  0  0  0  0  0  # atno 17394 bound_to 11000
  140.6107  134.0085  155.7576 LP  0  0  0  0  0  0  0  0  0  0  0  0  # atno 17395 bound_to 11000

$$$$
