AV-unprocessed.smi:1607|AV-procd|sdf|6464|dock4
  -GOLD-   22720 7123D 1   1.00000     0.00000
 Structure written by MMmdl.
 39 40  0  0  0  0  0  0  0  0  2 V2000
  145.7767  136.3635  150.9889 C   0  0  0  0  0  0  0  0  0  0  0  0
  145.0741  135.1631  151.6473 C   0  0  1  0  0  0  0  0  0  0  0  0
  145.0331  133.9217  150.7368 C   0  0  0  0  0  0  0  0  0  0  0  0
  146.4106  133.2494  150.6477 C   0  0  0  0  0  0  0  0  0  0  0  0
  146.9712  132.9503  152.0472 C   0  0  0  0  0  0  0  0  0  0  0  0
  147.0308  134.1827  152.8748 N   0  3  2  0  0  0  0  0  0  0  0  0
  147.7148  133.9568  154.1730 C   0  0  0  0  0  0  0  0  0  0  0  0
  147.7164  135.2162  155.0618 C   0  0  0  0  0  0  0  0  0  0  0  0
  148.5250  136.2827  154.4822 N   0  0  0  0  0  0  0  0  0  0  0  0
  148.9659  137.3604  155.1495 C   0  0  0  0  0  0  0  0  0  0  0  0
  148.7140  137.5671  156.3366 O   0  0  0  0  0  0  0  0  0  0  0  0
  149.8189  138.3558  154.3599 C   0  0  0  0  0  0  0  0  0  0  0  0
  151.1130  138.5524  154.9866 N   0  0  0  0  0  0  0  0  0  0  0  0
  151.6548  139.6275  155.5626 C   0  0  0  0  0  0  0  0  0  0  0  0
  152.8750  139.3787  156.0129 N   0  0  0  0  0  0  0  0  0  0  0  0
  153.0697  138.0497  155.6759 N   0  0  0  0  0  0  0  0  0  0  0  0
  152.0275  137.5539  155.0672 N   0  0  0  0  0  0  0  0  0  0  0  0
  145.6882  134.8091  153.0174 C   0  0  0  0  0  0  0  0  0  0  0  0
  146.8298  136.1626  150.7922 H   0  0  0  0  0  0  0  0  0  0  0  0
  145.7249  137.2452  151.6283 H   0  0  0  0  0  0  0  0  0  0  0  0
  145.3052  136.6210  150.0400 H   0  0  0  0  0  0  0  0  0  0  0  0
  144.0421  135.4707  151.8214 H   0  0  0  0  0  0  0  0  0  0  0  0
  144.3144  133.2063  151.1389 H   0  0  0  0  0  0  0  0  0  0  0  0
  144.6750  134.1869  149.7413 H   0  0  0  0  0  0  0  0  0  0  0  0
  146.3347  132.3253  150.0739 H   0  0  0  0  0  0  0  0  0  0  0  0
  147.1039  133.8902  150.1022 H   0  0  0  0  0  0  0  0  0  0  0  0
  146.3559  132.2022  152.5498 H   0  0  0  0  0  0  0  0  0  0  0  0
  147.9695  132.5230  151.9441 H   0  0  0  0  0  0  0  0  0  0  0  0
  147.2566  133.1138  154.6926 H   0  0  0  0  0  0  0  0  0  0  0  0
  148.7503  133.6724  153.9809 H   0  0  0  0  0  0  0  0  0  0  0  0
  146.6969  135.5699  155.2256 H   0  0  0  0  0  0  0  0  0  0  0  0
  148.1299  134.9985  156.0457 H   0  0  0  0  0  0  0  0  0  0  0  0
  148.7777  136.1893  153.5087 H   0  0  0  0  0  0  0  0  0  0  0  0
  149.9773  138.0083  153.3377 H   0  0  0  0  0  0  0  0  0  0  0  0
  149.2970  139.3118  154.2979 H   0  0  0  0  0  0  0  0  0  0  0  0
  151.1607  140.5840  155.6493 H   0  0  0  0  0  0  0  0  0  0  0  0
  145.7456  135.7104  153.6269 H   0  0  0  0  0  0  0  0  0  0  0  0
  145.0295  134.1199  153.5486 H   0  0  0  0  0  0  0  0  0  0  0  0
  147.6067  134.8346  152.3613 H   0  0  0  0  0  0  0  0  0  0  0  0
  1  2  1  0  0  0  0
  1 19  1  0  0  0  0
  1 20  1  0  0  0  0
  1 21  1  0  0  0  0
  2 18  1  0  0  0  0
  2  3  1  0  0  0  0
  2 22  1  0  0  0  0
  3  4  1  0  0  0  0
  3 23  1  0  0  0  0
  3 24  1  0  0  0  0
  4  5  1  0  0  0  0
  4 25  1  0  0  0  0
  4 26  1  0  0  0  0
  5  6  1  0  0  0  0
  5 27  1  0  0  0  0
  5 28  1  0  0  0  0
  6  7  1  0  0  0  0
  6 18  1  0  0  0  0
  6 39  1  0  0  0  0
  7  8  1  0  0  0  0
  7 29  1  0  0  0  0
  7 30  1  0  0  0  0
  8  9  1  0  0  0  0
  8 31  1  0  0  0  0
  8 32  1  0  0  0  0
  9 10  1  0  0  0  0
  9 33  1  0  0  0  0
 10 11  2  0  0  0  0
 10 12  1  0  0  0  0
 12 13  1  0  0  0  0
 12 34  1  0  0  0  0
 12 35  1  0  0  0  0
 13 17  1  0  0  0  0
 13 14  1  0  0  0  0
 14 15  2  0  0  0  0
 14 36  1  0  0  0  0
 15 16  1  0  0  0  0
 16 17  2  0  0  0  0
 18 37  1  0  0  0  0
 18 38  1  0  0  0  0
M  CHG  1   6   1
M  END
> <s_m_source_file>
AV-unprocessed.smi

> <i_m_source_file_index>
1607

> <i_lp_mmshare_version>
43012

> <i_f3d_flags>
0

> <s_epik_input>
W0NIM11bQ0BASF0xW0NIMl1bQ0gyXVtDSDJdTihbQ0gyXTEpW0NIMl1bQ0gyXVtOSF1DKD1PKVtDSDJdbjJbY0hdbm5uMg==

> <s_epik_cmdline>
J2VwaWtfcHl0aG9uJywgJy1waCcsICc3LjAnLCAnLXRuJywgJzgnLCAnLW1hJywgJzIwMCcsICctbWV0YWxfYmluZGluZycsICctaW1hZScsICc8aW5maWxlLm1hZT4nLCAnLW9tYWUnLCAnPG91dGZpbGUubWFlPic=

> <r_lp_tautomer_probability>
1

> <r_epik_Ionization_Penalty>
0.00268321

> <r_epik_Ionization_Penalty_Charging>
0.00267875

> <r_epik_Ionization_Penalty_Neutral>
4.46125e-06

> <r_epik_State_Penalty>
0.00186642

> <r_epik_Charging_Adjusted_Penalty>
0.00454517

> <i_epik_Tot_Q>
1

> <i_epik_Tot_abs_Q>
1

> <r_epik_Metal_State_Penalty>
-0

> <b_epik_Metal_Only>
0

> <s_lp_Force_Field>
OPLS_2005

> <r_lp_Energy>
22.4706

> <b_lp_Chiralities_Consistent>
1

> <s_lp_Variant>
AV-unprocessed.smi:1607-2

> <Gold.Version>
5.8.1

> <Gold.Id.Protein>
6NUR|6NUR_protein|mol2

> <Gold.PLP.Fitness>
43.6073

> <Gold.PLP.PLP>
-29.8164

> <Gold.PLP.part.hbond>
-4.9660

> <Gold.PLP.part.metal>
0.0000

> <Gold.PLP.part.buried>
-3.3294

> <Gold.PLP.part.nonpolar>
-22.5217

> <Gold.PLP.part.repulsive>
0.0956

> <Gold.PLP.ligand.clash>
0.0000

> <Gold.PLP.ligand.torsion>
0.1873

> <Gold.PLP.Chemscore.Hbond>
4.7040

> <Gold.PLP.Chemscore.CHOScore>
0.0000

> <Gold.PLP.Chemscore.Metal>
0.0000

> <Gold.Chemscore.Hbonds>
donor molecule, donor type, donor heavy atom, donor atom, acceptor molecule, acceptor atom, score
      L1  H     6    39       P1  7948  2.00
      L1  H     9    33       P1  7948  1.00
      P1  H  7997  8009       L1    15  1.00
      P1  H 10752 10763       L1    17  0.37

> <Gold.PLP.Chemscore.Internal.Correction>
0.0535

> <Gold.Rescore>
     Score         DG    S(hbond)    S(metal)    S(lipo)     H(rot)  DE(clash)    DE(int)     intcor
     14.53     -15.19       3.29        0.00      47.92       2.69       0.41       0.25       ----

> <Gold.Chemscore.Fitness>
14.5318

> <Gold.Chemscore.DG>
-15.1935

> <Gold.Chemscore.ZeroCoef>
-5.4800

> <Gold.Chemscore.Hbond>
3.2939

> <Gold.Chemscore.Metal>
0.0000

> <Gold.Chemscore.Lipo>
47.9178

> <Gold.Chemscore.Internal_Hbond>
0.0000

> <Gold.Chemscore.DEClash>
0.4145

> <Gold.Chemscore.DEInternal>
0.2472

> <Gold.Chemscore.Rot>
2.6932

> <Gold.Chemscore.Internal.Correction>
   9.000000E+99

> <Gold.Chemscore.Hbonds>
donor molecule, donor type, donor heavy atom, donor atom, acceptor molecule, acceptor atom, score
      L1  H     6    39       P1  7948  0.89
      L1  H     9    33       P1  7948  1.00
      P1  H  7997  8009       L1    15  0.74
      P1  H 10752 10763       L1    17  0.07

> <Gold.Chemscore.Hbond.Weighted>
-11.0017

> <Gold.Chemscore.Metal.Weighted>
-0.0000

> <Gold.Chemscore.Lipo.Weighted>
-5.6064

> <Gold.Chemscore.Internal_Hbond.Weighted>
0.0000

> <Gold.Chemscore.DEClash.Weighted>
0.4145

> <Gold.Chemscore.DEInternal.Weighted>
0.2472

> <Gold.Chemscore.Rot.Weighted>
6.8945

> <Gold.Chemscore.Internal.Correction.Weighted>
   9.000000E+99

> <Gold.Protein.RotatedTorsions>
[ 6907 6896 6895 6894 ] final  153.56 input  -60.11 | X-H torsion
[ 7974 7965 7964 7962 ] final  149.91 input  175.53 | X-H torsion
[ 8008 7997 7996 7995 ] final -169.80 input   59.86 | X-H torsion
[ 10167 10162 10161 10158 ] final -116.71 input  -65.29 | X-H torsion
[ 10718 10713 10712 10709 ] final  -81.74 input   66.30 | X-H torsion
[ 10763 10752 10751 10750 ] final   49.73 input  -60.55 | X-H torsion
[ 11005 11000 10999 10996 ] final   82.75 input  -57.11 | X-H torsion

> <Gold.Protein.ActiveResidues>
 VAL166  LYS551  ARG553  GLY616  TRP617  ASP618  TYR619  PRO620  LYS621  CYS622 
 ASP623  PHE694  ASN695  SER759  ASP760  ASP761  ALA762  ILE779  LEU786  VAL792 
 PHE793  MET794  SER795  GLU796  ALA797  LYS798  CYS799  TRP800  GLU811  SER814 

> <Gold.Protein.RotatedAtoms>
  152.0710  133.4106  159.4458 H   0  0  0  0  0  0  0  0  0  0  0  0  # atno 6907 bound_to 6896
  150.6863  134.3092  159.4748 H   0  0  0  0  0  0  0  0  0  0  0  0  # atno 6908 bound_to 6896
  152.0923  134.9398  160.0622 H   0  0  0  0  0  0  0  0  0  0  0  0  # atno 6909 bound_to 6896
  144.8403  139.6340  143.6019 H   0  0  0  0  0  0  0  0  0  0  0  0  # atno 7974 bound_to 7965
  155.9099  140.1055  157.1287 H   0  0  0  0  0  0  0  0  0  0  0  0  # atno 8008 bound_to 7997
  154.4038  140.1276  156.4608 H   0  0  0  0  0  0  0  0  0  0  0  0  # atno 8009 bound_to 7997
  155.7323  140.3468  155.5067 H   0  0  0  0  0  0  0  0  0  0  0  0  # atno 8010 bound_to 7997
  140.0763  143.4830  152.1951 H   0  0  0  0  0  0  0  0  0  0  0  0  # atno 10167 bound_to 10162
  156.0045  130.4613  150.3998 H   0  0  0  0  0  0  0  0  0  0  0  0  # atno 10718 bound_to 10713
  152.9786  135.5902  154.4136 H   0  0  0  0  0  0  0  0  0  0  0  0  # atno 10763 bound_to 10752
  154.3769  135.2767  155.2236 H   0  0  0  0  0  0  0  0  0  0  0  0  # atno 10764 bound_to 10752
  154.4167  135.6069  153.6039 H   0  0  0  0  0  0  0  0  0  0  0  0  # atno 10765 bound_to 10752
  139.9053  134.8095  156.2217 H   0  0  0  0  0  0  0  0  0  0  0  0  # atno 11005 bound_to 11000
  146.2696  139.6604  142.9305 LP  0  0  0  0  0  0  0  0  0  0  0  0  # atno 17320 bound_to 7965
  145.4708  141.0436  143.2700 LP  0  0  0  0  0  0  0  0  0  0  0  0  # atno 17321 bound_to 7965
  139.5806  144.7508  151.3650 LP  0  0  0  0  0  0  0  0  0  0  0  0  # atno 17342 bound_to 10162
  140.7100  143.7414  150.7550 LP  0  0  0  0  0  0  0  0  0  0  0  0  # atno 17343 bound_to 10162
  157.2068  131.0451  151.2621 LP  0  0  0  0  0  0  0  0  0  0  0  0  # atno 17370 bound_to 10713
  157.3925  130.7290  149.6708 LP  0  0  0  0  0  0  0  0  0  0  0  0  # atno 17371 bound_to 10713
  141.0401  133.6942  156.1583 LP  0  0  0  0  0  0  0  0  0  0  0  0  # atno 17394 bound_to 11000
  140.6968  134.4607  157.5587 LP  0  0  0  0  0  0  0  0  0  0  0  0  # atno 17395 bound_to 11000

$$$$
