AV-unprocessed.smi:1133|AV-procd|sdf|4855|dock7
  -GOLD-   22720 3423D 1   1.00000     0.00000
 Structure written by MMmdl.
 42 43  0  0  0  0  0  0  0  0  2 V2000
  145.1527  143.6048  154.4004 C   0  0  0  0  0  0  0  0  0  0  0  0
  145.4807  142.4583  155.3595 C   0  0  0  0  0  0  0  0  0  0  0  0
  144.6777  142.2095  156.2590 O   0  0  0  0  0  0  0  0  0  0  0  0
  146.6272  141.7575  155.1872 N   0  0  0  0  0  0  0  0  0  0  0  0
  146.9725  140.5876  156.0025 C   0  0  0  0  0  0  0  0  0  0  0  0
  146.8456  139.3235  155.1331 C   0  0  0  0  0  0  0  0  0  0  0  0
  147.7180  139.4236  153.8631 C   0  0  0  0  0  0  0  0  0  0  0  0
  147.4261  138.3010  152.9770 N   0  0  0  0  0  0  0  0  0  0  0  0
  146.2006  137.8283  152.7106 C   0  0  0  0  0  0  0  0  0  0  0  0
  145.1615  138.2996  153.1738 O   0  0  0  0  0  0  0  0  0  0  0  0
  146.2403  136.7719  151.8864 N   0  0  0  0  0  0  0  0  0  0  0  0
  145.0694  136.0366  151.4246 C   0  0  0  0  0  0  0  0  0  0  0  0
  144.9990  134.6323  152.0483 C   0  0  0  0  0  0  0  0  0  0  0  0
  144.3405  133.6762  151.1577 N   0  0  0  0  0  0  0  0  0  0  0  0
  144.6913  133.3575  149.8711 C   0  0  0  0  0  0  0  0  0  0  0  0
  143.7879  132.4195  149.4419 C   0  0  0  0  0  0  0  0  0  0  0  0
  142.9239  132.2076  150.4831 N   0  3  0  0  0  0  0  0  0  0  0  0
  143.2618  132.9732  151.5258 C   0  0  0  0  0  0  0  0  0  0  0  0
  147.4948  140.7660  153.1281 C   0  0  0  0  0  0  0  0  0  0  0  0
  147.5899  141.9574  154.0973 C   0  0  0  0  0  0  0  0  0  0  0  0
  145.1080  143.2482  153.3710 H   0  0  0  0  0  0  0  0  0  0  0  0
  145.9015  144.3940  154.4713 H   0  0  0  0  0  0  0  0  0  0  0  0
  144.1839  144.0431  154.6424 H   0  0  0  0  0  0  0  0  0  0  0  0
  147.9945  140.6901  156.3700 H   0  0  0  0  0  0  0  0  0  0  0  0
  146.3466  140.4916  156.8907 H   0  0  0  0  0  0  0  0  0  0  0  0
  147.1278  138.4440  155.7131 H   0  0  0  0  0  0  0  0  0  0  0  0
  145.7992  139.1879  154.8547 H   0  0  0  0  0  0  0  0  0  0  0  0
  148.7626  139.3717  154.1764 H   0  0  0  0  0  0  0  0  0  0  0  0
  148.2174  137.8450  152.5460 H   0  0  0  0  0  0  0  0  0  0  0  0
  147.1407  136.4562  151.5559 H   0  0  0  0  0  0  0  0  0  0  0  0
  144.1656  136.6048  151.6514 H   0  0  0  0  0  0  0  0  0  0  0  0
  145.1227  135.9588  150.3383 H   0  0  0  0  0  0  0  0  0  0  0  0
  145.9991  134.2559  152.2667 H   0  0  0  0  0  0  0  0  0  0  0  0
  144.4485  134.6451  152.9904 H   0  0  0  0  0  0  0  0  0  0  0  0
  145.5353  133.8093  149.3700 H   0  0  0  0  0  0  0  0  0  0  0  0
  143.6974  131.9011  148.4983 H   0  0  0  0  0  0  0  0  0  0  0  0
  142.7616  133.0164  152.4773 H   0  0  0  0  0  0  0  0  0  0  0  0
  148.2248  140.8833  152.3264 H   0  0  0  0  0  0  0  0  0  0  0  0
  146.5120  140.7696  152.6537 H   0  0  0  0  0  0  0  0  0  0  0  0
  147.4475  142.8906  153.5542 H   0  0  0  0  0  0  0  0  0  0  0  0
  148.5961  142.0168  154.5145 H   0  0  0  0  0  0  0  0  0  0  0  0
  142.1418  131.5651  150.4689 H   0  0  0  0  0  0  0  0  0  0  0  0
  1  2  1  0  0  0  0
  1 21  1  0  0  0  0
  1 22  1  0  0  0  0
  1 23  1  0  0  0  0
  2  3  2  0  0  0  0
  2  4  1  0  0  0  0
  4 20  1  0  0  0  0
  4  5  1  0  0  0  0
  5  6  1  0  0  0  0
  5 24  1  0  0  0  0
  5 25  1  0  0  0  0
  6  7  1  0  0  0  0
  6 26  1  0  0  0  0
  6 27  1  0  0  0  0
  7  8  1  0  0  0  0
  7 19  1  0  0  0  0
  7 28  1  0  0  0  0
  8  9  1  0  0  0  0
  8 29  1  0  0  0  0
  9 10  2  0  0  0  0
  9 11  1  0  0  0  0
 11 12  1  0  0  0  0
 11 30  1  0  0  0  0
 12 13  1  0  0  0  0
 12 31  1  0  0  0  0
 12 32  1  0  0  0  0
 13 14  1  0  0  0  0
 13 33  1  0  0  0  0
 13 34  1  0  0  0  0
 14 18  1  0  0  0  0
 14 15  1  0  0  0  0
 15 16  2  0  0  0  0
 15 35  1  0  0  0  0
 16 17  1  0  0  0  0
 16 36  1  0  0  0  0
 17 18  2  0  0  0  0
 17 42  1  0  0  0  0
 18 37  1  0  0  0  0
 19 20  1  0  0  0  0
 19 38  1  0  0  0  0
 19 39  1  0  0  0  0
 20 40  1  0  0  0  0
 20 41  1  0  0  0  0
M  CHG  1  17   1
M  END
> <s_m_source_file>
AV-unprocessed.smi

> <i_m_source_file_index>
1133

> <i_lp_mmshare_version>
43012

> <i_f3d_flags>
0

> <s_epik_input>
W0NIM11DKD1PKU4xW0NIMl1bQ0gyXVtDSF0oW0NIMl1bQ0gyXTEpW05IXUMoPU8pW05IXVtDSDJdW0NIMl1uMltjSF1bY0hdbltjSF0y

> <s_epik_cmdline>
J2VwaWtfcHl0aG9uJywgJy1waCcsICc3LjAnLCAnLXRuJywgJzgnLCAnLW1hJywgJzIwMCcsICctbWV0YWxfYmluZGluZycsICctaW1hZScsICc8aW5maWxlLm1hZT4nLCAnLW9tYWUnLCAnPG91dGZpbGUubWFlPic=

> <r_lp_tautomer_probability>
1

> <r_epik_Ionization_Penalty>
0.255167

> <r_epik_Ionization_Penalty_Charging>
0

> <r_epik_Ionization_Penalty_Neutral>
0.255167

> <r_epik_State_Penalty>
0.246616

> <r_epik_Charging_Adjusted_Penalty>
0.246616

> <i_epik_Tot_Q>
1

> <i_epik_Tot_abs_Q>
1

> <r_epik_Metal_State_Penalty>
0.536415

> <b_epik_Metal_Only>
0

> <s_lp_Force_Field>
OPLS_2005

> <r_lp_Energy>
22.8295

> <b_lp_Chiralities_Consistent>
1

> <s_lp_Variant>
AV-unprocessed.smi:1133-1

> <Gold.Version>
5.8.1

> <Gold.Id.Protein>
6NUR|6NUR_protein|mol2

> <Gold.PLP.Fitness>
46.0182

> <Gold.PLP.PLP>
-32.6087

> <Gold.PLP.part.hbond>
-3.8719

> <Gold.PLP.part.metal>
0.0000

> <Gold.PLP.part.buried>
-4.4112

> <Gold.PLP.part.nonpolar>
-28.6514

> <Gold.PLP.part.repulsive>
3.0426

> <Gold.PLP.ligand.clash>
0.0000

> <Gold.PLP.ligand.torsion>
0.5197

> <Gold.PLP.Chemscore.Hbond>
2.9760

> <Gold.PLP.Chemscore.CHOScore>
1.8321

> <Gold.PLP.Chemscore.Metal>
0.0000

> <Gold.Chemscore.Hbonds>
donor molecule, donor type, donor heavy atom, donor atom, acceptor molecule, acceptor atom, score
      L1  H     8    29       P1  7948  0.96
      L1  H    11    30       P1  7948  1.00
      L1  H    17    42       P1 10952  1.00
      L1  C    15    35       P1  7921  1.00
      L1  C    18    37       P1 10957  0.78

> <Gold.PLP.Chemscore.Internal.Correction>
0.0246

> <Gold.Rescore>
     Score         DG    S(hbond)    S(metal)    S(lipo)     H(rot)  DE(clash)    DE(int)     intcor
     12.50     -16.67       2.90        0.00      58.31       2.08       2.28       1.89       ----

> <Gold.Chemscore.Fitness>
12.5037

> <Gold.Chemscore.DG>
-16.6679

> <Gold.Chemscore.ZeroCoef>
-5.4800

> <Gold.Chemscore.Hbond>
2.9007

> <Gold.Chemscore.Metal>
0.0000

> <Gold.Chemscore.Lipo>
58.3139

> <Gold.Chemscore.Internal_Hbond>
0.0000

> <Gold.Chemscore.DEClash>
2.2766

> <Gold.Chemscore.DEInternal>
1.8877

> <Gold.Chemscore.Rot>
2.0794

> <Gold.Chemscore.Internal.Correction>
   9.000000E+99

> <Gold.Chemscore.Hbonds>
donor molecule, donor type, donor heavy atom, donor atom, acceptor molecule, acceptor atom, score
      L1  H     8    29       P1  7948  0.92
      L1  H    11    30       P1  7948  0.95
      L1  H    17    42       P1 10952  0.33

> <Gold.Chemscore.Hbond.Weighted>
-9.6884

> <Gold.Chemscore.Metal.Weighted>
-0.0000

> <Gold.Chemscore.Lipo.Weighted>
-6.8227

> <Gold.Chemscore.Internal_Hbond.Weighted>
0.0000

> <Gold.Chemscore.DEClash.Weighted>
2.2766

> <Gold.Chemscore.DEInternal.Weighted>
1.8877

> <Gold.Chemscore.Rot.Weighted>
5.3232

> <Gold.Chemscore.Internal.Correction.Weighted>
   9.000000E+99

> <Gold.Protein.RotatedTorsions>
[ 6907 6896 6895 6894 ] final  -47.53 input  -60.11 | X-H torsion
[ 7974 7965 7964 7962 ] final   55.92 input  175.53 | X-H torsion
[ 8008 7997 7996 7995 ] final  -53.20 input   59.86 | X-H torsion
[ 10167 10162 10161 10158 ] final   87.81 input  -65.29 | X-H torsion
[ 10718 10713 10712 10709 ] final   35.05 input   66.30 | X-H torsion
[ 10763 10752 10751 10750 ] final   86.73 input  -60.55 | X-H torsion
[ 11005 11000 10999 10996 ] final  -44.98 input  -57.11 | X-H torsion

> <Gold.Protein.ActiveResidues>
 VAL166  LYS551  ARG553  GLY616  TRP617  ASP618  TYR619  PRO620  LYS621  CYS622 
 ASP623  PHE694  ASN695  SER759  ASP760  ASP761  ALA762  ILE779  LEU786  VAL792 
 PHE793  MET794  SER795  GLU796  ALA797  LYS798  CYS799  TRP800  GLU811  SER814 

> <Gold.Protein.RotatedAtoms>
  150.8999  134.8410  159.7352 H   0  0  0  0  0  0  0  0  0  0  0  0  # atno 6907 bound_to 6896
  152.4886  134.4519  159.9587 H   0  0  0  0  0  0  0  0  0  0  0  0  # atno 6908 bound_to 6896
  151.4572  133.3563  159.2839 H   0  0  0  0  0  0  0  0  0  0  0  0  # atno 6909 bound_to 6896
  145.9453  139.3924  143.0339 H   0  0  0  0  0  0  0  0  0  0  0  0  # atno 7974 bound_to 7965
  154.4127  140.1205  156.5116 H   0  0  0  0  0  0  0  0  0  0  0  0  # atno 8008 bound_to 7997
  155.6793  140.3496  155.4830 H   0  0  0  0  0  0  0  0  0  0  0  0  # atno 8009 bound_to 7997
  155.9565  140.1115  157.0922 H   0  0  0  0  0  0  0  0  0  0  0  0  # atno 8010 bound_to 7997
  139.8736  144.6479  150.8922 H   0  0  0  0  0  0  0  0  0  0  0  0  # atno 10167 bound_to 10162
  157.3179  130.7433  149.6766 H   0  0  0  0  0  0  0  0  0  0  0  0  # atno 10718 bound_to 10713
  153.1599  135.4569  154.9757 H   0  0  0  0  0  0  0  0  0  0  0  0  # atno 10763 bound_to 10752
  154.7890  135.3214  154.7824 H   0  0  0  0  0  0  0  0  0  0  0  0  # atno 10764 bound_to 10752
  153.8315  135.6938  153.4868 H   0  0  0  0  0  0  0  0  0  0  0  0  # atno 10765 bound_to 10752
  141.0486  133.6752  156.2948 H   0  0  0  0  0  0  0  0  0  0  0  0  # atno 11005 bound_to 11000
  145.8245  140.9662  143.0881 LP  0  0  0  0  0  0  0  0  0  0  0  0  # atno 17320 bound_to 7965
  144.6786  140.0083  143.7484 LP  0  0  0  0  0  0  0  0  0  0  0  0  # atno 17321 bound_to 7965
  140.7756  143.3643  151.1768 LP  0  0  0  0  0  0  0  0  0  0  0  0  # atno 17342 bound_to 10162
  139.7261  143.9146  152.3003 LP  0  0  0  0  0  0  0  0  0  0  0  0  # atno 17343 bound_to 10162
  155.9683  130.4232  150.4550 LP  0  0  0  0  0  0  0  0  0  0  0  0  # atno 17370 bound_to 10713
  157.2561  131.0557  151.2349 LP  0  0  0  0  0  0  0  0  0  0  0  0  # atno 17371 bound_to 10713
  140.6100  134.5468  157.5532 LP  0  0  0  0  0  0  0  0  0  0  0  0  # atno 17394 bound_to 11000
  139.9331  134.7925  156.0875 LP  0  0  0  0  0  0  0  0  0  0  0  0  # atno 17395 bound_to 11000

$$$$
