AV-unprocessed.smi:1406|AV-procd|sdf|5709|dock3
  -GOLD-   22720 5343D 1   1.00000     0.00000
 Structure written by MMmdl.
 41 43  0  0  0  0  0  0  0  0  2 V2000
  149.7925  137.4530  154.8700 C   0  0  0  0  0  0  0  0  0  0  0  0
  150.6191  136.2057  155.2437 C   0  0  2  0  0  0  0  0  0  0  0  0
  149.7719  134.9246  155.2895 C   0  0  0  0  0  0  0  0  0  0  0  0
  149.7254  134.2369  156.3098 O   0  0  0  0  0  0  0  0  0  0  0  0
  149.1055  134.6142  154.1661 N   0  0  0  0  0  0  0  0  0  0  0  0
  148.2658  133.4347  153.9805 C   0  0  2  0  0  0  0  0  0  0  0  0
  149.0169  132.1273  154.2038 C   0  0  0  0  0  0  0  0  0  0  0  0
  148.1220  131.1152  153.4874 C   0  0  0  0  0  0  0  0  0  0  0  0
  147.5477  131.8331  152.3270 N   0  3  1  0  0  0  0  0  0  0  0  0
  146.1718  131.4171  151.9603 C   0  0  0  0  0  0  0  0  0  0  0  0
  145.6726  132.2155  150.7426 C   0  0  0  0  0  0  0  0  0  0  0  0
  145.8269  133.7408  150.9164 C   0  0  0  0  0  0  0  0  0  0  0  0
  146.4658  134.1195  152.2618 C   0  0  0  0  0  0  0  0  0  0  0  0
  147.7441  133.2958  152.5393 C   0  0  1  0  0  0  0  0  0  0  0  0
  151.3384  136.3764  156.4999 N   0  0  0  0  0  0  0  0  0  0  0  0
  150.8727  136.5894  157.7327 C   0  0  0  0  0  0  0  0  0  0  0  0
  151.8194  136.7495  158.6464 N   0  0  0  0  0  0  0  0  0  0  0  0
  152.9250  136.6243  157.8537 C   0  0  0  0  0  0  0  0  0  0  0  0
  152.6932  136.4118  156.5585 N   0  0  0  0  0  0  0  0  0  0  0  0
  149.3038  137.3253  153.9036 H   0  0  0  0  0  0  0  0  0  0  0  0
  150.4315  138.3336  154.7978 H   0  0  0  0  0  0  0  0  0  0  0  0
  149.0169  137.6689  155.6060 H   0  0  0  0  0  0  0  0  0  0  0  0
  151.3692  136.0729  154.4618 H   0  0  0  0  0  0  0  0  0  0  0  0
  149.2000  135.2355  153.3756 H   0  0  0  0  0  0  0  0  0  0  0  0
  147.4251  133.4564  154.6776 H   0  0  0  0  0  0  0  0  0  0  0  0
  149.9973  132.1623  153.7260 H   0  0  0  0  0  0  0  0  0  0  0  0
  149.1609  131.8930  155.2590 H   0  0  0  0  0  0  0  0  0  0  0  0
  148.6658  130.2233  153.1754 H   0  0  0  0  0  0  0  0  0  0  0  0
  147.3241  130.8003  154.1621 H   0  0  0  0  0  0  0  0  0  0  0  0
  146.1638  130.3500  151.7357 H   0  0  0  0  0  0  0  0  0  0  0  0
  145.5008  131.5646  152.8082 H   0  0  0  0  0  0  0  0  0  0  0  0
  146.2271  131.9009  149.8574 H   0  0  0  0  0  0  0  0  0  0  0  0
  144.6291  131.9672  150.5454 H   0  0  0  0  0  0  0  0  0  0  0  0
  146.4413  134.1323  150.1048 H   0  0  0  0  0  0  0  0  0  0  0  0
  144.8566  134.2293  150.8216 H   0  0  0  0  0  0  0  0  0  0  0  0
  146.6946  135.1853  152.2727 H   0  0  0  0  0  0  0  0  0  0  0  0
  145.7392  133.9608  153.0601 H   0  0  0  0  0  0  0  0  0  0  0  0
  148.5237  133.5996  151.8385 H   0  0  0  0  0  0  0  0  0  0  0  0
  149.8191  136.6334  157.9662 H   0  0  0  0  0  0  0  0  0  0  0  0
  153.9302  136.6998  158.2413 H   0  0  0  0  0  0  0  0  0  0  0  0
  148.1294  131.6012  151.5344 H   0  0  0  0  0  0  0  0  0  0  0  0
  1  2  1  0  0  0  0
  1 20  1  0  0  0  0
  1 21  1  0  0  0  0
  1 22  1  0  0  0  0
  2  3  1  0  0  0  0
  2 15  1  0  0  0  0
  2 23  1  0  0  0  0
  3  4  2  0  0  0  0
  3  5  1  0  0  0  0
  5  6  1  0  0  0  0
  5 24  1  0  0  0  0
  6 14  1  0  0  0  0
  6  7  1  0  0  0  0
  6 25  1  0  0  0  0
  7  8  1  0  0  0  0
  7 26  1  0  0  0  0
  7 27  1  0  0  0  0
  8  9  1  0  0  0  0
  8 28  1  0  0  0  0
  8 29  1  0  0  0  0
  9 14  1  0  0  0  0
  9 10  1  0  0  0  0
  9 41  1  0  0  0  0
 10 11  1  0  0  0  0
 10 30  1  0  0  0  0
 10 31  1  0  0  0  0
 11 12  1  0  0  0  0
 11 32  1  0  0  0  0
 11 33  1  0  0  0  0
 12 13  1  0  0  0  0
 12 34  1  0  0  0  0
 12 35  1  0  0  0  0
 13 14  1  0  0  0  0
 13 36  1  0  0  0  0
 13 37  1  0  0  0  0
 14 38  1  0  0  0  0
 15 19  1  0  0  0  0
 15 16  1  0  0  0  0
 16 17  2  0  0  0  0
 16 39  1  0  0  0  0
 17 18  1  0  0  0  0
 18 19  2  0  0  0  0
 18 40  1  0  0  0  0
M  CHG  1   9   1
M  END
> <s_m_source_file>
AV-unprocessed.smi

> <i_m_source_file_index>
1406

> <i_lp_mmshare_version>
43012

> <i_f3d_flags>
0

> <s_epik_input>
bjFbY0hdbltjSF1uMVtDQEhdKFtDSDNdKUMoPU8pW05IXVtDQEhdKFtDSDJdW0NIMl0yKVtDQEBIXShOMjMpW0NIMl1bQ0gyXVtDSDJdW0NIMl0z

> <s_epik_cmdline>
J2VwaWtfcHl0aG9uJywgJy1waCcsICc3LjAnLCAnLXRuJywgJzgnLCAnLW1hJywgJzIwMCcsICctbWV0YWxfYmluZGluZycsICctaW1hZScsICc8aW5maWxlLm1hZT4nLCAnLW9tYWUnLCAnPG91dGZpbGUubWFlPic=

> <r_lp_tautomer_probability>
1

> <r_epik_Ionization_Penalty>
0.00197066

> <r_epik_Ionization_Penalty_Charging>
0.00196223

> <r_epik_Ionization_Penalty_Neutral>
8.43107e-06

> <r_epik_State_Penalty>
0.00133866

> <r_epik_Charging_Adjusted_Penalty>
0.00330089

> <i_epik_Tot_Q>
1

> <i_epik_Tot_abs_Q>
1

> <r_epik_Metal_State_Penalty>
-0

> <b_epik_Metal_Only>
0

> <s_lp_Force_Field>
OPLS_2005

> <r_lp_Energy>
45.3265

> <b_lp_Chiralities_Consistent>
1

> <s_lp_Variant>
AV-unprocessed.smi:1406-1

> <Gold.Version>
5.8.1

> <Gold.Id.Protein>
6NUR|6NUR_protein|mol2

> <Gold.PLP.Fitness>
39.6938

> <Gold.PLP.PLP>
-28.6601

> <Gold.PLP.part.hbond>
-4.0000

> <Gold.PLP.part.metal>
0.0000

> <Gold.PLP.part.buried>
-3.7667

> <Gold.PLP.part.nonpolar>
-21.7713

> <Gold.PLP.part.repulsive>
0.0115

> <Gold.PLP.ligand.clash>
0.0000

> <Gold.PLP.ligand.torsion>
0.0641

> <Gold.PLP.Chemscore.Hbond>
3.6864

> <Gold.PLP.Chemscore.CHOScore>
0.0000

> <Gold.PLP.Chemscore.Metal>
0.0000

> <Gold.Chemscore.Hbonds>
donor molecule, donor type, donor heavy atom, donor atom, acceptor molecule, acceptor atom, score
      L1  H     5    24       P1  7948  0.95
      L1  H     9    41       P1 10747  1.00
      P1  H  6896  6909       L1    17  0.69
      P1  H 10752 10765       L1    19  1.00

> <Gold.PLP.Chemscore.Internal.Correction>
0.1028

> <Gold.Rescore>
     Score         DG    S(hbond)    S(metal)    S(lipo)     H(rot)  DE(clash)    DE(int)     intcor
     16.78     -18.07       3.27        0.00      55.49       1.89       0.02       1.27       ----

> <Gold.Chemscore.Fitness>
16.7771

> <Gold.Chemscore.DG>
-18.0655

> <Gold.Chemscore.ZeroCoef>
-5.4800

> <Gold.Chemscore.Hbond>
3.2704

> <Gold.Chemscore.Metal>
0.0000

> <Gold.Chemscore.Lipo>
55.4852

> <Gold.Chemscore.Internal_Hbond>
0.0000

> <Gold.Chemscore.DEClash>
0.0174

> <Gold.Chemscore.DEInternal>
1.2710

> <Gold.Chemscore.Rot>
1.8865

> <Gold.Chemscore.Internal.Correction>
   9.000000E+99

> <Gold.Chemscore.Hbonds>
donor molecule, donor type, donor heavy atom, donor atom, acceptor molecule, acceptor atom, score
      L1  H     5    24       P1  7948  0.22
      L1  H     9    41       P1 10747  1.00
      P1  H  6896  6909       L1    17  0.26
      P1  H 10752 10765       L1    19  0.60

> <Gold.Chemscore.Hbond.Weighted>
-10.9232

> <Gold.Chemscore.Metal.Weighted>
-0.0000

> <Gold.Chemscore.Lipo.Weighted>
-6.4918

> <Gold.Chemscore.Internal_Hbond.Weighted>
0.0000

> <Gold.Chemscore.DEClash.Weighted>
0.0174

> <Gold.Chemscore.DEInternal.Weighted>
1.2710

> <Gold.Chemscore.Rot.Weighted>
4.8295

> <Gold.Chemscore.Internal.Correction.Weighted>
   9.000000E+99

> <Gold.Protein.RotatedTorsions>
[ 6907 6896 6895 6894 ] final  117.50 input  -60.11 | X-H torsion
[ 7974 7965 7964 7962 ] final -141.79 input  175.53 | X-H torsion
[ 8008 7997 7996 7995 ] final  -59.72 input   59.86 | X-H torsion
[ 10167 10162 10161 10158 ] final -122.22 input  -65.29 | X-H torsion
[ 10718 10713 10712 10709 ] final -140.82 input   66.30 | X-H torsion
[ 10763 10752 10751 10750 ] final -139.90 input  -60.55 | X-H torsion
[ 11005 11000 10999 10996 ] final   87.63 input  -57.11 | X-H torsion

> <Gold.Protein.ActiveResidues>
 VAL166  LYS551  ARG553  GLY616  TRP617  ASP618  TYR619  PRO620  LYS621  CYS622 
 ASP623  PHE694  ASN695  SER759  ASP760  ASP761  ALA762  ILE779  LEU786  VAL792 
 PHE793  MET794  SER795  GLU796  ALA797  LYS798  CYS799  TRP800  GLU811  SER814 

> <Gold.Protein.RotatedAtoms>
  152.4608  133.7817  159.6854 H   0  0  0  0  0  0  0  0  0  0  0  0  # atno 6907 bound_to 6896
  150.8551  133.7718  159.3018 H   0  0  0  0  0  0  0  0  0  0  0  0  # atno 6908 bound_to 6896
  151.5301  135.1071  159.9952 H   0  0  0  0  0  0  0  0  0  0  0  0  # atno 6909 bound_to 6896
  144.8492  140.6036  143.5401 H   0  0  0  0  0  0  0  0  0  0  0  0  # atno 7974 bound_to 7965
  154.4365  140.1055  156.6161 H   0  0  0  0  0  0  0  0  0  0  0  0  # atno 8008 bound_to 7997
  155.5757  140.3490  155.4508 H   0  0  0  0  0  0  0  0  0  0  0  0  # atno 8009 bound_to 7997
  156.0356  140.1270  157.0201 H   0  0  0  0  0  0  0  0  0  0  0  0  # atno 8010 bound_to 7997
  140.0166  143.5387  152.2240 H   0  0  0  0  0  0  0  0  0  0  0  0  # atno 10167 bound_to 10162
  156.3268  130.7564  151.1674 H   0  0  0  0  0  0  0  0  0  0  0  0  # atno 10718 bound_to 10713
  154.8595  135.3569  154.5621 H   0  0  0  0  0  0  0  0  0  0  0  0  # atno 10763 bound_to 10752
  153.6236  135.7005  153.5306 H   0  0  0  0  0  0  0  0  0  0  0  0  # atno 10764 bound_to 10752
  153.3108  135.4179  155.1294 H   0  0  0  0  0  0  0  0  0  0  0  0  # atno 10765 bound_to 10752
  139.8915  134.8435  156.2886 H   0  0  0  0  0  0  0  0  0  0  0  0  # atno 11005 bound_to 11000
  145.4534  139.1521  143.3906 LP  0  0  0  0  0  0  0  0  0  0  0  0  # atno 17320 bound_to 7965
  146.2770  140.4661  142.8791 LP  0  0  0  0  0  0  0  0  0  0  0  0  # atno 17321 bound_to 7965
  139.6169  144.7621  151.2827 LP  0  0  0  0  0  0  0  0  0  0  0  0  # atno 17342 bound_to 10162
  140.7360  143.6721  150.8073 LP  0  0  0  0  0  0  0  0  0  0  0  0  # atno 17343 bound_to 10162
  157.7423  131.0492  150.5036 LP  0  0  0  0  0  0  0  0  0  0  0  0  # atno 17370 bound_to 10713
  156.5196  130.4158  149.6258 LP  0  0  0  0  0  0  0  0  0  0  0  0  # atno 17371 bound_to 10713
  140.9991  133.7162  156.0932 LP  0  0  0  0  0  0  0  0  0  0  0  0  # atno 17394 bound_to 11000
  140.7522  134.4032  157.5539 LP  0  0  0  0  0  0  0  0  0  0  0  0  # atno 17395 bound_to 11000

$$$$
