AV-unprocessed.smi:38|AV-procd|sdf|337|dock10
  -GOLD-   2262016173D 1   1.00000     0.00000
 Structure written by MMmdl.
 28 29  0  0  0  0  0  0  0  0  1 V2000
  152.1760  141.5487  158.9911 O   0  0  0  0  0  0  0  0  0  0  0  0
  151.5482  141.3823  157.9473 C   0  0  0  0  0  0  0  0  0  0  0  0
  151.5719  140.1426  157.3028 N   0  0  0  0  0  0  0  0  0  0  0  0
  150.9003  139.8310  156.1194 C   0  0  0  0  0  0  0  0  0  0  0  0
  151.0089  138.7081  155.6288 O   0  0  0  0  0  0  0  0  0  0  0  0
  150.1152  140.8482  155.5316 N   0  0  0  0  0  0  0  0  0  0  0  0
  149.3925  140.5388  154.2357 C   0  0  1  0  0  0  0  0  0  0  0  0
  148.3914  139.3874  154.4130 C   0  0  0  0  0  0  0  0  0  0  0  0
  147.2308  139.8626  153.5664 C   0  0  1  0  0  0  0  0  0  0  0  0
  146.0170  139.2279  153.9161 O   0  0  0  0  0  0  0  0  0  0  0  0
  147.2511  141.3784  153.7964 C   0  0  1  0  0  0  0  0  0  0  0  0
  146.6138  141.8463  155.1241 C   0  0  0  0  0  0  0  0  0  0  0  0
  146.5138  143.2541  155.1371 O   0  0  0  0  0  0  0  0  0  0  0  0
  148.6527  141.6559  153.8224 O   0  0  0  0  0  0  0  0  0  0  0  0
  150.0842  142.1058  156.1254 C   0  0  0  0  0  0  0  0  0  0  0  0
  150.7441  142.3961  157.2717 C   0  0  0  0  0  0  0  0  0  0  0  0
  150.6629  143.6342  157.7882 F   0  0  0  0  0  0  0  0  0  0  0  0
  152.1264  139.4126  157.7261 H   0  0  0  0  0  0  0  0  0  0  0  0
  150.1758  140.3335  153.5034 H   0  0  0  0  0  0  0  0  0  0  0  0
  147.4444  139.6548  152.5169 H   0  0  0  0  0  0  0  0  0  0  0  0
  146.7765  141.8899  152.9578 H   0  0  0  0  0  0  0  0  0  0  0  0
  148.8125  138.4371  154.0836 H   0  0  0  0  0  0  0  0  0  0  0  0
  148.1007  139.3057  155.4619 H   0  0  0  0  0  0  0  0  0  0  0  0
  145.3077  139.6728  153.4773 H   0  0  0  0  0  0  0  0  0  0  0  0
  145.5986  141.4618  155.2215 H   0  0  0  0  0  0  0  0  0  0  0  0
  147.1690  141.4986  155.9947 H   0  0  0  0  0  0  0  0  0  0  0  0
  147.3831  143.6165  155.2181 H   0  0  0  0  0  0  0  0  0  0  0  0
  149.5188  142.9075  155.6752 H   0  0  0  0  0  0  0  0  0  0  0  0
  1  2  2  0  0  0  0
  2 16  1  0  0  0  0
  2  3  1  0  0  0  0
  3 18  1  0  0  0  0
  3  4  1  0  0  0  0
  4  5  2  0  0  0  0
  4  6  1  0  0  0  0
  6  7  1  0  0  0  0
  6 15  1  0  0  0  0
  7 19  1  0  0  0  0
  7 14  1  0  0  0  0
  7  8  1  0  0  0  0
  8  9  1  0  0  0  0
  8 22  1  0  0  0  0
  8 23  1  0  0  0  0
  9 20  1  0  0  0  0
  9 10  1  0  0  0  0
  9 11  1  0  0  0  0
 10 24  1  0  0  0  0
 11 21  1  0  0  0  0
 11 12  1  0  0  0  0
 11 14  1  0  0  0  0
 12 13  1  0  0  0  0
 12 25  1  0  0  0  0
 12 26  1  0  0  0  0
 13 27  1  0  0  0  0
 15 16  2  0  0  0  0
 15 28  1  0  0  0  0
 16 17  1  0  0  0  0
M  END
> <s_m_source_file>
AV-unprocessed.smi

> <i_m_source_file_index>
38

> <i_lp_mmshare_version>
43012

> <i_f3d_flags>
0

> <s_epik_input>
Tz1jMVtuSF1jKD1PKW4oW2NIXWMxRilbQ0BIXTJbQ0gyXVtDQEhdKFtPSF0pW0NASF0oTzIpW0NIMl1bT0hd

> <s_epik_cmdline>
J2VwaWtfcHl0aG9uJywgJy1waCcsICc3LjAnLCAnLXRuJywgJzgnLCAnLW1hJywgJzIwMCcsICctbWV0YWxfYmluZGluZycsICctaW1hZScsICc8aW5maWxlLm1hZT4nLCAnLW9tYWUnLCAnPG91dGZpbGUubWFlPic=

> <r_lp_tautomer_probability>
0.999537

> <r_epik_Ionization_Penalty>
0.0357432

> <r_epik_Ionization_Penalty_Charging>
0.0357431

> <r_epik_Ionization_Penalty_Neutral>
1.19946e-07

> <r_epik_State_Penalty>
0.0298169

> <r_epik_Charging_Adjusted_Penalty>
0.06556

> <i_epik_Tot_Q>
0

> <i_epik_Tot_abs_Q>
0

> <r_epik_Metal_State_Penalty>
2.348

> <b_epik_Metal_Only>
0

> <s_epik_Chemistry_Notes>
This compound contains an acetal/aminal-like group ( X-CH(R)-Y where X, Y are N, S, or O) that may be acid/base labile, releasing an aldehyde.

> <s_lp_Force_Field>
OPLS_2005

> <r_lp_Energy>
30.312

> <b_lp_Chiralities_Consistent>
1

> <s_lp_Variant>
AV-unprocessed.smi:38-3

> <Gold.Version>
5.8.1

> <Gold.Id.Protein>
6NUR|6NUR_protein|mol2

> <Gold.PLP.Fitness>
36.4376

> <Gold.PLP.PLP>
-25.3452

> <Gold.PLP.part.hbond>
-3.0000

> <Gold.PLP.part.metal>
0.0000

> <Gold.PLP.part.buried>
0.7952

> <Gold.PLP.part.nonpolar>
-23.9962

> <Gold.PLP.part.repulsive>
0.8031

> <Gold.PLP.ligand.clash>
0.0000

> <Gold.PLP.ligand.torsion>
0.0813

> <Gold.PLP.Chemscore.Hbond>
2.7440

> <Gold.PLP.Chemscore.CHOScore>
1.0000

> <Gold.PLP.Chemscore.Metal>
0.0000

> <Gold.Chemscore.Hbonds>
donor molecule, donor type, donor heavy atom, donor atom, acceptor molecule, acceptor atom, score
      L1  H    10    24       P1 10175  0.89
      L1  H    13    27       P1  8028  0.50
      P1  H  8011  8017       L1    14  0.62
      L1  C    15    28       P1  8028  0.72

> <Gold.PLP.Chemscore.Internal.Correction>
0.0230

> <Gold.Rescore>
     Score         DG    S(hbond)    S(metal)    S(lipo)     H(rot)  DE(clash)    DE(int)     intcor
      5.45      -8.06       1.77        0.00      35.33       2.91       1.22       1.39       ----

> <Gold.Chemscore.Fitness>
5.4539

> <Gold.Chemscore.DG>
-8.0639

> <Gold.Chemscore.ZeroCoef>
-5.4800

> <Gold.Chemscore.Hbond>
1.7694

> <Gold.Chemscore.Metal>
0.0000

> <Gold.Chemscore.Lipo>
35.3346

> <Gold.Chemscore.Internal_Hbond>
0.0000

> <Gold.Chemscore.DEClash>
1.2232

> <Gold.Chemscore.DEInternal>
1.3869

> <Gold.Chemscore.Rot>
2.9141

> <Gold.Chemscore.Internal.Correction>
   9.000000E+99

> <Gold.Chemscore.Hbonds>
donor molecule, donor type, donor heavy atom, donor atom, acceptor molecule, acceptor atom, score
      L1  H    10    24       P1 10175  0.87
      L1  H    13    27       P1  8028  0.02
      P1  H  8011  8017       L1    14  0.23

> <Gold.Chemscore.Hbond.Weighted>
-5.9098

> <Gold.Chemscore.Metal.Weighted>
-0.0000

> <Gold.Chemscore.Lipo.Weighted>
-4.1342

> <Gold.Chemscore.Internal_Hbond.Weighted>
0.0000

> <Gold.Chemscore.DEClash.Weighted>
1.2232

> <Gold.Chemscore.DEInternal.Weighted>
1.3869

> <Gold.Chemscore.Rot.Weighted>
7.4601

> <Gold.Chemscore.Internal.Correction.Weighted>
   9.000000E+99

> <Gold.Protein.RotatedTorsions>
[ 6907 6896 6895 6894 ] final  -87.17 input  -60.11 | X-H torsion
[ 7974 7965 7964 7962 ] final   91.18 input  175.53 | X-H torsion
[ 8008 7997 7996 7995 ] final  133.00 input   59.86 | X-H torsion
[ 10167 10162 10161 10158 ] final -138.68 input  -65.29 | X-H torsion
[ 10718 10713 10712 10709 ] final -158.44 input   66.30 | X-H torsion
[ 10763 10752 10751 10750 ] final   81.57 input  -60.55 | X-H torsion
[ 11005 11000 10999 10996 ] final   24.00 input  -57.11 | X-H torsion

> <Gold.Protein.ActiveResidues>
 VAL166  LYS551  ARG553  GLY616  TRP617  ASP618  TYR619  PRO620  LYS621  CYS622 
 ASP623  PHE694  ASN695  SER759  ASP760  ASP761  ALA762  ILE779  LEU786  VAL792 
 PHE793  MET794  SER795  GLU796  ALA797  LYS798  CYS799  TRP800  GLU811  SER814 

> <Gold.Protein.RotatedAtoms>
  150.6866  134.2937  159.4677 H   0  0  0  0  0  0  0  0  0  0  0  0  # atno 6907 bound_to 6896
  152.0840  134.9449  160.0582 H   0  0  0  0  0  0  0  0  0  0  0  0  # atno 6908 bound_to 6896
  152.0791  133.4109  159.4530 H   0  0  0  0  0  0  0  0  0  0  0  0  # atno 6909 bound_to 6896
  145.5091  139.2276  143.2735 H   0  0  0  0  0  0  0  0  0  0  0  0  # atno 7974 bound_to 7965
  156.2988  140.2532  156.3181 H   0  0  0  0  0  0  0  0  0  0  0  0  # atno 8008 bound_to 7997
  154.9261  140.0399  157.2043 H   0  0  0  0  0  0  0  0  0  0  0  0  # atno 8009 bound_to 7997
  154.8263  140.2868  155.5757 H   0  0  0  0  0  0  0  0  0  0  0  0  # atno 8010 bound_to 7997
  139.8454  143.7267  152.2661 H   0  0  0  0  0  0  0  0  0  0  0  0  # atno 10167 bound_to 10162
  156.5542  130.8618  151.2789 H   0  0  0  0  0  0  0  0  0  0  0  0  # atno 10718 bound_to 10713
  153.1128  135.4760  154.9064 H   0  0  0  0  0  0  0  0  0  0  0  0  # atno 10763 bound_to 10752
  154.7498  135.3103  154.8581 H   0  0  0  0  0  0  0  0  0  0  0  0  # atno 10764 bound_to 10752
  153.9165  135.6859  153.4802 H   0  0  0  0  0  0  0  0  0  0  0  0  # atno 10765 bound_to 10752
  140.3635  134.2100  155.7671 H   0  0  0  0  0  0  0  0  0  0  0  0  # atno 11005 bound_to 11000
  146.2178  140.5896  142.9030 LP  0  0  0  0  0  0  0  0  0  0  0  0  # atno 17320 bound_to 7965
  144.7737  140.5694  143.6652 LP  0  0  0  0  0  0  0  0  0  0  0  0  # atno 17321 bound_to 7965
  139.7517  144.7532  151.0496 LP  0  0  0  0  0  0  0  0  0  0  0  0  # atno 17342 bound_to 10162
  140.7793  143.4852  150.9965 LP  0  0  0  0  0  0  0  0  0  0  0  0  # atno 17343 bound_to 10162
  157.7381  130.9808  150.2235 LP  0  0  0  0  0  0  0  0  0  0  0  0  # atno 17370 bound_to 10713
  156.2857  130.3739  149.7891 LP  0  0  0  0  0  0  0  0  0  0  0  0  # atno 17371 bound_to 10713
  141.1977  133.8053  157.0617 LP  0  0  0  0  0  0  0  0  0  0  0  0  # atno 17394 bound_to 11000
  140.0608  134.9756  157.1301 LP  0  0  0  0  0  0  0  0  0  0  0  0  # atno 17395 bound_to 11000

$$$$
