AV-unprocessed.smi:1078|AV-procd|sdf|4702|dock1
  -GOLD-   22720 3223D 1   1.00000     0.00000
 Structure written by MMmdl.
 40 41  0  0  0  0  0  0  0  0  2 V2000
  149.1898  141.7410  155.4616 C   0  0  0  0  0  0  0  0  0  0  0  0
  150.4987  141.8173  156.2664 C   0  0  2  0  0  0  0  0  0  0  0  0
  150.9069  140.4514  156.8680 C   0  0  0  0  0  0  0  0  0  0  0  0
  150.9369  139.3806  155.8875 N   0  0  0  0  0  0  0  0  0  0  0  0
  152.0116  138.6166  155.4825 C   0  0  0  0  0  0  0  0  0  0  0  0
  151.5560  137.7451  154.5353 C   0  0  0  0  0  0  0  0  0  0  0  0
  150.1735  138.0620  154.4208 C   0  0  0  0  0  0  0  0  0  0  0  0
  149.8071  139.0446  155.2280 N   0  0  0  0  0  0  0  0  0  0  0  0
  150.3607  142.8480  157.3197 N   0  3  0  0  0  0  0  0  0  0  0  0
  151.6288  143.3888  157.8549 C   0  0  0  0  0  0  0  0  0  0  0  0
  151.9745  142.7651  159.2198 C   0  0  0  0  0  0  0  0  0  0  0  0
  152.4307  143.8281  160.2441 C   0  0  0  0  0  0  0  0  0  0  0  0
  152.7903  143.1962  161.5989 C   0  0  0  0  0  0  0  0  0  0  0  0
  153.8613  142.1069  161.4390 C   0  0  0  0  0  0  0  0  0  0  0  0
  153.4185  141.0430  160.4238 C   0  0  0  0  0  0  0  0  0  0  0  0
  153.0598  141.6791  159.0709 C   0  0  0  0  0  0  0  0  0  0  0  0
  149.2814  141.0727  154.6051 H   0  0  0  0  0  0  0  0  0  0  0  0
  148.9108  142.7210  155.0732 H   0  0  0  0  0  0  0  0  0  0  0  0
  148.3659  141.3807  156.0785 H   0  0  0  0  0  0  0  0  0  0  0  0
  151.2801  142.1482  155.5803 H   0  0  0  0  0  0  0  0  0  0  0  0
  151.8950  140.5067  157.3255 H   0  0  0  0  0  0  0  0  0  0  0  0
  150.2121  140.1685  157.6601 H   0  0  0  0  0  0  0  0  0  0  0  0
  152.9995  138.7524  155.8978 H   0  0  0  0  0  0  0  0  0  0  0  0
  152.1245  136.9969  154.0029 H   0  0  0  0  0  0  0  0  0  0  0  0
  149.4314  137.6115  153.7781 H   0  0  0  0  0  0  0  0  0  0  0  0
  149.8547  143.6240  156.9172 H   0  0  0  0  0  0  0  0  0  0  0  0
  152.4295  143.1762  157.1466 H   0  0  0  0  0  0  0  0  0  0  0  0
  151.5618  144.4741  157.9446 H   0  0  0  0  0  0  0  0  0  0  0  0
  151.0763  142.2800  159.6063 H   0  0  0  0  0  0  0  0  0  0  0  0
  153.2964  144.3670  159.8561 H   0  0  0  0  0  0  0  0  0  0  0  0
  151.6482  144.5723  160.3945 H   0  0  0  0  0  0  0  0  0  0  0  0
  153.1443  143.9658  162.2856 H   0  0  0  0  0  0  0  0  0  0  0  0
  151.8958  142.7667  162.0516 H   0  0  0  0  0  0  0  0  0  0  0  0
  154.7974  142.5596  161.1096 H   0  0  0  0  0  0  0  0  0  0  0  0
  154.0656  141.6401  162.4030 H   0  0  0  0  0  0  0  0  0  0  0  0
  154.2111  140.3060  160.2896 H   0  0  0  0  0  0  0  0  0  0  0  0
  152.5556  140.5017  160.8142 H   0  0  0  0  0  0  0  0  0  0  0  0
  152.7200  140.9018  158.3854 H   0  0  0  0  0  0  0  0  0  0  0  0
  153.9564  142.1118  158.6250 H   0  0  0  0  0  0  0  0  0  0  0  0
  149.8130  142.4710  158.0800 H   0  0  0  0  0  0  0  0  0  0  0  0
  1  2  1  0  0  0  0
  1 17  1  0  0  0  0
  1 18  1  0  0  0  0
  1 19  1  0  0  0  0
  2  3  1  0  0  0  0
  2  9  1  0  0  0  0
  2 20  1  0  0  0  0
  3  4  1  0  0  0  0
  3 21  1  0  0  0  0
  3 22  1  0  0  0  0
  4  8  1  0  0  0  0
  4  5  1  0  0  0  0
  5  6  2  0  0  0  0
  5 23  1  0  0  0  0
  6  7  1  0  0  0  0
  6 24  1  0  0  0  0
  7  8  2  0  0  0  0
  7 25  1  0  0  0  0
  9 10  1  0  0  0  0
  9 26  1  0  0  0  0
  9 40  1  0  0  0  0
 10 11  1  0  0  0  0
 10 27  1  0  0  0  0
 10 28  1  0  0  0  0
 11 16  1  0  0  0  0
 11 12  1  0  0  0  0
 11 29  1  0  0  0  0
 12 13  1  0  0  0  0
 12 30  1  0  0  0  0
 12 31  1  0  0  0  0
 13 14  1  0  0  0  0
 13 32  1  0  0  0  0
 13 33  1  0  0  0  0
 14 15  1  0  0  0  0
 14 34  1  0  0  0  0
 14 35  1  0  0  0  0
 15 16  1  0  0  0  0
 15 36  1  0  0  0  0
 15 37  1  0  0  0  0
 16 38  1  0  0  0  0
 16 39  1  0  0  0  0
M  CHG  1   9   1
M  END
> <s_m_source_file>
AV-unprocessed.smi

> <i_m_source_file_index>
1078

> <i_lp_mmshare_version>
43012

> <i_f3d_flags>
0

> <s_epik_input>
bjFbY0hdW2NIXVtjSF1uMVtDSDJdW0NAQEhdKFtDSDNdKVtOSF1bQ0gyXVtDSF0yW0NIMl1bQ0gyXVtDSDJdW0NIMl1bQ0gyXTI=

> <s_epik_cmdline>
J2VwaWtfcHl0aG9uJywgJy1waCcsICc3LjAnLCAnLXRuJywgJzgnLCAnLW1hJywgJzIwMCcsICctbWV0YWxfYmluZGluZycsICctaW1hZScsICc8aW5maWxlLm1hZT4nLCAnLW9tYWUnLCAnPG91dGZpbGUubWFlPic=

> <r_lp_tautomer_probability>
1

> <r_epik_Ionization_Penalty>
0.00174474

> <r_epik_Ionization_Penalty_Charging>
0.00174052

> <r_epik_Ionization_Penalty_Neutral>
4.21324e-06

> <r_epik_State_Penalty>
0.00117783

> <r_epik_Charging_Adjusted_Penalty>
0.00291835

> <i_epik_Tot_Q>
1

> <i_epik_Tot_abs_Q>
1

> <r_epik_Metal_State_Penalty>
-0

> <b_epik_Metal_Only>
0

> <s_lp_Force_Field>
OPLS_2005

> <r_lp_Energy>
15.4187

> <b_lp_Chiralities_Consistent>
1

> <s_lp_Variant>
AV-unprocessed.smi:1078-1

> <Gold.Version>
5.8.1

> <Gold.Id.Protein>
6NUR|6NUR_protein|mol2

> <Gold.PLP.Fitness>
50.6746

> <Gold.PLP.PLP>
-43.6569

> <Gold.PLP.part.hbond>
-1.0000

> <Gold.PLP.part.metal>
0.0000

> <Gold.PLP.part.buried>
-3.0936

> <Gold.PLP.part.nonpolar>
-38.5630

> <Gold.PLP.part.repulsive>
0.0911

> <Gold.PLP.ligand.clash>
0.0000

> <Gold.PLP.ligand.torsion>
1.1076

> <Gold.PLP.Chemscore.Hbond>
2.0000

> <Gold.PLP.Chemscore.CHOScore>
1.0586

> <Gold.PLP.Chemscore.Metal>
0.0000

> <Gold.Chemscore.Hbonds>
donor molecule, donor type, donor heavy atom, donor atom, acceptor molecule, acceptor atom, score
      L1  H     9    26       P1  8028  2.00
      L1  C     7    25       P1  7948  1.00

> <Gold.PLP.Chemscore.Internal.Correction>
0.0571

> <Gold.Rescore>
     Score         DG    S(hbond)    S(metal)    S(lipo)     H(rot)  DE(clash)    DE(int)     intcor
     16.82     -19.44       1.00        0.00     124.42       1.54       0.08       2.53       ----

> <Gold.Chemscore.Fitness>
16.8225

> <Gold.Chemscore.DG>
-19.4352

> <Gold.Chemscore.ZeroCoef>
-5.4800

> <Gold.Chemscore.Hbond>
0.9983

> <Gold.Chemscore.Metal>
0.0000

> <Gold.Chemscore.Lipo>
124.4242

> <Gold.Chemscore.Internal_Hbond>
0.0000

> <Gold.Chemscore.DEClash>
0.0808

> <Gold.Chemscore.DEInternal>
2.5319

> <Gold.Chemscore.Rot>
1.5378

> <Gold.Chemscore.Internal.Correction>
   9.000000E+99

> <Gold.Chemscore.Hbonds>
donor molecule, donor type, donor heavy atom, donor atom, acceptor molecule, acceptor atom, score
      L1  H     9    26       P1  8028  0.98

> <Gold.Chemscore.Hbond.Weighted>
-3.3343

> <Gold.Chemscore.Metal.Weighted>
-0.0000

> <Gold.Chemscore.Lipo.Weighted>
-14.5576

> <Gold.Chemscore.Internal_Hbond.Weighted>
0.0000

> <Gold.Chemscore.DEClash.Weighted>
0.0808

> <Gold.Chemscore.DEInternal.Weighted>
2.5319

> <Gold.Chemscore.Rot.Weighted>
3.9368

> <Gold.Chemscore.Internal.Correction.Weighted>
   9.000000E+99

> <Gold.Protein.RotatedTorsions>
[ 6907 6896 6895 6894 ] final  -59.25 input  -60.11 | X-H torsion
[ 7974 7965 7964 7962 ] final   78.77 input  175.53 | X-H torsion
[ 8008 7997 7996 7995 ] final  135.98 input   59.86 | X-H torsion
[ 10167 10162 10161 10158 ] final -132.37 input  -65.29 | X-H torsion
[ 10718 10713 10712 10709 ] final  -57.11 input   66.30 | X-H torsion
[ 10763 10752 10751 10750 ] final  -85.30 input  -60.55 | X-H torsion
[ 11005 11000 10999 10996 ] final    5.79 input  -57.11 | X-H torsion

> <Gold.Protein.ActiveResidues>
 VAL166  LYS551  ARG553  GLY616  TRP617  ASP618  TYR619  PRO620  LYS621  CYS622 
 ASP623  PHE694  ASN695  SER759  ASP760  ASP761  ALA762  ILE779  LEU786  VAL792 
 PHE793  MET794  SER795  GLU796  ALA797  LYS798  CYS799  TRP800  GLU811  SER814 

> <Gold.Protein.RotatedAtoms>
  150.7945  134.6993  159.6540 H   0  0  0  0  0  0  0  0  0  0  0  0  # atno 6907 bound_to 6896
  152.4055  134.6211  160.0061 H   0  0  0  0  0  0  0  0  0  0  0  0  # atno 6908 bound_to 6896
  151.6470  133.3286  159.3179 H   0  0  0  0  0  0  0  0  0  0  0  0  # atno 6909 bound_to 6896
  145.6728  139.2501  143.1858 H   0  0  0  0  0  0  0  0  0  0  0  0  # atno 7974 bound_to 7965
  156.3004  140.2457  156.3670 H   0  0  0  0  0  0  0  0  0  0  0  0  # atno 8008 bound_to 7997
  154.8824  140.0412  157.1809 H   0  0  0  0  0  0  0  0  0  0  0  0  # atno 8009 bound_to 7997
  154.8682  140.2931  155.5501 H   0  0  0  0  0  0  0  0  0  0  0  0  # atno 8010 bound_to 7997
  139.9093  143.6514  152.2579 H   0  0  0  0  0  0  0  0  0  0  0  0  # atno 10167 bound_to 10162
  156.1236  130.4164  150.0397 H   0  0  0  0  0  0  0  0  0  0  0  0  # atno 10718 bound_to 10713
  154.6095  135.5490  153.7459 H   0  0  0  0  0  0  0  0  0  0  0  0  # atno 10763 bound_to 10752
  153.0189  135.6386  154.1598 H   0  0  0  0  0  0  0  0  0  0  0  0  # atno 10764 bound_to 10752
  154.1536  135.2901  155.3108 H   0  0  0  0  0  0  0  0  0  0  0  0  # atno 10765 bound_to 10752
  140.5667  134.0141  155.7992 H   0  0  0  0  0  0  0  0  0  0  0  0  # atno 11005 bound_to 11000
  146.1031  140.7520  142.9539 LP  0  0  0  0  0  0  0  0  0  0  0  0  # atno 17320 bound_to 7965
  144.7051  140.3818  143.7124 LP  0  0  0  0  0  0  0  0  0  0  0  0  # atno 17321 bound_to 7965
  139.6957  144.7641  151.1361 LP  0  0  0  0  0  0  0  0  0  0  0  0  # atno 17342 bound_to 10162
  140.7689  143.5527  150.9186 LP  0  0  0  0  0  0  0  0  0  0  0  0  # atno 17343 bound_to 10162
  156.8328  130.9398  151.3636 LP  0  0  0  0  0  0  0  0  0  0  0  0  # atno 17370 bound_to 10713
  157.6418  130.8812  149.9463 LP  0  0  0  0  0  0  0  0  0  0  0  0  # atno 17371 bound_to 10713
  141.1081  133.9660  157.2960 LP  0  0  0  0  0  0  0  0  0  0  0  0  # atno 17394 bound_to 11000
  139.9381  135.0194  156.8622 LP  0  0  0  0  0  0  0  0  0  0  0  0  # atno 17395 bound_to 11000

$$$$
