AV-unprocessed.smi:2297|AV-procd|sdf|9223|dock8
  -GOLD-   2272012443D 1   1.00000     0.00000
 Structure written by MMmdl.
 44 45  0  0  0  0  0  0  0  0  1 V2000
  153.5759  140.4503  160.2757 C   0  0  0  0  0  0  0  0  0  0  0  0
  152.7083  141.4490  159.5372 C   0  0  0  0  0  0  0  0  0  0  0  0
  152.6218  142.7830  159.9829 C   0  0  0  0  0  0  0  0  0  0  0  0
  151.8156  143.7078  159.2913 C   0  0  0  0  0  0  0  0  0  0  0  0
  151.7253  145.1396  159.7780 C   0  0  0  0  0  0  0  0  0  0  0  0
  151.0968  143.2935  158.1511 C   0  0  0  0  0  0  0  0  0  0  0  0
  151.1712  141.9622  157.6930 C   0  0  0  0  0  0  0  0  0  0  0  0
  150.4356  141.6467  156.5710 O   0  0  0  0  0  0  0  0  0  0  0  0
  150.8836  140.5762  155.7494 C   0  0  0  0  0  0  0  0  0  0  0  0
  149.7316  140.1397  154.8311 C   0  0  1  0  0  0  0  0  0  0  0  0
  149.4995  141.1992  153.9250 O   0  0  0  0  0  0  0  0  0  0  0  0
  150.0700  138.8586  154.0347 C   0  0  0  0  0  0  0  0  0  0  0  0
  149.8806  137.6408  154.8401 N   0  0  0  0  0  0  0  0  0  0  0  0
  148.6094  137.4642  155.4122 C   0  0  0  0  0  0  0  0  0  0  0  0
  148.3277  136.4311  156.1365 N   0  0  0  0  0  0  0  0  0  0  0  0
  149.3002  135.4529  156.3627 C   0  0  0  0  0  0  0  0  0  0  0  0
  148.8646  134.2828  157.2268 C   0  0  0  0  0  0  0  0  0  0  0  0
  150.5488  135.5609  155.8318 C   0  0  0  0  0  0  0  0  0  0  0  0
  151.6479  134.5274  156.0450 C   0  0  0  0  0  0  0  0  0  0  0  0
  150.8837  136.7309  155.0038 C   0  0  0  0  0  0  0  0  0  0  0  0
  151.9923  136.8886  154.4892 O   0  0  0  0  0  0  0  0  0  0  0  0
  151.9858  141.0406  158.3977 C   0  0  0  0  0  0  0  0  0  0  0  0
  154.0189  140.8908  161.1694 H   0  0  0  0  0  0  0  0  0  0  0  0
  154.3833  140.1020  159.6307 H   0  0  0  0  0  0  0  0  0  0  0  0
  152.9836  139.5871  160.5806 H   0  0  0  0  0  0  0  0  0  0  0  0
  153.1735  143.0998  160.8564 H   0  0  0  0  0  0  0  0  0  0  0  0
  151.1214  145.7521  159.1077 H   0  0  0  0  0  0  0  0  0  0  0  0
  152.7198  145.5824  159.8392 H   0  0  0  0  0  0  0  0  0  0  0  0
  151.2727  145.1723  160.7694 H   0  0  0  0  0  0  0  0  0  0  0  0
  150.4783  144.0013  157.6188 H   0  0  0  0  0  0  0  0  0  0  0  0
  151.7266  140.9144  155.1443 H   0  0  0  0  0  0  0  0  0  0  0  0
  151.2186  139.7352  156.3592 H   0  0  0  0  0  0  0  0  0  0  0  0
  148.8346  139.9986  155.4356 H   0  0  0  0  0  0  0  0  0  0  0  0
  149.5954  140.8695  153.0446 H   0  0  0  0  0  0  0  0  0  0  0  0
  149.5039  138.8232  153.1021 H   0  0  0  0  0  0  0  0  0  0  0  0
  151.1106  138.8977  153.7061 H   0  0  0  0  0  0  0  0  0  0  0  0
  147.8852  138.2520  155.1972 H   0  0  0  0  0  0  0  0  0  0  0  0
  149.4809  134.2198  158.1240 H   0  0  0  0  0  0  0  0  0  0  0  0
  148.9539  133.3469  156.6748 H   0  0  0  0  0  0  0  0  0  0  0  0
  147.8253  134.3866  157.5414 H   0  0  0  0  0  0  0  0  0  0  0  0
  151.9794  134.1278  155.0861 H   0  0  0  0  0  0  0  0  0  0  0  0
  151.3330  133.6858  156.6595 H   0  0  0  0  0  0  0  0  0  0  0  0
  152.5064  134.9877  156.5349 H   0  0  0  0  0  0  0  0  0  0  0  0
  152.0746  140.0126  158.0804 H   0  0  0  0  0  0  0  0  0  0  0  0
  1  2  1  0  0  0  0
  1 23  1  0  0  0  0
  1 24  1  0  0  0  0
  1 25  1  0  0  0  0
  2 22  1  0  0  0  0
  2  3  2  0  0  0  0
  3  4  1  0  0  0  0
  3 26  1  0  0  0  0
  4  5  1  0  0  0  0
  4  6  2  0  0  0  0
  5 27  1  0  0  0  0
  5 28  1  0  0  0  0
  5 29  1  0  0  0  0
  6  7  1  0  0  0  0
  6 30  1  0  0  0  0
  7  8  1  0  0  0  0
  7 22  2  0  0  0  0
  8  9  1  0  0  0  0
  9 10  1  0  0  0  0
  9 31  1  0  0  0  0
  9 32  1  0  0  0  0
 10 11  1  0  0  0  0
 10 12  1  0  0  0  0
 10 33  1  0  0  0  0
 11 34  1  0  0  0  0
 12 13  1  0  0  0  0
 12 35  1  0  0  0  0
 12 36  1  0  0  0  0
 13 20  1  0  0  0  0
 13 14  1  0  0  0  0
 14 15  2  0  0  0  0
 14 37  1  0  0  0  0
 15 16  1  0  0  0  0
 16 17  1  0  0  0  0
 16 18  2  0  0  0  0
 17 38  1  0  0  0  0
 17 39  1  0  0  0  0
 17 40  1  0  0  0  0
 18 19  1  0  0  0  0
 18 20  1  0  0  0  0
 19 41  1  0  0  0  0
 19 42  1  0  0  0  0
 19 43  1  0  0  0  0
 20 21  2  0  0  0  0
 22 44  1  0  0  0  0
M  END
> <s_m_source_file>
AV-unprocessed.smi

> <i_m_source_file_index>
2297

> <i_lp_mmshare_version>
43012

> <i_f3d_flags>
0

> <s_epik_input>
W0NIM11jMVtjSF1jKFtDSDNdKVtjSF1jKFtjSF0xKU9bQ0gyXVtDQEhdKFtPSF0pW0NIMl1uMltjSF1uYyhbQ0gzXSljKFtDSDNdKWMyPU8=

> <s_epik_cmdline>
J2VwaWtfcHl0aG9uJywgJy1waCcsICc3LjAnLCAnLXRuJywgJzgnLCAnLW1hJywgJzIwMCcsICctbWV0YWxfYmluZGluZycsICctaW1hZScsICc8aW5maWxlLm1hZT4nLCAnLW9tYWUnLCAnPG91dGZpbGUubWFlPic=

> <r_lp_tautomer_probability>
1

> <r_epik_Ionization_Penalty>
3.72236e-05

> <r_epik_Ionization_Penalty_Charging>
8.38864e-08

> <r_epik_Ionization_Penalty_Neutral>
3.71397e-05

> <r_epik_State_Penalty>
-0

> <r_epik_Charging_Adjusted_Penalty>
8.38864e-08

> <i_epik_Tot_Q>
0

> <i_epik_Tot_abs_Q>
0

> <r_epik_Metal_State_Penalty>
-0

> <b_epik_Metal_Only>
0

> <s_lp_Force_Field>
OPLS_2005

> <r_lp_Energy>
22.4286

> <b_lp_Chiralities_Consistent>
1

> <s_lp_Variant>
AV-unprocessed.smi:2297-2

> <Gold.Version>
5.8.1

> <Gold.Id.Protein>
6NUR|6NUR_protein|mol2

> <Gold.PLP.Fitness>
49.2028

> <Gold.PLP.PLP>
-44.4802

> <Gold.PLP.part.hbond>
-4.0000

> <Gold.PLP.part.metal>
0.0000

> <Gold.PLP.part.buried>
-3.0067

> <Gold.PLP.part.nonpolar>
-37.2995

> <Gold.PLP.part.repulsive>
0.2407

> <Gold.PLP.ligand.clash>
0.0000

> <Gold.PLP.ligand.torsion>
0.6707

> <Gold.PLP.Chemscore.Hbond>
2.0000

> <Gold.PLP.Chemscore.CHOScore>
0.0000

> <Gold.PLP.Chemscore.Metal>
0.0000

> <Gold.Chemscore.Hbonds>
donor molecule, donor type, donor heavy atom, donor atom, acceptor molecule, acceptor atom, score
      L1  H    11    34       P1  7957  0.94
      P1  H 10752 10765       L1    21  0.93

> <Gold.PLP.Chemscore.Internal.Correction>
0.0641

> <Gold.Rescore>
     Score         DG    S(hbond)    S(metal)    S(lipo)     H(rot)  DE(clash)    DE(int)     intcor
     19.30     -20.20       1.98        0.00     120.19       2.32       0.20       0.69       ----

> <Gold.Chemscore.Fitness>
19.3003

> <Gold.Chemscore.DG>
-20.1968

> <Gold.Chemscore.ZeroCoef>
-5.4800

> <Gold.Chemscore.Hbond>
1.9770

> <Gold.Chemscore.Metal>
0.0000

> <Gold.Chemscore.Lipo>
120.1869

> <Gold.Chemscore.Internal_Hbond>
0.0000

> <Gold.Chemscore.DEClash>
0.2022

> <Gold.Chemscore.DEInternal>
0.6943

> <Gold.Chemscore.Rot>
2.3236

> <Gold.Chemscore.Internal.Correction>
   9.000000E+99

> <Gold.Chemscore.Hbonds>
donor molecule, donor type, donor heavy atom, donor atom, acceptor molecule, acceptor atom, score
      L1  H    11    34       P1  7957  0.90
      P1  H 10752 10765       L1    21  0.80

> <Gold.Chemscore.Hbond.Weighted>
-6.6033

> <Gold.Chemscore.Metal.Weighted>
-0.0000

> <Gold.Chemscore.Lipo.Weighted>
-14.0619

> <Gold.Chemscore.Internal_Hbond.Weighted>
0.0000

> <Gold.Chemscore.DEClash.Weighted>
0.2022

> <Gold.Chemscore.DEInternal.Weighted>
0.6943

> <Gold.Chemscore.Rot.Weighted>
5.9484

> <Gold.Chemscore.Internal.Correction.Weighted>
   9.000000E+99

> <Gold.Protein.RotatedTorsions>
[ 6907 6896 6895 6894 ] final   53.89 input  -60.11 | X-H torsion
[ 7974 7965 7964 7962 ] final   75.21 input  175.53 | X-H torsion
[ 8008 7997 7996 7995 ] final   45.90 input   59.86 | X-H torsion
[ 10167 10162 10161 10158 ] final  -32.62 input  -65.29 | X-H torsion
[ 10718 10713 10712 10709 ] final -103.32 input   66.30 | X-H torsion
[ 10763 10752 10751 10750 ] final -179.45 input  -60.55 | X-H torsion
[ 11005 11000 10999 10996 ] final   49.79 input  -57.11 | X-H torsion

> <Gold.Protein.ActiveResidues>
 VAL166  LYS551  ARG553  GLY616  TRP617  ASP618  TYR619  PRO620  LYS621  CYS622 
 ASP623  PHE694  ASN695  SER759  ASP760  ASP761  ALA762  ILE779  LEU786  VAL792 
 PHE793  MET794  SER795  GLU796  ALA797  LYS798  CYS799  TRP800  GLU811  SER814 

> <Gold.Protein.RotatedAtoms>
  152.3383  134.7169  160.0270 H   0  0  0  0  0  0  0  0  0  0  0  0  # atno 6907 bound_to 6896
  151.7562  133.3325  159.3413 H   0  0  0  0  0  0  0  0  0  0  0  0  # atno 6908 bound_to 6896
  150.7464  134.6079  159.6115 H   0  0  0  0  0  0  0  0  0  0  0  0  # atno 6909 bound_to 6896
  145.7185  139.2639  143.1610 H   0  0  0  0  0  0  0  0  0  0  0  0  # atno 7974 bound_to 7965
  155.3436  140.3409  155.4239 H   0  0  0  0  0  0  0  0  0  0  0  0  # atno 8008 bound_to 7997
  156.1800  140.1661  156.8327 H   0  0  0  0  0  0  0  0  0  0  0  0  # atno 8009 bound_to 7997
  154.5324  140.0742  156.8350 H   0  0  0  0  0  0  0  0  0  0  0  0  # atno 8010 bound_to 7997
  140.7218  143.3681  151.1832 H   0  0  0  0  0  0  0  0  0  0  0  0  # atno 10167 bound_to 10162
  156.0261  130.5462  150.7236 H   0  0  0  0  0  0  0  0  0  0  0  0  # atno 10718 bound_to 10713
  154.5349  135.2802  155.1147 H   0  0  0  0  0  0  0  0  0  0  0  0  # atno 10763 bound_to 10752
  154.2652  135.6314  153.5293 H   0  0  0  0  0  0  0  0  0  0  0  0  # atno 10764 bound_to 10752
  152.9965  135.5615  154.5873 H   0  0  0  0  0  0  0  0  0  0  0  0  # atno 10765 bound_to 10752
  140.1073  134.5002  155.8709 H   0  0  0  0  0  0  0  0  0  0  0  0  # atno 11005 bound_to 11000
  146.0648  140.7932  142.9717 LP  0  0  0  0  0  0  0  0  0  0  0  0  # atno 17320 bound_to 7965
  144.6923  140.3251  143.7225 LP  0  0  0  0  0  0  0  0  0  0  0  0  # atno 17321 bound_to 7965
  139.7246  143.9168  152.2998 LP  0  0  0  0  0  0  0  0  0  0  0  0  # atno 17342 bound_to 10162
  139.8937  144.6951  150.8742 LP  0  0  0  0  0  0  0  0  0  0  0  0  # atno 17343 bound_to 10162
  157.4845  131.0905  151.0498 LP  0  0  0  0  0  0  0  0  0  0  0  0  # atno 17370 bound_to 10713
  157.0922  130.5947  149.5442 LP  0  0  0  0  0  0  0  0  0  0  0  0  # atno 17371 bound_to 10713
  141.2121  133.6715  156.6635 LP  0  0  0  0  0  0  0  0  0  0  0  0  # atno 17394 bound_to 11000
  140.3139  134.8063  157.4198 LP  0  0  0  0  0  0  0  0  0  0  0  0  # atno 17395 bound_to 11000

$$$$
