AV-unprocessed.smi:2895|AV-procd|sdf|11132|dock2
  -GOLD-   2272016 03D 1   1.00000     0.00000
 Structure written by MMmdl.
 54 57  0  0  0  0  0  0  0  0  3 V2000
  150.4100  134.3091  156.1079 O   0  0  0  0  0  0  0  0  0  0  0  0
  149.6859  134.4437  155.1206 C   0  0  0  0  0  0  0  0  0  0  0  0
  149.2023  135.6427  154.7533 N   0  0  0  0  0  0  0  0  0  0  0  0
  149.4642  136.9023  155.4409 C   0  0  0  0  0  0  0  0  0  0  0  0
  150.5288  137.7421  154.7142 C   0  0  0  0  0  0  0  0  0  0  0  0
  150.4073  139.2204  155.0311 C   0  0  0  0  0  0  0  0  0  0  0  0
  151.3939  139.8667  155.8082 C   0  0  0  0  0  0  0  0  0  0  0  0
  151.2591  141.2422  156.0870 C   0  0  0  0  0  0  0  0  0  0  0  0
  150.1933  141.9235  155.6119 N   0  3  0  0  0  0  0  0  0  0  0  0
  149.2275  141.3436  154.8657 C   0  0  0  0  0  0  0  0  0  0  0  0
  149.3100  139.9710  154.5535 C   0  0  0  0  0  0  0  0  0  0  0  0
  149.3382  133.4127  154.3083 N   0  0  0  0  0  0  0  0  0  0  0  0
  148.6509  133.5158  153.0107 C   0  0  0  0  0  0  0  0  0  0  0  0
  147.2355  132.9117  153.1292 C   0  0  0  0  0  0  0  0  0  0  0  0
  147.2578  131.5114  153.6433 N   0  3  0  0  0  0  0  0  0  0  0  0
  147.6100  130.5007  152.5999 C   0  0  2  0  0  0  0  0  0  0  0  0
  146.4418  130.1441  151.6472 C   0  0  0  0  0  0  0  0  0  0  0  0
  146.4274  128.6040  151.6668 C   0  0  2  0  0  0  0  0  0  0  0  0
  145.8135  128.1308  152.9955 C   0  0  0  0  0  0  0  0  0  0  0  0
  146.9106  128.4856  154.0146 C   0  0  0  0  0  0  0  0  0  0  0  0
  148.0178  129.1030  153.1325 C   0  0  1  0  0  0  0  0  0  0  0  0
  147.8988  128.2625  151.8653 C   0  0  0  0  0  0  0  0  0  0  0  0
  148.0566  131.4085  154.8979 C   0  0  0  0  0  0  0  0  0  0  0  0
  149.4636  132.0143  154.7346 C   0  0  0  0  0  0  0  0  0  0  0  0
  148.6264  135.6871  153.9251 H   0  0  0  0  0  0  0  0  0  0  0  0
  148.5352  137.4656  155.5452 H   0  0  0  0  0  0  0  0  0  0  0  0
  149.8015  136.6704  156.4515 H   0  0  0  0  0  0  0  0  0  0  0  0
  151.5271  137.3952  154.9850 H   0  0  0  0  0  0  0  0  0  0  0  0
  150.4431  137.6142  153.6345 H   0  0  0  0  0  0  0  0  0  0  0  0
  152.2443  139.3164  156.1845 H   0  0  0  0  0  0  0  0  0  0  0  0
  151.9660  141.8133  156.6708 H   0  0  0  0  0  0  0  0  0  0  0  0
  148.4244  141.9905  154.5437 H   0  0  0  0  0  0  0  0  0  0  0  0
  148.5403  139.5040  153.9563 H   0  0  0  0  0  0  0  0  0  0  0  0
  148.5705  134.5337  152.6303 H   0  0  0  0  0  0  0  0  0  0  0  0
  149.2331  132.9787  152.2611 H   0  0  0  0  0  0  0  0  0  0  0  0
  146.6511  133.5141  153.8259 H   0  0  0  0  0  0  0  0  0  0  0  0
  146.7169  132.9800  152.1736 H   0  0  0  0  0  0  0  0  0  0  0  0
  148.4393  130.8876  152.0062 H   0  0  0  0  0  0  0  0  0  0  0  0
  145.4800  130.5460  151.9682 H   0  0  0  0  0  0  0  0  0  0  0  0
  146.6403  130.5219  150.6434 H   0  0  0  0  0  0  0  0  0  0  0  0
  145.9627  128.1570  150.7876 H   0  0  0  0  0  0  0  0  0  0  0  0
  144.8644  128.6209  153.2154 H   0  0  0  0  0  0  0  0  0  0  0  0
  145.6377  127.0543  152.9804 H   0  0  0  0  0  0  0  0  0  0  0  0
  146.5537  129.1644  154.7892 H   0  0  0  0  0  0  0  0  0  0  0  0
  147.2726  127.5839  154.5102 H   0  0  0  0  0  0  0  0  0  0  0  0
  149.0093  129.0723  153.5849 H   0  0  0  0  0  0  0  0  0  0  0  0
  148.0777  127.1986  152.0323 H   0  0  0  0  0  0  0  0  0  0  0  0
  148.5375  128.6082  151.0504 H   0  0  0  0  0  0  0  0  0  0  0  0
  147.5247  131.9570  155.6766 H   0  0  0  0  0  0  0  0  0  0  0  0
  148.1171  130.3836  155.2600 H   0  0  0  0  0  0  0  0  0  0  0  0
  150.0361  131.4603  153.9896 H   0  0  0  0  0  0  0  0  0  0  0  0
  150.0176  131.9034  155.6677 H   0  0  0  0  0  0  0  0  0  0  0  0
  146.3070  131.2901  153.9030 H   0  0  0  0  0  0  0  0  0  0  0  0
  150.1146  142.9182  155.8255 H   0  0  0  0  0  0  0  0  0  0  0  0
  1  2  2  0  0  0  0
  2  3  1  0  0  0  0
  2 12  1  0  0  0  0
  3  4  1  0  0  0  0
  3 25  1  0  0  0  0
  4  5  1  0  0  0  0
  4 26  1  0  0  0  0
  4 27  1  0  0  0  0
  5  6  1  0  0  0  0
  5 28  1  0  0  0  0
  5 29  1  0  0  0  0
  6 11  1  0  0  0  0
  6  7  2  0  0  0  0
  7  8  1  0  0  0  0
  7 30  1  0  0  0  0
  8  9  2  0  0  0  0
  8 31  1  0  0  0  0
  9 10  1  0  0  0  0
  9 54  1  0  0  0  0
 10 11  2  0  0  0  0
 10 32  1  0  0  0  0
 11 33  1  0  0  0  0
 12 24  1  0  0  0  0
 12 13  1  0  0  0  0
 13 14  1  0  0  0  0
 13 34  1  0  0  0  0
 13 35  1  0  0  0  0
 14 15  1  0  0  0  0
 14 36  1  0  0  0  0
 14 37  1  0  0  0  0
 15 16  1  0  0  0  0
 15 23  1  0  0  0  0
 15 53  1  0  0  0  0
 16 21  1  0  0  0  0
 16 17  1  0  0  0  0
 16 38  1  0  0  0  0
 17 18  1  0  0  0  0
 17 39  1  0  0  0  0
 17 40  1  0  0  0  0
 18 22  1  0  0  0  0
 18 19  1  0  0  0  0
 18 41  1  0  0  0  0
 19 20  1  0  0  0  0
 19 42  1  0  0  0  0
 19 43  1  0  0  0  0
 20 21  1  0  0  0  0
 20 44  1  0  0  0  0
 20 45  1  0  0  0  0
 21 22  1  0  0  0  0
 21 46  1  0  0  0  0
 22 47  1  0  0  0  0
 22 48  1  0  0  0  0
 23 24  1  0  0  0  0
 23 49  1  0  0  0  0
 23 50  1  0  0  0  0
 24 51  1  0  0  0  0
 24 52  1  0  0  0  0
M  CHG  1   9   1
M  CHG  1  15   1
M  END
> <s_m_source_file>
AV-unprocessed.smi

> <i_m_source_file_index>
2895

> <i_lp_mmshare_version>
43012

> <i_f3d_flags>
0

> <s_epik_input>
W0NIMl0xW0NIMl1bQ0BASF0oW0NIMl0yKVtDQEBIXShbQ0gyXVtDQEhdMTIpTihbQ0gyXVtDSDJdMylbQ0gyXVtDSDJdTjNDKD1PKVtOSF1bQ0gyXVtDSDJdYzRbY0hdW2NIXW5bY0hdW2NIXTQ=

> <s_epik_cmdline>
J2VwaWtfcHl0aG9uJywgJy1waCcsICc3LjAnLCAnLXRuJywgJzgnLCAnLW1hJywgJzIwMCcsICctbWV0YWxfYmluZGluZycsICctaW1hZScsICc8aW5maWxlLm1hZT4nLCAnLW9tYWUnLCAnPG91dGZpbGUubWFlPic=

> <r_epik_Ionization_Penalty>
1.44916

> <r_epik_Ionization_Penalty_Charging>
1.44913

> <r_epik_Ionization_Penalty_Neutral>
2.64641e-05

> <r_epik_State_Penalty>
1.53218

> <r_epik_Charging_Adjusted_Penalty>
2.98131

> <i_epik_Tot_Q>
2

> <i_epik_Tot_abs_Q>
2

> <r_epik_Metal_State_Penalty>
1.58241

> <b_epik_Metal_Only>
0

> <s_lp_Force_Field>
OPLS_2005

> <r_lp_Energy>
107.451

> <b_lp_Chiralities_Consistent>
1

> <s_lp_Variant>
AV-unprocessed.smi:2895-5

> <Gold.Version>
5.8.1

> <Gold.Id.Protein>
6NUR|6NUR_protein|mol2

> <Gold.PLP.Fitness>
46.6596

> <Gold.PLP.PLP>
-40.7986

> <Gold.PLP.part.hbond>
-2.0000

> <Gold.PLP.part.metal>
0.0000

> <Gold.PLP.part.buried>
2.3871

> <Gold.PLP.part.nonpolar>
-39.4938

> <Gold.PLP.part.repulsive>
0.2037

> <Gold.PLP.ligand.clash>
0.0000

> <Gold.PLP.ligand.torsion>
0.8677

> <Gold.PLP.Chemscore.Hbond>
2.5039

> <Gold.PLP.Chemscore.CHOScore>
0.0000

> <Gold.PLP.Chemscore.Metal>
0.0000

> <Gold.Chemscore.Hbonds>
donor molecule, donor type, donor heavy atom, donor atom, acceptor molecule, acceptor atom, score
      L1  H     3    25       P1  7948  0.49
      L1  H     9    54       P1  8028  1.15

> <Gold.PLP.Chemscore.Internal.Correction>
0.0849

> <Gold.Rescore>
     Score         DG    S(hbond)    S(metal)    S(lipo)     H(rot)  DE(clash)    DE(int)     intcor
     16.26     -17.66       0.95        0.00     108.83       1.46       0.93       0.46       ----

> <Gold.Chemscore.Fitness>
16.2643

> <Gold.Chemscore.DG>
-17.6555

> <Gold.Chemscore.ZeroCoef>
-5.4800

> <Gold.Chemscore.Hbond>
0.9500

> <Gold.Chemscore.Metal>
0.0000

> <Gold.Chemscore.Lipo>
108.8299

> <Gold.Chemscore.Internal_Hbond>
0.0000

> <Gold.Chemscore.DEClash>
0.9344

> <Gold.Chemscore.DEInternal>
0.4569

> <Gold.Chemscore.Rot>
1.4572

> <Gold.Chemscore.Internal.Correction>
   9.000000E+99

> <Gold.Chemscore.Hbonds>
donor molecule, donor type, donor heavy atom, donor atom, acceptor molecule, acceptor atom, score
      L1  H     3    25       P1  7948  0.48
      L1  H     9    54       P1  8028  0.54

> <Gold.Chemscore.Hbond.Weighted>
-3.1729

> <Gold.Chemscore.Metal.Weighted>
-0.0000

> <Gold.Chemscore.Lipo.Weighted>
-12.7331

> <Gold.Chemscore.Internal_Hbond.Weighted>
0.0000

> <Gold.Chemscore.DEClash.Weighted>
0.9344

> <Gold.Chemscore.DEInternal.Weighted>
0.4569

> <Gold.Chemscore.Rot.Weighted>
3.7305

> <Gold.Chemscore.Internal.Correction.Weighted>
   9.000000E+99

> <Gold.Protein.RotatedTorsions>
[ 6907 6896 6895 6894 ] final -129.82 input  -60.11 | X-H torsion
[ 7974 7965 7964 7962 ] final  -32.66 input  175.53 | X-H torsion
[ 8008 7997 7996 7995 ] final  102.05 input   59.86 | X-H torsion
[ 10167 10162 10161 10158 ] final -150.52 input  -65.29 | X-H torsion
[ 10718 10713 10712 10709 ] final -131.26 input   66.30 | X-H torsion
[ 10763 10752 10751 10750 ] final  -35.22 input  -60.55 | X-H torsion
[ 11005 11000 10999 10996 ] final   31.41 input  -57.11 | X-H torsion

> <Gold.Protein.ActiveResidues>
 VAL166  LYS551  ARG553  GLY616  TRP617  ASP618  TYR619  PRO620  LYS621  CYS622 
 ASP623  PHE694  ASN695  SER759  ASP760  ASP761  ALA762  ILE779  LEU786  VAL792 
 PHE793  MET794  SER795  GLU796  ALA797  LYS798  CYS799  TRP800  GLU811  SER814 

> <Gold.Protein.RotatedAtoms>
  150.9329  133.6745  159.2806 H   0  0  0  0  0  0  0  0  0  0  0  0  # atno 6907 bound_to 6896
  151.4161  135.0990  159.9609 H   0  0  0  0  0  0  0  0  0  0  0  0  # atno 6908 bound_to 6896
  152.5034  133.8792  159.7392 H   0  0  0  0  0  0  0  0  0  0  0  0  # atno 6909 bound_to 6896
  146.0972  140.5820  142.8837 H   0  0  0  0  0  0  0  0  0  0  0  0  # atno 7974 bound_to 7965
  156.1357  140.3187  155.8417 H   0  0  0  0  0  0  0  0  0  0  0  0  # atno 8008 bound_to 7997
  155.4249  140.0515  157.3040 H   0  0  0  0  0  0  0  0  0  0  0  0  # atno 8009 bound_to 7997
  154.4935  140.2101  155.9511 H   0  0  0  0  0  0  0  0  0  0  0  0  # atno 8010 bound_to 7997
  139.7347  143.8754  152.2545 H   0  0  0  0  0  0  0  0  0  0  0  0  # atno 10167 bound_to 10162
  156.2226  130.6988  151.0772 H   0  0  0  0  0  0  0  0  0  0  0  0  # atno 10718 bound_to 10713
  153.8596  135.6841  153.4784 H   0  0  0  0  0  0  0  0  0  0  0  0  # atno 10763 bound_to 10752
  153.1349  135.4682  154.9405 H   0  0  0  0  0  0  0  0  0  0  0  0  # atno 10764 bound_to 10752
  154.7765  135.3255  154.8031 H   0  0  0  0  0  0  0  0  0  0  0  0  # atno 10765 bound_to 10752
  140.2842  134.2938  155.7792 H   0  0  0  0  0  0  0  0  0  0  0  0  # atno 11005 bound_to 11000
  144.7405  140.4928  143.6873 LP  0  0  0  0  0  0  0  0  0  0  0  0  # atno 17320 bound_to 7965
  145.5924  139.1497  143.3174 LP  0  0  0  0  0  0  0  0  0  0  0  0  # atno 17321 bound_to 7965
  139.8687  144.7079  150.9013 LP  0  0  0  0  0  0  0  0  0  0  0  0  # atno 17342 bound_to 10162
  140.7777  143.3756  151.1569 LP  0  0  0  0  0  0  0  0  0  0  0  0  # atno 17343 bound_to 10162
  157.7095  131.0741  150.6551 LP  0  0  0  0  0  0  0  0  0  0  0  0  # atno 17370 bound_to 10713
  156.6615  130.4513  149.5686 LP  0  0  0  0  0  0  0  0  0  0  0  0  # atno 17371 bound_to 10713
  141.2157  133.7544  156.9527 LP  0  0  0  0  0  0  0  0  0  0  0  0  # atno 17394 bound_to 11000
  140.1255  134.9389  157.2264 LP  0  0  0  0  0  0  0  0  0  0  0  0  # atno 17395 bound_to 11000

$$$$
