AV-unprocessed.smi:2573|AV-procd|sdf|10112|dock8
  -GOLD-   2272014133D 1   1.00000     0.00000
 Structure written by MMmdl.
 38 39  0  0  0  0  0  0  0  0  1 V2000
  149.7090  140.5304  154.7598 C   0  0  0  0  0  0  0  0  0  0  0  0
  150.1658  140.7761  156.2043 C   0  0  0  0  0  0  0  0  0  0  0  0
  151.1213  141.9731  156.3626 C   0  0  0  0  0  0  0  0  0  0  0  0
  151.7451  142.0188  157.6846 N   0  0  0  0  0  0  0  0  0  0  0  0
  152.4932  141.0495  158.2634 C   0  0  0  0  0  0  0  0  0  0  0  0
  152.7800  139.9615  157.7646 O   0  0  0  0  0  0  0  0  0  0  0  0
  152.8775  141.4874  159.4852 N   0  0  0  0  0  0  0  0  0  0  0  0
  153.7120  140.7657  160.4444 C   0  0  0  0  0  0  0  0  0  0  0  0
  155.1062  140.4551  159.8618 C   0  0  2  0  0  0  0  0  0  0  0  0
  154.9616  139.4155  158.9141 O   0  0  0  0  0  0  0  0  0  0  0  0
  156.0916  139.9822  160.9512 C   0  0  0  0  0  0  0  0  0  0  0  0
  157.5281  139.7314  160.4557 C   0  0  0  0  0  0  0  0  0  0  0  0
  157.5149  138.7235  159.5838 F   0  0  0  0  0  0  0  0  0  0  0  0
  158.0271  140.8069  159.8472 F   0  0  0  0  0  0  0  0  0  0  0  0
  158.3181  139.3975  161.4762 F   0  0  0  0  0  0  0  0  0  0  0  0
  152.3729  142.7802  159.6892 C   0  0  0  0  0  0  0  0  0  0  0  0
  152.5015  143.6647  160.7745 C   0  0  0  0  0  0  0  0  0  0  0  0
  151.8586  144.9202  160.6650 C   0  0  0  0  0  0  0  0  0  0  0  0
  151.1192  145.2596  159.5021 C   0  0  0  0  0  0  0  0  0  0  0  0
  151.0087  144.3517  158.4232 C   0  0  0  0  0  0  0  0  0  0  0  0
  151.6575  143.1121  158.5577 C   0  0  0  0  0  0  0  0  0  0  0  0
  148.9809  139.7203  154.7169 H   0  0  0  0  0  0  0  0  0  0  0  0
  150.5451  140.2534  154.1176 H   0  0  0  0  0  0  0  0  0  0  0  0
  149.2417  141.4209  154.3386 H   0  0  0  0  0  0  0  0  0  0  0  0
  149.2860  140.9484  156.8246 H   0  0  0  0  0  0  0  0  0  0  0  0
  150.6353  139.8721  156.5936 H   0  0  0  0  0  0  0  0  0  0  0  0
  151.8862  141.9423  155.5850 H   0  0  0  0  0  0  0  0  0  0  0  0
  150.5737  142.9025  156.2023 H   0  0  0  0  0  0  0  0  0  0  0  0
  153.8088  141.3943  161.3301 H   0  0  0  0  0  0  0  0  0  0  0  0
  153.2158  139.8561  160.7885 H   0  0  0  0  0  0  0  0  0  0  0  0
  155.5109  141.3403  159.3694 H   0  0  0  0  0  0  0  0  0  0  0  0
  155.6670  139.4767  158.2877 H   0  0  0  0  0  0  0  0  0  0  0  0
  156.1414  140.7424  161.7316 H   0  0  0  0  0  0  0  0  0  0  0  0
  155.7056  139.0836  161.4350 H   0  0  0  0  0  0  0  0  0  0  0  0
  153.0670  143.4026  161.6563 H   0  0  0  0  0  0  0  0  0  0  0  0
  151.9316  145.6293  161.4764 H   0  0  0  0  0  0  0  0  0  0  0  0
  150.6355  146.2233  159.4389 H   0  0  0  0  0  0  0  0  0  0  0  0
  150.4490  144.6044  157.5348 H   0  0  0  0  0  0  0  0  0  0  0  0
  1  2  1  0  0  0  0
  1 22  1  0  0  0  0
  1 23  1  0  0  0  0
  1 24  1  0  0  0  0
  2  3  1  0  0  0  0
  2 25  1  0  0  0  0
  2 26  1  0  0  0  0
  3  4  1  0  0  0  0
  3 27  1  0  0  0  0
  3 28  1  0  0  0  0
  4 21  1  0  0  0  0
  4  5  1  0  0  0  0
  5  6  2  0  0  0  0
  5  7  1  0  0  0  0
  7  8  1  0  0  0  0
  7 16  1  0  0  0  0
  8  9  1  0  0  0  0
  8 29  1  0  0  0  0
  8 30  1  0  0  0  0
  9 10  1  0  0  0  0
  9 11  1  0  0  0  0
  9 31  1  0  0  0  0
 10 32  1  0  0  0  0
 11 12  1  0  0  0  0
 11 33  1  0  0  0  0
 11 34  1  0  0  0  0
 12 13  1  0  0  0  0
 12 14  1  0  0  0  0
 12 15  1  0  0  0  0
 16 21  2  0  0  0  0
 16 17  1  0  0  0  0
 17 18  2  0  0  0  0
 17 35  1  0  0  0  0
 18 19  1  0  0  0  0
 18 36  1  0  0  0  0
 19 20  2  0  0  0  0
 19 37  1  0  0  0  0
 20 21  1  0  0  0  0
 20 38  1  0  0  0  0
M  END
> <s_m_source_file>
AV-unprocessed.smi

> <i_m_source_file_index>
2573

> <i_lp_mmshare_version>
43012

> <i_f3d_flags>
0

> <s_epik_input>
W2NIXTFbY0hdW2NIXVtjSF1jKGMxMiluKFtDSDJdW0NIMl1bQ0gzXSljKD1PKW4yW0NIMl1bQ0BIXShbT0hdKVtDSDJdQyhGKShGKUY=

> <s_epik_cmdline>
J2VwaWtfcHl0aG9uJywgJy1waCcsICc3LjAnLCAnLXRuJywgJzgnLCAnLW1hJywgJzIwMCcsICctbWV0YWxfYmluZGluZycsICctaW1hZScsICc8aW5maWxlLm1hZT4nLCAnLW9tYWUnLCAnPG91dGZpbGUubWFlPic=

> <r_lp_tautomer_probability>
1

> <r_epik_Ionization_Penalty>
2.4024e-06

> <r_epik_Ionization_Penalty_Charging>
3.10219e-09

> <r_epik_Ionization_Penalty_Neutral>
2.3993e-06

> <r_epik_State_Penalty>
-0

> <r_epik_Charging_Adjusted_Penalty>
3.10219e-09

> <i_epik_Tot_Q>
0

> <i_epik_Tot_abs_Q>
0

> <r_epik_Metal_State_Penalty>
-0

> <b_epik_Metal_Only>
0

> <s_lp_Force_Field>
OPLS_2005

> <r_lp_Energy>
43.3878

> <b_lp_Chiralities_Consistent>
1

> <s_lp_Variant>
AV-unprocessed.smi:2573-1

> <Gold.Version>
5.8.1

> <Gold.Id.Protein>
6NUR|6NUR_protein|mol2

> <Gold.PLP.Fitness>
48.4867

> <Gold.PLP.PLP>
-45.6960

> <Gold.PLP.part.hbond>
-2.0000

> <Gold.PLP.part.metal>
0.0000

> <Gold.PLP.part.buried>
-6.3972

> <Gold.PLP.part.nonpolar>
-38.0273

> <Gold.PLP.part.repulsive>
0.0000

> <Gold.PLP.ligand.clash>
0.0000

> <Gold.PLP.ligand.torsion>
0.1520

> <Gold.PLP.Chemscore.Hbond>
1.0000

> <Gold.PLP.Chemscore.CHOScore>
0.0000

> <Gold.PLP.Chemscore.Metal>
0.0000

> <Gold.Chemscore.Hbonds>
donor molecule, donor type, donor heavy atom, donor atom, acceptor molecule, acceptor atom, score
      P1  H  7997  8008       L1     6  1.00

> <Gold.PLP.Chemscore.Internal.Correction>
0.0946

> <Gold.Rescore>
     Score         DG    S(hbond)    S(metal)    S(lipo)     H(rot)  DE(clash)    DE(int)     intcor
     13.88     -15.64       0.80        0.00     118.42       2.48       0.05       1.72       ----

> <Gold.Chemscore.Fitness>
13.8762

> <Gold.Chemscore.DG>
-15.6423

> <Gold.Chemscore.ZeroCoef>
-5.4800

> <Gold.Chemscore.Hbond>
0.7960

> <Gold.Chemscore.Metal>
0.0000

> <Gold.Chemscore.Lipo>
118.4228

> <Gold.Chemscore.Internal_Hbond>
0.0000

> <Gold.Chemscore.DEClash>
0.0496

> <Gold.Chemscore.DEInternal>
1.7165

> <Gold.Chemscore.Rot>
2.4812

> <Gold.Chemscore.Internal.Correction>
   9.000000E+99

> <Gold.Chemscore.Hbonds>
donor molecule, donor type, donor heavy atom, donor atom, acceptor molecule, acceptor atom, score
      P1  H  7997  8008       L1     6  0.73

> <Gold.Chemscore.Hbond.Weighted>
-2.6587

> <Gold.Chemscore.Metal.Weighted>
-0.0000

> <Gold.Chemscore.Lipo.Weighted>
-13.8555

> <Gold.Chemscore.Internal_Hbond.Weighted>
0.0000

> <Gold.Chemscore.DEClash.Weighted>
0.0496

> <Gold.Chemscore.DEInternal.Weighted>
1.7165

> <Gold.Chemscore.Rot.Weighted>
6.3518

> <Gold.Chemscore.Internal.Correction.Weighted>
   9.000000E+99

> <Gold.Protein.RotatedTorsions>
[ 6907 6896 6895 6894 ] final   91.50 input  -60.11 | X-H torsion
[ 7974 7965 7964 7962 ] final -162.70 input  175.53 | X-H torsion
[ 8008 7997 7996 7995 ] final  -69.69 input   59.86 | X-H torsion
[ 10167 10162 10161 10158 ] final -142.06 input  -65.29 | X-H torsion
[ 10718 10713 10712 10709 ] final -145.40 input   66.30 | X-H torsion
[ 10763 10752 10751 10750 ] final  108.47 input  -60.55 | X-H torsion
[ 11005 11000 10999 10996 ] final   18.37 input  -57.11 | X-H torsion

> <Gold.Protein.ActiveResidues>
 VAL166  LYS551  ARG553  GLY616  TRP617  ASP618  TYR619  PRO620  LYS621  CYS622 
 ASP623  PHE694  ASN695  SER759  ASP760  ASP761  ALA762  ILE779  LEU786  VAL792 
 PHE793  MET794  SER795  GLU796  ALA797  LYS798  CYS799  TRP800  GLU811  SER814 

> <Gold.Protein.RotatedAtoms>
  152.5450  134.1647  159.8571 H   0  0  0  0  0  0  0  0  0  0  0  0  # atno 6907 bound_to 6896
  151.1662  133.4806  159.2601 H   0  0  0  0  0  0  0  0  0  0  0  0  # atno 6908 bound_to 6896
  151.1322  135.0147  159.8643 H   0  0  0  0  0  0  0  0  0  0  0  0  # atno 6909 bound_to 6896
  144.7349  140.3214  143.6170 H   0  0  0  0  0  0  0  0  0  0  0  0  # atno 7974 bound_to 7965
  154.4957  140.0848  156.7691 H   0  0  0  0  0  0  0  0  0  0  0  0  # atno 8008 bound_to 7997
  155.4122  140.3442  155.4246 H   0  0  0  0  0  0  0  0  0  0  0  0  # atno 8009 bound_to 7997
  156.1391  140.1524  156.8937 H   0  0  0  0  0  0  0  0  0  0  0  0  # atno 8010 bound_to 7997
  139.8125  143.7684  152.2664 H   0  0  0  0  0  0  0  0  0  0  0  0  # atno 10167 bound_to 10162
  156.3820  130.7842  151.2035 H   0  0  0  0  0  0  0  0  0  0  0  0  # atno 10718 bound_to 10713
  153.4211  135.3811  155.2111 H   0  0  0  0  0  0  0  0  0  0  0  0  # atno 10763 bound_to 10752
  154.8744  135.3817  154.4383 H   0  0  0  0  0  0  0  0  0  0  0  0  # atno 10764 bound_to 10752
  153.4903  135.7088  153.5950 H   0  0  0  0  0  0  0  0  0  0  0  0  # atno 10765 bound_to 10752
  140.4256  134.1473  155.7676 H   0  0  0  0  0  0  0  0  0  0  0  0  # atno 11005 bound_to 11000
  145.7564  139.1810  143.2292 LP  0  0  0  0  0  0  0  0  0  0  0  0  # atno 17320 bound_to 7965
  146.1020  140.7532  142.9544 LP  0  0  0  0  0  0  0  0  0  0  0  0  # atno 17321 bound_to 7965
  139.7837  144.7435  151.0052 LP  0  0  0  0  0  0  0  0  0  0  0  0  # atno 17342 bound_to 10162
  140.7817  143.4515  151.0406 LP  0  0  0  0  0  0  0  0  0  0  0  0  # atno 17343 bound_to 10162
  157.7493  131.0341  150.4302 LP  0  0  0  0  0  0  0  0  0  0  0  0  # atno 17370 bound_to 10713
  156.4548  130.4019  149.6613 LP  0  0  0  0  0  0  0  0  0  0  0  0  # atno 17371 bound_to 10713
  141.1766  133.8500  157.1399 LP  0  0  0  0  0  0  0  0  0  0  0  0  # atno 17394 bound_to 11000
  140.0170  134.9963  157.0513 LP  0  0  0  0  0  0  0  0  0  0  0  0  # atno 17395 bound_to 11000

$$$$
