AV-unprocessed.smi:1118|AV-procd|sdf|4815|dock8
  -GOLD-   22720 3373D 1   1.00000     0.00000
 Structure written by MMmdl.
 45 46  0  0  0  0  0  0  0  0  2 V2000
  146.0280  143.5191  154.5984 C   0  0  0  0  0  0  0  0  0  0  0  0
  147.0250  142.5684  154.9311 O   0  0  0  0  0  0  0  0  0  0  0  0
  147.5678  141.9277  153.7884 C   0  0  0  0  0  0  0  0  0  0  0  0
  148.0559  140.5263  154.1867 C   0  0  0  0  0  0  0  0  0  0  0  0
  149.5020  140.4992  154.5237 N   0  3  2  0  0  0  0  0  0  0  0  0
  150.0345  139.1140  154.5844 C   0  0  0  0  0  0  0  0  0  0  0  0
  151.5578  139.1166  154.7910 C   0  0  0  0  0  0  0  0  0  0  0  0
  151.9638  139.8827  156.0676 C   0  0  2  0  0  0  0  0  0  0  0  0
  151.6145  139.1592  157.3898 C   0  0  0  0  0  0  0  0  0  0  0  0
  151.7769  140.0362  158.5442 N   0  0  0  0  0  0  0  0  0  0  0  0
  152.9470  140.3683  159.1123 C   0  0  0  0  0  0  0  0  0  0  0  0
  154.0307  139.8923  158.7744 O   0  0  0  0  0  0  0  0  0  0  0  0
  152.8894  141.4369  160.2030 C   0  0  0  0  0  0  0  0  0  0  0  0
  152.4824  142.7123  159.6412 N   0  0  0  0  0  0  0  0  0  0  0  0
  152.6186  143.9714  160.1881 C   0  0  0  0  0  0  0  0  0  0  0  0
  152.1102  144.8631  159.2875 C   0  0  0  0  0  0  0  0  0  0  0  0
  151.6825  144.0444  158.2053 C   0  0  0  0  0  0  0  0  0  0  0  0
  151.9071  142.7578  158.4189 N   0  0  0  0  0  0  0  0  0  0  0  0
  151.3581  141.2970  156.0022 C   0  0  0  0  0  0  0  0  0  0  0  0
  149.8381  141.2728  155.7493 C   0  0  0  0  0  0  0  0  0  0  0  0
  145.6401  143.9775  155.5082 H   0  0  0  0  0  0  0  0  0  0  0  0
  145.1934  143.0497  154.0757 H   0  0  0  0  0  0  0  0  0  0  0  0
  146.4337  144.3123  153.9689 H   0  0  0  0  0  0  0  0  0  0  0  0
  146.8328  141.8851  152.9844 H   0  0  0  0  0  0  0  0  0  0  0  0
  148.4123  142.5088  153.4148 H   0  0  0  0  0  0  0  0  0  0  0  0
  147.4765  140.1449  155.0288 H   0  0  0  0  0  0  0  0  0  0  0  0
  147.8594  139.8531  153.3512 H   0  0  0  0  0  0  0  0  0  0  0  0
  149.5378  138.5621  155.3833 H   0  0  0  0  0  0  0  0  0  0  0  0
  149.8067  138.5925  153.6542 H   0  0  0  0  0  0  0  0  0  0  0  0
  151.9385  138.0955  154.8035 H   0  0  0  0  0  0  0  0  0  0  0  0
  152.0282  139.5905  153.9284 H   0  0  0  0  0  0  0  0  0  0  0  0
  153.0494  139.9907  156.0498 H   0  0  0  0  0  0  0  0  0  0  0  0
  150.5725  138.8391  157.3647 H   0  0  0  0  0  0  0  0  0  0  0  0
  152.2019  138.2481  157.5064 H   0  0  0  0  0  0  0  0  0  0  0  0
  150.9419  140.4836  158.8951 H   0  0  0  0  0  0  0  0  0  0  0  0
  152.1927  141.1467  160.9913 H   0  0  0  0  0  0  0  0  0  0  0  0
  153.8710  141.5502  160.6649 H   0  0  0  0  0  0  0  0  0  0  0  0
  153.0634  144.1258  161.1604 H   0  0  0  0  0  0  0  0  0  0  0  0
  152.0537  145.9371  159.3864 H   0  0  0  0  0  0  0  0  0  0  0  0
  151.2196  144.3447  157.2769 H   0  0  0  0  0  0  0  0  0  0  0  0
  151.5760  141.8445  156.9197 H   0  0  0  0  0  0  0  0  0  0  0  0
  151.8398  141.8548  155.1979 H   0  0  0  0  0  0  0  0  0  0  0  0
  149.4884  142.2997  155.6533 H   0  0  0  0  0  0  0  0  0  0  0  0
  149.3145  140.8470  156.6060 H   0  0  0  0  0  0  0  0  0  0  0  0
  149.9797  140.9460  153.7534 H   0  0  0  0  0  0  0  0  0  0  0  0
  1  2  1  0  0  0  0
  1 21  1  0  0  0  0
  1 22  1  0  0  0  0
  1 23  1  0  0  0  0
  2  3  1  0  0  0  0
  3  4  1  0  0  0  0
  3 24  1  0  0  0  0
  3 25  1  0  0  0  0
  4  5  1  0  0  0  0
  4 26  1  0  0  0  0
  4 27  1  0  0  0  0
  5 20  1  0  0  0  0
  5  6  1  0  0  0  0
  5 45  1  0  0  0  0
  6  7  1  0  0  0  0
  6 28  1  0  0  0  0
  6 29  1  0  0  0  0
  7  8  1  0  0  0  0
  7 30  1  0  0  0  0
  7 31  1  0  0  0  0
  8  9  1  0  0  0  0
  8 19  1  0  0  0  0
  8 32  1  0  0  0  0
  9 10  1  0  0  0  0
  9 33  1  0  0  0  0
  9 34  1  0  0  0  0
 10 11  1  0  0  0  0
 10 35  1  0  0  0  0
 11 12  2  0  0  0  0
 11 13  1  0  0  0  0
 13 14  1  0  0  0  0
 13 36  1  0  0  0  0
 13 37  1  0  0  0  0
 14 18  1  0  0  0  0
 14 15  1  0  0  0  0
 15 16  2  0  0  0  0
 15 38  1  0  0  0  0
 16 17  1  0  0  0  0
 16 39  1  0  0  0  0
 17 18  2  0  0  0  0
 17 40  1  0  0  0  0
 19 20  1  0  0  0  0
 19 41  1  0  0  0  0
 19 42  1  0  0  0  0
 20 43  1  0  0  0  0
 20 44  1  0  0  0  0
M  CHG  1   5   1
M  END
> <s_m_source_file>
AV-unprocessed.smi

> <i_m_source_file_index>
1118

> <i_lp_mmshare_version>
43012

> <i_f3d_flags>
0

> <s_epik_input>
W0NIM11PW0NIMl1bQ0gyXU4xW0NIMl1bQ0gyXVtDSF0oW0NIMl1bQ0gyXTEpW0NIMl1bTkhdQyg9TylbQ0gyXW4yW2NIXVtjSF1bY0hdbjI=

> <s_epik_cmdline>
J2VwaWtfcHl0aG9uJywgJy1waCcsICc3LjAnLCAnLXRuJywgJzgnLCAnLW1hJywgJzIwMCcsICctbWV0YWxfYmluZGluZycsICctaW1hZScsICc8aW5maWxlLm1hZT4nLCAnLW9tYWUnLCAnPG91dGZpbGUubWFlPic=

> <r_lp_tautomer_probability>
1

> <r_epik_Ionization_Penalty>
0.00991549

> <r_epik_Ionization_Penalty_Charging>
0.00990284

> <r_epik_Ionization_Penalty_Neutral>
1.26554e-05

> <r_epik_State_Penalty>
0.00754525

> <r_epik_Charging_Adjusted_Penalty>
0.0174481

> <i_epik_Tot_Q>
1

> <i_epik_Tot_abs_Q>
1

> <r_epik_Metal_State_Penalty>
0.00754527

> <b_epik_Metal_Only>
0

> <s_lp_Force_Field>
OPLS_2005

> <r_lp_Energy>
20.3216

> <b_lp_Chiralities_Consistent>
1

> <s_lp_Variant>
AV-unprocessed.smi:1118-2

> <Gold.Version>
5.8.1

> <Gold.Id.Protein>
6NUR|6NUR_protein|mol2

> <Gold.PLP.Fitness>
50.3450

> <Gold.PLP.PLP>
-46.1005

> <Gold.PLP.part.hbond>
-1.0358

> <Gold.PLP.part.metal>
0.0000

> <Gold.PLP.part.buried>
-6.0164

> <Gold.PLP.part.nonpolar>
-38.8146

> <Gold.PLP.part.repulsive>
0.4630

> <Gold.PLP.ligand.clash>
0.0000

> <Gold.PLP.ligand.torsion>
0.9363

> <Gold.PLP.Chemscore.Hbond>
1.0000

> <Gold.PLP.Chemscore.CHOScore>
0.9871

> <Gold.PLP.Chemscore.Metal>
0.0000

> <Gold.Chemscore.Hbonds>
donor molecule, donor type, donor heavy atom, donor atom, acceptor molecule, acceptor atom, score
      P1  H  7997  8009       L1    12  1.00
      L1  C    17    40       P1  8028  0.25

> <Gold.PLP.Chemscore.Internal.Correction>
0.1561

> <Gold.Rescore>
     Score         DG    S(hbond)    S(metal)    S(lipo)     H(rot)  DE(clash)    DE(int)     intcor
     14.26     -17.77       1.59        0.00     108.29       2.22       0.38       3.13       ----

> <Gold.Chemscore.Fitness>
14.2563

> <Gold.Chemscore.DG>
-17.7716

> <Gold.Chemscore.ZeroCoef>
-5.4800

> <Gold.Chemscore.Hbond>
1.5858

> <Gold.Chemscore.Metal>
0.0000

> <Gold.Chemscore.Lipo>
108.2859

> <Gold.Chemscore.Internal_Hbond>
0.0000

> <Gold.Chemscore.DEClash>
0.3849

> <Gold.Chemscore.DEInternal>
3.1304

> <Gold.Chemscore.Rot>
2.2166

> <Gold.Chemscore.Internal.Correction>
   9.000000E+99

> <Gold.Chemscore.Hbonds>
donor molecule, donor type, donor heavy atom, donor atom, acceptor molecule, acceptor atom, score
      P1  H  7997  8009       L1    12  0.98

> <Gold.Chemscore.Hbond.Weighted>
-5.2967

> <Gold.Chemscore.Metal.Weighted>
-0.0000

> <Gold.Chemscore.Lipo.Weighted>
-12.6694

> <Gold.Chemscore.Internal_Hbond.Weighted>
0.0000

> <Gold.Chemscore.DEClash.Weighted>
0.3849

> <Gold.Chemscore.DEInternal.Weighted>
3.1304

> <Gold.Chemscore.Rot.Weighted>
5.6745

> <Gold.Chemscore.Internal.Correction.Weighted>
   9.000000E+99

> <Gold.Protein.RotatedTorsions>
[ 6907 6896 6895 6894 ] final -153.71 input  -60.11 | X-H torsion
[ 7974 7965 7964 7962 ] final   94.98 input  175.53 | X-H torsion
[ 8008 7997 7996 7995 ] final  135.06 input   59.86 | X-H torsion
[ 10167 10162 10161 10158 ] final   42.11 input  -65.29 | X-H torsion
[ 10718 10713 10712 10709 ] final -124.96 input   66.30 | X-H torsion
[ 10763 10752 10751 10750 ] final  -81.83 input  -60.55 | X-H torsion
[ 11005 11000 10999 10996 ] final  -55.08 input  -57.11 | X-H torsion

> <Gold.Protein.ActiveResidues>
 VAL166  LYS551  ARG553  GLY616  TRP617  ASP618  TYR619  PRO620  LYS621  CYS622 
 ASP623  PHE694  ASN695  SER759  ASP760  ASP761  ALA762  ILE779  LEU786  VAL792 
 PHE793  MET794  SER795  GLU796  ALA797  LYS798  CYS799  TRP800  GLU811  SER814 

> <Gold.Protein.RotatedAtoms>
  151.2467  133.4371  159.2609 H   0  0  0  0  0  0  0  0  0  0  0  0  # atno 6907 bound_to 6896
  151.0655  134.9765  159.8292 H   0  0  0  0  0  0  0  0  0  0  0  0  # atno 6908 bound_to 6896
  152.5404  134.2415  159.8916 H   0  0  0  0  0  0  0  0  0  0  0  0  # atno 6909 bound_to 6896
  145.4583  139.2288  143.3001 H   0  0  0  0  0  0  0  0  0  0  0  0  # atno 7974 bound_to 7965
  156.3002  140.2480  156.3520 H   0  0  0  0  0  0  0  0  0  0  0  0  # atno 8008 bound_to 7997
  154.8957  140.0408  157.1883 H   0  0  0  0  0  0  0  0  0  0  0  0  # atno 8009 bound_to 7997
  154.8552  140.2912  155.5577 H   0  0  0  0  0  0  0  0  0  0  0  0  # atno 8010 bound_to 7997
  140.3576  144.2270  150.6140 H   0  0  0  0  0  0  0  0  0  0  0  0  # atno 10167 bound_to 10162
  156.1633  130.6617  151.0080 H   0  0  0  0  0  0  0  0  0  0  0  0  # atno 10718 bound_to 10713
  154.5683  135.5612  153.7071 H   0  0  0  0  0  0  0  0  0  0  0  0  # atno 10763 bound_to 10752
  153.0040  135.6291  154.2149 H   0  0  0  0  0  0  0  0  0  0  0  0  # atno 10764 bound_to 10752
  154.2088  135.2874  155.2945 H   0  0  0  0  0  0  0  0  0  0  0  0  # atno 10765 bound_to 10752
  141.1057  133.6613  156.4417 H   0  0  0  0  0  0  0  0  0  0  0  0  # atno 11005 bound_to 11000
  146.2465  140.5349  142.8911 LP  0  0  0  0  0  0  0  0  0  0  0  0  # atno 17320 bound_to 7965
  144.8018  140.6228  143.6473 LP  0  0  0  0  0  0  0  0  0  0  0  0  # atno 17321 bound_to 7965
  140.5158  143.2278  151.8465 LP  0  0  0  0  0  0  0  0  0  0  0  0  # atno 17342 bound_to 10162
  139.4818  144.4896  151.9203 LP  0  0  0  0  0  0  0  0  0  0  0  0  # atno 17343 bound_to 10162
  157.6749  131.0853  150.7520 LP  0  0  0  0  0  0  0  0  0  0  0  0  # atno 17370 bound_to 10713
  156.7582  130.4790  149.5442 LP  0  0  0  0  0  0  0  0  0  0  0  0  # atno 17371 bound_to 10713
  140.4908  134.6577  157.5210 LP  0  0  0  0  0  0  0  0  0  0  0  0  # atno 17394 bound_to 11000
  139.9926  134.6961  155.9663 LP  0  0  0  0  0  0  0  0  0  0  0  0  # atno 17395 bound_to 11000

$$$$
