AV-unprocessed.smi:2693|AV-procd|sdf|10404|dock10
  -GOLD-   2272014433D 1   1.00000     0.00000
 Structure written by MMmdl.
 45 47  0  0  0  0  0  0  0  0  1 V2000
  143.9704  132.3911  149.4805 C   0  0  0  0  0  0  0  0  0  0  0  0
  144.8437  132.4627  150.6484 N   0  0  0  0  0  0  0  0  0  0  0  0
  145.3194  131.2034  151.2142 C   0  0  0  0  0  0  0  0  0  0  0  0
  145.2201  133.6918  151.1982 C   0  0  0  0  0  0  0  0  0  0  0  0
  144.7912  134.8005  150.5808 N   0  0  0  0  0  0  0  0  0  0  0  0
  145.1511  135.9919  151.1036 C   0  0  0  0  0  0  0  0  0  0  0  0
  145.9580  136.0807  152.2630 C   0  0  0  0  0  0  0  0  0  0  0  0
  146.3625  137.2908  152.8871 N   0  0  0  0  0  0  0  0  0  0  0  0
  147.1235  137.4480  153.9832 C   0  0  0  0  0  0  0  0  0  0  0  0
  147.5797  136.5350  154.6707 O   0  0  0  0  0  0  0  0  0  0  0  0
  147.3088  138.7446  154.2618 N   0  0  0  0  0  0  0  0  0  0  0  0
  148.0659  139.2470  155.4132 C   0  0  1  0  0  0  0  0  0  0  0  0
  149.5489  138.8745  155.3523 C   0  0  1  0  0  0  0  0  0  0  0  0
  150.3674  137.8781  154.6144 C   0  0  0  0  0  0  0  0  0  0  0  0
  151.5615  138.8154  154.2870 C   0  0  0  0  0  0  0  0  0  0  0  0
  151.1279  140.1542  154.6407 O   0  0  0  0  0  0  0  0  0  0  0  0
  149.7229  140.1085  154.4911 C   0  0  2  0  0  0  0  0  0  0  0  0
  148.5655  140.7418  155.2959 C   0  0  0  0  0  0  0  0  0  0  0  0
  147.6757  141.7154  154.5145 C   0  0  0  0  0  0  0  0  0  0  0  0
  148.9337  141.4676  156.6025 C   0  0  0  0  0  0  0  0  0  0  0  0
  146.3423  134.8527  152.8370 C   0  0  0  0  0  0  0  0  0  0  0  0
  145.9772  133.6680  152.3032 N   0  0  0  0  0  0  0  0  0  0  0  0
  144.4711  132.8110  148.6077 H   0  0  0  0  0  0  0  0  0  0  0  0
  143.0514  132.9516  149.6540 H   0  0  0  0  0  0  0  0  0  0  0  0
  143.6899  131.3645  149.2452 H   0  0  0  0  0  0  0  0  0  0  0  0
  146.4085  131.1962  151.2694 H   0  0  0  0  0  0  0  0  0  0  0  0
  145.0145  130.3465  150.6133 H   0  0  0  0  0  0  0  0  0  0  0  0
  144.9227  131.0665  152.2206 H   0  0  0  0  0  0  0  0  0  0  0  0
  144.7661  136.8591  150.5906 H   0  0  0  0  0  0  0  0  0  0  0  0
  145.9931  138.1356  152.4762 H   0  0  0  0  0  0  0  0  0  0  0  0
  146.8951  139.4319  153.6493 H   0  0  0  0  0  0  0  0  0  0  0  0
  147.6128  139.0157  156.3788 H   0  0  0  0  0  0  0  0  0  0  0  0
  149.9709  138.9941  156.3533 H   0  0  0  0  0  0  0  0  0  0  0  0
  150.6577  137.0260  155.2295 H   0  0  0  0  0  0  0  0  0  0  0  0
  149.8692  137.5192  153.7129 H   0  0  0  0  0  0  0  0  0  0  0  0
  152.4516  138.5567  154.8608 H   0  0  0  0  0  0  0  0  0  0  0  0
  151.8147  138.7646  153.2273 H   0  0  0  0  0  0  0  0  0  0  0  0
  149.4579  139.9600  153.4392 H   0  0  0  0  0  0  0  0  0  0  0  0
  148.1509  142.6900  154.3988 H   0  0  0  0  0  0  0  0  0  0  0  0
  146.7207  141.8713  155.0172 H   0  0  0  0  0  0  0  0  0  0  0  0
  147.4562  141.3536  153.5099 H   0  0  0  0  0  0  0  0  0  0  0  0
  149.5218  142.3640  156.4033 H   0  0  0  0  0  0  0  0  0  0  0  0
  149.5168  140.8579  157.2903 H   0  0  0  0  0  0  0  0  0  0  0  0
  148.0408  141.7788  157.1459 H   0  0  0  0  0  0  0  0  0  0  0  0
  146.9500  134.8168  153.7292 H   0  0  0  0  0  0  0  0  0  0  0  0
  1  2  1  0  0  0  0
  1 23  1  0  0  0  0
  1 24  1  0  0  0  0
  1 25  1  0  0  0  0
  2  3  1  0  0  0  0
  2  4  1  0  0  0  0
  3 26  1  0  0  0  0
  3 27  1  0  0  0  0
  3 28  1  0  0  0  0
  4 22  1  0  0  0  0
  4  5  2  0  0  0  0
  5  6  1  0  0  0  0
  6  7  2  0  0  0  0
  6 29  1  0  0  0  0
  7  8  1  0  0  0  0
  7 21  1  0  0  0  0
  8  9  1  0  0  0  0
  8 30  1  0  0  0  0
  9 10  2  0  0  0  0
  9 11  1  0  0  0  0
 11 12  1  0  0  0  0
 11 31  1  0  0  0  0
 12 18  1  0  0  0  0
 12 13  1  0  0  0  0
 12 32  1  0  0  0  0
 13 17  1  0  0  0  0
 13 14  1  0  0  0  0
 13 33  1  0  0  0  0
 14 15  1  0  0  0  0
 14 34  1  0  0  0  0
 14 35  1  0  0  0  0
 15 16  1  0  0  0  0
 15 36  1  0  0  0  0
 15 37  1  0  0  0  0
 16 17  1  0  0  0  0
 17 18  1  0  0  0  0
 17 38  1  0  0  0  0
 18 19  1  0  0  0  0
 18 20  1  0  0  0  0
 19 39  1  0  0  0  0
 19 40  1  0  0  0  0
 19 41  1  0  0  0  0
 20 42  1  0  0  0  0
 20 43  1  0  0  0  0
 20 44  1  0  0  0  0
 21 22  2  0  0  0  0
 21 45  1  0  0  0  0
M  END
> <s_m_source_file>
AV-unprocessed.smi

> <i_m_source_file_index>
2693

> <i_lp_mmshare_version>
43012

> <i_f3d_flags>
0

> <s_epik_input>
W0NIM11OKFtDSDNdKWMxbltjSF1jKFtjSF1uMSlbTkhdQyg9TylbTkhdW0NASF0yQyhbQ0gzXSkoW0NIM10pW0NAQEhdKFtDQEhdMjMpT1tDSDJdW0NIMl0z

> <s_epik_cmdline>
J2VwaWtfcHl0aG9uJywgJy1waCcsICc3LjAnLCAnLXRuJywgJzgnLCAnLW1hJywgJzIwMCcsICctbWV0YWxfYmluZGluZycsICctaW1hZScsICc8aW5maWxlLm1hZT4nLCAnLW9tYWUnLCAnPG91dGZpbGUubWFlPic=

> <r_lp_tautomer_probability>
1

> <r_epik_Ionization_Penalty>
0.00031779

> <r_epik_Ionization_Penalty_Charging>
0

> <r_epik_Ionization_Penalty_Neutral>
0.00031779

> <r_epik_State_Penalty>
-0

> <r_epik_Charging_Adjusted_Penalty>
0

> <i_epik_Tot_Q>
0

> <i_epik_Tot_abs_Q>
0

> <r_epik_Metal_State_Penalty>
-0

> <b_epik_Metal_Only>
0

> <s_lp_Force_Field>
OPLS_2005

> <r_lp_Energy>
57.3202

> <b_lp_Chiralities_Consistent>
1

> <s_lp_Variant>
AV-unprocessed.smi:2693-8

> <Gold.Version>
5.8.1

> <Gold.Id.Protein>
6NUR|6NUR_protein|mol2

> <Gold.PLP.Fitness>
39.1075

> <Gold.PLP.PLP>
-33.1491

> <Gold.PLP.part.hbond>
-2.0000

> <Gold.PLP.part.metal>
0.0000

> <Gold.PLP.part.buried>
-3.2082

> <Gold.PLP.part.nonpolar>
-27.6495

> <Gold.PLP.part.repulsive>
0.5036

> <Gold.PLP.ligand.clash>
0.0000

> <Gold.PLP.ligand.torsion>
0.1518

> <Gold.PLP.Chemscore.Hbond>
1.0000

> <Gold.PLP.Chemscore.CHOScore>
1.0000

> <Gold.PLP.Chemscore.Metal>
0.0000

> <Gold.Chemscore.Hbonds>
donor molecule, donor type, donor heavy atom, donor atom, acceptor molecule, acceptor atom, score
      P1  H  7989  7998       L1    16  0.73
      L1  C     6    29       P1 10171  1.00

> <Gold.PLP.Chemscore.Internal.Correction>
0.2620

> <Gold.Rescore>
     Score         DG    S(hbond)    S(metal)    S(lipo)     H(rot)  DE(clash)    DE(int)     intcor
     12.00     -13.83       0.63        0.00      75.17       1.00       0.24       1.59       ----

> <Gold.Chemscore.Fitness>
11.9996

> <Gold.Chemscore.DG>
-13.8281

> <Gold.Chemscore.ZeroCoef>
-5.4800

> <Gold.Chemscore.Hbond>
0.6328

> <Gold.Chemscore.Metal>
0.0000

> <Gold.Chemscore.Lipo>
75.1673

> <Gold.Chemscore.Internal_Hbond>
0.0000

> <Gold.Chemscore.DEClash>
0.2435

> <Gold.Chemscore.DEInternal>
1.5851

> <Gold.Chemscore.Rot>
1.0000

> <Gold.Chemscore.Internal.Correction>
   9.000000E+99

> <Gold.Chemscore.Hbonds>
donor molecule, donor type, donor heavy atom, donor atom, acceptor molecule, acceptor atom, score
      P1  H  7989  7998       L1    16  0.10

> <Gold.Chemscore.Hbond.Weighted>
-2.1136

> <Gold.Chemscore.Metal.Weighted>
-0.0000

> <Gold.Chemscore.Lipo.Weighted>
-8.7946

> <Gold.Chemscore.Internal_Hbond.Weighted>
0.0000

> <Gold.Chemscore.DEClash.Weighted>
0.2435

> <Gold.Chemscore.DEInternal.Weighted>
1.5851

> <Gold.Chemscore.Rot.Weighted>
2.5600

> <Gold.Chemscore.Internal.Correction.Weighted>
   9.000000E+99

> <Gold.Protein.RotatedTorsions>
[ 6907 6896 6895 6894 ] final  118.84 input  -60.11 | X-H torsion
[ 7974 7965 7964 7962 ] final   64.54 input  175.53 | X-H torsion
[ 8008 7997 7996 7995 ] final   10.24 input   59.86 | X-H torsion
[ 10167 10162 10161 10158 ] final  162.96 input  -65.29 | X-H torsion
[ 10718 10713 10712 10709 ] final  150.64 input   66.30 | X-H torsion
[ 10763 10752 10751 10750 ] final -105.09 input  -60.55 | X-H torsion
[ 11005 11000 10999 10996 ] final  108.59 input  -57.11 | X-H torsion

> <Gold.Protein.ActiveResidues>
 VAL166  LYS551  ARG553  GLY616  TRP617  ASP618  TYR619  PRO620  LYS621  CYS622 
 ASP623  PHE694  ASN695  SER759  ASP760  ASP761  ALA762  ILE779  LEU786  VAL792 
 PHE793  MET794  SER795  GLU796  ALA797  LYS798  CYS799  TRP800  GLU811  SER814 

> <Gold.Protein.RotatedAtoms>
  152.4514  133.7637  159.6760 H   0  0  0  0  0  0  0  0  0  0  0  0  # atno 6907 bound_to 6896
  150.8427  133.7899  159.3061 H   0  0  0  0  0  0  0  0  0  0  0  0  # atno 6908 bound_to 6896
  151.5519  135.1070  160.0003 H   0  0  0  0  0  0  0  0  0  0  0  0  # atno 6909 bound_to 6896
  145.8490  139.3242  143.0886 H   0  0  0  0  0  0  0  0  0  0  0  0  # atno 7974 bound_to 7965
  154.7907  140.2835  155.5994 H   0  0  0  0  0  0  0  0  0  0  0  0  # atno 8008 bound_to 7997
  156.2964  140.2605  156.2683 H   0  0  0  0  0  0  0  0  0  0  0  0  # atno 8009 bound_to 7997
  154.9673  140.0376  157.2208 H   0  0  0  0  0  0  0  0  0  0  0  0  # atno 8010 bound_to 7997
  139.4867  144.4385  151.8982 H   0  0  0  0  0  0  0  0  0  0  0  0  # atno 10167 bound_to 10162
  157.2809  131.0835  151.1532 H   0  0  0  0  0  0  0  0  0  0  0  0  # atno 10718 bound_to 10713
  154.7923  135.4762  154.0080 H   0  0  0  0  0  0  0  0  0  0  0  0  # atno 10763 bound_to 10752
  153.1649  135.6815  153.8696 H   0  0  0  0  0  0  0  0  0  0  0  0  # atno 10764 bound_to 10752
  153.8297  135.3193  155.3395 H   0  0  0  0  0  0  0  0  0  0  0  0  # atno 10765 bound_to 10752
  139.8847  134.9434  156.5995 H   0  0  0  0  0  0  0  0  0  0  0  0  # atno 11005 bound_to 11000
  145.9379  140.9001  143.0323 LP  0  0  0  0  0  0  0  0  0  0  0  0  # atno 17320 bound_to 7965
  144.6730  140.1508  143.7430 LP  0  0  0  0  0  0  0  0  0  0  0  0  # atno 17321 bound_to 7965
  140.3836  144.2705  150.5906 LP  0  0  0  0  0  0  0  0  0  0  0  0  # atno 17342 bound_to 10162
  140.5211  143.2265  151.8387 LP  0  0  0  0  0  0  0  0  0  0  0  0  # atno 17343 bound_to 10162
  157.2966  130.6822  149.6142 LP  0  0  0  0  0  0  0  0  0  0  0  0  # atno 17370 bound_to 10713
  155.9664  130.4404  150.5300 LP  0  0  0  0  0  0  0  0  0  0  0  0  # atno 17371 bound_to 10713
  140.7894  133.8594  155.8633 LP  0  0  0  0  0  0  0  0  0  0  0  0  # atno 17394 bound_to 11000
  140.9690  134.1556  157.4592 LP  0  0  0  0  0  0  0  0  0  0  0  0  # atno 17395 bound_to 11000

$$$$
