AV-unprocessed.smi:1645|AV-procd|sdf|6621|dock6
  -GOLD-   22720 7323D 1   1.00000     0.00000
 Structure written by MMmdl.
 55 58  0  0  0  0  0  0  0  0  4 V2000
  146.7032  140.0470  153.1966 O   0  0  0  0  0  0  0  0  0  0  0  0
  147.2934  138.9706  153.0500 C   0  0  0  0  0  0  0  0  0  0  0  0
  148.5080  138.7819  153.5955 N   0  0  0  0  0  0  0  0  0  0  0  0
  149.2572  139.6504  154.4340 C   0  0  0  0  0  0  0  0  0  0  0  0
  150.4283  139.1429  155.0316 C   0  0  0  0  0  0  0  0  0  0  0  0
  151.1900  139.9625  155.8894 C   0  0  0  0  0  0  0  0  0  0  0  0
  150.7673  141.2891  156.1585 C   0  0  0  0  0  0  0  0  0  0  0  0
  151.4663  142.1847  156.9993 N   0  0  0  0  0  0  0  0  0  0  0  0
  151.6681  141.7946  158.3961 C   0  0  0  0  0  0  0  0  0  0  0  0
  152.7657  142.6400  159.0654 C   0  0  0  0  0  0  0  0  0  0  0  0
  152.4906  144.1403  158.8992 C   0  0  0  0  0  0  0  0  0  0  0  0
  152.3287  144.4774  157.4105 C   0  0  0  0  0  0  0  0  0  0  0  0
  151.2341  143.6131  156.7618 C   0  0  0  0  0  0  0  0  0  0  0  0
  149.6261  141.7245  155.5714 N   0  3  0  0  0  0  0  0  0  0  0  0
  148.8684  140.9747  154.7425 C   0  0  0  0  0  0  0  0  0  0  0  0
  146.8729  137.8839  152.3485 N   0  5  0  0  0  0  0  0  0  0  0  0
  145.9639  136.8578  152.8646 C   0  0  1  0  0  0  0  0  0  0  0  0
  144.5952  137.4425  153.2211 C   0  0  0  0  0  0  0  0  0  0  0  0
  143.6621  136.2379  153.1034 C   0  0  0  0  0  0  0  0  0  0  0  0
  144.1959  135.4504  151.9720 N   0  3  2  0  0  0  0  0  0  0  0  0
  143.8761  134.0013  152.0150 C   0  0  0  0  0  0  0  0  0  0  0  0
  144.5544  133.2675  150.8453 C   0  0  0  0  0  0  0  0  0  0  0  0
  146.0839  133.4703  150.8214 C   0  0  0  0  0  0  0  0  0  0  0  0
  146.5574  134.5439  151.8183 C   0  0  0  0  0  0  0  0  0  0  0  0
  145.6370  135.7919  151.7930 C   0  0  2  0  0  0  0  0  0  0  0  0
  148.9674  137.9205  153.3386 H   0  0  0  0  0  0  0  0  0  0  0  0
  150.7471  138.1299  154.8321 H   0  0  0  0  0  0  0  0  0  0  0  0
  152.0816  139.5483  156.3350 H   0  0  0  0  0  0  0  0  0  0  0  0
  150.7269  141.9049  158.9365 H   0  0  0  0  0  0  0  0  0  0  0  0
  151.9595  140.7457  158.4573 H   0  0  0  0  0  0  0  0  0  0  0  0
  152.8373  142.3878  160.1236 H   0  0  0  0  0  0  0  0  0  0  0  0
  153.7330  142.3968  158.6236 H   0  0  0  0  0  0  0  0  0  0  0  0
  151.5847  144.4130  159.4420 H   0  0  0  0  0  0  0  0  0  0  0  0
  153.3040  144.7233  159.3324 H   0  0  0  0  0  0  0  0  0  0  0  0
  152.0881  145.5339  157.2902 H   0  0  0  0  0  0  0  0  0  0  0  0
  153.2760  144.3150  156.8942 H   0  0  0  0  0  0  0  0  0  0  0  0
  151.1987  143.8453  155.6975 H   0  0  0  0  0  0  0  0  0  0  0  0
  150.2594  143.8787  157.1733 H   0  0  0  0  0  0  0  0  0  0  0  0
  147.9783  141.4614  154.3730 H   0  0  0  0  0  0  0  0  0  0  0  0
  146.3541  136.3508  153.7488 H   0  0  0  0  0  0  0  0  0  0  0  0
  144.5747  137.8958  154.2126 H   0  0  0  0  0  0  0  0  0  0  0  0
  144.2993  138.2042  152.4974 H   0  0  0  0  0  0  0  0  0  0  0  0
  143.6787  135.6470  154.0232 H   0  0  0  0  0  0  0  0  0  0  0  0
  142.6277  136.5325  152.9235 H   0  0  0  0  0  0  0  0  0  0  0  0
  144.2024  133.5740  152.9644 H   0  0  0  0  0  0  0  0  0  0  0  0
  142.7947  133.8714  151.9659 H   0  0  0  0  0  0  0  0  0  0  0  0
  144.3203  132.2032  150.8854 H   0  0  0  0  0  0  0  0  0  0  0  0
  144.1315  133.6329  149.9085 H   0  0  0  0  0  0  0  0  0  0  0  0
  146.5901  132.5297  151.0405 H   0  0  0  0  0  0  0  0  0  0  0  0
  146.3904  133.7480  149.8124 H   0  0  0  0  0  0  0  0  0  0  0  0
  146.5772  134.0994  152.8159 H   0  0  0  0  0  0  0  0  0  0  0  0
  147.5895  134.8171  151.5909 H   0  0  0  0  0  0  0  0  0  0  0  0
  145.7009  136.2418  150.8004 H   0  0  0  0  0  0  0  0  0  0  0  0
  143.7450  135.8165  151.1459 H   0  0  0  0  0  0  0  0  0  0  0  0
  149.3183  142.6771  155.7664 H   0  0  0  0  0  0  0  0  0  0  0  0
  1  2  2  0  0  0  0
  2  3  1  0  0  0  0
  2 16  1  0  0  0  0
  3  4  1  0  0  0  0
  3 26  1  0  0  0  0
  4 15  1  0  0  0  0
  4  5  2  0  0  0  0
  5  6  1  0  0  0  0
  5 27  1  0  0  0  0
  6  7  2  0  0  0  0
  6 28  1  0  0  0  0
  7  8  1  0  0  0  0
  7 14  1  0  0  0  0
  8 13  1  0  0  0  0
  8  9  1  0  0  0  0
  9 10  1  0  0  0  0
  9 29  1  0  0  0  0
  9 30  1  0  0  0  0
 10 11  1  0  0  0  0
 10 31  1  0  0  0  0
 10 32  1  0  0  0  0
 11 12  1  0  0  0  0
 11 33  1  0  0  0  0
 11 34  1  0  0  0  0
 12 13  1  0  0  0  0
 12 35  1  0  0  0  0
 12 36  1  0  0  0  0
 13 37  1  0  0  0  0
 13 38  1  0  0  0  0
 14 15  2  0  0  0  0
 14 55  1  0  0  0  0
 15 39  1  0  0  0  0
 16 17  1  0  0  0  0
 17 25  1  0  0  0  0
 17 18  1  0  0  0  0
 17 40  1  0  0  0  0
 18 19  1  0  0  0  0
 18 41  1  0  0  0  0
 18 42  1  0  0  0  0
 19 20  1  0  0  0  0
 19 43  1  0  0  0  0
 19 44  1  0  0  0  0
 20 25  1  0  0  0  0
 20 21  1  0  0  0  0
 20 54  1  0  0  0  0
 21 22  1  0  0  0  0
 21 45  1  0  0  0  0
 21 46  1  0  0  0  0
 22 23  1  0  0  0  0
 22 47  1  0  0  0  0
 22 48  1  0  0  0  0
 23 24  1  0  0  0  0
 23 49  1  0  0  0  0
 23 50  1  0  0  0  0
 24 25  1  0  0  0  0
 24 51  1  0  0  0  0
 24 52  1  0  0  0  0
 25 53  1  0  0  0  0
M  CHG  1  14   1
M  CHG  1  16  -1
M  CHG  1  20   1
M  END
> <s_m_source_file>
AV-unprocessed.smi

> <i_m_source_file_index>
1645

> <i_lp_mmshare_version>
43012

> <i_f3d_flags>
0

> <s_epik_input>
W0NIMl0xW0NIMl1bQ0gyXVtDSDJdW0NASF0oTjEyKVtDQEBIXShbQ0gyXVtDSDJdMilbTkhdQyg9TylbTkhdYzNbY0hdW2NIXWMobltjSF0zKU40W0NIMl1bQ0gyXVtDSDJdW0NIMl1bQ0gyXTQ=

> <s_epik_cmdline>
J2VwaWtfcHl0aG9uJywgJy1waCcsICc3LjAnLCAnLXRuJywgJzgnLCAnLW1hJywgJzIwMCcsICctbWV0YWxfYmluZGluZycsICctaW1hZScsICc8aW5maWxlLm1hZT4nLCAnLW9tYWUnLCAnPG91dGZpbGUubWFlPic=

> <r_lp_tautomer_probability>
0.999994

> <r_epik_Ionization_Penalty>
8.55589

> <r_epik_Ionization_Penalty_Charging>
8.55589

> <r_epik_Ionization_Penalty_Neutral>
3.8092e-06

> <r_epik_State_Penalty>
8.15703

> <r_epik_Charging_Adjusted_Penalty>
16.7129

> <i_epik_Tot_Q>
1

> <i_epik_Tot_abs_Q>
3

> <r_epik_Metal_State_Penalty>
4.13781

> <b_epik_Metal_Only>
1

> <s_lp_Force_Field>
OPLS_2005

> <r_lp_Energy>
56.4964

> <b_lp_Chiralities_Consistent>
1

> <s_lp_Variant>
AV-unprocessed.smi:1645-22

> <Gold.Version>
5.8.1

> <Gold.Id.Protein>
6NUR|6NUR_protein|mol2

> <Gold.PLP.Fitness>
49.4002

> <Gold.PLP.PLP>
-42.7161

> <Gold.PLP.part.hbond>
-2.9348

> <Gold.PLP.part.metal>
0.0000

> <Gold.PLP.part.buried>
1.0044

> <Gold.PLP.part.nonpolar>
-44.5751

> <Gold.PLP.part.repulsive>
4.1726

> <Gold.PLP.ligand.clash>
0.0000

> <Gold.PLP.ligand.torsion>
1.0944

> <Gold.PLP.Chemscore.Hbond>
2.7788

> <Gold.PLP.Chemscore.CHOScore>
0.0000

> <Gold.PLP.Chemscore.Metal>
0.0000

> <Gold.Chemscore.Hbonds>
donor molecule, donor type, donor heavy atom, donor atom, acceptor molecule, acceptor atom, score
      L1  H     3    26       P1  7948  0.46
      L1  H    14    55       P1  8028  1.69

> <Gold.PLP.Chemscore.Internal.Correction>
0.5366

> <Gold.Rescore>
     Score         DG    S(hbond)    S(metal)    S(lipo)     H(rot)  DE(clash)    DE(int)     intcor
     16.52     -22.41       1.52        0.00     126.91       1.17       3.44       2.45       ----

> <Gold.Chemscore.Fitness>
16.5201

> <Gold.Chemscore.DG>
-22.4105

> <Gold.Chemscore.ZeroCoef>
-5.4800

> <Gold.Chemscore.Hbond>
1.5225

> <Gold.Chemscore.Metal>
0.0000

> <Gold.Chemscore.Lipo>
126.9105

> <Gold.Chemscore.Internal_Hbond>
0.0000

> <Gold.Chemscore.DEClash>
3.4365

> <Gold.Chemscore.DEInternal>
2.4539

> <Gold.Chemscore.Rot>
1.1731

> <Gold.Chemscore.Internal.Correction>
   9.000000E+99

> <Gold.Chemscore.Hbonds>
donor molecule, donor type, donor heavy atom, donor atom, acceptor molecule, acceptor atom, score
      L1  H     3    26       P1  7948  0.45
      L1  H    14    55       P1  8028  0.84

> <Gold.Chemscore.Hbond.Weighted>
-5.0852

> <Gold.Chemscore.Metal.Weighted>
-0.0000

> <Gold.Chemscore.Lipo.Weighted>
-14.8485

> <Gold.Chemscore.Internal_Hbond.Weighted>
0.0000

> <Gold.Chemscore.DEClash.Weighted>
3.4365

> <Gold.Chemscore.DEInternal.Weighted>
2.4539

> <Gold.Chemscore.Rot.Weighted>
3.0032

> <Gold.Chemscore.Internal.Correction.Weighted>
   9.000000E+99

> <Gold.Protein.RotatedTorsions>
[ 6907 6896 6895 6894 ] final   72.91 input  -60.11 | X-H torsion
[ 7974 7965 7964 7962 ] final  -40.03 input  175.53 | X-H torsion
[ 8008 7997 7996 7995 ] final   68.13 input   59.86 | X-H torsion
[ 10167 10162 10161 10158 ] final  -24.45 input  -65.29 | X-H torsion
[ 10718 10713 10712 10709 ] final   25.52 input   66.30 | X-H torsion
[ 10763 10752 10751 10750 ] final  -13.41 input  -60.55 | X-H torsion
[ 11005 11000 10999 10996 ] final  117.78 input  -57.11 | X-H torsion

> <Gold.Protein.ActiveResidues>
 VAL166  LYS551  ARG553  GLY616  TRP617  ASP618  TYR619  PRO620  LYS621  CYS622 
 ASP623  PHE694  ASN695  SER759  ASP760  ASP761  ALA762  ILE779  LEU786  VAL792 
 PHE793  MET794  SER795  GLU796  ALA797  LYS798  CYS799  TRP800  GLU811  SER814 

> <Gold.Protein.RotatedAtoms>
  152.4894  134.4500  159.9571 H   0  0  0  0  0  0  0  0  0  0  0  0  # atno 6907 bound_to 6896
  151.4490  133.3616  159.2800 H   0  0  0  0  0  0  0  0  0  0  0  0  # atno 6908 bound_to 6896
  150.9034  134.8472  159.7436 H   0  0  0  0  0  0  0  0  0  0  0  0  # atno 6909 bound_to 6896
  146.0342  140.6692  142.9118 H   0  0  0  0  0  0  0  0  0  0  0  0  # atno 7974 bound_to 7965
  155.7036  140.3495  155.4943 H   0  0  0  0  0  0  0  0  0  0  0  0  # atno 8008 bound_to 7997
  155.9418  140.1103  157.1071 H   0  0  0  0  0  0  0  0  0  0  0  0  # atno 8009 bound_to 7997
  154.4104  140.1211  156.4924 H   0  0  0  0  0  0  0  0  0  0  0  0  # atno 8010 bound_to 7997
  140.7288  143.4352  151.0741 H   0  0  0  0  0  0  0  0  0  0  0  0  # atno 10167 bound_to 10162
  157.1945  130.6861  149.6163 H   0  0  0  0  0  0  0  0  0  0  0  0  # atno 10718 bound_to 10713
  153.5129  135.7016  153.5771 H   0  0  0  0  0  0  0  0  0  0  0  0  # atno 10763 bound_to 10752
  153.3854  135.3909  155.1886 H   0  0  0  0  0  0  0  0  0  0  0  0  # atno 10764 bound_to 10752
  154.8701  135.3845  154.4611 H   0  0  0  0  0  0  0  0  0  0  0  0  # atno 10765 bound_to 10752
  139.9086  134.9614  156.7404 H   0  0  0  0  0  0  0  0  0  0  0  0  # atno 11005 bound_to 11000
  144.7044  140.3791  143.7130 LP  0  0  0  0  0  0  0  0  0  0  0  0  # atno 17320 bound_to 7965
  145.6991  139.1657  143.2603 LP  0  0  0  0  0  0  0  0  0  0  0  0  # atno 17321 bound_to 7965
  139.8013  143.8080  152.3163 LP  0  0  0  0  0  0  0  0  0  0  0  0  # atno 17342 bound_to 10162
  139.8097  144.7341  150.9713 LP  0  0  0  0  0  0  0  0  0  0  0  0  # atno 17343 bound_to 10162
  155.9707  130.4603  150.6069 LP  0  0  0  0  0  0  0  0  0  0  0  0  # atno 17370 bound_to 10713
  157.3828  131.0783  151.1462 LP  0  0  0  0  0  0  0  0  0  0  0  0  # atno 17371 bound_to 10713
  140.6854  133.9437  155.7935 LP  0  0  0  0  0  0  0  0  0  0  0  0  # atno 17394 bound_to 11000
  141.0480  134.0526  157.3820 LP  0  0  0  0  0  0  0  0  0  0  0  0  # atno 17395 bound_to 11000

$$$$
