AV-unprocessed.smi:670|AV-procd|sdf|3269|dock1
  -GOLD-   22720 0223D 1   1.00000     0.00000
 Structure written by MMmdl.
 45 46  0  0  0  0  0  0  0  0  1 V2000
  153.3297  142.1664  161.6319 C   0  0  0  0  0  0  0  0  0  0  0  0
  152.8957  143.0684  160.4650 C   0  0  2  0  0  0  0  0  0  0  0  0
  152.0874  144.2753  160.9824 C   0  0  0  0  0  0  0  0  0  0  0  0
  151.6401  145.1947  159.8362 C   0  0  0  0  0  0  0  0  0  0  0  0
  150.8336  144.4146  158.7893 C   0  0  0  0  0  0  0  0  0  0  0  0
  151.6333  143.2157  158.2585 C   0  0  0  0  0  0  0  0  0  0  0  0
  152.0907  142.2851  159.4027 C   0  0  1  0  0  0  0  0  0  0  0  0
  152.9388  141.2680  158.8853 O   0  0  0  0  0  0  0  0  0  0  0  0
  152.8735  140.0268  159.5725 C   0  0  0  0  0  0  0  0  0  0  0  0
  152.5855  138.9058  158.5642 C   0  0  0  0  0  0  0  0  0  0  0  0
  151.1516  138.6980  158.3923 N   0  0  0  0  0  0  0  0  0  0  0  0
  150.4535  137.6683  158.8949 C   0  0  0  0  0  0  0  0  0  0  0  0
  150.9619  136.7744  159.5732 O   0  0  0  0  0  0  0  0  0  0  0  0
  148.9565  137.6403  158.5537 C   0  0  0  0  0  0  0  0  0  0  0  0
  148.5583  138.6844  157.5984 N   0  0  0  0  0  0  0  0  0  0  0  0
  149.2697  138.6656  156.4081 N   0  0  0  0  0  0  0  0  0  0  0  0
  148.9998  139.5224  155.4820 C   0  0  0  0  0  0  0  0  0  0  0  0
  149.7254  139.4668  154.3171 O   0  0  0  0  0  0  0  0  0  0  0  0
  147.9639  140.5163  155.6604 C   0  0  0  0  0  0  0  0  0  0  0  0
  147.2811  140.5309  156.8261 C   0  0  0  0  0  0  0  0  0  0  0  0
  147.5612  139.5730  157.8973 C   0  0  0  0  0  0  0  0  0  0  0  0
  146.9563  139.5649  158.9694 O   0  0  0  0  0  0  0  0  0  0  0  0
  149.0864  139.4839  153.6215 H   0  0  0  0  0  0  0  0  0  0  0  0
  152.4677  141.7328  162.1396 H   0  0  0  0  0  0  0  0  0  0  0  0
  153.9032  142.7281  162.3697 H   0  0  0  0  0  0  0  0  0  0  0  0
  153.9600  141.3462  161.2871 H   0  0  0  0  0  0  0  0  0  0  0  0
  153.8003  143.4513  159.9894 H   0  0  0  0  0  0  0  0  0  0  0  0
  151.2106  143.9247  161.5286 H   0  0  0  0  0  0  0  0  0  0  0  0
  152.6847  144.8470  161.6935 H   0  0  0  0  0  0  0  0  0  0  0  0
  151.0420  146.0168  160.2302 H   0  0  0  0  0  0  0  0  0  0  0  0
  152.5143  145.6456  159.3650 H   0  0  0  0  0  0  0  0  0  0  0  0
  149.8997  144.0651  159.2312 H   0  0  0  0  0  0  0  0  0  0  0  0
  150.5592  145.0731  157.9649 H   0  0  0  0  0  0  0  0  0  0  0  0
  151.0215  142.6718  157.5395 H   0  0  0  0  0  0  0  0  0  0  0  0
  152.5054  143.5752  157.7107 H   0  0  0  0  0  0  0  0  0  0  0  0
  151.2194  141.8386  159.8859 H   0  0  0  0  0  0  0  0  0  0  0  0
  153.8275  139.8350  160.0655 H   0  0  0  0  0  0  0  0  0  0  0  0
  152.1047  140.0395  160.3452 H   0  0  0  0  0  0  0  0  0  0  0  0
  153.0719  139.1127  157.6092 H   0  0  0  0  0  0  0  0  0  0  0  0
  153.0121  137.9719  158.9301 H   0  0  0  0  0  0  0  0  0  0  0  0
  150.6547  139.3836  157.8425 H   0  0  0  0  0  0  0  0  0  0  0  0
  148.6868  136.6566  158.1645 H   0  0  0  0  0  0  0  0  0  0  0  0
  148.3978  137.7490  159.4851 H   0  0  0  0  0  0  0  0  0  0  0  0
  147.7489  141.2267  154.8757 H   0  0  0  0  0  0  0  0  0  0  0  0
  146.5056  141.2680  156.9735 H   0  0  0  0  0  0  0  0  0  0  0  0
  1  2  1  0  0  0  0
  1 24  1  0  0  0  0
  1 25  1  0  0  0  0
  1 26  1  0  0  0  0
  2  7  1  0  0  0  0
  2  3  1  0  0  0  0
  2 27  1  0  0  0  0
  3  4  1  0  0  0  0
  3 28  1  0  0  0  0
  3 29  1  0  0  0  0
  4  5  1  0  0  0  0
  4 30  1  0  0  0  0
  4 31  1  0  0  0  0
  5  6  1  0  0  0  0
  5 32  1  0  0  0  0
  5 33  1  0  0  0  0
  6  7  1  0  0  0  0
  6 34  1  0  0  0  0
  6 35  1  0  0  0  0
  7  8  1  0  0  0  0
  7 36  1  0  0  0  0
  8  9  1  0  0  0  0
  9 10  1  0  0  0  0
  9 37  1  0  0  0  0
  9 38  1  0  0  0  0
 10 11  1  0  0  0  0
 10 39  1  0  0  0  0
 10 40  1  0  0  0  0
 11 12  1  0  0  0  0
 11 41  1  0  0  0  0
 12 13  2  0  0  0  0
 12 14  1  0  0  0  0
 14 42  1  0  0  0  0
 14 43  1  0  0  0  0
 14 15  1  0  0  0  0
 15 16  1  0  0  0  0
 15 21  1  0  0  0  0
 16 17  2  0  0  0  0
 17 18  1  0  0  0  0
 17 19  1  0  0  0  0
 18 23  1  0  0  0  0
 19 44  1  0  0  0  0
 19 20  2  0  0  0  0
 20 45  1  0  0  0  0
 20 21  1  0  0  0  0
 21 22  2  0  0  0  0
M  END
> <s_m_source_file>
AV-unprocessed.smi

> <i_m_source_file_index>
670

> <i_lp_mmshare_version>
43012

> <i_f3d_flags>
0

> <s_epik_input>
W0NIM11bQ0BASF0xW0NIMl1bQ0gyXVtDSDJdW0NIMl1bQ0BIXTFPW0NIMl1bQ0gyXVtOSF1DKD1PKVtDSDJdbjJbbkhdYyg9TylbY0hdW2NIXWMyPU8=

> <s_epik_cmdline>
J2VwaWtfcHl0aG9uJywgJy1waCcsICc3LjAnLCAnLXRuJywgJzgnLCAnLW1hJywgJzIwMCcsICctbWV0YWxfYmluZGluZycsICctaW1hZScsICc8aW5maWxlLm1hZT4nLCAnLW9tYWUnLCAnPG91dGZpbGUubWFlPic=

> <r_lp_tautomer_probability>
0.9996

> <r_epik_Ionization_Penalty>
2.12726

> <r_epik_Ionization_Penalty_Charging>
3.83395e-08

> <r_epik_Ionization_Penalty_Neutral>
2.12726

> <r_epik_State_Penalty>
1.70432

> <r_epik_Charging_Adjusted_Penalty>
1.70432

> <i_epik_Tot_Q>
0

> <i_epik_Tot_abs_Q>
0

> <r_epik_Metal_State_Penalty>
1.70432

> <b_epik_Metal_Only>
0

> <s_lp_Force_Field>
OPLS_2005

> <r_lp_Energy>
21.1157

> <b_lp_Chiralities_Consistent>
1

> <s_lp_Variant>
AV-unprocessed.smi:670-5

> <Gold.Version>
5.8.1

> <Gold.Id.Protein>
6NUR|6NUR_protein|mol2

> <Gold.PLP.Fitness>
48.2812

> <Gold.PLP.PLP>
-41.3345

> <Gold.PLP.part.hbond>
-4.0000

> <Gold.PLP.part.metal>
0.0000

> <Gold.PLP.part.buried>
-5.0937

> <Gold.PLP.part.nonpolar>
-32.0930

> <Gold.PLP.part.repulsive>
0.0652

> <Gold.PLP.ligand.clash>
0.0000

> <Gold.PLP.ligand.torsion>
1.0951

> <Gold.PLP.Chemscore.Hbond>
2.9920

> <Gold.PLP.Chemscore.CHOScore>
0.0000

> <Gold.PLP.Chemscore.Metal>
0.0000

> <Gold.Chemscore.Hbonds>
donor molecule, donor type, donor heavy atom, donor atom, acceptor molecule, acceptor atom, score
      P1  H  6896  6907       L1    13  1.00

> <Gold.PLP.Chemscore.Internal.Correction>
0.1608

> <Gold.Rescore>
     Score         DG    S(hbond)    S(metal)    S(lipo)     H(rot)  DE(clash)    DE(int)     intcor
     15.09     -17.79       2.56        0.00      99.76       3.09       0.08       2.62       ----

> <Gold.Chemscore.Fitness>
15.0884

> <Gold.Chemscore.DG>
-17.7883

> <Gold.Chemscore.ZeroCoef>
-5.4800

> <Gold.Chemscore.Hbond>
2.5589

> <Gold.Chemscore.Metal>
0.0000

> <Gold.Chemscore.Lipo>
99.7631

> <Gold.Chemscore.Internal_Hbond>
0.0000

> <Gold.Chemscore.DEClash>
0.0766

> <Gold.Chemscore.DEInternal>
2.6233

> <Gold.Chemscore.Rot>
3.0901

> <Gold.Chemscore.Internal.Correction>
   9.000000E+99

> <Gold.Chemscore.Hbonds>
donor molecule, donor type, donor heavy atom, donor atom, acceptor molecule, acceptor atom, score
      P1  H  6896  6907       L1    13  1.00
      P1  H  7989  7998       L1    18  0.01

> <Gold.Chemscore.Hbond.Weighted>
-8.5467

> <Gold.Chemscore.Metal.Weighted>
-0.0000

> <Gold.Chemscore.Lipo.Weighted>
-11.6723

> <Gold.Chemscore.Internal_Hbond.Weighted>
0.0000

> <Gold.Chemscore.DEClash.Weighted>
0.0766

> <Gold.Chemscore.DEInternal.Weighted>
2.6233

> <Gold.Chemscore.Rot.Weighted>
7.9106

> <Gold.Chemscore.Internal.Correction.Weighted>
   9.000000E+99

> <Gold.Protein.RotatedTorsions>
[ 6907 6896 6895 6894 ] final  -22.55 input  -60.11 | X-H torsion
[ 7974 7965 7964 7962 ] final  155.37 input  175.53 | X-H torsion
[ 8008 7997 7996 7995 ] final  100.45 input   59.86 | X-H torsion
[ 10167 10162 10161 10158 ] final   64.60 input  -65.29 | X-H torsion
[ 10718 10713 10712 10709 ] final -162.90 input   66.30 | X-H torsion
[ 10763 10752 10751 10750 ] final   46.68 input  -60.55 | X-H torsion
[ 11005 11000 10999 10996 ] final  -73.48 input  -57.11 | X-H torsion

> <Gold.Protein.ActiveResidues>
 VAL166  LYS551  ARG553  GLY616  TRP617  ASP618  TYR619  PRO620  LYS621  CYS622 
 ASP623  PHE694  ASN695  SER759  ASP760  ASP761  ALA762  ILE779  LEU786  VAL792 
 PHE793  MET794  SER795  GLU796  ALA797  LYS798  CYS799  TRP800  GLU811  SER814 

> <Gold.Protein.RotatedAtoms>
  151.2169  135.0503  159.8933 H   0  0  0  0  0  0  0  0  0  0  0  0  # atno 6907 bound_to 6896
  152.5419  134.0683  159.8193 H   0  0  0  0  0  0  0  0  0  0  0  0  # atno 6908 bound_to 6896
  151.0844  133.5316  159.2650 H   0  0  0  0  0  0  0  0  0  0  0  0  # atno 6909 bound_to 6896
  144.8029  139.7059  143.6174 H   0  0  0  0  0  0  0  0  0  0  0  0  # atno 7974 bound_to 7965
  156.1204  140.3213  155.8201 H   0  0  0  0  0  0  0  0  0  0  0  0  # atno 8008 bound_to 7997
  155.4514  140.0532  157.3018 H   0  0  0  0  0  0  0  0  0  0  0  0  # atno 8009 bound_to 7997
  154.4823  140.2058  155.9748 H   0  0  0  0  0  0  0  0  0  0  0  0  # atno 8010 bound_to 7997
  140.1204  144.4736  150.6924 H   0  0  0  0  0  0  0  0  0  0  0  0  # atno 10167 bound_to 10162
  156.6170  130.8874  151.2949 H   0  0  0  0  0  0  0  0  0  0  0  0  # atno 10718 bound_to 10713
  152.9808  135.6000  154.3639 H   0  0  0  0  0  0  0  0  0  0  0  0  # atno 10763 bound_to 10752
  154.3319  135.2768  155.2469 H   0  0  0  0  0  0  0  0  0  0  0  0  # atno 10764 bound_to 10752
  154.4590  135.5971  153.6298 H   0  0  0  0  0  0  0  0  0  0  0  0  # atno 10765 bound_to 10752
  141.1623  133.6879  156.7218 H   0  0  0  0  0  0  0  0  0  0  0  0  # atno 11005 bound_to 11000
  146.2314  139.5822  142.9552 LP  0  0  0  0  0  0  0  0  0  0  0  0  # atno 17320 bound_to 7965
  145.5509  141.0413  143.2279 LP  0  0  0  0  0  0  0  0  0  0  0  0  # atno 17321 bound_to 7965
  140.6875  143.2358  151.5221 LP  0  0  0  0  0  0  0  0  0  0  0  0  # atno 17342 bound_to 10162
  139.5572  144.2247  152.1631 LP  0  0  0  0  0  0  0  0  0  0  0  0  # atno 17343 bound_to 10162
  157.7238  130.9595  150.1549 LP  0  0  0  0  0  0  0  0  0  0  0  0  # atno 17370 bound_to 10713
  156.2343  130.3685  149.8409 LP  0  0  0  0  0  0  0  0  0  0  0  0  # atno 17371 bound_to 10713
  140.2810  134.8316  157.3933 LP  0  0  0  0  0  0  0  0  0  0  0  0  # atno 17394 bound_to 11000
  140.1433  134.4944  155.8015 LP  0  0  0  0  0  0  0  0  0  0  0  0  # atno 17395 bound_to 11000

$$$$
