AV-unprocessed.smi:2871|AV-procd|sdf|11032|dock5
  -GOLD-   2272015493D 1   1.00000     0.00000
 Structure written by MMmdl.
 38 40  0  0  0  0  0  0  0  0  1 V2000
  151.8535  144.5863  158.7293 C   0  0  0  0  0  0  0  0  0  0  0  0
  152.2818  143.6974  159.8014 N   0  0  0  0  0  0  0  0  0  0  0  0
  152.1631  144.1175  161.1936 C   0  0  0  0  0  0  0  0  0  0  0  0
  152.7974  142.4181  159.4982 C   0  0  0  0  0  0  0  0  0  0  0  0
  153.9360  141.8903  160.1549 C   0  0  0  0  0  0  0  0  0  0  0  0
  154.3621  140.6009  159.7636 C   0  0  0  0  0  0  0  0  0  0  0  0
  155.5721  139.9244  160.3900 C   0  0  0  0  0  0  0  0  0  0  0  0
  155.7148  138.6714  159.9562 F   0  0  0  0  0  0  0  0  0  0  0  0
  156.6762  140.6060  160.0840 F   0  0  0  0  0  0  0  0  0  0  0  0
  155.4362  139.8983  161.7161 F   0  0  0  0  0  0  0  0  0  0  0  0
  153.7111  139.9015  158.8068 N   0  0  0  0  0  0  0  0  0  0  0  0
  152.6510  140.4828  158.2471 C   0  0  0  0  0  0  0  0  0  0  0  0
  152.0138  139.7435  157.2679 N   0  0  0  0  0  0  0  0  0  0  0  0
  151.6548  140.2533  155.9491 C   0  0  2  0  0  0  0  0  0  0  0  0
  150.5754  141.3372  155.9944 C   0  0  0  0  0  0  0  0  0  0  0  0
  149.5333  140.7842  155.0117 C   0  0  2  0  0  0  0  0  0  0  0  0
  148.7446  139.6190  155.6229 C   0  0  0  0  0  0  0  0  0  0  0  0
  149.7874  138.5030  155.6199 C   0  0  0  0  0  0  0  0  0  0  0  0
  151.0104  139.2116  155.0129 C   0  0  1  0  0  0  0  0  0  0  0  0
  150.3632  140.0827  154.1007 O   0  0  0  0  0  0  0  0  0  0  0  0
  152.1670  141.6925  158.5439 N   0  0  0  0  0  0  0  0  0  0  0  0
  152.6884  144.8146  158.0661 H   0  0  0  0  0  0  0  0  0  0  0  0
  151.4747  145.5294  159.1236 H   0  0  0  0  0  0  0  0  0  0  0  0
  151.0571  144.1272  158.1432 H   0  0  0  0  0  0  0  0  0  0  0  0
  153.1379  144.1109  161.6819 H   0  0  0  0  0  0  0  0  0  0  0  0
  151.4989  143.4462  161.7389 H   0  0  0  0  0  0  0  0  0  0  0  0
  151.7576  145.1261  161.2725 H   0  0  0  0  0  0  0  0  0  0  0  0
  154.4654  142.4371  160.9201 H   0  0  0  0  0  0  0  0  0  0  0  0
  151.8795  138.7596  157.4499 H   0  0  0  0  0  0  0  0  0  0  0  0
  152.5462  140.6650  155.4738 H   0  0  0  0  0  0  0  0  0  0  0  0
  150.1538  141.4983  156.9878 H   0  0  0  0  0  0  0  0  0  0  0  0
  150.9795  142.2865  155.6410 H   0  0  0  0  0  0  0  0  0  0  0  0
  148.9065  141.5497  154.5534 H   0  0  0  0  0  0  0  0  0  0  0  0
  148.3702  139.8476  156.6212 H   0  0  0  0  0  0  0  0  0  0  0  0
  147.8965  139.3505  154.9922 H   0  0  0  0  0  0  0  0  0  0  0  0
  149.9781  138.0948  156.6125 H   0  0  0  0  0  0  0  0  0  0  0  0
  149.4626  137.6837  154.9778 H   0  0  0  0  0  0  0  0  0  0  0  0
  151.7248  138.5333  154.5455 H   0  0  0  0  0  0  0  0  0  0  0  0
  1  2  1  0  0  0  0
  1 22  1  0  0  0  0
  1 23  1  0  0  0  0
  1 24  1  0  0  0  0
  2  3  1  0  0  0  0
  2  4  1  0  0  0  0
  3 25  1  0  0  0  0
  3 26  1  0  0  0  0
  3 27  1  0  0  0  0
  4 21  1  0  0  0  0
  4  5  2  0  0  0  0
  5  6  1  0  0  0  0
  5 28  1  0  0  0  0
  6  7  1  0  0  0  0
  6 11  2  0  0  0  0
  7  8  1  0  0  0  0
  7  9  1  0  0  0  0
  7 10  1  0  0  0  0
 11 12  1  0  0  0  0
 12 13  1  0  0  0  0
 12 21  2  0  0  0  0
 13 14  1  0  0  0  0
 13 29  1  0  0  0  0
 14 19  1  0  0  0  0
 14 15  1  0  0  0  0
 14 30  1  0  0  0  0
 15 16  1  0  0  0  0
 15 31  1  0  0  0  0
 15 32  1  0  0  0  0
 16 20  1  0  0  0  0
 16 17  1  0  0  0  0
 16 33  1  0  0  0  0
 17 18  1  0  0  0  0
 17 34  1  0  0  0  0
 17 35  1  0  0  0  0
 18 19  1  0  0  0  0
 18 36  1  0  0  0  0
 18 37  1  0  0  0  0
 19 20  1  0  0  0  0
 19 38  1  0  0  0  0
M  END
> <s_m_source_file>
AV-unprocessed.smi

> <i_m_source_file_index>
2871

> <i_lp_mmshare_version>
43012

> <i_f3d_flags>
0

> <s_epik_input>
W0NIM11OKFtDSDNdKWMxW2NIXWMoQyhGKShGKUYpbmMobjEpW05IXVtDQEhdKFtDSDJdW0NAQEhdMjMpW0NAQEhdKE8zKVtDSDJdW0NIMl0y

> <s_epik_cmdline>
J2VwaWtfcHl0aG9uJywgJy1waCcsICc3LjAnLCAnLXRuJywgJzgnLCAnLW1hJywgJzIwMCcsICctbWV0YWxfYmluZGluZycsICctaW1hZScsICc8aW5maWxlLm1hZT4nLCAnLW9tYWUnLCAnPG91dGZpbGUubWFlPic=

> <r_lp_tautomer_probability>
1

> <r_epik_Ionization_Penalty>
0.00695968

> <r_epik_Ionization_Penalty_Charging>
0

> <r_epik_Ionization_Penalty_Neutral>
0.00695968

> <r_epik_State_Penalty>
0.0050343

> <r_epik_Charging_Adjusted_Penalty>
0.0050343

> <i_epik_Tot_Q>
0

> <i_epik_Tot_abs_Q>
0

> <r_epik_Metal_State_Penalty>
-0

> <b_epik_Metal_Only>
0

> <s_lp_Force_Field>
OPLS_2005

> <r_lp_Energy>
33.2945

> <b_lp_Chiralities_Consistent>
1

> <s_lp_Variant>
AV-unprocessed.smi:2871-3

> <Gold.Version>
5.8.1

> <Gold.Id.Protein>
6NUR|6NUR_protein|mol2

> <Gold.PLP.Fitness>
47.2307

> <Gold.PLP.PLP>
-43.9529

> <Gold.PLP.part.hbond>
-1.8953

> <Gold.PLP.part.metal>
0.0000

> <Gold.PLP.part.buried>
-4.6574

> <Gold.PLP.part.nonpolar>
-38.2645

> <Gold.PLP.part.repulsive>
0.9303

> <Gold.PLP.ligand.clash>
0.0000

> <Gold.PLP.ligand.torsion>
1.2547

> <Gold.PLP.Chemscore.Hbond>
1.9183

> <Gold.PLP.Chemscore.CHOScore>
0.0000

> <Gold.PLP.Chemscore.Metal>
0.0000

> <Gold.Chemscore.Hbonds>
donor molecule, donor type, donor heavy atom, donor atom, acceptor molecule, acceptor atom, score
      P1  H  7989  7998       L1    20  1.00
      P1  H  7997  8008       L1    11  0.90

> <Gold.PLP.Chemscore.Internal.Correction>
0.0325

> <Gold.Rescore>
     Score         DG    S(hbond)    S(metal)    S(lipo)     H(rot)  DE(clash)    DE(int)     intcor
     14.43     -15.65       0.87        0.00      84.00       1.00       0.00       1.22       ----

> <Gold.Chemscore.Fitness>
14.4331

> <Gold.Chemscore.DG>
-15.6513

> <Gold.Chemscore.ZeroCoef>
-5.4800

> <Gold.Chemscore.Hbond>
0.8692

> <Gold.Chemscore.Metal>
0.0000

> <Gold.Chemscore.Lipo>
84.0020

> <Gold.Chemscore.Internal_Hbond>
0.0000

> <Gold.Chemscore.DEClash>
0.0024

> <Gold.Chemscore.DEInternal>
1.2157

> <Gold.Chemscore.Rot>
1.0000

> <Gold.Chemscore.Internal.Correction>
   9.000000E+99

> <Gold.Chemscore.Hbonds>
donor molecule, donor type, donor heavy atom, donor atom, acceptor molecule, acceptor atom, score
      P1  H  7989  7998       L1    20  0.27
      P1  H  7997  8008       L1    11  0.06

> <Gold.Chemscore.Hbond.Weighted>
-2.9030

> <Gold.Chemscore.Metal.Weighted>
-0.0000

> <Gold.Chemscore.Lipo.Weighted>
-9.8282

> <Gold.Chemscore.Internal_Hbond.Weighted>
0.0000

> <Gold.Chemscore.DEClash.Weighted>
0.0024

> <Gold.Chemscore.DEInternal.Weighted>
1.2157

> <Gold.Chemscore.Rot.Weighted>
2.5600

> <Gold.Chemscore.Internal.Correction.Weighted>
   9.000000E+99

> <Gold.Protein.RotatedTorsions>
[ 6907 6896 6895 6894 ] final  152.52 input  -60.11 | X-H torsion
[ 7974 7965 7964 7962 ] final -170.43 input  175.53 | X-H torsion
[ 8008 7997 7996 7995 ] final -110.82 input   59.86 | X-H torsion
[ 10167 10162 10161 10158 ] final  -53.93 input  -65.29 | X-H torsion
[ 10718 10713 10712 10709 ] final  -30.87 input   66.30 | X-H torsion
[ 10763 10752 10751 10750 ] final  -63.91 input  -60.55 | X-H torsion
[ 11005 11000 10999 10996 ] final -179.20 input  -57.11 | X-H torsion

> <Gold.Protein.ActiveResidues>
 VAL166  LYS551  ARG553  GLY616  TRP617  ASP618  TYR619  PRO620  LYS621  CYS622 
 ASP623  PHE694  ASN695  SER759  ASP760  ASP761  ALA762  ILE779  LEU786  VAL792 
 PHE793  MET794  SER795  GLU796  ALA797  LYS798  CYS799  TRP800  GLU811  SER814 

> <Gold.Protein.RotatedAtoms>
  152.0856  133.4174  159.4520 H   0  0  0  0  0  0  0  0  0  0  0  0  # atno 6907 bound_to 6896
  150.6862  134.2932  159.4684 H   0  0  0  0  0  0  0  0  0  0  0  0  # atno 6908 bound_to 6896
  152.0778  134.9491  160.0624 H   0  0  0  0  0  0  0  0  0  0  0  0  # atno 6909 bound_to 6896
  144.7170  140.2073  143.6331 H   0  0  0  0  0  0  0  0  0  0  0  0  # atno 7974 bound_to 7965
  154.9804  140.0396  157.2275 H   0  0  0  0  0  0  0  0  0  0  0  0  # atno 8008 bound_to 7997
  154.7719  140.2803  155.6108 H   0  0  0  0  0  0  0  0  0  0  0  0  # atno 8009 bound_to 7997
  156.2922  140.2608  156.2524 H   0  0  0  0  0  0  0  0  0  0  0  0  # atno 8010 bound_to 7997
  140.6458  143.2534  151.4863 H   0  0  0  0  0  0  0  0  0  0  0  0  # atno 10167 bound_to 10162
  156.3944  130.4379  149.7370 H   0  0  0  0  0  0  0  0  0  0  0  0  # atno 10718 bound_to 10713
  154.3221  135.6194  153.5513 H   0  0  0  0  0  0  0  0  0  0  0  0  # atno 10763 bound_to 10752
  152.9819  135.5726  154.5057 H   0  0  0  0  0  0  0  0  0  0  0  0  # atno 10764 bound_to 10752
  154.4728  135.2860  155.1607 H   0  0  0  0  0  0  0  0  0  0  0  0  # atno 10765 bound_to 10752
  140.4213  134.6603  157.4665 H   0  0  0  0  0  0  0  0  0  0  0  0  # atno 11005 bound_to 11000
  145.8623  139.2229  143.1709 LP  0  0  0  0  0  0  0  0  0  0  0  0  # atno 17320 bound_to 7965
  146.0162  140.8390  142.9946 LP  0  0  0  0  0  0  0  0  0  0  0  0  # atno 17321 bound_to 7965
  139.5669  144.2022  152.1778 LP  0  0  0  0  0  0  0  0  0  0  0  0  # atno 17342 bound_to 10162
  140.1306  144.5291  150.6805 LP  0  0  0  0  0  0  0  0  0  0  0  0  # atno 17343 bound_to 10162
  156.4411  130.7861  151.2882 LP  0  0  0  0  0  0  0  0  0  0  0  0  # atno 17370 bound_to 10713
  157.7501  131.0124  150.3385 LP  0  0  0  0  0  0  0  0  0  0  0  0  # atno 17371 bound_to 10713
  140.0198  134.6564  155.9256 LP  0  0  0  0  0  0  0  0  0  0  0  0  # atno 17394 bound_to 11000
  141.1783  133.6543  156.4916 LP  0  0  0  0  0  0  0  0  0  0  0  0  # atno 17395 bound_to 11000

$$$$
