AV-unprocessed.smi:2789|AV-procd|sdf|10763|dock2
  -GOLD-   2272015193D 1   1.00000     0.00000
 Structure written by MMmdl.
 35 36  0  0  0  0  0  0  0  0  1 V2000
  146.6370  132.8939  151.8443 C   0  0  0  0  0  0  0  0  0  0  0  0
  147.1064  133.7117  152.9051 O   0  0  0  0  0  0  0  0  0  0  0  0
  147.6118  132.9717  154.0102 C   0  0  1  0  0  0  0  0  0  0  0  0
  148.6458  131.9455  153.5511 C   0  0  0  0  0  0  0  0  0  0  0  0
  149.3915  131.5863  154.8341 C   0  0  0  0  0  0  0  0  0  0  0  0
  149.4467  132.8876  155.6440 C   0  0  0  0  0  0  0  0  0  0  0  0
  148.3516  133.8136  155.0704 C   0  0  1  0  0  0  0  0  0  0  0  0
  148.9356  135.0144  154.4747 N   0  0  0  0  0  0  0  0  0  0  0  0
  149.7107  135.8970  155.1195 C   0  0  0  0  0  0  0  0  0  0  0  0
  150.0387  135.7745  156.2998 O   0  0  0  0  0  0  0  0  0  0  0  0
  150.0648  136.9108  154.3110 N   0  0  0  0  0  0  0  0  0  0  0  0
  150.8397  137.9917  154.5931 C   0  0  0  0  0  0  0  0  0  0  0  0
  152.1201  138.0305  155.0739 C   0  0  0  0  0  0  0  0  0  0  0  0
  152.3772  139.4292  155.1520 C   0  0  0  0  0  0  0  0  0  0  0  0
  151.3504  140.1700  154.7540 N   0  0  0  0  0  0  0  0  0  0  0  0
  150.3936  139.2818  154.4058 N   0  0  0  0  0  0  0  0  0  0  0  0
  149.1123  139.7502  153.9146 C   0  0  0  0  0  0  0  0  0  0  0  0
  146.2609  133.5235  151.0382 H   0  0  0  0  0  0  0  0  0  0  0  0
  145.8237  132.2431  152.1668 H   0  0  0  0  0  0  0  0  0  0  0  0
  147.4389  132.2753  151.4399 H   0  0  0  0  0  0  0  0  0  0  0  0
  146.7979  132.4245  154.4906 H   0  0  0  0  0  0  0  0  0  0  0  0
  148.1935  131.0780  153.0698 H   0  0  0  0  0  0  0  0  0  0  0  0
  149.3359  132.4027  152.8404 H   0  0  0  0  0  0  0  0  0  0  0  0
  148.8239  130.8363  155.3863 H   0  0  0  0  0  0  0  0  0  0  0  0
  150.3811  131.1723  154.6391 H   0  0  0  0  0  0  0  0  0  0  0  0
  149.2837  132.6899  156.7040 H   0  0  0  0  0  0  0  0  0  0  0  0
  150.4361  133.3393  155.5559 H   0  0  0  0  0  0  0  0  0  0  0  0
  147.6474  134.1097  155.8502 H   0  0  0  0  0  0  0  0  0  0  0  0
  148.7113  135.1921  153.5064 H   0  0  0  0  0  0  0  0  0  0  0  0
  149.7026  136.8749  153.3695 H   0  0  0  0  0  0  0  0  0  0  0  0
  152.7774  137.2135  155.3304 H   0  0  0  0  0  0  0  0  0  0  0  0
  153.2765  139.9270  155.4832 H   0  0  0  0  0  0  0  0  0  0  0  0
  148.9736  139.4222  152.8843 H   0  0  0  0  0  0  0  0  0  0  0  0
  149.0615  140.8394  153.9495 H   0  0  0  0  0  0  0  0  0  0  0  0
  148.3116  139.3402  154.5305 H   0  0  0  0  0  0  0  0  0  0  0  0
  1  2  1  0  0  0  0
  1 18  1  0  0  0  0
  1 19  1  0  0  0  0
  1 20  1  0  0  0  0
  2  3  1  0  0  0  0
  3  7  1  0  0  0  0
  3  4  1  0  0  0  0
  3 21  1  0  0  0  0
  4  5  1  0  0  0  0
  4 22  1  0  0  0  0
  4 23  1  0  0  0  0
  5  6  1  0  0  0  0
  5 24  1  0  0  0  0
  5 25  1  0  0  0  0
  6  7  1  0  0  0  0
  6 26  1  0  0  0  0
  6 27  1  0  0  0  0
  7  8  1  0  0  0  0
  7 28  1  0  0  0  0
  8  9  1  0  0  0  0
  8 29  1  0  0  0  0
  9 10  2  0  0  0  0
  9 11  1  0  0  0  0
 11 12  1  0  0  0  0
 11 30  1  0  0  0  0
 12 16  1  0  0  0  0
 12 13  2  0  0  0  0
 13 14  1  0  0  0  0
 13 31  1  0  0  0  0
 14 15  2  0  0  0  0
 14 32  1  0  0  0  0
 15 16  1  0  0  0  0
 16 17  1  0  0  0  0
 17 33  1  0  0  0  0
 17 34  1  0  0  0  0
 17 35  1  0  0  0  0
M  END
> <s_m_source_file>
AV-unprocessed.smi

> <i_m_source_file_index>
2789

> <i_lp_mmshare_version>
43012

> <i_f3d_flags>
0

> <s_epik_input>
W0NIM11PW0NAQEhdMVtDSDJdW0NIMl1bQ0gyXVtDQEhdMVtOSF1DKD1PKVtOSF1jMltjSF1bY0hdbm4yW0NIM10=

> <s_epik_cmdline>
J2VwaWtfcHl0aG9uJywgJy1waCcsICc3LjAnLCAnLXRuJywgJzgnLCAnLW1hJywgJzIwMCcsICctbWV0YWxfYmluZGluZycsICctaW1hZScsICc8aW5maWxlLm1hZT4nLCAnLW9tYWUnLCAnPG91dGZpbGUubWFlPic=

> <r_lp_tautomer_probability>
1

> <r_epik_Ionization_Penalty>
4.40608e-05

> <r_epik_Ionization_Penalty_Charging>
0

> <r_epik_Ionization_Penalty_Neutral>
4.40608e-05

> <r_epik_State_Penalty>
-0

> <r_epik_Charging_Adjusted_Penalty>
0

> <i_epik_Tot_Q>
0

> <i_epik_Tot_abs_Q>
0

> <r_epik_Metal_State_Penalty>
-0

> <b_epik_Metal_Only>
0

> <s_lp_Force_Field>
OPLS_2005

> <r_lp_Energy>
22.0425

> <b_lp_Chiralities_Consistent>
1

> <s_lp_Variant>
AV-unprocessed.smi:2789-2

> <Gold.Version>
5.8.1

> <Gold.Id.Protein>
6NUR|6NUR_protein|mol2

> <Gold.PLP.Fitness>
38.3002

> <Gold.PLP.PLP>
-30.4339

> <Gold.PLP.part.hbond>
-3.7060

> <Gold.PLP.part.metal>
0.0000

> <Gold.PLP.part.buried>
-1.9597

> <Gold.PLP.part.nonpolar>
-25.8000

> <Gold.PLP.part.repulsive>
0.2897

> <Gold.PLP.ligand.clash>
0.0000

> <Gold.PLP.ligand.torsion>
0.5714

> <Gold.PLP.Chemscore.Hbond>
3.0000

> <Gold.PLP.Chemscore.CHOScore>
0.0000

> <Gold.PLP.Chemscore.Metal>
0.0000

> <Gold.Chemscore.Hbonds>
donor molecule, donor type, donor heavy atom, donor atom, acceptor molecule, acceptor atom, score
      L1  H     8    29       P1  7948  1.00
      L1  H    11    30       P1  7948  1.00
      P1  H  7989  7998       L1    15  0.83

> <Gold.PLP.Chemscore.Internal.Correction>
0.0091

> <Gold.Rescore>
     Score         DG    S(hbond)    S(metal)    S(lipo)     H(rot)  DE(clash)    DE(int)     intcor
     13.70     -15.24       2.06        0.00      52.44       1.27       0.16       1.38       ----

> <Gold.Chemscore.Fitness>
13.6996

> <Gold.Chemscore.DG>
-15.2414

> <Gold.Chemscore.ZeroCoef>
-5.4800

> <Gold.Chemscore.Hbond>
2.0600

> <Gold.Chemscore.Metal>
0.0000

> <Gold.Chemscore.Lipo>
52.4392

> <Gold.Chemscore.Internal_Hbond>
0.0000

> <Gold.Chemscore.DEClash>
0.1643

> <Gold.Chemscore.DEInternal>
1.3775

> <Gold.Chemscore.Rot>
1.2712

> <Gold.Chemscore.Internal.Correction>
   9.000000E+99

> <Gold.Chemscore.Hbonds>
donor molecule, donor type, donor heavy atom, donor atom, acceptor molecule, acceptor atom, score
      L1  H     8    29       P1  7948  0.74
      L1  H    11    30       P1  7948  0.55
      P1  H  7989  7998       L1    15  0.29

> <Gold.Chemscore.Hbond.Weighted>
-6.8804

> <Gold.Chemscore.Metal.Weighted>
-0.0000

> <Gold.Chemscore.Lipo.Weighted>
-6.1354

> <Gold.Chemscore.Internal_Hbond.Weighted>
0.0000

> <Gold.Chemscore.DEClash.Weighted>
0.1643

> <Gold.Chemscore.DEInternal.Weighted>
1.3775

> <Gold.Chemscore.Rot.Weighted>
3.2544

> <Gold.Chemscore.Internal.Correction.Weighted>
   9.000000E+99

> <Gold.Protein.RotatedTorsions>
[ 6907 6896 6895 6894 ] final   83.40 input  -60.11 | X-H torsion
[ 7974 7965 7964 7962 ] final   57.17 input  175.53 | X-H torsion
[ 8008 7997 7996 7995 ] final -138.35 input   59.86 | X-H torsion
[ 10167 10162 10161 10158 ] final -146.56 input  -65.29 | X-H torsion
[ 10718 10713 10712 10709 ] final -152.17 input   66.30 | X-H torsion
[ 10763 10752 10751 10750 ] final  -35.54 input  -60.55 | X-H torsion
[ 11005 11000 10999 10996 ] final   75.79 input  -57.11 | X-H torsion

> <Gold.Protein.ActiveResidues>
 VAL166  LYS551  ARG553  GLY616  TRP617  ASP618  TYR619  PRO620  LYS621  CYS622 
 ASP623  PHE694  ASN695  SER759  ASP760  ASP761  ALA762  ILE779  LEU786  VAL792 
 PHE793  MET794  SER795  GLU796  ALA797  LYS798  CYS799  TRP800  GLU811  SER814 

> <Gold.Protein.RotatedAtoms>
  152.5326  134.2901  159.9039 H   0  0  0  0  0  0  0  0  0  0  0  0  # atno 6907 bound_to 6896
  151.2853  133.4184  159.2637 H   0  0  0  0  0  0  0  0  0  0  0  0  # atno 6908 bound_to 6896
  151.0247  134.9511  159.8136 H   0  0  0  0  0  0  0  0  0  0  0  0  # atno 6909 bound_to 6896
  145.9319  139.3815  143.0416 H   0  0  0  0  0  0  0  0  0  0  0  0  # atno 7974 bound_to 7965
  155.4270  140.0522  157.3021 H   0  0  0  0  0  0  0  0  0  0  0  0  # atno 8008 bound_to 7997
  154.4877  140.2107  155.9577 H   0  0  0  0  0  0  0  0  0  0  0  0  # atno 8009 bound_to 7997
  156.1298  140.3174  155.8337 H   0  0  0  0  0  0  0  0  0  0  0  0  # atno 8010 bound_to 7997
  139.7702  143.8248  152.2623 H   0  0  0  0  0  0  0  0  0  0  0  0  # atno 10167 bound_to 10162
  156.4689  130.8249  151.2479 H   0  0  0  0  0  0  0  0  0  0  0  0  # atno 10718 bound_to 10713
  153.8649  135.6836  153.4779 H   0  0  0  0  0  0  0  0  0  0  0  0  # atno 10763 bound_to 10752
  153.1320  135.4694  154.9362 H   0  0  0  0  0  0  0  0  0  0  0  0  # atno 10764 bound_to 10752
  154.7741  135.3248  154.8078 H   0  0  0  0  0  0  0  0  0  0  0  0  # atno 10765 bound_to 10752
  139.9327  134.7547  156.1315 H   0  0  0  0  0  0  0  0  0  0  0  0  # atno 11005 bound_to 11000
  145.8414  140.9578  143.0797 LP  0  0  0  0  0  0  0  0  0  0  0  0  # atno 17320 bound_to 7965
  144.6766  140.0290  143.7483 LP  0  0  0  0  0  0  0  0  0  0  0  0  # atno 17321 bound_to 7965
  139.8281  144.7266  150.9486 LP  0  0  0  0  0  0  0  0  0  0  0  0  # atno 17342 bound_to 10162
  140.7813  143.4096  151.1015 LP  0  0  0  0  0  0  0  0  0  0  0  0  # atno 17343 bound_to 10162
  157.7493  131.0083  150.3222 LP  0  0  0  0  0  0  0  0  0  0  0  0  # atno 17370 bound_to 10713
  156.3639  130.3851  149.7229 LP  0  0  0  0  0  0  0  0  0  0  0  0  # atno 17371 bound_to 10713
  141.0925  133.6708  156.2572 LP  0  0  0  0  0  0  0  0  0  0  0  0  # atno 17394 bound_to 11000
  140.6157  134.5413  157.5540 LP  0  0  0  0  0  0  0  0  0  0  0  0  # atno 17395 bound_to 11000

$$$$
