AV-unprocessed.smi:83|AV-procd|sdf|806|dock8
  -GOLD-   2262017203D 1   1.00000     0.00000
 Structure written by MMmdl.
 56 59  0  0  0  0  0  0  0  0  1 V2000
  152.9356  143.1738  163.1039 C   0  0  0  0  0  0  0  0  0  0  0  0
  152.5355  143.8168  161.7747 C   0  0  0  0  0  0  0  0  0  0  0  0
  152.1113  144.9720  161.7755 O   0  0  0  0  0  0  0  0  0  0  0  0
  152.6610  143.0923  160.6445 N   0  0  0  0  0  0  0  0  0  0  0  0
  153.1612  141.7206  160.6087 C   0  0  0  0  0  0  0  0  0  0  0  0
  153.1900  141.3346  159.1266 C   0  0  0  0  0  0  0  0  0  0  0  0
  152.1359  142.2319  158.4786 C   0  0  1  0  0  0  0  0  0  0  0  0
  150.7415  141.5638  158.5657 C   0  0  0  0  0  0  0  0  0  0  0  0
  150.4844  140.5703  157.5216 N   0  0  0  0  0  0  0  0  0  0  0  0
  149.5366  140.9401  156.4720 C   0  0  0  0  0  0  0  0  0  0  0  0
  150.7664  139.2471  157.7165 C   0  0  0  0  0  0  0  0  0  0  0  0
  151.2013  138.8595  158.9472 N   0  0  0  0  0  0  0  0  0  0  0  0
  151.5349  137.5908  159.1942 C   0  0  0  0  0  0  0  0  0  0  0  0
  151.5131  136.5486  158.3651 N   0  0  0  0  0  0  0  0  0  0  0  0
  151.0659  136.9136  157.1312 C   0  0  0  0  0  0  0  0  0  0  0  0
  150.6669  138.2212  156.7229 C   0  0  0  0  0  0  0  0  0  0  0  0
  150.2613  138.1744  155.3918 N   0  0  0  0  0  0  0  0  0  0  0  0
  150.4286  136.9323  155.0336 C   0  0  0  0  0  0  0  0  0  0  0  0
  150.9113  136.1063  156.0192 N   0  0  0  0  0  0  0  0  0  0  0  0
  151.1923  134.6869  155.9045 C   0  0  0  0  0  0  0  0  0  0  0  0
  150.2297  133.8301  156.7490 C   0  0  1  0  0  0  0  0  0  0  0  0
  148.9557  133.7567  156.1350 O   0  0  0  0  0  0  0  0  0  0  0  0
  150.7747  132.4153  157.0321 C   0  0  1  0  0  0  0  0  0  0  0  0
  151.0056  131.5303  155.7950 C   0  0  0  0  0  0  0  0  0  0  0  0
  152.4978  131.2571  155.8258 C   0  0  0  0  0  0  0  0  0  0  0  0
  152.8222  131.3862  157.3080 C   0  0  0  0  0  0  0  0  0  0  0  0
  152.0230  132.4838  157.7177 O   0  0  0  0  0  0  0  0  0  0  0  0
  152.2793  143.5221  159.3015 C   0  0  0  0  0  0  0  0  0  0  0  0
  152.4369  142.2133  163.2365 H   0  0  0  0  0  0  0  0  0  0  0  0
  152.6571  143.8149  163.9408 H   0  0  0  0  0  0  0  0  0  0  0  0
  154.0132  143.0170  163.1458 H   0  0  0  0  0  0  0  0  0  0  0  0
  154.1491  141.6362  161.0639 H   0  0  0  0  0  0  0  0  0  0  0  0
  152.4760  141.0750  161.1605 H   0  0  0  0  0  0  0  0  0  0  0  0
  154.1705  141.5707  158.7112 H   0  0  0  0  0  0  0  0  0  0  0  0
  153.0149  140.2706  158.9639 H   0  0  0  0  0  0  0  0  0  0  0  0
  152.3796  142.4140  157.4312 H   0  0  0  0  0  0  0  0  0  0  0  0
  150.6776  141.0397  159.5198 H   0  0  0  0  0  0  0  0  0  0  0  0
  149.9585  142.3115  158.6299 H   0  0  0  0  0  0  0  0  0  0  0  0
  149.8307  140.5102  155.5138 H   0  0  0  0  0  0  0  0  0  0  0  0
  149.4937  142.0224  156.3473 H   0  0  0  0  0  0  0  0  0  0  0  0
  148.5331  140.5913  156.7182 H   0  0  0  0  0  0  0  0  0  0  0  0
  151.8727  137.3831  160.1987 H   0  0  0  0  0  0  0  0  0  0  0  0
  150.2011  136.5826  154.0371 H   0  0  0  0  0  0  0  0  0  0  0  0
  151.1351  134.4064  154.8520 H   0  0  0  0  0  0  0  0  0  0  0  0
  152.2233  134.5169  156.2167 H   0  0  0  0  0  0  0  0  0  0  0  0
  150.0808  134.3255  157.7093 H   0  0  0  0  0  0  0  0  0  0  0  0
  148.4166  133.1625  156.6343 H   0  0  0  0  0  0  0  0  0  0  0  0
  150.0763  131.9009  157.6945 H   0  0  0  0  0  0  0  0  0  0  0  0
  150.4536  130.5957  155.9029 H   0  0  0  0  0  0  0  0  0  0  0  0
  150.6893  131.9901  154.8584 H   0  0  0  0  0  0  0  0  0  0  0  0
  152.7647  130.2844  155.4122 H   0  0  0  0  0  0  0  0  0  0  0  0
  153.0290  132.0260  155.2632 H   0  0  0  0  0  0  0  0  0  0  0  0
  152.5202  130.4902  157.8529 H   0  0  0  0  0  0  0  0  0  0  0  0
  153.8807  131.5665  157.4963 H   0  0  0  0  0  0  0  0  0  0  0  0
  151.3866  144.1422  159.2835 H   0  0  0  0  0  0  0  0  0  0  0  0
  153.0918  144.1286  158.8994 H   0  0  0  0  0  0  0  0  0  0  0  0
  1  2  1  0  0  0  0
  1 29  1  0  0  0  0
  1 30  1  0  0  0  0
  1 31  1  0  0  0  0
  2  3  2  0  0  0  0
  2  4  1  0  0  0  0
  4 28  1  0  0  0  0
  4  5  1  0  0  0  0
  5  6  1  0  0  0  0
  5 32  1  0  0  0  0
  5 33  1  0  0  0  0
  6  7  1  0  0  0  0
  6 34  1  0  0  0  0
  6 35  1  0  0  0  0
  7  8  1  0  0  0  0
  7 28  1  0  0  0  0
  7 36  1  0  0  0  0
  8  9  1  0  0  0  0
  8 37  1  0  0  0  0
  8 38  1  0  0  0  0
  9 10  1  0  0  0  0
  9 11  1  0  0  0  0
 10 39  1  0  0  0  0
 10 40  1  0  0  0  0
 10 41  1  0  0  0  0
 11 16  1  0  0  0  0
 11 12  2  0  0  0  0
 12 13  1  0  0  0  0
 13 14  2  0  0  0  0
 13 42  1  0  0  0  0
 14 15  1  0  0  0  0
 15 19  1  0  0  0  0
 15 16  2  0  0  0  0
 16 17  1  0  0  0  0
 17 18  2  0  0  0  0
 18 19  1  0  0  0  0
 18 43  1  0  0  0  0
 19 20  1  0  0  0  0
 20 21  1  0  0  0  0
 20 44  1  0  0  0  0
 20 45  1  0  0  0  0
 21 22  1  0  0  0  0
 21 23  1  0  0  0  0
 21 46  1  0  0  0  0
 22 47  1  0  0  0  0
 23 27  1  0  0  0  0
 23 24  1  0  0  0  0
 23 48  1  0  0  0  0
 24 25  1  0  0  0  0
 24 49  1  0  0  0  0
 24 50  1  0  0  0  0
 25 26  1  0  0  0  0
 25 51  1  0  0  0  0
 25 52  1  0  0  0  0
 26 27  1  0  0  0  0
 26 53  1  0  0  0  0
 26 54  1  0  0  0  0
 28 55  1  0  0  0  0
 28 56  1  0  0  0  0
M  END
> <s_m_source_file>
AV-unprocessed.smi

> <i_m_source_file_index>
83

> <i_lp_mmshare_version>
43012

> <i_f3d_flags>
0

> <s_epik_input>
W0NIM11DKD1PKU4xW0NIMl1bQ0gyXVtDQEhdKFtDSDJdMSlbQ0gyXU4oW0NIM10pYyhuW2NIXW4yKWMoYzIzKW5bY0hdbjNbQ0gyXVtDQEhdKFtPSF0pW0NAQEhdNFtDSDJdW0NIMl1bQ0gyXU80

> <s_epik_cmdline>
J2VwaWtfcHl0aG9uJywgJy1waCcsICc3LjAnLCAnLXRuJywgJzgnLCAnLW1hJywgJzIwMCcsICctbWV0YWxfYmluZGluZycsICctaW1hZScsICc8aW5maWxlLm1hZT4nLCAnLW9tYWUnLCAnPG91dGZpbGUubWFlPic=

> <r_lp_tautomer_probability>
1

> <r_epik_Ionization_Penalty>
0.00109752

> <r_epik_Ionization_Penalty_Charging>
0

> <r_epik_Ionization_Penalty_Neutral>
0.00109752

> <r_epik_State_Penalty>
0.000634803

> <r_epik_Charging_Adjusted_Penalty>
0.000634803

> <i_epik_Tot_Q>
0

> <i_epik_Tot_abs_Q>
0

> <r_epik_Metal_State_Penalty>
-0

> <b_epik_Metal_Only>
0

> <s_lp_Force_Field>
OPLS_2005

> <r_lp_Energy>
56.5247

> <b_lp_Chiralities_Consistent>
1

> <s_lp_Variant>
AV-unprocessed.smi:83-7

> <Gold.Version>
5.8.1

> <Gold.Id.Protein>
6NUR|6NUR_protein|mol2

> <Gold.PLP.Fitness>
47.8575

> <Gold.PLP.PLP>
-41.2229

> <Gold.PLP.part.hbond>
-2.0000

> <Gold.PLP.part.metal>
0.0000

> <Gold.PLP.part.buried>
-4.3429

> <Gold.PLP.part.nonpolar>
-38.0495

> <Gold.PLP.part.repulsive>
2.9787

> <Gold.PLP.ligand.clash>
0.0000

> <Gold.PLP.ligand.torsion>
0.7813

> <Gold.PLP.Chemscore.Hbond>
1.5460

> <Gold.PLP.Chemscore.CHOScore>
1.0362

> <Gold.PLP.Chemscore.Metal>
0.0000

> <Gold.Chemscore.Hbonds>
donor molecule, donor type, donor heavy atom, donor atom, acceptor molecule, acceptor atom, score
      P1  H  6896  6907       L1    27  0.44
      P1  H  6896  6908       L1    14  0.40
      L1  C    18    43       P1  7948  0.90
      L1  C    18    43       P1  7949  0.08

> <Gold.PLP.Chemscore.Internal.Correction>
0.4506

> <Gold.Rescore>
     Score         DG    S(hbond)    S(metal)    S(lipo)     H(rot)  DE(clash)    DE(int)     intcor
     10.63     -13.79       1.14        0.00      95.55       2.62       1.53       1.63       ----

> <Gold.Chemscore.Fitness>
10.6306

> <Gold.Chemscore.DG>
-13.7884

> <Gold.Chemscore.ZeroCoef>
-5.4800

> <Gold.Chemscore.Hbond>
1.1448

> <Gold.Chemscore.Metal>
0.0000

> <Gold.Chemscore.Lipo>
95.5536

> <Gold.Chemscore.Internal_Hbond>
0.0000

> <Gold.Chemscore.DEClash>
1.5255

> <Gold.Chemscore.DEInternal>
1.6323

> <Gold.Chemscore.Rot>
2.6152

> <Gold.Chemscore.Internal.Correction>
   9.000000E+99

> <Gold.Chemscore.Hbonds>
donor molecule, donor type, donor heavy atom, donor atom, acceptor molecule, acceptor atom, score
      P1  H  6896  6907       L1    27  0.03
      P1  H  6896  6908       L1    14  0.08

> <Gold.Chemscore.Hbond.Weighted>
-3.8235

> <Gold.Chemscore.Metal.Weighted>
-0.0000

> <Gold.Chemscore.Lipo.Weighted>
-11.1798

> <Gold.Chemscore.Internal_Hbond.Weighted>
0.0000

> <Gold.Chemscore.DEClash.Weighted>
1.5255

> <Gold.Chemscore.DEInternal.Weighted>
1.6323

> <Gold.Chemscore.Rot.Weighted>
6.6949

> <Gold.Chemscore.Internal.Correction.Weighted>
   9.000000E+99

> <Gold.Protein.RotatedTorsions>
[ 6907 6896 6895 6894 ] final -152.01 input  -60.11 | X-H torsion
[ 7974 7965 7964 7962 ] final -174.88 input  175.53 | X-H torsion
[ 8008 7997 7996 7995 ] final   75.19 input   59.86 | X-H torsion
[ 10167 10162 10161 10158 ] final  -40.43 input  -65.29 | X-H torsion
[ 10718 10713 10712 10709 ] final  -58.79 input   66.30 | X-H torsion
[ 10763 10752 10751 10750 ] final  121.27 input  -60.55 | X-H torsion
[ 11005 11000 10999 10996 ] final -167.95 input  -57.11 | X-H torsion

> <Gold.Protein.ActiveResidues>
 VAL166  LYS551  ARG553  GLY616  TRP617  ASP618  TYR619  PRO620  LYS621  CYS622 
 ASP623  PHE694  ASN695  SER759  ASP760  ASP761  ALA762  ILE779  LEU786  VAL792 
 PHE793  MET794  SER795  GLU796  ALA797  LYS798  CYS799  TRP800  GLU811  SER814 

> <Gold.Protein.RotatedAtoms>
  151.2214  133.4500  159.2600 H   0  0  0  0  0  0  0  0  0  0  0  0  # atno 6907 bound_to 6896
  151.0881  134.9899  159.8399 H   0  0  0  0  0  0  0  0  0  0  0  0  # atno 6908 bound_to 6896
  152.5431  134.2150  159.8818 H   0  0  0  0  0  0  0  0  0  0  0  0  # atno 6909 bound_to 6896
  144.7130  140.1405  143.6392 H   0  0  0  0  0  0  0  0  0  0  0  0  # atno 7974 bound_to 7965
  155.8094  140.3473  155.5448 H   0  0  0  0  0  0  0  0  0  0  0  0  # atno 8008 bound_to 7997
  155.8457  140.0948  157.1727 H   0  0  0  0  0  0  0  0  0  0  0  0  # atno 8009 bound_to 7997
  154.4006  140.1386  156.3770 H   0  0  0  0  0  0  0  0  0  0  0  0  # atno 8010 bound_to 7997
  140.7034  143.3154  151.2924 H   0  0  0  0  0  0  0  0  0  0  0  0  # atno 10167 bound_to 10162
  156.1109  130.4175  150.0625 H   0  0  0  0  0  0  0  0  0  0  0  0  # atno 10718 bound_to 10713
  153.6115  135.3429  155.2980 H   0  0  0  0  0  0  0  0  0  0  0  0  # atno 10763 bound_to 10752
  154.8617  135.4251  154.2304 H   0  0  0  0  0  0  0  0  0  0  0  0  # atno 10764 bound_to 10752
  153.3156  135.7034  153.7148 H   0  0  0  0  0  0  0  0  0  0  0  0  # atno 10765 bound_to 10752
  140.5475  134.5461  157.5114 H   0  0  0  0  0  0  0  0  0  0  0  0  # atno 11005 bound_to 11000
  145.9206  139.2543  143.1384 LP  0  0  0  0  0  0  0  0  0  0  0  0  # atno 17320 bound_to 7965
  145.9624  140.8825  143.0204 LP  0  0  0  0  0  0  0  0  0  0  0  0  # atno 17321 bound_to 7965
  139.6590  144.0223  152.2679 LP  0  0  0  0  0  0  0  0  0  0  0  0  # atno 17342 bound_to 10162
  139.9784  144.6445  150.7923 LP  0  0  0  0  0  0  0  0  0  0  0  0  # atno 17343 bound_to 10162
  156.8589  130.9485  151.3619 LP  0  0  0  0  0  0  0  0  0  0  0  0  # atno 17370 bound_to 10713
  157.6290  130.8714  149.9240 LP  0  0  0  0  0  0  0  0  0  0  0  0  # atno 17371 bound_to 10713
  139.9472  134.7681  156.0534 LP  0  0  0  0  0  0  0  0  0  0  0  0  # atno 17394 bound_to 11000
  141.1191  133.6618  156.3169 LP  0  0  0  0  0  0  0  0  0  0  0  0  # atno 17395 bound_to 11000

$$$$
