AV-unprocessed.smi:1686|AV-procd|sdf|6759|dock9
  -GOLD-   22720 7523D 1   1.00000     0.00000
 Structure written by MMmdl.
 41 43  0  0  0  0  0  0  0  0  1 V2000
  148.8175  138.3274  157.3902 C   0  0  0  0  0  0  0  0  0  0  0  0
  150.0191  137.8909  158.1788 C   0  0  0  0  0  0  0  0  0  0  0  0
  149.8550  137.3645  159.3856 N   0  0  0  0  0  0  0  0  0  0  0  0
  151.1373  137.0748  159.8664 O   0  0  0  0  0  0  0  0  0  0  0  0
  152.0145  137.4494  158.9070 C   0  0  0  0  0  0  0  0  0  0  0  0
  153.7150  137.2823  159.0978 Cl  0  0  0  0  0  0  0  0  0  0  0  0
  151.3935  137.9714  157.8092 C   0  0  0  0  0  0  0  0  0  0  0  0
  151.9888  138.5110  156.5344 C   0  0  0  0  0  0  0  0  0  0  0  0
  151.5221  139.9508  156.3283 C   0  0  0  0  0  0  0  0  0  0  0  0
  151.2809  140.3625  155.1939 O   0  0  0  0  0  0  0  0  0  0  0  0
  151.3896  140.6965  157.4362 N   0  0  0  0  0  0  0  0  0  0  0  0
  150.9321  142.0825  157.4813 C   0  0  1  0  0  0  0  0  0  0  0  0
  149.5138  142.1633  156.8928 C   0  0  0  0  0  0  0  0  0  0  0  0
  150.9911  142.6069  158.9349 C   0  0  2  0  0  0  0  0  0  0  0  0
  150.3084  143.9755  159.1577 C   0  0  0  0  0  0  0  0  0  0  0  0
  151.3847  144.7821  159.9084 C   0  0  2  0  0  0  0  0  0  0  0  0
  152.4990  145.1748  158.9207 C   0  0  0  0  0  0  0  0  0  0  0  0
  153.2222  143.8377  158.6791 C   0  0  0  0  0  0  0  0  0  0  0  0
  152.4022  142.8462  159.5305 C   0  0  1  0  0  0  0  0  0  0  0  0
  152.0689  143.7069  160.7448 C   0  0  0  0  0  0  0  0  0  0  0  0
  148.7477  139.4147  157.3602 H   0  0  0  0  0  0  0  0  0  0  0  0
  147.8908  137.9466  157.8206 H   0  0  0  0  0  0  0  0  0  0  0  0
  148.8739  137.9707  156.3616 H   0  0  0  0  0  0  0  0  0  0  0  0
  153.0790  138.4842  156.5555 H   0  0  0  0  0  0  0  0  0  0  0  0
  151.6900  137.9135  155.6723 H   0  0  0  0  0  0  0  0  0  0  0  0
  151.6118  140.2654  158.3219 H   0  0  0  0  0  0  0  0  0  0  0  0
  151.5811  142.7034  156.8622 H   0  0  0  0  0  0  0  0  0  0  0  0
  149.1444  143.1887  156.8834 H   0  0  0  0  0  0  0  0  0  0  0  0
  148.8096  141.5619  157.4685 H   0  0  0  0  0  0  0  0  0  0  0  0
  149.4954  141.8021  155.8641 H   0  0  0  0  0  0  0  0  0  0  0  0
  150.4934  141.8732  159.5721 H   0  0  0  0  0  0  0  0  0  0  0  0
  150.0152  144.4652  158.2281 H   0  0  0  0  0  0  0  0  0  0  0  0
  149.4105  143.8589  159.7657 H   0  0  0  0  0  0  0  0  0  0  0  0
  150.9854  145.6245  160.4739 H   0  0  0  0  0  0  0  0  0  0  0  0
  152.1038  145.6061  158.0002 H   0  0  0  0  0  0  0  0  0  0  0  0
  153.1782  145.9027  159.3661 H   0  0  0  0  0  0  0  0  0  0  0  0
  153.2727  143.5672  157.6250 H   0  0  0  0  0  0  0  0  0  0  0  0
  154.2479  143.8937  159.0458 H   0  0  0  0  0  0  0  0  0  0  0  0
  152.9397  141.9268  159.7650 H   0  0  0  0  0  0  0  0  0  0  0  0
  152.9510  144.0688  161.2765 H   0  0  0  0  0  0  0  0  0  0  0  0
  151.3991  143.2186  161.4550 H   0  0  0  0  0  0  0  0  0  0  0  0
  1  2  1  0  0  0  0
  1 21  1  0  0  0  0
  1 22  1  0  0  0  0
  1 23  1  0  0  0  0
  2  7  1  0  0  0  0
  2  3  2  0  0  0  0
  3  4  1  0  0  0  0
  4  5  1  0  0  0  0
  5  6  1  0  0  0  0
  5  7  2  0  0  0  0
  7  8  1  0  0  0  0
  8  9  1  0  0  0  0
  8 24  1  0  0  0  0
  8 25  1  0  0  0  0
  9 10  2  0  0  0  0
  9 11  1  0  0  0  0
 11 12  1  0  0  0  0
 11 26  1  0  0  0  0
 12 13  1  0  0  0  0
 12 14  1  0  0  0  0
 12 27  1  0  0  0  0
 13 28  1  0  0  0  0
 13 29  1  0  0  0  0
 13 30  1  0  0  0  0
 14 19  1  0  0  0  0
 14 15  1  0  0  0  0
 14 31  1  0  0  0  0
 15 16  1  0  0  0  0
 15 32  1  0  0  0  0
 15 33  1  0  0  0  0
 16 20  1  0  0  0  0
 16 17  1  0  0  0  0
 16 34  1  0  0  0  0
 17 18  1  0  0  0  0
 17 35  1  0  0  0  0
 17 36  1  0  0  0  0
 18 19  1  0  0  0  0
 18 37  1  0  0  0  0
 18 38  1  0  0  0  0
 19 20  1  0  0  0  0
 19 39  1  0  0  0  0
 20 40  1  0  0  0  0
 20 41  1  0  0  0  0
M  END
> <s_m_source_file>
AV-unprocessed.smi

> <i_m_source_file_index>
1686

> <i_lp_mmshare_version>
43012

> <i_f3d_flags>
0

> <s_epik_input>
W0NIM11jMW5vYyhDbCljMVtDSDJdQyg9TylbTkhdW0NASF0oW0NIM10pW0NASF0oW0NIMl1bQ0BIXTIzKVtDQEhdKFtDSDJdMylbQ0gyXVtDSDJdMg==

> <s_epik_cmdline>
J2VwaWtfcHl0aG9uJywgJy1waCcsICc3LjAnLCAnLXRuJywgJzgnLCAnLW1hJywgJzIwMCcsICctbWV0YWxfYmluZGluZycsICctaW1hZScsICc8aW5maWxlLm1hZT4nLCAnLW9tYWUnLCAnPG91dGZpbGUubWFlPic=

> <r_lp_tautomer_probability>
1

> <r_epik_Ionization_Penalty>
2.01576e-08

> <r_epik_Ionization_Penalty_Charging>
0

> <r_epik_Ionization_Penalty_Neutral>
2.01576e-08

> <r_epik_State_Penalty>
-0

> <r_epik_Charging_Adjusted_Penalty>
0

> <i_epik_Tot_Q>
0

> <i_epik_Tot_abs_Q>
0

> <r_epik_Metal_State_Penalty>
-0

> <b_epik_Metal_Only>
0

> <s_lp_Force_Field>
OPLS_2005

> <r_lp_Energy>
45.5395

> <b_lp_Chiralities_Consistent>
1

> <s_lp_Variant>
AV-unprocessed.smi:1686-2

> <Gold.Version>
5.8.1

> <Gold.Id.Protein>
6NUR|6NUR_protein|mol2

> <Gold.PLP.Fitness>
41.7688

> <Gold.PLP.PLP>
-36.7018

> <Gold.PLP.part.hbond>
-2.6026

> <Gold.PLP.part.metal>
0.0000

> <Gold.PLP.part.buried>
-4.8302

> <Gold.PLP.part.nonpolar>
-29.6669

> <Gold.PLP.part.repulsive>
0.0978

> <Gold.PLP.ligand.clash>
0.0000

> <Gold.PLP.ligand.torsion>
0.4735

> <Gold.PLP.Chemscore.Hbond>
2.0000

> <Gold.PLP.Chemscore.CHOScore>
0.0000

> <Gold.PLP.Chemscore.Metal>
0.0000

> <Gold.Chemscore.Hbonds>
donor molecule, donor type, donor heavy atom, donor atom, acceptor molecule, acceptor atom, score
      P1  H  6896  6907       L1     4  1.00
      P1  H  7989  7998       L1    10  0.99

> <Gold.PLP.Chemscore.Internal.Correction>
0.0140

> <Gold.Rescore>
     Score         DG    S(hbond)    S(metal)    S(lipo)     H(rot)  DE(clash)    DE(int)     intcor
     19.66     -20.19       1.87        0.00     104.54       1.46       0.13       0.41       ----

> <Gold.Chemscore.Fitness>
19.6613

> <Gold.Chemscore.DG>
-20.1943

> <Gold.Chemscore.ZeroCoef>
-5.4800

> <Gold.Chemscore.Hbond>
1.8663

> <Gold.Chemscore.Metal>
0.0000

> <Gold.Chemscore.Lipo>
104.5363

> <Gold.Chemscore.Internal_Hbond>
0.0000

> <Gold.Chemscore.DEClash>
0.1259

> <Gold.Chemscore.DEInternal>
0.4071

> <Gold.Chemscore.Rot>
1.4648

> <Gold.Chemscore.Internal.Correction>
   9.000000E+99

> <Gold.Chemscore.Hbonds>
donor molecule, donor type, donor heavy atom, donor atom, acceptor molecule, acceptor atom, score
      P1  H  6896  6907       L1     4  0.28
      P1  H  7989  7998       L1    10  0.94

> <Gold.Chemscore.Hbond.Weighted>
-6.2335

> <Gold.Chemscore.Metal.Weighted>
-0.0000

> <Gold.Chemscore.Lipo.Weighted>
-12.2307

> <Gold.Chemscore.Internal_Hbond.Weighted>
0.0000

> <Gold.Chemscore.DEClash.Weighted>
0.1259

> <Gold.Chemscore.DEInternal.Weighted>
0.4071

> <Gold.Chemscore.Rot.Weighted>
3.7500

> <Gold.Chemscore.Internal.Correction.Weighted>
   9.000000E+99

> <Gold.Protein.RotatedTorsions>
[ 6907 6896 6895 6894 ] final  -13.35 input  -60.11 | X-H torsion
[ 7974 7965 7964 7962 ] final  132.84 input  175.53 | X-H torsion
[ 8008 7997 7996 7995 ] final  175.92 input   59.86 | X-H torsion
[ 10167 10162 10161 10158 ] final  164.31 input  -65.29 | X-H torsion
[ 10718 10713 10712 10709 ] final -108.00 input   66.30 | X-H torsion
[ 10763 10752 10751 10750 ] final  143.94 input  -60.55 | X-H torsion
[ 11005 11000 10999 10996 ] final  107.02 input  -57.11 | X-H torsion

> <Gold.Protein.ActiveResidues>
 VAL166  LYS551  ARG553  GLY616  TRP617  ASP618  TYR619  PRO620  LYS621  CYS622 
 ASP623  PHE694  ASN695  SER759  ASP760  ASP761  ALA762  ILE779  LEU786  VAL792 
 PHE793  MET794  SER795  GLU796  ALA797  LYS798  CYS799  TRP800  GLU811  SER814 

> <Gold.Protein.RotatedAtoms>
  151.3563  135.0895  159.9419 H   0  0  0  0  0  0  0  0  0  0  0  0  # atno 6907 bound_to 6896
  152.5174  133.9302  159.7587 H   0  0  0  0  0  0  0  0  0  0  0  0  # atno 6908 bound_to 6896
  150.9688  133.6312  159.2771 H   0  0  0  0  0  0  0  0  0  0  0  0  # atno 6909 bound_to 6896
  144.9927  139.4390  143.5331 H   0  0  0  0  0  0  0  0  0  0  0  0  # atno 7974 bound_to 7965
  156.0820  140.1397  156.9700 H   0  0  0  0  0  0  0  0  0  0  0  0  # atno 8008 bound_to 7997
  154.4590  140.0950  156.6890 H   0  0  0  0  0  0  0  0  0  0  0  0  # atno 8009 bound_to 7997
  155.5060  140.3452  155.4382 H   0  0  0  0  0  0  0  0  0  0  0  0  # atno 8010 bound_to 7997
  139.4887  144.4248  151.9142 H   0  0  0  0  0  0  0  0  0  0  0  0  # atno 10167 bound_to 10162
  156.0464  130.5691  150.7900 H   0  0  0  0  0  0  0  0  0  0  0  0  # atno 10718 bound_to 10713
  153.9807  135.2941  155.3420 H   0  0  0  0  0  0  0  0  0  0  0  0  # atno 10763 bound_to 10752
  154.7270  135.5084  153.8906 H   0  0  0  0  0  0  0  0  0  0  0  0  # atno 10764 bound_to 10752
  153.0856  135.6692  154.0071 H   0  0  0  0  0  0  0  0  0  0  0  0  # atno 10765 bound_to 10752
  139.8822  134.9388  156.5756 H   0  0  0  0  0  0  0  0  0  0  0  0  # atno 11005 bound_to 11000
  146.3435  139.9268  142.8759 LP  0  0  0  0  0  0  0  0  0  0  0  0  # atno 17320 bound_to 7965
  145.2263  140.9955  143.4016 LP  0  0  0  0  0  0  0  0  0  0  0  0  # atno 17321 bound_to 7965
  140.3694  144.2875  150.5922 LP  0  0  0  0  0  0  0  0  0  0  0  0  # atno 17342 bound_to 10162
  140.5333  143.2238  151.8204 LP  0  0  0  0  0  0  0  0  0  0  0  0  # atno 17343 bound_to 10162
  157.5344  131.0938  150.9912 LP  0  0  0  0  0  0  0  0  0  0  0  0  # atno 17370 bound_to 10713
  157.0211  130.5674  149.5331 LP  0  0  0  0  0  0  0  0  0  0  0  0  # atno 17371 bound_to 10713
  140.8065  133.8463  155.8772 LP  0  0  0  0  0  0  0  0  0  0  0  0  # atno 17394 bound_to 11000
  140.9545  134.1736  157.4702 LP  0  0  0  0  0  0  0  0  0  0  0  0  # atno 17395 bound_to 11000

$$$$
