AV-unprocessed.smi:2164|AV-procd|sdf|8810|dock7
  -GOLD-   2272012 03D 1   1.00000     0.00000
 Structure written by MMmdl.
 38 40  0  0  0  0  0  0  0  0  2 V2000
  149.7124  132.4573  155.5675 O   0  0  0  0  0  0  0  0  0  0  0  0
  149.5506  133.4951  154.9126 C   0  0  0  0  0  0  0  0  0  0  0  0
  149.0656  133.5499  153.6350 N   0  5  0  0  0  0  0  0  0  0  0  0
  147.9438  132.7638  153.1216 C   0  0  0  0  0  0  0  0  0  0  0  0
  147.5031  133.3230  151.7540 C   0  0  0  0  0  0  0  0  0  0  0  0
  146.0788  132.9483  151.3679 C   0  0  0  0  0  0  0  0  0  0  0  0
  145.7106  131.6000  151.1663 C   0  0  0  0  0  0  0  0  0  0  0  0
  144.3841  131.3044  150.7979 C   0  0  0  0  0  0  0  0  0  0  0  0
  143.4781  132.3720  150.6421 C   0  0  0  0  0  0  0  0  0  0  0  0
  143.8172  133.6660  150.8251 N   0  0  0  0  0  0  0  0  0  0  0  0
  145.0914  133.9412  151.1787 C   0  0  0  0  0  0  0  0  0  0  0  0
  149.9029  134.7758  155.5437 C   0  0  0  0  0  0  0  0  0  0  0  0
  150.6171  135.7377  154.9192 C   0  0  0  0  0  0  0  0  0  0  0  0
  150.9572  136.9567  155.5116 N   0  0  0  0  0  0  0  0  0  0  0  0
  151.8153  137.8672  154.7621 C   0  0  0  0  0  0  0  0  0  0  0  0
  151.3438  139.3022  154.9350 C   0  0  0  0  0  0  0  0  0  0  0  0
  151.5188  139.6913  156.7181 S   0  0  0  0  0  0  0  0  0  0  0  0
  152.9385  139.5501  157.0779 O   0  0  0  0  0  0  0  0  0  0  0  0
  150.8335  140.9666  156.9774 O   0  0  0  0  0  0  0  0  0  0  0  0
  150.6500  138.4295  157.3982 N   0  0  0  0  0  0  0  0  0  0  0  0
  150.4934  137.2813  156.8119 C   0  0  0  0  0  0  0  0  0  0  0  0
  149.7597  136.2334  157.5021 C   0  0  0  0  0  0  0  0  0  0  0  0
  149.4802  135.0561  156.9068 C   0  0  0  0  0  0  0  0  0  0  0  0
  148.2107  131.7126  153.0049 H   0  0  0  0  0  0  0  0  0  0  0  0
  147.0926  132.7843  153.8034 H   0  0  0  0  0  0  0  0  0  0  0  0
  147.5862  134.4110  151.7542 H   0  0  0  0  0  0  0  0  0  0  0  0
  148.1779  132.9675  150.9738 H   0  0  0  0  0  0  0  0  0  0  0  0
  146.4316  130.8059  151.2939 H   0  0  0  0  0  0  0  0  0  0  0  0
  144.0692  130.2839  150.6385 H   0  0  0  0  0  0  0  0  0  0  0  0
  142.4532  132.1814  150.3599 H   0  0  0  0  0  0  0  0  0  0  0  0
  145.3306  134.9857  151.3149 H   0  0  0  0  0  0  0  0  0  0  0  0
  150.9814  135.6315  153.9074 H   0  0  0  0  0  0  0  0  0  0  0  0
  152.8451  137.7531  155.1024 H   0  0  0  0  0  0  0  0  0  0  0  0
  151.8068  137.6169  153.7007 H   0  0  0  0  0  0  0  0  0  0  0  0
  151.9540  139.9999  154.3622 H   0  0  0  0  0  0  0  0  0  0  0  0
  150.3022  139.4281  154.6373 H   0  0  0  0  0  0  0  0  0  0  0  0
  149.4074  136.3732  158.5138 H   0  0  0  0  0  0  0  0  0  0  0  0
  148.9293  134.3177  157.4711 H   0  0  0  0  0  0  0  0  0  0  0  0
  1  2  2  0  0  0  0
  2  3  1  0  0  0  0
  2 12  1  0  0  0  0
  3  4  1  0  0  0  0
  4  5  1  0  0  0  0
  4 24  1  0  0  0  0
  4 25  1  0  0  0  0
  5  6  1  0  0  0  0
  5 26  1  0  0  0  0
  5 27  1  0  0  0  0
  6 11  1  0  0  0  0
  6  7  2  0  0  0  0
  7  8  1  0  0  0  0
  7 28  1  0  0  0  0
  8  9  2  0  0  0  0
  8 29  1  0  0  0  0
  9 10  1  0  0  0  0
  9 30  1  0  0  0  0
 10 11  2  0  0  0  0
 11 31  1  0  0  0  0
 12 23  1  0  0  0  0
 12 13  2  0  0  0  0
 13 14  1  0  0  0  0
 13 32  1  0  0  0  0
 14 21  1  0  0  0  0
 14 15  1  0  0  0  0
 15 16  1  0  0  0  0
 15 33  1  0  0  0  0
 15 34  1  0  0  0  0
 16 17  1  0  0  0  0
 16 35  1  0  0  0  0
 16 36  1  0  0  0  0
 17 18  2  0  0  0  0
 17 19  2  0  0  0  0
 17 20  1  0  0  0  0
 20 21  2  0  0  0  0
 21 22  1  0  0  0  0
 22 23  2  0  0  0  0
 22 37  1  0  0  0  0
 23 38  1  0  0  0  0
M  CHG  1   3  -1
M  END
> <s_m_source_file>
AV-unprocessed.smi

> <i_m_source_file_index>
2164

> <i_lp_mmshare_version>
43012

> <i_f3d_flags>
0

> <s_epik_input>
W0NIMl0xW0NIMl1TKD1PKSg9TylOPUMoTjEyKVtDSF09W0NIXUMoPVtDSF0yKUMoPU8pW05IXVtDSDJdW0NIMl1jM1tjSF1bY0hdW2NIXW5bY0hdMw==

> <s_epik_cmdline>
J2VwaWtfcHl0aG9uJywgJy1waCcsICc3LjAnLCAnLXRuJywgJzgnLCAnLW1hJywgJzIwMCcsICctbWV0YWxfYmluZGluZycsICctaW1hZScsICc8aW5maWxlLm1hZT4nLCAnLW9tYWUnLCAnPG91dGZpbGUubWFlPic=

> <r_epik_Ionization_Penalty>
5.17728

> <r_epik_Ionization_Penalty_Charging>
5.15676

> <r_epik_Ionization_Penalty_Neutral>
0.0205175

> <r_epik_State_Penalty>
5.1638

> <r_epik_Charging_Adjusted_Penalty>
10.3206

> <i_epik_Tot_Q>
-1

> <i_epik_Tot_abs_Q>
1

> <r_epik_Metal_State_Penalty>
1.2481

> <b_epik_Metal_Only>
1

> <s_lp_Force_Field>
OPLS_2005

> <r_lp_Energy>
26.7817

> <b_lp_Chiralities_Consistent>
1

> <s_lp_Variant>
AV-unprocessed.smi:2164-3

> <Gold.Version>
5.8.1

> <Gold.Id.Protein>
6NUR|6NUR_protein|mol2

> <Gold.PLP.Fitness>
42.3391

> <Gold.PLP.PLP>
-35.7478

> <Gold.PLP.part.hbond>
-1.0000

> <Gold.PLP.part.metal>
0.0000

> <Gold.PLP.part.buried>
-5.0999

> <Gold.PLP.part.nonpolar>
-30.3140

> <Gold.PLP.part.repulsive>
0.4120

> <Gold.PLP.ligand.clash>
0.0000

> <Gold.PLP.ligand.torsion>
1.2895

> <Gold.PLP.Chemscore.Hbond>
1.0000

> <Gold.PLP.Chemscore.CHOScore>
2.0518

> <Gold.PLP.Chemscore.Metal>
0.0000

> <Gold.Chemscore.Hbonds>
donor molecule, donor type, donor heavy atom, donor atom, acceptor molecule, acceptor atom, score
      P1  H  7997  8008       L1    18  1.00
      L1  C     9    30       P1 10186  0.28
      L1  C     9    30       P1 10952  0.90
      L1  C    13    32       P1  7949  0.85

> <Gold.PLP.Chemscore.Internal.Correction>
0.0148

> <Gold.Rescore>
     Score         DG    S(hbond)    S(metal)    S(lipo)     H(rot)  DE(clash)    DE(int)     intcor
     14.10     -15.23       1.00        0.00      86.38       1.44       0.10       1.03       ----

> <Gold.Chemscore.Fitness>
14.0964

> <Gold.Chemscore.DG>
-15.2285

> <Gold.Chemscore.ZeroCoef>
-5.4800

> <Gold.Chemscore.Hbond>
0.9991

> <Gold.Chemscore.Metal>
0.0000

> <Gold.Chemscore.Lipo>
86.3803

> <Gold.Chemscore.Internal_Hbond>
0.0000

> <Gold.Chemscore.DEClash>
0.1042

> <Gold.Chemscore.DEInternal>
1.0279

> <Gold.Chemscore.Rot>
1.4433

> <Gold.Chemscore.Internal.Correction>
   9.000000E+99

> <Gold.Chemscore.Hbonds>
donor molecule, donor type, donor heavy atom, donor atom, acceptor molecule, acceptor atom, score
      P1  H  7997  8008       L1    18  0.98

> <Gold.Chemscore.Hbond.Weighted>
-3.3369

> <Gold.Chemscore.Metal.Weighted>
-0.0000

> <Gold.Chemscore.Lipo.Weighted>
-10.1065

> <Gold.Chemscore.Internal_Hbond.Weighted>
0.0000

> <Gold.Chemscore.DEClash.Weighted>
0.1042

> <Gold.Chemscore.DEInternal.Weighted>
1.0279

> <Gold.Chemscore.Rot.Weighted>
3.6949

> <Gold.Chemscore.Internal.Correction.Weighted>
   9.000000E+99

> <Gold.Protein.RotatedTorsions>
[ 6907 6896 6895 6894 ] final   37.36 input  -60.11 | X-H torsion
[ 7974 7965 7964 7962 ] final -112.93 input  175.53 | X-H torsion
[ 8008 7997 7996 7995 ] final  -58.46 input   59.86 | X-H torsion
[ 10167 10162 10161 10158 ] final  103.26 input  -65.29 | X-H torsion
[ 10718 10713 10712 10709 ] final   27.30 input   66.30 | X-H torsion
[ 10763 10752 10751 10750 ] final -158.62 input  -60.55 | X-H torsion
[ 11005 11000 10999 10996 ] final  177.67 input  -57.11 | X-H torsion

> <Gold.Protein.ActiveResidues>
 VAL166  LYS551  ARG553  GLY616  TRP617  ASP618  TYR619  PRO620  LYS621  CYS622 
 ASP623  PHE694  ASN695  SER759  ASP760  ASP761  ALA762  ILE779  LEU786  VAL792 
 PHE793  MET794  SER795  GLU796  ALA797  LYS798  CYS799  TRP800  GLU811  SER814 

> <Gold.Protein.RotatedAtoms>
  152.1422  134.9054  160.0552 H   0  0  0  0  0  0  0  0  0  0  0  0  # atno 6907 bound_to 6896
  152.0118  133.3859  159.4231 H   0  0  0  0  0  0  0  0  0  0  0  0  # atno 6908 bound_to 6896
  150.6866  134.3644  159.5008 H   0  0  0  0  0  0  0  0  0  0  0  0  # atno 6909 bound_to 6896
  145.1381  140.8762  143.3718 H   0  0  0  0  0  0  0  0  0  0  0  0  # atno 7974 bound_to 7965
  154.4310  140.1083  156.5961 H   0  0  0  0  0  0  0  0  0  0  0  0  # atno 8008 bound_to 7997
  155.5960  140.3492  155.4561 H   0  0  0  0  0  0  0  0  0  0  0  0  # atno 8009 bound_to 7997
  156.0210  140.1239  157.0347 H   0  0  0  0  0  0  0  0  0  0  0  0  # atno 8010 bound_to 7997
  139.7278  144.7043  151.0770 H   0  0  0  0  0  0  0  0  0  0  0  0  # atno 10167 bound_to 10162
  157.2184  130.6967  149.6259 H   0  0  0  0  0  0  0  0  0  0  0  0  # atno 10718 bound_to 10713
  154.7542  135.3100  154.8501 H   0  0  0  0  0  0  0  0  0  0  0  0  # atno 10763 bound_to 10752
  153.9280  135.6788  153.4750 H   0  0  0  0  0  0  0  0  0  0  0  0  # atno 10764 bound_to 10752
  153.1139  135.4854  154.9011 H   0  0  0  0  0  0  0  0  0  0  0  0  # atno 10765 bound_to 10752
  140.3866  134.6899  157.4483 H   0  0  0  0  0  0  0  0  0  0  0  0  # atno 11005 bound_to 11000
  145.0562  139.3141  143.5903 LP  0  0  0  0  0  0  0  0  0  0  0  0  # atno 17320 bound_to 7965
  146.3508  139.9988  142.8678 LP  0  0  0  0  0  0  0  0  0  0  0  0  # atno 17321 bound_to 7965
  140.7766  143.5082  150.9685 LP  0  0  0  0  0  0  0  0  0  0  0  0  # atno 17342 bound_to 10162
  139.8770  143.7120  152.3161 LP  0  0  0  0  0  0  0  0  0  0  0  0  # atno 17343 bound_to 10162
  155.9684  130.4528  150.5787 LP  0  0  0  0  0  0  0  0  0  0  0  0  # atno 17370 bound_to 10713
  157.3601  131.0748  151.1643 LP  0  0  0  0  0  0  0  0  0  0  0  0  # atno 17371 bound_to 10713
  140.0438  134.6229  155.8947 LP  0  0  0  0  0  0  0  0  0  0  0  0  # atno 17394 bound_to 11000
  141.1905  133.6569  156.5416 LP  0  0  0  0  0  0  0  0  0  0  0  0  # atno 17395 bound_to 11000

$$$$
