AV-unprocessed.smi:1066|AV-procd|sdf|4671|dock6
  -GOLD-   22720 3183D 1   1.00000     0.00000
 Structure written by MMmdl.
 38 40  0  0  0  0  0  0  0  0  2 V2000
  150.0673  130.4245  154.2174 C   0  0  0  0  0  0  0  0  0  0  0  0
  150.1955  131.4722  155.2854 C   0  0  0  0  0  0  0  0  0  0  0  0
  150.5094  131.1083  156.5222 N   0  0  0  0  0  0  0  0  0  0  0  0
  150.5534  132.2840  157.2805 O   0  0  0  0  0  0  0  0  0  0  0  0
  150.2617  133.3057  156.4436 C   0  0  0  0  0  0  0  0  0  0  0  0
  150.1942  134.9393  156.9757 Cl  0  0  0  0  0  0  0  0  0  0  0  0
  150.0221  132.8824  155.1677 C   0  0  0  0  0  0  0  0  0  0  0  0
  149.6617  133.6815  153.9413 C   0  0  0  0  0  0  0  0  0  0  0  0
  148.2435  133.3249  153.4976 C   0  0  0  0  0  0  0  0  0  0  0  0
  147.6346  132.4104  154.0518 O   0  0  0  0  0  0  0  0  0  0  0  0
  147.7253  134.0618  152.5038 N   0  0  0  0  0  0  0  0  0  0  0  0
  146.3788  133.9092  151.9666 C   0  0  1  0  0  0  0  0  0  0  0  0
  145.5978  135.2129  151.8306 C   0  0  0  0  0  0  0  0  0  0  0  0
  144.5214  134.8504  150.8016 C   0  0  0  0  0  0  0  0  0  0  0  0
  145.0889  133.7747  149.9505 N   0  3  2  0  0  0  0  0  0  0  0  0
  144.1738  132.6286  149.7568 C   0  0  0  0  0  0  0  0  0  0  0  0
  143.2166  132.4197  150.9060 C   0  0  0  0  0  0  0  0  0  0  0  0
  144.4050  131.4991  150.7319 C   0  0  0  0  0  0  0  0  0  0  0  0
  146.3976  133.3957  150.5276 C   0  0  0  0  0  0  0  0  0  0  0  0
  149.2844  130.6834  153.5041 H   0  0  0  0  0  0  0  0  0  0  0  0
  149.8175  129.4501  154.6390 H   0  0  0  0  0  0  0  0  0  0  0  0
  150.9995  130.3184  153.6626 H   0  0  0  0  0  0  0  0  0  0  0  0
  149.7208  134.7544  154.1291 H   0  0  0  0  0  0  0  0  0  0  0  0
  150.3525  133.4815  153.1213 H   0  0  0  0  0  0  0  0  0  0  0  0
  148.3003  134.7912  152.1070 H   0  0  0  0  0  0  0  0  0  0  0  0
  145.8142  133.2089  152.5861 H   0  0  0  0  0  0  0  0  0  0  0  0
  145.1782  135.5606  152.7752 H   0  0  0  0  0  0  0  0  0  0  0  0
  146.2412  136.0010  151.4357 H   0  0  0  0  0  0  0  0  0  0  0  0
  143.6315  134.4900  151.3204 H   0  0  0  0  0  0  0  0  0  0  0  0
  144.2241  135.7098  150.2002 H   0  0  0  0  0  0  0  0  0  0  0  0
  143.8635  132.4222  148.7336 H   0  0  0  0  0  0  0  0  0  0  0  0
  143.2441  133.1256  151.7345 H   0  0  0  0  0  0  0  0  0  0  0  0
  142.2339  132.0138  150.6740 H   0  0  0  0  0  0  0  0  0  0  0  0
  144.2044  130.4873  150.3852 H   0  0  0  0  0  0  0  0  0  0  0  0
  145.2224  131.5926  151.4450 H   0  0  0  0  0  0  0  0  0  0  0  0
  147.1745  133.9029  149.9530 H   0  0  0  0  0  0  0  0  0  0  0  0
  146.5935  132.3240  150.4693 H   0  0  0  0  0  0  0  0  0  0  0  0
  145.2717  134.1668  149.0376 H   0  0  0  0  0  0  0  0  0  0  0  0
  1  2  1  0  0  0  0
  1 20  1  0  0  0  0
  1 21  1  0  0  0  0
  1 22  1  0  0  0  0
  2  7  1  0  0  0  0
  2  3  2  0  0  0  0
  3  4  1  0  0  0  0
  4  5  1  0  0  0  0
  5  6  1  0  0  0  0
  5  7  2  0  0  0  0
  7  8  1  0  0  0  0
  8  9  1  0  0  0  0
  8 23  1  0  0  0  0
  8 24  1  0  0  0  0
  9 10  2  0  0  0  0
  9 11  1  0  0  0  0
 11 12  1  0  0  0  0
 11 25  1  0  0  0  0
 12 19  1  0  0  0  0
 12 13  1  0  0  0  0
 12 26  1  0  0  0  0
 13 14  1  0  0  0  0
 13 27  1  0  0  0  0
 13 28  1  0  0  0  0
 14 15  1  0  0  0  0
 14 29  1  0  0  0  0
 14 30  1  0  0  0  0
 15 16  1  0  0  0  0
 15 19  1  0  0  0  0
 15 38  1  0  0  0  0
 16 18  1  0  0  0  0
 16 17  1  0  0  0  0
 16 31  1  0  0  0  0
 17 18  1  0  0  0  0
 17 32  1  0  0  0  0
 17 33  1  0  0  0  0
 18 34  1  0  0  0  0
 18 35  1  0  0  0  0
 19 36  1  0  0  0  0
 19 37  1  0  0  0  0
M  CHG  1  15   1
M  END
> <s_m_source_file>
AV-unprocessed.smi

> <i_m_source_file_index>
1066

> <i_lp_mmshare_version>
43012

> <i_f3d_flags>
0

> <s_epik_input>
W0NIM11jMW5vYyhDbCljMVtDSDJdQyg9TylbTkhdW0NAQEhdMltDSDJdW0NIMl1OKFtDSDJdMilbQ0hdM1tDSDJdW0NIMl0z

> <s_epik_cmdline>
J2VwaWtfcHl0aG9uJywgJy1waCcsICc3LjAnLCAnLXRuJywgJzgnLCAnLW1hJywgJzIwMCcsICctbWV0YWxfYmluZGluZycsICctaW1hZScsICc8aW5maWxlLm1hZT4nLCAnLW9tYWUnLCAnPG91dGZpbGUubWFlPic=

> <r_epik_Ionization_Penalty>
0.00108138

> <r_epik_Ionization_Penalty_Charging>
0.00108128

> <r_epik_Ionization_Penalty_Neutral>
9.66632e-08

> <r_epik_State_Penalty>
0.000708577

> <r_epik_Charging_Adjusted_Penalty>
0.00178986

> <i_epik_Tot_Q>
1

> <i_epik_Tot_abs_Q>
1

> <r_epik_Metal_State_Penalty>
-0

> <b_epik_Metal_Only>
0

> <s_lp_Force_Field>
OPLS_2005

> <r_lp_Energy>
31.8821

> <b_lp_Chiralities_Consistent>
1

> <s_lp_Variant>
AV-unprocessed.smi:1066-4

> <Gold.Version>
5.8.1

> <Gold.Id.Protein>
6NUR|6NUR_protein|mol2

> <Gold.PLP.Fitness>
43.0283

> <Gold.PLP.PLP>
-35.1307

> <Gold.PLP.part.hbond>
-2.9381

> <Gold.PLP.part.metal>
0.0000

> <Gold.PLP.part.buried>
-3.8064

> <Gold.PLP.part.nonpolar>
-29.0297

> <Gold.PLP.part.repulsive>
0.1596

> <Gold.PLP.ligand.clash>
0.0000

> <Gold.PLP.ligand.torsion>
1.0394

> <Gold.PLP.Chemscore.Hbond>
2.9000

> <Gold.PLP.Chemscore.CHOScore>
0.0000

> <Gold.PLP.Chemscore.Metal>
0.0000

> <Gold.Chemscore.Hbonds>
donor molecule, donor type, donor heavy atom, donor atom, acceptor molecule, acceptor atom, score
      L1  H    11    25       P1  7948  0.80
      L1  H    15    38       P1  7921  1.00
      P1  H  6896  6909       L1     4  0.24

> <Gold.PLP.Chemscore.Internal.Correction>
1.2765

> <Gold.Rescore>
     Score         DG    S(hbond)    S(metal)    S(lipo)     H(rot)  DE(clash)    DE(int)     intcor
     18.65     -19.97       2.73        0.00      80.31       1.57       0.16       1.16       ----

> <Gold.Chemscore.Fitness>
18.6470

> <Gold.Chemscore.DG>
-19.9673

> <Gold.Chemscore.ZeroCoef>
-5.4800

> <Gold.Chemscore.Hbond>
2.7286

> <Gold.Chemscore.Metal>
0.0000

> <Gold.Chemscore.Lipo>
80.3064

> <Gold.Chemscore.Internal_Hbond>
0.0000

> <Gold.Chemscore.DEClash>
0.1633

> <Gold.Chemscore.DEInternal>
1.1570

> <Gold.Chemscore.Rot>
1.5711

> <Gold.Chemscore.Internal.Correction>
   9.000000E+99

> <Gold.Chemscore.Hbonds>
donor molecule, donor type, donor heavy atom, donor atom, acceptor molecule, acceptor atom, score
      L1  H    11    25       P1  7948  0.11
      L1  H    15    38       P1  7921  0.97
      P1  H  6896  6909       L1     4  0.10

> <Gold.Chemscore.Hbond.Weighted>
-9.1135

> <Gold.Chemscore.Metal.Weighted>
-0.0000

> <Gold.Chemscore.Lipo.Weighted>
-9.3959

> <Gold.Chemscore.Internal_Hbond.Weighted>
0.0000

> <Gold.Chemscore.DEClash.Weighted>
0.1633

> <Gold.Chemscore.DEInternal.Weighted>
1.1570

> <Gold.Chemscore.Rot.Weighted>
4.0221

> <Gold.Chemscore.Internal.Correction.Weighted>
   9.000000E+99

> <Gold.Protein.RotatedTorsions>
[ 6907 6896 6895 6894 ] final  -37.13 input  -60.11 | X-H torsion
[ 7974 7965 7964 7962 ] final -168.24 input  175.53 | X-H torsion
[ 8008 7997 7996 7995 ] final  -59.91 input   59.86 | X-H torsion
[ 10167 10162 10161 10158 ] final  144.16 input  -65.29 | X-H torsion
[ 10718 10713 10712 10709 ] final   64.40 input   66.30 | X-H torsion
[ 10763 10752 10751 10750 ] final  105.83 input  -60.55 | X-H torsion
[ 11005 11000 10999 10996 ] final -131.71 input  -57.11 | X-H torsion

> <Gold.Protein.ActiveResidues>
 VAL166  LYS551  ARG553  GLY616  TRP617  ASP618  TYR619  PRO620  LYS621  CYS622 
 ASP623  PHE694  ASN695  SER759  ASP760  ASP761  ALA762  ILE779  LEU786  VAL792 
 PHE793  MET794  SER795  GLU796  ALA797  LYS798  CYS799  TRP800  GLU811  SER814 

> <Gold.Protein.RotatedAtoms>
  151.0186  134.9451  159.8046 H   0  0  0  0  0  0  0  0  0  0  0  0  # atno 6907 bound_to 6896
  152.5320  134.2934  159.9061 H   0  0  0  0  0  0  0  0  0  0  0  0  # atno 6908 bound_to 6896
  151.2941  133.4110  159.2669 H   0  0  0  0  0  0  0  0  0  0  0  0  # atno 6909 bound_to 6896
  144.7207  140.2399  143.6293 H   0  0  0  0  0  0  0  0  0  0  0  0  # atno 7974 bound_to 7965
  154.4374  140.1051  156.6191 H   0  0  0  0  0  0  0  0  0  0  0  0  # atno 8008 bound_to 7997
  155.5727  140.3489  155.4501 H   0  0  0  0  0  0  0  0  0  0  0  0  # atno 8009 bound_to 7997
  156.0377  140.1275  157.0179 H   0  0  0  0  0  0  0  0  0  0  0  0  # atno 8010 bound_to 7997
  139.4953  144.5991  151.6520 H   0  0  0  0  0  0  0  0  0  0  0  0  # atno 10167 bound_to 10162
  157.6036  130.9157  149.9840 H   0  0  0  0  0  0  0  0  0  0  0  0  # atno 10718 bound_to 10713
  153.3847  135.3897  155.1881 H   0  0  0  0  0  0  0  0  0  0  0  0  # atno 10763 bound_to 10752
  154.8712  135.3734  154.4813 H   0  0  0  0  0  0  0  0  0  0  0  0  # atno 10764 bound_to 10752
  153.5293  135.7086  153.5752 H   0  0  0  0  0  0  0  0  0  0  0  0  # atno 10765 bound_to 10752
  140.9235  134.1414  157.4295 H   0  0  0  0  0  0  0  0  0  0  0  0  # atno 11005 bound_to 11000
  145.8330  139.2094  143.1872 LP  0  0  0  0  0  0  0  0  0  0  0  0  # atno 17320 bound_to 7965
  146.0414  140.8161  142.9827 LP  0  0  0  0  0  0  0  0  0  0  0  0  # atno 17321 bound_to 7965
  140.5636  144.0227  150.6181 LP  0  0  0  0  0  0  0  0  0  0  0  0  # atno 17342 bound_to 10162
  140.3321  143.3071  152.0676 LP  0  0  0  0  0  0  0  0  0  0  0  0  # atno 17343 bound_to 10162
  156.1116  130.3649  150.0038 LP  0  0  0  0  0  0  0  0  0  0  0  0  # atno 17370 bound_to 10713
  156.8136  130.9333  151.3643 LP  0  0  0  0  0  0  0  0  0  0  0  0  # atno 17371 bound_to 10713
  139.8780  134.9980  156.5875 LP  0  0  0  0  0  0  0  0  0  0  0  0  # atno 17394 bound_to 11000
  140.7957  133.8546  155.8684 LP  0  0  0  0  0  0  0  0  0  0  0  0  # atno 17395 bound_to 11000

$$$$
