AV-unprocessed.smi:15|AV-procd|sdf|80|dock9
  -GOLD-   2262015213D 1   1.00000     0.00000
 Structure written by MMmdl.
 53 56  0  0  0  0  0  0  0  0  1 V2000
  153.9187  140.8666  160.2211 C   0  0  0  0  0  0  0  0  0  0  0  0
  152.6980  140.2248  159.5492 C   0  0  0  0  0  0  0  0  0  0  0  0
  152.3941  140.8129  158.2446 N   0  0  0  0  0  0  0  0  0  0  0  0
  151.7090  142.1044  158.1621 C   0  0  0  0  0  0  0  0  0  0  0  0
  152.1709  143.1051  159.2384 C   0  0  1  0  0  0  0  0  0  0  0  0
  151.6385  144.5202  159.0254 C   0  0  0  0  0  0  0  0  0  0  0  0
  151.6578  145.1228  160.4221 C   0  0  0  0  0  0  0  0  0  0  0  0
  151.8011  143.9120  161.3488 C   0  0  0  0  0  0  0  0  0  0  0  0
  151.6228  142.7826  160.5075 O   0  0  0  0  0  0  0  0  0  0  0  0
  152.0951  139.9597  157.2347 C   0  0  0  0  0  0  0  0  0  0  0  0
  152.5714  140.2612  155.9997 N   0  0  0  0  0  0  0  0  0  0  0  0
  152.2895  139.4732  154.9584 C   0  0  0  0  0  0  0  0  0  0  0  0
  151.5543  138.3604  154.9293 N   0  0  0  0  0  0  0  0  0  0  0  0
  151.0628  138.0591  156.1652 C   0  0  0  0  0  0  0  0  0  0  0  0
  151.2846  138.7939  157.3644 C   0  0  0  0  0  0  0  0  0  0  0  0
  150.6090  138.1870  158.4177 N   0  0  0  0  0  0  0  0  0  0  0  0
  150.0309  137.1510  157.8749 C   0  0  0  0  0  0  0  0  0  0  0  0
  150.2407  137.0051  156.5228 N   0  0  0  0  0  0  0  0  0  0  0  0
  149.7135  135.9547  155.6665 C   0  0  0  0  0  0  0  0  0  0  0  0
  150.8079  135.1354  154.9293 C   0  0  1  0  0  0  0  0  0  0  0  0
  151.5187  135.9839  154.0471 O   0  0  0  0  0  0  0  0  0  0  0  0
  151.8008  134.4479  155.8591 C   0  0  0  0  0  0  0  0  0  0  0  0
  151.0600  133.1725  156.2489 C   0  0  0  0  0  0  0  0  0  0  0  0
  150.2352  132.8505  155.1325 O   0  0  0  0  0  0  0  0  0  0  0  0
  150.2682  133.9054  154.1739 C   0  0  1  0  0  0  0  0  0  0  0  0
  148.9025  134.0596  153.4885 C   0  0  0  0  0  0  0  0  0  0  0  0
  154.1574  140.3519  161.1519 H   0  0  0  0  0  0  0  0  0  0  0  0
  153.7430  141.9135  160.4664 H   0  0  0  0  0  0  0  0  0  0  0  0
  154.7971  140.8111  159.5774 H   0  0  0  0  0  0  0  0  0  0  0  0
  152.8976  139.1591  159.4282 H   0  0  0  0  0  0  0  0  0  0  0  0
  151.8308  140.3079  160.2040 H   0  0  0  0  0  0  0  0  0  0  0  0
  151.8934  142.5297  157.1762 H   0  0  0  0  0  0  0  0  0  0  0  0
  150.6284  141.9671  158.2200 H   0  0  0  0  0  0  0  0  0  0  0  0
  153.2593  143.1345  159.3093 H   0  0  0  0  0  0  0  0  0  0  0  0
  152.2322  145.0886  158.3090 H   0  0  0  0  0  0  0  0  0  0  0  0
  150.6118  144.4846  158.6583 H   0  0  0  0  0  0  0  0  0  0  0  0
  152.4987  145.8053  160.5504 H   0  0  0  0  0  0  0  0  0  0  0  0
  150.7403  145.6783  160.6200 H   0  0  0  0  0  0  0  0  0  0  0  0
  152.8002  143.8781  161.7861 H   0  0  0  0  0  0  0  0  0  0  0  0
  151.0734  143.9143  162.1606 H   0  0  0  0  0  0  0  0  0  0  0  0
  152.7100  139.7808  154.0124 H   0  0  0  0  0  0  0  0  0  0  0  0
  149.4251  136.4645  158.4485 H   0  0  0  0  0  0  0  0  0  0  0  0
  149.0953  135.2972  156.2787 H   0  0  0  0  0  0  0  0  0  0  0  0
  149.0386  136.4203  154.9473 H   0  0  0  0  0  0  0  0  0  0  0  0
  151.1464  135.8953  153.1831 H   0  0  0  0  0  0  0  0  0  0  0  0
  152.7038  134.1742  155.3104 H   0  0  0  0  0  0  0  0  0  0  0  0
  152.1149  135.0421  156.7166 H   0  0  0  0  0  0  0  0  0  0  0  0
  151.7403  132.3557  156.4906 H   0  0  0  0  0  0  0  0  0  0  0  0
  150.4221  133.3480  157.1158 H   0  0  0  0  0  0  0  0  0  0  0  0
  151.0007  133.6062  153.4214 H   0  0  0  0  0  0  0  0  0  0  0  0
  148.9130  134.8851  152.7767 H   0  0  0  0  0  0  0  0  0  0  0  0
  148.1059  134.2434  154.2094 H   0  0  0  0  0  0  0  0  0  0  0  0
  148.6422  133.1537  152.9408 H   0  0  0  0  0  0  0  0  0  0  0  0
  1  2  1  0  0  0  0
  1 27  1  0  0  0  0
  1 28  1  0  0  0  0
  1 29  1  0  0  0  0
  2  3  1  0  0  0  0
  2 30  1  0  0  0  0
  2 31  1  0  0  0  0
  3  4  1  0  0  0  0
  3 10  1  0  0  0  0
  4  5  1  0  0  0  0
  4 32  1  0  0  0  0
  4 33  1  0  0  0  0
  5  9  1  0  0  0  0
  5  6  1  0  0  0  0
  5 34  1  0  0  0  0
  6  7  1  0  0  0  0
  6 35  1  0  0  0  0
  6 36  1  0  0  0  0
  7  8  1  0  0  0  0
  7 37  1  0  0  0  0
  7 38  1  0  0  0  0
  8  9  1  0  0  0  0
  8 39  1  0  0  0  0
  8 40  1  0  0  0  0
 10 15  1  0  0  0  0
 10 11  2  0  0  0  0
 11 12  1  0  0  0  0
 12 13  2  0  0  0  0
 12 41  1  0  0  0  0
 13 14  1  0  0  0  0
 14 18  1  0  0  0  0
 14 15  2  0  0  0  0
 15 16  1  0  0  0  0
 16 17  2  0  0  0  0
 17 18  1  0  0  0  0
 17 42  1  0  0  0  0
 18 19  1  0  0  0  0
 19 20  1  0  0  0  0
 19 43  1  0  0  0  0
 19 44  1  0  0  0  0
 20 25  1  0  0  0  0
 20 21  1  0  0  0  0
 20 22  1  0  0  0  0
 21 45  1  0  0  0  0
 22 23  1  0  0  0  0
 22 46  1  0  0  0  0
 22 47  1  0  0  0  0
 23 24  1  0  0  0  0
 23 48  1  0  0  0  0
 23 49  1  0  0  0  0
 24 25  1  0  0  0  0
 25 26  1  0  0  0  0
 25 50  1  0  0  0  0
 26 51  1  0  0  0  0
 26 52  1  0  0  0  0
 26 53  1  0  0  0  0
M  END
> <s_m_source_file>
AV-unprocessed.smi

> <i_m_source_file_index>
15

> <i_lp_mmshare_version>
43012

> <i_f3d_flags>
0

> <s_epik_input>
TzFbQ0gyXVtDSDJdW0NIMl1bQ0BIXTFbQ0gyXU4oW0NIMl1bQ0gzXSljKG5bY0hdbjIpYyhjMjMpbltjSF1uM1tDSDJdW0NAQF00KFtPSF0pW0NIMl1bQ0gyXU9bQ0BIXTRbQ0gzXQ==

> <s_epik_cmdline>
J2VwaWtfcHl0aG9uJywgJy1waCcsICc3LjAnLCAnLXRuJywgJzgnLCAnLW1hJywgJzIwMCcsICctbWV0YWxfYmluZGluZycsICctaW1hZScsICc8aW5maWxlLm1hZT4nLCAnLW9tYWUnLCAnPG91dGZpbGUubWFlPic=

> <r_lp_tautomer_probability>
1

> <r_epik_Ionization_Penalty>
0.00360814

> <r_epik_Ionization_Penalty_Charging>
0

> <r_epik_Ionization_Penalty_Neutral>
0.00360814

> <r_epik_State_Penalty>
0.00237482

> <r_epik_Charging_Adjusted_Penalty>
0.00237482

> <i_epik_Tot_Q>
0

> <i_epik_Tot_abs_Q>
0

> <r_epik_Metal_State_Penalty>
-0

> <b_epik_Metal_Only>
0

> <s_lp_Force_Field>
OPLS_2005

> <r_lp_Energy>
45.9982

> <b_lp_Chiralities_Consistent>
1

> <s_lp_Variant>
AV-unprocessed.smi:15-2

> <Gold.Version>
5.8.1

> <Gold.Id.Protein>
6NUR|6NUR_protein|mol2

> <Gold.PLP.Fitness>
50.3602

> <Gold.PLP.PLP>
-46.0117

> <Gold.PLP.part.hbond>
-3.8291

> <Gold.PLP.part.metal>
0.0000

> <Gold.PLP.part.buried>
-4.2598

> <Gold.PLP.part.nonpolar>
-36.9711

> <Gold.PLP.part.repulsive>
0.1292

> <Gold.PLP.ligand.clash>
0.0000

> <Gold.PLP.ligand.torsion>
1.4811

> <Gold.PLP.Chemscore.Hbond>
2.1338

> <Gold.PLP.Chemscore.CHOScore>
0.0000

> <Gold.PLP.Chemscore.Metal>
0.0000

> <Gold.Chemscore.Hbonds>
donor molecule, donor type, donor heavy atom, donor atom, acceptor molecule, acceptor atom, score
      L1  H    21    45       P1  7949  1.00
      P1  H  7997  8010       L1    11  1.00
      P1  H 10752 10763       L1    21  0.86

> <Gold.PLP.Chemscore.Internal.Correction>
0.9092

> <Gold.Rescore>
     Score         DG    S(hbond)    S(metal)    S(lipo)     H(rot)  DE(clash)    DE(int)     intcor
     13.77     -16.30       1.54        0.00     101.98       2.44       0.02       2.51       ----

> <Gold.Chemscore.Fitness>
13.7655

> <Gold.Chemscore.DG>
-16.2963

> <Gold.Chemscore.ZeroCoef>
-5.4800

> <Gold.Chemscore.Hbond>
1.5387

> <Gold.Chemscore.Metal>
0.0000

> <Gold.Chemscore.Lipo>
101.9795

> <Gold.Chemscore.Internal_Hbond>
0.0000

> <Gold.Chemscore.DEClash>
0.0192

> <Gold.Chemscore.DEInternal>
2.5116

> <Gold.Chemscore.Rot>
2.4431

> <Gold.Chemscore.Internal.Correction>
   9.000000E+99

> <Gold.Chemscore.Hbonds>
donor molecule, donor type, donor heavy atom, donor atom, acceptor molecule, acceptor atom, score
      L1  H    21    45       P1  7949  0.29
      P1  H  7997  8010       L1    11  0.18
      P1  H 10752 10763       L1    21  0.29

> <Gold.Chemscore.Hbond.Weighted>
-5.1392

> <Gold.Chemscore.Metal.Weighted>
-0.0000

> <Gold.Chemscore.Lipo.Weighted>
-11.9316

> <Gold.Chemscore.Internal_Hbond.Weighted>
0.0000

> <Gold.Chemscore.DEClash.Weighted>
0.0192

> <Gold.Chemscore.DEInternal.Weighted>
2.5116

> <Gold.Chemscore.Rot.Weighted>
6.2544

> <Gold.Chemscore.Internal.Correction.Weighted>
   9.000000E+99

> <Gold.Protein.RotatedTorsions>
[ 6907 6896 6895 6894 ] final   10.97 input  -60.11 | X-H torsion
[ 7974 7965 7964 7962 ] final -124.34 input  175.53 | X-H torsion
[ 8008 7997 7996 7995 ] final   81.44 input   59.86 | X-H torsion
[ 10167 10162 10161 10158 ] final -108.69 input  -65.29 | X-H torsion
[ 10718 10713 10712 10709 ] final  -25.39 input   66.30 | X-H torsion
[ 10763 10752 10751 10750 ] final   46.43 input  -60.55 | X-H torsion
[ 11005 11000 10999 10996 ] final  178.54 input  -57.11 | X-H torsion

> <Gold.Protein.ActiveResidues>
 VAL166  LYS551  ARG553  GLY616  TRP617  ASP618  TYR619  PRO620  LYS621  CYS622 
 ASP623  PHE694  ASN695  SER759  ASP760  ASP761  ALA762  ILE779  LEU786  VAL792 
 PHE793  MET794  SER795  GLU796  ALA797  LYS798  CYS799  TRP800  GLU811  SER814 

> <Gold.Protein.RotatedAtoms>
  151.7469  135.0841  160.0324 H   0  0  0  0  0  0  0  0  0  0  0  0  # atno 6907 bound_to 6896
  152.3443  133.6099  159.5907 H   0  0  0  0  0  0  0  0  0  0  0  0  # atno 6908 bound_to 6896
  150.7499  133.9590  159.3551 H   0  0  0  0  0  0  0  0  0  0  0  0  # atno 6909 bound_to 6896
  145.0091  140.7889  143.4450 H   0  0  0  0  0  0  0  0  0  0  0  0  # atno 7974 bound_to 7965
  155.8971  140.3435  155.5999 H   0  0  0  0  0  0  0  0  0  0  0  0  # atno 8008 bound_to 7997
  155.7543  140.0824  157.2205 H   0  0  0  0  0  0  0  0  0  0  0  0  # atno 8009 bound_to 7997
  154.4039  140.1547  156.2747 H   0  0  0  0  0  0  0  0  0  0  0  0  # atno 8010 bound_to 7997
  140.1634  143.4102  152.1409 H   0  0  0  0  0  0  0  0  0  0  0  0  # atno 10167 bound_to 10162
  156.4650  130.4512  149.6905 H   0  0  0  0  0  0  0  0  0  0  0  0  # atno 10718 bound_to 10713
  152.9811  135.6008  154.3598 H   0  0  0  0  0  0  0  0  0  0  0  0  # atno 10763 bound_to 10752
  154.3281  135.2769  155.2487 H   0  0  0  0  0  0  0  0  0  0  0  0  # atno 10764 bound_to 10752
  154.4624  135.5962  153.6320 H   0  0  0  0  0  0  0  0  0  0  0  0  # atno 10765 bound_to 10752
  140.3962  134.6818  157.4536 H   0  0  0  0  0  0  0  0  0  0  0  0  # atno 11005 bound_to 11000
  145.2048  139.2234  143.5174 LP  0  0  0  0  0  0  0  0  0  0  0  0  # atno 17320 bound_to 7965
  146.3466  140.1874  142.8589 LP  0  0  0  0  0  0  0  0  0  0  0  0  # atno 17321 bound_to 7965
  139.5371  144.7220  151.4858 LP  0  0  0  0  0  0  0  0  0  0  0  0  # atno 17342 bound_to 10162
  140.6629  143.8461  150.6908 LP  0  0  0  0  0  0  0  0  0  0  0  0  # atno 17343 bound_to 10162
  156.3677  130.7514  151.2494 LP  0  0  0  0  0  0  0  0  0  0  0  0  # atno 17370 bound_to 10713
  157.7495  131.0332  150.4261 LP  0  0  0  0  0  0  0  0  0  0  0  0  # atno 17371 bound_to 10713
  140.0370  134.6323  155.9031 LP  0  0  0  0  0  0  0  0  0  0  0  0  # atno 17394 bound_to 11000
  141.1873  133.6559  156.5276 LP  0  0  0  0  0  0  0  0  0  0  0  0  # atno 17395 bound_to 11000

$$$$
