AV-unprocessed.smi:774|AV-procd|sdf|3694|dock3
  -GOLD-   22720 1113D 1   1.00000     0.00000
 Structure written by MMmdl.
 37 38  0  0  0  0  0  0  0  0  1 V2000
  143.7939  132.9005  148.4320 C   0  0  0  0  0  0  0  0  0  0  0  0
  143.5041  132.1265  149.7206 C   0  0  0  0  0  0  0  0  0  0  0  0
  144.9889  131.9732  150.7514 S   0  0  0  0  0  0  0  0  0  0  0  0
  145.3263  133.7222  151.1077 C   0  0  1  0  0  0  0  0  0  0  0  0
  144.0848  134.6072  151.0089 C   0  0  0  0  0  0  0  0  0  0  0  0
  144.4444  135.8568  151.8139 C   0  0  0  0  0  0  0  0  0  0  0  0
  145.4314  135.3930  152.9016 C   0  0  2  0  0  0  0  0  0  0  0  0
  146.6041  136.2632  152.9452 N   0  0  0  0  0  0  0  0  0  0  0  0
  146.6400  137.4816  153.5029 C   0  0  0  0  0  0  0  0  0  0  0  0
  145.6737  138.0045  154.0581 O   0  0  0  0  0  0  0  0  0  0  0  0
  147.8616  138.0312  153.3939 N   0  0  0  0  0  0  0  0  0  0  0  0
  148.2825  139.3231  153.8083 C   0  0  0  0  0  0  0  0  0  0  0  0
  147.4875  140.4888  153.6930 C   0  0  0  0  0  0  0  0  0  0  0  0
  148.0227  141.7207  154.1157 C   0  0  0  0  0  0  0  0  0  0  0  0
  149.3331  141.7431  154.6315 C   0  0  0  0  0  0  0  0  0  0  0  0
  150.1070  140.6421  154.7342 N   0  0  0  0  0  0  0  0  0  0  0  0
  149.5879  139.4647  154.3252 C   0  0  0  0  0  0  0  0  0  0  0  0
  145.8188  133.9456  152.5402 C   0  0  0  0  0  0  0  0  0  0  0  0
  142.8959  132.9847  147.8197 H   0  0  0  0  0  0  0  0  0  0  0  0
  144.5570  132.3992  147.8364 H   0  0  0  0  0  0  0  0  0  0  0  0
  144.1455  133.9095  148.6487 H   0  0  0  0  0  0  0  0  0  0  0  0
  142.7247  132.6309  150.2924 H   0  0  0  0  0  0  0  0  0  0  0  0
  143.1332  131.1314  149.4765 H   0  0  0  0  0  0  0  0  0  0  0  0
  146.0857  134.0854  150.4138 H   0  0  0  0  0  0  0  0  0  0  0  0
  143.8138  134.8434  149.9797 H   0  0  0  0  0  0  0  0  0  0  0  0
  143.2328  134.1073  151.4718 H   0  0  0  0  0  0  0  0  0  0  0  0
  144.9154  136.5833  151.1495 H   0  0  0  0  0  0  0  0  0  0  0  0
  143.5607  136.3352  152.2371 H   0  0  0  0  0  0  0  0  0  0  0  0
  144.9268  135.4006  153.8696 H   0  0  0  0  0  0  0  0  0  0  0  0
  147.4476  135.9109  152.5172 H   0  0  0  0  0  0  0  0  0  0  0  0
  148.5848  137.4410  153.0093 H   0  0  0  0  0  0  0  0  0  0  0  0
  146.4922  140.4641  153.2769 H   0  0  0  0  0  0  0  0  0  0  0  0
  147.4428  142.6287  154.0411 H   0  0  0  0  0  0  0  0  0  0  0  0
  149.7737  142.6713  154.9642 H   0  0  0  0  0  0  0  0  0  0  0  0
  150.2366  138.6058  154.4184 H   0  0  0  0  0  0  0  0  0  0  0  0
  145.3023  133.2644  153.2180 H   0  0  0  0  0  0  0  0  0  0  0  0
  146.8861  133.7439  152.6412 H   0  0  0  0  0  0  0  0  0  0  0  0
  1  2  1  0  0  0  0
  1 19  1  0  0  0  0
  1 20  1  0  0  0  0
  1 21  1  0  0  0  0
  2  3  1  0  0  0  0
  2 22  1  0  0  0  0
  2 23  1  0  0  0  0
  3  4  1  0  0  0  0
  4 18  1  0  0  0  0
  4  5  1  0  0  0  0
  4 24  1  0  0  0  0
  5  6  1  0  0  0  0
  5 25  1  0  0  0  0
  5 26  1  0  0  0  0
  6  7  1  0  0  0  0
  6 27  1  0  0  0  0
  6 28  1  0  0  0  0
  7  8  1  0  0  0  0
  7 18  1  0  0  0  0
  7 29  1  0  0  0  0
  8  9  1  0  0  0  0
  8 30  1  0  0  0  0
  9 10  2  0  0  0  0
  9 11  1  0  0  0  0
 11 12  1  0  0  0  0
 11 31  1  0  0  0  0
 12 17  1  0  0  0  0
 12 13  2  0  0  0  0
 13 14  1  0  0  0  0
 13 32  1  0  0  0  0
 14 15  2  0  0  0  0
 14 33  1  0  0  0  0
 15 16  1  0  0  0  0
 15 34  1  0  0  0  0
 16 17  2  0  0  0  0
 17 35  1  0  0  0  0
 18 36  1  0  0  0  0
 18 37  1  0  0  0  0
M  END
> <s_m_source_file>
AV-unprocessed.smi

> <i_m_source_file_index>
774

> <i_lp_mmshare_version>
43012

> <i_f3d_flags>
0

> <s_epik_input>
W0NIM11bQ0gyXVNbQ0BASF0xW0NIMl1bQ0gyXVtDQEhdKFtDSDJdMSlbTkhdQyg9TylbTkhdYzJbY0hdW2NIXVtjSF1uW2NIXTI=

> <s_epik_cmdline>
J2VwaWtfcHl0aG9uJywgJy1waCcsICc3LjAnLCAnLXRuJywgJzgnLCAnLW1hJywgJzIwMCcsICctbWV0YWxfYmluZGluZycsICctaW1hZScsICc8aW5maWxlLm1hZT4nLCAnLW9tYWUnLCAnPG91dGZpbGUubWFlPic=

> <r_epik_Ionization_Penalty>
0.00485718

> <r_epik_Ionization_Penalty_Charging>
0

> <r_epik_Ionization_Penalty_Neutral>
0.00485718

> <r_epik_State_Penalty>
0.00349461

> <r_epik_Charging_Adjusted_Penalty>
0.00349461

> <i_epik_Tot_Q>
0

> <i_epik_Tot_abs_Q>
0

> <r_epik_Metal_State_Penalty>
-0

> <b_epik_Metal_Only>
0

> <s_lp_Force_Field>
OPLS_2005

> <r_lp_Energy>
19.7013

> <b_lp_Chiralities_Consistent>
1

> <s_lp_Variant>
AV-unprocessed.smi:774-4

> <Gold.Version>
5.8.1

> <Gold.Id.Protein>
6NUR|6NUR_protein|mol2

> <Gold.PLP.Fitness>
41.9088

> <Gold.PLP.PLP>
-32.4878

> <Gold.PLP.part.hbond>
-3.0000

> <Gold.PLP.part.metal>
0.0000

> <Gold.PLP.part.buried>
0.9940

> <Gold.PLP.part.nonpolar>
-30.6896

> <Gold.PLP.part.repulsive>
0.2600

> <Gold.PLP.ligand.clash>
0.0000

> <Gold.PLP.ligand.torsion>
0.9962

> <Gold.PLP.Chemscore.Hbond>
2.8000

> <Gold.PLP.Chemscore.CHOScore>
1.0000

> <Gold.PLP.Chemscore.Metal>
0.0000

> <Gold.Chemscore.Hbonds>
donor molecule, donor type, donor heavy atom, donor atom, acceptor molecule, acceptor atom, score
      L1  H     8    30       P1  7948  0.99
      L1  H    11    31       P1  7948  0.93
      P1  H  7989  7998       L1    16  0.85
      L1  C    15    34       P1  8028  1.00

> <Gold.PLP.Chemscore.Internal.Correction>
0.0134

> <Gold.Rescore>
     Score         DG    S(hbond)    S(metal)    S(lipo)     H(rot)  DE(clash)    DE(int)     intcor
     18.66     -20.46       2.15        0.00      95.18       1.30       0.80       1.00       ----

> <Gold.Chemscore.Fitness>
18.6616

> <Gold.Chemscore.DG>
-20.4643

> <Gold.Chemscore.ZeroCoef>
-5.4800

> <Gold.Chemscore.Hbond>
2.1516

> <Gold.Chemscore.Metal>
0.0000

> <Gold.Chemscore.Lipo>
95.1819

> <Gold.Chemscore.Internal_Hbond>
0.0000

> <Gold.Chemscore.DEClash>
0.7987

> <Gold.Chemscore.DEInternal>
1.0041

> <Gold.Chemscore.Rot>
1.3041

> <Gold.Chemscore.Internal.Correction>
   9.000000E+99

> <Gold.Chemscore.Hbonds>
donor molecule, donor type, donor heavy atom, donor atom, acceptor molecule, acceptor atom, score
      L1  H     8    30       P1  7948  0.93
      L1  H    11    31       P1  7948  0.90
      P1  H  7989  7998       L1    16  0.17

> <Gold.Chemscore.Hbond.Weighted>
-7.1865

> <Gold.Chemscore.Metal.Weighted>
-0.0000

> <Gold.Chemscore.Lipo.Weighted>
-11.1363

> <Gold.Chemscore.Internal_Hbond.Weighted>
0.0000

> <Gold.Chemscore.DEClash.Weighted>
0.7987

> <Gold.Chemscore.DEInternal.Weighted>
1.0041

> <Gold.Chemscore.Rot.Weighted>
3.3384

> <Gold.Chemscore.Internal.Correction.Weighted>
   9.000000E+99

> <Gold.Protein.RotatedTorsions>
[ 6907 6896 6895 6894 ] final   97.75 input  -60.11 | X-H torsion
[ 7974 7965 7964 7962 ] final -163.60 input  175.53 | X-H torsion
[ 8008 7997 7996 7995 ] final  127.56 input   59.86 | X-H torsion
[ 10167 10162 10161 10158 ] final   28.49 input  -65.29 | X-H torsion
[ 10718 10713 10712 10709 ] final   62.56 input   66.30 | X-H torsion
[ 10763 10752 10751 10750 ] final -160.70 input  -60.55 | X-H torsion
[ 11005 11000 10999 10996 ] final   43.45 input  -57.11 | X-H torsion

> <Gold.Protein.ActiveResidues>
 VAL166  LYS551  ARG553  GLY616  TRP617  ASP618  TYR619  PRO620  LYS621  CYS622 
 ASP623  PHE694  ASN695  SER759  ASP760  ASP761  ALA762  ILE779  LEU786  VAL792 
 PHE793  MET794  SER795  GLU796  ALA797  LYS798  CYS799  TRP800  GLU811  SER814 

> <Gold.Protein.RotatedAtoms>
  152.5419  134.0686  159.8183 H   0  0  0  0  0  0  0  0  0  0  0  0  # atno 6907 bound_to 6896
  151.0803  133.5387  159.2628 H   0  0  0  0  0  0  0  0  0  0  0  0  # atno 6908 bound_to 6896
  151.2217  135.0529  159.9006 H   0  0  0  0  0  0  0  0  0  0  0  0  # atno 6909 bound_to 6896
  144.7321  140.3084  143.6192 H   0  0  0  0  0  0  0  0  0  0  0  0  # atno 7974 bound_to 7965
  156.2894  140.2666  156.2293 H   0  0  0  0  0  0  0  0  0  0  0  0  # atno 8008 bound_to 7997
  155.0089  140.0387  157.2409 H   0  0  0  0  0  0  0  0  0  0  0  0  # atno 8009 bound_to 7997
  154.7535  140.2747  155.6277 H   0  0  0  0  0  0  0  0  0  0  0  0  # atno 8010 bound_to 7997
  140.4848  144.0560  150.6277 H   0  0  0  0  0  0  0  0  0  0  0  0  # atno 10167 bound_to 10162
  157.5909  130.9057  149.9603 H   0  0  0  0  0  0  0  0  0  0  0  0  # atno 10718 bound_to 10713
  154.7368  135.3059  154.8797 H   0  0  0  0  0  0  0  0  0  0  0  0  # atno 10763 bound_to 10752
  153.9624  135.6751  153.4749 H   0  0  0  0  0  0  0  0  0  0  0  0  # atno 10764 bound_to 10752
  153.0970  135.4931  154.8720 H   0  0  0  0  0  0  0  0  0  0  0  0  # atno 10765 bound_to 10752
  140.1643  134.4301  155.8297 H   0  0  0  0  0  0  0  0  0  0  0  0  # atno 11005 bound_to 11000
  145.7690  139.1850  143.2223 LP  0  0  0  0  0  0  0  0  0  0  0  0  # atno 17320 bound_to 7965
  146.0926  140.7638  142.9588 LP  0  0  0  0  0  0  0  0  0  0  0  0  # atno 17321 bound_to 7965
  140.3812  143.2802  152.0168 LP  0  0  0  0  0  0  0  0  0  0  0  0  # atno 17342 bound_to 10162
  139.4840  144.6153  151.7358 LP  0  0  0  0  0  0  0  0  0  0  0  0  # atno 17343 bound_to 10162
  156.0964  130.3659  150.0299 LP  0  0  0  0  0  0  0  0  0  0  0  0  # atno 17370 bound_to 10713
  156.8422  130.9429  151.3631 LP  0  0  0  0  0  0  0  0  0  0  0  0  # atno 17371 bound_to 10713
  141.2212  133.6927  156.7650 LP  0  0  0  0  0  0  0  0  0  0  0  0  # atno 17394 bound_to 11000
  140.2452  134.8583  157.3613 LP  0  0  0  0  0  0  0  0  0  0  0  0  # atno 17395 bound_to 11000

$$$$
