AV-unprocessed.smi:3179|AV-procd|sdf|12133|dock5
  -GOLD-   2272017573D 1   1.00000     0.00000
 Structure written by MMmdl.
 34 34  0  0  0  0  0  0  0  0  2 V2000
  147.1470  139.8472  153.0567 C   0  0  0  0  0  0  0  0  0  0  0  0
  146.7119  138.7991  152.0292 C   0  0  0  0  0  0  0  0  0  0  0  0
  145.4167  138.2072  152.3893 N   0  3  0  0  0  0  0  0  0  0  0  0
  145.2091  136.9208  152.7324 C   0  0  0  0  0  0  0  0  0  0  0  0
  143.9678  136.4978  153.0420 N   0  0  0  0  0  0  0  0  0  0  0  0
  142.7560  137.3276  153.0452 C   0  0  0  0  0  0  0  0  0  0  0  0
  141.5806  136.5887  153.6909 C   0  0  0  0  0  0  0  0  0  0  0  0
  146.2429  136.0574  152.7664 N   0  0  0  0  0  0  0  0  0  0  0  0
  146.1593  134.6347  153.1224 C   0  0  0  0  0  0  0  0  0  0  0  0
  146.6188  133.7436  151.9625 C   0  0  0  0  0  0  0  0  0  0  0  0
  145.4752  133.2321  151.1526 C   0  0  0  0  0  0  0  0  0  0  0  0
  145.6258  132.5563  150.0101 N   0  0  0  0  0  0  0  0  0  0  0  0
  144.4045  132.1622  149.4575 C   0  0  0  0  0  0  0  0  0  0  0  0
  143.3187  132.5352  150.2081 C   0  0  0  0  0  0  0  0  0  0  0  0
  143.7932  133.3998  151.6445 S   0  0  0  0  0  0  0  0  0  0  0  0
  148.1336  140.2420  152.8128 H   0  0  0  0  0  0  0  0  0  0  0  0
  147.1991  139.4202  154.0586 H   0  0  0  0  0  0  0  0  0  0  0  0
  146.4508  140.6859  153.0834 H   0  0  0  0  0  0  0  0  0  0  0  0
  146.6387  139.2488  151.0389 H   0  0  0  0  0  0  0  0  0  0  0  0
  147.4578  138.0061  151.9712 H   0  0  0  0  0  0  0  0  0  0  0  0
  143.8462  135.5272  153.2938 H   0  0  0  0  0  0  0  0  0  0  0  0
  142.9600  138.2497  153.5898 H   0  0  0  0  0  0  0  0  0  0  0  0
  142.5087  137.6039  152.0201 H   0  0  0  0  0  0  0  0  0  0  0  0
  140.6939  137.2223  153.7185 H   0  0  0  0  0  0  0  0  0  0  0  0
  141.8127  136.2975  154.7158 H   0  0  0  0  0  0  0  0  0  0  0  0
  141.3272  135.6866  153.1333 H   0  0  0  0  0  0  0  0  0  0  0  0
  147.1600  136.4062  152.5271 H   0  0  0  0  0  0  0  0  0  0  0  0
  146.7774  134.4533  154.0023 H   0  0  0  0  0  0  0  0  0  0  0  0
  145.1301  134.3982  153.3939 H   0  0  0  0  0  0  0  0  0  0  0  0
  147.2886  134.2985  151.3045 H   0  0  0  0  0  0  0  0  0  0  0  0
  147.1871  132.8937  152.3428 H   0  0  0  0  0  0  0  0  0  0  0  0
  144.4008  131.6160  148.5259 H   0  0  0  0  0  0  0  0  0  0  0  0
  142.2737  132.3527  150.0051 H   0  0  0  0  0  0  0  0  0  0  0  0
  144.6192  138.8264  152.3642 H   0  0  0  0  0  0  0  0  0  0  0  0
  1  2  1  0  0  0  0
  1 16  1  0  0  0  0
  1 17  1  0  0  0  0
  1 18  1  0  0  0  0
  2  3  1  0  0  0  0
  2 19  1  0  0  0  0
  2 20  1  0  0  0  0
  3  4  2  0  0  0  0
  3 34  1  0  0  0  0
  4  5  1  0  0  0  0
  4  8  1  0  0  0  0
  5  6  1  0  0  0  0
  5 21  1  0  0  0  0
  6  7  1  0  0  0  0
  6 22  1  0  0  0  0
  6 23  1  0  0  0  0
  7 24  1  0  0  0  0
  7 25  1  0  0  0  0
  7 26  1  0  0  0  0
  8  9  1  0  0  0  0
  8 27  1  0  0  0  0
  9 10  1  0  0  0  0
  9 28  1  0  0  0  0
  9 29  1  0  0  0  0
 10 11  1  0  0  0  0
 10 30  1  0  0  0  0
 10 31  1  0  0  0  0
 11 15  1  0  0  0  0
 11 12  2  0  0  0  0
 12 13  1  0  0  0  0
 13 14  2  0  0  0  0
 13 32  1  0  0  0  0
 14 15  1  0  0  0  0
 14 33  1  0  0  0  0
M  CHG  1   3   1
M  END
> <s_m_source_file>
AV-unprocessed.smi

> <i_m_source_file_index>
3179

> <i_lp_mmshare_version>
43012

> <i_f3d_flags>
0

> <s_epik_input>
W0NIM11bQ0gyXS9OPUMoXFtOSF1bQ0gyXVtDSDNdKVtOSF1bQ0gyXVtDSDJdYzFuW2NIXVtjSF1zMQ==

> <s_epik_cmdline>
J2VwaWtfcHl0aG9uJywgJy1waCcsICc3LjAnLCAnLXRuJywgJzgnLCAnLW1hJywgJzIwMCcsICctbWV0YWxfYmluZGluZycsICctaW1hZScsICc8aW5maWxlLm1hZT4nLCAnLW9tYWUnLCAnPG91dGZpbGUubWFlPic=

> <r_lp_tautomer_probability>
1

> <r_epik_Ionization_Penalty>
3.28801e-05

> <r_epik_Ionization_Penalty_Charging>
8.99277e-08

> <r_epik_Ionization_Penalty_Neutral>
3.27902e-05

> <r_epik_State_Penalty>
-0

> <r_epik_Charging_Adjusted_Penalty>
8.99277e-08

> <i_epik_Tot_Q>
1

> <i_epik_Tot_abs_Q>
1

> <r_epik_Metal_State_Penalty>
-0

> <b_epik_Metal_Only>
0

> <s_epik_Chemistry_Notes>
This compound has an imine and may undergo hydrolysis.

> <s_lp_Force_Field>
OPLS_2005

> <r_lp_Energy>
0.365327

> <b_lp_Chiralities_Consistent>
1

> <s_lp_Variant>
AV-unprocessed.smi:3179-2

> <Gold.Version>
5.8.1

> <Gold.Id.Protein>
6NUR|6NUR_protein|mol2

> <Gold.PLP.Fitness>
45.3179

> <Gold.PLP.PLP>
-29.2869

> <Gold.PLP.part.hbond>
-3.0000

> <Gold.PLP.part.metal>
0.0000

> <Gold.PLP.part.buried>
-2.9848

> <Gold.PLP.part.nonpolar>
-24.4753

> <Gold.PLP.part.repulsive>
0.1903

> <Gold.PLP.ligand.clash>
0.0000

> <Gold.PLP.ligand.torsion>
0.3967

> <Gold.PLP.Chemscore.Hbond>
4.0000

> <Gold.PLP.Chemscore.CHOScore>
1.6035

> <Gold.PLP.Chemscore.Metal>
0.0000

> <Gold.Chemscore.Hbonds>
donor molecule, donor type, donor heavy atom, donor atom, acceptor molecule, acceptor atom, score
      L1  H     3    34       P1 10175  2.00
      L1  H     8    27       P1  7948  2.00
      L1  C    14    33       P1 10186  0.68
      L1  C    14    33       P1 10952  1.00

> <Gold.PLP.Chemscore.Internal.Correction>
0.0139

> <Gold.Rescore>
     Score         DG    S(hbond)    S(metal)    S(lipo)     H(rot)  DE(clash)    DE(int)     intcor
     15.37     -15.85       1.94        0.00      70.86       1.72       0.04       0.45       ----

> <Gold.Chemscore.Fitness>
15.3697

> <Gold.Chemscore.DG>
-15.8523

> <Gold.Chemscore.ZeroCoef>
-5.4800

> <Gold.Chemscore.Hbond>
1.9405

> <Gold.Chemscore.Metal>
0.0000

> <Gold.Chemscore.Lipo>
70.8625

> <Gold.Chemscore.Internal_Hbond>
0.0000

> <Gold.Chemscore.DEClash>
0.0357

> <Gold.Chemscore.DEInternal>
0.4469

> <Gold.Chemscore.Rot>
1.7187

> <Gold.Chemscore.Internal.Correction>
   9.000000E+99

> <Gold.Chemscore.Hbonds>
donor molecule, donor type, donor heavy atom, donor atom, acceptor molecule, acceptor atom, score
      L1  H     3    34       P1 10175  0.99
      L1  H     8    27       P1  7948  0.97

> <Gold.Chemscore.Hbond.Weighted>
-6.4812

> <Gold.Chemscore.Metal.Weighted>
-0.0000

> <Gold.Chemscore.Lipo.Weighted>
-8.2909

> <Gold.Chemscore.Internal_Hbond.Weighted>
0.0000

> <Gold.Chemscore.DEClash.Weighted>
0.0357

> <Gold.Chemscore.DEInternal.Weighted>
0.4469

> <Gold.Chemscore.Rot.Weighted>
4.3998

> <Gold.Chemscore.Internal.Correction.Weighted>
   9.000000E+99

> <Gold.Protein.RotatedTorsions>
[ 6907 6896 6895 6894 ] final   63.43 input  -60.11 | X-H torsion
[ 7974 7965 7964 7962 ] final -120.37 input  175.53 | X-H torsion
[ 8008 7997 7996 7995 ] final  -85.46 input   59.86 | X-H torsion
[ 10167 10162 10161 10158 ] final -114.17 input  -65.29 | X-H torsion
[ 10718 10713 10712 10709 ] final  167.40 input   66.30 | X-H torsion
[ 10763 10752 10751 10750 ] final -170.50 input  -60.55 | X-H torsion
[ 11005 11000 10999 10996 ] final -127.68 input  -57.11 | X-H torsion

> <Gold.Protein.ActiveResidues>
 VAL166  LYS551  ARG553  GLY616  TRP617  ASP618  TYR619  PRO620  LYS621  CYS622 
 ASP623  PHE694  ASN695  SER759  ASP760  ASP761  ALA762  ILE779  LEU786  VAL792 
 PHE793  MET794  SER795  GLU796  ALA797  LYS798  CYS799  TRP800  GLU811  SER814 

> <Gold.Protein.RotatedAtoms>
  152.4252  134.5881  159.9966 H   0  0  0  0  0  0  0  0  0  0  0  0  # atno 6907 bound_to 6896
  151.6019  133.3350  159.3057 H   0  0  0  0  0  0  0  0  0  0  0  0  # atno 6908 bound_to 6896
  150.8142  134.7351  159.6780 H   0  0  0  0  0  0  0  0  0  0  0  0  # atno 6909 bound_to 6896
  145.0521  140.8226  143.4203 H   0  0  0  0  0  0  0  0  0  0  0  0  # atno 7974 bound_to 7965
  154.6410  140.0591  156.9845 H   0  0  0  0  0  0  0  0  0  0  0  0  # atno 8008 bound_to 7997
  155.1517  140.3274  155.4411 H   0  0  0  0  0  0  0  0  0  0  0  0  # atno 8009 bound_to 7997
  156.2531  140.1946  156.6629 H   0  0  0  0  0  0  0  0  0  0  0  0  # atno 8010 bound_to 7997
  140.1039  143.4588  152.1795 H   0  0  0  0  0  0  0  0  0  0  0  0  # atno 10167 bound_to 10162
  157.0521  131.0316  151.2677 H   0  0  0  0  0  0  0  0  0  0  0  0  # atno 10718 bound_to 10713
  154.6408  135.2898  155.0105 H   0  0  0  0  0  0  0  0  0  0  0  0  # atno 10763 bound_to 10752
  154.1232  135.6545  153.4911 H   0  0  0  0  0  0  0  0  0  0  0  0  # atno 10764 bound_to 10752
  153.0326  135.5292  154.7275 H   0  0  0  0  0  0  0  0  0  0  0  0  # atno 10765 bound_to 10752
  140.9579  134.0976  157.3998 H   0  0  0  0  0  0  0  0  0  0  0  0  # atno 11005 bound_to 11000
  145.1514  139.2512  143.5439 LP  0  0  0  0  0  0  0  0  0  0  0  0  # atno 17320 bound_to 7965
  146.3518  140.1218  142.8600 LP  0  0  0  0  0  0  0  0  0  0  0  0  # atno 17321 bound_to 7965
  139.5656  144.7433  151.4032 LP  0  0  0  0  0  0  0  0  0  0  0  0  # atno 17342 bound_to 10162
  140.6963  143.7742  150.7331 LP  0  0  0  0  0  0  0  0  0  0  0  0  # atno 17343 bound_to 10162
  157.5022  130.7887  149.7616 LP  0  0  0  0  0  0  0  0  0  0  0  0  # atno 17370 bound_to 10713
  156.0004  130.3883  150.2627 LP  0  0  0  0  0  0  0  0  0  0  0  0  # atno 17371 bound_to 10713
  139.8868  135.0084  156.6523 LP  0  0  0  0  0  0  0  0  0  0  0  0  # atno 17394 bound_to 11000
  140.7509  133.8898  155.8346 LP  0  0  0  0  0  0  0  0  0  0  0  0  # atno 17395 bound_to 11000

$$$$
