AV-unprocessed.smi:54|AV-procd|sdf|552|dock1
  -GOLD-   2262016453D 1   1.00000     0.00000
 Structure written by MMmdl.
 43 45  0  0  0  0  0  0  0  0  2 V2000
  153.0861  143.9370  158.6184 C   0  0  0  0  0  0  0  0  0  0  0  0
  151.9926  143.1366  159.3451 C   0  0  0  0  0  0  0  0  0  0  0  0
  152.5217  142.5276  160.6545 C   0  0  0  0  0  0  0  0  0  0  0  0
  151.4198  142.0447  158.4308 C   0  0  0  0  0  0  0  0  0  0  0  0
  150.2380  142.1106  158.0839 O   0  0  0  0  0  0  0  0  0  0  0  0
  152.2897  141.0727  158.0756 N   0  0  0  0  0  0  0  0  0  0  0  0
  152.0792  139.9556  157.2592 C   0  0  0  0  0  0  0  0  0  0  0  0
  151.0343  139.9017  156.4634 N   0  0  0  0  0  0  0  0  0  0  0  0
  150.9939  138.7337  155.7282 C   0  0  0  0  0  0  0  0  0  0  0  0
  151.8835  137.6954  155.7510 C   0  0  0  0  0  0  0  0  0  0  0  0
  151.5077  136.6852  154.8730 N   0  0  0  0  0  0  0  0  0  0  0  0
  150.3835  137.1747  154.3506 C   0  0  0  0  0  0  0  0  0  0  0  0
  150.0140  138.3887  154.8077 N   0  0  0  0  0  0  0  0  0  0  0  0
  148.8174  139.1961  154.4223 C   0  0  1  0  0  0  0  0  0  0  0  0
  149.0716  140.5407  154.6650 O   0  0  0  0  0  0  0  0  0  0  0  0
  148.2482  141.3376  153.8170 C   0  0  1  0  0  0  0  0  0  0  0  0
  149.1020  142.5029  153.2941 C   0  0  0  0  0  0  0  0  0  0  0  0
  150.3552  142.0321  152.8449 O   0  0  0  0  0  0  0  0  0  0  0  0
  147.7312  140.3962  152.7070 C   0  0  2  0  0  0  0  0  0  0  0  0
  146.3429  140.1865  152.8813 O   0  0  0  0  0  0  0  0  0  0  0  0
  148.4838  139.0918  152.9334 C   0  0  1  0  0  0  0  0  0  0  0  0
  149.6350  139.0244  152.1109 O   0  0  0  0  0  0  0  0  0  0  0  0
  153.0395  137.8274  156.6696 C   0  0  0  0  0  0  0  0  0  0  0  0
  153.8671  136.9198  156.7251 O   0  0  0  0  0  0  0  0  0  0  0  0
  153.0844  138.9852  157.3959 N   0  5  0  0  0  0  0  0  0  0  0  0
  148.0096  138.8470  155.0677 H   0  0  0  0  0  0  0  0  0  0  0  0
  147.4253  141.7270  154.4196 H   0  0  0  0  0  0  0  0  0  0  0  0
  147.8889  140.7942  151.7035 H   0  0  0  0  0  0  0  0  0  0  0  0
  147.8748  138.2053  152.7485 H   0  0  0  0  0  0  0  0  0  0  0  0
  152.7112  144.3655  157.6879 H   0  0  0  0  0  0  0  0  0  0  0  0
  153.9470  143.3129  158.3753 H   0  0  0  0  0  0  0  0  0  0  0  0
  153.4406  144.7615  159.2373 H   0  0  0  0  0  0  0  0  0  0  0  0
  151.1877  143.8277  159.6014 H   0  0  0  0  0  0  0  0  0  0  0  0
  151.7515  141.9426  161.1589 H   0  0  0  0  0  0  0  0  0  0  0  0
  152.8435  143.3080  161.3445 H   0  0  0  0  0  0  0  0  0  0  0  0
  153.3751  141.8718  160.4770 H   0  0  0  0  0  0  0  0  0  0  0  0
  153.2124  141.1586  158.4752 H   0  0  0  0  0  0  0  0  0  0  0  0
  149.8110  136.6312  153.6135 H   0  0  0  0  0  0  0  0  0  0  0  0
  148.6006  142.9879  152.4562 H   0  0  0  0  0  0  0  0  0  0  0  0
  149.2462  143.2595  154.0661 H   0  0  0  0  0  0  0  0  0  0  0  0
  150.2115  141.2939  152.2724 H   0  0  0  0  0  0  0  0  0  0  0  0
  145.8778  140.8739  152.4296 H   0  0  0  0  0  0  0  0  0  0  0  0
  149.7694  138.1242  151.8581 H   0  0  0  0  0  0  0  0  0  0  0  0
  1  2  1  0  0  0  0
  1 30  1  0  0  0  0
  1 31  1  0  0  0  0
  1 32  1  0  0  0  0
  2  3  1  0  0  0  0
  2  4  1  0  0  0  0
  2 33  1  0  0  0  0
  3 34  1  0  0  0  0
  3 35  1  0  0  0  0
  3 36  1  0  0  0  0
  4  5  2  0  0  0  0
  4  6  1  0  0  0  0
  6 37  1  0  0  0  0
  6  7  1  0  0  0  0
  7 25  1  0  0  0  0
  7  8  2  0  0  0  0
  8  9  1  0  0  0  0
  9 13  1  0  0  0  0
  9 10  2  0  0  0  0
 10 11  1  0  0  0  0
 10 23  1  0  0  0  0
 11 12  2  0  0  0  0
 12 13  1  0  0  0  0
 12 38  1  0  0  0  0
 13 14  1  0  0  0  0
 14 26  1  0  0  0  0
 14 21  1  0  0  0  0
 14 15  1  0  0  0  0
 15 16  1  0  0  0  0
 16 27  1  0  0  0  0
 16 17  1  0  0  0  0
 16 19  1  0  0  0  0
 17 18  1  0  0  0  0
 17 39  1  0  0  0  0
 17 40  1  0  0  0  0
 18 41  1  0  0  0  0
 19 28  1  0  0  0  0
 19 20  1  0  0  0  0
 19 21  1  0  0  0  0
 20 42  1  0  0  0  0
 21 29  1  0  0  0  0
 21 22  1  0  0  0  0
 22 43  1  0  0  0  0
 23 24  2  0  0  0  0
 23 25  1  0  0  0  0
M  CHG  1  25  -1
M  END
> <s_m_source_file>
AV-unprocessed.smi

> <i_m_source_file_index>
54

> <i_lp_mmshare_version>
43012

> <i_f3d_flags>
0

> <s_epik_input>
W0NIM11bQ0hdKFtDSDNdKUMoPU8pW05IXWMobjEpW25IXWMoPU8pYyhjMTIpbltjSF1uMltDQEBIXTNPW0NASF0oW0NIMl1bT0hdKVtDQEBIXShbT0hdKVtDQEhdM1tPSF0=

> <s_epik_cmdline>
J2VwaWtfcHl0aG9uJywgJy1waCcsICc3LjAnLCAnLXRuJywgJzgnLCAnLW1hJywgJzIwMCcsICctbWV0YWxfYmluZGluZycsICctaW1hZScsICc8aW5maWxlLm1hZT4nLCAnLW9tYWUnLCAnPG91dGZpbGUubWFlPic=

> <r_lp_tautomer_probability>
0.85571

> <r_epik_Ionization_Penalty>
1.75936

> <r_epik_Ionization_Penalty_Charging>
4.55893e-11

> <r_epik_Ionization_Penalty_Neutral>
1.75936

> <r_epik_State_Penalty>
1.72072

> <r_epik_Charging_Adjusted_Penalty>
1.72072

> <i_epik_Tot_Q>
-1

> <i_epik_Tot_abs_Q>
1

> <r_epik_Metal_State_Penalty>
0.400338

> <b_epik_Metal_Only>
1

> <s_epik_Chemistry_Notes>
This compound contains an acetal/aminal-like group ( X-CH(R)-Y where X, Y are N, S, or O) that may be acid/base labile, releasing an aldehyde.

> <s_lp_Force_Field>
OPLS_2005

> <r_lp_Energy>
59.2625

> <b_lp_Chiralities_Consistent>
1

> <s_lp_Variant>
AV-unprocessed.smi:54-24

> <Gold.Version>
5.8.1

> <Gold.Id.Protein>
6NUR|6NUR_protein|mol2

> <Gold.PLP.Fitness>
57.7117

> <Gold.PLP.PLP>
-35.6472

> <Gold.PLP.part.hbond>
-8.3910

> <Gold.PLP.part.metal>
0.0000

> <Gold.PLP.part.buried>
-3.8761

> <Gold.PLP.part.nonpolar>
-22.8906

> <Gold.PLP.part.repulsive>
0.2701

> <Gold.PLP.ligand.clash>
0.0118

> <Gold.PLP.ligand.torsion>
0.8242

> <Gold.PLP.Chemscore.Hbond>
6.9029

> <Gold.PLP.Chemscore.CHOScore>
0.9897

> <Gold.PLP.Chemscore.Metal>
0.0000

> <Gold.Chemscore.Hbonds>
donor molecule, donor type, donor heavy atom, donor atom, acceptor molecule, acceptor atom, score
      L1  H    18    41       P1  7957  1.00
      L1  H    20    42       P1 10175  0.10
      L1  H    22    43       P1  7948  0.60
      P1  H  7997  8010       L1    25  1.80
      P1  H 10752 10763       L1    11  1.00
      P1  H 10752 10764       L1    24  0.39
      L1  C    12    38       P1  7948  0.81

> <Gold.PLP.Chemscore.Internal.Correction>
0.0470

> <Gold.Rescore>
     Score         DG    S(hbond)    S(metal)    S(lipo)     H(rot)  DE(clash)    DE(int)     intcor
     10.93     -15.91       3.98        0.00      63.56       4.02       0.24       4.74       ----

> <Gold.Chemscore.Fitness>
10.9328

> <Gold.Chemscore.DG>
-15.9129

> <Gold.Chemscore.ZeroCoef>
-5.4800

> <Gold.Chemscore.Hbond>
3.9776

> <Gold.Chemscore.Metal>
0.0000

> <Gold.Chemscore.Lipo>
63.5626

> <Gold.Chemscore.Internal_Hbond>
0.0000

> <Gold.Chemscore.DEClash>
0.2385

> <Gold.Chemscore.DEInternal>
4.7415

> <Gold.Chemscore.Rot>
4.0192

> <Gold.Chemscore.Internal.Correction>
   9.000000E+99

> <Gold.Chemscore.Hbonds>
donor molecule, donor type, donor heavy atom, donor atom, acceptor molecule, acceptor atom, score
      L1  H    18    41       P1  7957  1.00
      L1  H    20    42       P1 10175  0.01
      L1  H    22    43       P1  7948  0.05
      P1  H  7997  8010       L1    25  0.14
      P1  H 10752 10763       L1    11  0.84
      P1  H 10752 10764       L1    24  0.39

> <Gold.Chemscore.Hbond.Weighted>
-13.2853

> <Gold.Chemscore.Metal.Weighted>
-0.0000

> <Gold.Chemscore.Lipo.Weighted>
-7.4368

> <Gold.Chemscore.Internal_Hbond.Weighted>
0.0000

> <Gold.Chemscore.DEClash.Weighted>
0.2385

> <Gold.Chemscore.DEInternal.Weighted>
4.7415

> <Gold.Chemscore.Rot.Weighted>
10.2893

> <Gold.Chemscore.Internal.Correction.Weighted>
   9.000000E+99

> <Gold.Protein.RotatedTorsions>
[ 6907 6896 6895 6894 ] final  167.65 input  -60.11 | X-H torsion
[ 7974 7965 7964 7962 ] final   -0.90 input  175.53 | X-H torsion
[ 8008 7997 7996 7995 ] final   43.12 input   59.86 | X-H torsion
[ 10167 10162 10161 10158 ] final  121.60 input  -65.29 | X-H torsion
[ 10718 10713 10712 10709 ] final -137.45 input   66.30 | X-H torsion
[ 10763 10752 10751 10750 ] final   41.97 input  -60.55 | X-H torsion
[ 11005 11000 10999 10996 ] final  -74.91 input  -57.11 | X-H torsion

> <Gold.Protein.ActiveResidues>
 VAL166  LYS551  ARG553  GLY616  TRP617  ASP618  TYR619  PRO620  LYS621  CYS622 
 ASP623  PHE694  ASN695  SER759  ASP760  ASP761  ALA762  ILE779  LEU786  VAL792 
 PHE793  MET794  SER795  GLU796  ALA797  LYS798  CYS799  TRP800  GLU811  SER814 

> <Gold.Protein.RotatedAtoms>
  151.8600  133.3455  159.3700 H   0  0  0  0  0  0  0  0  0  0  0  0  # atno 6907 bound_to 6896
  150.7182  134.5216  159.5665 H   0  0  0  0  0  0  0  0  0  0  0  0  # atno 6908 bound_to 6896
  152.2727  134.7916  160.0462 H   0  0  0  0  0  0  0  0  0  0  0  0  # atno 6909 bound_to 6896
  146.2423  140.1339  142.8337 H   0  0  0  0  0  0  0  0  0  0  0  0  # atno 7974 bound_to 7965
  155.2975  140.3383  155.4249 H   0  0  0  0  0  0  0  0  0  0  0  0  # atno 8008 bound_to 7997
  156.2017  140.1735  156.7925 H   0  0  0  0  0  0  0  0  0  0  0  0  # atno 8009 bound_to 7997
  154.5568  140.0695  156.8740 H   0  0  0  0  0  0  0  0  0  0  0  0  # atno 8010 bound_to 7997
  139.5909  144.7025  151.3291 H   0  0  0  0  0  0  0  0  0  0  0  0  # atno 10167 bound_to 10162
  156.2882  130.7360  151.1378 H   0  0  0  0  0  0  0  0  0  0  0  0  # atno 10718 bound_to 10713
  152.9894  135.6146  154.2874 H   0  0  0  0  0  0  0  0  0  0  0  0  # atno 10763 bound_to 10752
  154.2601  135.2782  155.2783 H   0  0  0  0  0  0  0  0  0  0  0  0  # atno 10764 bound_to 10752
  154.5213  135.5814  153.6740 H   0  0  0  0  0  0  0  0  0  0  0  0  # atno 10765 bound_to 10752
  141.1640  133.6928  156.7437 H   0  0  0  0  0  0  0  0  0  0  0  0  # atno 11005 bound_to 11000
  145.0303  140.8865  143.5114 LP  0  0  0  0  0  0  0  0  0  0  0  0  # atno 17320 bound_to 7965
  145.1402  139.2577  143.5494 LP  0  0  0  0  0  0  0  0  0  0  0  0  # atno 17321 bound_to 7965
  140.7172  143.7233  150.7679 LP  0  0  0  0  0  0  0  0  0  0  0  0  # atno 17342 bound_to 10162
  140.0789  143.4988  152.2541 LP  0  0  0  0  0  0  0  0  0  0  0  0  # atno 17343 bound_to 10162
  157.7335  131.0590  150.5575 LP  0  0  0  0  0  0  0  0  0  0  0  0  # atno 17370 bound_to 10713
  156.5688  130.4274  149.6029 LP  0  0  0  0  0  0  0  0  0  0  0  0  # atno 17371 bound_to 10713
  140.2656  134.8433  157.3799 LP  0  0  0  0  0  0  0  0  0  0  0  0  # atno 17394 bound_to 11000
  140.1570  134.4777  155.7921 LP  0  0  0  0  0  0  0  0  0  0  0  0  # atno 17395 bound_to 11000

$$$$
