AV-unprocessed.smi:3267|AV-procd|sdf|12505|dock2
  -GOLD-   2272018413D 1   1.00000     0.00000
 Structure written by MMmdl.
 38 39  0  0  0  0  0  0  0  0  1 V2000
  150.8926  135.3385  156.3874 C   0  0  0  0  0  0  0  0  0  0  0  0
  150.1403  136.3460  155.5029 C   0  0  1  0  0  0  0  0  0  0  0  0
  151.0611  137.4225  154.8794 C   0  0  0  0  0  0  0  0  0  0  0  0
  150.7523  138.7778  155.3061 N   0  0  0  0  0  0  0  0  0  0  0  0
  150.1864  139.7998  154.5727 C   0  0  0  0  0  0  0  0  0  0  0  0
  150.0928  140.8867  155.3936 C   0  0  0  0  0  0  0  0  0  0  0  0
  150.6388  140.4281  156.6248 C   0  0  0  0  0  0  0  0  0  0  0  0
  151.0341  139.1668  156.5690 N   0  0  0  0  0  0  0  0  0  0  0  0
  149.3974  135.6222  154.4735 N   0  0  0  0  0  0  0  0  0  0  0  0
  148.7159  134.4838  154.6619 C   0  0  0  0  0  0  0  0  0  0  0  0
  148.6424  133.8933  155.7398 O   0  0  0  0  0  0  0  0  0  0  0  0
  148.1239  134.0696  153.5335 N   0  0  0  0  0  0  0  0  0  0  0  0
  147.3308  132.8533  153.4008 C   0  0  0  0  0  0  0  0  0  0  0  0
  146.8146  132.6749  151.9637 C   0  0  2  0  0  0  0  0  0  0  0  0
  145.8981  133.8034  151.4916 C   0  0  0  0  0  0  0  0  0  0  0  0
  145.0061  133.1396  150.4519 C   0  0  0  0  0  0  0  0  0  0  0  0
  145.2840  131.6435  150.6185 C   0  0  0  0  0  0  0  0  0  0  0  0
  145.9722  131.5382  151.8554 O   0  0  0  0  0  0  0  0  0  0  0  0
  151.4646  135.8493  157.1623 H   0  0  0  0  0  0  0  0  0  0  0  0
  151.5864  134.7291  155.8075 H   0  0  0  0  0  0  0  0  0  0  0  0
  150.1976  134.6612  156.8848 H   0  0  0  0  0  0  0  0  0  0  0  0
  149.4182  136.8582  156.1415 H   0  0  0  0  0  0  0  0  0  0  0  0
  152.1091  137.2142  155.1008 H   0  0  0  0  0  0  0  0  0  0  0  0
  150.9724  137.3875  153.7930 H   0  0  0  0  0  0  0  0  0  0  0  0
  149.8980  139.6684  153.5401 H   0  0  0  0  0  0  0  0  0  0  0  0
  149.6965  141.8617  155.1515 H   0  0  0  0  0  0  0  0  0  0  0  0
  150.7595  140.9704  157.5510 H   0  0  0  0  0  0  0  0  0  0  0  0
  149.3901  136.0299  153.5501 H   0  0  0  0  0  0  0  0  0  0  0  0
  148.2413  134.6292  152.7016 H   0  0  0  0  0  0  0  0  0  0  0  0
  147.8992  131.9783  153.7211 H   0  0  0  0  0  0  0  0  0  0  0  0
  146.4849  132.9381  154.0834 H   0  0  0  0  0  0  0  0  0  0  0  0
  147.6502  132.5657  151.2695 H   0  0  0  0  0  0  0  0  0  0  0  0
  145.2846  134.1643  152.3183 H   0  0  0  0  0  0  0  0  0  0  0  0
  146.4553  134.6519  151.0932 H   0  0  0  0  0  0  0  0  0  0  0  0
  143.9580  133.3724  150.6428 H   0  0  0  0  0  0  0  0  0  0  0  0
  145.2443  133.4695  149.4402 H   0  0  0  0  0  0  0  0  0  0  0  0
  144.3731  131.0445  150.6197 H   0  0  0  0  0  0  0  0  0  0  0  0
  145.9299  131.2808  149.8176 H   0  0  0  0  0  0  0  0  0  0  0  0
  1  2  1  0  0  0  0
  1 19  1  0  0  0  0
  1 20  1  0  0  0  0
  1 21  1  0  0  0  0
  2  3  1  0  0  0  0
  2  9  1  0  0  0  0
  2 22  1  0  0  0  0
  3  4  1  0  0  0  0
  3 23  1  0  0  0  0
  3 24  1  0  0  0  0
  4  8  1  0  0  0  0
  4  5  1  0  0  0  0
  5  6  2  0  0  0  0
  5 25  1  0  0  0  0
  6  7  1  0  0  0  0
  6 26  1  0  0  0  0
  7  8  2  0  0  0  0
  7 27  1  0  0  0  0
  9 10  1  0  0  0  0
  9 28  1  0  0  0  0
 10 11  2  0  0  0  0
 10 12  1  0  0  0  0
 12 13  1  0  0  0  0
 12 29  1  0  0  0  0
 13 14  1  0  0  0  0
 13 30  1  0  0  0  0
 13 31  1  0  0  0  0
 14 18  1  0  0  0  0
 14 15  1  0  0  0  0
 14 32  1  0  0  0  0
 15 16  1  0  0  0  0
 15 33  1  0  0  0  0
 15 34  1  0  0  0  0
 16 17  1  0  0  0  0
 16 35  1  0  0  0  0
 16 36  1  0  0  0  0
 17 18  1  0  0  0  0
 17 37  1  0  0  0  0
 17 38  1  0  0  0  0
M  END
> <s_m_source_file>
AV-unprocessed.smi

> <i_m_source_file_index>
3267

> <i_lp_mmshare_version>
43012

> <i_f3d_flags>
0

> <s_epik_input>
bjFbY0hdW2NIXVtjSF1uMVtDSDJdW0NAQEhdKFtDSDNdKVtOSF1DKD1PKVtOSF1bQ0gyXVtDQEBIXTJbQ0gyXVtDSDJdW0NIMl1PMg==

> <s_epik_cmdline>
J2VwaWtfcHl0aG9uJywgJy1waCcsICc3LjAnLCAnLXRuJywgJzgnLCAnLW1hJywgJzIwMCcsICctbWV0YWxfYmluZGluZycsICctaW1hZScsICc8aW5maWxlLm1hZT4nLCAnLW9tYWUnLCAnPG91dGZpbGUubWFlPic=

> <r_lp_tautomer_probability>
1

> <r_epik_Ionization_Penalty>
6.24796e-05

> <r_epik_Ionization_Penalty_Charging>
0

> <r_epik_Ionization_Penalty_Neutral>
6.24796e-05

> <r_epik_State_Penalty>
-0

> <r_epik_Charging_Adjusted_Penalty>
0

> <i_epik_Tot_Q>
0

> <i_epik_Tot_abs_Q>
0

> <r_epik_Metal_State_Penalty>
-0

> <b_epik_Metal_Only>
0

> <s_lp_Force_Field>
OPLS_2005

> <r_lp_Energy>
14.7816

> <b_lp_Chiralities_Consistent>
1

> <s_lp_Variant>
AV-unprocessed.smi:3267-2

> <Gold.Version>
5.8.1

> <Gold.Id.Protein>
6NUR|6NUR_protein|mol2

> <Gold.PLP.Fitness>
36.3863

> <Gold.PLP.PLP>
-29.4846

> <Gold.PLP.part.hbond>
-2.0000

> <Gold.PLP.part.metal>
0.0000

> <Gold.PLP.part.buried>
-2.2823

> <Gold.PLP.part.nonpolar>
-25.3048

> <Gold.PLP.part.repulsive>
0.2011

> <Gold.PLP.ligand.clash>
0.0000

> <Gold.PLP.ligand.torsion>
1.0707

> <Gold.PLP.Chemscore.Hbond>
1.9920

> <Gold.PLP.Chemscore.CHOScore>
1.0000

> <Gold.PLP.Chemscore.Metal>
0.0000

> <Gold.Chemscore.Hbonds>
donor molecule, donor type, donor heavy atom, donor atom, acceptor molecule, acceptor atom, score
      L1  H     9    28       P1  7948  1.00
      L1  H    12    29       P1  7948  0.99
      L1  C     5    25       P1  7957  1.00

> <Gold.PLP.Chemscore.Internal.Correction>
0.0670

> <Gold.Rescore>
     Score         DG    S(hbond)    S(metal)    S(lipo)     H(rot)  DE(clash)    DE(int)     intcor
     11.28     -13.80       1.67        0.00      64.44       1.87       0.00       2.52       ----

> <Gold.Chemscore.Fitness>
11.2785

> <Gold.Chemscore.DG>
-13.8013

> <Gold.Chemscore.ZeroCoef>
-5.4800

> <Gold.Chemscore.Hbond>
1.6692

> <Gold.Chemscore.Metal>
0.0000

> <Gold.Chemscore.Lipo>
64.4389

> <Gold.Chemscore.Internal_Hbond>
0.0000

> <Gold.Chemscore.DEClash>
0.0000

> <Gold.Chemscore.DEInternal>
2.5228

> <Gold.Chemscore.Rot>
1.8724

> <Gold.Chemscore.Internal.Correction>
   9.000000E+99

> <Gold.Chemscore.Hbonds>
donor molecule, donor type, donor heavy atom, donor atom, acceptor molecule, acceptor atom, score
      L1  H     9    28       P1  7948  0.60
      L1  H    12    29       P1  7948  0.42

> <Gold.Chemscore.Hbond.Weighted>
-5.5752

> <Gold.Chemscore.Metal.Weighted>
-0.0000

> <Gold.Chemscore.Lipo.Weighted>
-7.5393

> <Gold.Chemscore.Internal_Hbond.Weighted>
0.0000

> <Gold.Chemscore.DEClash.Weighted>
0.0000

> <Gold.Chemscore.DEInternal.Weighted>
2.5228

> <Gold.Chemscore.Rot.Weighted>
4.7933

> <Gold.Chemscore.Internal.Correction.Weighted>
   9.000000E+99

> <Gold.Protein.RotatedTorsions>
[ 6907 6896 6895 6894 ] final  175.28 input  -60.11 | X-H torsion
[ 7974 7965 7964 7962 ] final  173.76 input  175.53 | X-H torsion
[ 8008 7997 7996 7995 ] final -121.74 input   59.86 | X-H torsion
[ 10167 10162 10161 10158 ] final  150.23 input  -65.29 | X-H torsion
[ 10718 10713 10712 10709 ] final   35.11 input   66.30 | X-H torsion
[ 10763 10752 10751 10750 ] final   57.27 input  -60.55 | X-H torsion
[ 11005 11000 10999 10996 ] final  155.75 input  -57.11 | X-H torsion

> <Gold.Protein.ActiveResidues>
 VAL166  LYS551  ARG553  GLY616  TRP617  ASP618  TYR619  PRO620  LYS621  CYS622 
 ASP623  PHE694  ASN695  SER759  ASP760  ASP761  ALA762  ILE779  LEU786  VAL792 
 PHE793  MET794  SER795  GLU796  ALA797  LYS798  CYS799  TRP800  GLU811  SER814 

> <Gold.Protein.RotatedAtoms>
  151.7388  133.3321  159.3359 H   0  0  0  0  0  0  0  0  0  0  0  0  # atno 6907 bound_to 6896
  150.7582  134.6297  159.6189 H   0  0  0  0  0  0  0  0  0  0  0  0  # atno 6908 bound_to 6896
  152.3544  134.6963  160.0278 H   0  0  0  0  0  0  0  0  0  0  0  0  # atno 6909 bound_to 6896
  144.7236  139.9696  143.6436 H   0  0  0  0  0  0  0  0  0  0  0  0  # atno 7974 bound_to 7965
  155.1529  140.0404  157.2825 H   0  0  0  0  0  0  0  0  0  0  0  0  # atno 8008 bound_to 7997
  154.6391  140.2542  155.7316 H   0  0  0  0  0  0  0  0  0  0  0  0  # atno 8009 bound_to 7997
  156.2523  140.2859  156.0777 H   0  0  0  0  0  0  0  0  0  0  0  0  # atno 8010 bound_to 7997
  139.4852  144.5539  151.7352 H   0  0  0  0  0  0  0  0  0  0  0  0  # atno 10167 bound_to 10162
  157.3186  130.7436  149.6770 H   0  0  0  0  0  0  0  0  0  0  0  0  # atno 10718 bound_to 10713
  152.9847  135.5647  154.5364 H   0  0  0  0  0  0  0  0  0  0  0  0  # atno 10763 bound_to 10752
  154.4826  135.2789  155.1561 H   0  0  0  0  0  0  0  0  0  0  0  0  # atno 10764 bound_to 10752
  154.3063  135.6297  153.5499 H   0  0  0  0  0  0  0  0  0  0  0  0  # atno 10765 bound_to 10752
  140.1611  134.8609  157.2575 H   0  0  0  0  0  0  0  0  0  0  0  0  # atno 11005 bound_to 11000
  146.0573  139.3569  143.0602 LP  0  0  0  0  0  0  0  0  0  0  0  0  # atno 17320 bound_to 7965
  145.8138  140.9713  143.0935 LP  0  0  0  0  0  0  0  0  0  0  0  0  # atno 17321 bound_to 7965
  140.5097  144.1043  150.5992 LP  0  0  0  0  0  0  0  0  0  0  0  0  # atno 17342 bound_to 10162
  140.3965  143.2725  151.9999 LP  0  0  0  0  0  0  0  0  0  0  0  0  # atno 17343 bound_to 10162
  155.9684  130.4230  150.4541 LP  0  0  0  0  0  0  0  0  0  0  0  0  # atno 17370 bound_to 10713
  157.2553  131.0555  151.2354 LP  0  0  0  0  0  0  0  0  0  0  0  0  # atno 17371 bound_to 10713
  140.2489  134.3706  155.7450 LP  0  0  0  0  0  0  0  0  0  0  0  0  # atno 17394 bound_to 11000
  141.2209  133.7306  156.8905 LP  0  0  0  0  0  0  0  0  0  0  0  0  # atno 17395 bound_to 11000

$$$$
