AV-unprocessed.smi:1434|AV-procd|sdf|5852|dock10
  -GOLD-   22720 5523D 1   1.00000     0.00000
 Structure written by MMmdl.
 45 46  0  0  0  0  0  0  0  0  2 V2000
  151.5983  137.1579  158.0543 C   0  0  0  0  0  0  0  0  0  0  0  0
  152.8600  137.8085  156.8876 S   0  0  0  0  0  0  0  0  0  0  0  0
  153.2622  139.1560  157.3175 O   0  0  0  0  0  0  0  0  0  0  0  0
  153.8761  136.7670  156.6719 O   0  0  0  0  0  0  0  0  0  0  0  0
  151.9614  137.9786  155.4254 N   0  0  0  0  0  0  0  0  0  0  0  0
  150.7318  138.7719  155.4506 C   0  0  1  0  0  0  0  0  0  0  0  0
  151.0471  140.2408  155.8045 C   0  0  0  0  0  0  0  0  0  0  0  0
  149.8079  141.1429  155.6474 C   0  0  0  0  0  0  0  0  0  0  0  0
  149.1387  140.9307  154.2768 C   0  0  0  0  0  0  0  0  0  0  0  0
  148.8085  139.5025  154.1281 N   0  0  0  0  0  0  0  0  0  0  0  0
  147.5779  138.9493  154.2704 C   0  0  0  0  0  0  0  0  0  0  0  0
  146.6626  139.4873  154.8949 O   0  0  0  0  0  0  0  0  0  0  0  0
  147.4406  137.7339  153.7161 N   0  0  0  0  0  0  0  0  0  0  0  0
  146.2206  136.9400  153.7599 C   0  0  0  0  0  0  0  0  0  0  0  0
  145.4904  136.9913  152.4113 C   0  0  0  0  0  0  0  0  0  0  0  0
  145.3116  135.6124  151.8065 C   0  0  0  0  0  0  0  0  0  0  0  0
  144.0461  135.1208  151.4186 C   0  0  0  0  0  0  0  0  0  0  0  0
  143.9518  133.8328  150.8512 C   0  0  0  0  0  0  0  0  0  0  0  0
  145.1229  133.0649  150.6834 C   0  0  0  0  0  0  0  0  0  0  0  0
  146.3607  133.6056  151.0870 C   0  0  0  0  0  0  0  0  0  0  0  0
  146.4101  134.8437  151.6262 N   0  3  0  0  0  0  0  0  0  0  0  0
  150.0234  138.6795  154.0853 C   0  0  0  0  0  0  0  0  0  0  0  0
  152.0586  136.9909  159.0280 H   0  0  0  0  0  0  0  0  0  0  0  0
  151.2030  136.2160  157.6749 H   0  0  0  0  0  0  0  0  0  0  0  0
  150.7875  137.8787  158.1558 H   0  0  0  0  0  0  0  0  0  0  0  0
  151.8012  137.0717  154.9875 H   0  0  0  0  0  0  0  0  0  0  0  0
  150.0661  138.3564  156.2092 H   0  0  0  0  0  0  0  0  0  0  0  0
  151.4360  140.3155  156.8204 H   0  0  0  0  0  0  0  0  0  0  0  0
  151.8350  140.6096  155.1461 H   0  0  0  0  0  0  0  0  0  0  0  0
  149.0918  140.9200  156.4395 H   0  0  0  0  0  0  0  0  0  0  0  0
  150.0905  142.1888  155.7709 H   0  0  0  0  0  0  0  0  0  0  0  0
  148.2810  141.5958  154.1780 H   0  0  0  0  0  0  0  0  0  0  0  0
  149.8239  141.2247  153.4804 H   0  0  0  0  0  0  0  0  0  0  0  0
  148.2342  137.3395  153.2324 H   0  0  0  0  0  0  0  0  0  0  0  0
  146.4651  135.9058  154.0091 H   0  0  0  0  0  0  0  0  0  0  0  0
  145.5774  137.3211  154.5547 H   0  0  0  0  0  0  0  0  0  0  0  0
  144.5101  137.4551  152.5318 H   0  0  0  0  0  0  0  0  0  0  0  0
  146.0441  137.6183  151.7109 H   0  0  0  0  0  0  0  0  0  0  0  0
  143.1582  135.7221  151.5500 H   0  0  0  0  0  0  0  0  0  0  0  0
  142.9928  133.4394  150.5472 H   0  0  0  0  0  0  0  0  0  0  0  0
  145.0719  132.0766  150.2500 H   0  0  0  0  0  0  0  0  0  0  0  0
  147.3055  133.0902  150.9949 H   0  0  0  0  0  0  0  0  0  0  0  0
  150.6774  139.0442  153.2915 H   0  0  0  0  0  0  0  0  0  0  0  0
  149.8114  137.6383  153.8364 H   0  0  0  0  0  0  0  0  0  0  0  0
  147.3171  135.2156  151.9090 H   0  0  0  0  0  0  0  0  0  0  0  0
  1  2  1  0  0  0  0
  1 23  1  0  0  0  0
  1 24  1  0  0  0  0
  1 25  1  0  0  0  0
  2  3  2  0  0  0  0
  2  4  2  0  0  0  0
  2  5  1  0  0  0  0
  5  6  1  0  0  0  0
  5 26  1  0  0  0  0
  6 22  1  0  0  0  0
  6  7  1  0  0  0  0
  6 27  1  0  0  0  0
  7  8  1  0  0  0  0
  7 28  1  0  0  0  0
  7 29  1  0  0  0  0
  8  9  1  0  0  0  0
  8 30  1  0  0  0  0
  8 31  1  0  0  0  0
  9 10  1  0  0  0  0
  9 32  1  0  0  0  0
  9 33  1  0  0  0  0
 10 11  1  0  0  0  0
 10 22  1  0  0  0  0
 11 12  2  0  0  0  0
 11 13  1  0  0  0  0
 13 14  1  0  0  0  0
 13 34  1  0  0  0  0
 14 15  1  0  0  0  0
 14 35  1  0  0  0  0
 14 36  1  0  0  0  0
 15 16  1  0  0  0  0
 15 37  1  0  0  0  0
 15 38  1  0  0  0  0
 16 21  1  0  0  0  0
 16 17  2  0  0  0  0
 17 18  1  0  0  0  0
 17 39  1  0  0  0  0
 18 19  2  0  0  0  0
 18 40  1  0  0  0  0
 19 20  1  0  0  0  0
 19 41  1  0  0  0  0
 20 21  2  0  0  0  0
 20 42  1  0  0  0  0
 21 45  1  0  0  0  0
 22 43  1  0  0  0  0
 22 44  1  0  0  0  0
M  CHG  1  21   1
M  END
> <s_m_source_file>
AV-unprocessed.smi

> <i_m_source_file_index>
1434

> <i_lp_mmshare_version>
43012

> <i_f3d_flags>
0

> <s_epik_input>
W0NIM11TKD1PKSg9TylbTkhdW0NAQEhdMVtDSDJdW0NIMl1bQ0gyXU4oW0NIMl0xKUMoPU8pW05IXVtDSDJdW0NIMl1jMltjSF1bY0hdW2NIXVtjSF1uMg==

> <s_epik_cmdline>
J2VwaWtfcHl0aG9uJywgJy1waCcsICc3LjAnLCAnLXRuJywgJzgnLCAnLW1hJywgJzIwMCcsICctbWV0YWxfYmluZGluZycsICctaW1hZScsICc8aW5maWxlLm1hZT4nLCAnLW9tYWUnLCAnPG91dGZpbGUubWFlPic=

> <r_epik_Ionization_Penalty>
1.55113

> <r_epik_Ionization_Penalty_Charging>
1.55107

> <r_epik_Ionization_Penalty_Neutral>
6.01346e-05

> <r_epik_State_Penalty>
1.64529

> <r_epik_Charging_Adjusted_Penalty>
3.19637

> <i_epik_Tot_Q>
1

> <i_epik_Tot_abs_Q>
1

> <r_epik_Metal_State_Penalty>
1.69621

> <b_epik_Metal_Only>
0

> <s_lp_Force_Field>
OPLS_2005

> <r_lp_Energy>
28.1725

> <b_lp_Chiralities_Consistent>
1

> <s_lp_Variant>
AV-unprocessed.smi:1434-4

> <Gold.Version>
5.8.1

> <Gold.Id.Protein>
6NUR|6NUR_protein|mol2

> <Gold.PLP.Fitness>
47.6653

> <Gold.PLP.PLP>
-34.9371

> <Gold.PLP.part.hbond>
-4.0000

> <Gold.PLP.part.metal>
0.0000

> <Gold.PLP.part.buried>
-4.3756

> <Gold.PLP.part.nonpolar>
-27.9147

> <Gold.PLP.part.repulsive>
0.1425

> <Gold.PLP.ligand.clash>
0.0000

> <Gold.PLP.ligand.torsion>
0.9070

> <Gold.PLP.Chemscore.Hbond>
4.7920

> <Gold.PLP.Chemscore.CHOScore>
0.0000

> <Gold.PLP.Chemscore.Metal>
0.0000

> <Gold.Chemscore.Hbonds>
donor molecule, donor type, donor heavy atom, donor atom, acceptor molecule, acceptor atom, score
      L1  H    13    34       P1  7948  1.00
      L1  H    21    45       P1  7948  2.00
      P1  H  7997  8009       L1     3  1.00
      P1  H 10752 10763       L1     4  0.82

> <Gold.PLP.Chemscore.Internal.Correction>
0.1661

> <Gold.Rescore>
     Score         DG    S(hbond)    S(metal)    S(lipo)     H(rot)  DE(clash)    DE(int)     intcor
     20.27     -21.68       3.81        0.00      76.38       2.13       0.01       1.41       ----

> <Gold.Chemscore.Fitness>
20.2679

> <Gold.Chemscore.DG>
-21.6828

> <Gold.Chemscore.ZeroCoef>
-5.4800

> <Gold.Chemscore.Hbond>
3.8102

> <Gold.Chemscore.Metal>
0.0000

> <Gold.Chemscore.Lipo>
76.3786

> <Gold.Chemscore.Internal_Hbond>
0.0000

> <Gold.Chemscore.DEClash>
0.0089

> <Gold.Chemscore.DEInternal>
1.4061

> <Gold.Chemscore.Rot>
2.1326

> <Gold.Chemscore.Internal.Correction>
   9.000000E+99

> <Gold.Chemscore.Hbonds>
donor molecule, donor type, donor heavy atom, donor atom, acceptor molecule, acceptor atom, score
      L1  H    13    34       P1  7948  0.95
      L1  H    21    45       P1  7948  0.97
      P1  H  7997  8009       L1     3  0.97
      P1  H 10752 10763       L1     4  0.79

> <Gold.Chemscore.Hbond.Weighted>
-12.7261

> <Gold.Chemscore.Metal.Weighted>
-0.0000

> <Gold.Chemscore.Lipo.Weighted>
-8.9363

> <Gold.Chemscore.Internal_Hbond.Weighted>
0.0000

> <Gold.Chemscore.DEClash.Weighted>
0.0089

> <Gold.Chemscore.DEInternal.Weighted>
1.4061

> <Gold.Chemscore.Rot.Weighted>
5.4595

> <Gold.Chemscore.Internal.Correction.Weighted>
   9.000000E+99

> <Gold.Protein.RotatedTorsions>
[ 6907 6896 6895 6894 ] final -100.79 input  -60.11 | X-H torsion
[ 7974 7965 7964 7962 ] final  -71.73 input  175.53 | X-H torsion
[ 8008 7997 7996 7995 ] final  173.79 input   59.86 | X-H torsion
[ 10167 10162 10161 10158 ] final -115.03 input  -65.29 | X-H torsion
[ 10718 10713 10712 10709 ] final -161.72 input   66.30 | X-H torsion
[ 10763 10752 10751 10750 ] final  135.21 input  -60.55 | X-H torsion
[ 11005 11000 10999 10996 ] final  -90.54 input  -57.11 | X-H torsion

> <Gold.Protein.ActiveResidues>
 VAL166  LYS551  ARG553  GLY616  TRP617  ASP618  TYR619  PRO620  LYS621  CYS622 
 ASP623  PHE694  ASN695  SER759  ASP760  ASP761  ALA762  ILE779  LEU786  VAL792 
 PHE793  MET794  SER795  GLU796  ALA797  LYS798  CYS799  TRP800  GLU811  SER814 

> <Gold.Protein.RotatedAtoms>
  150.7129  134.0833  159.3905 H   0  0  0  0  0  0  0  0  0  0  0  0  # atno 6907 bound_to 6896
  151.8817  135.0448  160.0498 H   0  0  0  0  0  0  0  0  0  0  0  0  # atno 6908 bound_to 6896
  152.2562  133.5222  159.5391 H   0  0  0  0  0  0  0  0  0  0  0  0  # atno 6909 bound_to 6896
  145.6744  140.9210  143.0866 H   0  0  0  0  0  0  0  0  0  0  0  0  # atno 7974 bound_to 7965
  156.1040  140.1451  156.9429 H   0  0  0  0  0  0  0  0  0  0  0  0  # atno 8008 bound_to 7997
  154.4721  140.0906  156.7216 H   0  0  0  0  0  0  0  0  0  0  0  0  # atno 8009 bound_to 7997
  155.4711  140.3442  155.4328 H   0  0  0  0  0  0  0  0  0  0  0  0  # atno 8010 bound_to 7997
  140.0945  143.4669  152.1850 H   0  0  0  0  0  0  0  0  0  0  0  0  # atno 10167 bound_to 10162
  156.6002  130.8807  151.2912 H   0  0  0  0  0  0  0  0  0  0  0  0  # atno 10718 bound_to 10713
  153.8363  135.3097  155.3423 H   0  0  0  0  0  0  0  0  0  0  0  0  # atno 10763 bound_to 10752
  154.7951  135.4760  154.0146 H   0  0  0  0  0  0  0  0  0  0  0  0  # atno 10764 bound_to 10752
  153.1603  135.6859  153.8844 H   0  0  0  0  0  0  0  0  0  0  0  0  # atno 10765 bound_to 10752
  141.1563  133.7699  156.9753 H   0  0  0  0  0  0  0  0  0  0  0  0  # atno 11005 bound_to 11000
  144.7046  139.8614  143.7434 LP  0  0  0  0  0  0  0  0  0  0  0  0  # atno 17320 bound_to 7965
  146.1018  139.4014  143.0342 LP  0  0  0  0  0  0  0  0  0  0  0  0  # atno 17321 bound_to 7965
  139.5706  144.7460  151.3901 LP  0  0  0  0  0  0  0  0  0  0  0  0  # atno 17342 bound_to 10162
  140.7011  143.7629  150.7404 LP  0  0  0  0  0  0  0  0  0  0  0  0  # atno 17343 bound_to 10162
  157.7281  130.9653  150.1730 LP  0  0  0  0  0  0  0  0  0  0  0  0  # atno 17370 bound_to 10713
  156.2476  130.3697  149.8268 LP  0  0  0  0  0  0  0  0  0  0  0  0  # atno 17371 bound_to 10713
  140.1102  134.9481  157.2054 LP  0  0  0  0  0  0  0  0  0  0  0  0  # atno 17394 bound_to 11000
  140.3203  134.2923  155.7247 LP  0  0  0  0  0  0  0  0  0  0  0  0  # atno 17395 bound_to 11000

$$$$
