AV-unprocessed.smi:1750|AV-procd|sdf|7054|dock2
  -GOLD-   22720 8273D 1   1.00000     0.00000
 Structure written by MMmdl.
 35 36  0  0  0  0  0  0  0  0  2 V2000
  152.9695  142.9102  159.4874 C   0  0  0  0  0  0  0  0  0  0  0  0
  153.9594  141.9966  160.2178 C   0  0  0  0  0  0  0  0  0  0  0  0
  154.3721  140.7810  159.3763 C   0  0  0  0  0  0  0  0  0  0  0  0
  153.2244  139.8740  159.0806 C   0  0  0  0  0  0  0  0  0  0  0  0
  153.2441  138.5665  159.3526 N   0  0  0  0  0  0  0  0  0  0  0  0
  152.0741  137.9331  158.9593 N   0  0  0  0  0  0  0  0  0  0  0  0
  151.2000  138.7616  158.3701 C   0  0  0  0  0  0  0  0  0  0  0  0
  150.0079  138.3462  157.9106 N   0  5  0  0  0  0  0  0  0  0  0  0
  149.4429  137.2262  158.4165 C   0  0  0  0  0  0  0  0  0  0  0  0
  150.0034  136.1432  158.5998 O   0  0  0  0  0  0  0  0  0  0  0  0
  148.1484  137.3675  158.7290 N   0  0  0  0  0  0  0  0  0  0  0  0
  147.3016  136.3251  159.2956 C   0  0  0  0  0  0  0  0  0  0  0  0
  147.8227  135.8832  160.6706 C   0  0  2  0  0  0  0  0  0  0  0  0
  146.9046  134.9260  161.4276 C   0  0  0  0  0  0  0  0  0  0  0  0
  147.3279  135.1181  162.8743 C   0  0  0  0  0  0  0  0  0  0  0  0
  148.0366  136.4771  162.8778 C   0  0  0  0  0  0  0  0  0  0  0  0
  147.8997  136.9875  161.5572 O   0  0  0  0  0  0  0  0  0  0  0  0
  151.7629  140.4302  158.2825 S   0  0  0  0  0  0  0  0  0  0  0  0
  152.6924  143.7597  160.1117 H   0  0  0  0  0  0  0  0  0  0  0  0
  152.0560  142.3742  159.2293 H   0  0  0  0  0  0  0  0  0  0  0  0
  153.4016  143.3013  158.5659 H   0  0  0  0  0  0  0  0  0  0  0  0
  154.8458  142.5720  160.4874 H   0  0  0  0  0  0  0  0  0  0  0  0
  153.5143  141.6587  161.1545 H   0  0  0  0  0  0  0  0  0  0  0  0
  154.8119  141.1092  158.4337 H   0  0  0  0  0  0  0  0  0  0  0  0
  155.1408  140.2082  159.8961 H   0  0  0  0  0  0  0  0  0  0  0  0
  147.7236  138.2683  158.5664 H   0  0  0  0  0  0  0  0  0  0  0  0
  146.2800  136.6959  159.3929 H   0  0  0  0  0  0  0  0  0  0  0  0
  147.2702  135.4760  158.6113 H   0  0  0  0  0  0  0  0  0  0  0  0
  148.8180  135.4452  160.5728 H   0  0  0  0  0  0  0  0  0  0  0  0
  145.8637  135.2292  161.3064 H   0  0  0  0  0  0  0  0  0  0  0  0
  146.9970  133.8932  161.0905 H   0  0  0  0  0  0  0  0  0  0  0  0
  146.4698  135.0987  163.5470 H   0  0  0  0  0  0  0  0  0  0  0  0
  148.0172  134.3326  163.1861 H   0  0  0  0  0  0  0  0  0  0  0  0
  147.6075  137.1686  163.6033 H   0  0  0  0  0  0  0  0  0  0  0  0
  149.0953  136.3560  163.1103 H   0  0  0  0  0  0  0  0  0  0  0  0
  1  2  1  0  0  0  0
  1 19  1  0  0  0  0
  1 20  1  0  0  0  0
  1 21  1  0  0  0  0
  2  3  1  0  0  0  0
  2 22  1  0  0  0  0
  2 23  1  0  0  0  0
  3  4  1  0  0  0  0
  3 24  1  0  0  0  0
  3 25  1  0  0  0  0
  4 18  1  0  0  0  0
  4  5  2  0  0  0  0
  5  6  1  0  0  0  0
  6  7  2  0  0  0  0
  7  8  1  0  0  0  0
  7 18  1  0  0  0  0
  8  9  1  0  0  0  0
  9 10  2  0  0  0  0
  9 11  1  0  0  0  0
 11 12  1  0  0  0  0
 11 26  1  0  0  0  0
 12 13  1  0  0  0  0
 12 27  1  0  0  0  0
 12 28  1  0  0  0  0
 13 17  1  0  0  0  0
 13 14  1  0  0  0  0
 13 29  1  0  0  0  0
 14 15  1  0  0  0  0
 14 30  1  0  0  0  0
 14 31  1  0  0  0  0
 15 16  1  0  0  0  0
 15 32  1  0  0  0  0
 15 33  1  0  0  0  0
 16 17  1  0  0  0  0
 16 34  1  0  0  0  0
 16 35  1  0  0  0  0
M  CHG  1   8  -1
M  END
> <s_m_source_file>
AV-unprocessed.smi

> <i_m_source_file_index>
1750

> <i_lp_mmshare_version>
43012

> <i_f3d_flags>
0

> <s_epik_input>
W0NIM11bQ0gyXVtDSDJdYzFubmMoczEpW05IXUMoPU8pW05IXVtDSDJdW0NAQEhdMltDSDJdW0NIMl1bQ0gyXU8y

> <s_epik_cmdline>
J2VwaWtfcHl0aG9uJywgJy1waCcsICc3LjAnLCAnLXRuJywgJzgnLCAnLW1hJywgJzIwMCcsICctbWV0YWxfYmluZGluZycsICctaW1hZScsICc8aW5maWxlLm1hZT4nLCAnLW9tYWUnLCAnPG91dGZpbGUubWFlPic=

> <r_lp_tautomer_probability>
1

> <r_epik_Ionization_Penalty>
4.22484

> <r_epik_Ionization_Penalty_Charging>
4.21437

> <r_epik_Ionization_Penalty_Neutral>
0.0104685

> <r_epik_State_Penalty>
4.21389

> <r_epik_Charging_Adjusted_Penalty>
8.42826

> <i_epik_Tot_Q>
-1

> <i_epik_Tot_abs_Q>
1

> <r_epik_Metal_State_Penalty>
0.69377

> <b_epik_Metal_Only>
1

> <s_lp_Force_Field>
OPLS_2005

> <r_lp_Energy>
11.1337

> <b_lp_Chiralities_Consistent>
1

> <s_lp_Variant>
AV-unprocessed.smi:1750-3

> <Gold.Version>
5.8.1

> <Gold.Id.Protein>
6NUR|6NUR_protein|mol2

> <Gold.PLP.Fitness>
41.5196

> <Gold.PLP.PLP>
-35.8768

> <Gold.PLP.part.hbond>
-3.0000

> <Gold.PLP.part.metal>
0.0000

> <Gold.PLP.part.buried>
-5.4858

> <Gold.PLP.part.nonpolar>
-27.8770

> <Gold.PLP.part.repulsive>
0.1438

> <Gold.PLP.ligand.clash>
0.0000

> <Gold.PLP.ligand.torsion>
0.5657

> <Gold.PLP.Chemscore.Hbond>
2.2270

> <Gold.PLP.Chemscore.CHOScore>
0.0000

> <Gold.PLP.Chemscore.Metal>
0.0000

> <Gold.Chemscore.Hbonds>
donor molecule, donor type, donor heavy atom, donor atom, acceptor molecule, acceptor atom, score
      P1  H  6896  6907       L1    10  0.99
      P1  H  6931  6943       L1    17  0.50
      P1  H  6934  6947       L1    17  0.34

> <Gold.PLP.Chemscore.Internal.Correction>
0.0933

> <Gold.Rescore>
     Score         DG    S(hbond)    S(metal)    S(lipo)     H(rot)  DE(clash)    DE(int)     intcor
     13.66     -17.24       1.86        0.00      82.21       1.59       0.08       3.50       ----

> <Gold.Chemscore.Fitness>
13.6594

> <Gold.Chemscore.DG>
-17.2436

> <Gold.Chemscore.ZeroCoef>
-5.4800

> <Gold.Chemscore.Hbond>
1.8628

> <Gold.Chemscore.Metal>
0.0000

> <Gold.Chemscore.Lipo>
82.2053

> <Gold.Chemscore.Internal_Hbond>
0.0000

> <Gold.Chemscore.DEClash>
0.0797

> <Gold.Chemscore.DEInternal>
3.5045

> <Gold.Chemscore.Rot>
1.5922

> <Gold.Chemscore.Internal.Correction>
   9.000000E+99

> <Gold.Chemscore.Hbonds>
donor molecule, donor type, donor heavy atom, donor atom, acceptor molecule, acceptor atom, score
      P1  H  6896  6907       L1    10  0.93
      P1  H  6931  6943       L1    17  0.02
      P1  H  6934  6947       L1    17  0.34

> <Gold.Chemscore.Hbond.Weighted>
-6.2216

> <Gold.Chemscore.Metal.Weighted>
-0.0000

> <Gold.Chemscore.Lipo.Weighted>
-9.6180

> <Gold.Chemscore.Internal_Hbond.Weighted>
0.0000

> <Gold.Chemscore.DEClash.Weighted>
0.0797

> <Gold.Chemscore.DEInternal.Weighted>
3.5045

> <Gold.Chemscore.Rot.Weighted>
4.0761

> <Gold.Chemscore.Internal.Correction.Weighted>
   9.000000E+99

> <Gold.Protein.RotatedTorsions>
[ 6907 6896 6895 6894 ] final  -67.03 input  -60.11 | X-H torsion
[ 7974 7965 7964 7962 ] final   77.83 input  175.53 | X-H torsion
[ 8008 7997 7996 7995 ] final  -59.30 input   59.86 | X-H torsion
[ 10167 10162 10161 10158 ] final   68.90 input  -65.29 | X-H torsion
[ 10718 10713 10712 10709 ] final  163.85 input   66.30 | X-H torsion
[ 10763 10752 10751 10750 ] final  -76.30 input  -60.55 | X-H torsion
[ 11005 11000 10999 10996 ] final   77.96 input  -57.11 | X-H torsion

> <Gold.Protein.ActiveResidues>
 VAL166  LYS551  ARG553  GLY616  TRP617  ASP618  TYR619  PRO620  LYS621  CYS622 
 ASP623  PHE694  ASN695  SER759  ASP760  ASP761  ALA762  ILE779  LEU786  VAL792 
 PHE793  MET794  SER795  GLU796  ALA797  LYS798  CYS799  TRP800  GLU811  SER814 

> <Gold.Protein.RotatedAtoms>
  150.7432  134.5938  159.6001 H   0  0  0  0  0  0  0  0  0  0  0  0  # atno 6907 bound_to 6896
  152.3319  134.7245  160.0296 H   0  0  0  0  0  0  0  0  0  0  0  0  # atno 6908 bound_to 6896
  151.7727  133.3307  159.3485 H   0  0  0  0  0  0  0  0  0  0  0  0  # atno 6909 bound_to 6896
  145.6849  139.2535  143.1793 H   0  0  0  0  0  0  0  0  0  0  0  0  # atno 7974 bound_to 7965
  154.4346  140.1065  156.6094 H   0  0  0  0  0  0  0  0  0  0  0  0  # atno 8008 bound_to 7997
  155.5826  140.3491  155.4525 H   0  0  0  0  0  0  0  0  0  0  0  0  # atno 8009 bound_to 7997
  156.0307  140.1260  157.0250 H   0  0  0  0  0  0  0  0  0  0  0  0  # atno 8010 bound_to 7997
  140.0736  144.5131  150.7210 H   0  0  0  0  0  0  0  0  0  0  0  0  # atno 10167 bound_to 10162
  157.1027  131.0447  151.2491 H   0  0  0  0  0  0  0  0  0  0  0  0  # atno 10718 bound_to 10713
  154.4980  135.5802  153.6509 H   0  0  0  0  0  0  0  0  0  0  0  0  # atno 10763 bound_to 10752
  152.9873  135.6129  154.3039 H   0  0  0  0  0  0  0  0  0  0  0  0  # atno 10764 bound_to 10752
  154.2945  135.2848  155.2619 H   0  0  0  0  0  0  0  0  0  0  0  0  # atno 10765 bound_to 10752
  139.9233  134.7725  156.1588 H   0  0  0  0  0  0  0  0  0  0  0  0  # atno 11005 bound_to 11000
  146.0932  140.7631  142.9585 LP  0  0  0  0  0  0  0  0  0  0  0  0  # atno 17320 bound_to 7965
  144.7014  140.3670  143.7153 LP  0  0  0  0  0  0  0  0  0  0  0  0  # atno 17321 bound_to 7965
  140.7113  143.2507  151.4573 LP  0  0  0  0  0  0  0  0  0  0  0  0  # atno 17342 bound_to 10162
  139.5821  144.1687  152.1981 LP  0  0  0  0  0  0  0  0  0  0  0  0  # atno 17343 bound_to 10162
  157.4627  130.7662  149.7250 LP  0  0  0  0  0  0  0  0  0  0  0  0  # atno 17370 bound_to 10713
  155.9869  130.3971  150.3188 LP  0  0  0  0  0  0  0  0  0  0  0  0  # atno 17371 bound_to 10713
  141.0770  133.6771  156.2258 LP  0  0  0  0  0  0  0  0  0  0  0  0  # atno 17394 bound_to 11000
  140.6411  134.5165  157.5569 LP  0  0  0  0  0  0  0  0  0  0  0  0  # atno 17395 bound_to 11000

$$$$
