AV-unprocessed.smi:1022|AV-procd|sdf|4458|dock8
  -GOLD-   22720 2433D 1   1.00000     0.00000
 Structure written by MMmdl.
 33 34  0  0  0  0  0  0  0  0  1 V2000
  150.4357  140.2482  155.2058 C   0  0  0  0  0  0  0  0  0  0  0  0
  149.4796  140.8152  154.3278 O   0  0  0  0  0  0  0  0  0  0  0  0
  148.2679  140.0780  154.2910 C   0  0  0  0  0  0  0  0  0  0  0  0
  147.2677  140.7916  153.3687 C   0  0  2  0  0  0  0  0  0  0  0  0
  146.8070  142.1322  153.9622 C   0  0  0  0  0  0  0  0  0  0  0  0
  146.1140  139.9261  153.1370 N   0  0  0  0  0  0  0  0  0  0  0  0
  146.1673  138.6049  152.9146 C   0  0  0  0  0  0  0  0  0  0  0  0
  147.2183  137.9646  152.8728 O   0  0  0  0  0  0  0  0  0  0  0  0
  144.9365  138.0922  152.7417 N   0  0  0  0  0  0  0  0  0  0  0  0
  144.5727  136.7431  152.4892 C   0  0  0  0  0  0  0  0  0  0  0  0
  143.5621  136.1158  153.1063 N   0  0  0  0  0  0  0  0  0  0  0  0
  143.4228  134.8054  152.6710 N   0  0  0  0  0  0  0  0  0  0  0  0
  144.3278  134.4801  151.7402 C   0  0  0  0  0  0  0  0  0  0  0  0
  144.3784  133.1235  151.1198 C   0  0  0  0  0  0  0  0  0  0  0  0
  145.4587  132.7402  150.1320 C   0  0  0  0  0  0  0  0  0  0  0  0
  144.0396  132.9294  149.6598 C   0  0  0  0  0  0  0  0  0  0  0  0
  145.4429  135.7743  151.3126 S   0  0  0  0  0  0  0  0  0  0  0  0
  151.3428  140.8527  155.1986 H   0  0  0  0  0  0  0  0  0  0  0  0
  150.7027  139.2367  154.8974 H   0  0  0  0  0  0  0  0  0  0  0  0
  150.0613  140.2154  156.2298 H   0  0  0  0  0  0  0  0  0  0  0  0
  148.4514  139.0603  153.9415 H   0  0  0  0  0  0  0  0  0  0  0  0
  147.8572  140.0076  155.2996 H   0  0  0  0  0  0  0  0  0  0  0  0
  147.7707  140.9910  152.4209 H   0  0  0  0  0  0  0  0  0  0  0  0
  147.6543  142.7960  154.1349 H   0  0  0  0  0  0  0  0  0  0  0  0
  146.2959  141.9901  154.9150 H   0  0  0  0  0  0  0  0  0  0  0  0
  146.1204  142.6472  153.2893 H   0  0  0  0  0  0  0  0  0  0  0  0
  145.2066  140.3682  153.1582 H   0  0  0  0  0  0  0  0  0  0  0  0
  144.1687  138.7451  152.7930 H   0  0  0  0  0  0  0  0  0  0  0  0
  144.0430  132.3659  151.8255 H   0  0  0  0  0  0  0  0  0  0  0  0
  146.1841  133.4971  149.8401 H   0  0  0  0  0  0  0  0  0  0  0  0
  145.8411  131.7226  150.1777 H   0  0  0  0  0  0  0  0  0  0  0  0
  143.4755  132.0391  149.3897 H   0  0  0  0  0  0  0  0  0  0  0  0
  143.8218  133.8171  149.0691 H   0  0  0  0  0  0  0  0  0  0  0  0
  1  2  1  0  0  0  0
  1 18  1  0  0  0  0
  1 19  1  0  0  0  0
  1 20  1  0  0  0  0
  2  3  1  0  0  0  0
  3  4  1  0  0  0  0
  3 21  1  0  0  0  0
  3 22  1  0  0  0  0
  4  5  1  0  0  0  0
  4  6  1  0  0  0  0
  4 23  1  0  0  0  0
  5 24  1  0  0  0  0
  5 25  1  0  0  0  0
  5 26  1  0  0  0  0
  6  7  1  0  0  0  0
  6 27  1  0  0  0  0
  7  8  2  0  0  0  0
  7  9  1  0  0  0  0
  9 10  1  0  0  0  0
  9 28  1  0  0  0  0
 10 17  1  0  0  0  0
 10 11  2  0  0  0  0
 11 12  1  0  0  0  0
 12 13  2  0  0  0  0
 13 14  1  0  0  0  0
 13 17  1  0  0  0  0
 14 16  1  0  0  0  0
 14 15  1  0  0  0  0
 14 29  1  0  0  0  0
 15 16  1  0  0  0  0
 15 30  1  0  0  0  0
 15 31  1  0  0  0  0
 16 32  1  0  0  0  0
 16 33  1  0  0  0  0
M  END
> <s_m_source_file>
AV-unprocessed.smi

> <i_m_source_file_index>
1022

> <i_lp_mmshare_version>
43012

> <i_f3d_flags>
0

> <s_epik_input>
W0NIM11PW0NIMl1bQ0BIXShbQ0gzXSlbTkhdQyg9TylbTkhdYzFubmMoczEpW0NIXTJbQ0gyXVtDSDJdMg==

> <s_epik_cmdline>
J2VwaWtfcHl0aG9uJywgJy1waCcsICc3LjAnLCAnLXRuJywgJzgnLCAnLW1hJywgJzIwMCcsICctbWV0YWxfYmluZGluZycsICctaW1hZScsICc8aW5maWxlLm1hZT4nLCAnLW9tYWUnLCAnPG91dGZpbGUubWFlPic=

> <r_lp_tautomer_probability>
1

> <r_epik_Ionization_Penalty>
0.00129266

> <r_epik_Ionization_Penalty_Charging>
0

> <r_epik_Ionization_Penalty_Neutral>
0.00129266

> <r_epik_State_Penalty>
-0

> <r_epik_Charging_Adjusted_Penalty>
0

> <i_epik_Tot_Q>
0

> <i_epik_Tot_abs_Q>
0

> <r_epik_Metal_State_Penalty>
0.30857

> <b_epik_Metal_Only>
0

> <s_lp_Force_Field>
OPLS_2005

> <r_lp_Energy>
1.45425

> <b_lp_Chiralities_Consistent>
1

> <s_lp_Variant>
AV-unprocessed.smi:1022-1

> <Gold.Version>
5.8.1

> <Gold.Id.Protein>
6NUR|6NUR_protein|mol2

> <Gold.PLP.Fitness>
33.5107

> <Gold.PLP.PLP>
-28.7777

> <Gold.PLP.part.hbond>
-3.9985

> <Gold.PLP.part.metal>
0.0000

> <Gold.PLP.part.buried>
-4.7330

> <Gold.PLP.part.nonpolar>
-24.1466

> <Gold.PLP.part.repulsive>
3.9442

> <Gold.PLP.ligand.clash>
0.0000

> <Gold.PLP.ligand.torsion>
0.7133

> <Gold.PLP.Chemscore.Hbond>
2.0000

> <Gold.PLP.Chemscore.CHOScore>
0.0000

> <Gold.PLP.Chemscore.Metal>
0.0000

> <Gold.Chemscore.Hbonds>
donor molecule, donor type, donor heavy atom, donor atom, acceptor molecule, acceptor atom, score
      L1  H     6    27       P1 10175  0.94
      L1  H     9    28       P1 10175  0.90

> <Gold.PLP.Chemscore.Internal.Correction>
0.1595

> <Gold.Rescore>
     Score         DG    S(hbond)    S(metal)    S(lipo)     H(rot)  DE(clash)    DE(int)     intcor
     11.52     -14.92       1.93        0.00      63.56       1.73       1.58       1.82       ----

> <Gold.Chemscore.Fitness>
11.5181

> <Gold.Chemscore.DG>
-14.9203

> <Gold.Chemscore.ZeroCoef>
-5.4800

> <Gold.Chemscore.Hbond>
1.9273

> <Gold.Chemscore.Metal>
0.0000

> <Gold.Chemscore.Lipo>
63.5614

> <Gold.Chemscore.Internal_Hbond>
0.0000

> <Gold.Chemscore.DEClash>
1.5774

> <Gold.Chemscore.DEInternal>
1.8249

> <Gold.Chemscore.Rot>
1.7318

> <Gold.Chemscore.Internal.Correction>
   9.000000E+99

> <Gold.Chemscore.Hbonds>
donor molecule, donor type, donor heavy atom, donor atom, acceptor molecule, acceptor atom, score
      L1  H     6    27       P1 10175  0.89
      L1  H     9    28       P1 10175  0.88

> <Gold.Chemscore.Hbond.Weighted>
-6.4371

> <Gold.Chemscore.Metal.Weighted>
-0.0000

> <Gold.Chemscore.Lipo.Weighted>
-7.4367

> <Gold.Chemscore.Internal_Hbond.Weighted>
0.0000

> <Gold.Chemscore.DEClash.Weighted>
1.5774

> <Gold.Chemscore.DEInternal.Weighted>
1.8249

> <Gold.Chemscore.Rot.Weighted>
4.4335

> <Gold.Chemscore.Internal.Correction.Weighted>
   9.000000E+99

> <Gold.Protein.RotatedTorsions>
[ 6907 6896 6895 6894 ] final -176.21 input  -60.11 | X-H torsion
[ 7974 7965 7964 7962 ] final  152.41 input  175.53 | X-H torsion
[ 8008 7997 7996 7995 ] final  -40.46 input   59.86 | X-H torsion
[ 10167 10162 10161 10158 ] final   34.87 input  -65.29 | X-H torsion
[ 10718 10713 10712 10709 ] final   76.17 input   66.30 | X-H torsion
[ 10763 10752 10751 10750 ] final -103.73 input  -60.55 | X-H torsion
[ 11005 11000 10999 10996 ] final  165.23 input  -57.11 | X-H torsion

> <Gold.Protein.ActiveResidues>
 VAL166  LYS551  ARG553  GLY616  TRP617  ASP618  TYR619  PRO620  LYS621  CYS622 
 ASP623  PHE694  ASN695  SER759  ASP760  ASP761  ALA762  ILE779  LEU786  VAL792 
 PHE793  MET794  SER795  GLU796  ALA797  LYS798  CYS799  TRP800  GLU811  SER814 

> <Gold.Protein.RotatedAtoms>
  151.6011  133.3356  159.3047 H   0  0  0  0  0  0  0  0  0  0  0  0  # atno 6907 bound_to 6896
  150.8207  134.7416  159.6781 H   0  0  0  0  0  0  0  0  0  0  0  0  # atno 6908 bound_to 6896
  152.4301  134.5800  159.9997 H   0  0  0  0  0  0  0  0  0  0  0  0  # atno 6909 bound_to 6896
  144.8224  139.6665  143.6094 H   0  0  0  0  0  0  0  0  0  0  0  0  # atno 7974 bound_to 7965
  154.4012  140.1525  156.3031 H   0  0  0  0  0  0  0  0  0  0  0  0  # atno 8008 bound_to 7997
  155.8682  140.3450  155.5781 H   0  0  0  0  0  0  0  0  0  0  0  0  # atno 8009 bound_to 7997
  155.7804  140.0842  157.2053 H   0  0  0  0  0  0  0  0  0  0  0  0  # atno 8010 bound_to 7997
  140.4275  144.1373  150.6155 H   0  0  0  0  0  0  0  0  0  0  0  0  # atno 10167 bound_to 10162
  157.6663  130.9761  150.1458 H   0  0  0  0  0  0  0  0  0  0  0  0  # atno 10718 bound_to 10713
  154.7828  135.4812  153.9881 H   0  0  0  0  0  0  0  0  0  0  0  0  # atno 10763 bound_to 10752
  153.1517  135.6792  153.8879 H   0  0  0  0  0  0  0  0  0  0  0  0  # atno 10764 bound_to 10752
  153.8521  135.3166  155.3411 H   0  0  0  0  0  0  0  0  0  0  0  0  # atno 10765 bound_to 10752
  140.2540  134.7955  157.3528 H   0  0  0  0  0  0  0  0  0  0  0  0  # atno 11005 bound_to 11000
  146.2530  139.6240  142.9414 LP  0  0  0  0  0  0  0  0  0  0  0  0  # atno 17320 bound_to 7965
  145.5075  141.0436  143.2506 LP  0  0  0  0  0  0  0  0  0  0  0  0  # atno 17321 bound_to 7965
  140.4465  143.2504  151.9404 LP  0  0  0  0  0  0  0  0  0  0  0  0  # atno 17342 bound_to 10162
  139.4784  144.5604  151.8248 LP  0  0  0  0  0  0  0  0  0  0  0  0  # atno 17343 bound_to 10162
  156.2269  130.3678  149.8490 LP  0  0  0  0  0  0  0  0  0  0  0  0  # atno 17370 bound_to 10713
  156.6327  130.8672  151.3498 LP  0  0  0  0  0  0  0  0  0  0  0  0  # atno 17371 bound_to 10713
  140.1530  134.4825  155.7947 LP  0  0  0  0  0  0  0  0  0  0  0  0  # atno 17394 bound_to 11000
  141.2198  133.6870  156.7412 LP  0  0  0  0  0  0  0  0  0  0  0  0  # atno 17395 bound_to 11000

$$$$
