AV-unprocessed.smi:2664|AV-procd|sdf|10326|dock9
  -GOLD-   2272014343D 1   1.00000     0.00000
 Structure written by MMmdl.
 43 44  0  0  0  0  0  0  0  0  1 V2000
  144.4708  136.5798  152.1390 O   0  0  0  0  0  0  0  0  0  0  0  0
  145.6803  136.4163  151.9808 C   0  0  0  0  0  0  0  0  0  0  0  0
  146.2556  135.3169  151.4639 N   0  0  0  0  0  0  0  0  0  0  0  0
  145.6361  134.1509  150.9369 C   0  0  0  0  0  0  0  0  0  0  0  0
  146.4744  133.1054  150.4973 C   0  0  0  0  0  0  0  0  0  0  0  0
  145.8869  131.9458  149.9531 C   0  0  0  0  0  0  0  0  0  0  0  0
  144.5539  131.7825  149.8201 N   0  0  0  0  0  0  0  0  0  0  0  0
  143.7532  132.7894  150.2291 C   0  0  0  0  0  0  0  0  0  0  0  0
  144.2374  133.9896  150.7868 C   0  0  0  0  0  0  0  0  0  0  0  0
  146.6054  137.3240  152.3290 N   0  0  0  0  0  0  0  0  0  0  0  0
  146.3441  138.6397  152.9195 C   0  0  2  0  0  0  0  0  0  0  0  0
  147.5692  139.5552  152.6659 C   0  0  0  0  0  0  0  0  0  0  0  0
  147.6601  140.7952  153.5754 C   0  0  0  0  0  0  0  0  0  0  0  0
  148.9564  141.3526  153.5271 O   0  0  0  0  0  0  0  0  0  0  0  0
  145.9828  138.4849  154.4257 C   0  0  0  0  0  0  0  0  0  0  0  0
  147.1139  137.7959  155.2327 C   0  0  0  0  0  0  0  0  0  0  0  0
  146.7608  137.6343  156.7196 C   0  0  0  0  0  0  0  0  0  0  0  0
  145.4485  136.8617  156.8985 C   0  0  0  0  0  0  0  0  0  0  0  0
  144.3108  137.5432  156.1289 C   0  0  0  0  0  0  0  0  0  0  0  0
  144.6598  137.7089  154.6409 C   0  0  0  0  0  0  0  0  0  0  0  0
  147.2646  135.2975  151.4812 H   0  0  0  0  0  0  0  0  0  0  0  0
  147.5487  133.1838  150.5777 H   0  0  0  0  0  0  0  0  0  0  0  0
  146.5055  131.1284  149.6130 H   0  0  0  0  0  0  0  0  0  0  0  0
  142.6916  132.6373  150.1014 H   0  0  0  0  0  0  0  0  0  0  0  0
  143.5330  134.7556  151.0717 H   0  0  0  0  0  0  0  0  0  0  0  0
  147.5745  137.0916  152.1683 H   0  0  0  0  0  0  0  0  0  0  0  0
  145.4847  139.0985  152.4276 H   0  0  0  0  0  0  0  0  0  0  0  0
  148.4942  138.9941  152.7895 H   0  0  0  0  0  0  0  0  0  0  0  0
  147.5556  139.8860  151.6267 H   0  0  0  0  0  0  0  0  0  0  0  0
  146.9507  141.5519  153.2398 H   0  0  0  0  0  0  0  0  0  0  0  0
  147.4016  140.5600  154.6078 H   0  0  0  0  0  0  0  0  0  0  0  0
  149.4140  140.9884  152.7845 H   0  0  0  0  0  0  0  0  0  0  0  0
  145.8496  139.4858  154.8394 H   0  0  0  0  0  0  0  0  0  0  0  0
  147.3259  136.8164  154.8012 H   0  0  0  0  0  0  0  0  0  0  0  0
  148.0407  138.3653  155.1672 H   0  0  0  0  0  0  0  0  0  0  0  0
  147.5683  137.1173  157.2385 H   0  0  0  0  0  0  0  0  0  0  0  0
  146.6748  138.6174  157.1841 H   0  0  0  0  0  0  0  0  0  0  0  0
  145.5724  135.8386  156.5419 H   0  0  0  0  0  0  0  0  0  0  0  0
  145.1956  136.7941  157.9570 H   0  0  0  0  0  0  0  0  0  0  0  0
  143.3945  136.9612  156.2315 H   0  0  0  0  0  0  0  0  0  0  0  0
  144.1060  138.5209  156.5670 H   0  0  0  0  0  0  0  0  0  0  0  0
  143.8273  138.2204  154.1609 H   0  0  0  0  0  0  0  0  0  0  0  0
  144.7307  136.7259  154.1733 H   0  0  0  0  0  0  0  0  0  0  0  0
  1  2  2  0  0  0  0
  2  3  1  0  0  0  0
  2 10  1  0  0  0  0
  3  4  1  0  0  0  0
  3 21  1  0  0  0  0
  4  9  1  0  0  0  0
  4  5  2  0  0  0  0
  5  6  1  0  0  0  0
  5 22  1  0  0  0  0
  6  7  2  0  0  0  0
  6 23  1  0  0  0  0
  7  8  1  0  0  0  0
  8  9  2  0  0  0  0
  8 24  1  0  0  0  0
  9 25  1  0  0  0  0
 10 11  1  0  0  0  0
 10 26  1  0  0  0  0
 11 12  1  0  0  0  0
 11 15  1  0  0  0  0
 11 27  1  0  0  0  0
 12 13  1  0  0  0  0
 12 28  1  0  0  0  0
 12 29  1  0  0  0  0
 13 14  1  0  0  0  0
 13 30  1  0  0  0  0
 13 31  1  0  0  0  0
 14 32  1  0  0  0  0
 15 20  1  0  0  0  0
 15 16  1  0  0  0  0
 15 33  1  0  0  0  0
 16 17  1  0  0  0  0
 16 34  1  0  0  0  0
 16 35  1  0  0  0  0
 17 18  1  0  0  0  0
 17 36  1  0  0  0  0
 17 37  1  0  0  0  0
 18 19  1  0  0  0  0
 18 38  1  0  0  0  0
 18 39  1  0  0  0  0
 19 20  1  0  0  0  0
 19 40  1  0  0  0  0
 19 41  1  0  0  0  0
 20 42  1  0  0  0  0
 20 43  1  0  0  0  0
M  END
> <s_m_source_file>
AV-unprocessed.smi

> <i_m_source_file_index>
2664

> <i_lp_mmshare_version>
43012

> <i_f3d_flags>
0

> <s_epik_input>
W2NIXTFbY0hdbltjSF1bY0hdYzFbTkhdQyg9TylbTkhdW0NASF0oW0NIMl1bQ0gyXVtPSF0pW0NIXTJbQ0gyXVtDSDJdW0NIMl1bQ0gyXVtDSDJdMg==

> <s_epik_cmdline>
J2VwaWtfcHl0aG9uJywgJy1waCcsICc3LjAnLCAnLXRuJywgJzgnLCAnLW1hJywgJzIwMCcsICctbWV0YWxfYmluZGluZycsICctaW1hZScsICc8aW5maWxlLm1hZT4nLCAnLW9tYWUnLCAnPG91dGZpbGUubWFlPic=

> <r_epik_Ionization_Penalty>
0.119281

> <r_epik_Ionization_Penalty_Charging>
0

> <r_epik_Ionization_Penalty_Neutral>
0.119281

> <r_epik_State_Penalty>
0.108806

> <r_epik_Charging_Adjusted_Penalty>
0.108806

> <i_epik_Tot_Q>
0

> <i_epik_Tot_abs_Q>
0

> <r_epik_Metal_State_Penalty>
0.0904205

> <b_epik_Metal_Only>
0

> <s_lp_Force_Field>
OPLS_2005

> <r_lp_Energy>
21.6864

> <b_lp_Chiralities_Consistent>
1

> <s_lp_Variant>
AV-unprocessed.smi:2664-1

> <Gold.Version>
5.8.1

> <Gold.Id.Protein>
6NUR|6NUR_protein|mol2

> <Gold.PLP.Fitness>
41.7917

> <Gold.PLP.PLP>
-28.0438

> <Gold.PLP.part.hbond>
-5.4117

> <Gold.PLP.part.metal>
0.0000

> <Gold.PLP.part.buried>
-0.0071

> <Gold.PLP.part.nonpolar>
-23.4657

> <Gold.PLP.part.repulsive>
1.0180

> <Gold.PLP.ligand.clash>
0.0000

> <Gold.PLP.ligand.torsion>
0.5340

> <Gold.PLP.Chemscore.Hbond>
3.0749

> <Gold.PLP.Chemscore.CHOScore>
1.8448

> <Gold.PLP.Chemscore.Metal>
0.0000

> <Gold.Chemscore.Hbonds>
donor molecule, donor type, donor heavy atom, donor atom, acceptor molecule, acceptor atom, score
      L1  H     3    21       P1  7948  0.99
      L1  H    10    26       P1  7948  1.00
      L1  H    14    32       P1  7957  1.00
      P1  H 10785 10796       L1     7  0.07
      L1  C     6    23       P1 10747  0.84
      L1  C     8    24       P1 10186  0.93

> <Gold.PLP.Chemscore.Internal.Correction>
0.0567

> <Gold.Rescore>
     Score         DG    S(hbond)    S(metal)    S(lipo)     H(rot)  DE(clash)    DE(int)     intcor
     12.89     -17.51       2.95        0.00      67.12       2.23       1.40       3.22       ----

> <Gold.Chemscore.Fitness>
12.8850

> <Gold.Chemscore.DG>
-17.5057

> <Gold.Chemscore.ZeroCoef>
-5.4800

> <Gold.Chemscore.Hbond>
2.9548

> <Gold.Chemscore.Metal>
0.0000

> <Gold.Chemscore.Lipo>
67.1187

> <Gold.Chemscore.Internal_Hbond>
0.0000

> <Gold.Chemscore.DEClash>
1.3993

> <Gold.Chemscore.DEInternal>
3.2213

> <Gold.Chemscore.Rot>
2.2251

> <Gold.Chemscore.Internal.Correction>
   9.000000E+99

> <Gold.Chemscore.Hbonds>
donor molecule, donor type, donor heavy atom, donor atom, acceptor molecule, acceptor atom, score
      L1  H     3    21       P1  7948  0.85
      L1  H    10    26       P1  7948  0.99
      L1  H    14    32       P1  7957  0.99
      P1  H 10785 10796       L1     7  0.06

> <Gold.Chemscore.Hbond.Weighted>
-9.8689

> <Gold.Chemscore.Metal.Weighted>
-0.0000

> <Gold.Chemscore.Lipo.Weighted>
-7.8529

> <Gold.Chemscore.Internal_Hbond.Weighted>
0.0000

> <Gold.Chemscore.DEClash.Weighted>
1.3993

> <Gold.Chemscore.DEInternal.Weighted>
3.2213

> <Gold.Chemscore.Rot.Weighted>
5.6962

> <Gold.Chemscore.Internal.Correction.Weighted>
   9.000000E+99

> <Gold.Protein.RotatedTorsions>
[ 6907 6896 6895 6894 ] final   91.73 input  -60.11 | X-H torsion
[ 7974 7965 7964 7962 ] final  141.32 input  175.53 | X-H torsion
[ 8008 7997 7996 7995 ] final -112.86 input   59.86 | X-H torsion
[ 10167 10162 10161 10158 ] final   13.94 input  -65.29 | X-H torsion
[ 10718 10713 10712 10709 ] final   48.03 input   66.30 | X-H torsion
[ 10763 10752 10751 10750 ] final  176.13 input  -60.55 | X-H torsion
[ 11005 11000 10999 10996 ] final  135.24 input  -57.11 | X-H torsion

> <Gold.Protein.ActiveResidues>
 VAL166  LYS551  ARG553  GLY616  TRP617  ASP618  TYR619  PRO620  LYS621  CYS622 
 ASP623  PHE694  ASN695  SER759  ASP760  ASP761  ALA762  ILE779  LEU786  VAL792 
 PHE793  MET794  SER795  GLU796  ALA797  LYS798  CYS799  TRP800  GLU811  SER814 

> <Gold.Protein.RotatedAtoms>
  152.5451  134.1612  159.8558 H   0  0  0  0  0  0  0  0  0  0  0  0  # atno 6907 bound_to 6896
  151.1630  133.4826  159.2601 H   0  0  0  0  0  0  0  0  0  0  0  0  # atno 6908 bound_to 6896
  151.1353  135.0163  159.8656 H   0  0  0  0  0  0  0  0  0  0  0  0  # atno 6909 bound_to 6896
  144.9106  139.5298  143.5710 H   0  0  0  0  0  0  0  0  0  0  0  0  # atno 7974 bound_to 7965
  155.0117  140.0393  157.2402 H   0  0  0  0  0  0  0  0  0  0  0  0  # atno 8008 bound_to 7997
  154.7455  140.2757  155.6314 H   0  0  0  0  0  0  0  0  0  0  0  0  # atno 8009 bound_to 7997
  156.2874  140.2657  156.2194 H   0  0  0  0  0  0  0  0  0  0  0  0  # atno 8010 bound_to 7997
  140.5969  143.8684  150.6926 H   0  0  0  0  0  0  0  0  0  0  0  0  # atno 10167 bound_to 10162
  157.4646  130.8217  149.7922 H   0  0  0  0  0  0  0  0  0  0  0  0  # atno 10718 bound_to 10713
  154.4770  135.2773  155.1600 H   0  0  0  0  0  0  0  0  0  0  0  0  # atno 10763 bound_to 10752
  154.3325  135.6187  153.5562 H   0  0  0  0  0  0  0  0  0  0  0  0  # atno 10764 bound_to 10752
  152.9870  135.5769  154.5163 H   0  0  0  0  0  0  0  0  0  0  0  0  # atno 10765 bound_to 10752
  139.9967  134.9494  156.9980 H   0  0  0  0  0  0  0  0  0  0  0  0  # atno 11005 bound_to 11000
  146.3157  139.7910  142.8985 LP  0  0  0  0  0  0  0  0  0  0  0  0  # atno 17320 bound_to 7965
  145.3460  141.0298  143.3365 LP  0  0  0  0  0  0  0  0  0  0  0  0  # atno 17321 bound_to 7965
  140.2220  143.3801  152.1635 LP  0  0  0  0  0  0  0  0  0  0  0  0  # atno 17342 bound_to 10162
  139.5264  144.7107  151.5214 LP  0  0  0  0  0  0  0  0  0  0  0  0  # atno 17343 bound_to 10162
  156.0044  130.3863  150.2485 LP  0  0  0  0  0  0  0  0  0  0  0  0  # atno 17370 bound_to 10713
  157.0664  131.0104  151.3205 LP  0  0  0  0  0  0  0  0  0  0  0  0  # atno 17371 bound_to 10713
  140.4805  134.1295  155.7216 LP  0  0  0  0  0  0  0  0  0  0  0  0  # atno 17394 bound_to 11000
  141.1610  133.8793  157.1848 LP  0  0  0  0  0  0  0  0  0  0  0  0  # atno 17395 bound_to 11000

$$$$
