AV-unprocessed.smi:27|AV-procd|sdf|188|dock9
  -GOLD-   2262015453D 1   1.00000     0.00000
 Structure written by MMmdl.
 53 56  0  0  0  0  0  0  0  0  1 V2000
  152.0689  136.0611  157.3177 O   0  0  0  0  0  0  0  0  0  0  0  0
  151.6171  136.9255  156.5648 C   0  0  0  0  0  0  0  0  0  0  0  0
  152.4902  138.0927  156.0799 C   0  0  0  0  0  0  0  0  0  0  0  0
  151.8660  139.4187  156.2786 N   0  0  0  0  0  0  0  0  0  0  0  0
  150.8475  139.8319  155.3845 C   0  0  0  0  0  0  0  0  0  0  0  0
  150.4746  139.1060  154.4616 O   0  0  0  0  0  0  0  0  0  0  0  0
  150.2915  141.1572  155.6330 C   0  0  0  0  0  0  0  0  0  0  0  0
  149.3115  141.6259  154.8419 F   0  0  0  0  0  0  0  0  0  0  0  0
  150.7438  141.9224  156.6478 C   0  0  0  0  0  0  0  0  0  0  0  0
  151.7506  141.5121  157.5037 N   0  0  0  0  0  0  0  0  0  0  0  0
  152.2496  142.3836  158.6371 C   0  0  1  0  0  0  0  0  0  0  0  0
  152.6775  143.7668  158.1108 C   0  0  0  0  0  0  0  0  0  0  0  0
  151.9299  144.7180  159.0239 C   0  0  0  0  0  0  0  0  0  0  0  0
  150.6943  143.9052  159.3803 C   0  0  0  0  0  0  0  0  0  0  0  0
  151.2215  142.5975  159.5620 O   0  0  0  0  0  0  0  0  0  0  0  0
  152.3334  140.2375  157.3336 C   0  0  0  0  0  0  0  0  0  0  0  0
  153.2330  139.8539  158.0848 O   0  0  0  0  0  0  0  0  0  0  0  0
  150.3557  136.9165  156.1090 N   0  0  0  0  0  0  0  0  0  0  0  0
  149.3451  135.9064  156.4243 C   0  0  0  0  0  0  0  0  0  0  0  0
  149.0200  135.8425  157.9137 C   0  0  0  0  0  0  0  0  0  0  0  0
  148.1757  134.8359  158.4365 C   0  0  0  0  0  0  0  0  0  0  0  0
  147.8815  134.7984  159.8131 C   0  0  0  0  0  0  0  0  0  0  0  0
  148.4258  135.7675  160.6770 C   0  0  0  0  0  0  0  0  0  0  0  0
  149.2626  136.7763  160.1628 C   0  0  0  0  0  0  0  0  0  0  0  0
  149.5564  136.8146  158.7860 C   0  0  0  0  0  0  0  0  0  0  0  0
  149.7385  134.5319  155.8976 C   0  0  0  0  0  0  0  0  0  0  0  0
  150.7486  133.7711  156.5298 C   0  0  0  0  0  0  0  0  0  0  0  0
  151.0971  132.4999  156.0340 C   0  0  0  0  0  0  0  0  0  0  0  0
  150.4373  131.9782  154.9052 C   0  0  0  0  0  0  0  0  0  0  0  0
  149.4251  132.7268  154.2753 C   0  0  0  0  0  0  0  0  0  0  0  0
  149.0753  133.9976  154.7714 C   0  0  0  0  0  0  0  0  0  0  0  0
  153.4549  138.0332  156.5865 H   0  0  0  0  0  0  0  0  0  0  0  0
  152.7351  137.9315  155.0288 H   0  0  0  0  0  0  0  0  0  0  0  0
  150.2873  142.8913  156.7788 H   0  0  0  0  0  0  0  0  0  0  0  0
  153.0524  141.8179  159.1133 H   0  0  0  0  0  0  0  0  0  0  0  0
  153.7603  143.8863  158.1581 H   0  0  0  0  0  0  0  0  0  0  0  0
  152.3511  143.8958  157.0775 H   0  0  0  0  0  0  0  0  0  0  0  0
  152.5175  144.9177  159.9209 H   0  0  0  0  0  0  0  0  0  0  0  0
  151.6934  145.6702  158.5486 H   0  0  0  0  0  0  0  0  0  0  0  0
  150.1954  144.2660  160.2798 H   0  0  0  0  0  0  0  0  0  0  0  0
  149.9756  143.9116  158.5597 H   0  0  0  0  0  0  0  0  0  0  0  0
  150.0700  137.6657  155.4956 H   0  0  0  0  0  0  0  0  0  0  0  0
  148.4296  136.1902  155.9010 H   0  0  0  0  0  0  0  0  0  0  0  0
  147.7459  134.0888  157.7857 H   0  0  0  0  0  0  0  0  0  0  0  0
  147.2368  134.0261  160.2062 H   0  0  0  0  0  0  0  0  0  0  0  0
  148.2003  135.7380  161.7329 H   0  0  0  0  0  0  0  0  0  0  0  0
  149.6785  137.5219  160.8241 H   0  0  0  0  0  0  0  0  0  0  0  0
  150.1971  137.5943  158.4008 H   0  0  0  0  0  0  0  0  0  0  0  0
  151.2577  134.1548  157.4016 H   0  0  0  0  0  0  0  0  0  0  0  0
  151.8698  131.9241  156.5217 H   0  0  0  0  0  0  0  0  0  0  0  0
  150.7050  131.0033  154.5251 H   0  0  0  0  0  0  0  0  0  0  0  0
  148.9155  132.3261  153.4113 H   0  0  0  0  0  0  0  0  0  0  0  0
  148.2948  134.5621  154.2822 H   0  0  0  0  0  0  0  0  0  0  0  0
  1  2  2  0  0  0  0
  2  3  1  0  0  0  0
  2 18  1  0  0  0  0
  3  4  1  0  0  0  0
  3 32  1  0  0  0  0
  3 33  1  0  0  0  0
  4 16  1  0  0  0  0
  4  5  1  0  0  0  0
  5  6  2  0  0  0  0
  5  7  1  0  0  0  0
  7  8  1  0  0  0  0
  7  9  2  0  0  0  0
  9 10  1  0  0  0  0
  9 34  1  0  0  0  0
 10 11  1  0  0  0  0
 10 16  1  0  0  0  0
 11 15  1  0  0  0  0
 11 12  1  0  0  0  0
 11 35  1  0  0  0  0
 12 13  1  0  0  0  0
 12 36  1  0  0  0  0
 12 37  1  0  0  0  0
 13 14  1  0  0  0  0
 13 38  1  0  0  0  0
 13 39  1  0  0  0  0
 14 15  1  0  0  0  0
 14 40  1  0  0  0  0
 14 41  1  0  0  0  0
 16 17  2  0  0  0  0
 18 19  1  0  0  0  0
 18 42  1  0  0  0  0
 19 20  1  0  0  0  0
 19 26  1  0  0  0  0
 19 43  1  0  0  0  0
 20 25  1  0  0  0  0
 20 21  2  0  0  0  0
 21 22  1  0  0  0  0
 21 44  1  0  0  0  0
 22 23  2  0  0  0  0
 22 45  1  0  0  0  0
 23 24  1  0  0  0  0
 23 46  1  0  0  0  0
 24 25  2  0  0  0  0
 24 47  1  0  0  0  0
 25 48  1  0  0  0  0
 26 31  1  0  0  0  0
 26 27  2  0  0  0  0
 27 28  1  0  0  0  0
 27 49  1  0  0  0  0
 28 29  2  0  0  0  0
 28 50  1  0  0  0  0
 29 30  1  0  0  0  0
 29 51  1  0  0  0  0
 30 31  2  0  0  0  0
 30 52  1  0  0  0  0
 31 53  1  0  0  0  0
M  END
> <s_m_source_file>
AV-unprocessed.smi

> <i_m_source_file_index>
27

> <i_lp_mmshare_version>
43012

> <i_f3d_flags>
0

> <s_epik_input>
W2NIXTFbY0hdW2NIXVtjSF1bY0hdYzFbQ0hdKGMyW2NIXVtjSF1bY0hdW2NIXVtjSF0yKVtOSF1DKD1PKVtDSDJdbjNjKD1PKWMoRilbY0hdbihjMz1PKVtDQEBIXTRbQ0gyXVtDSDJdW0NIMl1PNA==

> <s_epik_cmdline>
J2VwaWtfcHl0aG9uJywgJy1waCcsICc3LjAnLCAnLXRuJywgJzgnLCAnLW1hJywgJzIwMCcsICctbWV0YWxfYmluZGluZycsICctaW1hZScsICc8aW5maWxlLm1hZT4nLCAnLW9tYWUnLCAnPG91dGZpbGUubWFlPic=

> <r_lp_tautomer_probability>
1

> <r_epik_Ionization_Penalty>
5.29953e-08

> <r_epik_Ionization_Penalty_Charging>
3.6115e-09

> <r_epik_Ionization_Penalty_Neutral>
4.93838e-08

> <r_epik_State_Penalty>
-0

> <r_epik_Charging_Adjusted_Penalty>
3.6115e-09

> <i_epik_Tot_Q>
0

> <i_epik_Tot_abs_Q>
0

> <r_epik_Metal_State_Penalty>
-0

> <b_epik_Metal_Only>
0

> <s_epik_Chemistry_Notes>
This compound contains an acetal/aminal-like group ( X-CH(R)-Y where X, Y are N, S, or O) that may be acid/base labile, releasing an aldehyde.

> <s_lp_Force_Field>
OPLS_2005

> <r_lp_Energy>
31.2801

> <b_lp_Chiralities_Consistent>
1

> <s_lp_Variant>
AV-unprocessed.smi:27-2

> <Gold.Version>
5.8.1

> <Gold.Id.Protein>
6NUR|6NUR_protein|mol2

> <Gold.PLP.Fitness>
57.4972

> <Gold.PLP.PLP>
-52.8540

> <Gold.PLP.part.hbond>
-2.7272

> <Gold.PLP.part.metal>
0.0000

> <Gold.PLP.part.buried>
-3.9674

> <Gold.PLP.part.nonpolar>
-44.6729

> <Gold.PLP.part.repulsive>
0.1904

> <Gold.PLP.ligand.clash>
0.0000

> <Gold.PLP.ligand.torsion>
0.7650

> <Gold.PLP.Chemscore.Hbond>
1.0000

> <Gold.PLP.Chemscore.CHOScore>
1.0000

> <Gold.PLP.Chemscore.Metal>
0.0000

> <Gold.Chemscore.Hbonds>
donor molecule, donor type, donor heavy atom, donor atom, acceptor molecule, acceptor atom, score
      P1  H  7997  8009       L1    17  1.00
      L1  C     9    34       P1  8028  0.93

> <Gold.PLP.Chemscore.Internal.Correction>
0.1732

> <Gold.Rescore>
     Score         DG    S(hbond)    S(metal)    S(lipo)     H(rot)  DE(clash)    DE(int)     intcor
      9.68     -15.31       0.72        0.00     110.85       2.16       0.48       5.14       ----

> <Gold.Chemscore.Fitness>
9.6848

> <Gold.Chemscore.DG>
-15.3125

> <Gold.Chemscore.ZeroCoef>
-5.4800

> <Gold.Chemscore.Hbond>
0.7195

> <Gold.Chemscore.Metal>
0.0000

> <Gold.Chemscore.Lipo>
110.8543

> <Gold.Chemscore.Internal_Hbond>
0.0000

> <Gold.Chemscore.DEClash>
0.4838

> <Gold.Chemscore.DEInternal>
5.1439

> <Gold.Chemscore.Rot>
2.1642

> <Gold.Chemscore.Internal.Correction>
   9.000000E+99

> <Gold.Chemscore.Hbonds>
donor molecule, donor type, donor heavy atom, donor atom, acceptor molecule, acceptor atom, score
      P1  H  7997  8009       L1    17  0.48

> <Gold.Chemscore.Hbond.Weighted>
-2.4030

> <Gold.Chemscore.Metal.Weighted>
-0.0000

> <Gold.Chemscore.Lipo.Weighted>
-12.9700

> <Gold.Chemscore.Internal_Hbond.Weighted>
0.0000

> <Gold.Chemscore.DEClash.Weighted>
0.4838

> <Gold.Chemscore.DEInternal.Weighted>
5.1439

> <Gold.Chemscore.Rot.Weighted>
5.5404

> <Gold.Chemscore.Internal.Correction.Weighted>
   9.000000E+99

> <Gold.Protein.RotatedTorsions>
[ 6907 6896 6895 6894 ] final  -25.61 input  -60.11 | X-H torsion
[ 7974 7965 7964 7962 ] final -122.88 input  175.53 | X-H torsion
[ 8008 7997 7996 7995 ] final  144.11 input   59.86 | X-H torsion
[ 10167 10162 10161 10158 ] final    7.11 input  -65.29 | X-H torsion
[ 10718 10713 10712 10709 ] final  143.00 input   66.30 | X-H torsion
[ 10763 10752 10751 10750 ] final  179.01 input  -60.55 | X-H torsion
[ 11005 11000 10999 10996 ] final  -99.07 input  -57.11 | X-H torsion

> <Gold.Protein.ActiveResidues>
 VAL166  LYS551  ARG553  GLY616  TRP617  ASP618  TYR619  PRO620  LYS621  CYS622 
 ASP623  PHE694  ASN695  SER759  ASP760  ASP761  ALA762  ILE779  LEU786  VAL792 
 PHE793  MET794  SER795  GLU796  ALA797  LYS798  CYS799  TRP800  GLU811  SER814 

> <Gold.Protein.RotatedAtoms>
  151.1728  135.0325  159.8758 H   0  0  0  0  0  0  0  0  0  0  0  0  # atno 6907 bound_to 6896
  152.5448  134.1152  159.8385 H   0  0  0  0  0  0  0  0  0  0  0  0  # atno 6908 bound_to 6896
  151.1259  133.5024  159.2633 H   0  0  0  0  0  0  0  0  0  0  0  0  # atno 6909 bound_to 6896
  145.0247  140.8018  143.4360 H   0  0  0  0  0  0  0  0  0  0  0  0  # atno 7974 bound_to 7965
  156.2915  140.2244  156.4999 H   0  0  0  0  0  0  0  0  0  0  0  0  # atno 8008 bound_to 7997
  154.7698  140.0467  157.1064 H   0  0  0  0  0  0  0  0  0  0  0  0  # atno 8009 bound_to 7997
  154.9888  140.3087  155.4918 H   0  0  0  0  0  0  0  0  0  0  0  0  # atno 8010 bound_to 7997
  140.6390  143.7819  150.7401 H   0  0  0  0  0  0  0  0  0  0  0  0  # atno 10167 bound_to 10162
  157.3741  131.0983  151.0801 H   0  0  0  0  0  0  0  0  0  0  0  0  # atno 10718 bound_to 10713
  154.5151  135.2790  155.1310 H   0  0  0  0  0  0  0  0  0  0  0  0  # atno 10763 bound_to 10752
  154.2890  135.6270  153.5381 H   0  0  0  0  0  0  0  0  0  0  0  0  # atno 10764 bound_to 10752
  152.9926  135.5669  154.5626 H   0  0  0  0  0  0  0  0  0  0  0  0  # atno 10765 bound_to 10752
  141.1322  133.8293  157.0923 H   0  0  0  0  0  0  0  0  0  0  0  0  # atno 11005 bound_to 11000
  145.1849  139.2332  143.5273 LP  0  0  0  0  0  0  0  0  0  0  0  0  # atno 17320 bound_to 7965
  146.3490  140.1631  142.8590 LP  0  0  0  0  0  0  0  0  0  0  0  0  # atno 17321 bound_to 7965
  140.1446  143.4411  152.2171 LP  0  0  0  0  0  0  0  0  0  0  0  0  # atno 17342 bound_to 10162
  139.5599  144.7399  151.4184 LP  0  0  0  0  0  0  0  0  0  0  0  0  # atno 17343 bound_to 10162
  157.1894  130.6345  149.5699 LP  0  0  0  0  0  0  0  0  0  0  0  0  # atno 17370 bound_to 10713
  155.9761  130.4727  150.6509 LP  0  0  0  0  0  0  0  0  0  0  0  0  # atno 17371 bound_to 10713
  140.0384  134.9866  157.0916 LP  0  0  0  0  0  0  0  0  0  0  0  0  # atno 17394 bound_to 11000
  140.4173  134.1917  155.7164 LP  0  0  0  0  0  0  0  0  0  0  0  0  # atno 17395 bound_to 11000

$$$$
