AV-unprocessed.smi:2394|AV-procd|sdf|9490|dock7
  -GOLD-   2272013123D 1   1.00000     0.00000
 Structure written by MMmdl.
 43 44  0  0  0  0  0  0  0  0  1 V2000
  148.7622  140.9539  156.8919 C   0  0  0  0  0  0  0  0  0  0  0  0
  149.2974  141.4080  155.5231 C   0  0  0  0  0  0  0  0  0  0  0  0
  148.9665  140.4764  154.3270 C   0  0  0  0  0  0  0  0  0  0  0  0
  149.4912  141.0704  153.1540 O   0  0  0  0  0  0  0  0  0  0  0  0
  149.6536  139.0911  154.4800 C   0  0  0  0  0  0  0  0  0  0  0  0
  151.1833  139.1107  154.6436 C   0  0  0  0  0  0  0  0  0  0  0  0
  147.4285  140.3272  154.1468 C   0  0  0  0  0  0  0  0  0  0  0  0
  147.0259  139.4122  153.0886 N   0  0  0  0  0  0  0  0  0  0  0  0
  147.2279  139.5755  151.7358 C   0  0  0  0  0  0  0  0  0  0  0  0
  146.7752  138.6098  150.9830 N   0  0  0  0  0  0  0  0  0  0  0  0
  146.2319  137.7065  151.8876 C   0  0  0  0  0  0  0  0  0  0  0  0
  145.5861  136.4498  151.7550 C   0  0  0  0  0  0  0  0  0  0  0  0
  145.3853  135.8955  150.5384 N   0  0  0  0  0  0  0  0  0  0  0  0
  145.1997  134.4559  150.3781 C   0  0  0  0  0  0  0  0  0  0  0  0
  144.0020  133.9520  151.2009 C   0  0  0  0  0  0  0  0  0  0  0  0
  146.4848  133.7167  150.7726 C   0  0  0  0  0  0  0  0  0  0  0  0
  145.1757  135.8273  152.8913 N   0  0  0  0  0  0  0  0  0  0  0  0
  145.3896  136.3963  154.0818 C   0  0  0  0  0  0  0  0  0  0  0  0
  145.9806  137.5613  154.3563 N   0  0  0  0  0  0  0  0  0  0  0  0
  146.3863  138.1913  153.2165 C   0  0  0  0  0  0  0  0  0  0  0  0
  148.9580  141.7132  157.6489 H   0  0  0  0  0  0  0  0  0  0  0  0
  149.2402  140.0350  157.2306 H   0  0  0  0  0  0  0  0  0  0  0  0
  147.6853  140.7865  156.8664 H   0  0  0  0  0  0  0  0  0  0  0  0
  148.8980  142.4047  155.3351 H   0  0  0  0  0  0  0  0  0  0  0  0
  150.3788  141.5281  155.5970 H   0  0  0  0  0  0  0  0  0  0  0  0
  149.4339  140.4448  152.4483 H   0  0  0  0  0  0  0  0  0  0  0  0
  149.2233  138.5707  155.3364 H   0  0  0  0  0  0  0  0  0  0  0  0
  149.4295  138.4706  153.6120 H   0  0  0  0  0  0  0  0  0  0  0  0
  151.5781  138.0945  154.6480 H   0  0  0  0  0  0  0  0  0  0  0  0
  151.4855  139.5739  155.5824 H   0  0  0  0  0  0  0  0  0  0  0  0
  151.6689  139.6460  153.8276 H   0  0  0  0  0  0  0  0  0  0  0  0
  146.9818  139.9757  155.0779 H   0  0  0  0  0  0  0  0  0  0  0  0
  146.9662  141.2913  153.9342 H   0  0  0  0  0  0  0  0  0  0  0  0
  147.7181  140.4450  151.3222 H   0  0  0  0  0  0  0  0  0  0  0  0
  145.4246  136.4299  149.6825 H   0  0  0  0  0  0  0  0  0  0  0  0
  145.0157  134.2388  149.3250 H   0  0  0  0  0  0  0  0  0  0  0  0
  143.8665  132.8775  151.0757 H   0  0  0  0  0  0  0  0  0  0  0  0
  143.0732  134.4340  150.8956 H   0  0  0  0  0  0  0  0  0  0  0  0
  144.1426  134.1472  152.2645 H   0  0  0  0  0  0  0  0  0  0  0  0
  146.3794  132.6414  150.6262 H   0  0  0  0  0  0  0  0  0  0  0  0
  146.7363  133.8868  151.8202 H   0  0  0  0  0  0  0  0  0  0  0  0
  147.3294  134.0492  150.1680 H   0  0  0  0  0  0  0  0  0  0  0  0
  145.0380  135.8377  154.9367 H   0  0  0  0  0  0  0  0  0  0  0  0
  1  2  1  0  0  0  0
  1 21  1  0  0  0  0
  1 22  1  0  0  0  0
  1 23  1  0  0  0  0
  2  3  1  0  0  0  0
  2 24  1  0  0  0  0
  2 25  1  0  0  0  0
  3  4  1  0  0  0  0
  3  5  1  0  0  0  0
  3  7  1  0  0  0  0
  4 26  1  0  0  0  0
  5  6  1  0  0  0  0
  5 27  1  0  0  0  0
  5 28  1  0  0  0  0
  6 29  1  0  0  0  0
  6 30  1  0  0  0  0
  6 31  1  0  0  0  0
  7  8  1  0  0  0  0
  7 32  1  0  0  0  0
  7 33  1  0  0  0  0
  8 20  1  0  0  0  0
  8  9  1  0  0  0  0
  9 10  2  0  0  0  0
  9 34  1  0  0  0  0
 10 11  1  0  0  0  0
 11 20  2  0  0  0  0
 11 12  1  0  0  0  0
 12 13  1  0  0  0  0
 12 17  2  0  0  0  0
 13 14  1  0  0  0  0
 13 35  1  0  0  0  0
 14 15  1  0  0  0  0
 14 16  1  0  0  0  0
 14 36  1  0  0  0  0
 15 37  1  0  0  0  0
 15 38  1  0  0  0  0
 15 39  1  0  0  0  0
 16 40  1  0  0  0  0
 16 41  1  0  0  0  0
 16 42  1  0  0  0  0
 17 18  1  0  0  0  0
 18 19  2  0  0  0  0
 18 43  1  0  0  0  0
 19 20  1  0  0  0  0
M  END
> <s_m_source_file>
AV-unprocessed.smi

> <i_m_source_file_index>
2394

> <i_lp_mmshare_version>
43012

> <i_f3d_flags>
0

> <s_epik_input>
W0NIM11bQ0gyXUMoW09IXSkoW0NIMl1bQ0gzXSlbQ0gyXW4oW2NIXW4xKWMoYzEyKW5bY0hdbmMyW05IXVtDSF0oW0NIM10pW0NIM10=

> <s_epik_cmdline>
J2VwaWtfcHl0aG9uJywgJy1waCcsICc3LjAnLCAnLXRuJywgJzgnLCAnLW1hJywgJzIwMCcsICctbWV0YWxfYmluZGluZycsICctaW1hZScsICc8aW5maWxlLm1hZT4nLCAnLW9tYWUnLCAnPG91dGZpbGUubWFlPic=

> <r_lp_tautomer_probability>
1

> <r_epik_Ionization_Penalty>
0.0022327

> <r_epik_Ionization_Penalty_Charging>
0

> <r_epik_Ionization_Penalty_Neutral>
0.0022327

> <r_epik_State_Penalty>
-0

> <r_epik_Charging_Adjusted_Penalty>
0

> <i_epik_Tot_Q>
0

> <i_epik_Tot_abs_Q>
0

> <r_epik_Metal_State_Penalty>
-0

> <b_epik_Metal_Only>
0

> <s_lp_Force_Field>
OPLS_2005

> <r_lp_Energy>
13.0667

> <b_lp_Chiralities_Consistent>
1

> <s_lp_Variant>
AV-unprocessed.smi:2394-1

> <Gold.Version>
5.8.1

> <Gold.Id.Protein>
6NUR|6NUR_protein|mol2

> <Gold.PLP.Fitness>
43.0691

> <Gold.PLP.PLP>
-33.5942

> <Gold.PLP.part.hbond>
-3.7965

> <Gold.PLP.part.metal>
0.0000

> <Gold.PLP.part.buried>
-0.1131

> <Gold.PLP.part.nonpolar>
-30.6149

> <Gold.PLP.part.repulsive>
0.7591

> <Gold.PLP.ligand.clash>
0.0000

> <Gold.PLP.ligand.torsion>
0.2149

> <Gold.PLP.Chemscore.Hbond>
2.8105

> <Gold.PLP.Chemscore.CHOScore>
0.4582

> <Gold.PLP.Chemscore.Metal>
0.0000

> <Gold.Chemscore.Hbonds>
donor molecule, donor type, donor heavy atom, donor atom, acceptor molecule, acceptor atom, score
      L1  H     4    26       P1  7957  0.57
      P1  H  7954  7966       L1    10  0.98
      P1  H  7989  7998       L1     4  0.07
      P1  H  8011  8017       L1     4  1.00
      L1  C     9    34       P1  7957  0.37

> <Gold.PLP.Chemscore.Internal.Correction>
0.0987

> <Gold.Rescore>
     Score         DG    S(hbond)    S(metal)    S(lipo)     H(rot)  DE(clash)    DE(int)     intcor
      8.81     -13.31       2.11        0.00      62.19       2.54       1.82       2.69       ----

> <Gold.Chemscore.Fitness>
8.8116

> <Gold.Chemscore.DG>
-13.3147

> <Gold.Chemscore.ZeroCoef>
-5.4800

> <Gold.Chemscore.Hbond>
2.1137

> <Gold.Chemscore.Metal>
0.0000

> <Gold.Chemscore.Lipo>
62.1949

> <Gold.Chemscore.Internal_Hbond>
0.0000

> <Gold.Chemscore.DEClash>
1.8172

> <Gold.Chemscore.DEInternal>
2.6859

> <Gold.Chemscore.Rot>
2.5398

> <Gold.Chemscore.Internal.Correction>
   9.000000E+99

> <Gold.Chemscore.Hbonds>
donor molecule, donor type, donor heavy atom, donor atom, acceptor molecule, acceptor atom, score
      L1  H     4    26       P1  7957  0.55
      P1  H  7954  7966       L1    10  0.64
      P1  H  8011  8017       L1     4  0.25

> <Gold.Chemscore.Hbond.Weighted>
-7.0599

> <Gold.Chemscore.Metal.Weighted>
-0.0000

> <Gold.Chemscore.Lipo.Weighted>
-7.2768

> <Gold.Chemscore.Internal_Hbond.Weighted>
0.0000

> <Gold.Chemscore.DEClash.Weighted>
1.8172

> <Gold.Chemscore.DEInternal.Weighted>
2.6859

> <Gold.Chemscore.Rot.Weighted>
6.5020

> <Gold.Chemscore.Internal.Correction.Weighted>
   9.000000E+99

> <Gold.Protein.RotatedTorsions>
[ 6907 6896 6895 6894 ] final  -42.60 input  -60.11 | X-H torsion
[ 7974 7965 7964 7962 ] final   74.08 input  175.53 | X-H torsion
[ 8008 7997 7996 7995 ] final  -20.12 input   59.86 | X-H torsion
[ 10167 10162 10161 10158 ] final   65.64 input  -65.29 | X-H torsion
[ 10718 10713 10712 10709 ] final   51.53 input   66.30 | X-H torsion
[ 10763 10752 10751 10750 ] final  -55.32 input  -60.55 | X-H torsion
[ 11005 11000 10999 10996 ] final    0.70 input  -57.11 | X-H torsion

> <Gold.Protein.ActiveResidues>
 VAL166  LYS551  ARG553  GLY616  TRP617  ASP618  TYR619  PRO620  LYS621  CYS622 
 ASP623  PHE694  ASN695  SER759  ASP760  ASP761  ALA762  ILE779  LEU786  VAL792 
 PHE793  MET794  SER795  GLU796  ALA797  LYS798  CYS799  TRP800  GLU811  SER814 

> <Gold.Protein.RotatedAtoms>
  150.9534  134.8931  159.7685 H   0  0  0  0  0  0  0  0  0  0  0  0  # atno 6907 bound_to 6896
  152.5128  134.3774  159.9349 H   0  0  0  0  0  0  0  0  0  0  0  0  # atno 6908 bound_to 6896
  151.3789  133.3788  159.2742 H   0  0  0  0  0  0  0  0  0  0  0  0  # atno 6909 bound_to 6896
  145.7328  139.2690  143.1531 H   0  0  0  0  0  0  0  0  0  0  0  0  # atno 7974 bound_to 7965
  154.4791  140.2070  155.9807 H   0  0  0  0  0  0  0  0  0  0  0  0  # atno 8008 bound_to 7997
  156.1136  140.3225  155.8077 H   0  0  0  0  0  0  0  0  0  0  0  0  # atno 8009 bound_to 7997
  155.4591  140.0523  157.2983 H   0  0  0  0  0  0  0  0  0  0  0  0  # atno 8010 bound_to 7997
  140.1091  144.4834  150.6989 H   0  0  0  0  0  0  0  0  0  0  0  0  # atno 10167 bound_to 10162
  157.4990  130.8425  149.8293 H   0  0  0  0  0  0  0  0  0  0  0  0  # atno 10718 bound_to 10713
  154.1889  135.6431  153.5054 H   0  0  0  0  0  0  0  0  0  0  0  0  # atno 10763 bound_to 10752
  153.0040  135.5424  154.6436 H   0  0  0  0  0  0  0  0  0  0  0  0  # atno 10764 bound_to 10752
  154.5820  135.2926  155.0696 H   0  0  0  0  0  0  0  0  0  0  0  0  # atno 10765 bound_to 10752
  140.6236  133.9639  155.8237 H   0  0  0  0  0  0  0  0  0  0  0  0  # atno 11005 bound_to 11000
  146.0522  140.8058  142.9776 LP  0  0  0  0  0  0  0  0  0  0  0  0  # atno 17320 bound_to 7965
  144.6889  140.3069  143.7254 LP  0  0  0  0  0  0  0  0  0  0  0  0  # atno 17321 bound_to 7965
  140.6935  143.2390  151.5065 LP  0  0  0  0  0  0  0  0  0  0  0  0  # atno 17342 bound_to 10162
  139.5629  144.2113  152.1719 LP  0  0  0  0  0  0  0  0  0  0  0  0  # atno 17343 bound_to 10162
  156.0217  130.3793  150.1941 LP  0  0  0  0  0  0  0  0  0  0  0  0  # atno 17370 bound_to 10713
  157.0131  130.9957  151.3360 LP  0  0  0  0  0  0  0  0  0  0  0  0  # atno 17371 bound_to 10713
  141.0725  134.0184  157.3506 LP  0  0  0  0  0  0  0  0  0  0  0  0  # atno 17394 bound_to 11000
  139.9143  135.0195  156.7820 LP  0  0  0  0  0  0  0  0  0  0  0  0  # atno 17395 bound_to 11000

$$$$
