AV-unprocessed.smi:735|AV-procd|sdf|3533|dock4
  -GOLD-   22720 0523D 1   1.00000     0.00000
 Structure written by MMmdl.
 17 17  0  0  0  0  0  0  0  0  2 V2000
  151.1181  137.1037  155.0378 O   0  0  0  0  0  0  0  0  0  0  0  0
  151.2888  138.2671  155.4655 C   0  0  0  0  0  0  0  0  0  0  0  0
  152.3846  138.8731  155.4644 O   0  5  0  0  0  0  0  0  0  0  0  0
  150.0544  138.9859  156.0379 C   0  0  0  0  0  0  0  0  0  0  0  0
  149.1654  139.0993  155.0478 F   0  0  0  0  0  0  0  0  0  0  0  0
  149.5051  138.1872  156.9560 F   0  0  0  0  0  0  0  0  0  0  0  0
  150.3745  140.3784  156.6014 C   0  0  0  0  0  0  0  0  0  0  0  0
  151.1753  140.5251  157.6918 C   0  0  0  0  0  0  0  0  0  0  0  0
  151.5213  141.7513  158.2189 N   0  0  0  0  0  0  0  0  0  0  0  0
  151.0661  142.9350  157.6421 C   0  0  0  0  0  0  0  0  0  0  0  0
  151.3676  144.0348  158.0990 O   0  0  0  0  0  0  0  0  0  0  0  0
  150.2513  142.8044  156.5195 N   0  0  0  0  0  0  0  0  0  0  0  0
  149.8587  141.5919  155.9381 C   0  0  0  0  0  0  0  0  0  0  0  0
  149.1209  141.6235  154.9546 O   0  0  0  0  0  0  0  0  0  0  0  0
  152.1136  141.8149  159.0343 H   0  0  0  0  0  0  0  0  0  0  0  0
  149.9096  143.6531  156.0928 H   0  0  0  0  0  0  0  0  0  0  0  0
  151.5692  139.6492  158.1866 H   0  0  0  0  0  0  0  0  0  0  0  0
  1  2  2  0  0  0  0
  2  3  1  0  0  0  0
  2  4  1  0  0  0  0
  4  5  1  0  0  0  0
  4  6  1  0  0  0  0
  4  7  1  0  0  0  0
  7 13  1  0  0  0  0
  7  8  2  0  0  0  0
  8  9  1  0  0  0  0
  8 17  1  0  0  0  0
  9 15  1  0  0  0  0
  9 10  1  0  0  0  0
 10 11  2  0  0  0  0
 10 12  1  0  0  0  0
 12 16  1  0  0  0  0
 12 13  1  0  0  0  0
 13 14  2  0  0  0  0
M  CHG  1   3  -1
M  END
> <s_m_source_file>
AV-unprocessed.smi

> <i_m_source_file_index>
735

> <i_lp_mmshare_version>
43012

> <i_f3d_flags>
0

> <s_epik_input>
Tz1DKFtPSF0pQyhGKShGKWMxW2NIXVtuSF1jKD1PKVtuSF1jMT1P

> <s_epik_cmdline>
J2VwaWtfcHl0aG9uJywgJy1waCcsICc3LjAnLCAnLXRuJywgJzgnLCAnLW1hJywgJzIwMCcsICctbWV0YWxfYmluZGluZycsICctaW1hZScsICc8aW5maWxlLm1hZT4nLCAnLW9tYWUnLCAnPG91dGZpbGUubWFlPic=

> <r_lp_tautomer_probability>
0.999514

> <r_epik_Ionization_Penalty>
0.138461

> <r_epik_Ionization_Penalty_Charging>
0.138461

> <r_epik_Ionization_Penalty_Neutral>
0

> <r_epik_State_Penalty>
0.812948

> <r_epik_Charging_Adjusted_Penalty>
0.951409

> <i_epik_Tot_Q>
-1

> <i_epik_Tot_abs_Q>
1

> <r_epik_Metal_State_Penalty>
4.31017

> <b_epik_Metal_Only>
0

> <s_lp_Force_Field>
OPLS_2005

> <r_lp_Energy>
7.04955

> <b_lp_Chiralities_Consistent>
1

> <s_lp_Variant>
AV-unprocessed.smi:735-2

> <Gold.Version>
5.8.1

> <Gold.Id.Protein>
6NUR|6NUR_protein|mol2

> <Gold.PLP.Fitness>
39.0652

> <Gold.PLP.PLP>
-24.5295

> <Gold.PLP.part.hbond>
-5.4775

> <Gold.PLP.part.metal>
0.0000

> <Gold.PLP.part.buried>
-3.3239

> <Gold.PLP.part.nonpolar>
-16.4335

> <Gold.PLP.part.repulsive>
0.7642

> <Gold.PLP.ligand.clash>
0.5049

> <Gold.PLP.ligand.torsion>
0.1676

> <Gold.PLP.Chemscore.Hbond>
5.1090

> <Gold.PLP.Chemscore.CHOScore>
0.0000

> <Gold.PLP.Chemscore.Metal>
0.0000

> <Gold.Chemscore.Hbonds>
donor molecule, donor type, donor heavy atom, donor atom, acceptor molecule, acceptor atom, score
      L1  H    12    16       P1  8028  1.00

> <Gold.PLP.Chemscore.Internal.Correction>
0.0489

> <Gold.Rescore>
     Score         DG    S(hbond)    S(metal)    S(lipo)     H(rot)  DE(clash)    DE(int)     intcor
      9.52     -12.59       2.88        0.00      18.47       1.82       0.10       2.97       ----

> <Gold.Chemscore.Fitness>
9.5174

> <Gold.Chemscore.DG>
-12.5938

> <Gold.Chemscore.ZeroCoef>
-5.4800

> <Gold.Chemscore.Hbond>
2.8768

> <Gold.Chemscore.Metal>
0.0000

> <Gold.Chemscore.Lipo>
18.4710

> <Gold.Chemscore.Internal_Hbond>
0.0000

> <Gold.Chemscore.DEClash>
0.1033

> <Gold.Chemscore.DEInternal>
2.9731

> <Gold.Chemscore.Rot>
1.8187

> <Gold.Chemscore.Internal.Correction>
   9.000000E+99

> <Gold.Chemscore.Hbonds>
donor molecule, donor type, donor heavy atom, donor atom, acceptor molecule, acceptor atom, score
      L1  H    12    16       P1  8028  0.93
      P1  H  7997  8008       L1     3  0.05
      P1  H 10752 10764       L1     1  0.01

> <Gold.Chemscore.Hbond.Weighted>
-9.6086

> <Gold.Chemscore.Metal.Weighted>
-0.0000

> <Gold.Chemscore.Lipo.Weighted>
-2.1611

> <Gold.Chemscore.Internal_Hbond.Weighted>
0.0000

> <Gold.Chemscore.DEClash.Weighted>
0.1033

> <Gold.Chemscore.DEInternal.Weighted>
2.9731

> <Gold.Chemscore.Rot.Weighted>
4.6559

> <Gold.Chemscore.Internal.Correction.Weighted>
   9.000000E+99

> <Gold.Protein.RotatedTorsions>
[ 6907 6896 6895 6894 ] final  159.32 input  -60.11 | X-H torsion
[ 7974 7965 7964 7962 ] final  156.02 input  175.53 | X-H torsion
[ 8008 7997 7996 7995 ] final  -24.90 input   59.86 | X-H torsion
[ 10167 10162 10161 10158 ] final  -35.58 input  -65.29 | X-H torsion
[ 10718 10713 10712 10709 ] final  -80.15 input   66.30 | X-H torsion
[ 10763 10752 10751 10750 ] final  -87.71 input  -60.55 | X-H torsion
[ 11005 11000 10999 10996 ] final  100.91 input  -57.11 | X-H torsion

> <Gold.Protein.ActiveResidues>
 VAL166  LYS551  ARG553  GLY616  TRP617  ASP618  TYR619  PRO620  LYS621  CYS622 
 ASP623  PHE694  ASN695  SER759  ASP760  ASP761  ALA762  ILE779  LEU786  VAL792 
 PHE793  MET794  SER795  GLU796  ALA797  LYS798  CYS799  TRP800  GLU811  SER814 

> <Gold.Protein.RotatedAtoms>
  151.9874  133.3778  159.4130 H   0  0  0  0  0  0  0  0  0  0  0  0  # atno 6907 bound_to 6896
  150.6926  134.3974  159.5113 H   0  0  0  0  0  0  0  0  0  0  0  0  # atno 6908 bound_to 6896
  152.1702  134.8840  160.0585 H   0  0  0  0  0  0  0  0  0  0  0  0  # atno 6909 bound_to 6896
  144.7989  139.7147  143.6190 H   0  0  0  0  0  0  0  0  0  0  0  0  # atno 7974 bound_to 7965
  154.4504  140.1941  156.0537 H   0  0  0  0  0  0  0  0  0  0  0  0  # atno 8008 bound_to 7997
  156.0635  140.3293  155.7463 H   0  0  0  0  0  0  0  0  0  0  0  0  # atno 8009 bound_to 7997
  155.5374  140.0583  157.2867 H   0  0  0  0  0  0  0  0  0  0  0  0  # atno 8010 bound_to 7997
  140.7162  143.3468  151.2240 H   0  0  0  0  0  0  0  0  0  0  0  0  # atno 10167 bound_to 10162
  156.0076  130.4566  150.3757 H   0  0  0  0  0  0  0  0  0  0  0  0  # atno 10718 bound_to 10713
  154.6366  135.5403  153.7741 H   0  0  0  0  0  0  0  0  0  0  0  0  # atno 10763 bound_to 10752
  153.0311  135.6449  154.1222 H   0  0  0  0  0  0  0  0  0  0  0  0  # atno 10764 bound_to 10752
  154.1149  135.2924  155.3202 H   0  0  0  0  0  0  0  0  0  0  0  0  # atno 10765 bound_to 10752
  139.8772  134.9160  156.4827 H   0  0  0  0  0  0  0  0  0  0  0  0  # atno 11005 bound_to 11000
  146.2265  139.5732  142.9584 LP  0  0  0  0  0  0  0  0  0  0  0  0  # atno 17320 bound_to 7965
  145.5603  141.0405  143.2229 LP  0  0  0  0  0  0  0  0  0  0  0  0  # atno 17321 bound_to 7965
  139.6989  143.9566  152.2896 LP  0  0  0  0  0  0  0  0  0  0  0  0  # atno 17342 bound_to 10162
  139.9253  144.6775  150.8419 LP  0  0  0  0  0  0  0  0  0  0  0  0  # atno 17343 bound_to 10162
  157.1839  131.0399  151.2734 LP  0  0  0  0  0  0  0  0  0  0  0  0  # atno 17370 bound_to 10713
  157.4121  130.7391  149.6847 LP  0  0  0  0  0  0  0  0  0  0  0  0  # atno 17371 bound_to 10713
  140.8716  133.7984  155.9370 LP  0  0  0  0  0  0  0  0  0  0  0  0  # atno 17394 bound_to 11000
  140.8947  134.2452  157.5075 LP  0  0  0  0  0  0  0  0  0  0  0  0  # atno 17395 bound_to 11000

$$$$
