AV-unprocessed.smi:797|AV-procd|sdf|3768|dock9
  -GOLD-   22720 1203D 1   1.00000     0.00000
 Structure written by MMmdl.
 34 35  0  0  0  0  0  0  0  0  2 V2000
  147.3724  142.0018  154.3376 C   0  0  0  0  0  0  0  0  0  0  0  0
  148.5600  141.1129  154.5610 C   0  0  0  0  0  0  0  0  0  0  0  0
  149.7690  141.4101  155.2467 C   0  0  0  0  0  0  0  0  0  0  0  0
  150.4926  140.2561  155.1411 C   0  0  0  0  0  0  0  0  0  0  0  0
  151.8498  139.8584  155.6207 C   0  0  0  0  0  0  0  0  0  0  0  0
  151.7770  139.3320  157.3879 S   0  0  0  0  0  0  0  0  0  0  0  0
  150.8432  138.1951  157.4284 O   0  0  0  0  0  0  0  0  0  0  0  0
  153.1661  139.0752  157.8033 O   0  0  0  0  0  0  0  0  0  0  0  0
  151.1479  140.6623  158.0732 N   0  5  0  0  0  0  0  0  0  0  0  0
  151.9455  141.8756  158.1701 C   0  0  0  0  0  0  0  0  0  0  0  0
  152.1725  142.2378  159.6584 C   0  0  0  0  0  0  0  0  0  0  0  0
  152.9003  143.5922  159.8554 C   0  0  0  0  0  0  0  0  0  0  0  0
  152.1771  144.7619  159.1552 C   0  0  0  0  0  0  0  0  0  0  0  0
  151.9521  144.4152  157.6686 C   0  0  0  0  0  0  0  0  0  0  0  0
  151.2270  143.0595  157.4739 C   0  0  0  0  0  0  0  0  0  0  0  0
  149.7841  139.3215  154.4561 O   0  0  0  0  0  0  0  0  0  0  0  0
  148.5525  139.8766  154.0917 N   0  0  0  0  0  0  0  0  0  0  0  0
  147.6459  143.0527  154.4338 H   0  0  0  0  0  0  0  0  0  0  0  0
  146.5875  141.7944  155.0650 H   0  0  0  0  0  0  0  0  0  0  0  0
  146.9515  141.8602  153.3418 H   0  0  0  0  0  0  0  0  0  0  0  0
  150.0668  142.3277  155.7317 H   0  0  0  0  0  0  0  0  0  0  0  0
  152.2642  139.0461  155.0242 H   0  0  0  0  0  0  0  0  0  0  0  0
  152.5334  140.7042  155.5533 H   0  0  0  0  0  0  0  0  0  0  0  0
  152.9252  141.7478  157.7078 H   0  0  0  0  0  0  0  0  0  0  0  0
  151.2118  142.2815  160.1741 H   0  0  0  0  0  0  0  0  0  0  0  0
  152.7431  141.4473  160.1472 H   0  0  0  0  0  0  0  0  0  0  0  0
  152.9849  143.8061  160.9212 H   0  0  0  0  0  0  0  0  0  0  0  0
  153.9251  143.5250  159.4844 H   0  0  0  0  0  0  0  0  0  0  0  0
  151.2168  144.9426  159.6396 H   0  0  0  0  0  0  0  0  0  0  0  0
  152.7562  145.6809  159.2493 H   0  0  0  0  0  0  0  0  0  0  0  0
  151.3701  145.2072  157.1966 H   0  0  0  0  0  0  0  0  0  0  0  0
  152.9125  144.4037  157.1491 H   0  0  0  0  0  0  0  0  0  0  0  0
  151.1269  142.8616  156.4066 H   0  0  0  0  0  0  0  0  0  0  0  0
  150.2108  143.1474  157.8614 H   0  0  0  0  0  0  0  0  0  0  0  0
  1  2  1  0  0  0  0
  1 18  1  0  0  0  0
  1 19  1  0  0  0  0
  1 20  1  0  0  0  0
  2 17  2  0  0  0  0
  2  3  1  0  0  0  0
  3  4  2  0  0  0  0
  3 21  1  0  0  0  0
  4  5  1  0  0  0  0
  4 16  1  0  0  0  0
  5  6  1  0  0  0  0
  5 22  1  0  0  0  0
  5 23  1  0  0  0  0
  6  7  2  0  0  0  0
  6  8  2  0  0  0  0
  6  9  1  0  0  0  0
  9 10  1  0  0  0  0
 10 15  1  0  0  0  0
 10 11  1  0  0  0  0
 10 24  1  0  0  0  0
 11 12  1  0  0  0  0
 11 25  1  0  0  0  0
 11 26  1  0  0  0  0
 12 13  1  0  0  0  0
 12 27  1  0  0  0  0
 12 28  1  0  0  0  0
 13 14  1  0  0  0  0
 13 29  1  0  0  0  0
 13 30  1  0  0  0  0
 14 15  1  0  0  0  0
 14 31  1  0  0  0  0
 14 32  1  0  0  0  0
 15 33  1  0  0  0  0
 15 34  1  0  0  0  0
 16 17  1  0  0  0  0
M  CHG  1   9  -1
M  END
> <s_m_source_file>
AV-unprocessed.smi

> <i_m_source_file_index>
797

> <i_lp_mmshare_version>
43012

> <i_f3d_flags>
0

> <s_epik_input>
W0NIM11jMVtjSF1jKG9uMSlbQ0gyXVMoPU8pKD1PKVtOSF1bQ0hdMltDSDJdW0NIMl1bQ0gyXVtDSDJdW0NIMl0y

> <s_epik_cmdline>
J2VwaWtfcHl0aG9uJywgJy1waCcsICc3LjAnLCAnLXRuJywgJzgnLCAnLW1hJywgJzIwMCcsICctbWV0YWxfYmluZGluZycsICctaW1hZScsICc8aW5maWxlLm1hZT4nLCAnLW9tYWUnLCAnPG91dGZpbGUubWFlPic=

> <r_lp_tautomer_probability>
1

> <r_epik_Ionization_Penalty>
5.48284

> <r_epik_Ionization_Penalty_Charging>
5.48284

> <r_epik_Ionization_Penalty_Neutral>
9.17401e-10

> <r_epik_State_Penalty>
5.48278

> <r_epik_Charging_Adjusted_Penalty>
10.9656

> <i_epik_Tot_Q>
-1

> <i_epik_Tot_abs_Q>
1

> <r_epik_Metal_State_Penalty>
1.49378

> <b_epik_Metal_Only>
1

> <s_lp_Force_Field>
OPLS_2005

> <r_lp_Energy>
6.0802

> <b_lp_Chiralities_Consistent>
1

> <s_lp_Variant>
AV-unprocessed.smi:797-2

> <Gold.Version>
5.8.1

> <Gold.Id.Protein>
6NUR|6NUR_protein|mol2

> <Gold.PLP.Fitness>
40.8273

> <Gold.PLP.PLP>
-38.5374

> <Gold.PLP.part.hbond>
-1.0000

> <Gold.PLP.part.metal>
0.0000

> <Gold.PLP.part.buried>
-3.4316

> <Gold.PLP.part.nonpolar>
-34.5029

> <Gold.PLP.part.repulsive>
0.3112

> <Gold.PLP.ligand.clash>
0.0000

> <Gold.PLP.ligand.torsion>
0.8511

> <Gold.PLP.Chemscore.Hbond>
1.0000

> <Gold.PLP.Chemscore.CHOScore>
0.0000

> <Gold.PLP.Chemscore.Metal>
0.0000

> <Gold.Chemscore.Hbonds>
donor molecule, donor type, donor heavy atom, donor atom, acceptor molecule, acceptor atom, score
      P1  H  7997  8009       L1     8  1.00

> <Gold.PLP.Chemscore.Internal.Correction>
0.9922

> <Gold.Rescore>
     Score         DG    S(hbond)    S(metal)    S(lipo)     H(rot)  DE(clash)    DE(int)     intcor
     16.96     -17.91       0.98        0.00     108.01       1.35       0.11       0.85       ----

> <Gold.Chemscore.Fitness>
16.9557

> <Gold.Chemscore.DG>
-17.9120

> <Gold.Chemscore.ZeroCoef>
-5.4800

> <Gold.Chemscore.Hbond>
0.9768

> <Gold.Chemscore.Metal>
0.0000

> <Gold.Chemscore.Lipo>
108.0114

> <Gold.Chemscore.Internal_Hbond>
0.0000

> <Gold.Chemscore.DEClash>
0.1066

> <Gold.Chemscore.DEInternal>
0.8498

> <Gold.Chemscore.Rot>
1.3546

> <Gold.Chemscore.Internal.Correction>
   9.000000E+99

> <Gold.Chemscore.Hbonds>
donor molecule, donor type, donor heavy atom, donor atom, acceptor molecule, acceptor atom, score
      P1  H  7997  8009       L1     8  0.95

> <Gold.Chemscore.Hbond.Weighted>
-3.2626

> <Gold.Chemscore.Metal.Weighted>
-0.0000

> <Gold.Chemscore.Lipo.Weighted>
-12.6373

> <Gold.Chemscore.Internal_Hbond.Weighted>
0.0000

> <Gold.Chemscore.DEClash.Weighted>
0.1066

> <Gold.Chemscore.DEInternal.Weighted>
0.8498

> <Gold.Chemscore.Rot.Weighted>
3.4679

> <Gold.Chemscore.Internal.Correction.Weighted>
   9.000000E+99

> <Gold.Protein.RotatedTorsions>
[ 6907 6896 6895 6894 ] final   30.47 input  -60.11 | X-H torsion
[ 7974 7965 7964 7962 ] final  107.12 input  175.53 | X-H torsion
[ 8008 7997 7996 7995 ] final  141.37 input   59.86 | X-H torsion
[ 10167 10162 10161 10158 ] final  162.60 input  -65.29 | X-H torsion
[ 10718 10713 10712 10709 ] final -103.33 input   66.30 | X-H torsion
[ 10763 10752 10751 10750 ] final    6.89 input  -60.55 | X-H torsion
[ 11005 11000 10999 10996 ] final -168.26 input  -57.11 | X-H torsion

> <Gold.Protein.ActiveResidues>
 VAL166  LYS551  ARG553  GLY616  TRP617  ASP618  TYR619  PRO620  LYS621  CYS622 
 ASP623  PHE694  ASN695  SER759  ASP760  ASP761  ALA762  ILE779  LEU786  VAL792 
 PHE793  MET794  SER795  GLU796  ALA797  LYS798  CYS799  TRP800  GLU811  SER814 

> <Gold.Protein.RotatedAtoms>
  152.0464  134.9680  160.0574 H   0  0  0  0  0  0  0  0  0  0  0  0  # atno 6907 bound_to 6896
  152.1098  133.4290  159.4634 H   0  0  0  0  0  0  0  0  0  0  0  0  # atno 6908 bound_to 6896
  150.6843  134.2580  159.4581 H   0  0  0  0  0  0  0  0  0  0  0  0  # atno 6909 bound_to 6896
  145.2978  139.2579  143.3830 H   0  0  0  0  0  0  0  0  0  0  0  0  # atno 7974 bound_to 7965
  156.2966  140.2317  156.4554 H   0  0  0  0  0  0  0  0  0  0  0  0  # atno 8008 bound_to 7997
  154.8065  140.0445  157.1332 H   0  0  0  0  0  0  0  0  0  0  0  0  # atno 8009 bound_to 7997
  154.9473  140.3037  155.5095 H   0  0  0  0  0  0  0  0  0  0  0  0  # atno 8010 bound_to 7997
  139.4863  144.4421  151.8938 H   0  0  0  0  0  0  0  0  0  0  0  0  # atno 10167 bound_to 10162
  156.0261  130.5462  150.7238 H   0  0  0  0  0  0  0  0  0  0  0  0  # atno 10718 bound_to 10713
  153.2425  135.6905  153.7767 H   0  0  0  0  0  0  0  0  0  0  0  0  # atno 10763 bound_to 10752
  153.6891  135.3316  155.3198 H   0  0  0  0  0  0  0  0  0  0  0  0  # atno 10764 bound_to 10752
  154.8361  135.4541  154.1352 H   0  0  0  0  0  0  0  0  0  0  0  0  # atno 10765 bound_to 10752
  140.5440  134.5494  157.5106 H   0  0  0  0  0  0  0  0  0  0  0  0  # atno 11005 bound_to 11000
  146.3162  140.3485  142.8654 LP  0  0  0  0  0  0  0  0  0  0  0  0  # atno 17320 bound_to 7965
  144.9119  140.7767  143.5802 LP  0  0  0  0  0  0  0  0  0  0  0  0  # atno 17321 bound_to 7965
  140.3874  144.2660  150.5903 LP  0  0  0  0  0  0  0  0  0  0  0  0  # atno 17342 bound_to 10162
  140.5178  143.2273  151.8436 LP  0  0  0  0  0  0  0  0  0  0  0  0  # atno 17343 bound_to 10162
  157.4847  131.0905  151.0496 LP  0  0  0  0  0  0  0  0  0  0  0  0  # atno 17370 bound_to 10713
  157.0919  130.5946  149.5441 LP  0  0  0  0  0  0  0  0  0  0  0  0  # atno 17371 bound_to 10713
  139.9489  134.7652  156.0495 LP  0  0  0  0  0  0  0  0  0  0  0  0  # atno 17394 bound_to 11000
  141.1211  133.6613  156.3216 LP  0  0  0  0  0  0  0  0  0  0  0  0  # atno 17395 bound_to 11000

$$$$
