AV-unprocessed.smi:3028|AV-procd|sdf|11524|dock7
  -GOLD-   2272016463D 1   1.00000     0.00000
 Structure written by MMmdl.
 47 48  0  0  0  0  0  0  0  0  1 V2000
  152.9417  143.0172  161.6349 C   0  0  0  0  0  0  0  0  0  0  0  0
  153.1600  142.0278  160.5267 C   0  0  0  0  0  0  0  0  0  0  0  0
  154.3968  141.5139  160.0436 C   0  0  0  0  0  0  0  0  0  0  0  0
  154.2434  140.6534  159.0513 N   0  0  0  0  0  0  0  0  0  0  0  0
  152.9060  140.5837  158.8646 N   0  0  0  0  0  0  0  0  0  0  0  0
  152.3514  139.7139  157.8345 C   0  0  1  0  0  0  0  0  0  0  0  0
  152.8920  138.2812  158.0092 C   0  0  0  0  0  0  0  0  0  0  0  0
  150.8001  139.7766  157.7996 C   0  0  1  0  0  0  0  0  0  0  0  0
  150.2524  140.9711  156.9966 C   0  0  0  0  0  0  0  0  0  0  0  0
  150.2760  138.5679  157.1699 N   0  0  0  0  0  0  0  0  0  0  0  0
  149.0256  138.1179  157.7957 C   0  0  0  0  0  0  0  0  0  0  0  0
  149.2483  137.1038  158.9281 C   0  0  0  0  0  0  0  0  0  0  0  0
  150.3640  136.6214  159.1201 O   0  0  0  0  0  0  0  0  0  0  0  0
  148.2104  136.7611  159.7102 N   0  0  0  0  0  0  0  0  0  0  0  0
  148.2109  135.8232  160.8313 C   0  0  0  0  0  0  0  0  0  0  0  0
  147.2722  134.6465  160.5251 C   0  0  0  0  0  0  0  0  0  0  0  0
  147.1426  133.7238  161.7484 C   0  0  0  0  0  0  0  0  0  0  0  0
  146.6867  134.4675  162.8735 O   0  0  0  0  0  0  0  0  0  0  0  0
  147.5897  135.4976  163.2613 C   0  0  0  0  0  0  0  0  0  0  0  0
  147.7455  136.5181  162.1224 C   0  0  0  0  0  0  0  0  0  0  0  0
  152.2300  141.4054  159.7428 C   0  0  0  0  0  0  0  0  0  0  0  0
  153.8829  143.4162  162.0135 H   0  0  0  0  0  0  0  0  0  0  0  0
  152.4215  142.5655  162.4797 H   0  0  0  0  0  0  0  0  0  0  0  0
  152.3433  143.8664  161.3041 H   0  0  0  0  0  0  0  0  0  0  0  0
  155.3970  141.7405  160.3831 H   0  0  0  0  0  0  0  0  0  0  0  0
  152.7252  140.0899  156.8804 H   0  0  0  0  0  0  0  0  0  0  0  0
  152.6123  137.6440  157.1703 H   0  0  0  0  0  0  0  0  0  0  0  0
  152.5110  137.8172  158.9196 H   0  0  0  0  0  0  0  0  0  0  0  0
  153.9810  138.2784  158.0653 H   0  0  0  0  0  0  0  0  0  0  0  0
  150.4268  139.8755  158.8211 H   0  0  0  0  0  0  0  0  0  0  0  0
  150.5284  141.9228  157.4510 H   0  0  0  0  0  0  0  0  0  0  0  0
  149.1629  140.9461  156.9495 H   0  0  0  0  0  0  0  0  0  0  0  0
  150.6296  140.9700  155.9733 H   0  0  0  0  0  0  0  0  0  0  0  0
  150.9817  137.8455  157.1916 H   0  0  0  0  0  0  0  0  0  0  0  0
  148.4927  138.9783  158.2025 H   0  0  0  0  0  0  0  0  0  0  0  0
  148.3920  137.6679  157.0310 H   0  0  0  0  0  0  0  0  0  0  0  0
  147.3251  137.2014  159.5047 H   0  0  0  0  0  0  0  0  0  0  0  0
  149.2106  135.4149  160.9858 H   0  0  0  0  0  0  0  0  0  0  0  0
  146.2837  135.0193  160.2523 H   0  0  0  0  0  0  0  0  0  0  0  0
  147.6409  134.0811  159.6684 H   0  0  0  0  0  0  0  0  0  0  0  0
  146.4291  132.9259  161.5416 H   0  0  0  0  0  0  0  0  0  0  0  0
  148.0961  133.2458  161.9778 H   0  0  0  0  0  0  0  0  0  0  0  0
  147.2006  135.9891  164.1532 H   0  0  0  0  0  0  0  0  0  0  0  0
  148.5552  135.0669  163.5312 H   0  0  0  0  0  0  0  0  0  0  0  0
  148.4490  137.2970  162.4166 H   0  0  0  0  0  0  0  0  0  0  0  0
  146.7879  137.0128  161.9528 H   0  0  0  0  0  0  0  0  0  0  0  0
  151.1524  141.4781  159.7383 H   0  0  0  0  0  0  0  0  0  0  0  0
  1  2  1  0  0  0  0
  1 22  1  0  0  0  0
  1 23  1  0  0  0  0
  1 24  1  0  0  0  0
  2 21  2  0  0  0  0
  2  3  1  0  0  0  0
  3  4  2  0  0  0  0
  3 25  1  0  0  0  0
  4  5  1  0  0  0  0
  5  6  1  0  0  0  0
  5 21  1  0  0  0  0
  6  7  1  0  0  0  0
  6  8  1  0  0  0  0
  6 26  1  0  0  0  0
  7 27  1  0  0  0  0
  7 28  1  0  0  0  0
  7 29  1  0  0  0  0
  8  9  1  0  0  0  0
  8 10  1  0  0  0  0
  8 30  1  0  0  0  0
  9 31  1  0  0  0  0
  9 32  1  0  0  0  0
  9 33  1  0  0  0  0
 10 11  1  0  0  0  0
 10 34  1  0  0  0  0
 11 12  1  0  0  0  0
 11 35  1  0  0  0  0
 11 36  1  0  0  0  0
 12 13  2  0  0  0  0
 12 14  1  0  0  0  0
 14 15  1  0  0  0  0
 14 37  1  0  0  0  0
 15 20  1  0  0  0  0
 15 16  1  0  0  0  0
 15 38  1  0  0  0  0
 16 17  1  0  0  0  0
 16 39  1  0  0  0  0
 16 40  1  0  0  0  0
 17 18  1  0  0  0  0
 17 41  1  0  0  0  0
 17 42  1  0  0  0  0
 18 19  1  0  0  0  0
 19 20  1  0  0  0  0
 19 43  1  0  0  0  0
 19 44  1  0  0  0  0
 20 45  1  0  0  0  0
 20 46  1  0  0  0  0
 21 47  1  0  0  0  0
M  END
> <s_m_source_file>
AV-unprocessed.smi

> <i_m_source_file_index>
3028

> <i_lp_mmshare_version>
43012

> <i_f3d_flags>
0

> <s_epik_input>
W0NIM11jMVtjSF1ubihbY0hdMSlbQ0BIXShbQ0gzXSlbQ0BIXShbQ0gzXSlbTkhdW0NIMl1DKD1PKVtOSF1bQ0hdMltDSDJdW0NIMl1PW0NIMl1bQ0gyXTI=

> <s_epik_cmdline>
J2VwaWtfcHl0aG9uJywgJy1waCcsICc3LjAnLCAnLXRuJywgJzgnLCAnLW1hJywgJzIwMCcsICctbWV0YWxfYmluZGluZycsICctaW1hZScsICc8aW5maWxlLm1hZT4nLCAnLW9tYWUnLCAnPG91dGZpbGUubWFlPic=

> <r_lp_tautomer_probability>
1

> <r_epik_Ionization_Penalty>
0.88617

> <r_epik_Ionization_Penalty_Charging>
0

> <r_epik_Ionization_Penalty_Neutral>
0.88617

> <r_epik_State_Penalty>
0.921066

> <r_epik_Charging_Adjusted_Penalty>
0.921066

> <i_epik_Tot_Q>
0

> <i_epik_Tot_abs_Q>
0

> <r_epik_Metal_State_Penalty>
0.917309

> <b_epik_Metal_Only>
0

> <s_lp_Force_Field>
OPLS_2005

> <r_lp_Energy>
18.7055

> <b_lp_Chiralities_Consistent>
1

> <s_lp_Variant>
AV-unprocessed.smi:3028-8

> <Gold.Version>
5.8.1

> <Gold.Id.Protein>
6NUR|6NUR_protein|mol2

> <Gold.PLP.Fitness>
42.6511

> <Gold.PLP.PLP>
-40.1277

> <Gold.PLP.part.hbond>
-2.0000

> <Gold.PLP.part.metal>
0.0000

> <Gold.PLP.part.buried>
-4.4833

> <Gold.PLP.part.nonpolar>
-32.8643

> <Gold.PLP.part.repulsive>
0.1813

> <Gold.PLP.ligand.clash>
0.0000

> <Gold.PLP.ligand.torsion>
1.3590

> <Gold.PLP.Chemscore.Hbond>
1.6965

> <Gold.PLP.Chemscore.CHOScore>
0.0000

> <Gold.PLP.Chemscore.Metal>
0.0000

> <Gold.Chemscore.Hbonds>
donor molecule, donor type, donor heavy atom, donor atom, acceptor molecule, acceptor atom, score
      P1  H  6896  6909       L1    13  1.00
      P1  H  7997  8008       L1     4  0.67

> <Gold.PLP.Chemscore.Internal.Correction>
0.1518

> <Gold.Rescore>
     Score         DG    S(hbond)    S(metal)    S(lipo)     H(rot)  DE(clash)    DE(int)     intcor
     14.65     -15.84       1.00        0.00     102.23       1.92       0.02       1.18       ----

> <Gold.Chemscore.Fitness>
14.6467

> <Gold.Chemscore.DG>
-15.8428

> <Gold.Chemscore.ZeroCoef>
-5.4800

> <Gold.Chemscore.Hbond>
0.9958

> <Gold.Chemscore.Metal>
0.0000

> <Gold.Chemscore.Lipo>
102.2260

> <Gold.Chemscore.Internal_Hbond>
0.0000

> <Gold.Chemscore.DEClash>
0.0185

> <Gold.Chemscore.DEInternal>
1.1776

> <Gold.Chemscore.Rot>
1.9233

> <Gold.Chemscore.Internal.Correction>
   9.000000E+99

> <Gold.Chemscore.Hbonds>
donor molecule, donor type, donor heavy atom, donor atom, acceptor molecule, acceptor atom, score
      P1  H  6896  6909       L1    13  1.00
      P1  H  7997  8008       L1     4  0.26

> <Gold.Chemscore.Hbond.Weighted>
-3.3259

> <Gold.Chemscore.Metal.Weighted>
-0.0000

> <Gold.Chemscore.Lipo.Weighted>
-11.9604

> <Gold.Chemscore.Internal_Hbond.Weighted>
0.0000

> <Gold.Chemscore.DEClash.Weighted>
0.0185

> <Gold.Chemscore.DEInternal.Weighted>
1.1776

> <Gold.Chemscore.Rot.Weighted>
4.9235

> <Gold.Chemscore.Internal.Correction.Weighted>
   9.000000E+99

> <Gold.Protein.RotatedTorsions>
[ 6907 6896 6895 6894 ] final   88.44 input  -60.11 | X-H torsion
[ 7974 7965 7964 7962 ] final   22.41 input  175.53 | X-H torsion
[ 8008 7997 7996 7995 ] final -111.30 input   59.86 | X-H torsion
[ 10167 10162 10161 10158 ] final  104.50 input  -65.29 | X-H torsion
[ 10718 10713 10712 10709 ] final  -22.10 input   66.30 | X-H torsion
[ 10763 10752 10751 10750 ] final  167.09 input  -60.55 | X-H torsion
[ 11005 11000 10999 10996 ] final  -65.68 input  -57.11 | X-H torsion

> <Gold.Protein.ActiveResidues>
 VAL166  LYS551  ARG553  GLY616  TRP617  ASP618  TYR619  PRO620  LYS621  CYS622 
 ASP623  PHE694  ASN695  SER759  ASP760  ASP761  ALA762  ILE779  LEU786  VAL792 
 PHE793  MET794  SER795  GLU796  ALA797  LYS798  CYS799  TRP800  GLU811  SER814 

> <Gold.Protein.RotatedAtoms>
  152.5425  134.2121  159.8753 H   0  0  0  0  0  0  0  0  0  0  0  0  # atno 6907 bound_to 6896
  151.2103  133.4553  159.2605 H   0  0  0  0  0  0  0  0  0  0  0  0  # atno 6908 bound_to 6896
  151.0904  134.9925  159.8455 H   0  0  0  0  0  0  0  0  0  0  0  0  # atno 6909 bound_to 6896
  146.2030  139.7889  142.8747 H   0  0  0  0  0  0  0  0  0  0  0  0  # atno 7974 bound_to 7965
  154.9877  140.0395  157.2306 H   0  0  0  0  0  0  0  0  0  0  0  0  # atno 8008 bound_to 7997
  154.7656  140.2792  155.6156 H   0  0  0  0  0  0  0  0  0  0  0  0  # atno 8009 bound_to 7997
  156.2912  140.2620  156.2446 H   0  0  0  0  0  0  0  0  0  0  0  0  # atno 8010 bound_to 7997
  139.7172  144.7066  151.0931 H   0  0  0  0  0  0  0  0  0  0  0  0  # atno 10167 bound_to 10162
  156.5092  130.4606  149.6658 H   0  0  0  0  0  0  0  0  0  0  0  0  # atno 10718 bound_to 10713
  154.3487  135.2753  155.2384 H   0  0  0  0  0  0  0  0  0  0  0  0  # atno 10763 bound_to 10752
  154.4622  135.5904  153.6267 H   0  0  0  0  0  0  0  0  0  0  0  0  # atno 10764 bound_to 10752
  152.9851  135.6068  154.3695 H   0  0  0  0  0  0  0  0  0  0  0  0  # atno 10765 bound_to 10752
  141.1461  133.6686  156.6023 H   0  0  0  0  0  0  0  0  0  0  0  0  # atno 11005 bound_to 11000
  145.3418  141.0289  143.3388 LP  0  0  0  0  0  0  0  0  0  0  0  0  # atno 17320 bound_to 7965
  144.8726  139.5016  143.6760 LP  0  0  0  0  0  0  0  0  0  0  0  0  # atno 17321 bound_to 7965
  140.7746  143.5214  150.9532 LP  0  0  0  0  0  0  0  0  0  0  0  0  # atno 17342 bound_to 10162
  139.8900  143.6964  152.3146 LP  0  0  0  0  0  0  0  0  0  0  0  0  # atno 17343 bound_to 10162
  156.3257  130.7304  151.2225 LP  0  0  0  0  0  0  0  0  0  0  0  0  # atno 17370 bound_to 10713
  157.7453  131.0443  150.4789 LP  0  0  0  0  0  0  0  0  0  0  0  0  # atno 17371 bound_to 10713
  140.3679  134.7631  157.4578 LP  0  0  0  0  0  0  0  0  0  0  0  0  # atno 17394 bound_to 11000
  140.0733  134.5831  155.8618 LP  0  0  0  0  0  0  0  0  0  0  0  0  # atno 17395 bound_to 11000

$$$$
