AV-unprocessed.smi:2104|AV-procd|sdf|8588|dock1
  -GOLD-   2272011323D 1   1.00000     0.00000
 Structure written by MMmdl.
 42 43  0  0  0  0  0  0  0  0  2 V2000
  149.2585  140.8293  154.5888 C   0  0  0  0  0  0  0  0  0  0  0  0
  150.0674  139.5792  154.6528 C   0  0  0  0  0  0  0  0  0  0  0  0
  149.7309  138.2555  154.6474 C   0  0  0  0  0  0  0  0  0  0  0  0
  150.9895  137.6003  154.7368 C   0  0  0  0  0  0  0  0  0  0  0  0
  151.1860  136.2733  154.7515 N   0  5  0  0  0  0  0  0  0  0  0  0
  150.2143  135.4462  155.2008 C   0  0  0  0  0  0  0  0  0  0  0  0
  150.0069  135.1316  156.3750 O   0  0  0  0  0  0  0  0  0  0  0  0
  149.4245  134.9664  154.2296 N   0  0  0  0  0  0  0  0  0  0  0  0
  148.2467  134.1238  154.4153 C   0  0  0  0  0  0  0  0  0  0  0  0
  147.9073  133.3395  153.1387 C   0  0  0  0  0  0  0  0  0  0  0  0
  146.5535  133.5959  152.7932 O   0  0  0  0  0  0  0  0  0  0  0  0
  146.3619  134.1209  151.4851 C   0  0  1  0  0  0  0  0  0  0  0  0
  146.4855  132.9924  150.4360 C   0  0  0  0  0  0  0  0  0  0  0  0
  145.3752  131.9412  150.5970 C   0  0  0  0  0  0  0  0  0  0  0  0
  143.9841  132.5897  150.5416 C   0  0  0  0  0  0  0  0  0  0  0  0
  143.8499  133.7153  151.5798 C   0  0  0  0  0  0  0  0  0  0  0  0
  144.9621  134.7719  151.4186 C   0  0  1  0  0  0  0  0  0  0  0  0
  144.8110  135.9201  152.4288 C   0  0  0  0  0  0  0  0  0  0  0  0
  152.0013  138.4509  154.7757 N   0  0  0  0  0  0  0  0  0  0  0  0
  151.4179  139.7229  154.7278 O   0  0  0  0  0  0  0  0  0  0  0  0
  148.3693  140.7466  155.2138 H   0  0  0  0  0  0  0  0  0  0  0  0
  148.9371  141.0270  153.5664 H   0  0  0  0  0  0  0  0  0  0  0  0
  149.8347  141.6879  154.9343 H   0  0  0  0  0  0  0  0  0  0  0  0
  148.7436  137.8224  154.5927 H   0  0  0  0  0  0  0  0  0  0  0  0
  149.6337  135.2508  153.2840 H   0  0  0  0  0  0  0  0  0  0  0  0
  148.4484  133.4313  155.2328 H   0  0  0  0  0  0  0  0  0  0  0  0
  147.3975  134.7352  154.7241 H   0  0  0  0  0  0  0  0  0  0  0  0
  148.5529  133.6509  152.3169 H   0  0  0  0  0  0  0  0  0  0  0  0
  148.0913  132.2773  153.2971 H   0  0  0  0  0  0  0  0  0  0  0  0
  147.1117  134.8893  151.2872 H   0  0  0  0  0  0  0  0  0  0  0  0
  146.4252  133.4249  149.4368 H   0  0  0  0  0  0  0  0  0  0  0  0
  147.4592  132.5068  150.4912 H   0  0  0  0  0  0  0  0  0  0  0  0
  145.4645  131.1841  149.8178 H   0  0  0  0  0  0  0  0  0  0  0  0
  145.4989  131.4190  151.5465 H   0  0  0  0  0  0  0  0  0  0  0  0
  143.8086  132.9911  149.5429 H   0  0  0  0  0  0  0  0  0  0  0  0
  143.2160  131.8345  150.7108 H   0  0  0  0  0  0  0  0  0  0  0  0
  142.8714  134.1860  151.4802 H   0  0  0  0  0  0  0  0  0  0  0  0
  143.8850  133.2901  152.5838 H   0  0  0  0  0  0  0  0  0  0  0  0
  144.8541  135.2095  150.4250 H   0  0  0  0  0  0  0  0  0  0  0  0
  144.8843  135.5606  153.4557 H   0  0  0  0  0  0  0  0  0  0  0  0
  143.8447  136.4130  152.3191 H   0  0  0  0  0  0  0  0  0  0  0  0
  145.5846  136.6744  152.2840 H   0  0  0  0  0  0  0  0  0  0  0  0
  1  2  1  0  0  0  0
  1 21  1  0  0  0  0
  1 22  1  0  0  0  0
  1 23  1  0  0  0  0
  2 20  1  0  0  0  0
  2  3  2  0  0  0  0
  3  4  1  0  0  0  0
  3 24  1  0  0  0  0
  4  5  1  0  0  0  0
  4 19  2  0  0  0  0
  5  6  1  0  0  0  0
  6  7  2  0  0  0  0
  6  8  1  0  0  0  0
  8  9  1  0  0  0  0
  8 25  1  0  0  0  0
  9 10  1  0  0  0  0
  9 26  1  0  0  0  0
  9 27  1  0  0  0  0
 10 11  1  0  0  0  0
 10 28  1  0  0  0  0
 10 29  1  0  0  0  0
 11 12  1  0  0  0  0
 12 17  1  0  0  0  0
 12 13  1  0  0  0  0
 12 30  1  0  0  0  0
 13 14  1  0  0  0  0
 13 31  1  0  0  0  0
 13 32  1  0  0  0  0
 14 15  1  0  0  0  0
 14 33  1  0  0  0  0
 14 34  1  0  0  0  0
 15 16  1  0  0  0  0
 15 35  1  0  0  0  0
 15 36  1  0  0  0  0
 16 17  1  0  0  0  0
 16 37  1  0  0  0  0
 16 38  1  0  0  0  0
 17 18  1  0  0  0  0
 17 39  1  0  0  0  0
 18 40  1  0  0  0  0
 18 41  1  0  0  0  0
 18 42  1  0  0  0  0
 19 20  1  0  0  0  0
M  CHG  1   5  -1
M  END
> <s_m_source_file>
AV-unprocessed.smi

> <i_m_source_file_index>
2104

> <i_lp_mmshare_version>
43012

> <i_f3d_flags>
0

> <s_epik_input>
W0NIM11jMVtjSF1jKG5vMSlbTkhdQyg9TylbTkhdW0NIMl1bQ0gyXU9bQ0BASF0yW0NIMl1bQ0gyXVtDSDJdW0NIMl1bQ0BIXTJbQ0gzXQ==

> <s_epik_cmdline>
J2VwaWtfcHl0aG9uJywgJy1waCcsICc3LjAnLCAnLXRuJywgJzgnLCAnLW1hJywgJzIwMCcsICctbWV0YWxfYmluZGluZycsICctaW1hZScsICc8aW5maWxlLm1hZT4nLCAnLW9tYWUnLCAnPG91dGZpbGUubWFlPic=

> <r_lp_tautomer_probability>
1

> <r_epik_Ionization_Penalty>
6.47137

> <r_epik_Ionization_Penalty_Charging>
6.47125

> <r_epik_Ionization_Penalty_Neutral>
0.000118933

> <r_epik_State_Penalty>
6.47124

> <r_epik_Charging_Adjusted_Penalty>
12.9425

> <i_epik_Tot_Q>
-1

> <i_epik_Tot_abs_Q>
1

> <r_epik_Metal_State_Penalty>
2.3995

> <b_epik_Metal_Only>
1

> <s_lp_Force_Field>
OPLS_2005

> <r_lp_Energy>
3.93088

> <b_lp_Chiralities_Consistent>
1

> <s_lp_Variant>
AV-unprocessed.smi:2104-6

> <Gold.Version>
5.8.1

> <Gold.Id.Protein>
6NUR|6NUR_protein|mol2

> <Gold.PLP.Fitness>
43.9347

> <Gold.PLP.PLP>
-37.2521

> <Gold.PLP.part.hbond>
-3.0000

> <Gold.PLP.part.metal>
0.0000

> <Gold.PLP.part.buried>
-5.9711

> <Gold.PLP.part.nonpolar>
-29.7612

> <Gold.PLP.part.repulsive>
0.4672

> <Gold.PLP.ligand.clash>
0.0000

> <Gold.PLP.ligand.torsion>
1.9277

> <Gold.PLP.Chemscore.Hbond>
3.4032

> <Gold.PLP.Chemscore.CHOScore>
0.0000

> <Gold.PLP.Chemscore.Metal>
0.0000

> <Gold.Chemscore.Hbonds>
donor molecule, donor type, donor heavy atom, donor atom, acceptor molecule, acceptor atom, score
      L1  H     8    25       P1  7948  0.35
      P1  H  7989  7998       L1    20  1.00
      P1  H 10752 10763       L1     5  2.00

> <Gold.PLP.Chemscore.Internal.Correction>
0.3284

> <Gold.Rescore>
     Score         DG    S(hbond)    S(metal)    S(lipo)     H(rot)  DE(clash)    DE(int)     intcor
     14.51     -16.68       1.90        0.00      79.06       1.71       0.34       1.83       ----

> <Gold.Chemscore.Fitness>
14.5118

> <Gold.Chemscore.DG>
-16.6826

> <Gold.Chemscore.ZeroCoef>
-5.4800

> <Gold.Chemscore.Hbond>
1.8956

> <Gold.Chemscore.Metal>
0.0000

> <Gold.Chemscore.Lipo>
79.0565

> <Gold.Chemscore.Internal_Hbond>
0.0000

> <Gold.Chemscore.DEClash>
0.3379

> <Gold.Chemscore.DEInternal>
1.8328

> <Gold.Chemscore.Rot>
1.7103

> <Gold.Chemscore.Internal.Correction>
   9.000000E+99

> <Gold.Chemscore.Hbonds>
donor molecule, donor type, donor heavy atom, donor atom, acceptor molecule, acceptor atom, score
      L1  H     8    25       P1  7948  0.01
      P1  H  7989  7998       L1    20  0.25
      P1  H 10752 10763       L1     5  0.92

> <Gold.Chemscore.Hbond.Weighted>
-6.3314

> <Gold.Chemscore.Metal.Weighted>
-0.0000

> <Gold.Chemscore.Lipo.Weighted>
-9.2496

> <Gold.Chemscore.Internal_Hbond.Weighted>
0.0000

> <Gold.Chemscore.DEClash.Weighted>
0.3379

> <Gold.Chemscore.DEInternal.Weighted>
1.8328

> <Gold.Chemscore.Rot.Weighted>
4.3784

> <Gold.Chemscore.Internal.Correction.Weighted>
   9.000000E+99

> <Gold.Protein.RotatedTorsions>
[ 6907 6896 6895 6894 ] final  -14.18 input  -60.11 | X-H torsion
[ 7974 7965 7964 7962 ] final -117.59 input  175.53 | X-H torsion
[ 8008 7997 7996 7995 ] final  147.65 input   59.86 | X-H torsion
[ 10167 10162 10161 10158 ] final   -6.54 input  -65.29 | X-H torsion
[ 10718 10713 10712 10709 ] final -135.05 input   66.30 | X-H torsion
[ 10763 10752 10751 10750 ] final   65.03 input  -60.55 | X-H torsion
[ 11005 11000 10999 10996 ] final   65.74 input  -57.11 | X-H torsion

> <Gold.Protein.ActiveResidues>
 VAL166  LYS551  ARG553  GLY616  TRP617  ASP618  TYR619  PRO620  LYS621  CYS622 
 ASP623  PHE694  ASN695  SER759  ASP760  ASP761  ALA762  ILE779  LEU786  VAL792 
 PHE793  MET794  SER795  GLU796  ALA797  LYS798  CYS799  TRP800  GLU811  SER814 

> <Gold.Protein.RotatedAtoms>
  151.3435  135.0869  159.9378 H   0  0  0  0  0  0  0  0  0  0  0  0  # atno 6907 bound_to 6896
  152.5205  133.9424  159.7643 H   0  0  0  0  0  0  0  0  0  0  0  0  # atno 6908 bound_to 6896
  150.9785  133.6216  159.2756 H   0  0  0  0  0  0  0  0  0  0  0  0  # atno 6909 bound_to 6896
  145.0835  140.8442  143.4025 H   0  0  0  0  0  0  0  0  0  0  0  0  # atno 7974 bound_to 7965
  156.2817  140.2150  156.5572 H   0  0  0  0  0  0  0  0  0  0  0  0  # atno 8008 bound_to 7997
  154.7243  140.0501  157.0690 H   0  0  0  0  0  0  0  0  0  0  0  0  # atno 8009 bound_to 7997
  155.0438  140.3148  155.4718 H   0  0  0  0  0  0  0  0  0  0  0  0  # atno 8010 bound_to 7997
  140.7000  143.6183  150.8637 H   0  0  0  0  0  0  0  0  0  0  0  0  # atno 10167 bound_to 10162
  156.2620  130.7215  151.1152 H   0  0  0  0  0  0  0  0  0  0  0  0  # atno 10718 bound_to 10713
  153.0079  135.5371  154.6603 H   0  0  0  0  0  0  0  0  0  0  0  0  # atno 10763 bound_to 10752
  154.5813  135.2850  155.0732 H   0  0  0  0  0  0  0  0  0  0  0  0  # atno 10764 bound_to 10752
  154.1860  135.6508  153.5099 H   0  0  0  0  0  0  0  0  0  0  0  0  # atno 10765 bound_to 10752
  139.9875  134.6644  156.0149 H   0  0  0  0  0  0  0  0  0  0  0  0  # atno 11005 bound_to 11000
  145.1150  139.2731  143.5618 LP  0  0  0  0  0  0  0  0  0  0  0  0  # atno 17320 bound_to 7965
  146.3531  140.0757  142.8620 LP  0  0  0  0  0  0  0  0  0  0  0  0  # atno 17321 bound_to 7965
  139.9904  143.5853  152.2912 LP  0  0  0  0  0  0  0  0  0  0  0  0  # atno 17342 bound_to 10162
  139.6506  144.7660  151.2155 LP  0  0  0  0  0  0  0  0  0  0  0  0  # atno 17343 bound_to 10162
  157.7254  131.0653  150.5956 LP  0  0  0  0  0  0  0  0  0  0  0  0  # atno 17370 bound_to 10713
  156.6044  130.4363  149.5884 LP  0  0  0  0  0  0  0  0  0  0  0  0  # atno 17371 bound_to 10713
  141.1537  133.6545  156.4095 LP  0  0  0  0  0  0  0  0  0  0  0  0  # atno 17394 bound_to 11000
  140.4973  134.6519  157.5234 LP  0  0  0  0  0  0  0  0  0  0  0  0  # atno 17395 bound_to 11000

$$$$
