AV-unprocessed.smi:544|AV-procd|sdf|2878|dock3
  -GOLD-   2262023373D 1   1.00000     0.00000
 Structure written by MMmdl.
 49 51  0  0  0  0  0  0  0  0  1 V2000
  153.0160  137.8956  160.0847 C   0  0  0  0  0  0  0  0  0  0  0  0
  153.8534  138.9238  159.3210 C   0  0  0  0  0  0  0  0  0  0  0  0
  153.6457  138.7339  157.9331 O   0  0  0  0  0  0  0  0  0  0  0  0
  152.3284  139.0519  157.5169 C   0  0  0  0  0  0  0  0  0  0  0  0
  152.3463  139.8705  156.2122 C   0  0  0  0  0  0  0  0  0  0  0  0
  151.0800  140.5368  155.9097 N   0  0  0  0  0  0  0  0  0  0  0  0
  150.6181  141.7349  156.3624 C   0  0  0  0  0  0  0  0  0  0  0  0
  151.3398  142.5209  157.2605 N   0  0  0  0  0  0  0  0  0  0  0  0
  151.6781  143.9306  157.0753 C   0  0  0  0  0  0  0  0  0  0  0  0
  151.3839  144.7609  158.3358 C   0  0  0  0  0  0  0  0  0  0  0  0
  152.1456  144.1925  159.5407 C   0  0  0  0  0  0  0  0  0  0  0  0
  151.8697  142.6855  159.6845 C   0  0  2  0  0  0  0  0  0  0  0  0
  152.6843  142.0697  160.8300 C   0  0  0  0  0  0  0  0  0  0  0  0
  152.1456  141.9678  158.3474 C   0  0  0  0  0  0  0  0  0  0  0  0
  149.4477  142.1146  155.8426 N   0  0  0  0  0  0  0  0  0  0  0  0
  149.1237  141.0643  154.9987 C   0  0  0  0  0  0  0  0  0  0  0  0
  150.0940  140.1153  155.0131 C   0  0  0  0  0  0  0  0  0  0  0  0
  150.0250  138.9098  154.1738 C   0  0  0  0  0  0  0  0  0  0  0  0
  150.9072  138.0550  154.1361 O   0  0  0  0  0  0  0  0  0  0  0  0
  148.8883  138.8366  153.4400 N   0  0  0  0  0  0  0  0  0  0  0  0
  147.8684  139.7467  153.3933 C   0  0  0  0  0  0  0  0  0  0  0  0
  146.8875  139.5346  152.6806 O   0  0  0  0  0  0  0  0  0  0  0  0
  147.9896  140.8787  154.1577 N   0  0  0  0  0  0  0  0  0  0  0  0
  146.9388  141.8980  154.1350 C   0  0  0  0  0  0  0  0  0  0  0  0
  148.7841  138.0187  152.8575 H   0  0  0  0  0  0  0  0  0  0  0  0
  153.1475  138.0077  161.1610 H   0  0  0  0  0  0  0  0  0  0  0  0
  153.3040  136.8789  159.8155 H   0  0  0  0  0  0  0  0  0  0  0  0
  151.9550  138.0130  159.8622 H   0  0  0  0  0  0  0  0  0  0  0  0
  153.5606  139.9334  159.6125 H   0  0  0  0  0  0  0  0  0  0  0  0
  154.9098  138.8003  159.5642 H   0  0  0  0  0  0  0  0  0  0  0  0
  151.7601  138.1329  157.3893 H   0  0  0  0  0  0  0  0  0  0  0  0
  151.8214  139.6256  158.2940 H   0  0  0  0  0  0  0  0  0  0  0  0
  153.1466  140.6082  156.2391 H   0  0  0  0  0  0  0  0  0  0  0  0
  152.5947  139.2180  155.3761 H   0  0  0  0  0  0  0  0  0  0  0  0
  152.7382  144.0036  156.8286 H   0  0  0  0  0  0  0  0  0  0  0  0
  151.1505  144.3319  156.2141 H   0  0  0  0  0  0  0  0  0  0  0  0
  151.6677  145.8006  158.1725 H   0  0  0  0  0  0  0  0  0  0  0  0
  150.3141  144.7620  158.5429 H   0  0  0  0  0  0  0  0  0  0  0  0
  153.2149  144.3602  159.4042 H   0  0  0  0  0  0  0  0  0  0  0  0
  151.8590  144.7228  160.4493 H   0  0  0  0  0  0  0  0  0  0  0  0
  150.8128  142.5559  159.9236 H   0  0  0  0  0  0  0  0  0  0  0  0
  153.7556  142.1617  160.6483 H   0  0  0  0  0  0  0  0  0  0  0  0
  152.4562  141.0101  160.9469 H   0  0  0  0  0  0  0  0  0  0  0  0
  152.4632  142.5614  161.7778 H   0  0  0  0  0  0  0  0  0  0  0  0
  151.9233  140.9050  158.4509 H   0  0  0  0  0  0  0  0  0  0  0  0
  153.2020  142.0394  158.0852 H   0  0  0  0  0  0  0  0  0  0  0  0
  146.6502  142.1428  153.1116 H   0  0  0  0  0  0  0  0  0  0  0  0
  147.2529  142.8292  154.6066 H   0  0  0  0  0  0  0  0  0  0  0  0
  146.0546  141.5396  154.6630 H   0  0  0  0  0  0  0  0  0  0  0  0
  1  2  1  0  0  0  0
  1 26  1  0  0  0  0
  1 27  1  0  0  0  0
  1 28  1  0  0  0  0
  2  3  1  0  0  0  0
  2 29  1  0  0  0  0
  2 30  1  0  0  0  0
  3  4  1  0  0  0  0
  4  5  1  0  0  0  0
  4 31  1  0  0  0  0
  4 32  1  0  0  0  0
  5  6  1  0  0  0  0
  5 33  1  0  0  0  0
  5 34  1  0  0  0  0
  6 17  1  0  0  0  0
  6  7  1  0  0  0  0
  7  8  1  0  0  0  0
  7 15  2  0  0  0  0
  8 14  1  0  0  0  0
  8  9  1  0  0  0  0
  9 10  1  0  0  0  0
  9 35  1  0  0  0  0
  9 36  1  0  0  0  0
 10 11  1  0  0  0  0
 10 37  1  0  0  0  0
 10 38  1  0  0  0  0
 11 12  1  0  0  0  0
 11 39  1  0  0  0  0
 11 40  1  0  0  0  0
 12 13  1  0  0  0  0
 12 14  1  0  0  0  0
 12 41  1  0  0  0  0
 13 42  1  0  0  0  0
 13 43  1  0  0  0  0
 13 44  1  0  0  0  0
 14 45  1  0  0  0  0
 14 46  1  0  0  0  0
 15 16  1  0  0  0  0
 16 23  1  0  0  0  0
 16 17  2  0  0  0  0
 17 18  1  0  0  0  0
 18 19  2  0  0  0  0
 18 20  1  0  0  0  0
 20 25  1  0  0  0  0
 20 21  1  0  0  0  0
 21 22  2  0  0  0  0
 21 23  1  0  0  0  0
 23 24  1  0  0  0  0
 24 47  1  0  0  0  0
 24 48  1  0  0  0  0
 24 49  1  0  0  0  0
M  END
> <s_m_source_file>
AV-unprocessed.smi

> <i_m_source_file_index>
544

> <i_lp_mmshare_version>
43012

> <i_f3d_flags>
0

> <s_epik_input>
W0NIM11uMWMoPU8pW25IXWMoPU8pYyhjMTIpbihbQ0gyXVtDSDJdT1tDSDJdW0NIM10pYyhuMilOM1tDSDJdW0NIMl1bQ0gyXVtDQEBIXShbQ0gzXSlbQ0gyXTM=

> <s_epik_cmdline>
J2VwaWtfcHl0aG9uJywgJy1waCcsICc3LjAnLCAnLXRuJywgJzgnLCAnLW1hJywgJzIwMCcsICctbWV0YWxfYmluZGluZycsICctaW1hZScsICc8aW5maWxlLm1hZT4nLCAnLW9tYWUnLCAnPG91dGZpbGUubWFlPic=

> <r_lp_tautomer_probability>
1

> <r_epik_Ionization_Penalty>
0.000382477

> <r_epik_Ionization_Penalty_Charging>
0.000119472

> <r_epik_Ionization_Penalty_Neutral>
0.000263005

> <r_epik_State_Penalty>
-0

> <r_epik_Charging_Adjusted_Penalty>
0.000119472

> <i_epik_Tot_Q>
0

> <i_epik_Tot_abs_Q>
0

> <r_epik_Metal_State_Penalty>
0.0919313

> <b_epik_Metal_Only>
0

> <s_lp_Force_Field>
OPLS_2005

> <r_lp_Energy>
37.0872

> <b_lp_Chiralities_Consistent>
1

> <s_lp_Variant>
AV-unprocessed.smi:544-2

> <Gold.Version>
5.8.1

> <Gold.Id.Protein>
6NUR|6NUR_protein|mol2

> <Gold.PLP.Fitness>
51.1381

> <Gold.PLP.PLP>
-47.4053

> <Gold.PLP.part.hbond>
-3.0000

> <Gold.PLP.part.metal>
0.0000

> <Gold.PLP.part.buried>
-2.7467

> <Gold.PLP.part.nonpolar>
-44.8090

> <Gold.PLP.part.repulsive>
3.5332

> <Gold.PLP.ligand.clash>
0.0126

> <Gold.PLP.ligand.torsion>
1.4058

> <Gold.PLP.Chemscore.Hbond>
2.0000

> <Gold.PLP.Chemscore.CHOScore>
0.0000

> <Gold.PLP.Chemscore.Metal>
0.0000

> <Gold.Chemscore.Hbonds>
donor molecule, donor type, donor heavy atom, donor atom, acceptor molecule, acceptor atom, score
      L1  H    20    25       P1  7948  1.00
      P1  H  7997  8008       L1     3  1.00

> <Gold.PLP.Chemscore.Internal.Correction>
0.5570

> <Gold.Rescore>
     Score         DG    S(hbond)    S(metal)    S(lipo)     H(rot)  DE(clash)    DE(int)     intcor
     13.97     -18.44       1.57        0.00     100.47       1.58       1.89       2.59       ----

> <Gold.Chemscore.Fitness>
13.9683

> <Gold.Chemscore.DG>
-18.4408

> <Gold.Chemscore.ZeroCoef>
-5.4800

> <Gold.Chemscore.Hbond>
1.5724

> <Gold.Chemscore.Metal>
0.0000

> <Gold.Chemscore.Lipo>
100.4733

> <Gold.Chemscore.Internal_Hbond>
0.0000

> <Gold.Chemscore.DEClash>
1.8860

> <Gold.Chemscore.DEInternal>
2.5866

> <Gold.Chemscore.Rot>
1.5806

> <Gold.Chemscore.Internal.Correction>
   9.000000E+99

> <Gold.Chemscore.Hbonds>
donor molecule, donor type, donor heavy atom, donor atom, acceptor molecule, acceptor atom, score
      L1  H    20    25       P1  7948  0.93
      P1  H  7997  8008       L1     3  0.22

> <Gold.Chemscore.Hbond.Weighted>
-5.2517

> <Gold.Chemscore.Metal.Weighted>
-0.0000

> <Gold.Chemscore.Lipo.Weighted>
-11.7554

> <Gold.Chemscore.Internal_Hbond.Weighted>
0.0000

> <Gold.Chemscore.DEClash.Weighted>
1.8860

> <Gold.Chemscore.DEInternal.Weighted>
2.5866

> <Gold.Chemscore.Rot.Weighted>
4.0463

> <Gold.Chemscore.Internal.Correction.Weighted>
   9.000000E+99

> <Gold.Protein.RotatedTorsions>
[ 6907 6896 6895 6894 ] final   25.97 input  -60.11 | X-H torsion
[ 7974 7965 7964 7962 ] final   46.82 input  175.53 | X-H torsion
[ 8008 7997 7996 7995 ] final  -95.93 input   59.86 | X-H torsion
[ 10167 10162 10161 10158 ] final  115.10 input  -65.29 | X-H torsion
[ 10718 10713 10712 10709 ] final  168.30 input   66.30 | X-H torsion
[ 10763 10752 10751 10750 ] final   -7.39 input  -60.55 | X-H torsion
[ 11005 11000 10999 10996 ] final  -70.25 input  -57.11 | X-H torsion

> <Gold.Protein.ActiveResidues>
 VAL166  LYS551  ARG553  GLY616  TRP617  ASP618  TYR619  PRO620  LYS621  CYS622 
 ASP623  PHE694  ASN695  SER759  ASP760  ASP761  ALA762  ILE779  LEU786  VAL792 
 PHE793  MET794  SER795  GLU796  ALA797  LYS798  CYS799  TRP800  GLU811  SER814 

> <Gold.Protein.RotatedAtoms>
  151.9805  135.0031  160.0556 H   0  0  0  0  0  0  0  0  0  0  0  0  # atno 6907 bound_to 6896
  152.1701  133.4633  159.4913 H   0  0  0  0  0  0  0  0  0  0  0  0  # atno 6908 bound_to 6896
  150.6900  134.1881  159.4317 H   0  0  0  0  0  0  0  0  0  0  0  0  # atno 6909 bound_to 6896
  146.0355  139.4815  142.9811 H   0  0  0  0  0  0  0  0  0  0  0  0  # atno 7974 bound_to 7965
  154.7678  140.0475  157.1027 H   0  0  0  0  0  0  0  0  0  0  0  0  # atno 8008 bound_to 7997
  154.9857  140.3107  155.4908 H   0  0  0  0  0  0  0  0  0  0  0  0  # atno 8009 bound_to 7997
  156.2916  140.2228  156.4959 H   0  0  0  0  0  0  0  0  0  0  0  0  # atno 8010 bound_to 7997
  139.6341  144.7118  151.2370 H   0  0  0  0  0  0  0  0  0  0  0  0  # atno 10167 bound_to 10162
  157.0391  131.0281  151.2719 H   0  0  0  0  0  0  0  0  0  0  0  0  # atno 10718 bound_to 10713
  153.4257  135.7011  153.6264 H   0  0  0  0  0  0  0  0  0  0  0  0  # atno 10763 bound_to 10752
  153.4700  135.3717  155.2386 H   0  0  0  0  0  0  0  0  0  0  0  0  # atno 10764 bound_to 10752
  154.8724  135.4040  154.3633 H   0  0  0  0  0  0  0  0  0  0  0  0  # atno 10765 bound_to 10752
  141.1570  133.6785  156.6723 H   0  0  0  0  0  0  0  0  0  0  0  0  # atno 11005 bound_to 11000
  145.6971  141.0147  143.1524 LP  0  0  0  0  0  0  0  0  0  0  0  0  # atno 17320 bound_to 7965
  144.7050  139.8601  143.7433 LP  0  0  0  0  0  0  0  0  0  0  0  0  # atno 17321 bound_to 7965
  140.7456  143.6427  150.8320 LP  0  0  0  0  0  0  0  0  0  0  0  0  # atno 17342 bound_to 10162
  140.0056  143.5697  152.2859 LP  0  0  0  0  0  0  0  0  0  0  0  0  # atno 17343 bound_to 10162
  157.5118  130.7943  149.7713 LP  0  0  0  0  0  0  0  0  0  0  0  0  # atno 17370 bound_to 10713
  156.0044  130.3863  150.2486 LP  0  0  0  0  0  0  0  0  0  0  0  0  # atno 17371 bound_to 10713
  140.3165  134.8043  157.4218 LP  0  0  0  0  0  0  0  0  0  0  0  0  # atno 17394 bound_to 11000
  140.1133  134.5316  155.8246 LP  0  0  0  0  0  0  0  0  0  0  0  0  # atno 17395 bound_to 11000

$$$$
