AV-unprocessed.smi:349|AV-procd|sdf|2397|dock5
  -GOLD-   2262022323D 1   1.00000     0.00000
 Structure written by MMmdl.
 43 44  0  0  0  0  0  0  0  0  1 V2000
  151.6902  144.4953  158.0123 C   0  0  0  0  0  0  0  0  0  0  0  0
  152.0730  143.8735  159.3646 C   0  0  0  0  0  0  0  0  0  0  0  0
  152.9304  142.5933  159.2540 C   0  0  1  0  0  0  0  0  0  0  0  0
  153.4992  142.1918  160.6257 C   0  0  0  0  0  0  0  0  0  0  0  0
  152.1404  141.4216  158.6523 C   0  0  0  0  0  0  0  0  0  0  0  0
  152.7319  140.5016  158.0869 O   0  0  0  0  0  0  0  0  0  0  0  0
  150.8045  141.4754  158.7749 N   0  0  0  0  0  0  0  0  0  0  0  0
  149.8588  140.4902  158.2571 C   0  0  0  0  0  0  0  0  0  0  0  0
  149.5506  140.6686  156.7695 C   0  0  0  0  0  0  0  0  0  0  0  0
  148.4590  141.4760  156.3753 C   0  0  0  0  0  0  0  0  0  0  0  0
  148.1925  141.6643  155.0078 C   0  0  0  0  0  0  0  0  0  0  0  0
  149.0371  141.0398  154.0742 C   0  0  0  0  0  0  0  0  0  0  0  0
  150.0876  140.2731  154.4293 N   0  0  0  0  0  0  0  0  0  0  0  0
  150.3505  140.0871  155.7466 C   0  0  0  0  0  0  0  0  0  0  0  0
  151.4457  139.2649  156.0679 N   0  0  0  0  0  0  0  0  0  0  0  0
  152.3545  138.9269  154.9774 C   0  0  0  0  0  0  0  0  0  0  0  0
  153.5890  138.1980  155.5344 C   0  0  0  0  0  0  0  0  0  0  0  0
  153.1724  137.0484  156.2662 O   0  0  0  0  0  0  0  0  0  0  0  0
  152.3397  137.3882  157.3717 C   0  0  0  0  0  0  0  0  0  0  0  0
  151.0746  138.1051  156.8686 C   0  0  0  0  0  0  0  0  0  0  0  0
  151.1418  145.4261  158.1580 H   0  0  0  0  0  0  0  0  0  0  0  0
  151.0547  143.8303  157.4271 H   0  0  0  0  0  0  0  0  0  0  0  0
  152.5762  144.7224  157.4190 H   0  0  0  0  0  0  0  0  0  0  0  0
  152.6245  144.6191  159.9385 H   0  0  0  0  0  0  0  0  0  0  0  0
  151.1672  143.6699  159.9376 H   0  0  0  0  0  0  0  0  0  0  0  0
  153.7768  142.8102  158.5999 H   0  0  0  0  0  0  0  0  0  0  0  0
  154.1029  141.2859  160.5558 H   0  0  0  0  0  0  0  0  0  0  0  0
  152.7058  142.0081  161.3512 H   0  0  0  0  0  0  0  0  0  0  0  0
  154.1382  142.9780  161.0285 H   0  0  0  0  0  0  0  0  0  0  0  0
  150.4096  142.2697  159.2572 H   0  0  0  0  0  0  0  0  0  0  0  0
  150.2283  139.4750  158.4085 H   0  0  0  0  0  0  0  0  0  0  0  0
  148.9624  140.5662  158.8694 H   0  0  0  0  0  0  0  0  0  0  0  0
  147.8305  141.9574  157.1091 H   0  0  0  0  0  0  0  0  0  0  0  0
  147.3642  142.2764  154.6835 H   0  0  0  0  0  0  0  0  0  0  0  0
  148.8665  141.1601  153.0146 H   0  0  0  0  0  0  0  0  0  0  0  0
  151.8466  138.2864  154.2549 H   0  0  0  0  0  0  0  0  0  0  0  0
  152.6575  139.8343  154.4534 H   0  0  0  0  0  0  0  0  0  0  0  0
  154.2407  137.8840  154.7190 H   0  0  0  0  0  0  0  0  0  0  0  0
  154.1750  138.8585  156.1756 H   0  0  0  0  0  0  0  0  0  0  0  0
  152.0689  136.4770  157.9050 H   0  0  0  0  0  0  0  0  0  0  0  0
  152.8895  138.0175  158.0735 H   0  0  0  0  0  0  0  0  0  0  0  0
  150.4540  138.4051  157.7136 H   0  0  0  0  0  0  0  0  0  0  0  0
  150.4772  137.4250  156.2596 H   0  0  0  0  0  0  0  0  0  0  0  0
  1  2  1  0  0  0  0
  1 21  1  0  0  0  0
  1 22  1  0  0  0  0
  1 23  1  0  0  0  0
  2  3  1  0  0  0  0
  2 24  1  0  0  0  0
  2 25  1  0  0  0  0
  3  4  1  0  0  0  0
  3  5  1  0  0  0  0
  3 26  1  0  0  0  0
  4 27  1  0  0  0  0
  4 28  1  0  0  0  0
  4 29  1  0  0  0  0
  5  6  2  0  0  0  0
  5  7  1  0  0  0  0
  7  8  1  0  0  0  0
  7 30  1  0  0  0  0
  8  9  1  0  0  0  0
  8 31  1  0  0  0  0
  8 32  1  0  0  0  0
  9 14  1  0  0  0  0
  9 10  2  0  0  0  0
 10 11  1  0  0  0  0
 10 33  1  0  0  0  0
 11 12  2  0  0  0  0
 11 34  1  0  0  0  0
 12 13  1  0  0  0  0
 12 35  1  0  0  0  0
 13 14  2  0  0  0  0
 14 15  1  0  0  0  0
 15 20  1  0  0  0  0
 15 16  1  0  0  0  0
 16 17  1  0  0  0  0
 16 36  1  0  0  0  0
 16 37  1  0  0  0  0
 17 18  1  0  0  0  0
 17 38  1  0  0  0  0
 17 39  1  0  0  0  0
 18 19  1  0  0  0  0
 19 20  1  0  0  0  0
 19 40  1  0  0  0  0
 19 41  1  0  0  0  0
 20 42  1  0  0  0  0
 20 43  1  0  0  0  0
M  END
> <s_m_source_file>
AV-unprocessed.smi

> <i_m_source_file_index>
349

> <i_lp_mmshare_version>
43012

> <i_f3d_flags>
0

> <s_epik_input>
W0NIM11bQ0gyXVtDQEhdKFtDSDNdKUMoPU8pW05IXVtDSDJdYzFbY0hdW2NIXVtjSF1uYzFOMltDSDJdW0NIMl1PW0NIMl1bQ0gyXTI=

> <s_epik_cmdline>
J2VwaWtfcHl0aG9uJywgJy1waCcsICc3LjAnLCAnLXRuJywgJzgnLCAnLW1hJywgJzIwMCcsICctbWV0YWxfYmluZGluZycsICctaW1hZScsICc8aW5maWxlLm1hZT4nLCAnLW9tYWUnLCAnPG91dGZpbGUubWFlPic=

> <r_lp_tautomer_probability>
1

> <r_epik_Ionization_Penalty>
0.00513869

> <r_epik_Ionization_Penalty_Charging>
0

> <r_epik_Ionization_Penalty_Neutral>
0.00513869

> <r_epik_State_Penalty>
0.00374265

> <r_epik_Charging_Adjusted_Penalty>
0.00374265

> <i_epik_Tot_Q>
0

> <i_epik_Tot_abs_Q>
0

> <r_epik_Metal_State_Penalty>
-0

> <b_epik_Metal_Only>
0

> <s_lp_Force_Field>
OPLS_2005

> <r_lp_Energy>
19.4622

> <b_lp_Chiralities_Consistent>
1

> <s_lp_Variant>
AV-unprocessed.smi:349-2

> <Gold.Version>
5.8.1

> <Gold.Id.Protein>
6NUR|6NUR_protein|mol2

> <Gold.PLP.Fitness>
44.1333

> <Gold.PLP.PLP>
-35.8165

> <Gold.PLP.part.hbond>
-3.0000

> <Gold.PLP.part.metal>
0.0000

> <Gold.PLP.part.buried>
0.5893

> <Gold.PLP.part.nonpolar>
-32.8488

> <Gold.PLP.part.repulsive>
0.2696

> <Gold.PLP.ligand.clash>
0.0000

> <Gold.PLP.ligand.torsion>
1.3214

> <Gold.PLP.Chemscore.Hbond>
2.5840

> <Gold.PLP.Chemscore.CHOScore>
1.0000

> <Gold.PLP.Chemscore.Metal>
0.0000

> <Gold.Chemscore.Hbonds>
donor molecule, donor type, donor heavy atom, donor atom, acceptor molecule, acceptor atom, score
      P1  H  7989  7998       L1    13  0.98
      P1  H  7997  8009       L1     6  0.55
      P1  H 10752 10763       L1    18  0.67
      L1  C    12    35       P1  7957  1.00

> <Gold.PLP.Chemscore.Internal.Correction>
0.2075

> <Gold.Rescore>
     Score         DG    S(hbond)    S(metal)    S(lipo)     H(rot)  DE(clash)    DE(int)     intcor
     15.98     -19.25       1.90        0.00      99.36       1.64       0.41       2.87       ----

> <Gold.Chemscore.Fitness>
15.9755

> <Gold.Chemscore.DG>
-19.2473

> <Gold.Chemscore.ZeroCoef>
-5.4800

> <Gold.Chemscore.Hbond>
1.8989

> <Gold.Chemscore.Metal>
0.0000

> <Gold.Chemscore.Lipo>
99.3609

> <Gold.Chemscore.Internal_Hbond>
0.0000

> <Gold.Chemscore.DEClash>
0.4062

> <Gold.Chemscore.DEInternal>
2.8656

> <Gold.Chemscore.Rot>
1.6407

> <Gold.Chemscore.Internal.Correction>
   9.000000E+99

> <Gold.Chemscore.Hbonds>
donor molecule, donor type, donor heavy atom, donor atom, acceptor molecule, acceptor atom, score
      P1  H  7989  7998       L1    13  0.50
      P1  H  7997  8009       L1     6  0.55
      P1  H 10752 10763       L1    18  0.53

> <Gold.Chemscore.Hbond.Weighted>
-6.3422

> <Gold.Chemscore.Metal.Weighted>
-0.0000

> <Gold.Chemscore.Lipo.Weighted>
-11.6252

> <Gold.Chemscore.Internal_Hbond.Weighted>
0.0000

> <Gold.Chemscore.DEClash.Weighted>
0.4062

> <Gold.Chemscore.DEInternal.Weighted>
2.8656

> <Gold.Chemscore.Rot.Weighted>
4.2001

> <Gold.Chemscore.Internal.Correction.Weighted>
   9.000000E+99

> <Gold.Protein.RotatedTorsions>
[ 6907 6896 6895 6894 ] final   27.39 input  -60.11 | X-H torsion
[ 7974 7965 7964 7962 ] final  101.32 input  175.53 | X-H torsion
[ 8008 7997 7996 7995 ] final  165.66 input   59.86 | X-H torsion
[ 10167 10162 10161 10158 ] final  -93.77 input  -65.29 | X-H torsion
[ 10718 10713 10712 10709 ] final   14.55 input   66.30 | X-H torsion
[ 10763 10752 10751 10750 ] final  105.00 input  -60.55 | X-H torsion
[ 11005 11000 10999 10996 ] final  -11.23 input  -57.11 | X-H torsion

> <Gold.Protein.ActiveResidues>
 VAL166  LYS551  ARG553  GLY616  TRP617  ASP618  TYR619  PRO620  LYS621  CYS622 
 ASP623  PHE694  ASN695  SER759  ASP760  ASP761  ALA762  ILE779  LEU786  VAL792 
 PHE793  MET794  SER795  GLU796  ALA797  LYS798  CYS799  TRP800  GLU811  SER814 

> <Gold.Protein.RotatedAtoms>
  152.0015  134.9925  160.0564 H   0  0  0  0  0  0  0  0  0  0  0  0  # atno 6907 bound_to 6896
  152.1514  133.4520  159.4824 H   0  0  0  0  0  0  0  0  0  0  0  0  # atno 6908 bound_to 6896
  150.6876  134.2102  159.4399 H   0  0  0  0  0  0  0  0  0  0  0  0  # atno 6909 bound_to 6896
  145.3739  139.2393  143.3440 H   0  0  0  0  0  0  0  0  0  0  0  0  # atno 7974 bound_to 7965
  156.1782  140.1664  156.8323 H   0  0  0  0  0  0  0  0  0  0  0  0  # atno 8008 bound_to 7997
  154.5330  140.0752  156.8412 H   0  0  0  0  0  0  0  0  0  0  0  0  # atno 8009 bound_to 7997
  155.3368  140.3382  155.4241 H   0  0  0  0  0  0  0  0  0  0  0  0  # atno 8010 bound_to 7997
  140.3213  143.3047  152.0043 H   0  0  0  0  0  0  0  0  0  0  0  0  # atno 10167 bound_to 10162
  157.0407  130.6230  149.5750 H   0  0  0  0  0  0  0  0  0  0  0  0  # atno 10718 bound_to 10713
  153.3734  135.3924  155.1805 H   0  0  0  0  0  0  0  0  0  0  0  0  # atno 10763 bound_to 10752
  154.8697  135.3708  154.4949 H   0  0  0  0  0  0  0  0  0  0  0  0  # atno 10764 bound_to 10752
  153.5418  135.7084  153.5693 H   0  0  0  0  0  0  0  0  0  0  0  0  # atno 10765 bound_to 10752
  140.7531  133.8576  155.9061 H   0  0  0  0  0  0  0  0  0  0  0  0  # atno 11005 bound_to 11000
  146.2873  140.4394  142.8753 LP  0  0  0  0  0  0  0  0  0  0  0  0  # atno 17320 bound_to 7965
  144.8556  140.7066  143.6140 LP  0  0  0  0  0  0  0  0  0  0  0  0  # atno 17321 bound_to 7965
  139.4874  144.6309  151.7072 LP  0  0  0  0  0  0  0  0  0  0  0  0  # atno 17342 bound_to 10162
  140.5481  144.0470  150.6115 LP  0  0  0  0  0  0  0  0  0  0  0  0  # atno 17343 bound_to 10162
  156.0039  130.5123  150.7761 LP  0  0  0  0  0  0  0  0  0  0  0  0  # atno 17370 bound_to 10713
  157.5107  131.0925  151.0202 LP  0  0  0  0  0  0  0  0  0  0  0  0  # atno 17371 bound_to 10713
  140.9733  134.1503  157.4558 LP  0  0  0  0  0  0  0  0  0  0  0  0  # atno 17394 bound_to 11000
  139.8784  134.9986  156.5908 LP  0  0  0  0  0  0  0  0  0  0  0  0  # atno 17395 bound_to 11000

$$$$
