AV-unprocessed.smi:111|AV-procd|sdf|1079|dock5
  -GOLD-   2262018163D 1   1.00000     0.00000
 Structure written by MMmdl.
 46 48  0  0  0  0  0  0  0  0  1 V2000
  148.6849  135.8308  155.8323 O   0  0  0  0  0  0  0  0  0  0  0  0
  148.6198  135.8505  157.0628 C   0  0  0  0  0  0  0  0  0  0  0  0
  147.6829  135.0354  157.8275 C   0  0  0  0  0  0  0  0  0  0  0  0
  146.8501  134.1998  157.1843 F   0  0  0  0  0  0  0  0  0  0  0  0
  147.6329  135.1103  159.1743 C   0  0  0  0  0  0  0  0  0  0  0  0
  148.4489  135.9483  159.9146 N   0  0  0  0  0  0  0  0  0  0  0  0
  148.3414  136.0134  161.4214 C   0  0  2  0  0  0  0  0  0  0  0  0
  147.5661  134.8022  161.9507 C   0  0  0  0  0  0  0  0  0  0  0  0
  146.1622  135.3556  162.0656 C   0  0  0  0  0  0  0  0  0  0  0  0
  146.4341  136.8012  162.4657 C   0  0  0  0  0  0  0  0  0  0  0  0
  147.6285  137.1629  161.7778 O   0  0  0  0  0  0  0  0  0  0  0  0
  149.4081  136.7522  159.2605 C   0  0  0  0  0  0  0  0  0  0  0  0
  150.1638  137.4795  159.9087 O   0  0  0  0  0  0  0  0  0  0  0  0
  149.4567  136.6832  157.8470 N   0  0  0  0  0  0  0  0  0  0  0  0
  150.4036  137.5325  157.1376 C   0  0  0  0  0  0  0  0  0  0  0  0
  150.3304  139.0265  157.5333 C   0  0  2  0  0  0  0  0  0  0  0  0
  149.0076  139.4706  157.3102 O   0  0  0  0  0  0  0  0  0  0  0  0
  151.3093  139.9461  156.7639 C   0  0  0  0  0  0  0  0  0  0  0  0
  150.9287  141.4364  156.8014 C   0  0  0  0  0  0  0  0  0  0  0  0
  151.5260  142.1773  157.9857 C   0  0  0  0  0  0  0  0  0  0  0  0
  152.1402  141.4663  159.0385 C   0  0  0  0  0  0  0  0  0  0  0  0
  152.6932  142.1592  160.1329 C   0  0  0  0  0  0  0  0  0  0  0  0
  152.6308  143.5652  160.1817 C   0  0  0  0  0  0  0  0  0  0  0  0
  152.0156  144.2783  159.1351 C   0  0  0  0  0  0  0  0  0  0  0  0
  151.4646  143.5859  158.0394 C   0  0  0  0  0  0  0  0  0  0  0  0
  146.9172  134.4830  159.6841 H   0  0  0  0  0  0  0  0  0  0  0  0
  149.3616  136.0882  161.8013 H   0  0  0  0  0  0  0  0  0  0  0  0
  147.6521  133.9338  161.2963 H   0  0  0  0  0  0  0  0  0  0  0  0
  147.9564  134.5437  162.9357 H   0  0  0  0  0  0  0  0  0  0  0  0
  145.6602  135.3171  161.0981 H   0  0  0  0  0  0  0  0  0  0  0  0
  145.5484  134.8206  162.7904 H   0  0  0  0  0  0  0  0  0  0  0  0
  145.6101  137.4696  162.2150 H   0  0  0  0  0  0  0  0  0  0  0  0
  146.6144  136.8701  163.5394 H   0  0  0  0  0  0  0  0  0  0  0  0
  151.4103  137.1313  157.2594 H   0  0  0  0  0  0  0  0  0  0  0  0
  150.1835  137.3969  156.0765 H   0  0  0  0  0  0  0  0  0  0  0  0
  150.4916  139.1241  158.6063 H   0  0  0  0  0  0  0  0  0  0  0  0
  149.0373  140.2363  156.7572 H   0  0  0  0  0  0  0  0  0  0  0  0
  152.3256  139.8322  157.1360 H   0  0  0  0  0  0  0  0  0  0  0  0
  151.3644  139.6322  155.7205 H   0  0  0  0  0  0  0  0  0  0  0  0
  151.2790  141.9209  155.8893 H   0  0  0  0  0  0  0  0  0  0  0  0
  149.8435  141.5468  156.8027 H   0  0  0  0  0  0  0  0  0  0  0  0
  152.1945  140.3879  159.0078 H   0  0  0  0  0  0  0  0  0  0  0  0
  153.1684  141.6117  160.9335 H   0  0  0  0  0  0  0  0  0  0  0  0
  153.0583  144.0966  161.0192 H   0  0  0  0  0  0  0  0  0  0  0  0
  151.9720  145.3568  159.1690 H   0  0  0  0  0  0  0  0  0  0  0  0
  150.9994  144.1393  157.2370 H   0  0  0  0  0  0  0  0  0  0  0  0
  1  2  2  0  0  0  0
  2 14  1  0  0  0  0
  2  3  1  0  0  0  0
  3  4  1  0  0  0  0
  3  5  2  0  0  0  0
  5  6  1  0  0  0  0
  5 26  1  0  0  0  0
  6  7  1  0  0  0  0
  6 12  1  0  0  0  0
  7 11  1  0  0  0  0
  7  8  1  0  0  0  0
  7 27  1  0  0  0  0
  8  9  1  0  0  0  0
  8 28  1  0  0  0  0
  8 29  1  0  0  0  0
  9 10  1  0  0  0  0
  9 30  1  0  0  0  0
  9 31  1  0  0  0  0
 10 11  1  0  0  0  0
 10 32  1  0  0  0  0
 10 33  1  0  0  0  0
 12 13  2  0  0  0  0
 12 14  1  0  0  0  0
 14 15  1  0  0  0  0
 15 16  1  0  0  0  0
 15 34  1  0  0  0  0
 15 35  1  0  0  0  0
 16 17  1  0  0  0  0
 16 18  1  0  0  0  0
 16 36  1  0  0  0  0
 17 37  1  0  0  0  0
 18 19  1  0  0  0  0
 18 38  1  0  0  0  0
 18 39  1  0  0  0  0
 19 20  1  0  0  0  0
 19 40  1  0  0  0  0
 19 41  1  0  0  0  0
 20 25  1  0  0  0  0
 20 21  2  0  0  0  0
 21 22  1  0  0  0  0
 21 42  1  0  0  0  0
 22 23  2  0  0  0  0
 22 43  1  0  0  0  0
 23 24  1  0  0  0  0
 23 44  1  0  0  0  0
 24 25  2  0  0  0  0
 24 45  1  0  0  0  0
 25 46  1  0  0  0  0
M  END
> <s_m_source_file>
AV-unprocessed.smi

> <i_m_source_file_index>
111

> <i_lp_mmshare_version>
43012

> <i_f3d_flags>
0

> <s_epik_input>
TzFbQ0gyXVtDSDJdW0NIMl1bQ0BIXTFuKFtjSF1jKEYpYzI9TyljKD1PKW4yW0NIMl1bQ0BIXShbT0hdKVtDSDJdW0NIMl1jM1tjSF1bY0hdW2NIXVtjSF1bY0hdMw==

> <s_epik_cmdline>
J2VwaWtfcHl0aG9uJywgJy1waCcsICc3LjAnLCAnLXRuJywgJzgnLCAnLW1hJywgJzIwMCcsICctbWV0YWxfYmluZGluZycsICctaW1hZScsICc8aW5maWxlLm1hZT4nLCAnLW9tYWUnLCAnPG91dGZpbGUubWFlPic=

> <r_lp_tautomer_probability>
1

> <r_epik_Ionization_Penalty>
1.88248e-07

> <r_epik_Ionization_Penalty_Charging>
4.03974e-08

> <r_epik_Ionization_Penalty_Neutral>
1.47851e-07

> <r_epik_State_Penalty>
-0

> <r_epik_Charging_Adjusted_Penalty>
4.03974e-08

> <i_epik_Tot_Q>
0

> <i_epik_Tot_abs_Q>
0

> <r_epik_Metal_State_Penalty>
-0

> <b_epik_Metal_Only>
0

> <s_epik_Chemistry_Notes>
This compound contains an acetal/aminal-like group ( X-CH(R)-Y where X, Y are N, S, or O) that may be acid/base labile, releasing an aldehyde.

> <s_lp_Force_Field>
OPLS_2005

> <r_lp_Energy>
34.4162

> <b_lp_Chiralities_Consistent>
1

> <s_lp_Variant>
AV-unprocessed.smi:111-1

> <Gold.Version>
5.8.1

> <Gold.Id.Protein>
6NUR|6NUR_protein|mol2

> <Gold.PLP.Fitness>
46.3940

> <Gold.PLP.PLP>
-43.2871

> <Gold.PLP.part.hbond>
-3.0000

> <Gold.PLP.part.metal>
0.0000

> <Gold.PLP.part.buried>
-5.5332

> <Gold.PLP.part.nonpolar>
-34.7759

> <Gold.PLP.part.repulsive>
0.0565

> <Gold.PLP.ligand.clash>
0.0000

> <Gold.PLP.ligand.torsion>
1.0110

> <Gold.PLP.Chemscore.Hbond>
1.6880

> <Gold.PLP.Chemscore.CHOScore>
0.0000

> <Gold.PLP.Chemscore.Metal>
0.0000

> <Gold.Chemscore.Hbonds>
donor molecule, donor type, donor heavy atom, donor atom, acceptor molecule, acceptor atom, score
      P1  H  6931  6943       L1    11  0.85
      P1  H  6934  6947       L1    11  0.63

> <Gold.PLP.Chemscore.Internal.Correction>
0.0649

> <Gold.Rescore>
     Score         DG    S(hbond)    S(metal)    S(lipo)     H(rot)  DE(clash)    DE(int)     intcor
     12.67     -14.77       0.94        0.00     111.07       2.67       0.04       2.07       ----

> <Gold.Chemscore.Fitness>
12.6665

> <Gold.Chemscore.DG>
-14.7721

> <Gold.Chemscore.ZeroCoef>
-5.4800

> <Gold.Chemscore.Hbond>
0.9411

> <Gold.Chemscore.Metal>
0.0000

> <Gold.Chemscore.Lipo>
111.0679

> <Gold.Chemscore.Internal_Hbond>
0.0000

> <Gold.Chemscore.DEClash>
0.0354

> <Gold.Chemscore.DEInternal>
2.0702

> <Gold.Chemscore.Rot>
2.6743

> <Gold.Chemscore.Internal.Correction>
   9.000000E+99

> <Gold.Chemscore.Hbonds>
donor molecule, donor type, donor heavy atom, donor atom, acceptor molecule, acceptor atom, score
      P1  H  6931  6943       L1    11  0.14
      P1  H  6934  6947       L1    11  0.27

> <Gold.Chemscore.Hbond.Weighted>
-3.1434

> <Gold.Chemscore.Metal.Weighted>
-0.0000

> <Gold.Chemscore.Lipo.Weighted>
-12.9949

> <Gold.Chemscore.Internal_Hbond.Weighted>
0.0000

> <Gold.Chemscore.DEClash.Weighted>
0.0354

> <Gold.Chemscore.DEInternal.Weighted>
2.0702

> <Gold.Chemscore.Rot.Weighted>
6.8463

> <Gold.Chemscore.Internal.Correction.Weighted>
   9.000000E+99

> <Gold.Protein.RotatedTorsions>
[ 6907 6896 6895 6894 ] final -124.21 input  -60.11 | X-H torsion
[ 7974 7965 7964 7962 ] final  104.32 input  175.53 | X-H torsion
[ 8008 7997 7996 7995 ] final  -86.56 input   59.86 | X-H torsion
[ 10167 10162 10161 10158 ] final  -69.36 input  -65.29 | X-H torsion
[ 10718 10713 10712 10709 ] final  -79.70 input   66.30 | X-H torsion
[ 10763 10752 10751 10750 ] final   80.67 input  -60.55 | X-H torsion
[ 11005 11000 10999 10996 ] final -170.02 input  -57.11 | X-H torsion

> <Gold.Protein.ActiveResidues>
 VAL166  LYS551  ARG553  GLY616  TRP617  ASP618  TYR619  PRO620  LYS621  CYS622 
 ASP623  PHE694  ASN695  SER759  ASP760  ASP761  ALA762  ILE779  LEU786  VAL792 
 PHE793  MET794  SER795  GLU796  ALA797  LYS798  CYS799  TRP800  GLU811  SER814 

> <Gold.Protein.RotatedAtoms>
  150.8746  133.7457  159.2950 H   0  0  0  0  0  0  0  0  0  0  0  0  # atno 6907 bound_to 6896
  151.5058  135.1062  159.9850 H   0  0  0  0  0  0  0  0  0  0  0  0  # atno 6908 bound_to 6896
  152.4718  133.8003  159.7005 H   0  0  0  0  0  0  0  0  0  0  0  0  # atno 6909 bound_to 6896
  145.3343  139.2478  143.3644 H   0  0  0  0  0  0  0  0  0  0  0  0  # atno 7974 bound_to 7965
  154.6533  140.0577  156.9980 H   0  0  0  0  0  0  0  0  0  0  0  0  # atno 8008 bound_to 7997
  155.1338  140.3259  155.4449 H   0  0  0  0  0  0  0  0  0  0  0  0  # atno 8009 bound_to 7997
  156.2586  140.1976  156.6456 H   0  0  0  0  0  0  0  0  0  0  0  0  # atno 8010 bound_to 7997
  140.5436  143.2314  151.7043 H   0  0  0  0  0  0  0  0  0  0  0  0  # atno 10167 bound_to 10162
  156.0086  130.4553  150.3688 H   0  0  0  0  0  0  0  0  0  0  0  0  # atno 10718 bound_to 10713
  153.1053  135.4794  154.8939 H   0  0  0  0  0  0  0  0  0  0  0  0  # atno 10763 bound_to 10752
  154.7423  135.3085  154.8709 H   0  0  0  0  0  0  0  0  0  0  0  0  # atno 10764 bound_to 10752
  153.9314  135.6844  153.4799 H   0  0  0  0  0  0  0  0  0  0  0  0  # atno 10765 bound_to 10752
  140.5242  134.5679  157.5056 H   0  0  0  0  0  0  0  0  0  0  0  0  # atno 11005 bound_to 11000
  146.3033  140.3927  142.8696 LP  0  0  0  0  0  0  0  0  0  0  0  0  # atno 17320 bound_to 7965
  144.8840  140.7437  143.5969 LP  0  0  0  0  0  0  0  0  0  0  0  0  # atno 17321 bound_to 7965
  139.4998  144.3929  152.0261 LP  0  0  0  0  0  0  0  0  0  0  0  0  # atno 17342 bound_to 10162
  140.3040  144.3614  150.6052 LP  0  0  0  0  0  0  0  0  0  0  0  0  # atno 17343 bound_to 10162
  157.1773  131.0383  151.2766 LP  0  0  0  0  0  0  0  0  0  0  0  0  # atno 17370 bound_to 10713
  157.4177  130.7420  149.6888 LP  0  0  0  0  0  0  0  0  0  0  0  0  # atno 17371 bound_to 10713
  139.9589  134.7486  156.0280 LP  0  0  0  0  0  0  0  0  0  0  0  0  # atno 17394 bound_to 11000
  141.1317  133.6585  156.3483 LP  0  0  0  0  0  0  0  0  0  0  0  0  # atno 17395 bound_to 11000

$$$$
