AV-unprocessed.smi:837|AV-procd|sdf|3893|dock8
  -GOLD-   22720 1353D 1   1.00000     0.00000
 Structure written by MMmdl.
 49 51  0  0  0  0  0  0  0  0  1 V2000
  147.4613  133.3751  152.2364 C   0  0  0  0  0  0  0  0  0  0  0  0
  146.2838  132.9657  151.3270 C   0  0  1  0  0  0  0  0  0  0  0  0
  145.6309  131.6610  151.8327 C   0  0  0  0  0  0  0  0  0  0  0  0
  144.5171  131.1803  150.8894 C   0  0  0  0  0  0  0  0  0  0  0  0
  143.4505  132.2643  150.6796 C   0  0  0  0  0  0  0  0  0  0  0  0
  144.0807  133.5743  150.1739 C   0  0  0  0  0  0  0  0  0  0  0  0
  145.2261  134.0884  151.0826 C   0  0  2  0  0  0  0  0  0  0  0  0
  145.8351  135.2620  150.4806 N   0  0  0  0  0  0  0  0  0  0  0  0
  145.6807  136.3723  151.2125 C   0  0  0  0  0  0  0  0  0  0  0  0
  146.0905  137.4895  150.9013 O   0  0  0  0  0  0  0  0  0  0  0  0
  145.0061  136.0506  152.3300 N   0  0  0  0  0  0  0  0  0  0  0  0
  144.6145  137.0141  153.3676 C   0  0  0  0  0  0  0  0  0  0  0  0
  145.8099  137.6471  154.0954 C   0  0  0  0  0  0  0  0  0  0  0  0
  146.5666  136.9655  154.7892 O   0  0  0  0  0  0  0  0  0  0  0  0
  145.9612  138.9696  153.9303 N   0  0  0  0  0  0  0  0  0  0  0  0
  147.0202  139.7709  154.5323 C   0  0  0  0  0  0  0  0  0  0  0  0
  148.4094  139.1773  154.2466 C   0  0  0  0  0  0  0  0  0  0  0  0
  149.4732  139.7520  155.1611 C   0  0  0  0  0  0  0  0  0  0  0  0
  149.1754  140.8186  156.0340 C   0  0  0  0  0  0  0  0  0  0  0  0
  150.1946  141.3157  156.8690 C   0  0  0  0  0  0  0  0  0  0  0  0
  151.4711  140.7231  156.7951 C   0  0  0  0  0  0  0  0  0  0  0  0
  151.7673  139.7008  155.9635 N   0  0  0  0  0  0  0  0  0  0  0  0
  150.7844  139.2300  155.1660 C   0  0  0  0  0  0  0  0  0  0  0  0
  144.6924  134.7479  152.3560 C   0  0  0  0  0  0  0  0  0  0  0  0
  144.0745  134.1591  153.2434 O   0  0  0  0  0  0  0  0  0  0  0  0
  147.1334  133.5832  153.2552 H   0  0  0  0  0  0  0  0  0  0  0  0
  147.9712  134.2625  151.8614 H   0  0  0  0  0  0  0  0  0  0  0  0
  148.2032  132.5782  152.2911 H   0  0  0  0  0  0  0  0  0  0  0  0
  146.7231  132.7362  150.3547 H   0  0  0  0  0  0  0  0  0  0  0  0
  146.3866  130.8793  151.9186 H   0  0  0  0  0  0  0  0  0  0  0  0
  145.2284  131.8012  152.8361 H   0  0  0  0  0  0  0  0  0  0  0  0
  144.9491  130.9034  149.9269 H   0  0  0  0  0  0  0  0  0  0  0  0
  144.0542  130.2782  151.2906 H   0  0  0  0  0  0  0  0  0  0  0  0
  142.7061  131.9142  149.9642 H   0  0  0  0  0  0  0  0  0  0  0  0
  142.9135  132.4376  151.6122 H   0  0  0  0  0  0  0  0  0  0  0  0
  144.4665  133.4126  149.1664 H   0  0  0  0  0  0  0  0  0  0  0  0
  143.3022  134.3329  150.0752 H   0  0  0  0  0  0  0  0  0  0  0  0
  146.3084  135.2327  149.5893 H   0  0  0  0  0  0  0  0  0  0  0  0
  144.0081  137.8073  152.9267 H   0  0  0  0  0  0  0  0  0  0  0  0
  143.9748  136.5285  154.1063 H   0  0  0  0  0  0  0  0  0  0  0  0
  145.2967  139.4554  153.3453 H   0  0  0  0  0  0  0  0  0  0  0  0
  146.9615  140.7993  154.1709 H   0  0  0  0  0  0  0  0  0  0  0  0
  146.8457  139.8097  155.6081 H   0  0  0  0  0  0  0  0  0  0  0  0
  148.3859  138.0930  154.3658 H   0  0  0  0  0  0  0  0  0  0  0  0
  148.6974  139.3656  153.2112 H   0  0  0  0  0  0  0  0  0  0  0  0
  148.1844  141.2475  156.0658 H   0  0  0  0  0  0  0  0  0  0  0  0
  150.0027  142.1315  157.5503 H   0  0  0  0  0  0  0  0  0  0  0  0
  152.2758  141.0797  157.4212 H   0  0  0  0  0  0  0  0  0  0  0  0
  151.0519  138.4105  154.5150 H   0  0  0  0  0  0  0  0  0  0  0  0
  1  2  1  0  0  0  0
  1 26  1  0  0  0  0
  1 27  1  0  0  0  0
  1 28  1  0  0  0  0
  2  7  1  0  0  0  0
  2  3  1  0  0  0  0
  2 29  1  0  0  0  0
  3  4  1  0  0  0  0
  3 30  1  0  0  0  0
  3 31  1  0  0  0  0
  4  5  1  0  0  0  0
  4 32  1  0  0  0  0
  4 33  1  0  0  0  0
  5  6  1  0  0  0  0
  5 34  1  0  0  0  0
  5 35  1  0  0  0  0
  6  7  1  0  0  0  0
  6 36  1  0  0  0  0
  6 37  1  0  0  0  0
  7 24  1  0  0  0  0
  7  8  1  0  0  0  0
  8  9  1  0  0  0  0
  8 38  1  0  0  0  0
  9 10  2  0  0  0  0
  9 11  1  0  0  0  0
 11 12  1  0  0  0  0
 11 24  1  0  0  0  0
 12 13  1  0  0  0  0
 12 39  1  0  0  0  0
 12 40  1  0  0  0  0
 13 14  2  0  0  0  0
 13 15  1  0  0  0  0
 15 16  1  0  0  0  0
 15 41  1  0  0  0  0
 16 17  1  0  0  0  0
 16 42  1  0  0  0  0
 16 43  1  0  0  0  0
 17 18  1  0  0  0  0
 17 44  1  0  0  0  0
 17 45  1  0  0  0  0
 18 23  1  0  0  0  0
 18 19  2  0  0  0  0
 19 20  1  0  0  0  0
 19 46  1  0  0  0  0
 20 21  2  0  0  0  0
 20 47  1  0  0  0  0
 21 22  1  0  0  0  0
 21 48  1  0  0  0  0
 22 23  2  0  0  0  0
 23 49  1  0  0  0  0
 24 25  2  0  0  0  0
M  END
> <s_m_source_file>
AV-unprocessed.smi

> <i_m_source_file_index>
837

> <i_lp_mmshare_version>
43012

> <i_f3d_flags>
0

> <s_epik_input>
W0NIMl0xW0NIMl1bQ0gyXVtDSDJdW0NAQEhdKFtDSDNdKVtDQEBdMTJbTkhdQyg9TylOKEMyPU8pW0NIMl1DKD1PKVtOSF1bQ0gyXVtDSDJdYzNbY0hdW2NIXVtjSF1uW2NIXTM=

> <s_epik_cmdline>
J2VwaWtfcHl0aG9uJywgJy1waCcsICc3LjAnLCAnLXRuJywgJzgnLCAnLW1hJywgJzIwMCcsICctbWV0YWxfYmluZGluZycsICctaW1hZScsICc8aW5maWxlLm1hZT4nLCAnLW9tYWUnLCAnPG91dGZpbGUubWFlPic=

> <r_lp_tautomer_probability>
1

> <r_epik_Ionization_Penalty>
0.0127837

> <r_epik_Ionization_Penalty_Charging>
0

> <r_epik_Ionization_Penalty_Neutral>
0.0127837

> <r_epik_State_Penalty>
0.00987657

> <r_epik_Charging_Adjusted_Penalty>
0.00987657

> <i_epik_Tot_Q>
0

> <i_epik_Tot_abs_Q>
0

> <r_epik_Metal_State_Penalty>
0.0309865

> <b_epik_Metal_Only>
0

> <s_lp_Force_Field>
OPLS_2005

> <r_lp_Energy>
18.239

> <b_lp_Chiralities_Consistent>
1

> <s_lp_Variant>
AV-unprocessed.smi:837-2

> <Gold.Version>
5.8.1

> <Gold.Id.Protein>
6NUR|6NUR_protein|mol2

> <Gold.PLP.Fitness>
46.4592

> <Gold.PLP.PLP>
-38.9255

> <Gold.PLP.part.hbond>
-3.8999

> <Gold.PLP.part.metal>
0.0000

> <Gold.PLP.part.buried>
-1.8459

> <Gold.PLP.part.nonpolar>
-37.1822

> <Gold.PLP.part.repulsive>
3.0016

> <Gold.PLP.ligand.clash>
0.0000

> <Gold.PLP.ligand.torsion>
0.1799

> <Gold.PLP.Chemscore.Hbond>
2.6205

> <Gold.PLP.Chemscore.CHOScore>
0.0000

> <Gold.PLP.Chemscore.Metal>
0.0000

> <Gold.Chemscore.Hbonds>
donor molecule, donor type, donor heavy atom, donor atom, acceptor molecule, acceptor atom, score
      L1  H     8    38       P1  7921  0.94
      L1  H    15    41       P1 10175  0.83
      P1  H  7954  7966       L1    10  0.24

> <Gold.PLP.Chemscore.Internal.Correction>
0.0321

> <Gold.Rescore>
     Score         DG    S(hbond)    S(metal)    S(lipo)     H(rot)  DE(clash)    DE(int)     intcor
     15.67     -19.36       2.24        0.00      95.43       1.86       2.26       1.44       ----

> <Gold.Chemscore.Fitness>
15.6652

> <Gold.Chemscore.DG>
-19.3628

> <Gold.Chemscore.ZeroCoef>
-5.4800

> <Gold.Chemscore.Hbond>
2.2359

> <Gold.Chemscore.Metal>
0.0000

> <Gold.Chemscore.Lipo>
95.4252

> <Gold.Chemscore.Internal_Hbond>
0.0000

> <Gold.Chemscore.DEClash>
2.2580

> <Gold.Chemscore.DEInternal>
1.4396

> <Gold.Chemscore.Rot>
1.8553

> <Gold.Chemscore.Internal.Correction>
   9.000000E+99

> <Gold.Chemscore.Hbonds>
donor molecule, donor type, donor heavy atom, donor atom, acceptor molecule, acceptor atom, score
      L1  H     8    38       P1  7921  0.49
      L1  H    15    41       P1 10175  0.80
      P1  H  7954  7966       L1    10  0.24

> <Gold.Chemscore.Hbond.Weighted>
-7.4678

> <Gold.Chemscore.Metal.Weighted>
-0.0000

> <Gold.Chemscore.Lipo.Weighted>
-11.1648

> <Gold.Chemscore.Internal_Hbond.Weighted>
0.0000

> <Gold.Chemscore.DEClash.Weighted>
2.2580

> <Gold.Chemscore.DEInternal.Weighted>
1.4396

> <Gold.Chemscore.Rot.Weighted>
4.7497

> <Gold.Chemscore.Internal.Correction.Weighted>
   9.000000E+99

> <Gold.Protein.RotatedTorsions>
[ 6907 6896 6895 6894 ] final -148.80 input  -60.11 | X-H torsion
[ 7974 7965 7964 7962 ] final  -15.60 input  175.53 | X-H torsion
[ 8008 7997 7996 7995 ] final  -26.32 input   59.86 | X-H torsion
[ 10167 10162 10161 10158 ] final   -0.22 input  -65.29 | X-H torsion
[ 10718 10713 10712 10709 ] final   24.51 input   66.30 | X-H torsion
[ 10763 10752 10751 10750 ] final  -40.72 input  -60.55 | X-H torsion
[ 11005 11000 10999 10996 ] final -104.26 input  -57.11 | X-H torsion

> <Gold.Protein.ActiveResidues>
 VAL166  LYS551  ARG553  GLY616  TRP617  ASP618  TYR619  PRO620  LYS621  CYS622 
 ASP623  PHE694  ASN695  SER759  ASP760  ASP761  ALA762  ILE779  LEU786  VAL792 
 PHE793  MET794  SER795  GLU796  ALA797  LYS798  CYS799  TRP800  GLU811  SER814 

> <Gold.Protein.RotatedAtoms>
  151.1750  133.4760  159.2593 H   0  0  0  0  0  0  0  0  0  0  0  0  # atno 6907 bound_to 6896
  151.1317  135.0133  159.8595 H   0  0  0  0  0  0  0  0  0  0  0  0  # atno 6908 bound_to 6896
  152.5460  134.1652  159.8627 H   0  0  0  0  0  0  0  0  0  0  0  0  # atno 6909 bound_to 6896
  146.2025  140.3516  142.8418 H   0  0  0  0  0  0  0  0  0  0  0  0  # atno 7974 bound_to 7965
  154.4431  140.1902  156.0757 H   0  0  0  0  0  0  0  0  0  0  0  0  # atno 8008 bound_to 7997
  156.0477  140.3312  155.7288 H   0  0  0  0  0  0  0  0  0  0  0  0  # atno 8009 bound_to 7997
  155.5605  140.0603  157.2821 H   0  0  0  0  0  0  0  0  0  0  0  0  # atno 8010 bound_to 7997
  140.6758  143.6921  150.8019 H   0  0  0  0  0  0  0  0  0  0  0  0  # atno 10167 bound_to 10162
  157.1807  130.6801  149.6112 H   0  0  0  0  0  0  0  0  0  0  0  0  # atno 10718 bound_to 10713
  153.9506  135.6751  153.4744 H   0  0  0  0  0  0  0  0  0  0  0  0  # atno 10763 bound_to 10752
  153.0886  135.4886  154.8642 H   0  0  0  0  0  0  0  0  0  0  0  0  # atno 10764 bound_to 10752
  154.7327  135.3142  154.8823 H   0  0  0  0  0  0  0  0  0  0  0  0  # atno 10765 bound_to 10752
  141.1108  133.8709  157.1589 H   0  0  0  0  0  0  0  0  0  0  0  0  # atno 11005 bound_to 11000
  144.8715  140.7279  143.6044 LP  0  0  0  0  0  0  0  0  0  0  0  0  # atno 17320 bound_to 7965
  145.3436  139.1725  143.4472 LP  0  0  0  0  0  0  0  0  0  0  0  0  # atno 17321 bound_to 7965
  140.0613  143.5151  152.2626 LP  0  0  0  0  0  0  0  0  0  0  0  0  # atno 17342 bound_to 10162
  139.6049  144.7593  151.3085 LP  0  0  0  0  0  0  0  0  0  0  0  0  # atno 17343 bound_to 10162
  155.9725  130.4647  150.6229 LP  0  0  0  0  0  0  0  0  0  0  0  0  # atno 17370 bound_to 10713
  157.3955  131.0802  151.1355 LP  0  0  0  0  0  0  0  0  0  0  0  0  # atno 17371 bound_to 10713
  140.0001  135.0031  157.0171 LP  0  0  0  0  0  0  0  0  0  0  0  0  # atno 17394 bound_to 11000
  140.4779  134.1319  155.7212 LP  0  0  0  0  0  0  0  0  0  0  0  0  # atno 17395 bound_to 11000

$$$$
