AV-unprocessed.smi:261|AV-procd|sdf|1989|dock3
  -GOLD-   2262021173D 1   1.00000     0.00000
 Structure written by MMmdl.
 51 54  0  0  0  0  0  0  0  0  1 V2000
  152.6331  139.0452  159.3004 C   0  0  0  0  0  0  0  0  0  0  0  0
  151.3060  138.5746  159.1319 O   0  0  0  0  0  0  0  0  0  0  0  0
  150.8428  138.6526  157.7916 C   0  0  1  0  0  0  0  0  0  0  0  0
  151.7502  137.9291  156.7922 C   0  0  0  0  0  0  0  0  0  0  0  0
  150.8217  137.5764  155.6174 C   0  0  2  0  0  0  0  0  0  0  0  0
  150.8037  138.6923  154.5565 C   0  0  0  0  0  0  0  0  0  0  0  0
  150.1520  138.4291  153.4215 N   0  0  0  0  0  0  0  0  0  0  0  0
  151.3734  139.7659  154.7475 O   0  0  0  0  0  0  0  0  0  0  0  0
  149.5180  137.4071  156.2600 N   0  0  0  0  0  0  0  0  0  0  0  0
  148.4765  136.6934  155.7480 C   0  0  0  0  0  0  0  0  0  0  0  0
  147.2218  137.1818  155.9384 N   0  0  0  0  0  0  0  0  0  0  0  0
  146.1545  136.5349  155.4641 C   0  0  0  0  0  0  0  0  0  0  0  0
  146.1101  135.3941  154.7769 N   0  0  0  0  0  0  0  0  0  0  0  0
  147.3611  134.8914  154.5770 C   0  0  0  0  0  0  0  0  0  0  0  0
  148.5883  135.4671  155.0220 C   0  0  0  0  0  0  0  0  0  0  0  0
  149.6457  134.6556  154.6210 N   0  0  0  0  0  0  0  0  0  0  0  0
  149.0817  133.6696  153.9809 C   0  0  0  0  0  0  0  0  0  0  0  0
  147.7107  133.7298  153.9112 N   0  0  0  0  0  0  0  0  0  0  0  0
  146.8331  132.7680  153.2667 C   0  0  0  0  0  0  0  0  0  0  0  0
  146.6533  133.0490  151.7617 C   0  0  1  0  0  0  0  0  0  0  0  0
  147.8640  132.7763  151.0803 O   0  0  0  0  0  0  0  0  0  0  0  0
  145.5024  132.2219  151.1526 C   0  0  2  0  0  0  0  0  0  0  0  0
  145.3961  132.2070  149.6163 C   0  0  0  0  0  0  0  0  0  0  0  0
  143.9953  132.7281  149.3475 C   0  0  0  0  0  0  0  0  0  0  0  0
  143.2681  132.4286  150.6519 C   0  0  0  0  0  0  0  0  0  0  0  0
  144.2525  132.7044  151.6345 O   0  0  0  0  0  0  0  0  0  0  0  0
  149.5186  137.9059  157.6320 C   0  0  0  0  0  0  0  0  0  0  0  0
  150.7039  139.6923  157.4883 H   0  0  0  0  0  0  0  0  0  0  0  0
  151.1616  136.6416  155.1706 H   0  0  0  0  0  0  0  0  0  0  0  0
  152.9121  138.9759  160.3516 H   0  0  0  0  0  0  0  0  0  0  0  0
  152.7228  140.0893  158.9983 H   0  0  0  0  0  0  0  0  0  0  0  0
  153.3461  138.4517  158.7275 H   0  0  0  0  0  0  0  0  0  0  0  0
  152.6144  138.5270  156.4991 H   0  0  0  0  0  0  0  0  0  0  0  0
  152.1291  137.0094  157.2406 H   0  0  0  0  0  0  0  0  0  0  0  0
  150.1150  139.1228  152.6890 H   0  0  0  0  0  0  0  0  0  0  0  0
  149.7043  137.5326  153.2981 H   0  0  0  0  0  0  0  0  0  0  0  0
  145.1997  136.9982  155.6643 H   0  0  0  0  0  0  0  0  0  0  0  0
  149.6530  132.8639  153.5431 H   0  0  0  0  0  0  0  0  0  0  0  0
  147.2329  131.7656  153.4240 H   0  0  0  0  0  0  0  0  0  0  0  0
  145.8683  132.7992  153.7739 H   0  0  0  0  0  0  0  0  0  0  0  0
  146.4285  134.1084  151.6321 H   0  0  0  0  0  0  0  0  0  0  0  0
  147.8942  131.8516  150.8868 H   0  0  0  0  0  0  0  0  0  0  0  0
  145.5843  131.1917  151.5036 H   0  0  0  0  0  0  0  0  0  0  0  0
  146.1537  132.8094  149.1139 H   0  0  0  0  0  0  0  0  0  0  0  0
  145.4978  131.1851  149.2486 H   0  0  0  0  0  0  0  0  0  0  0  0
  144.0266  133.8063  149.1839 H   0  0  0  0  0  0  0  0  0  0  0  0
  143.5241  132.2654  148.4798 H   0  0  0  0  0  0  0  0  0  0  0  0
  142.3772  133.0416  150.7899 H   0  0  0  0  0  0  0  0  0  0  0  0
  142.9789  131.3778  150.7066 H   0  0  0  0  0  0  0  0  0  0  0  0
  149.4690  137.0576  158.3166 H   0  0  0  0  0  0  0  0  0  0  0  0
  148.6700  138.5608  157.8331 H   0  0  0  0  0  0  0  0  0  0  0  0
  1  2  1  0  0  0  0
  1 30  1  0  0  0  0
  1 31  1  0  0  0  0
  1 32  1  0  0  0  0
  2  3  1  0  0  0  0
  3 28  1  0  0  0  0
  3 27  1  0  0  0  0
  3  4  1  0  0  0  0
  4  5  1  0  0  0  0
  4 33  1  0  0  0  0
  4 34  1  0  0  0  0
  5 29  1  0  0  0  0
  5  6  1  0  0  0  0
  5  9  1  0  0  0  0
  6  7  1  0  0  0  0
  6  8  2  0  0  0  0
  7 35  1  0  0  0  0
  7 36  1  0  0  0  0
  9 10  1  0  0  0  0
  9 27  1  0  0  0  0
 10 15  1  0  0  0  0
 10 11  2  0  0  0  0
 11 12  1  0  0  0  0
 12 13  2  0  0  0  0
 12 37  1  0  0  0  0
 13 14  1  0  0  0  0
 14 18  1  0  0  0  0
 14 15  2  0  0  0  0
 15 16  1  0  0  0  0
 16 17  2  0  0  0  0
 17 18  1  0  0  0  0
 17 38  1  0  0  0  0
 18 19  1  0  0  0  0
 19 20  1  0  0  0  0
 19 39  1  0  0  0  0
 19 40  1  0  0  0  0
 20 21  1  0  0  0  0
 20 22  1  0  0  0  0
 20 41  1  0  0  0  0
 21 42  1  0  0  0  0
 22 26  1  0  0  0  0
 22 23  1  0  0  0  0
 22 43  1  0  0  0  0
 23 24  1  0  0  0  0
 23 44  1  0  0  0  0
 23 45  1  0  0  0  0
 24 25  1  0  0  0  0
 24 46  1  0  0  0  0
 24 47  1  0  0  0  0
 25 26  1  0  0  0  0
 25 48  1  0  0  0  0
 25 49  1  0  0  0  0
 27 50  1  0  0  0  0
 27 51  1  0  0  0  0
M  END
> <s_m_source_file>
AV-unprocessed.smi

> <i_m_source_file_index>
261

> <i_lp_mmshare_version>
43012

> <i_f3d_flags>
0

> <s_epik_input>
W0NIM11PW0NASF0xW0NIMl1bQ0BASF0oQyg9TylbTkgyXSlOKFtDSDJdMSljKG5bY0hdbjIpYyhjMjMpbltjSF1uM1tDSDJdW0NASF0oW09IXSlbQ0BASF00W0NIMl1bQ0gyXVtDSDJdTzQ=

> <s_epik_cmdline>
J2VwaWtfcHl0aG9uJywgJy1waCcsICc3LjAnLCAnLXRuJywgJzgnLCAnLW1hJywgJzIwMCcsICctbWV0YWxfYmluZGluZycsICctaW1hZScsICc8aW5maWxlLm1hZT4nLCAnLW9tYWUnLCAnPG91dGZpbGUubWFlPic=

> <r_lp_tautomer_probability>
1

> <r_epik_Ionization_Penalty>
0.000713824

> <r_epik_Ionization_Penalty_Charging>
0

> <r_epik_Ionization_Penalty_Neutral>
0.000713824

> <r_epik_State_Penalty>
0.000402132

> <r_epik_Charging_Adjusted_Penalty>
0.000402132

> <i_epik_Tot_Q>
0

> <i_epik_Tot_abs_Q>
0

> <r_epik_Metal_State_Penalty>
-0

> <b_epik_Metal_Only>
0

> <s_lp_Force_Field>
OPLS_2005

> <r_lp_Energy>
44.9421

> <b_lp_Chiralities_Consistent>
1

> <s_lp_Variant>
AV-unprocessed.smi:261-7

> <Gold.Version>
5.8.1

> <Gold.Id.Protein>
6NUR|6NUR_protein|mol2

> <Gold.PLP.Fitness>
42.4316

> <Gold.PLP.PLP>
-34.6494

> <Gold.PLP.part.hbond>
-3.5183

> <Gold.PLP.part.metal>
0.0000

> <Gold.PLP.part.buried>
-5.7000

> <Gold.PLP.part.nonpolar>
-26.2024

> <Gold.PLP.part.repulsive>
0.5282

> <Gold.PLP.ligand.clash>
0.0000

> <Gold.PLP.ligand.torsion>
1.4610

> <Gold.PLP.Chemscore.Hbond>
3.5226

> <Gold.PLP.Chemscore.CHOScore>
0.0000

> <Gold.PLP.Chemscore.Metal>
0.0000

> <Gold.Chemscore.Hbonds>
donor molecule, donor type, donor heavy atom, donor atom, acceptor molecule, acceptor atom, score
      L1  H     7    35       P1  7957  1.00
      L1  H     7    36       P1  7948  0.83
      L1  H    21    42       P1 10747  0.69
      P1  H  7989  7998       L1     8  1.00

> <Gold.PLP.Chemscore.Internal.Correction>
0.1366

> <Gold.Rescore>
     Score         DG    S(hbond)    S(metal)    S(lipo)     H(rot)  DE(clash)    DE(int)     intcor
     15.93     -17.67       3.49        0.00      74.24       3.18       0.15       1.59       ----

> <Gold.Chemscore.Fitness>
15.9333

> <Gold.Chemscore.DG>
-17.6727

> <Gold.Chemscore.ZeroCoef>
-5.4800

> <Gold.Chemscore.Hbond>
3.4897

> <Gold.Chemscore.Metal>
0.0000

> <Gold.Chemscore.Lipo>
74.2358

> <Gold.Chemscore.Internal_Hbond>
0.0000

> <Gold.Chemscore.DEClash>
0.1500

> <Gold.Chemscore.DEInternal>
1.5893

> <Gold.Chemscore.Rot>
3.1831

> <Gold.Chemscore.Internal.Correction>
   9.000000E+99

> <Gold.Chemscore.Hbonds>
donor molecule, donor type, donor heavy atom, donor atom, acceptor molecule, acceptor atom, score
      L1  H     7    35       P1  7957  0.70
      L1  H     7    36       P1  7948  0.53
      L1  H    21    42       P1 10747  0.69
      P1  H  7989  7998       L1     8  0.99

> <Gold.Chemscore.Hbond.Weighted>
-11.6557

> <Gold.Chemscore.Metal.Weighted>
-0.0000

> <Gold.Chemscore.Lipo.Weighted>
-8.6856

> <Gold.Chemscore.Internal_Hbond.Weighted>
0.0000

> <Gold.Chemscore.DEClash.Weighted>
0.1500

> <Gold.Chemscore.DEInternal.Weighted>
1.5893

> <Gold.Chemscore.Rot.Weighted>
8.1486

> <Gold.Chemscore.Internal.Correction.Weighted>
   9.000000E+99

> <Gold.Protein.RotatedTorsions>
[ 6907 6896 6895 6894 ] final   61.74 input  -60.11 | X-H torsion
[ 7974 7965 7964 7962 ] final  -46.03 input  175.53 | X-H torsion
[ 8008 7997 7996 7995 ] final  -74.74 input   59.86 | X-H torsion
[ 10167 10162 10161 10158 ] final  107.15 input  -65.29 | X-H torsion
[ 10718 10713 10712 10709 ] final  -99.46 input   66.30 | X-H torsion
[ 10763 10752 10751 10750 ] final   54.93 input  -60.55 | X-H torsion
[ 11005 11000 10999 10996 ] final -147.94 input  -57.11 | X-H torsion

> <Gold.Protein.ActiveResidues>
 VAL166  LYS551  ARG553  GLY616  TRP617  ASP618  TYR619  PRO620  LYS621  CYS622 
 ASP623  PHE694  ASN695  SER759  ASP760  ASP761  ALA762  ILE779  LEU786  VAL792 
 PHE793  MET794  SER795  GLU796  ALA797  LYS798  CYS799  TRP800  GLU811  SER814 

> <Gold.Protein.RotatedAtoms>
  152.4114  134.6117  160.0027 H   0  0  0  0  0  0  0  0  0  0  0  0  # atno 6907 bound_to 6896
  151.6294  133.3327  159.3113 H   0  0  0  0  0  0  0  0  0  0  0  0  # atno 6908 bound_to 6896
  150.8005  134.7135  159.6662 H   0  0  0  0  0  0  0  0  0  0  0  0  # atno 6909 bound_to 6896
  145.9760  140.7333  142.9387 H   0  0  0  0  0  0  0  0  0  0  0  0  # atno 7974 bound_to 7965
  154.5356  140.0756  156.8422 H   0  0  0  0  0  0  0  0  0  0  0  0  # atno 8008 bound_to 7997
  155.3284  140.3400  155.4222 H   0  0  0  0  0  0  0  0  0  0  0  0  # atno 8009 bound_to 7997
  156.1825  140.1657  156.8234 H   0  0  0  0  0  0  0  0  0  0  0  0  # atno 8010 bound_to 7997
  139.6951  144.7102  151.1281 H   0  0  0  0  0  0  0  0  0  0  0  0  # atno 10167 bound_to 10162
  156.0135  130.5283  150.6673 H   0  0  0  0  0  0  0  0  0  0  0  0  # atno 10718 bound_to 10713
  152.9810  135.5728  154.4985 H   0  0  0  0  0  0  0  0  0  0  0  0  # atno 10763 bound_to 10752
  154.4508  135.2778  155.1784 H   0  0  0  0  0  0  0  0  0  0  0  0  # atno 10764 bound_to 10752
  154.3413  135.6229  153.5651 H   0  0  0  0  0  0  0  0  0  0  0  0  # atno 10765 bound_to 10752
  140.7664  134.3240  157.5087 H   0  0  0  0  0  0  0  0  0  0  0  0  # atno 11005 bound_to 11000
  144.6849  140.2829  143.7289 LP  0  0  0  0  0  0  0  0  0  0  0  0  # atno 17320 bound_to 7965
  145.7838  139.1901  143.2142 LP  0  0  0  0  0  0  0  0  0  0  0  0  # atno 17321 bound_to 7965
  140.7694  143.5503  150.9212 LP  0  0  0  0  0  0  0  0  0  0  0  0  # atno 17342 bound_to 10162
  139.9183  143.6637  152.3102 LP  0  0  0  0  0  0  0  0  0  0  0  0  # atno 17343 bound_to 10162
  157.4403  131.0860  151.0950 LP  0  0  0  0  0  0  0  0  0  0  0  0  # atno 17370 bound_to 10713
  157.1496  130.6178  149.5578 LP  0  0  0  0  0  0  0  0  0  0  0  0  # atno 17371 bound_to 10713
  139.8762  134.9234  156.3323 LP  0  0  0  0  0  0  0  0  0  0  0  0  # atno 17394 bound_to 11000
  140.9615  133.7385  156.0408 LP  0  0  0  0  0  0  0  0  0  0  0  0  # atno 17395 bound_to 11000

$$$$
