AV-unprocessed.smi:412|AV-procd|sdf|2510|dock4
  -GOLD-   2262022463D 1   1.00000     0.00000
 Structure written by MMmdl.
 36 38  0  0  0  0  0  0  0  0  1 V2000
  153.6699  140.7857  160.2399 C   0  0  0  0  0  0  0  0  0  0  0  0
  152.8276  141.5070  159.2935 N   0  0  0  0  0  0  0  0  0  0  0  0
  152.3924  141.0684  158.0887 C   0  0  0  0  0  0  0  0  0  0  0  0
  152.6367  139.9719  157.5859 O   0  0  0  0  0  0  0  0  0  0  0  0
  151.6398  142.0479  157.5339 N   0  0  0  0  0  0  0  0  0  0  0  0
  150.9611  141.9982  156.2407 C   0  0  0  0  0  0  0  0  0  0  0  0
  150.5948  140.5559  155.8381 C   0  0  2  0  0  0  0  0  0  0  0  0
  151.7146  139.9600  155.2133 O   0  0  0  0  0  0  0  0  0  0  0  0
  149.3773  140.5413  154.9262 C   0  0  0  0  0  0  0  0  0  0  0  0
  148.9065  139.3189  154.4005 C   0  0  0  0  0  0  0  0  0  0  0  0
  147.7734  139.2949  153.5640 C   0  0  0  0  0  0  0  0  0  0  0  0
  147.1031  140.4930  153.2505 C   0  0  0  0  0  0  0  0  0  0  0  0
  147.5645  141.7150  153.7763 C   0  0  0  0  0  0  0  0  0  0  0  0
  148.6972  141.7393  154.6129 C   0  0  0  0  0  0  0  0  0  0  0  0
  151.5859  143.1396  158.4124 C   0  0  0  0  0  0  0  0  0  0  0  0
  150.9340  144.3809  158.3087 C   0  0  0  0  0  0  0  0  0  0  0  0
  151.0799  145.2794  159.3917 C   0  0  0  0  0  0  0  0  0  0  0  0
  151.8547  144.9291  160.5282 C   0  0  0  0  0  0  0  0  0  0  0  0
  152.4989  143.6721  160.6069 C   0  0  0  0  0  0  0  0  0  0  0  0
  152.3357  142.7989  159.5179 C   0  0  0  0  0  0  0  0  0  0  0  0
  153.8951  139.7738  159.9008 H   0  0  0  0  0  0  0  0  0  0  0  0
  153.1724  140.7121  161.2072 H   0  0  0  0  0  0  0  0  0  0  0  0
  154.6142  141.3127  160.3797 H   0  0  0  0  0  0  0  0  0  0  0  0
  150.0501  142.5907  156.3370 H   0  0  0  0  0  0  0  0  0  0  0  0
  151.5490  142.4873  155.4619 H   0  0  0  0  0  0  0  0  0  0  0  0
  150.3629  139.9689  156.7282 H   0  0  0  0  0  0  0  0  0  0  0  0
  152.2539  139.5633  155.8801 H   0  0  0  0  0  0  0  0  0  0  0  0
  149.4111  138.3941  154.6390 H   0  0  0  0  0  0  0  0  0  0  0  0
  147.4173  138.3570  153.1640 H   0  0  0  0  0  0  0  0  0  0  0  0
  146.2342  140.4743  152.6090 H   0  0  0  0  0  0  0  0  0  0  0  0
  147.0487  142.6339  153.5395 H   0  0  0  0  0  0  0  0  0  0  0  0
  149.0405  142.6809  155.0163 H   0  0  0  0  0  0  0  0  0  0  0  0
  150.3448  144.6408  157.4415 H   0  0  0  0  0  0  0  0  0  0  0  0
  150.5951  146.2438  159.3532 H   0  0  0  0  0  0  0  0  0  0  0  0
  151.9532  145.6304  161.3437 H   0  0  0  0  0  0  0  0  0  0  0  0
  153.0891  143.3969  161.4686 H   0  0  0  0  0  0  0  0  0  0  0  0
  1  2  1  0  0  0  0
  1 21  1  0  0  0  0
  1 22  1  0  0  0  0
  1 23  1  0  0  0  0
  2 20  1  0  0  0  0
  2  3  1  0  0  0  0
  3  4  2  0  0  0  0
  3  5  1  0  0  0  0
  5  6  1  0  0  0  0
  5 15  1  0  0  0  0
  6  7  1  0  0  0  0
  6 24  1  0  0  0  0
  6 25  1  0  0  0  0
  7  8  1  0  0  0  0
  7  9  1  0  0  0  0
  7 26  1  0  0  0  0
  8 27  1  0  0  0  0
  9 14  1  0  0  0  0
  9 10  2  0  0  0  0
 10 11  1  0  0  0  0
 10 28  1  0  0  0  0
 11 12  2  0  0  0  0
 11 29  1  0  0  0  0
 12 13  1  0  0  0  0
 12 30  1  0  0  0  0
 13 14  2  0  0  0  0
 13 31  1  0  0  0  0
 14 32  1  0  0  0  0
 15 20  2  0  0  0  0
 15 16  1  0  0  0  0
 16 17  2  0  0  0  0
 16 33  1  0  0  0  0
 17 18  1  0  0  0  0
 17 34  1  0  0  0  0
 18 19  2  0  0  0  0
 18 35  1  0  0  0  0
 19 20  1  0  0  0  0
 19 36  1  0  0  0  0
M  END
> <s_m_source_file>
AV-unprocessed.smi

> <i_m_source_file_index>
412

> <i_lp_mmshare_version>
43012

> <i_f3d_flags>
0

> <s_epik_input>
W2NIXTFbY0hdW2NIXVtjSF1jKGMxMiluKFtDSDNdKWMoPU8pbjJbQ0gyXVtDQEhdKFtPSF0pYzNbY0hdW2NIXVtjSF1bY0hdW2NIXTM=

> <s_epik_cmdline>
J2VwaWtfcHl0aG9uJywgJy1waCcsICc3LjAnLCAnLXRuJywgJzgnLCAnLW1hJywgJzIwMCcsICctbWV0YWxfYmluZGluZycsICctaW1hZScsICc8aW5maWxlLm1hZT4nLCAnLW9tYWUnLCAnPG91dGZpbGUubWFlPic=

> <r_lp_tautomer_probability>
1

> <r_epik_Ionization_Penalty>
1.34619e-06

> <r_epik_Ionization_Penalty_Charging>
2.57375e-09

> <r_epik_Ionization_Penalty_Neutral>
1.34362e-06

> <r_epik_State_Penalty>
-0

> <r_epik_Charging_Adjusted_Penalty>
2.57375e-09

> <i_epik_Tot_Q>
0

> <i_epik_Tot_abs_Q>
0

> <r_epik_Metal_State_Penalty>
-0

> <b_epik_Metal_Only>
0

> <s_lp_Force_Field>
OPLS_2005

> <r_lp_Energy>
43.7895

> <b_lp_Chiralities_Consistent>
1

> <s_lp_Variant>
AV-unprocessed.smi:412-1

> <Gold.Version>
5.8.1

> <Gold.Id.Protein>
6NUR|6NUR_protein|mol2

> <Gold.PLP.Fitness>
54.7983

> <Gold.PLP.PLP>
-50.2062

> <Gold.PLP.part.hbond>
-2.0000

> <Gold.PLP.part.metal>
0.0000

> <Gold.PLP.part.buried>
-5.5786

> <Gold.PLP.part.nonpolar>
-41.9433

> <Gold.PLP.part.repulsive>
0.0000

> <Gold.PLP.ligand.clash>
0.0000

> <Gold.PLP.ligand.torsion>
0.6953

> <Gold.PLP.Chemscore.Hbond>
1.9920

> <Gold.PLP.Chemscore.CHOScore>
0.0000

> <Gold.PLP.Chemscore.Metal>
0.0000

> <Gold.Chemscore.Hbonds>
donor molecule, donor type, donor heavy atom, donor atom, acceptor molecule, acceptor atom, score
      P1  H  7989  7998       L1     8  0.98
      P1  H  7997  8008       L1     4  1.00

> <Gold.PLP.Chemscore.Internal.Correction>
0.0068

> <Gold.Rescore>
     Score         DG    S(hbond)    S(metal)    S(lipo)     H(rot)  DE(clash)    DE(int)     intcor
     19.06     -21.34       1.55        0.00     129.74       1.76       0.05       2.23       ----

> <Gold.Chemscore.Fitness>
19.0635

> <Gold.Chemscore.DG>
-21.3449

> <Gold.Chemscore.ZeroCoef>
-5.4800

> <Gold.Chemscore.Hbond>
1.5508

> <Gold.Chemscore.Metal>
0.0000

> <Gold.Chemscore.Lipo>
129.7383

> <Gold.Chemscore.Internal_Hbond>
0.0000

> <Gold.Chemscore.DEClash>
0.0494

> <Gold.Chemscore.DEInternal>
2.2319

> <Gold.Chemscore.Rot>
1.7555

> <Gold.Chemscore.Internal.Correction>
   9.000000E+99

> <Gold.Chemscore.Hbonds>
donor molecule, donor type, donor heavy atom, donor atom, acceptor molecule, acceptor atom, score
      P1  H  7989  7998       L1     8  0.24
      P1  H  7997  8008       L1     4  0.59

> <Gold.Chemscore.Hbond.Weighted>
-5.1797

> <Gold.Chemscore.Metal.Weighted>
-0.0000

> <Gold.Chemscore.Lipo.Weighted>
-15.1794

> <Gold.Chemscore.Internal_Hbond.Weighted>
0.0000

> <Gold.Chemscore.DEClash.Weighted>
0.0494

> <Gold.Chemscore.DEInternal.Weighted>
2.2319

> <Gold.Chemscore.Rot.Weighted>
4.4942

> <Gold.Chemscore.Internal.Correction.Weighted>
   9.000000E+99

> <Gold.Protein.RotatedTorsions>
[ 6907 6896 6895 6894 ] final  114.85 input  -60.11 | X-H torsion
[ 7974 7965 7964 7962 ] final -108.41 input  175.53 | X-H torsion
[ 8008 7997 7996 7995 ] final  -72.04 input   59.86 | X-H torsion
[ 10167 10162 10161 10158 ] final   37.92 input  -65.29 | X-H torsion
[ 10718 10713 10712 10709 ] final -153.52 input   66.30 | X-H torsion
[ 10763 10752 10751 10750 ] final  116.64 input  -60.55 | X-H torsion
[ 11005 11000 10999 10996 ] final  -30.29 input  -57.11 | X-H torsion

> <Gold.Protein.ActiveResidues>
 VAL166  LYS551  ARG553  GLY616  TRP617  ASP618  TYR619  PRO620  LYS621  CYS622 
 ASP623  PHE694  ASN695  SER759  ASP760  ASP761  ALA762  ILE779  LEU786  VAL792 
 PHE793  MET794  SER795  GLU796  ALA797  LYS798  CYS799  TRP800  GLU811  SER814 

> <Gold.Protein.RotatedAtoms>
  152.4778  133.8180  159.7038 H   0  0  0  0  0  0  0  0  0  0  0  0  # atno 6907 bound_to 6896
  150.8806  133.7368  159.2940 H   0  0  0  0  0  0  0  0  0  0  0  0  # atno 6908 bound_to 6896
  151.4873  135.1059  159.9846 H   0  0  0  0  0  0  0  0  0  0  0  0  # atno 6909 bound_to 6896
  145.1932  140.9024  143.3412 H   0  0  0  0  0  0  0  0  0  0  0  0  # atno 7974 bound_to 7965
  154.5135  140.0804  156.8035 H   0  0  0  0  0  0  0  0  0  0  0  0  # atno 8008 bound_to 7997
  155.3733  140.3424  155.4226 H   0  0  0  0  0  0  0  0  0  0  0  0  # atno 8009 bound_to 7997
  156.1600  140.1585  156.8615 H   0  0  0  0  0  0  0  0  0  0  0  0  # atno 8010 bound_to 7997
  140.3986  144.1754  150.6133 H   0  0  0  0  0  0  0  0  0  0  0  0  # atno 10167 bound_to 10162
  156.4869  130.8329  151.2554 H   0  0  0  0  0  0  0  0  0  0  0  0  # atno 10718 bound_to 10713
  153.5403  135.3560  155.2715 H   0  0  0  0  0  0  0  0  0  0  0  0  # atno 10763 bound_to 10752
  154.8718  135.4089  154.3051 H   0  0  0  0  0  0  0  0  0  0  0  0  # atno 10764 bound_to 10752
  153.3757  135.7066  153.6671 H   0  0  0  0  0  0  0  0  0  0  0  0  # atno 10765 bound_to 10752
  140.9370  133.7302  156.1019 H   0  0  0  0  0  0  0  0  0  0  0  0  # atno 11005 bound_to 11000
  145.0020  139.3589  143.6162 LP  0  0  0  0  0  0  0  0  0  0  0  0  # atno 17320 bound_to 7965
  146.3432  139.9247  142.8762 LP  0  0  0  0  0  0  0  0  0  0  0  0  # atno 17321 bound_to 7965
  140.4763  143.2394  151.9018 LP  0  0  0  0  0  0  0  0  0  0  0  0  # atno 17342 bound_to 10162
  139.4785  144.5316  151.8658 LP  0  0  0  0  0  0  0  0  0  0  0  0  # atno 17343 bound_to 10162
  157.7478  131.0026  150.3008 LP  0  0  0  0  0  0  0  0  0  0  0  0  # atno 17370 bound_to 10713
  156.3465  130.3824  149.7364 LP  0  0  0  0  0  0  0  0  0  0  0  0  # atno 17371 bound_to 10713
  140.7786  134.3751  157.5492 LP  0  0  0  0  0  0  0  0  0  0  0  0  # atno 17394 bound_to 11000
  139.8810  134.9067  156.2929 LP  0  0  0  0  0  0  0  0  0  0  0  0  # atno 17395 bound_to 11000

$$$$
