AV-unprocessed.smi:226|AV-procd|sdf|1726|dock5
  -GOLD-   2262020213D 1   1.00000     0.00000
 Structure written by MMmdl.
 54 58  0  0  0  0  0  0  0  0  1 V2000
  150.3625  139.8487  153.9771 O   0  0  0  0  0  0  0  0  0  0  0  0
  149.7598  139.4007  154.9524 C   0  0  0  0  0  0  0  0  0  0  0  0
  150.2347  138.3908  155.7002 N   0  0  0  0  0  0  0  0  0  0  0  0
  151.4676  137.7052  155.4938 C   0  0  0  0  0  0  0  0  0  0  0  0
  152.6439  138.1051  156.3578 C   0  0  0  0  0  0  0  0  0  0  0  0
  152.6159  138.4960  154.9058 C   0  0  0  0  0  0  0  0  0  0  0  0
  148.4069  140.0279  155.3543 C   0  0  1  0  0  0  0  0  0  0  0  0
  148.4855  141.5627  155.4274 C   0  0  0  0  0  0  0  0  0  0  0  0
  148.0744  142.0258  154.0308 C   0  0  0  0  0  0  0  0  0  0  0  0
  147.0189  140.9990  153.6188 C   0  0  0  0  0  0  0  0  0  0  0  0
  147.3289  139.7993  154.3848 N   0  0  0  0  0  0  0  0  0  0  0  0
  146.6072  138.6471  154.3073 C   0  0  0  0  0  0  0  0  0  0  0  0
  146.1550  138.0925  155.4631 N   0  0  0  0  0  0  0  0  0  0  0  0
  145.4513  136.9583  155.4479 C   0  0  0  0  0  0  0  0  0  0  0  0
  145.0935  136.2154  154.4010 N   0  0  0  0  0  0  0  0  0  0  0  0
  145.5433  136.7572  153.2337 C   0  0  0  0  0  0  0  0  0  0  0  0
  146.2931  137.9621  153.0943 C   0  0  0  0  0  0  0  0  0  0  0  0
  146.5491  138.1914  151.7462 N   0  0  0  0  0  0  0  0  0  0  0  0
  145.9832  137.1906  151.1303 C   0  0  0  0  0  0  0  0  0  0  0  0
  145.3846  136.2629  151.9503 N   0  0  0  0  0  0  0  0  0  0  0  0
  144.6641  135.0931  151.5388 C   0  0  0  0  0  0  0  0  0  0  0  0
  144.7439  133.7920  152.3428 C   0  0  0  0  0  0  0  0  0  0  0  0
  144.7024  132.9661  151.0383 C   0  0  0  0  0  0  0  0  0  0  0  0
  145.7425  131.8390  150.9470 C   0  0  0  0  0  0  0  0  0  0  0  0
  147.0290  132.2933  151.3155 O   0  0  0  0  0  0  0  0  0  0  0  0
  143.3408  132.3609  150.6297 C   0  0  0  0  0  0  0  0  0  0  0  0
  143.2874  131.9677  149.2737 O   0  0  0  0  0  0  0  0  0  0  0  0
  145.1127  134.2736  150.3242 C   0  0  0  0  0  0  0  0  0  0  0  0
  149.6753  138.0902  156.4851 H   0  0  0  0  0  0  0  0  0  0  0  0
  151.4163  136.6536  155.2152 H   0  0  0  0  0  0  0  0  0  0  0  0
  152.4904  138.8921  157.0940 H   0  0  0  0  0  0  0  0  0  0  0  0
  153.3383  137.3209  156.6532 H   0  0  0  0  0  0  0  0  0  0  0  0
  153.2904  137.9730  154.2310 H   0  0  0  0  0  0  0  0  0  0  0  0
  152.4417  139.5442  154.6692 H   0  0  0  0  0  0  0  0  0  0  0  0
  148.1330  139.6418  156.3373 H   0  0  0  0  0  0  0  0  0  0  0  0
  147.7653  141.9302  156.1598 H   0  0  0  0  0  0  0  0  0  0  0  0
  149.4657  141.9413  155.7204 H   0  0  0  0  0  0  0  0  0  0  0  0
  147.7007  143.0499  154.0122 H   0  0  0  0  0  0  0  0  0  0  0  0
  148.9314  141.9678  153.3583 H   0  0  0  0  0  0  0  0  0  0  0  0
  146.0200  141.3489  153.8832 H   0  0  0  0  0  0  0  0  0  0  0  0
  147.0534  140.8163  152.5445 H   0  0  0  0  0  0  0  0  0  0  0  0
  145.1322  136.5930  156.4129 H   0  0  0  0  0  0  0  0  0  0  0  0
  145.9954  137.0983  150.0539 H   0  0  0  0  0  0  0  0  0  0  0  0
  143.6268  135.4107  151.4270 H   0  0  0  0  0  0  0  0  0  0  0  0
  145.6911  133.6940  152.8760 H   0  0  0  0  0  0  0  0  0  0  0  0
  143.9010  133.6287  153.0152 H   0  0  0  0  0  0  0  0  0  0  0  0
  145.4691  130.9966  151.5833 H   0  0  0  0  0  0  0  0  0  0  0  0
  145.8076  131.4492  149.9306 H   0  0  0  0  0  0  0  0  0  0  0  0
  147.6690  131.8449  150.7836 H   0  0  0  0  0  0  0  0  0  0  0  0
  143.1102  131.4847  151.2365 H   0  0  0  0  0  0  0  0  0  0  0  0
  142.5321  133.0739  150.7925 H   0  0  0  0  0  0  0  0  0  0  0  0
  143.1405  132.7364  148.7439 H   0  0  0  0  0  0  0  0  0  0  0  0
  144.5608  134.4900  149.4088 H   0  0  0  0  0  0  0  0  0  0  0  0
  146.1883  134.3423  150.1524 H   0  0  0  0  0  0  0  0  0  0  0  0
  1  2  2  0  0  0  0
  2  3  1  0  0  0  0
  2  7  1  0  0  0  0
  3  4  1  0  0  0  0
  3 29  1  0  0  0  0
  4  6  1  0  0  0  0
  4  5  1  0  0  0  0
  4 30  1  0  0  0  0
  5  6  1  0  0  0  0
  5 31  1  0  0  0  0
  5 32  1  0  0  0  0
  6 33  1  0  0  0  0
  6 34  1  0  0  0  0
  7 11  1  0  0  0  0
  7  8  1  0  0  0  0
  7 35  1  0  0  0  0
  8  9  1  0  0  0  0
  8 36  1  0  0  0  0
  8 37  1  0  0  0  0
  9 10  1  0  0  0  0
  9 38  1  0  0  0  0
  9 39  1  0  0  0  0
 10 11  1  0  0  0  0
 10 40  1  0  0  0  0
 10 41  1  0  0  0  0
 11 12  1  0  0  0  0
 12 17  1  0  0  0  0
 12 13  2  0  0  0  0
 13 14  1  0  0  0  0
 14 15  2  0  0  0  0
 14 42  1  0  0  0  0
 15 16  1  0  0  0  0
 16 20  1  0  0  0  0
 16 17  2  0  0  0  0
 17 18  1  0  0  0  0
 18 19  2  0  0  0  0
 19 20  1  0  0  0  0
 19 43  1  0  0  0  0
 20 21  1  0  0  0  0
 21 28  1  0  0  0  0
 21 22  1  0  0  0  0
 21 44  1  0  0  0  0
 22 23  1  0  0  0  0
 22 45  1  0  0  0  0
 22 46  1  0  0  0  0
 23 24  1  0  0  0  0
 23 26  1  0  0  0  0
 23 28  1  0  0  0  0
 24 25  1  0  0  0  0
 24 47  1  0  0  0  0
 24 48  1  0  0  0  0
 25 49  1  0  0  0  0
 26 27  1  0  0  0  0
 26 50  1  0  0  0  0
 26 51  1  0  0  0  0
 27 52  1  0  0  0  0
 28 53  1  0  0  0  0
 28 54  1  0  0  0  0
M  END
> <s_m_source_file>
AV-unprocessed.smi

> <i_m_source_file_index>
226

> <i_lp_mmshare_version>
43012

> <i_f3d_flags>
0

> <s_epik_input>
W0NIMl0xW0NIMl1bQ0hdMVtOSF1DKD1PKVtDQEBIXTJbQ0gyXVtDSDJdW0NIMl1OMmMobltjSF1uMyljKGMzNCluW2NIXW40W0NIXShbQ0gyXTUpW0NIMl1DNShbQ0gyXVtPSF0pW0NIMl1bT0hd

> <s_epik_cmdline>
J2VwaWtfcHl0aG9uJywgJy1waCcsICc3LjAnLCAnLXRuJywgJzgnLCAnLW1hJywgJzIwMCcsICctbWV0YWxfYmluZGluZycsICctaW1hZScsICc8aW5maWxlLm1hZT4nLCAnLW9tYWUnLCAnPG91dGZpbGUubWFlPic=

> <r_lp_tautomer_probability>
1

> <r_epik_Ionization_Penalty>
0.000818715

> <r_epik_Ionization_Penalty_Charging>
0

> <r_epik_Ionization_Penalty_Neutral>
0.000818715

> <r_epik_State_Penalty>
0.000426447

> <r_epik_Charging_Adjusted_Penalty>
0.000426447

> <i_epik_Tot_Q>
0

> <i_epik_Tot_abs_Q>
0

> <r_epik_Metal_State_Penalty>
-0

> <b_epik_Metal_Only>
0

> <s_lp_Force_Field>
OPLS_2005

> <r_lp_Energy>
62.928

> <b_lp_Chiralities_Consistent>
1

> <s_lp_Variant>
AV-unprocessed.smi:226-2

> <Gold.Version>
5.8.1

> <Gold.Id.Protein>
6NUR|6NUR_protein|mol2

> <Gold.PLP.Fitness>
46.3988

> <Gold.PLP.PLP>
-40.1010

> <Gold.PLP.part.hbond>
-4.1460

> <Gold.PLP.part.metal>
0.0000

> <Gold.PLP.part.buried>
-2.2763

> <Gold.PLP.part.nonpolar>
-36.3770

> <Gold.PLP.part.repulsive>
2.3449

> <Gold.PLP.ligand.clash>
0.0000

> <Gold.PLP.ligand.torsion>
2.1308

> <Gold.PLP.Chemscore.Hbond>
3.0000

> <Gold.PLP.Chemscore.CHOScore>
0.3300

> <Gold.PLP.Chemscore.Metal>
0.0000

> <Gold.Chemscore.Hbonds>
donor molecule, donor type, donor heavy atom, donor atom, acceptor molecule, acceptor atom, score
      L1  H    25    49       P1 10747  1.00
      P1  H  7989  7998       L1     1  1.00
      P1  H 10785 10796       L1    27  1.00
      L1  C    19    43       P1 10171  0.22

> <Gold.PLP.Chemscore.Internal.Correction>
0.5695

> <Gold.Rescore>
     Score         DG    S(hbond)    S(metal)    S(lipo)     H(rot)  DE(clash)    DE(int)     intcor
     11.28     -16.30       2.91        0.00      86.54       3.52       2.19       2.83       ----

> <Gold.Chemscore.Fitness>
11.2780

> <Gold.Chemscore.DG>
-16.3035

> <Gold.Chemscore.ZeroCoef>
-5.4800

> <Gold.Chemscore.Hbond>
2.9103

> <Gold.Chemscore.Metal>
0.0000

> <Gold.Chemscore.Lipo>
86.5444

> <Gold.Chemscore.Internal_Hbond>
0.0000

> <Gold.Chemscore.DEClash>
2.1929

> <Gold.Chemscore.DEInternal>
2.8326

> <Gold.Chemscore.Rot>
3.5244

> <Gold.Chemscore.Internal.Correction>
   9.000000E+99

> <Gold.Chemscore.Hbonds>
donor molecule, donor type, donor heavy atom, donor atom, acceptor molecule, acceptor atom, score
      L1  H    25    49       P1 10747  1.00
      P1  H  7989  7998       L1     1  0.97
      P1  H 10785 10796       L1    27  0.97

> <Gold.Chemscore.Hbond.Weighted>
-9.7204

> <Gold.Chemscore.Metal.Weighted>
-0.0000

> <Gold.Chemscore.Lipo.Weighted>
-10.1257

> <Gold.Chemscore.Internal_Hbond.Weighted>
0.0000

> <Gold.Chemscore.DEClash.Weighted>
2.1929

> <Gold.Chemscore.DEInternal.Weighted>
2.8326

> <Gold.Chemscore.Rot.Weighted>
9.0225

> <Gold.Chemscore.Internal.Correction.Weighted>
   9.000000E+99

> <Gold.Protein.RotatedTorsions>
[ 6907 6896 6895 6894 ] final   -3.93 input  -60.11 | X-H torsion
[ 7974 7965 7964 7962 ] final   47.61 input  175.53 | X-H torsion
[ 8008 7997 7996 7995 ] final -173.54 input   59.86 | X-H torsion
[ 10167 10162 10161 10158 ] final  100.85 input  -65.29 | X-H torsion
[ 10718 10713 10712 10709 ] final   -4.90 input   66.30 | X-H torsion
[ 10763 10752 10751 10750 ] final  165.82 input  -60.55 | X-H torsion
[ 11005 11000 10999 10996 ] final -118.44 input  -57.11 | X-H torsion

> <Gold.Protein.ActiveResidues>
 VAL166  LYS551  ARG553  GLY616  TRP617  ASP618  TYR619  PRO620  LYS621  CYS622 
 ASP623  PHE694  ASN695  SER759  ASP760  ASP761  ALA762  ILE779  LEU786  VAL792 
 PHE793  MET794  SER795  GLU796  ALA797  LYS798  CYS799  TRP800  GLU811  SER814 

> <Gold.Protein.RotatedAtoms>
  151.5058  135.1063  159.9840 H   0  0  0  0  0  0  0  0  0  0  0  0  # atno 6907 bound_to 6896
  152.4682  133.7967  159.6941 H   0  0  0  0  0  0  0  0  0  0  0  0  # atno 6908 bound_to 6896
  150.8677  133.7487  159.2997 H   0  0  0  0  0  0  0  0  0  0  0  0  # atno 6909 bound_to 6896
  146.0281  139.4731  142.9855 H   0  0  0  0  0  0  0  0  0  0  0  0  # atno 7974 bound_to 7965
  155.9588  140.1140  157.0914 H   0  0  0  0  0  0  0  0  0  0  0  0  # atno 8008 bound_to 7997
  154.4127  140.1186  156.5217 H   0  0  0  0  0  0  0  0  0  0  0  0  # atno 8009 bound_to 7997
  155.6748  140.3473  155.4834 H   0  0  0  0  0  0  0  0  0  0  0  0  # atno 8010 bound_to 7997
  139.7490  144.6989  151.0460 H   0  0  0  0  0  0  0  0  0  0  0  0  # atno 10167 bound_to 10162
  156.7546  130.5250  149.5797 H   0  0  0  0  0  0  0  0  0  0  0  0  # atno 10718 bound_to 10713
  154.3297  135.2755  155.2478 H   0  0  0  0  0  0  0  0  0  0  0  0  # atno 10763 bound_to 10752
  154.4795  135.5862  153.6382 H   0  0  0  0  0  0  0  0  0  0  0  0  # atno 10764 bound_to 10752
  152.9868  135.6108  154.3489 H   0  0  0  0  0  0  0  0  0  0  0  0  # atno 10765 bound_to 10752
  141.0286  134.0016  157.3177 H   0  0  0  0  0  0  0  0  0  0  0  0  # atno 11005 bound_to 11000
  145.7084  141.0114  143.1466 LP  0  0  0  0  0  0  0  0  0  0  0  0  # atno 17320 bound_to 7965
  144.7018  139.8728  143.7442 LP  0  0  0  0  0  0  0  0  0  0  0  0  # atno 17321 bound_to 7965
  140.7795  143.4831  150.9991 LP  0  0  0  0  0  0  0  0  0  0  0  0  # atno 17342 bound_to 10162
  139.8519  143.7427  152.3177 LP  0  0  0  0  0  0  0  0  0  0  0  0  # atno 17343 bound_to 10162
  156.1379  130.6224  151.0426 LP  0  0  0  0  0  0  0  0  0  0  0  0  # atno 17370 bound_to 10713
  157.6762  131.0850  150.7488 LP  0  0  0  0  0  0  0  0  0  0  0  0  # atno 17371 bound_to 10713
  139.9192  135.0199  156.8001 LP  0  0  0  0  0  0  0  0  0  0  0  0  # atno 17394 bound_to 11000
  140.6447  133.9786  155.7725 LP  0  0  0  0  0  0  0  0  0  0  0  0  # atno 17395 bound_to 11000

$$$$
