AV-unprocessed.smi:21|AV-procd|sdf|150|dock4
  -GOLD-   2262015373D 1   1.00000     0.00000
 Structure written by MMmdl.
 62 65  0  0  0  0  0  0  0  0  2 V2000
  153.6514  140.0295  161.2332 C   0  0  0  0  0  0  0  0  0  0  0  0
  153.6276  141.3556  160.7294 O   0  0  0  0  0  0  0  0  0  0  0  0
  152.3175  141.8662  160.5183 C   0  0  2  0  0  0  0  0  0  0  0  0
  151.7421  141.2331  159.2586 C   0  0  0  0  0  0  0  0  0  0  0  0
  152.3629  142.0523  158.1209 C   0  0  1  0  0  0  0  0  0  0  0  0
  151.5906  141.9689  156.7811 C   0  0  0  0  0  0  0  0  0  0  0  0
  150.8215  140.7288  156.6531 N   0  0  0  0  0  0  0  0  0  0  0  0
  149.3692  140.8226  156.5725 C   0  0  0  0  0  0  0  0  0  0  0  0
  151.4475  139.5849  156.2584 C   0  0  0  0  0  0  0  0  0  0  0  0
  152.7994  139.6130  156.1180 N   0  0  0  0  0  0  0  0  0  0  0  0
  153.4703  138.5247  155.7329 C   0  0  0  0  0  0  0  0  0  0  0  0
  152.9943  137.3166  155.4330 N   0  0  0  0  0  0  0  0  0  0  0  0
  151.6384  137.2741  155.5634 C   0  0  0  0  0  0  0  0  0  0  0  0
  150.7925  138.3485  155.9676 C   0  0  0  0  0  0  0  0  0  0  0  0
  149.4688  137.9188  155.9631 N   0  0  0  0  0  0  0  0  0  0  0  0
  149.5301  136.6704  155.5905 C   0  0  0  0  0  0  0  0  0  0  0  0
  150.7964  136.1994  155.3370 N   0  0  0  0  0  0  0  0  0  0  0  0
  151.1490  134.8571  154.9070 C   0  0  0  0  0  0  0  0  0  0  0  0
  151.1143  133.8171  156.0538 C   0  0  1  0  0  0  0  0  0  0  0  0
  149.6829  133.6947  156.6268 C   0  0  0  0  0  0  0  0  0  0  0  0
  149.7106  133.6922  158.0390 O   0  0  0  0  0  0  0  0  0  0  0  0
  151.7350  132.4527  155.6411 C   0  0  1  0  0  0  0  0  0  0  0  0
  152.0456  131.4924  156.7904 C   0  0  0  0  0  0  0  0  0  0  0  0
  151.4985  130.1457  156.3141 C   0  0  0  0  0  0  0  0  0  0  0  0
  151.3822  130.2883  154.9074 O   0  0  0  0  0  0  0  0  0  0  0  0
  150.9065  131.6022  154.6712 C   0  0  0  0  0  0  0  0  0  0  0  0
  152.5580  143.4225  158.6780 N   0  3  1  0  0  0  0  0  0  0  0  0
  151.8055  144.5321  158.0456 C   0  0  0  0  0  0  0  0  0  0  0  0
  152.3591  143.3530  160.1463 C   0  0  0  0  0  0  0  0  0  0  0  0
  151.6800  141.6666  161.3814 H   0  0  0  0  0  0  0  0  0  0  0  0
  153.3717  141.6715  157.9548 H   0  0  0  0  0  0  0  0  0  0  0  0
  154.6851  139.7138  161.3746 H   0  0  0  0  0  0  0  0  0  0  0  0
  153.1839  139.3358  160.5335 H   0  0  0  0  0  0  0  0  0  0  0  0
  153.1439  139.9501  162.1946 H   0  0  0  0  0  0  0  0  0  0  0  0
  151.9586  140.1666  159.1844 H   0  0  0  0  0  0  0  0  0  0  0  0
  150.6577  141.3533  159.2553 H   0  0  0  0  0  0  0  0  0  0  0  0
  150.9580  142.8457  156.6465 H   0  0  0  0  0  0  0  0  0  0  0  0
  152.2985  141.9893  155.9523 H   0  0  0  0  0  0  0  0  0  0  0  0
  148.8971  139.9203  156.9629 H   0  0  0  0  0  0  0  0  0  0  0  0
  149.0484  140.9709  155.5411 H   0  0  0  0  0  0  0  0  0  0  0  0
  149.0051  141.6645  157.1616 H   0  0  0  0  0  0  0  0  0  0  0  0
  154.5416  138.6380  155.6543 H   0  0  0  0  0  0  0  0  0  0  0  0
  148.6487  136.0533  155.4918 H   0  0  0  0  0  0  0  0  0  0  0  0
  150.4554  134.5743  154.1144 H   0  0  0  0  0  0  0  0  0  0  0  0
  152.1396  134.8816  154.4516 H   0  0  0  0  0  0  0  0  0  0  0  0
  151.7473  134.2020  156.8553 H   0  0  0  0  0  0  0  0  0  0  0  0
  149.0531  134.5190  156.2920 H   0  0  0  0  0  0  0  0  0  0  0  0
  149.1972  132.7742  156.3061 H   0  0  0  0  0  0  0  0  0  0  0  0
  148.9181  134.0980  158.3563 H   0  0  0  0  0  0  0  0  0  0  0  0
  152.6938  132.6366  155.1556 H   0  0  0  0  0  0  0  0  0  0  0  0
  153.1241  131.4344  156.9432 H   0  0  0  0  0  0  0  0  0  0  0  0
  151.6039  131.7836  157.7430 H   0  0  0  0  0  0  0  0  0  0  0  0
  152.1460  129.3100  156.5804 H   0  0  0  0  0  0  0  0  0  0  0  0
  150.5104  129.9609  156.7386 H   0  0  0  0  0  0  0  0  0  0  0  0
  149.8403  131.6348  154.8950 H   0  0  0  0  0  0  0  0  0  0  0  0
  151.0448  131.8947  153.6305 H   0  0  0  0  0  0  0  0  0  0  0  0
  150.7287  144.3700  158.1095 H   0  0  0  0  0  0  0  0  0  0  0  0
  152.0821  144.6532  156.9985 H   0  0  0  0  0  0  0  0  0  0  0  0
  152.0335  145.4723  158.5488 H   0  0  0  0  0  0  0  0  0  0  0  0
  151.3983  143.8009  160.4061 H   0  0  0  0  0  0  0  0  0  0  0  0
  153.1291  143.9137  160.6756 H   0  0  0  0  0  0  0  0  0  0  0  0
  153.5355  143.6323  158.5334 H   0  0  0  0  0  0  0  0  0  0  0  0
  1  2  1  0  0  0  0
  1 32  1  0  0  0  0
  1 33  1  0  0  0  0
  1 34  1  0  0  0  0
  2  3  1  0  0  0  0
  3 30  1  0  0  0  0
  3 29  1  0  0  0  0
  3  4  1  0  0  0  0
  4  5  1  0  0  0  0
  4 35  1  0  0  0  0
  4 36  1  0  0  0  0
  5 31  1  0  0  0  0
  5  6  1  0  0  0  0
  5 27  1  0  0  0  0
  6  7  1  0  0  0  0
  6 37  1  0  0  0  0
  6 38  1  0  0  0  0
  7  8  1  0  0  0  0
  7  9  1  0  0  0  0
  8 39  1  0  0  0  0
  8 40  1  0  0  0  0
  8 41  1  0  0  0  0
  9 14  1  0  0  0  0
  9 10  2  0  0  0  0
 10 11  1  0  0  0  0
 11 12  2  0  0  0  0
 11 42  1  0  0  0  0
 12 13  1  0  0  0  0
 13 17  1  0  0  0  0
 13 14  2  0  0  0  0
 14 15  1  0  0  0  0
 15 16  2  0  0  0  0
 16 17  1  0  0  0  0
 16 43  1  0  0  0  0
 17 18  1  0  0  0  0
 18 19  1  0  0  0  0
 18 44  1  0  0  0  0
 18 45  1  0  0  0  0
 19 20  1  0  0  0  0
 19 22  1  0  0  0  0
 19 46  1  0  0  0  0
 20 21  1  0  0  0  0
 20 47  1  0  0  0  0
 20 48  1  0  0  0  0
 21 49  1  0  0  0  0
 22 26  1  0  0  0  0
 22 23  1  0  0  0  0
 22 50  1  0  0  0  0
 23 24  1  0  0  0  0
 23 51  1  0  0  0  0
 23 52  1  0  0  0  0
 24 25  1  0  0  0  0
 24 53  1  0  0  0  0
 24 54  1  0  0  0  0
 25 26  1  0  0  0  0
 26 55  1  0  0  0  0
 26 56  1  0  0  0  0
 27 28  1  0  0  0  0
 27 29  1  0  0  0  0
 27 62  1  0  0  0  0
 28 57  1  0  0  0  0
 28 58  1  0  0  0  0
 28 59  1  0  0  0  0
 29 60  1  0  0  0  0
 29 61  1  0  0  0  0
M  CHG  1  27   1
M  END
> <s_m_source_file>
AV-unprocessed.smi

> <i_m_source_file_index>
21

> <i_lp_mmshare_version>
43012

> <i_f3d_flags>
0

> <s_epik_input>
W0NIM11PW0NASF0xW0NIMl1bQ0BIXShOKFtDSDNdKVtDSDJdMSlbQ0gyXU4oW0NIM10pYyhuW2NIXW4yKWMoYzIzKW5bY0hdbjNbQ0gyXVtDQEhdKFtDSDJdW09IXSlbQ0BASF00W0NIMl1bQ0gyXU9bQ0gyXTQ=

> <s_epik_cmdline>
J2VwaWtfcHl0aG9uJywgJy1waCcsICc3LjAnLCAnLXRuJywgJzgnLCAnLW1hJywgJzIwMCcsICctbWV0YWxfYmluZGluZycsICctaW1hZScsICc8aW5maWxlLm1hZT4nLCAnLW9tYWUnLCAnPG91dGZpbGUubWFlPic=

> <r_lp_tautomer_probability>
1

> <r_epik_Ionization_Penalty>
0.0157465

> <r_epik_Ionization_Penalty_Charging>
0.015354

> <r_epik_Ionization_Penalty_Neutral>
0.000392529

> <r_epik_State_Penalty>
0.0120612

> <r_epik_Charging_Adjusted_Penalty>
0.0274152

> <i_epik_Tot_Q>
1

> <i_epik_Tot_abs_Q>
1

> <r_epik_Metal_State_Penalty>
0.0121253

> <b_epik_Metal_Only>
0

> <s_lp_Force_Field>
OPLS_2005

> <r_lp_Energy>
62.4591

> <b_lp_Chiralities_Consistent>
1

> <s_lp_Variant>
AV-unprocessed.smi:21-30

> <Gold.Version>
5.8.1

> <Gold.Id.Protein>
6NUR|6NUR_protein|mol2

> <Gold.PLP.Fitness>
46.7509

> <Gold.PLP.PLP>
-44.0556

> <Gold.PLP.part.hbond>
-2.0955

> <Gold.PLP.part.metal>
0.0000

> <Gold.PLP.part.buried>
-9.2801

> <Gold.PLP.part.nonpolar>
-33.0804

> <Gold.PLP.part.repulsive>
0.1637

> <Gold.PLP.ligand.clash>
0.0000

> <Gold.PLP.ligand.torsion>
1.6385

> <Gold.PLP.Chemscore.Hbond>
1.7436

> <Gold.PLP.Chemscore.CHOScore>
0.0000

> <Gold.PLP.Chemscore.Metal>
0.0000

> <Gold.Chemscore.Hbonds>
donor molecule, donor type, donor heavy atom, donor atom, acceptor molecule, acceptor atom, score
      P1  H  6896  6908       L1    21  1.00
      P1  H  7997  8010       L1    10  0.02
      P1  H 10752 10765       L1    12  0.17

> <Gold.PLP.Chemscore.Internal.Correction>
0.7414

> <Gold.Rescore>
     Score         DG    S(hbond)    S(metal)    S(lipo)     H(rot)  DE(clash)    DE(int)     intcor
     12.72     -15.95       1.84        0.00     104.12       3.08       0.01       3.22       ----

> <Gold.Chemscore.Fitness>
12.7226

> <Gold.Chemscore.DG>
-15.9460

> <Gold.Chemscore.ZeroCoef>
-5.4800

> <Gold.Chemscore.Hbond>
1.8438

> <Gold.Chemscore.Metal>
0.0000

> <Gold.Chemscore.Lipo>
104.1177

> <Gold.Chemscore.Internal_Hbond>
0.0000

> <Gold.Chemscore.DEClash>
0.0060

> <Gold.Chemscore.DEInternal>
3.2174

> <Gold.Chemscore.Rot>
3.0758

> <Gold.Chemscore.Internal.Correction>
   9.000000E+99

> <Gold.Chemscore.Hbonds>
donor molecule, donor type, donor heavy atom, donor atom, acceptor molecule, acceptor atom, score
      P1  H  6896  6908       L1    21  0.39
      P1  H 10752 10765       L1    12  0.01

> <Gold.Chemscore.Hbond.Weighted>
-6.1583

> <Gold.Chemscore.Metal.Weighted>
-0.0000

> <Gold.Chemscore.Lipo.Weighted>
-12.1818

> <Gold.Chemscore.Internal_Hbond.Weighted>
0.0000

> <Gold.Chemscore.DEClash.Weighted>
0.0060

> <Gold.Chemscore.DEInternal.Weighted>
3.2174

> <Gold.Chemscore.Rot.Weighted>
7.8741

> <Gold.Chemscore.Internal.Correction.Weighted>
   9.000000E+99

> <Gold.Protein.RotatedTorsions>
[ 6907 6896 6895 6894 ] final  126.63 input  -60.11 | X-H torsion
[ 7974 7965 7964 7962 ] final  130.46 input  175.53 | X-H torsion
[ 8008 7997 7996 7995 ] final   34.45 input   59.86 | X-H torsion
[ 10167 10162 10161 10158 ] final  154.13 input  -65.29 | X-H torsion
[ 10718 10713 10712 10709 ] final  -94.59 input   66.30 | X-H torsion
[ 10763 10752 10751 10750 ] final  174.48 input  -60.55 | X-H torsion
[ 11005 11000 10999 10996 ] final  115.32 input  -57.11 | X-H torsion

> <Gold.Protein.ActiveResidues>
 VAL166  LYS551  ARG553  GLY616  TRP617  ASP618  TYR619  PRO620  LYS621  CYS622 
 ASP623  PHE694  ASN695  SER759  ASP760  ASP761  ALA762  ILE779  LEU786  VAL792 
 PHE793  MET794  SER795  GLU796  ALA797  LYS798  CYS799  TRP800  GLU811  SER814 

> <Gold.Protein.RotatedAtoms>
  152.3886  133.6646  159.6218 H   0  0  0  0  0  0  0  0  0  0  0  0  # atno 6907 bound_to 6896
  150.7799  133.8993  159.3345 H   0  0  0  0  0  0  0  0  0  0  0  0  # atno 6908 bound_to 6896
  151.6784  135.0967  160.0262 H   0  0  0  0  0  0  0  0  0  0  0  0  # atno 6909 bound_to 6896
  145.0177  139.4161  143.5213 H   0  0  0  0  0  0  0  0  0  0  0  0  # atno 7974 bound_to 7965
  155.1550  140.3278  155.4423 H   0  0  0  0  0  0  0  0  0  0  0  0  # atno 8008 bound_to 7997
  156.2562  140.1970  156.6610 H   0  0  0  0  0  0  0  0  0  0  0  0  # atno 8009 bound_to 7997
  154.6446  140.0566  156.9872 H   0  0  0  0  0  0  0  0  0  0  0  0  # atno 8010 bound_to 7997
  139.4824  144.5213  151.7871 H   0  0  0  0  0  0  0  0  0  0  0  0  # atno 10167 bound_to 10162
  156.0029  130.5074  150.5950 H   0  0  0  0  0  0  0  0  0  0  0  0  # atno 10718 bound_to 10713
  154.4544  135.2765  155.1758 H   0  0  0  0  0  0  0  0  0  0  0  0  # atno 10763 bound_to 10752
  154.3571  135.6137  153.5675 H   0  0  0  0  0  0  0  0  0  0  0  0  # atno 10764 bound_to 10752
  152.9849  135.5825  154.4895 H   0  0  0  0  0  0  0  0  0  0  0  0  # atno 10765 bound_to 10752
  139.9006  134.9582  156.7028 H   0  0  0  0  0  0  0  0  0  0  0  0  # atno 11005 bound_to 11000
  146.3480  139.9656  142.8712 LP  0  0  0  0  0  0  0  0  0  0  0  0  # atno 17320 bound_to 7965
  145.1938  140.9824  143.4195 LP  0  0  0  0  0  0  0  0  0  0  0  0  # atno 17321 bound_to 7965
  140.4728  144.1562  150.5920 LP  0  0  0  0  0  0  0  0  0  0  0  0  # atno 17342 bound_to 10162
  140.4364  143.2545  151.9530 LP  0  0  0  0  0  0  0  0  0  0  0  0  # atno 17343 bound_to 10162
  157.3808  131.0780  151.1478 LP  0  0  0  0  0  0  0  0  0  0  0  0  # atno 17370 bound_to 10713
  157.2201  130.6477  149.5808 LP  0  0  0  0  0  0  0  0  0  0  0  0  # atno 17371 bound_to 10713
  140.7137  133.9201  155.8101 LP  0  0  0  0  0  0  0  0  0  0  0  0  # atno 17394 bound_to 11000
  141.0280  134.0795  157.4046 LP  0  0  0  0  0  0  0  0  0  0  0  0  # atno 17395 bound_to 11000

$$$$
