AV-unprocessed.smi:274|AV-procd|sdf|2059|dock5
  -GOLD-   2262021303D 1   1.00000     0.00000
 Structure written by MMmdl.
 50 53  0  0  0  0  0  0  0  0  1 V2000
  149.3306  140.7140  156.5899 C   0  0  0  0  0  0  0  0  0  0  0  0
  148.6808  139.3161  156.6348 C   0  0  0  0  0  0  0  0  0  0  0  0
  149.4238  138.4530  157.6745 C   0  0  0  0  0  0  0  0  0  0  0  0
  148.6079  138.6614  155.2193 C   0  0  1  0  0  0  0  0  0  0  0  0
  150.0047  138.4436  154.5849 C   0  0  0  0  0  0  0  0  0  0  0  0
  150.6140  139.3958  154.1018 O   0  0  0  0  0  0  0  0  0  0  0  0
  150.5188  137.2011  154.5424 N   0  0  0  0  0  0  0  0  0  0  0  0
  149.8616  135.9779  155.0038 C   0  0  0  0  0  0  0  0  0  0  0  0
  148.5860  136.2400  155.8244 C   0  0  0  0  0  0  0  0  0  0  0  0
  147.8631  137.3932  155.2941 N   0  0  0  0  0  0  0  0  0  0  0  0
  146.9577  137.1016  154.3247 C   0  0  0  0  0  0  0  0  0  0  0  0
  146.4937  138.0815  153.5042 N   0  0  0  0  0  0  0  0  0  0  0  0
  145.6142  137.7931  152.5407 C   0  0  0  0  0  0  0  0  0  0  0  0
  145.0750  136.6130  152.2293 N   0  0  0  0  0  0  0  0  0  0  0  0
  145.5334  135.6266  153.0523 C   0  0  0  0  0  0  0  0  0  0  0  0
  146.4708  135.7825  154.1118 C   0  0  0  0  0  0  0  0  0  0  0  0
  146.6991  134.5577  154.7270 N   0  0  0  0  0  0  0  0  0  0  0  0
  145.9440  133.7241  154.0649 C   0  0  0  0  0  0  0  0  0  0  0  0
  145.2002  134.2829  153.0497 N   0  0  0  0  0  0  0  0  0  0  0  0
  144.2746  133.5959  152.1613 C   0  0  0  0  0  0  0  0  0  0  0  0
  144.8194  133.4032  150.7259 C   0  0  1  0  0  0  0  0  0  0  0  0
  145.2241  134.6592  150.2086 O   0  0  0  0  0  0  0  0  0  0  0  0
  146.0106  132.4555  150.6691 C   0  0  0  0  0  0  0  0  0  0  0  0
  145.9050  131.8656  149.2692 C   0  0  0  0  0  0  0  0  0  0  0  0
  144.5087  131.6840  149.1065 O   0  0  0  0  0  0  0  0  0  0  0  0
  143.8239  132.7636  149.7357 C   0  0  0  0  0  0  0  0  0  0  0  0
  150.3422  140.6652  156.1856 H   0  0  0  0  0  0  0  0  0  0  0  0
  149.3938  141.1509  157.5868 H   0  0  0  0  0  0  0  0  0  0  0  0
  148.7600  141.4120  155.9767 H   0  0  0  0  0  0  0  0  0  0  0  0
  147.6653  139.4485  157.0094 H   0  0  0  0  0  0  0  0  0  0  0  0
  150.4249  138.1922  157.3299 H   0  0  0  0  0  0  0  0  0  0  0  0
  148.8911  137.5284  157.8949 H   0  0  0  0  0  0  0  0  0  0  0  0
  149.5280  138.9824  158.6220 H   0  0  0  0  0  0  0  0  0  0  0  0
  148.0706  139.3635  154.5790 H   0  0  0  0  0  0  0  0  0  0  0  0
  151.4288  137.0912  154.1189 H   0  0  0  0  0  0  0  0  0  0  0  0
  149.6045  135.4007  154.1150 H   0  0  0  0  0  0  0  0  0  0  0  0
  150.5664  135.3742  155.5754 H   0  0  0  0  0  0  0  0  0  0  0  0
  147.9716  135.3398  155.8550 H   0  0  0  0  0  0  0  0  0  0  0  0
  148.8525  136.4473  156.8605 H   0  0  0  0  0  0  0  0  0  0  0  0
  145.2976  138.6274  151.9322 H   0  0  0  0  0  0  0  0  0  0  0  0
  145.9081  132.6716  154.3049 H   0  0  0  0  0  0  0  0  0  0  0  0
  144.0315  132.6281  152.6024 H   0  0  0  0  0  0  0  0  0  0  0  0
  143.3426  134.1621  152.1379 H   0  0  0  0  0  0  0  0  0  0  0  0
  145.6975  134.5140  149.4039 H   0  0  0  0  0  0  0  0  0  0  0  0
  146.9685  132.9415  150.8604 H   0  0  0  0  0  0  0  0  0  0  0  0
  145.8925  131.6556  151.4015 H   0  0  0  0  0  0  0  0  0  0  0  0
  146.2740  132.5663  148.5186 H   0  0  0  0  0  0  0  0  0  0  0  0
  146.4484  130.9267  149.1630 H   0  0  0  0  0  0  0  0  0  0  0  0
  142.9486  132.3535  150.2384 H   0  0  0  0  0  0  0  0  0  0  0  0
  143.4682  133.4734  148.9872 H   0  0  0  0  0  0  0  0  0  0  0  0
  1  2  1  0  0  0  0
  1 27  1  0  0  0  0
  1 28  1  0  0  0  0
  1 29  1  0  0  0  0
  2  3  1  0  0  0  0
  2  4  1  0  0  0  0
  2 30  1  0  0  0  0
  3 31  1  0  0  0  0
  3 32  1  0  0  0  0
  3 33  1  0  0  0  0
  4 10  1  0  0  0  0
  4  5  1  0  0  0  0
  4 34  1  0  0  0  0
  5  6  2  0  0  0  0
  5  7  1  0  0  0  0
  7  8  1  0  0  0  0
  7 35  1  0  0  0  0
  8  9  1  0  0  0  0
  8 36  1  0  0  0  0
  8 37  1  0  0  0  0
  9 10  1  0  0  0  0
  9 38  1  0  0  0  0
  9 39  1  0  0  0  0
 10 11  1  0  0  0  0
 11 16  1  0  0  0  0
 11 12  2  0  0  0  0
 12 13  1  0  0  0  0
 13 14  2  0  0  0  0
 13 40  1  0  0  0  0
 14 15  1  0  0  0  0
 15 19  1  0  0  0  0
 15 16  2  0  0  0  0
 16 17  1  0  0  0  0
 17 18  2  0  0  0  0
 18 19  1  0  0  0  0
 18 41  1  0  0  0  0
 19 20  1  0  0  0  0
 20 21  1  0  0  0  0
 20 42  1  0  0  0  0
 20 43  1  0  0  0  0
 21 26  1  0  0  0  0
 21 22  1  0  0  0  0
 21 23  1  0  0  0  0
 22 44  1  0  0  0  0
 23 24  1  0  0  0  0
 23 45  1  0  0  0  0
 23 46  1  0  0  0  0
 24 25  1  0  0  0  0
 24 47  1  0  0  0  0
 24 48  1  0  0  0  0
 25 26  1  0  0  0  0
 26 49  1  0  0  0  0
 26 50  1  0  0  0  0
M  END
> <s_m_source_file>
AV-unprocessed.smi

> <i_m_source_file_index>
274

> <i_lp_mmshare_version>
43012

> <i_f3d_flags>
0

> <s_epik_input>
W0NIM11bQ0hdKFtDSDNdKVtDQEBIXTFDKD1PKVtOSF1bQ0gyXVtDSDJdTjFjKG5bY0hdbjIpYyhjMjMpbltjSF1uM1tDSDJdW0NAQF00KFtPSF0pW0NIMl1bQ0gyXU9bQ0gyXTQ=

> <s_epik_cmdline>
J2VwaWtfcHl0aG9uJywgJy1waCcsICc3LjAnLCAnLXRuJywgJzgnLCAnLW1hJywgJzIwMCcsICctbWV0YWxfYmluZGluZycsICctaW1hZScsICc8aW5maWxlLm1hZT4nLCAnLW9tYWUnLCAnPG91dGZpbGUubWFlPic=

> <r_lp_tautomer_probability>
1

> <r_epik_Ionization_Penalty>
0.000690079

> <r_epik_Ionization_Penalty_Charging>
0

> <r_epik_Ionization_Penalty_Neutral>
0.000690079

> <r_epik_State_Penalty>
0.000321372

> <r_epik_Charging_Adjusted_Penalty>
0.000321372

> <i_epik_Tot_Q>
0

> <i_epik_Tot_abs_Q>
0

> <r_epik_Metal_State_Penalty>
-0

> <b_epik_Metal_Only>
0

> <s_lp_Force_Field>
OPLS_2005

> <r_lp_Energy>
42.7916

> <b_lp_Chiralities_Consistent>
1

> <s_lp_Variant>
AV-unprocessed.smi:274-2

> <Gold.Version>
5.8.1

> <Gold.Id.Protein>
6NUR|6NUR_protein|mol2

> <Gold.PLP.Fitness>
40.2168

> <Gold.PLP.PLP>
-27.6308

> <Gold.PLP.part.hbond>
-3.4099

> <Gold.PLP.part.metal>
0.0000

> <Gold.PLP.part.buried>
-4.5920

> <Gold.PLP.part.nonpolar>
-21.6662

> <Gold.PLP.part.repulsive>
0.8691

> <Gold.PLP.ligand.clash>
0.0000

> <Gold.PLP.ligand.torsion>
0.3292

> <Gold.PLP.Chemscore.Hbond>
2.3965

> <Gold.PLP.Chemscore.CHOScore>
1.9200

> <Gold.PLP.Chemscore.Metal>
0.0000

> <Gold.Chemscore.Hbonds>
donor molecule, donor type, donor heavy atom, donor atom, acceptor molecule, acceptor atom, score
      L1  H    22    44       P1  7921  1.00
      P1  H  7989  7998       L1     6  1.00
      P1  H 10785 10796       L1    25  0.37
      L1  C    13    40       P1 10171  0.94
      L1  C    13    40       P1 10175  1.00

> <Gold.PLP.Chemscore.Internal.Correction>
0.2950

> <Gold.Rescore>
     Score         DG    S(hbond)    S(metal)    S(lipo)     H(rot)  DE(clash)    DE(int)     intcor
     11.57     -15.15       2.41        0.00      60.78       2.14       0.11       3.48       ----

> <Gold.Chemscore.Fitness>
11.5712

> <Gold.Chemscore.DG>
-15.1545

> <Gold.Chemscore.ZeroCoef>
-5.4800

> <Gold.Chemscore.Hbond>
2.4101

> <Gold.Chemscore.Metal>
0.0000

> <Gold.Chemscore.Lipo>
60.7771

> <Gold.Chemscore.Internal_Hbond>
0.0000

> <Gold.Chemscore.DEClash>
0.1060

> <Gold.Chemscore.DEInternal>
3.4773

> <Gold.Chemscore.Rot>
2.1431

> <Gold.Chemscore.Internal.Correction>
   9.000000E+99

> <Gold.Chemscore.Hbonds>
donor molecule, donor type, donor heavy atom, donor atom, acceptor molecule, acceptor atom, score
      L1  H    22    44       P1  7921  0.84
      P1  H  7989  7998       L1     6  0.99
      P1  H 10785 10796       L1    25  0.27

> <Gold.Chemscore.Hbond.Weighted>
-8.0498

> <Gold.Chemscore.Metal.Weighted>
-0.0000

> <Gold.Chemscore.Lipo.Weighted>
-7.1109

> <Gold.Chemscore.Internal_Hbond.Weighted>
0.0000

> <Gold.Chemscore.DEClash.Weighted>
0.1060

> <Gold.Chemscore.DEInternal.Weighted>
3.4773

> <Gold.Chemscore.Rot.Weighted>
5.4863

> <Gold.Chemscore.Internal.Correction.Weighted>
   9.000000E+99

> <Gold.Protein.RotatedTorsions>
[ 6907 6896 6895 6894 ] final   66.58 input  -60.11 | X-H torsion
[ 7974 7965 7964 7962 ] final -124.65 input  175.53 | X-H torsion
[ 8008 7997 7996 7995 ] final  -63.60 input   59.86 | X-H torsion
[ 10167 10162 10161 10158 ] final  -57.85 input  -65.29 | X-H torsion
[ 10718 10713 10712 10709 ] final   46.33 input   66.30 | X-H torsion
[ 10763 10752 10751 10750 ] final  -97.68 input  -60.55 | X-H torsion
[ 11005 11000 10999 10996 ] final  -65.22 input  -57.11 | X-H torsion

> <Gold.Protein.ActiveResidues>
 VAL166  LYS551  ARG553  GLY616  TRP617  ASP618  TYR619  PRO620  LYS621  CYS622 
 ASP623  PHE694  ASN695  SER759  ASP760  ASP761  ALA762  ILE779  LEU786  VAL792 
 PHE793  MET794  SER795  GLU796  ALA797  LYS798  CYS799  TRP800  GLU811  SER814 

> <Gold.Protein.RotatedAtoms>
  152.4491  134.5432  159.9844 H   0  0  0  0  0  0  0  0  0  0  0  0  # atno 6907 bound_to 6896
  151.5510  133.3412  159.2961 H   0  0  0  0  0  0  0  0  0  0  0  0  # atno 6908 bound_to 6896
  150.8415  134.7740  159.6999 H   0  0  0  0  0  0  0  0  0  0  0  0  # atno 6909 bound_to 6896
  145.0059  140.7862  143.4468 H   0  0  0  0  0  0  0  0  0  0  0  0  # atno 7974 bound_to 7965
  154.4563  140.0971  156.6768 H   0  0  0  0  0  0  0  0  0  0  0  0  # atno 8008 bound_to 7997
  155.5127  140.3477  155.4373 H   0  0  0  0  0  0  0  0  0  0  0  0  # atno 8009 bound_to 7997
  156.0785  140.1367  156.9731 H   0  0  0  0  0  0  0  0  0  0  0  0  # atno 8010 bound_to 7997
  140.6233  143.2428  151.5426 H   0  0  0  0  0  0  0  0  0  0  0  0  # atno 10167 bound_to 10162
  157.4470  130.8115  149.7750 H   0  0  0  0  0  0  0  0  0  0  0  0  # atno 10718 bound_to 10713
  154.7349  135.5037  153.9025 H   0  0  0  0  0  0  0  0  0  0  0  0  # atno 10763 bound_to 10752
  153.0986  135.6679  153.9725 H   0  0  0  0  0  0  0  0  0  0  0  0  # atno 10764 bound_to 10752
  153.9517  135.3057  155.3417 H   0  0  0  0  0  0  0  0  0  0  0  0  # atno 10765 bound_to 10752
  141.1448  133.6678  156.5953 H   0  0  0  0  0  0  0  0  0  0  0  0  # atno 11005 bound_to 11000
  145.2089  139.2214  143.5153 LP  0  0  0  0  0  0  0  0  0  0  0  0  # atno 17320 bound_to 7965
  146.3461  140.1923  142.8589 LP  0  0  0  0  0  0  0  0  0  0  0  0  # atno 17321 bound_to 7965
  139.5458  144.2526  152.1438 LP  0  0  0  0  0  0  0  0  0  0  0  0  # atno 17342 bound_to 10162
  140.1751  144.4898  150.6558 LP  0  0  0  0  0  0  0  0  0  0  0  0  # atno 17343 bound_to 10162
  155.9971  130.3902  150.2752 LP  0  0  0  0  0  0  0  0  0  0  0  0  # atno 17370 bound_to 10713
  157.0921  131.0172  151.3118 LP  0  0  0  0  0  0  0  0  0  0  0  0  # atno 17371 bound_to 10713
  140.3731  134.7588  157.4612 LP  0  0  0  0  0  0  0  0  0  0  0  0  # atno 17394 bound_to 11000
  140.0695  134.5882  155.8658 LP  0  0  0  0  0  0  0  0  0  0  0  0  # atno 17395 bound_to 11000

$$$$
