AV-unprocessed.smi:114|AV-procd|sdf|1121|dock3
  -GOLD-   2262018243D 1   1.00000     0.00000
 Structure written by MMmdl.
 32 34  0  0  0  0  0  0  0  0  1 V2000
  154.2777  140.8496  160.2135 N   0  0  0  0  0  0  0  0  0  0  0  0
  153.3810  140.5181  159.2741 C   0  0  0  0  0  0  0  0  0  0  0  0
  153.5826  139.3846  158.5644 N   0  0  0  0  0  0  0  0  0  0  0  0
  152.7089  139.0167  157.6209 C   0  0  0  0  0  0  0  0  0  0  0  0
  152.9868  137.8703  156.9570 F   0  0  0  0  0  0  0  0  0  0  0  0
  151.5927  139.6564  157.2587 N   0  0  0  0  0  0  0  0  0  0  0  0
  151.3796  140.8035  157.9680 C   0  0  0  0  0  0  0  0  0  0  0  0
  152.2326  141.2979  158.9930 C   0  0  0  0  0  0  0  0  0  0  0  0
  151.7232  142.4794  159.5085 N   0  0  0  0  0  0  0  0  0  0  0  0
  150.6248  142.6663  158.8294 C   0  0  0  0  0  0  0  0  0  0  0  0
  150.3410  141.7174  157.8703 N   0  0  0  0  0  0  0  0  0  0  0  0
  149.1190  141.6991  156.9908 C   0  0  2  0  0  0  0  0  0  0  0  0
  148.4359  140.5082  157.2158 O   0  0  0  0  0  0  0  0  0  0  0  0
  148.8204  139.5449  156.2461 C   0  0  1  0  0  0  0  0  0  0  0  0
  147.7256  138.4756  156.1152 C   0  0  0  0  0  0  0  0  0  0  0  0
  148.1310  137.4758  155.2046 O   0  0  0  0  0  0  0  0  0  0  0  0
  149.0029  140.3906  154.9761 C   0  0  2  0  0  0  0  0  0  0  0  0
  150.0026  139.8268  154.1511 O   0  0  0  0  0  0  0  0  0  0  0  0
  149.4321  141.7703  155.4857 C   0  0  1  0  0  0  0  0  0  0  0  0
  148.6716  142.7799  154.8529 O   0  0  0  0  0  0  0  0  0  0  0  0
  148.5283  142.5433  157.3497 H   0  0  0  0  0  0  0  0  0  0  0  0
  149.7643  139.0873  156.5432 H   0  0  0  0  0  0  0  0  0  0  0  0
  148.0608  140.4544  154.4283 H   0  0  0  0  0  0  0  0  0  0  0  0
  150.4863  141.9877  155.3177 H   0  0  0  0  0  0  0  0  0  0  0  0
  154.1475  141.6906  160.7575 H   0  0  0  0  0  0  0  0  0  0  0  0
  155.0762  140.2548  160.3811 H   0  0  0  0  0  0  0  0  0  0  0  0
  149.9806  143.5137  159.0143 H   0  0  0  0  0  0  0  0  0  0  0  0
  147.4818  138.0349  157.0823 H   0  0  0  0  0  0  0  0  0  0  0  0
  146.8120  138.9230  155.7227 H   0  0  0  0  0  0  0  0  0  0  0  0
  148.3036  137.8817  154.3690 H   0  0  0  0  0  0  0  0  0  0  0  0
  149.6704  139.7794  153.2678 H   0  0  0  0  0  0  0  0  0  0  0  0
  148.6248  143.5263  155.4309 H   0  0  0  0  0  0  0  0  0  0  0  0
  1  2  1  0  0  0  0
  1 25  1  0  0  0  0
  1 26  1  0  0  0  0
  2  8  1  0  0  0  0
  2  3  2  0  0  0  0
  3  4  1  0  0  0  0
  4  5  1  0  0  0  0
  4  6  2  0  0  0  0
  6  7  1  0  0  0  0
  7 11  1  0  0  0  0
  7  8  2  0  0  0  0
  8  9  1  0  0  0  0
  9 10  2  0  0  0  0
 10 11  1  0  0  0  0
 10 27  1  0  0  0  0
 11 12  1  0  0  0  0
 12 21  1  0  0  0  0
 12 19  1  0  0  0  0
 12 13  1  0  0  0  0
 13 14  1  0  0  0  0
 14 22  1  0  0  0  0
 14 15  1  0  0  0  0
 14 17  1  0  0  0  0
 15 16  1  0  0  0  0
 15 28  1  0  0  0  0
 15 29  1  0  0  0  0
 16 30  1  0  0  0  0
 17 23  1  0  0  0  0
 17 18  1  0  0  0  0
 17 19  1  0  0  0  0
 18 31  1  0  0  0  0
 19 24  1  0  0  0  0
 19 20  1  0  0  0  0
 20 32  1  0  0  0  0
M  END
> <s_m_source_file>
AV-unprocessed.smi

> <i_m_source_file_index>
114

> <i_lp_mmshare_version>
43012

> <i_f3d_flags>
0

> <s_epik_input>
RmMobjEpbmMoW05IMl0pYyhjMTIpbltjSF1uMltDQEBIXTNPW0NASF0oW0NIMl1bT0hdKVtDQEBIXShbT0hdKVtDQEBIXTNbT0hd

> <s_epik_cmdline>
J2VwaWtfcHl0aG9uJywgJy1waCcsICc3LjAnLCAnLXRuJywgJzgnLCAnLW1hJywgJzIwMCcsICctbWV0YWxfYmluZGluZycsICctaW1hZScsICc8aW5maWxlLm1hZT4nLCAnLW9tYWUnLCAnPG91dGZpbGUubWFlPic=

> <r_lp_tautomer_probability>
1

> <r_epik_Ionization_Penalty>
1.13199e-05

> <r_epik_Ionization_Penalty_Charging>
0

> <r_epik_Ionization_Penalty_Neutral>
1.13199e-05

> <r_epik_State_Penalty>
-0

> <r_epik_Charging_Adjusted_Penalty>
0

> <i_epik_Tot_Q>
0

> <i_epik_Tot_abs_Q>
0

> <r_epik_Metal_State_Penalty>
-0

> <b_epik_Metal_Only>
0

> <s_epik_Chemistry_Notes>
This compound contains an acetal/aminal-like group ( X-CH(R)-Y where X, Y are N, S, or O) that may be acid/base labile, releasing an aldehyde.

> <s_lp_Force_Field>
OPLS_2005

> <r_lp_Energy>
32.4154

> <b_lp_Chiralities_Consistent>
1

> <s_lp_Variant>
AV-unprocessed.smi:114-15

> <Gold.Version>
5.8.1

> <Gold.Id.Protein>
6NUR|6NUR_protein|mol2

> <Gold.PLP.Fitness>
37.1447

> <Gold.PLP.PLP>
-25.0483

> <Gold.PLP.part.hbond>
-5.7824

> <Gold.PLP.part.metal>
0.0000

> <Gold.PLP.part.buried>
-2.9048

> <Gold.PLP.part.nonpolar>
-15.6151

> <Gold.PLP.part.repulsive>
0.0886

> <Gold.PLP.ligand.clash>
0.0000

> <Gold.PLP.ligand.torsion>
0.0367

> <Gold.PLP.Chemscore.Hbond>
4.0498

> <Gold.PLP.Chemscore.CHOScore>
0.0000

> <Gold.PLP.Chemscore.Metal>
0.0000

> <Gold.Chemscore.Hbonds>
donor molecule, donor type, donor heavy atom, donor atom, acceptor molecule, acceptor atom, score
      L1  H    18    31       P1  7957  0.76
      L1  H    20    32       P1  8028  0.24
      P1  H  7989  7998       L1    18  0.45
      P1  H  7997  8008       L1     3  0.45

> <Gold.PLP.Chemscore.Internal.Correction>
0.0205

> <Gold.Rescore>
     Score         DG    S(hbond)    S(metal)    S(lipo)     H(rot)  DE(clash)    DE(int)     intcor
      5.35      -6.68       2.54        0.00      25.91       4.03       0.08       1.25       ----

> <Gold.Chemscore.Fitness>
5.3506

> <Gold.Chemscore.DG>
-6.6811

> <Gold.Chemscore.ZeroCoef>
-5.4800

> <Gold.Chemscore.Hbond>
2.5389

> <Gold.Chemscore.Metal>
0.0000

> <Gold.Chemscore.Lipo>
25.9147

> <Gold.Chemscore.Internal_Hbond>
0.0000

> <Gold.Chemscore.DEClash>
0.0766

> <Gold.Chemscore.DEInternal>
1.2539

> <Gold.Chemscore.Rot>
4.0277

> <Gold.Chemscore.Internal.Correction>
   9.000000E+99

> <Gold.Chemscore.Hbonds>
donor molecule, donor type, donor heavy atom, donor atom, acceptor molecule, acceptor atom, score
      L1  H    18    31       P1  7957  0.76
      L1  H    20    32       P1  8028  0.23
      P1  H  7989  7998       L1    18  0.01

> <Gold.Chemscore.Hbond.Weighted>
-8.4800

> <Gold.Chemscore.Metal.Weighted>
-0.0000

> <Gold.Chemscore.Lipo.Weighted>
-3.0320

> <Gold.Chemscore.Internal_Hbond.Weighted>
0.0000

> <Gold.Chemscore.DEClash.Weighted>
0.0766

> <Gold.Chemscore.DEInternal.Weighted>
1.2539

> <Gold.Chemscore.Rot.Weighted>
10.3110

> <Gold.Chemscore.Internal.Correction.Weighted>
   9.000000E+99

> <Gold.Protein.RotatedTorsions>
[ 6907 6896 6895 6894 ] final -105.89 input  -60.11 | X-H torsion
[ 7974 7965 7964 7962 ] final -175.39 input  175.53 | X-H torsion
[ 8008 7997 7996 7995 ] final  -99.62 input   59.86 | X-H torsion
[ 10167 10162 10161 10158 ] final -100.49 input  -65.29 | X-H torsion
[ 10718 10713 10712 10709 ] final  -12.83 input   66.30 | X-H torsion
[ 10763 10752 10751 10750 ] final   71.31 input  -60.55 | X-H torsion
[ 11005 11000 10999 10996 ] final   41.25 input  -57.11 | X-H torsion

> <Gold.Protein.ActiveResidues>
 VAL166  LYS551  ARG553  GLY616  TRP617  ASP618  TYR619  PRO620  LYS621  CYS622 
 ASP623  PHE694  ASN695  SER759  ASP760  ASP761  ALA762  ILE779  LEU786  VAL792 
 PHE793  MET794  SER795  GLU796  ALA797  LYS798  CYS799  TRP800  GLU811  SER814 

> <Gold.Protein.RotatedAtoms>
  150.7360  134.0058  159.3652 H   0  0  0  0  0  0  0  0  0  0  0  0  # atno 6907 bound_to 6896
  151.8014  135.0705  160.0410 H   0  0  0  0  0  0  0  0  0  0  0  0  # atno 6908 bound_to 6896
  152.3138  133.5744  159.5734 H   0  0  0  0  0  0  0  0  0  0  0  0  # atno 6909 bound_to 6896
  144.7128  140.1328  143.6397 H   0  0  0  0  0  0  0  0  0  0  0  0  # atno 7974 bound_to 7965
  154.8173  140.0446  157.1385 H   0  0  0  0  0  0  0  0  0  0  0  0  # atno 8008 bound_to 7997
  154.9300  140.3038  155.5153 H   0  0  0  0  0  0  0  0  0  0  0  0  # atno 8009 bound_to 7997
  156.2977  140.2325  156.4359 H   0  0  0  0  0  0  0  0  0  0  0  0  # atno 8010 bound_to 7997
  140.2513  143.3470  152.0712 H   0  0  0  0  0  0  0  0  0  0  0  0  # atno 10167 bound_to 10162
  156.6390  130.4922  149.6102 H   0  0  0  0  0  0  0  0  0  0  0  0  # atno 10718 bound_to 10713
  153.0391  135.5141  154.7574 H   0  0  0  0  0  0  0  0  0  0  0  0  # atno 10763 bound_to 10752
  154.6525  135.2927  154.9971 H   0  0  0  0  0  0  0  0  0  0  0  0  # atno 10764 bound_to 10752
  154.0850  135.6658  153.4896 H   0  0  0  0  0  0  0  0  0  0  0  0  # atno 10765 bound_to 10752
  140.1852  134.4054  155.8177 H   0  0  0  0  0  0  0  0  0  0  0  0  # atno 11005 bound_to 11000
  145.9271  139.2582  143.1347 LP  0  0  0  0  0  0  0  0  0  0  0  0  # atno 17320 bound_to 7965
  145.9561  140.8872  143.0234 LP  0  0  0  0  0  0  0  0  0  0  0  0  # atno 17321 bound_to 7965
  139.5045  144.6777  151.6087 LP  0  0  0  0  0  0  0  0  0  0  0  0  # atno 17342 bound_to 10162
  140.6038  143.9561  150.6404 LP  0  0  0  0  0  0  0  0  0  0  0  0  # atno 17343 bound_to 10162
  156.2174  130.6716  151.1333 LP  0  0  0  0  0  0  0  0  0  0  0  0  # atno 17370 bound_to 10713
  157.7177  131.0700  150.6262 LP  0  0  0  0  0  0  0  0  0  0  0  0  # atno 17371 bound_to 10713
  141.2224  133.7019  156.8000 LP  0  0  0  0  0  0  0  0  0  0  0  0  # atno 17394 bound_to 11000
  140.2222  134.8749  157.3389 LP  0  0  0  0  0  0  0  0  0  0  0  0  # atno 17395 bound_to 11000

$$$$
