AV-unprocessed.smi:486|AV-procd|sdf|2698|dock10
  -GOLD-   2262023133D 1   1.00000     0.00000
 Structure written by MMmdl.
 44 46  0  0  0  0  0  0  0  0  2 V2000
  152.5522  139.0512  154.8447 C   0  0  0  0  0  0  0  0  0  0  0  0
  151.4262  139.9166  154.8300 O   0  0  0  0  0  0  0  0  0  0  0  0
  150.1766  139.3530  154.6840 C   0  0  0  0  0  0  0  0  0  0  0  0
  150.0143  138.0269  155.1306 C   0  0  0  0  0  0  0  0  0  0  0  0
  148.7707  137.3766  155.0205 C   0  0  0  0  0  0  0  0  0  0  0  0
  147.6585  138.0365  154.4626 C   0  0  0  0  0  0  0  0  0  0  0  0
  146.4781  137.3276  154.3943 O   0  0  0  0  0  0  0  0  0  0  0  0
  145.2584  138.0547  154.3271 C   0  0  0  0  0  0  0  0  0  0  0  0
  144.1655  137.1369  153.7575 C   0  0  1  0  0  0  0  0  0  0  0  0
  143.9937  137.4424  152.3878 O   0  0  0  0  0  0  0  0  0  0  0  0
  144.5351  135.6472  153.9032 C   0  0  0  0  0  0  0  0  0  0  0  0
  143.7866  134.7778  152.9807 N   0  0  0  0  0  0  0  0  0  0  0  0
  142.4407  134.6262  152.8222 C   0  0  0  0  0  0  0  0  0  0  0  0
  141.3695  135.3381  153.5776 C   0  0  0  0  0  0  0  0  0  0  0  0
  142.2501  133.6976  151.8434 N   0  3  0  0  0  0  0  0  0  0  0  0
  143.4843  133.2523  151.3687 C   0  0  0  0  0  0  0  0  0  0  0  0
  143.7979  132.3211  150.3836 C   0  0  0  0  0  0  0  0  0  0  0  0
  145.1684  132.0984  150.1366 C   0  0  0  0  0  0  0  0  0  0  0  0
  146.1655  132.7892  150.8553 C   0  0  0  0  0  0  0  0  0  0  0  0
  145.8352  133.7297  151.8533 C   0  0  0  0  0  0  0  0  0  0  0  0
  144.4776  133.9434  152.0932 C   0  0  0  0  0  0  0  0  0  0  0  0
  147.8169  139.3699  154.0107 C   0  0  0  0  0  0  0  0  0  0  0  0
  149.0617  140.0201  154.1195 C   0  0  0  0  0  0  0  0  0  0  0  0
  153.4596  139.6440  154.9580 H   0  0  0  0  0  0  0  0  0  0  0  0
  152.6385  138.4924  153.9120 H   0  0  0  0  0  0  0  0  0  0  0  0
  152.5075  138.3535  155.6819 H   0  0  0  0  0  0  0  0  0  0  0  0
  150.8526  137.5013  155.5639 H   0  0  0  0  0  0  0  0  0  0  0  0
  148.6701  136.3595  155.3700 H   0  0  0  0  0  0  0  0  0  0  0  0
  144.9659  138.4453  155.3038 H   0  0  0  0  0  0  0  0  0  0  0  0
  145.4010  138.9040  153.6569 H   0  0  0  0  0  0  0  0  0  0  0  0
  143.2260  137.3211  154.2801 H   0  0  0  0  0  0  0  0  0  0  0  0
  143.8161  138.3678  152.3090 H   0  0  0  0  0  0  0  0  0  0  0  0
  145.6047  135.4882  153.7649 H   0  0  0  0  0  0  0  0  0  0  0  0
  144.3094  135.3073  154.9147 H   0  0  0  0  0  0  0  0  0  0  0  0
  140.3852  135.0715  153.1918 H   0  0  0  0  0  0  0  0  0  0  0  0
  141.4965  136.4168  153.4860 H   0  0  0  0  0  0  0  0  0  0  0  0
  141.4135  135.0698  154.6333 H   0  0  0  0  0  0  0  0  0  0  0  0
  143.0354  131.7924  149.8305 H   0  0  0  0  0  0  0  0  0  0  0  0
  145.4606  131.3853  149.3792 H   0  0  0  0  0  0  0  0  0  0  0  0
  147.2054  132.5957  150.6359 H   0  0  0  0  0  0  0  0  0  0  0  0
  146.6079  134.2574  152.3923 H   0  0  0  0  0  0  0  0  0  0  0  0
  146.9969  139.9194  153.5744 H   0  0  0  0  0  0  0  0  0  0  0  0
  149.1347  141.0357  153.7617 H   0  0  0  0  0  0  0  0  0  0  0  0
  141.3397  133.3924  151.5241 H   0  0  0  0  0  0  0  0  0  0  0  0
  1  2  1  0  0  0  0
  1 24  1  0  0  0  0
  1 25  1  0  0  0  0
  1 26  1  0  0  0  0
  2  3  1  0  0  0  0
  3 23  1  0  0  0  0
  3  4  2  0  0  0  0
  4  5  1  0  0  0  0
  4 27  1  0  0  0  0
  5  6  2  0  0  0  0
  5 28  1  0  0  0  0
  6  7  1  0  0  0  0
  6 22  1  0  0  0  0
  7  8  1  0  0  0  0
  8  9  1  0  0  0  0
  8 29  1  0  0  0  0
  8 30  1  0  0  0  0
  9 10  1  0  0  0  0
  9 11  1  0  0  0  0
  9 31  1  0  0  0  0
 10 32  1  0  0  0  0
 11 12  1  0  0  0  0
 11 33  1  0  0  0  0
 11 34  1  0  0  0  0
 12 21  1  0  0  0  0
 12 13  1  0  0  0  0
 13 14  1  0  0  0  0
 13 15  2  0  0  0  0
 14 35  1  0  0  0  0
 14 36  1  0  0  0  0
 14 37  1  0  0  0  0
 15 16  1  0  0  0  0
 15 44  1  0  0  0  0
 16 21  2  0  0  0  0
 16 17  1  0  0  0  0
 17 18  2  0  0  0  0
 17 38  1  0  0  0  0
 18 19  1  0  0  0  0
 18 39  1  0  0  0  0
 19 20  2  0  0  0  0
 19 40  1  0  0  0  0
 20 21  1  0  0  0  0
 20 41  1  0  0  0  0
 22 23  2  0  0  0  0
 22 42  1  0  0  0  0
 23 43  1  0  0  0  0
M  CHG  1  15   1
M  END
> <s_m_source_file>
AV-unprocessed.smi

> <i_m_source_file_index>
486

> <i_lp_mmshare_version>
43012

> <i_f3d_flags>
0

> <s_epik_input>
W0NIM11PYzFbY0hdW2NIXWMoW2NIXVtjSF0xKU9bQ0gyXVtDQEhdKFtPSF0pW0NIMl1uKGMobjIpW0NIM10pYyhjMjMpW2NIXVtjSF1bY0hdW2NIXTM=

> <s_epik_cmdline>
J2VwaWtfcHl0aG9uJywgJy1waCcsICc3LjAnLCAnLXRuJywgJzgnLCAnLW1hJywgJzIwMCcsICctbWV0YWxfYmluZGluZycsICctaW1hZScsICc8aW5maWxlLm1hZT4nLCAnLW9tYWUnLCAnPG91dGZpbGUubWFlPic=

> <r_lp_tautomer_probability>
1

> <r_epik_Ionization_Penalty>
1.03234

> <r_epik_Ionization_Penalty_Charging>
1.03234

> <r_epik_Ionization_Penalty_Neutral>
2.3993e-06

> <r_epik_State_Penalty>
1.0836

> <r_epik_Charging_Adjusted_Penalty>
2.11594

> <i_epik_Tot_Q>
1

> <i_epik_Tot_abs_Q>
1

> <r_epik_Metal_State_Penalty>
5.07275

> <b_epik_Metal_Only>
0

> <s_lp_Force_Field>
OPLS_2005

> <r_lp_Energy>
23.3843

> <b_lp_Chiralities_Consistent>
1

> <s_lp_Variant>
AV-unprocessed.smi:486-4

> <Gold.Version>
5.8.1

> <Gold.Id.Protein>
6NUR|6NUR_protein|mol2

> <Gold.PLP.Fitness>
45.0438

> <Gold.PLP.PLP>
-40.2426

> <Gold.PLP.part.hbond>
-4.0000

> <Gold.PLP.part.metal>
0.0000

> <Gold.PLP.part.buried>
-4.9315

> <Gold.PLP.part.nonpolar>
-31.6259

> <Gold.PLP.part.repulsive>
0.1361

> <Gold.PLP.ligand.clash>
0.0000

> <Gold.PLP.ligand.torsion>
1.5552

> <Gold.PLP.Chemscore.Hbond>
2.5993

> <Gold.PLP.Chemscore.CHOScore>
0.0000

> <Gold.PLP.Chemscore.Metal>
0.0000

> <Gold.Chemscore.Hbonds>
donor molecule, donor type, donor heavy atom, donor atom, acceptor molecule, acceptor atom, score
      L1  H    10    32       P1 10175  0.88
      L1  H    15    44       P1 10186  0.10
      P1  H  7989  7998       L1     2  1.00

> <Gold.PLP.Chemscore.Internal.Correction>
0.1139

> <Gold.Rescore>
     Score         DG    S(hbond)    S(metal)    S(lipo)     H(rot)  DE(clash)    DE(int)     intcor
     12.00     -13.82       1.00        0.00      95.19       2.40       0.26       1.56       ----

> <Gold.Chemscore.Fitness>
12.0002

> <Gold.Chemscore.DG>
-13.8222

> <Gold.Chemscore.ZeroCoef>
-5.4800

> <Gold.Chemscore.Hbond>
0.9989

> <Gold.Chemscore.Metal>
0.0000

> <Gold.Chemscore.Lipo>
95.1922

> <Gold.Chemscore.Internal_Hbond>
0.0000

> <Gold.Chemscore.DEClash>
0.2626

> <Gold.Chemscore.DEInternal>
1.5594

> <Gold.Chemscore.Rot>
2.3952

> <Gold.Chemscore.Internal.Correction>
   9.000000E+99

> <Gold.Chemscore.Hbonds>
donor molecule, donor type, donor heavy atom, donor atom, acceptor molecule, acceptor atom, score
      L1  H    10    32       P1 10175  0.86
      P1  H  7989  7998       L1     2  0.25

> <Gold.Chemscore.Hbond.Weighted>
-3.3364

> <Gold.Chemscore.Metal.Weighted>
-0.0000

> <Gold.Chemscore.Lipo.Weighted>
-11.1375

> <Gold.Chemscore.Internal_Hbond.Weighted>
0.0000

> <Gold.Chemscore.DEClash.Weighted>
0.2626

> <Gold.Chemscore.DEInternal.Weighted>
1.5594

> <Gold.Chemscore.Rot.Weighted>
6.1316

> <Gold.Chemscore.Internal.Correction.Weighted>
   9.000000E+99

> <Gold.Protein.RotatedTorsions>
[ 6907 6896 6895 6894 ] final -126.78 input  -60.11 | X-H torsion
[ 7974 7965 7964 7962 ] final  145.62 input  175.53 | X-H torsion
[ 8008 7997 7996 7995 ] final -109.82 input   59.86 | X-H torsion
[ 10167 10162 10161 10158 ] final  -39.86 input  -65.29 | X-H torsion
[ 10718 10713 10712 10709 ] final -151.38 input   66.30 | X-H torsion
[ 10763 10752 10751 10750 ] final    6.15 input  -60.55 | X-H torsion
[ 11005 11000 10999 10996 ] final  -17.32 input  -57.11 | X-H torsion

> <Gold.Protein.ActiveResidues>
 VAL166  LYS551  ARG553  GLY616  TRP617  ASP618  TYR619  PRO620  LYS621  CYS622 
 ASP623  PHE694  ASN695  SER759  ASP760  ASP761  ALA762  ILE779  LEU786  VAL792 
 PHE793  MET794  SER795  GLU796  ALA797  LYS798  CYS799  TRP800  GLU811  SER814 

> <Gold.Protein.RotatedAtoms>
  150.9004  133.7126  159.2880 H   0  0  0  0  0  0  0  0  0  0  0  0  # atno 6907 bound_to 6896
  151.4646  135.1040  159.9744 H   0  0  0  0  0  0  0  0  0  0  0  0  # atno 6908 bound_to 6896
  152.4873  133.8359  159.7183 H   0  0  0  0  0  0  0  0  0  0  0  0  # atno 6909 bound_to 6896
  144.8737  139.5805  143.5875 H   0  0  0  0  0  0  0  0  0  0  0  0  # atno 7974 bound_to 7965
  154.9652  140.0398  157.2208 H   0  0  0  0  0  0  0  0  0  0  0  0  # atno 8008 bound_to 7997
  154.7852  140.2826  155.6011 H   0  0  0  0  0  0  0  0  0  0  0  0  # atno 8009 bound_to 7997
  156.2942  140.2584  156.2687 H   0  0  0  0  0  0  0  0  0  0  0  0  # atno 8010 bound_to 7997
  140.7051  143.3188  151.2842 H   0  0  0  0  0  0  0  0  0  0  0  0  # atno 10167 bound_to 10162
  156.4585  130.8202  151.2433 H   0  0  0  0  0  0  0  0  0  0  0  0  # atno 10718 bound_to 10713
  153.2511  135.6913  153.7679 H   0  0  0  0  0  0  0  0  0  0  0  0  # atno 10763 bound_to 10752
  153.6773  135.3334  155.3170 H   0  0  0  0  0  0  0  0  0  0  0  0  # atno 10764 bound_to 10752
  154.8394  135.4514  154.1468 H   0  0  0  0  0  0  0  0  0  0  0  0  # atno 10765 bound_to 10752
  140.8157  133.8107  155.9608 H   0  0  0  0  0  0  0  0  0  0  0  0  # atno 11005 bound_to 11000
  146.2948  139.7246  142.9134 LP  0  0  0  0  0  0  0  0  0  0  0  0  # atno 17320 bound_to 7965
  145.4082  141.0393  143.3032 LP  0  0  0  0  0  0  0  0  0  0  0  0  # atno 17321 bound_to 7965
  139.6636  144.0146  152.2708 LP  0  0  0  0  0  0  0  0  0  0  0  0  # atno 17342 bound_to 10162
  139.9721  144.6486  150.7979 LP  0  0  0  0  0  0  0  0  0  0  0  0  # atno 17343 bound_to 10162
  157.7499  131.0115  150.3346 LP  0  0  0  0  0  0  0  0  0  0  0  0  # atno 17370 bound_to 10713
  156.3741  130.3868  149.7152 LP  0  0  0  0  0  0  0  0  0  0  0  0  # atno 17371 bound_to 10713
  140.9152  134.2211  157.4961 LP  0  0  0  0  0  0  0  0  0  0  0  0  # atno 17394 bound_to 11000
  139.8711  134.9768  156.4933 LP  0  0  0  0  0  0  0  0  0  0  0  0  # atno 17395 bound_to 11000

$$$$
