AV-unprocessed.smi:1208|AV-procd|sdf|5064|dock3
  -GOLD-   22720 4103D 1   1.00000     0.00000
 Structure written by MMmdl.
 35 36  0  0  0  0  0  0  0  0  2 V2000
  151.3113  140.1799  157.8283 C   0  0  0  0  0  0  0  0  0  0  0  0
  151.2676  138.6568  158.0326 C   0  0  1  0  0  0  0  0  0  0  0  0
  149.9515  138.2398  158.5043 N   0  0  0  0  0  0  0  0  0  0  0  0
  149.5334  136.9800  158.7036 C   0  0  0  0  0  0  0  0  0  0  0  0
  150.2693  136.0010  158.5815 O   0  0  0  0  0  0  0  0  0  0  0  0
  148.0523  136.7770  159.0684 C   0  0  0  0  0  0  0  0  0  0  0  0
  147.8305  136.2005  160.4061 N   0  0  0  0  0  0  0  0  0  0  0  0
  148.0269  137.1465  161.5008 N   0  5  0  0  0  0  0  0  0  0  0  0
  147.8031  136.7380  162.7779 C   0  0  0  0  0  0  0  0  0  0  0  0
  147.9291  137.4821  163.7475 O   0  0  0  0  0  0  0  0  0  0  0  0
  147.3977  135.3590  162.9944 C   0  0  0  0  0  0  0  0  0  0  0  0
  147.2357  134.5036  161.9659 C   0  0  0  0  0  0  0  0  0  0  0  0
  147.4495  134.9023  160.5801 C   0  0  0  0  0  0  0  0  0  0  0  0
  147.2856  134.1310  159.6351 O   0  0  0  0  0  0  0  0  0  0  0  0
  151.6321  137.8843  156.7464 C   0  0  1  0  0  0  0  0  0  0  0  0
  150.4792  137.7223  155.7398 C   0  0  0  0  0  0  0  0  0  0  0  0
  151.1572  137.9359  154.4034 C   0  0  0  0  0  0  0  0  0  0  0  0
  152.2227  138.9611  154.7621 C   0  0  0  0  0  0  0  0  0  0  0  0
  152.6837  138.5461  156.0403 O   0  0  0  0  0  0  0  0  0  0  0  0
  152.2941  140.5006  157.4829 H   0  0  0  0  0  0  0  0  0  0  0  0
  151.1023  140.7091  158.7585 H   0  0  0  0  0  0  0  0  0  0  0  0
  150.5770  140.5036  157.0899 H   0  0  0  0  0  0  0  0  0  0  0  0
  152.0079  138.3968  158.7912 H   0  0  0  0  0  0  0  0  0  0  0  0
  149.2737  138.9753  158.6500 H   0  0  0  0  0  0  0  0  0  0  0  0
  147.5346  137.7343  158.9885 H   0  0  0  0  0  0  0  0  0  0  0  0
  147.6029  136.1403  158.3044 H   0  0  0  0  0  0  0  0  0  0  0  0
  147.2234  135.0124  164.0022 H   0  0  0  0  0  0  0  0  0  0  0  0
  146.9336  133.4880  162.1730 H   0  0  0  0  0  0  0  0  0  0  0  0
  152.0040  136.8941  157.0130 H   0  0  0  0  0  0  0  0  0  0  0  0
  149.9924  136.7497  155.8135 H   0  0  0  0  0  0  0  0  0  0  0  0
  149.7117  138.4841  155.8795 H   0  0  0  0  0  0  0  0  0  0  0  0
  151.6243  137.0107  154.0638 H   0  0  0  0  0  0  0  0  0  0  0  0
  150.4750  138.2851  153.6278 H   0  0  0  0  0  0  0  0  0  0  0  0
  153.0330  139.0044  154.0347 H   0  0  0  0  0  0  0  0  0  0  0  0
  151.7854  139.9560  154.8477 H   0  0  0  0  0  0  0  0  0  0  0  0
  1  2  1  0  0  0  0
  1 20  1  0  0  0  0
  1 21  1  0  0  0  0
  1 22  1  0  0  0  0
  2  3  1  0  0  0  0
  2 15  1  0  0  0  0
  2 23  1  0  0  0  0
  3  4  1  0  0  0  0
  3 24  1  0  0  0  0
  4  5  2  0  0  0  0
  4  6  1  0  0  0  0
  6 25  1  0  0  0  0
  6 26  1  0  0  0  0
  6  7  1  0  0  0  0
  7  8  1  0  0  0  0
  7 13  1  0  0  0  0
  8  9  1  0  0  0  0
  9 10  2  0  0  0  0
  9 11  1  0  0  0  0
 11 27  1  0  0  0  0
 11 12  2  0  0  0  0
 12 28  1  0  0  0  0
 12 13  1  0  0  0  0
 13 14  2  0  0  0  0
 15 19  1  0  0  0  0
 15 16  1  0  0  0  0
 15 29  1  0  0  0  0
 16 17  1  0  0  0  0
 16 30  1  0  0  0  0
 16 31  1  0  0  0  0
 17 18  1  0  0  0  0
 17 32  1  0  0  0  0
 17 33  1  0  0  0  0
 18 19  1  0  0  0  0
 18 34  1  0  0  0  0
 18 35  1  0  0  0  0
M  CHG  1   8  -1
M  END
> <s_m_source_file>
AV-unprocessed.smi

> <i_m_source_file_index>
1208

> <i_lp_mmshare_version>
43012

> <i_f3d_flags>
0

> <s_epik_input>
TzFbQ0gyXVtDSDJdW0NIMl1bQ0BIXTFbQ0BIXShbQ0gzXSlbTkhdQyg9TylbQ0gyXW4yW25IXWMoPU8pW2NIXVtjSF1jMj1P

> <s_epik_cmdline>
J2VwaWtfcHl0aG9uJywgJy1waCcsICc3LjAnLCAnLXRuJywgJzgnLCAnLW1hJywgJzIwMCcsICctbWV0YWxfYmluZGluZycsICctaW1hZScsICc8aW5maWxlLm1hZT4nLCAnLW9tYWUnLCAnPG91dGZpbGUubWFlPic=

> <r_lp_tautomer_probability>
1

> <r_epik_Ionization_Penalty>
0.0975494

> <r_epik_Ionization_Penalty_Charging>
0.0975494

> <r_epik_Ionization_Penalty_Neutral>
2.30132e-08

> <r_epik_State_Penalty>
0.034345

> <r_epik_Charging_Adjusted_Penalty>
0.131894

> <i_epik_Tot_Q>
-1

> <i_epik_Tot_abs_Q>
1

> <r_epik_Metal_State_Penalty>
0.034345

> <b_epik_Metal_Only>
0

> <s_lp_Force_Field>
OPLS_2005

> <r_lp_Energy>
31.4648

> <b_lp_Chiralities_Consistent>
1

> <s_lp_Variant>
AV-unprocessed.smi:1208-4

> <Gold.Version>
5.8.1

> <Gold.Id.Protein>
6NUR|6NUR_protein|mol2

> <Gold.PLP.Fitness>
47.2794

> <Gold.PLP.PLP>
-34.1422

> <Gold.PLP.part.hbond>
-4.8906

> <Gold.PLP.part.metal>
0.0000

> <Gold.PLP.part.buried>
-2.6380

> <Gold.PLP.part.nonpolar>
-27.0885

> <Gold.PLP.part.repulsive>
0.2236

> <Gold.PLP.ligand.clash>
0.0000

> <Gold.PLP.ligand.torsion>
0.6318

> <Gold.PLP.Chemscore.Hbond>
4.7939

> <Gold.PLP.Chemscore.CHOScore>
0.0000

> <Gold.PLP.Chemscore.Metal>
0.0000

> <Gold.Chemscore.Hbonds>
donor molecule, donor type, donor heavy atom, donor atom, acceptor molecule, acceptor atom, score
      P1  H  6896  6907       L1     5  0.98
      P1  H  6931  6943       L1     8  1.40
      P1  H  6934  6947       L1     8  0.98
      P1  H  7997  8010       L1    19  0.21

> <Gold.PLP.Chemscore.Internal.Correction>
0.0190

> <Gold.Rescore>
     Score         DG    S(hbond)    S(metal)    S(lipo)     H(rot)  DE(clash)    DE(int)     intcor
     12.17     -14.08       2.18        0.00      54.95       1.99       0.07       1.85       ----

> <Gold.Chemscore.Fitness>
12.1688

> <Gold.Chemscore.DG>
-14.0813

> <Gold.Chemscore.ZeroCoef>
-5.4800

> <Gold.Chemscore.Hbond>
2.1788

> <Gold.Chemscore.Metal>
0.0000

> <Gold.Chemscore.Lipo>
54.9462

> <Gold.Chemscore.Internal_Hbond>
0.0000

> <Gold.Chemscore.DEClash>
0.0658

> <Gold.Chemscore.DEInternal>
1.8467

> <Gold.Chemscore.Rot>
1.9940

> <Gold.Chemscore.Internal.Correction>
   9.000000E+99

> <Gold.Chemscore.Hbonds>
donor molecule, donor type, donor heavy atom, donor atom, acceptor molecule, acceptor atom, score
      P1  H  6896  6907       L1     5  0.93
      P1  H  6931  6943       L1     8  0.07
      P1  H  6934  6947       L1     8  0.31
      P1  H  7997  8010       L1    19  0.11

> <Gold.Chemscore.Hbond.Weighted>
-7.2772

> <Gold.Chemscore.Metal.Weighted>
-0.0000

> <Gold.Chemscore.Lipo.Weighted>
-6.4287

> <Gold.Chemscore.Internal_Hbond.Weighted>
0.0000

> <Gold.Chemscore.DEClash.Weighted>
0.0658

> <Gold.Chemscore.DEInternal.Weighted>
1.8467

> <Gold.Chemscore.Rot.Weighted>
5.1047

> <Gold.Chemscore.Internal.Correction.Weighted>
   9.000000E+99

> <Gold.Protein.RotatedTorsions>
[ 6907 6896 6895 6894 ] final  -43.25 input  -60.11 | X-H torsion
[ 7974 7965 7964 7962 ] final  106.89 input  175.53 | X-H torsion
[ 8008 7997 7996 7995 ] final   60.73 input   59.86 | X-H torsion
[ 10167 10162 10161 10158 ] final -144.72 input  -65.29 | X-H torsion
[ 10718 10713 10712 10709 ] final -103.20 input   66.30 | X-H torsion
[ 10763 10752 10751 10750 ] final  -68.16 input  -60.55 | X-H torsion
[ 11005 11000 10999 10996 ] final  -96.95 input  -57.11 | X-H torsion

> <Gold.Protein.ActiveResidues>
 VAL166  LYS551  ARG553  GLY616  TRP617  ASP618  TYR619  PRO620  LYS621  CYS622 
 ASP623  PHE694  ASN695  SER759  ASP760  ASP761  ALA762  ILE779  LEU786  VAL792 
 PHE793  MET794  SER795  GLU796  ALA797  LYS798  CYS799  TRP800  GLU811  SER814 

> <Gold.Protein.RotatedAtoms>
  150.9461  134.8865  159.7642 H   0  0  0  0  0  0  0  0  0  0  0  0  # atno 6907 bound_to 6896
  152.5100  134.3873  159.9382 H   0  0  0  0  0  0  0  0  0  0  0  0  # atno 6908 bound_to 6896
  151.3891  133.3754  159.2754 H   0  0  0  0  0  0  0  0  0  0  0  0  # atno 6909 bound_to 6896
  145.3007  139.2570  143.3815 H   0  0  0  0  0  0  0  0  0  0  0  0  # atno 7974 bound_to 7965
  155.5871  140.3492  155.4556 H   0  0  0  0  0  0  0  0  0  0  0  0  # atno 8008 bound_to 7997
  156.0330  140.1278  157.0263 H   0  0  0  0  0  0  0  0  0  0  0  0  # atno 8009 bound_to 7997
  154.4360  140.1039  156.6112 H   0  0  0  0  0  0  0  0  0  0  0  0  # atno 8010 bound_to 7997
  139.7872  143.8017  152.2646 H   0  0  0  0  0  0  0  0  0  0  0  0  # atno 10167 bound_to 10162
  156.0256  130.5456  150.7219 H   0  0  0  0  0  0  0  0  0  0  0  0  # atno 10718 bound_to 10713
  154.3851  135.6065  153.5812 H   0  0  0  0  0  0  0  0  0  0  0  0  # atno 10763 bound_to 10752
  152.9788  135.5870  154.4364 H   0  0  0  0  0  0  0  0  0  0  0  0  # atno 10764 bound_to 10752
  154.4140  135.2844  155.1996 H   0  0  0  0  0  0  0  0  0  0  0  0  # atno 10765 bound_to 10752
  141.1395  133.8135  157.0640 H   0  0  0  0  0  0  0  0  0  0  0  0  # atno 11005 bound_to 11000
  146.3153  140.3521  142.8657 LP  0  0  0  0  0  0  0  0  0  0  0  0  # atno 17320 bound_to 7965
  144.9096  140.7741  143.5816 LP  0  0  0  0  0  0  0  0  0  0  0  0  # atno 17321 bound_to 7965
  139.8097  144.7341  150.9713 LP  0  0  0  0  0  0  0  0  0  0  0  0  # atno 17342 bound_to 10162
  140.7820  143.4263  151.0764 LP  0  0  0  0  0  0  0  0  0  0  0  0  # atno 17343 bound_to 10162
  157.4832  131.0904  151.0512 LP  0  0  0  0  0  0  0  0  0  0  0  0  # atno 17370 bound_to 10713
  157.0939  130.5954  149.5445 LP  0  0  0  0  0  0  0  0  0  0  0  0  # atno 17371 bound_to 10713
  140.0553  134.9784  157.1210 LP  0  0  0  0  0  0  0  0  0  0  0  0  # atno 17394 bound_to 11000
  140.3928  134.2166  155.7165 LP  0  0  0  0  0  0  0  0  0  0  0  0  # atno 17395 bound_to 11000

$$$$
