AV-unprocessed.smi:1766|AV-procd|sdf|7135|dock6
  -GOLD-   22720 8373D 1   1.00000     0.00000
 Structure written by MMmdl.
 39 41  0  0  0  0  0  0  0  0  1 V2000
  151.4057  136.6296  157.1006 N   0  0  0  0  0  0  0  0  0  0  0  0
  151.6006  136.8028  155.7902 C   0  0  0  0  0  0  0  0  0  0  0  0
  151.4473  135.8925  154.9786 O   0  0  0  0  0  0  0  0  0  0  0  0
  152.0140  138.2010  155.3206 C   0  0  0  0  0  0  0  0  0  0  0  0
  150.7853  138.9461  154.8781 C   0  0  0  0  0  0  0  0  0  0  0  0
  149.8306  138.3543  154.1566 N   0  0  0  0  0  0  0  0  0  0  0  0
  148.9159  139.3707  153.9656 C   0  0  0  0  0  0  0  0  0  0  0  0
  147.6804  139.3781  153.2791 C   0  0  0  0  0  0  0  0  0  0  0  0
  146.9065  140.5554  153.2152 C   0  0  0  0  0  0  0  0  0  0  0  0
  147.3555  141.7393  153.8356 C   0  0  0  0  0  0  0  0  0  0  0  0
  148.5834  141.7532  154.5249 C   0  0  0  0  0  0  0  0  0  0  0  0
  149.3517  140.5753  154.5857 C   0  0  0  0  0  0  0  0  0  0  0  0
  150.5754  140.2575  155.1659 N   0  0  0  0  0  0  0  0  0  0  0  0
  151.4219  141.1754  155.9176 C   0  0  0  0  0  0  0  0  0  0  0  0
  150.6838  141.8259  157.1045 C   0  0  2  0  0  0  0  0  0  0  0  0
  150.2651  143.1325  156.7597 O   0  0  0  0  0  0  0  0  0  0  0  0
  151.5402  141.8135  158.3609 C   0  0  0  0  0  0  0  0  0  0  0  0
  151.6827  142.9876  159.1311 C   0  0  0  0  0  0  0  0  0  0  0  0
  152.4711  142.9798  160.2984 C   0  0  0  0  0  0  0  0  0  0  0  0
  153.1189  141.7972  160.7040 C   0  0  0  0  0  0  0  0  0  0  0  0
  153.8769  141.7905  161.8260 F   0  0  0  0  0  0  0  0  0  0  0  0
  152.9763  140.6214  159.9426 C   0  0  0  0  0  0  0  0  0  0  0  0
  152.1886  140.6288  158.7749 C   0  0  0  0  0  0  0  0  0  0  0  0
  151.1420  135.7208  157.4529 H   0  0  0  0  0  0  0  0  0  0  0  0
  151.5322  137.4048  157.7354 H   0  0  0  0  0  0  0  0  0  0  0  0
  152.5305  138.7390  156.1154 H   0  0  0  0  0  0  0  0  0  0  0  0
  152.7141  138.1225  154.4875 H   0  0  0  0  0  0  0  0  0  0  0  0
  147.3281  138.4765  152.8003 H   0  0  0  0  0  0  0  0  0  0  0  0
  145.9642  140.5498  152.6874 H   0  0  0  0  0  0  0  0  0  0  0  0
  146.7568  142.6368  153.7817 H   0  0  0  0  0  0  0  0  0  0  0  0
  148.9311  142.6583  155.0005 H   0  0  0  0  0  0  0  0  0  0  0  0
  152.2827  140.6136  156.2820 H   0  0  0  0  0  0  0  0  0  0  0  0
  151.8253  141.9362  155.2510 H   0  0  0  0  0  0  0  0  0  0  0  0
  149.7764  141.2548  157.3051 H   0  0  0  0  0  0  0  0  0  0  0  0
  149.3873  143.0840  156.4130 H   0  0  0  0  0  0  0  0  0  0  0  0
  151.1876  143.8995  158.8307 H   0  0  0  0  0  0  0  0  0  0  0  0
  152.5781  143.8812  160.8836 H   0  0  0  0  0  0  0  0  0  0  0  0
  153.4699  139.7130  160.2545 H   0  0  0  0  0  0  0  0  0  0  0  0
  152.0817  139.7214  158.1983 H   0  0  0  0  0  0  0  0  0  0  0  0
  1  2  1  0  0  0  0
  1 24  1  0  0  0  0
  1 25  1  0  0  0  0
  2  3  2  0  0  0  0
  2  4  1  0  0  0  0
  4  5  1  0  0  0  0
  4 26  1  0  0  0  0
  4 27  1  0  0  0  0
  5 13  1  0  0  0  0
  5  6  2  0  0  0  0
  6  7  1  0  0  0  0
  7 12  2  0  0  0  0
  7  8  1  0  0  0  0
  8  9  2  0  0  0  0
  8 28  1  0  0  0  0
  9 10  1  0  0  0  0
  9 29  1  0  0  0  0
 10 11  2  0  0  0  0
 10 30  1  0  0  0  0
 11 12  1  0  0  0  0
 11 31  1  0  0  0  0
 12 13  1  0  0  0  0
 13 14  1  0  0  0  0
 14 15  1  0  0  0  0
 14 32  1  0  0  0  0
 14 33  1  0  0  0  0
 15 16  1  0  0  0  0
 15 17  1  0  0  0  0
 15 34  1  0  0  0  0
 16 35  1  0  0  0  0
 17 23  1  0  0  0  0
 17 18  2  0  0  0  0
 18 19  1  0  0  0  0
 18 36  1  0  0  0  0
 19 20  2  0  0  0  0
 19 37  1  0  0  0  0
 20 21  1  0  0  0  0
 20 22  1  0  0  0  0
 22 23  2  0  0  0  0
 22 38  1  0  0  0  0
 23 39  1  0  0  0  0
M  END
> <s_m_source_file>
AV-unprocessed.smi

> <i_m_source_file_index>
1766

> <i_lp_mmshare_version>
43012

> <i_f3d_flags>
0

> <s_epik_input>
W2NIXTFbY0hdW2NIXVtjSF1jKGMxMiluKGMobjIpW0NIMl1DKD1PKVtOSDJdKVtDSDJdW0NASF0oW09IXSljM1tjSF1bY0hdYyhGKVtjSF1bY0hdMw==

> <s_epik_cmdline>
J2VwaWtfcHl0aG9uJywgJy1waCcsICc3LjAnLCAnLXRuJywgJzgnLCAnLW1hJywgJzIwMCcsICctbWV0YWxfYmluZGluZycsICctaW1hZScsICc8aW5maWxlLm1hZT4nLCAnLW9tYWUnLCAnPG91dGZpbGUubWFlPic=

> <r_epik_Ionization_Penalty>
0.0366901

> <r_epik_Ionization_Penalty_Charging>
0

> <r_epik_Ionization_Penalty_Neutral>
0.0366901

> <r_epik_State_Penalty>
0.0306642

> <r_epik_Charging_Adjusted_Penalty>
0.0306642

> <i_epik_Tot_Q>
0

> <i_epik_Tot_abs_Q>
0

> <r_epik_Metal_State_Penalty>
0.028853

> <b_epik_Metal_Only>
0

> <s_lp_Force_Field>
OPLS_2005

> <r_lp_Energy>
12.4574

> <b_lp_Chiralities_Consistent>
1

> <s_lp_Variant>
AV-unprocessed.smi:1766-1

> <Gold.Version>
5.8.1

> <Gold.Id.Protein>
6NUR|6NUR_protein|mol2

> <Gold.PLP.Fitness>
49.0510

> <Gold.PLP.PLP>
-47.7644

> <Gold.PLP.part.hbond>
-1.6274

> <Gold.PLP.part.metal>
0.0000

> <Gold.PLP.part.buried>
-1.2010

> <Gold.PLP.part.nonpolar>
-43.0825

> <Gold.PLP.part.repulsive>
0.4145

> <Gold.PLP.ligand.clash>
0.0000

> <Gold.PLP.ligand.torsion>
1.4012

> <Gold.PLP.Chemscore.Hbond>
1.3360

> <Gold.PLP.Chemscore.CHOScore>
0.0000

> <Gold.PLP.Chemscore.Metal>
0.0000

> <Gold.Chemscore.Hbonds>
donor molecule, donor type, donor heavy atom, donor atom, acceptor molecule, acceptor atom, score
      L1  H    16    35       P1  8028  0.21
      P1  H 10752 10763       L1     3  0.95

> <Gold.PLP.Chemscore.Internal.Correction>
0.0810

> <Gold.Rescore>
     Score         DG    S(hbond)    S(metal)    S(lipo)     H(rot)  DE(clash)    DE(int)     intcor
     14.29     -16.53       1.38        0.00     120.29       2.99       0.41       1.82       ----

> <Gold.Chemscore.Fitness>
14.2930

> <Gold.Chemscore.DG>
-16.5263

> <Gold.Chemscore.ZeroCoef>
-5.4800

> <Gold.Chemscore.Hbond>
1.3823

> <Gold.Chemscore.Metal>
0.0000

> <Gold.Chemscore.Lipo>
120.2949

> <Gold.Chemscore.Internal_Hbond>
0.0000

> <Gold.Chemscore.DEClash>
0.4091

> <Gold.Chemscore.DEInternal>
1.8242

> <Gold.Chemscore.Rot>
2.9864

> <Gold.Chemscore.Internal.Correction>
   9.000000E+99

> <Gold.Chemscore.Hbonds>
donor molecule, donor type, donor heavy atom, donor atom, acceptor molecule, acceptor atom, score
      L1  H    16    35       P1  8028  0.22
      P1  H 10752 10763       L1     3  0.21

> <Gold.Chemscore.Hbond.Weighted>
-4.6169

> <Gold.Chemscore.Metal.Weighted>
-0.0000

> <Gold.Chemscore.Lipo.Weighted>
-14.0745

> <Gold.Chemscore.Internal_Hbond.Weighted>
0.0000

> <Gold.Chemscore.DEClash.Weighted>
0.4091

> <Gold.Chemscore.DEInternal.Weighted>
1.8242

> <Gold.Chemscore.Rot.Weighted>
7.6451

> <Gold.Chemscore.Internal.Correction.Weighted>
   9.000000E+99

> <Gold.Protein.RotatedTorsions>
[ 6907 6896 6895 6894 ] final  154.55 input  -60.11 | X-H torsion
[ 7974 7965 7964 7962 ] final -144.71 input  175.53 | X-H torsion
[ 8008 7997 7996 7995 ] final  117.00 input   59.86 | X-H torsion
[ 10167 10162 10161 10158 ] final  137.29 input  -65.29 | X-H torsion
[ 10718 10713 10712 10709 ] final   42.24 input   66.30 | X-H torsion
[ 10763 10752 10751 10750 ] final   67.10 input  -60.55 | X-H torsion
[ 11005 11000 10999 10996 ] final  127.79 input  -57.11 | X-H torsion

> <Gold.Protein.ActiveResidues>
 VAL166  LYS551  ARG553  GLY616  TRP617  ASP618  TYR619  PRO620  LYS621  CYS622 
 ASP623  PHE694  ASN695  SER759  ASP760  ASP761  ALA762  ILE779  LEU786  VAL792 
 PHE793  MET794  SER795  GLU796  ALA797  LYS798  CYS799  TRP800  GLU811  SER814 

> <Gold.Protein.RotatedAtoms>
  152.0568  133.4044  159.4400 H   0  0  0  0  0  0  0  0  0  0  0  0  # atno 6907 bound_to 6896
  150.6868  134.3245  159.4810 H   0  0  0  0  0  0  0  0  0  0  0  0  # atno 6908 bound_to 6896
  152.1062  134.9307  160.0619 H   0  0  0  0  0  0  0  0  0  0  0  0  # atno 6909 bound_to 6896
  144.8278  140.5676  143.5535 H   0  0  0  0  0  0  0  0  0  0  0  0  # atno 7974 bound_to 7965
  156.2470  140.2905  156.0610 H   0  0  0  0  0  0  0  0  0  0  0  0  # atno 8008 bound_to 7997
  155.1776  140.0403  157.2893 H   0  0  0  0  0  0  0  0  0  0  0  0  # atno 8009 bound_to 7997
  154.6282  140.2493  155.7472 H   0  0  0  0  0  0  0  0  0  0  0  0  # atno 8010 bound_to 7997
  139.5150  144.6418  151.5548 H   0  0  0  0  0  0  0  0  0  0  0  0  # atno 10167 bound_to 10162
  157.4025  130.7868  149.7361 H   0  0  0  0  0  0  0  0  0  0  0  0  # atno 10718 bound_to 10713
  153.0170  135.5296  154.6927 H   0  0  0  0  0  0  0  0  0  0  0  0  # atno 10763 bound_to 10752
  154.6057  135.2873  155.0489 H   0  0  0  0  0  0  0  0  0  0  0  0  # atno 10764 bound_to 10752
  154.1529  135.6560  153.5020 H   0  0  0  0  0  0  0  0  0  0  0  0  # atno 10765 bound_to 10752
  139.9526  134.9619  156.8906 H   0  0  0  0  0  0  0  0  0  0  0  0  # atno 11005 bound_to 11000
  145.4961  139.1486  143.3683 LP  0  0  0  0  0  0  0  0  0  0  0  0  # atno 17320 bound_to 7965
  146.2583  140.5100  142.8864 LP  0  0  0  0  0  0  0  0  0  0  0  0  # atno 17321 bound_to 7965
  140.6188  143.9298  150.6509 LP  0  0  0  0  0  0  0  0  0  0  0  0  # atno 17342 bound_to 10162
  140.2565  143.3555  152.1360 LP  0  0  0  0  0  0  0  0  0  0  0  0  # atno 17343 bound_to 10162
  155.9827  130.4007  150.3401 LP  0  0  0  0  0  0  0  0  0  0  0  0  # atno 17370 bound_to 10713
  157.1530  131.0326  151.2876 LP  0  0  0  0  0  0  0  0  0  0  0  0  # atno 17371 bound_to 10713
  140.5684  134.0467  155.7422 LP  0  0  0  0  0  0  0  0  0  0  0  0  # atno 17394 bound_to 11000
  141.1191  133.9490  157.2764 LP  0  0  0  0  0  0  0  0  0  0  0  0  # atno 17395 bound_to 11000

$$$$
