AV-unprocessed.smi:834|AV-procd|sdf|3885|dock9
  -GOLD-   22720 1343D 1   1.00000     0.00000
 Structure written by MMmdl.
 38 39  0  0  0  0  0  0  0  0  2 V2000
  146.7504  133.8904  162.4517 C   0  0  0  0  0  0  0  0  0  0  0  0
  147.2053  135.0822  161.6816 C   0  0  0  0  0  0  0  0  0  0  0  0
  147.4257  136.2698  162.2509 N   0  0  0  0  0  0  0  0  0  0  0  0
  147.8410  137.2214  161.3308 N   0  0  0  0  0  0  0  0  0  0  0  0
  147.9170  136.7456  160.0799 C   0  0  0  0  0  0  0  0  0  0  0  0
  148.3035  137.5063  159.0425 N   0  5  0  0  0  0  0  0  0  0  0  0
  149.6179  137.7448  158.8309 C   0  0  0  0  0  0  0  0  0  0  0  0
  150.5518  136.9899  159.1119 O   0  0  0  0  0  0  0  0  0  0  0  0
  149.8659  138.9336  158.2630 N   0  0  0  0  0  0  0  0  0  0  0  0
  151.1836  139.4643  157.9288 C   0  0  0  0  0  0  0  0  0  0  0  0
  152.1706  139.2996  159.1013 C   0  0  0  0  0  0  0  0  0  0  0  0
  153.0039  140.5530  159.3873 C   0  0  0  0  0  0  0  0  0  0  0  0
  154.2146  140.4780  159.6016 O   0  0  0  0  0  0  0  0  0  0  0  0
  152.3318  141.7143  159.3792 N   0  0  0  0  0  0  0  0  0  0  0  0
  152.9198  143.0290  159.6220 C   0  0  0  0  0  0  0  0  0  0  0  0
  152.3633  143.6484  160.9186 C   0  0  0  0  0  0  0  0  0  0  0  0
  151.9781  145.0871  160.5696 C   0  0  0  0  0  0  0  0  0  0  0  0
  151.5948  145.0266  159.0947 C   0  0  0  0  0  0  0  0  0  0  0  0
  152.5793  144.0235  158.4929 C   0  0  0  0  0  0  0  0  0  0  0  0
  147.4907  135.0393  159.9499 S   0  0  0  0  0  0  0  0  0  0  0  0
  145.6708  133.9311  162.5958 H   0  0  0  0  0  0  0  0  0  0  0  0
  147.2356  133.8619  163.4276 H   0  0  0  0  0  0  0  0  0  0  0  0
  146.9985  132.9756  161.9132 H   0  0  0  0  0  0  0  0  0  0  0  0
  149.0715  139.5182  158.0485 H   0  0  0  0  0  0  0  0  0  0  0  0
  151.5646  138.9793  157.0281 H   0  0  0  0  0  0  0  0  0  0  0  0
  151.0607  140.5201  157.6858 H   0  0  0  0  0  0  0  0  0  0  0  0
  151.6238  139.0387  160.0083 H   0  0  0  0  0  0  0  0  0  0  0  0
  152.8523  138.4726  158.8981 H   0  0  0  0  0  0  0  0  0  0  0  0
  151.3394  141.6844  159.1946 H   0  0  0  0  0  0  0  0  0  0  0  0
  154.0040  142.9311  159.7048 H   0  0  0  0  0  0  0  0  0  0  0  0
  151.4704  143.1140  161.2468 H   0  0  0  0  0  0  0  0  0  0  0  0
  153.0823  143.6060  161.7374 H   0  0  0  0  0  0  0  0  0  0  0  0
  151.1739  145.4714  161.1978 H   0  0  0  0  0  0  0  0  0  0  0  0
  152.8423  145.7406  160.6970 H   0  0  0  0  0  0  0  0  0  0  0  0
  150.5766  144.6484  158.9945 H   0  0  0  0  0  0  0  0  0  0  0  0
  151.6387  146.0012  158.6078 H   0  0  0  0  0  0  0  0  0  0  0  0
  153.4877  144.5474  158.1931 H   0  0  0  0  0  0  0  0  0  0  0  0
  152.1767  143.5473  157.5978 H   0  0  0  0  0  0  0  0  0  0  0  0
  1  2  1  0  0  0  0
  1 21  1  0  0  0  0
  1 22  1  0  0  0  0
  1 23  1  0  0  0  0
  2 20  1  0  0  0  0
  2  3  2  0  0  0  0
  3  4  1  0  0  0  0
  4  5  2  0  0  0  0
  5  6  1  0  0  0  0
  5 20  1  0  0  0  0
  6  7  1  0  0  0  0
  7  8  2  0  0  0  0
  7  9  1  0  0  0  0
  9 10  1  0  0  0  0
  9 24  1  0  0  0  0
 10 11  1  0  0  0  0
 10 25  1  0  0  0  0
 10 26  1  0  0  0  0
 11 12  1  0  0  0  0
 11 27  1  0  0  0  0
 11 28  1  0  0  0  0
 12 13  2  0  0  0  0
 12 14  1  0  0  0  0
 14 15  1  0  0  0  0
 14 29  1  0  0  0  0
 15 19  1  0  0  0  0
 15 16  1  0  0  0  0
 15 30  1  0  0  0  0
 16 17  1  0  0  0  0
 16 31  1  0  0  0  0
 16 32  1  0  0  0  0
 17 18  1  0  0  0  0
 17 33  1  0  0  0  0
 17 34  1  0  0  0  0
 18 19  1  0  0  0  0
 18 35  1  0  0  0  0
 18 36  1  0  0  0  0
 19 37  1  0  0  0  0
 19 38  1  0  0  0  0
M  CHG  1   6  -1
M  END
> <s_m_source_file>
AV-unprocessed.smi

> <i_m_source_file_index>
834

> <i_lp_mmshare_version>
43012

> <i_f3d_flags>
0

> <s_epik_input>
W0NIM11jMW5uYyhzMSlbTkhdQyg9TylbTkhdW0NIMl1bQ0gyXUMoPU8pW05IXVtDSF0yW0NIMl1bQ0gyXVtDSDJdW0NIMl0y

> <s_epik_cmdline>
J2VwaWtfcHl0aG9uJywgJy1waCcsICc3LjAnLCAnLXRuJywgJzgnLCAnLW1hJywgJzIwMCcsICctbWV0YWxfYmluZGluZycsICctaW1hZScsICc8aW5maWxlLm1hZT4nLCAnLW9tYWUnLCAnPG91dGZpbGUubWFlPic=

> <r_lp_tautomer_probability>
1

> <r_epik_Ionization_Penalty>
3.40129

> <r_epik_Ionization_Penalty_Charging>
3.26946

> <r_epik_Ionization_Penalty_Neutral>
0.131835

> <r_epik_State_Penalty>
3.26707

> <r_epik_Charging_Adjusted_Penalty>
6.53653

> <i_epik_Tot_Q>
-1

> <i_epik_Tot_abs_Q>
1

> <r_epik_Metal_State_Penalty>
0.478667

> <b_epik_Metal_Only>
1

> <s_lp_Force_Field>
OPLS_2005

> <r_lp_Energy>
15.9775

> <b_lp_Chiralities_Consistent>
1

> <s_lp_Variant>
AV-unprocessed.smi:834-2

> <Gold.Version>
5.8.1

> <Gold.Id.Protein>
6NUR|6NUR_protein|mol2

> <Gold.PLP.Fitness>
48.7145

> <Gold.PLP.PLP>
-43.5693

> <Gold.PLP.part.hbond>
-3.0000

> <Gold.PLP.part.metal>
0.0000

> <Gold.PLP.part.buried>
-6.7529

> <Gold.PLP.part.nonpolar>
-34.4343

> <Gold.PLP.part.repulsive>
0.2492

> <Gold.PLP.ligand.clash>
0.0000

> <Gold.PLP.ligand.torsion>
1.5646

> <Gold.PLP.Chemscore.Hbond>
2.7200

> <Gold.PLP.Chemscore.CHOScore>
0.0000

> <Gold.PLP.Chemscore.Metal>
0.0000

> <Gold.Chemscore.Hbonds>
donor molecule, donor type, donor heavy atom, donor atom, acceptor molecule, acceptor atom, score
      P1  H  6896  6909       L1     8  0.71
      P1  H  6931  6943       L1     4  1.00
      P1  H  6934  6947       L1     4  0.71

> <Gold.PLP.Chemscore.Internal.Correction>
0.1143

> <Gold.Rescore>
     Score         DG    S(hbond)    S(metal)    S(lipo)     H(rot)  DE(clash)    DE(int)     intcor
     16.99     -19.75       2.46        0.00      94.18       1.95       0.00       2.76       ----

> <Gold.Chemscore.Fitness>
16.9941

> <Gold.Chemscore.DG>
-19.7499

> <Gold.Chemscore.ZeroCoef>
-5.4800

> <Gold.Chemscore.Hbond>
2.4644

> <Gold.Chemscore.Metal>
0.0000

> <Gold.Chemscore.Lipo>
94.1817

> <Gold.Chemscore.Internal_Hbond>
0.0000

> <Gold.Chemscore.DEClash>
0.0000

> <Gold.Chemscore.DEInternal>
2.7558

> <Gold.Chemscore.Rot>
1.9455

> <Gold.Chemscore.Internal.Correction>
   9.000000E+99

> <Gold.Chemscore.Hbonds>
donor molecule, donor type, donor heavy atom, donor atom, acceptor molecule, acceptor atom, score
      P1  H  6896  6909       L1     8  0.70
      P1  H  6931  6943       L1     4  0.81
      P1  H  6934  6947       L1     4  0.16

> <Gold.Chemscore.Hbond.Weighted>
-8.2312

> <Gold.Chemscore.Metal.Weighted>
-0.0000

> <Gold.Chemscore.Lipo.Weighted>
-11.0193

> <Gold.Chemscore.Internal_Hbond.Weighted>
0.0000

> <Gold.Chemscore.DEClash.Weighted>
0.0000

> <Gold.Chemscore.DEInternal.Weighted>
2.7558

> <Gold.Chemscore.Rot.Weighted>
4.9805

> <Gold.Chemscore.Internal.Correction.Weighted>
   9.000000E+99

> <Gold.Protein.RotatedTorsions>
[ 6907 6896 6895 6894 ] final   81.97 input  -60.11 | X-H torsion
[ 7974 7965 7964 7962 ] final  -29.24 input  175.53 | X-H torsion
[ 8008 7997 7996 7995 ] final  138.62 input   59.86 | X-H torsion
[ 10167 10162 10161 10158 ] final   78.74 input  -65.29 | X-H torsion
[ 10718 10713 10712 10709 ] final   69.73 input   66.30 | X-H torsion
[ 10763 10752 10751 10750 ] final   96.79 input  -60.55 | X-H torsion
[ 11005 11000 10999 10996 ] final   60.18 input  -57.11 | X-H torsion

> <Gold.Protein.ActiveResidues>
 VAL166  LYS551  ARG553  GLY616  TRP617  ASP618  TYR619  PRO620  LYS621  CYS622 
 ASP623  PHE694  ASN695  SER759  ASP760  ASP761  ALA762  ILE779  LEU786  VAL792 
 PHE793  MET794  SER795  GLU796  ALA797  LYS798  CYS799  TRP800  GLU811  SER814 

> <Gold.Protein.RotatedAtoms>
  152.5285  134.3121  159.9117 H   0  0  0  0  0  0  0  0  0  0  0  0  # atno 6907 bound_to 6896
  151.3071  133.4090  159.2651 H   0  0  0  0  0  0  0  0  0  0  0  0  # atno 6908 bound_to 6896
  151.0070  134.9383  159.8043 H   0  0  0  0  0  0  0  0  0  0  0  0  # atno 6909 bound_to 6896
  146.1231  140.5386  142.8726 H   0  0  0  0  0  0  0  0  0  0  0  0  # atno 7974 bound_to 7965
  156.2996  140.2389  156.4104 H   0  0  0  0  0  0  0  0  0  0  0  0  # atno 8008 bound_to 7997
  154.8446  140.0427  157.1584 H   0  0  0  0  0  0  0  0  0  0  0  0  # atno 8009 bound_to 7997
  154.9065  140.2984  155.5293 H   0  0  0  0  0  0  0  0  0  0  0  0  # atno 8010 bound_to 7997
  139.9677  144.5916  150.8013 H   0  0  0  0  0  0  0  0  0  0  0  0  # atno 10167 bound_to 10162
  157.6362  130.9441  150.0553 H   0  0  0  0  0  0  0  0  0  0  0  0  # atno 10718 bound_to 10713
  153.2692  135.4206  155.0971 H   0  0  0  0  0  0  0  0  0  0  0  0  # atno 10763 bound_to 10752
  154.8449  135.3468  154.6268 H   0  0  0  0  0  0  0  0  0  0  0  0  # atno 10764 bound_to 10752
  153.6688  135.7044  153.5211 H   0  0  0  0  0  0  0  0  0  0  0  0  # atno 10765 bound_to 10752
  140.0250  134.6096  155.9585 H   0  0  0  0  0  0  0  0  0  0  0  0  # atno 11005 bound_to 11000
  144.7616  140.5435  143.6732 LP  0  0  0  0  0  0  0  0  0  0  0  0  # atno 17320 bound_to 7965
  145.5424  139.1475  143.3440 LP  0  0  0  0  0  0  0  0  0  0  0  0  # atno 17321 bound_to 7965
  140.7532  143.3004  151.3094 LP  0  0  0  0  0  0  0  0  0  0  0  0  # atno 17342 bound_to 10162
  139.6505  144.0372  152.2622 LP  0  0  0  0  0  0  0  0  0  0  0  0  # atno 17343 bound_to 10162
  156.1602  130.3644  149.9310 LP  0  0  0  0  0  0  0  0  0  0  0  0  # atno 17370 bound_to 10713
  156.7309  130.9043  151.3625 LP  0  0  0  0  0  0  0  0  0  0  0  0  # atno 17371 bound_to 10713
  141.1797  133.6545  156.4971 LP  0  0  0  0  0  0  0  0  0  0  0  0  # atno 17394 bound_to 11000
  140.4321  134.7092  157.4947 LP  0  0  0  0  0  0  0  0  0  0  0  0  # atno 17395 bound_to 11000

$$$$
