AV-unprocessed.smi:3238|AV-procd|sdf|12378|dock2
  -GOLD-   2272018243D 1   1.00000     0.00000
 Structure written by MMmdl.
 37 39  0  0  0  0  0  0  0  0  1 V2000
  149.9027  134.8437  155.0957 C   0  0  0  0  0  0  0  0  0  0  0  0
  150.3450  136.1219  154.5609 N   0  0  0  0  0  0  0  0  0  0  0  0
  151.3161  136.8736  155.1019 C   0  0  0  0  0  0  0  0  0  0  0  0
  151.9478  136.5402  156.1044 O   0  0  0  0  0  0  0  0  0  0  0  0
  151.6312  138.1999  154.4045 C   0  0  0  0  0  0  0  0  0  0  0  0
  151.5897  139.3346  155.3779 C   0  0  0  0  0  0  0  0  0  0  0  0
  150.8541  140.4169  155.1509 N   0  0  0  0  0  0  0  0  0  0  0  0
  151.1290  141.2332  156.2576 O   0  0  0  0  0  0  0  0  0  0  0  0
  151.9863  140.5277  157.0336 C   0  0  0  0  0  0  0  0  0  0  0  0
  152.5460  141.1696  158.2598 C   0  0  0  0  0  0  0  0  0  0  0  0
  151.5135  142.0338  159.0125 C   0  0  1  0  0  0  0  0  0  0  0  0
  152.0777  142.8019  160.2264 C   0  0  0  0  0  0  0  0  0  0  0  0
  151.5593  144.2349  159.9969 C   0  0  1  0  0  0  0  0  0  0  0  0
  152.3640  144.8850  158.8571 C   0  0  0  0  0  0  0  0  0  0  0  0
  151.8379  144.1490  157.6113 C   0  0  0  0  0  0  0  0  0  0  0  0
  150.8163  143.1556  158.2037 C   0  0  2  0  0  0  0  0  0  0  0  0
  150.2108  143.9907  159.3274 C   0  0  0  0  0  0  0  0  0  0  0  0
  152.3072  139.3367  156.5353 N   0  0  0  0  0  0  0  0  0  0  0  0
  149.0970  134.4431  154.4809 H   0  0  0  0  0  0  0  0  0  0  0  0
  149.5296  134.9578  156.1143 H   0  0  0  0  0  0  0  0  0  0  0  0
  150.7199  134.1213  155.1020 H   0  0  0  0  0  0  0  0  0  0  0  0
  149.8735  136.4665  153.7366 H   0  0  0  0  0  0  0  0  0  0  0  0
  152.6160  138.1505  153.9376 H   0  0  0  0  0  0  0  0  0  0  0  0
  150.9092  138.3735  153.6057 H   0  0  0  0  0  0  0  0  0  0  0  0
  152.9244  140.3885  158.9198 H   0  0  0  0  0  0  0  0  0  0  0  0
  153.4118  141.7667  157.9727 H   0  0  0  0  0  0  0  0  0  0  0  0
  150.7310  141.3615  159.3690 H   0  0  0  0  0  0  0  0  0  0  0  0
  151.6850  142.3881  161.1560 H   0  0  0  0  0  0  0  0  0  0  0  0
  153.1665  142.7681  160.2842 H   0  0  0  0  0  0  0  0  0  0  0  0
  151.5232  144.8381  160.9044 H   0  0  0  0  0  0  0  0  0  0  0  0
  152.1517  145.9528  158.7896 H   0  0  0  0  0  0  0  0  0  0  0  0
  153.4401  144.7655  158.9883 H   0  0  0  0  0  0  0  0  0  0  0  0
  151.3410  144.8503  156.9397 H   0  0  0  0  0  0  0  0  0  0  0  0
  152.6324  143.6665  157.0436 H   0  0  0  0  0  0  0  0  0  0  0  0
  150.0936  142.7864  157.4751 H   0  0  0  0  0  0  0  0  0  0  0  0
  149.5101  143.4363  159.9544 H   0  0  0  0  0  0  0  0  0  0  0  0
  149.7291  144.9055  158.9770 H   0  0  0  0  0  0  0  0  0  0  0  0
  1  2  1  0  0  0  0
  1 19  1  0  0  0  0
  1 20  1  0  0  0  0
  1 21  1  0  0  0  0
  2  3  1  0  0  0  0
  2 22  1  0  0  0  0
  3  4  2  0  0  0  0
  3  5  1  0  0  0  0
  5  6  1  0  0  0  0
  5 23  1  0  0  0  0
  5 24  1  0  0  0  0
  6 18  1  0  0  0  0
  6  7  2  0  0  0  0
  7  8  1  0  0  0  0
  8  9  1  0  0  0  0
  9 10  1  0  0  0  0
  9 18  2  0  0  0  0
 10 11  1  0  0  0  0
 10 25  1  0  0  0  0
 10 26  1  0  0  0  0
 11 16  1  0  0  0  0
 11 12  1  0  0  0  0
 11 27  1  0  0  0  0
 12 13  1  0  0  0  0
 12 28  1  0  0  0  0
 12 29  1  0  0  0  0
 13 17  1  0  0  0  0
 13 14  1  0  0  0  0
 13 30  1  0  0  0  0
 14 15  1  0  0  0  0
 14 31  1  0  0  0  0
 14 32  1  0  0  0  0
 15 16  1  0  0  0  0
 15 33  1  0  0  0  0
 15 34  1  0  0  0  0
 16 17  1  0  0  0  0
 16 35  1  0  0  0  0
 17 36  1  0  0  0  0
 17 37  1  0  0  0  0
M  END
> <s_m_source_file>
AV-unprocessed.smi

> <i_m_source_file_index>
3238

> <i_lp_mmshare_version>
43012

> <i_f3d_flags>
0

> <s_epik_input>
W0NIM11bTkhdQyg9TylbQ0gyXWMxbm9jKG4xKVtDSDJdW0NASF0oW0NIMl1bQ0BIXTIzKVtDQEhdKFtDSDJdMylbQ0gyXVtDSDJdMg==

> <s_epik_cmdline>
J2VwaWtfcHl0aG9uJywgJy1waCcsICc3LjAnLCAnLXRuJywgJzgnLCAnLW1hJywgJzIwMCcsICctbWV0YWxfYmluZGluZycsICctaW1hZScsICc8aW5maWxlLm1hZT4nLCAnLW9tYWUnLCAnPG91dGZpbGUubWFlPic=

> <r_lp_tautomer_probability>
1

> <r_epik_Ionization_Penalty>
1.02915e-07

> <r_epik_Ionization_Penalty_Charging>
0

> <r_epik_Ionization_Penalty_Neutral>
1.02915e-07

> <r_epik_State_Penalty>
-0

> <r_epik_Charging_Adjusted_Penalty>
0

> <i_epik_Tot_Q>
0

> <i_epik_Tot_abs_Q>
0

> <r_epik_Metal_State_Penalty>
-0

> <b_epik_Metal_Only>
0

> <s_lp_Force_Field>
OPLS_2005

> <r_lp_Energy>
47.2904

> <b_lp_Chiralities_Consistent>
1

> <s_lp_Variant>
AV-unprocessed.smi:3238-4

> <Gold.Version>
5.8.1

> <Gold.Id.Protein>
6NUR|6NUR_protein|mol2

> <Gold.PLP.Fitness>
46.3073

> <Gold.PLP.PLP>
-38.1895

> <Gold.PLP.part.hbond>
-4.0779

> <Gold.PLP.part.metal>
0.0000

> <Gold.PLP.part.buried>
-5.5137

> <Gold.PLP.part.nonpolar>
-29.6094

> <Gold.PLP.part.repulsive>
0.1768

> <Gold.PLP.ligand.clash>
0.0000

> <Gold.PLP.ligand.torsion>
0.4373

> <Gold.PLP.Chemscore.Hbond>
2.9816

> <Gold.PLP.Chemscore.CHOScore>
0.0000

> <Gold.PLP.Chemscore.Metal>
0.0000

> <Gold.Chemscore.Hbonds>
donor molecule, donor type, donor heavy atom, donor atom, acceptor molecule, acceptor atom, score
      L1  H     2    22       P1  7948  0.93
      P1  H  7989  7998       L1     7  0.85
      P1  H  7997  8009       L1    18  0.20
      P1  H 10752 10764       L1     4  0.88

> <Gold.PLP.Chemscore.Internal.Correction>
0.0476

> <Gold.Rescore>
     Score         DG    S(hbond)    S(metal)    S(lipo)     H(rot)  DE(clash)    DE(int)     intcor
     13.86     -17.15       1.52        0.00      96.89       1.85       0.18       3.12       ----

> <Gold.Chemscore.Fitness>
13.8553

> <Gold.Chemscore.DG>
-17.1540

> <Gold.Chemscore.ZeroCoef>
-5.4800

> <Gold.Chemscore.Hbond>
1.5186

> <Gold.Chemscore.Metal>
0.0000

> <Gold.Chemscore.Lipo>
96.8870

> <Gold.Chemscore.Internal_Hbond>
0.0000

> <Gold.Chemscore.DEClash>
0.1774

> <Gold.Chemscore.DEInternal>
3.1213

> <Gold.Chemscore.Rot>
1.8492

> <Gold.Chemscore.Internal.Correction>
   9.000000E+99

> <Gold.Chemscore.Hbonds>
donor molecule, donor type, donor heavy atom, donor atom, acceptor molecule, acceptor atom, score
      L1  H     2    22       P1  7948  0.26
      P1  H  7989  7998       L1     7  0.14
      P1  H 10752 10764       L1     4  0.16

> <Gold.Chemscore.Hbond.Weighted>
-5.0722

> <Gold.Chemscore.Metal.Weighted>
-0.0000

> <Gold.Chemscore.Lipo.Weighted>
-11.3358

> <Gold.Chemscore.Internal_Hbond.Weighted>
0.0000

> <Gold.Chemscore.DEClash.Weighted>
0.1774

> <Gold.Chemscore.DEInternal.Weighted>
3.1213

> <Gold.Chemscore.Rot.Weighted>
4.7340

> <Gold.Chemscore.Internal.Correction.Weighted>
   9.000000E+99

> <Gold.Protein.RotatedTorsions>
[ 6907 6896 6895 6894 ] final   38.33 input  -60.11 | X-H torsion
[ 7974 7965 7964 7962 ] final  118.09 input  175.53 | X-H torsion
[ 8008 7997 7996 7995 ] final -167.48 input   59.86 | X-H torsion
[ 10167 10162 10161 10158 ] final    3.58 input  -65.29 | X-H torsion
[ 10718 10713 10712 10709 ] final  141.67 input   66.30 | X-H torsion
[ 10763 10752 10751 10750 ] final  -14.29 input  -60.55 | X-H torsion
[ 11005 11000 10999 10996 ] final  -16.68 input  -57.11 | X-H torsion

> <Gold.Protein.ActiveResidues>
 VAL166  LYS551  ARG553  GLY616  TRP617  ASP618  TYR619  PRO620  LYS621  CYS622 
 ASP623  PHE694  ASN695  SER759  ASP760  ASP761  ALA762  ILE779  LEU786  VAL792 
 PHE793  MET794  SER795  GLU796  ALA797  LYS798  CYS799  TRP800  GLU811  SER814 

> <Gold.Protein.RotatedAtoms>
  152.1550  134.8958  160.0545 H   0  0  0  0  0  0  0  0  0  0  0  0  # atno 6907 bound_to 6896
  151.9975  133.3808  159.4177 H   0  0  0  0  0  0  0  0  0  0  0  0  # atno 6908 bound_to 6896
  150.6880  134.3792  159.5070 H   0  0  0  0  0  0  0  0  0  0  0  0  # atno 6909 bound_to 6896
  145.1594  139.3164  143.4525 H   0  0  0  0  0  0  0  0  0  0  0  0  # atno 7974 bound_to 7965
  155.8783  140.1004  157.1503 H   0  0  0  0  0  0  0  0  0  0  0  0  # atno 8008 bound_to 7997
  154.4003  140.1334  156.4227 H   0  0  0  0  0  0  0  0  0  0  0  0  # atno 8009 bound_to 7997
  155.7672  140.3461  155.5230 H   0  0  0  0  0  0  0  0  0  0  0  0  # atno 8010 bound_to 7997
  140.6579  143.7381  150.7685 H   0  0  0  0  0  0  0  0  0  0  0  0  # atno 10167 bound_to 10162
  157.3893  131.1002  151.0662 H   0  0  0  0  0  0  0  0  0  0  0  0  # atno 10718 bound_to 10713
  153.5261  135.7015  153.5707 H   0  0  0  0  0  0  0  0  0  0  0  0  # atno 10763 bound_to 10752
  153.3734  135.3939  155.1805 H   0  0  0  0  0  0  0  0  0  0  0  0  # atno 10764 bound_to 10752
  154.8689  135.3817  154.4754 H   0  0  0  0  0  0  0  0  0  0  0  0  # atno 10765 bound_to 10752
  140.8092  133.8154  155.9546 H   0  0  0  0  0  0  0  0  0  0  0  0  # atno 11005 bound_to 11000
  146.3484  140.1699  142.8590 LP  0  0  0  0  0  0  0  0  0  0  0  0  # atno 17320 bound_to 7965
  145.0347  140.8898  143.5088 LP  0  0  0  0  0  0  0  0  0  0  0  0  # atno 17321 bound_to 7965
  140.1044  143.4758  152.2407 LP  0  0  0  0  0  0  0  0  0  0  0  0  # atno 17342 bound_to 10162
  139.5805  144.7508  151.3652 LP  0  0  0  0  0  0  0  0  0  0  0  0  # atno 17343 bound_to 10162
  157.1701  130.6263  149.5638 LP  0  0  0  0  0  0  0  0  0  0  0  0  # atno 17370 bound_to 10713
  155.9794  130.4788  150.6715 LP  0  0  0  0  0  0  0  0  0  0  0  0  # atno 17371 bound_to 10713
  140.9215  134.2135  157.4923 LP  0  0  0  0  0  0  0  0  0  0  0  0  # atno 17394 bound_to 11000
  139.8715  134.9794  156.5036 LP  0  0  0  0  0  0  0  0  0  0  0  0  # atno 17395 bound_to 11000

$$$$
