AV-unprocessed.smi:2410|AV-procd|sdf|9529|dock2
  -GOLD-   2272013163D 1   1.00000     0.00000
 Structure written by MMmdl.
 47 49  0  0  0  0  0  0  0  0  2 V2000
  152.1926  144.7872  160.8319 C   0  0  0  0  0  0  0  0  0  0  0  0
  152.0003  143.6852  159.8041 C   0  0  0  0  0  0  0  0  0  0  0  0
  151.1835  143.9461  158.6802 C   0  0  0  0  0  0  0  0  0  0  0  0
  151.0277  142.9186  157.7572 C   0  0  0  0  0  0  0  0  0  0  0  0
  150.3006  142.8580  156.5659 N   0  3  0  0  0  0  0  0  0  0  0  0
  150.4558  141.6284  156.0005 C   0  0  0  0  0  0  0  0  0  0  0  0
  151.2705  140.9039  156.8143 N   0  0  0  0  0  0  0  0  0  0  0  0
  151.7624  139.5266  156.6859 C   0  0  0  0  0  0  0  0  0  0  0  0
  151.1002  138.7682  155.5193 C   0  0  1  0  0  0  0  0  0  0  0  0
  151.8176  139.0638  154.3367 O   0  0  0  0  0  0  0  0  0  0  0  0
  151.1107  137.2410  155.7467 C   0  0  0  0  0  0  0  0  0  0  0  0
  150.3456  136.8569  156.9442 N   0  0  0  0  0  0  0  0  0  0  0  0
  150.9974  137.0158  158.1776 C   0  0  0  0  0  0  0  0  0  0  0  0
  150.4203  136.7132  159.2943 N   0  0  0  0  0  0  0  0  0  0  0  0
  149.1162  136.2093  159.2914 C   0  0  0  0  0  0  0  0  0  0  0  0
  148.5331  135.8924  160.6570 C   0  0  0  0  0  0  0  0  0  0  0  0
  148.4336  136.0212  158.1290 C   0  0  0  0  0  0  0  0  0  0  0  0
  147.0132  135.4742  158.0643 C   0  0  0  0  0  0  0  0  0  0  0  0
  149.0795  136.3561  156.8496 C   0  0  0  0  0  0  0  0  0  0  0  0
  148.5280  136.1955  155.7584 O   0  0  0  0  0  0  0  0  0  0  0  0
  151.6518  141.6674  157.9221 C   0  0  0  0  0  0  0  0  0  0  0  0
  152.4583  141.3923  159.0236 C   0  0  0  0  0  0  0  0  0  0  0  0
  152.6281  142.4238  159.9742 C   0  0  0  0  0  0  0  0  0  0  0  0
  153.5030  142.1529  161.1863 C   0  0  0  0  0  0  0  0  0  0  0  0
  151.6691  145.6991  160.5427 H   0  0  0  0  0  0  0  0  0  0  0  0
  153.2496  145.0313  160.9399 H   0  0  0  0  0  0  0  0  0  0  0  0
  151.8071  144.4754  161.8030 H   0  0  0  0  0  0  0  0  0  0  0  0
  150.7015  144.9032  158.5447 H   0  0  0  0  0  0  0  0  0  0  0  0
  150.0110  141.2893  155.0760 H   0  0  0  0  0  0  0  0  0  0  0  0
  152.8448  139.5676  156.5559 H   0  0  0  0  0  0  0  0  0  0  0  0
  151.5838  139.0173  157.6339 H   0  0  0  0  0  0  0  0  0  0  0  0
  150.0776  139.1268  155.3982 H   0  0  0  0  0  0  0  0  0  0  0  0
  152.3053  138.2959  154.0803 H   0  0  0  0  0  0  0  0  0  0  0  0
  150.7769  136.7141  154.8501 H   0  0  0  0  0  0  0  0  0  0  0  0
  152.1385  136.9005  155.8850 H   0  0  0  0  0  0  0  0  0  0  0  0
  152.0153  137.4058  158.1251 H   0  0  0  0  0  0  0  0  0  0  0  0
  147.6425  136.4938  160.8412 H   0  0  0  0  0  0  0  0  0  0  0  0
  149.2485  136.1023  161.4532 H   0  0  0  0  0  0  0  0  0  0  0  0
  148.2626  134.8380  160.7219 H   0  0  0  0  0  0  0  0  0  0  0  0
  146.9906  134.5562  157.4760 H   0  0  0  0  0  0  0  0  0  0  0  0
  146.3525  136.1990  157.5874 H   0  0  0  0  0  0  0  0  0  0  0  0
  146.5958  135.2457  159.0437 H   0  0  0  0  0  0  0  0  0  0  0  0
  152.9349  140.4312  159.1525 H   0  0  0  0  0  0  0  0  0  0  0  0
  153.8784  141.1290  161.1859 H   0  0  0  0  0  0  0  0  0  0  0  0
  152.9401  142.2997  162.1081 H   0  0  0  0  0  0  0  0  0  0  0  0
  154.3624  142.8236  161.1933 H   0  0  0  0  0  0  0  0  0  0  0  0
  149.7384  143.5989  156.1667 H   0  0  0  0  0  0  0  0  0  0  0  0
  1  2  1  0  0  0  0
  1 25  1  0  0  0  0
  1 26  1  0  0  0  0
  1 27  1  0  0  0  0
  2 23  1  0  0  0  0
  2  3  2  0  0  0  0
  3  4  1  0  0  0  0
  3 28  1  0  0  0  0
  4 21  2  0  0  0  0
  4  5  1  0  0  0  0
  5  6  2  0  0  0  0
  5 47  1  0  0  0  0
  6  7  1  0  0  0  0
  6 29  1  0  0  0  0
  7  8  1  0  0  0  0
  7 21  1  0  0  0  0
  8  9  1  0  0  0  0
  8 30  1  0  0  0  0
  8 31  1  0  0  0  0
  9 10  1  0  0  0  0
  9 11  1  0  0  0  0
  9 32  1  0  0  0  0
 10 33  1  0  0  0  0
 11 12  1  0  0  0  0
 11 34  1  0  0  0  0
 11 35  1  0  0  0  0
 12 19  1  0  0  0  0
 12 13  1  0  0  0  0
 13 14  2  0  0  0  0
 13 36  1  0  0  0  0
 14 15  1  0  0  0  0
 15 16  1  0  0  0  0
 15 17  2  0  0  0  0
 16 37  1  0  0  0  0
 16 38  1  0  0  0  0
 16 39  1  0  0  0  0
 17 18  1  0  0  0  0
 17 19  1  0  0  0  0
 18 40  1  0  0  0  0
 18 41  1  0  0  0  0
 18 42  1  0  0  0  0
 19 20  2  0  0  0  0
 21 22  1  0  0  0  0
 22 23  2  0  0  0  0
 22 43  1  0  0  0  0
 23 24  1  0  0  0  0
 24 44  1  0  0  0  0
 24 45  1  0  0  0  0
 24 46  1  0  0  0  0
M  CHG  1   5   1
M  END
> <s_m_source_file>
AV-unprocessed.smi

> <i_m_source_file_index>
2410

> <i_lp_mmshare_version>
43012

> <i_f3d_flags>
0

> <s_epik_input>
W0NIM11jKFtjSF0xKWMoW0NIM10pW2NIXWMoYzEyKW4oW2NIXW4yKVtDSDJdW0NASF0oW09IXSlbQ0gyXW4zW2NIXW5jKFtDSDNdKWMoW0NIM10pYzM9Tw==

> <s_epik_cmdline>
J2VwaWtfcHl0aG9uJywgJy1waCcsICc3LjAnLCAnLXRuJywgJzgnLCAnLW1hJywgJzIwMCcsICctbWV0YWxfYmluZGluZycsICctaW1hZScsICc8aW5maWxlLm1hZT4nLCAnLW9tYWUnLCAnPG91dGZpbGUubWFlPic=

> <r_lp_tautomer_probability>
1

> <r_epik_Ionization_Penalty>
1.03571

> <r_epik_Ionization_Penalty_Charging>
1.03568

> <r_epik_Ionization_Penalty_Neutral>
3.18232e-05

> <r_epik_State_Penalty>
1.08724

> <r_epik_Charging_Adjusted_Penalty>
2.12292

> <i_epik_Tot_Q>
1

> <i_epik_Tot_abs_Q>
1

> <r_epik_Metal_State_Penalty>
1.18374

> <b_epik_Metal_Only>
0

> <s_lp_Force_Field>
OPLS_2005

> <r_lp_Energy>
24.5117

> <b_lp_Chiralities_Consistent>
1

> <s_lp_Variant>
AV-unprocessed.smi:2410-4

> <Gold.Version>
5.8.1

> <Gold.Id.Protein>
6NUR|6NUR_protein|mol2

> <Gold.PLP.Fitness>
52.5608

> <Gold.PLP.PLP>
-42.1703

> <Gold.PLP.part.hbond>
-3.0000

> <Gold.PLP.part.metal>
0.0000

> <Gold.PLP.part.buried>
-5.7573

> <Gold.PLP.part.nonpolar>
-34.0184

> <Gold.PLP.part.repulsive>
0.1495

> <Gold.PLP.ligand.clash>
0.0000

> <Gold.PLP.ligand.torsion>
0.6178

> <Gold.PLP.Chemscore.Hbond>
3.8564

> <Gold.PLP.Chemscore.CHOScore>
0.0000

> <Gold.PLP.Chemscore.Metal>
0.0000

> <Gold.Chemscore.Hbonds>
donor molecule, donor type, donor heavy atom, donor atom, acceptor molecule, acceptor atom, score
      L1  H     5    47       P1  8028  1.82
      P1  H  6896  6909       L1    14  0.60
      P1  H  7989  7998       L1    10  0.93

> <Gold.PLP.Chemscore.Internal.Correction>
0.0567

> <Gold.Rescore>
     Score         DG    S(hbond)    S(metal)    S(lipo)     H(rot)  DE(clash)    DE(int)     intcor
     19.99     -20.73       2.66        0.00     107.12       2.41       0.11       0.63       ----

> <Gold.Chemscore.Fitness>
19.9925

> <Gold.Chemscore.DG>
-20.7298

> <Gold.Chemscore.ZeroCoef>
-5.4800

> <Gold.Chemscore.Hbond>
2.6567

> <Gold.Chemscore.Metal>
0.0000

> <Gold.Chemscore.Lipo>
107.1246

> <Gold.Chemscore.Internal_Hbond>
0.0000

> <Gold.Chemscore.DEClash>
0.1095

> <Gold.Chemscore.DEInternal>
0.6277

> <Gold.Chemscore.Rot>
2.4052

> <Gold.Chemscore.Internal.Correction>
   9.000000E+99

> <Gold.Chemscore.Hbonds>
donor molecule, donor type, donor heavy atom, donor atom, acceptor molecule, acceptor atom, score
      L1  H     5    47       P1  8028  0.87
      P1  H  6896  6909       L1    14  0.03
      P1  H  7989  7998       L1    10  0.87

> <Gold.Chemscore.Hbond.Weighted>
-8.8735

> <Gold.Chemscore.Metal.Weighted>
-0.0000

> <Gold.Chemscore.Lipo.Weighted>
-12.5336

> <Gold.Chemscore.Internal_Hbond.Weighted>
0.0000

> <Gold.Chemscore.DEClash.Weighted>
0.1095

> <Gold.Chemscore.DEInternal.Weighted>
0.6277

> <Gold.Chemscore.Rot.Weighted>
6.1573

> <Gold.Chemscore.Internal.Correction.Weighted>
   9.000000E+99

> <Gold.Protein.RotatedTorsions>
[ 6907 6896 6895 6894 ] final   92.00 input  -60.11 | X-H torsion
[ 7974 7965 7964 7962 ] final -166.31 input  175.53 | X-H torsion
[ 8008 7997 7996 7995 ] final  114.22 input   59.86 | X-H torsion
[ 10167 10162 10161 10158 ] final   13.17 input  -65.29 | X-H torsion
[ 10718 10713 10712 10709 ] final   60.01 input   66.30 | X-H torsion
[ 10763 10752 10751 10750 ] final   75.70 input  -60.55 | X-H torsion
[ 11005 11000 10999 10996 ] final  -40.37 input  -57.11 | X-H torsion

> <Gold.Protein.ActiveResidues>
 VAL166  LYS551  ARG553  GLY616  TRP617  ASP618  TYR619  PRO620  LYS621  CYS622 
 ASP623  PHE694  ASN695  SER759  ASP760  ASP761  ALA762  ILE779  LEU786  VAL792 
 PHE793  MET794  SER795  GLU796  ALA797  LYS798  CYS799  TRP800  GLU811  SER814 

> <Gold.Protein.RotatedAtoms>
  152.5452  134.1570  159.8541 H   0  0  0  0  0  0  0  0  0  0  0  0  # atno 6907 bound_to 6896
  151.1591  133.4849  159.2602 H   0  0  0  0  0  0  0  0  0  0  0  0  # atno 6908 bound_to 6896
  151.1391  135.0181  159.8672 H   0  0  0  0  0  0  0  0  0  0  0  0  # atno 6909 bound_to 6896
  144.7248  140.2686  143.6254 H   0  0  0  0  0  0  0  0  0  0  0  0  # atno 7974 bound_to 7965
  156.2307  140.2963  156.0182 H   0  0  0  0  0  0  0  0  0  0  0  0  # atno 8008 bound_to 7997
  155.2232  140.0416  157.2968 H   0  0  0  0  0  0  0  0  0  0  0  0  # atno 8009 bound_to 7997
  154.5992  140.2422  155.7824 H   0  0  0  0  0  0  0  0  0  0  0  0  # atno 8010 bound_to 7997
  140.6020  143.8585  150.6975 H   0  0  0  0  0  0  0  0  0  0  0  0  # atno 10167 bound_to 10162
  157.5720  130.8915  149.9283 H   0  0  0  0  0  0  0  0  0  0  0  0  # atno 10718 bound_to 10713
  153.0673  135.4979  154.8227 H   0  0  0  0  0  0  0  0  0  0  0  0  # atno 10763 bound_to 10752
  154.6972  135.2995  154.9397 H   0  0  0  0  0  0  0  0  0  0  0  0  # atno 10764 bound_to 10752
  154.0133  135.6751  153.4819 H   0  0  0  0  0  0  0  0  0  0  0  0  # atno 10765 bound_to 10752
  141.0169  133.6881  156.2312 H   0  0  0  0  0  0  0  0  0  0  0  0  # atno 11005 bound_to 11000
  145.8065  139.1985  143.2017 LP  0  0  0  0  0  0  0  0  0  0  0  0  # atno 17320 bound_to 7965
  146.0632  140.7948  142.9724 LP  0  0  0  0  0  0  0  0  0  0  0  0  # atno 17321 bound_to 7965
  140.2133  143.3866  152.1701 LP  0  0  0  0  0  0  0  0  0  0  0  0  # atno 17342 bound_to 10162
  139.5298  144.7145  151.5098 LP  0  0  0  0  0  0  0  0  0  0  0  0  # atno 17343 bound_to 10162
  156.0765  130.3678  150.0667 LP  0  0  0  0  0  0  0  0  0  0  0  0  # atno 17370 bound_to 10713
  156.8818  130.9559  151.3598 LP  0  0  0  0  0  0  0  0  0  0  0  0  # atno 17371 bound_to 10713
  140.6639  134.4939  157.5584 LP  0  0  0  0  0  0  0  0  0  0  0  0  # atno 17394 bound_to 11000
  139.9122  134.8320  156.1487 LP  0  0  0  0  0  0  0  0  0  0  0  0  # atno 17395 bound_to 11000

$$$$
