AV-unprocessed.smi:37|AV-procd|sdf|324|dock8
  -GOLD-   2262016153D 1   1.00000     0.00000
 Structure written by MMmdl.
 43 44  0  0  0  0  0  0  0  0  2 V2000
  151.5605  144.9131  158.7891 C   0  0  0  0  0  0  0  0  0  0  0  0
  152.8379  144.1008  159.0487 C   0  0  0  0  0  0  0  0  0  0  0  0
  152.5801  142.6117  159.2898 C   0  0  0  0  0  0  0  0  0  0  0  0
  152.9244  142.0402  160.3261 O   0  0  0  0  0  0  0  0  0  0  0  0
  151.9519  142.0385  158.2528 O   0  0  0  0  0  0  0  0  0  0  0  0
  151.4314  140.7266  158.3861 C   0  0  0  0  0  0  0  0  0  0  0  0
  151.9431  139.8557  157.2295 C   0  0  1  0  0  0  0  0  0  0  0  0
  151.6619  138.4727  157.4462 O   0  0  0  0  0  0  0  0  0  0  0  0
  151.3374  137.8362  156.2421 C   0  0  1  0  0  0  0  0  0  0  0  0
  149.8935  137.3710  156.2908 N   0  0  0  0  0  0  0  0  0  0  0  0
  148.9769  137.7436  155.3196 C   0  0  0  0  0  0  0  0  0  0  0  0
  147.7015  137.3080  155.3557 C   0  0  0  0  0  0  0  0  0  0  0  0
  146.8405  137.6785  154.3922 F   0  0  0  0  0  0  0  0  0  0  0  0
  147.2671  136.4320  156.4415 C   0  0  0  0  0  0  0  0  0  0  0  0
  146.1034  136.0343  156.4670 O   0  0  0  0  0  0  0  0  0  0  0  0
  148.1853  136.0906  157.3910 N   0  5  0  0  0  0  0  0  0  0  0  0
  149.4783  136.5269  157.3571 C   0  0  0  0  0  0  0  0  0  0  0  0
  150.3143  136.2205  158.2074 O   0  0  0  0  0  0  0  0  0  0  0  0
  151.5290  138.8693  155.1212 C   0  0  2  0  0  0  0  0  0  0  0  0
  153.3922  138.7556  154.4249 Br  0  0  0  0  0  0  0  0  0  0  0  0
  151.3444  140.1850  155.8577 C   0  0  1  0  0  0  0  0  0  0  0  0
  149.9596  140.4895  155.9864 O   0  0  0  0  0  0  0  0  0  0  0  0
  149.2711  141.0254  154.9653 C   0  0  0  0  0  0  0  0  0  0  0  0
  149.6539  141.1036  153.7981 O   0  0  0  0  0  0  0  0  0  0  0  0
  147.8881  141.5193  155.3864 C   0  0  0  0  0  0  0  0  0  0  0  0
  147.0947  142.1225  154.2187 C   0  0  0  0  0  0  0  0  0  0  0  0
  151.8012  145.9641  158.6291 H   0  0  0  0  0  0  0  0  0  0  0  0
  150.8734  144.8576  159.6342 H   0  0  0  0  0  0  0  0  0  0  0  0
  151.0357  144.5564  157.9021 H   0  0  0  0  0  0  0  0  0  0  0  0
  153.5155  144.2020  158.2006 H   0  0  0  0  0  0  0  0  0  0  0  0
  153.3581  144.5047  159.9175 H   0  0  0  0  0  0  0  0  0  0  0  0
  151.7138  140.2999  159.3492 H   0  0  0  0  0  0  0  0  0  0  0  0
  150.3420  140.7740  158.3549 H   0  0  0  0  0  0  0  0  0  0  0  0
  153.0265  139.9587  157.1551 H   0  0  0  0  0  0  0  0  0  0  0  0
  151.9258  136.9256  156.1190 H   0  0  0  0  0  0  0  0  0  0  0  0
  149.2729  138.3857  154.5048 H   0  0  0  0  0  0  0  0  0  0  0  0
  150.8489  138.7205  154.2819 H   0  0  0  0  0  0  0  0  0  0  0  0
  151.8719  141.0113  155.3789 H   0  0  0  0  0  0  0  0  0  0  0  0
  147.3341  140.6838  155.8149 H   0  0  0  0  0  0  0  0  0  0  0  0
  148.0069  142.2595  156.1785 H   0  0  0  0  0  0  0  0  0  0  0  0
  146.0887  142.3926  154.5395 H   0  0  0  0  0  0  0  0  0  0  0  0
  147.0004  141.4154  153.3938 H   0  0  0  0  0  0  0  0  0  0  0  0
  147.5702  143.0271  153.8368 H   0  0  0  0  0  0  0  0  0  0  0  0
  1  2  1  0  0  0  0
  1 27  1  0  0  0  0
  1 28  1  0  0  0  0
  1 29  1  0  0  0  0
  2  3  1  0  0  0  0
  2 30  1  0  0  0  0
  2 31  1  0  0  0  0
  3  4  2  0  0  0  0
  3  5  1  0  0  0  0
  5  6  1  0  0  0  0
  6  7  1  0  0  0  0
  6 32  1  0  0  0  0
  6 33  1  0  0  0  0
  7 21  1  0  0  0  0
  7  8  1  0  0  0  0
  7 34  1  0  0  0  0
  8  9  1  0  0  0  0
  9 10  1  0  0  0  0
  9 19  1  0  0  0  0
  9 35  1  0  0  0  0
 10 17  1  0  0  0  0
 10 11  1  0  0  0  0
 11 12  2  0  0  0  0
 11 36  1  0  0  0  0
 12 13  1  0  0  0  0
 12 14  1  0  0  0  0
 14 15  2  0  0  0  0
 14 16  1  0  0  0  0
 16 17  1  0  0  0  0
 17 18  2  0  0  0  0
 19 20  1  0  0  0  0
 19 21  1  0  0  0  0
 19 37  1  0  0  0  0
 21 22  1  0  0  0  0
 21 38  1  0  0  0  0
 22 23  1  0  0  0  0
 23 24  2  0  0  0  0
 23 25  1  0  0  0  0
 25 26  1  0  0  0  0
 25 39  1  0  0  0  0
 25 40  1  0  0  0  0
 26 41  1  0  0  0  0
 26 42  1  0  0  0  0
 26 43  1  0  0  0  0
M  CHG  1  16  -1
M  END
> <s_m_source_file>
AV-unprocessed.smi

> <i_m_source_file_index>
37

> <i_lp_mmshare_version>
43012

> <i_f3d_flags>
0

> <s_epik_input>
W0NIM11bQ0gyXUMoPU8pT1tDSDJdW0NAQEhdMU9bQ0BASF0objJbY0hdYyhGKWMoPU8pW25IXWMyPU8pW0NAQEhdKEJyKVtDQEhdMU9DKD1PKVtDSDJdW0NIM10=

> <s_epik_cmdline>
J2VwaWtfcHl0aG9uJywgJy1waCcsICc3LjAnLCAnLXRuJywgJzgnLCAnLW1hJywgJzIwMCcsICctbWV0YWxfYmluZGluZycsICctaW1hZScsICc8aW5maWxlLm1hZT4nLCAnLW9tYWUnLCAnPG91dGZpbGUubWFlPic=

> <r_epik_Ionization_Penalty>
1.08158

> <r_epik_Ionization_Penalty_Charging>
9.05154e-09

> <r_epik_Ionization_Penalty_Neutral>
1.08158

> <r_epik_State_Penalty>
1.13706

> <r_epik_Charging_Adjusted_Penalty>
1.13706

> <i_epik_Tot_Q>
-1

> <i_epik_Tot_abs_Q>
1

> <r_epik_Metal_State_Penalty>
0.00343535

> <b_epik_Metal_Only>
0

> <s_epik_Chemistry_Notes>
This compound has an ester and may undergo hydrolysis at high or low pH. This compound contains an acetal/aminal-like group ( X-CH(R)-Y where X, Y are N, S, or O) that may be acid/base labile, releasing an aldehyde.

> <s_lp_Force_Field>
OPLS_2005

> <r_lp_Energy>
30.833

> <b_lp_Chiralities_Consistent>
1

> <s_lp_Variant>
AV-unprocessed.smi:37-22

> <Gold.Version>
5.8.1

> <Gold.Id.Protein>
6NUR|6NUR_protein|mol2

> <Gold.PLP.Fitness>
42.1503

> <Gold.PLP.PLP>
-36.9183

> <Gold.PLP.part.hbond>
-3.0000

> <Gold.PLP.part.metal>
0.0000

> <Gold.PLP.part.buried>
-6.5061

> <Gold.PLP.part.nonpolar>
-30.1741

> <Gold.PLP.part.repulsive>
2.4386

> <Gold.PLP.ligand.clash>
0.0000

> <Gold.PLP.ligand.torsion>
0.8499

> <Gold.PLP.Chemscore.Hbond>
2.2720

> <Gold.PLP.Chemscore.CHOScore>
0.0000

> <Gold.PLP.Chemscore.Metal>
0.0000

> <Gold.Chemscore.Hbonds>
donor molecule, donor type, donor heavy atom, donor atom, acceptor molecule, acceptor atom, score
      P1  H  6896  6908       L1    18  0.79
      P1  H  7989  7998       L1    24  0.32
      P1  H  8011  8017       L1    24  0.90

> <Gold.PLP.Chemscore.Internal.Correction>
0.1157

> <Gold.Rescore>
     Score         DG    S(hbond)    S(metal)    S(lipo)     H(rot)  DE(clash)    DE(int)     intcor
      8.68     -13.35       2.15        0.00      77.41       3.27       1.34       3.33       ----

> <Gold.Chemscore.Fitness>
8.6804

> <Gold.Chemscore.DG>
-13.3516

> <Gold.Chemscore.ZeroCoef>
-5.4800

> <Gold.Chemscore.Hbond>
2.1492

> <Gold.Chemscore.Metal>
0.0000

> <Gold.Chemscore.Lipo>
77.4082

> <Gold.Chemscore.Internal_Hbond>
0.0000

> <Gold.Chemscore.DEClash>
1.3398

> <Gold.Chemscore.DEInternal>
3.3314

> <Gold.Chemscore.Rot>
3.2669

> <Gold.Chemscore.Internal.Correction>
   9.000000E+99

> <Gold.Chemscore.Hbonds>
donor molecule, donor type, donor heavy atom, donor atom, acceptor molecule, acceptor atom, score
      P1  H  6896  6908       L1    18  0.75
      P1  H  7989  7998       L1    24  0.29
      P1  H  8011  8017       L1    24  0.87

> <Gold.Chemscore.Hbond.Weighted>
-7.1782

> <Gold.Chemscore.Metal.Weighted>
-0.0000

> <Gold.Chemscore.Lipo.Weighted>
-9.0568

> <Gold.Chemscore.Internal_Hbond.Weighted>
0.0000

> <Gold.Chemscore.DEClash.Weighted>
1.3398

> <Gold.Chemscore.DEInternal.Weighted>
3.3314

> <Gold.Chemscore.Rot.Weighted>
8.3634

> <Gold.Chemscore.Internal.Correction.Weighted>
   9.000000E+99

> <Gold.Protein.RotatedTorsions>
[ 6907 6896 6895 6894 ] final -168.13 input  -60.11 | X-H torsion
[ 7974 7965 7964 7962 ] final   82.30 input  175.53 | X-H torsion
[ 8008 7997 7996 7995 ] final  -82.79 input   59.86 | X-H torsion
[ 10167 10162 10161 10158 ] final -178.55 input  -65.29 | X-H torsion
[ 10718 10713 10712 10709 ] final  -18.94 input   66.30 | X-H torsion
[ 10763 10752 10751 10750 ] final  -51.34 input  -60.55 | X-H torsion
[ 11005 11000 10999 10996 ] final  -73.91 input  -57.11 | X-H torsion

> <Gold.Protein.ActiveResidues>
 VAL166  LYS551  ARG553  GLY616  TRP617  ASP618  TYR619  PRO620  LYS621  CYS622 
 ASP623  PHE694  ASN695  SER759  ASP760  ASP761  ALA762  ILE779  LEU786  VAL792 
 PHE793  MET794  SER795  GLU796  ALA797  LYS798  CYS799  TRP800  GLU811  SER814 

> <Gold.Protein.RotatedAtoms>
  151.4706  133.3570  159.2822 H   0  0  0  0  0  0  0  0  0  0  0  0  # atno 6907 bound_to 6896
  150.8963  134.8373  159.7340 H   0  0  0  0  0  0  0  0  0  0  0  0  # atno 6908 bound_to 6896
  152.4853  134.4622  159.9660 H   0  0  0  0  0  0  0  0  0  0  0  0  # atno 6909 bound_to 6896
  145.6269  139.2397  143.2107 H   0  0  0  0  0  0  0  0  0  0  0  0  # atno 7974 bound_to 7965
  154.6122  140.0628  156.9509 H   0  0  0  0  0  0  0  0  0  0  0  0  # atno 8008 bound_to 7997
  155.1954  140.3310  155.4333 H   0  0  0  0  0  0  0  0  0  0  0  0  # atno 8009 bound_to 7997
  156.2383  140.1874  156.7041 H   0  0  0  0  0  0  0  0  0  0  0  0  # atno 8010 bound_to 7997
  139.5427  144.2319  152.0927 H   0  0  0  0  0  0  0  0  0  0  0  0  # atno 10167 bound_to 10162
  156.5526  130.4705  149.6445 H   0  0  0  0  0  0  0  0  0  0  0  0  # atno 10718 bound_to 10713
  154.1250  135.6529  153.4910 H   0  0  0  0  0  0  0  0  0  0  0  0  # atno 10763 bound_to 10752
  153.0213  135.5279  154.7059 H   0  0  0  0  0  0  0  0  0  0  0  0  # atno 10764 bound_to 10752
  154.6277  135.2972  155.0223 H   0  0  0  0  0  0  0  0  0  0  0  0  # atno 10765 bound_to 10752
  141.1629  133.6894  156.7285 H   0  0  0  0  0  0  0  0  0  0  0  0  # atno 11005 bound_to 11000
  146.1387  140.7087  142.9377 LP  0  0  0  0  0  0  0  0  0  0  0  0  # atno 17320 bound_to 7965
  144.7209  140.4369  143.7009 LP  0  0  0  0  0  0  0  0  0  0  0  0  # atno 17321 bound_to 7965
  140.1801  144.4853  150.6533 LP  0  0  0  0  0  0  0  0  0  0  0  0  # atno 17342 bound_to 10162
  140.6663  143.2269  151.5734 LP  0  0  0  0  0  0  0  0  0  0  0  0  # atno 17343 bound_to 10162
  156.2871  130.7103  151.1943 LP  0  0  0  0  0  0  0  0  0  0  0  0  # atno 17370 bound_to 10713
  157.7384  131.0540  150.5293 LP  0  0  0  0  0  0  0  0  0  0  0  0  # atno 17371 bound_to 10713
  140.2763  134.8352  157.3893 LP  0  0  0  0  0  0  0  0  0  0  0  0  # atno 17394 bound_to 11000
  140.1474  134.4893  155.7986 LP  0  0  0  0  0  0  0  0  0  0  0  0  # atno 17395 bound_to 11000

$$$$
