AV-unprocessed.smi:160|AV-procd|sdf|1359|dock10
  -GOLD-   2262019 63D 1   1.00000     0.00000
 Structure written by MMmdl.
 28 29  0  0  0  0  0  0  0  0  2 V2000
  153.5782  139.3712  158.1357 N   0  5  0  0  0  0  0  0  0  0  0  0
  152.8044  140.4176  158.4986 C   0  0  0  0  0  0  0  0  0  0  0  0
  152.8544  141.0233  159.5685 O   0  0  0  0  0  0  0  0  0  0  0  0
  151.8003  140.8451  157.4548 C   0  0  0  0  0  0  0  0  0  0  0  0
  150.9897  141.9266  157.6662 N   0  0  0  0  0  0  0  0  0  0  0  0
  150.3102  141.9090  156.5269 C   0  0  0  0  0  0  0  0  0  0  0  0
  150.6684  140.9302  155.6911 N   0  0  0  0  0  0  0  0  0  0  0  0
  150.1243  140.5659  154.3474 C   0  0  2  0  0  0  0  0  0  0  0  0
  149.1641  141.5251  154.0158 O   0  0  0  0  0  0  0  0  0  0  0  0
  147.8870  140.9258  153.8023 C   0  0  2  0  0  0  0  0  0  0  0  0
  146.7872  141.8625  154.3261 C   0  0  0  0  0  0  0  0  0  0  0  0
  147.0676  143.1971  153.9613 O   0  0  0  0  0  0  0  0  0  0  0  0
  147.9652  139.5987  154.5604 C   0  0  1  0  0  0  0  0  0  0  0  0
  147.0673  138.6195  154.0705 O   0  0  0  0  0  0  0  0  0  0  0  0
  149.4259  139.1998  154.3940 C   0  0  1  0  0  0  0  0  0  0  0  0
  149.6650  138.4726  153.2027 O   0  0  0  0  0  0  0  0  0  0  0  0
  151.6450  140.2065  156.2912 N   0  0  0  0  0  0  0  0  0  0  0  0
  150.9883  140.6048  153.6824 H   0  0  0  0  0  0  0  0  0  0  0  0
  147.7678  140.7265  152.7354 H   0  0  0  0  0  0  0  0  0  0  0  0
  147.7542  139.7652  155.6175 H   0  0  0  0  0  0  0  0  0  0  0  0
  149.7861  138.6019  155.2328 H   0  0  0  0  0  0  0  0  0  0  0  0
  154.1370  138.9029  158.8588 H   0  0  0  0  0  0  0  0  0  0  0  0
  149.5345  142.6246  156.2973 H   0  0  0  0  0  0  0  0  0  0  0  0
  145.8266  141.5997  153.8830 H   0  0  0  0  0  0  0  0  0  0  0  0
  146.6780  141.7772  155.4079 H   0  0  0  0  0  0  0  0  0  0  0  0
  147.5887  143.5908  154.6444 H   0  0  0  0  0  0  0  0  0  0  0  0
  147.5412  138.0433  153.4907 H   0  0  0  0  0  0  0  0  0  0  0  0
  149.5643  139.0641  152.4724 H   0  0  0  0  0  0  0  0  0  0  0  0
  1  2  1  0  0  0  0
  1 22  1  0  0  0  0
  2  3  2  0  0  0  0
  2  4  1  0  0  0  0
  4 17  2  0  0  0  0
  4  5  1  0  0  0  0
  5  6  2  0  0  0  0
  6  7  1  0  0  0  0
  6 23  1  0  0  0  0
  7  8  1  0  0  0  0
  7 17  1  0  0  0  0
  8 18  1  0  0  0  0
  8 15  1  0  0  0  0
  8  9  1  0  0  0  0
  9 10  1  0  0  0  0
 10 19  1  0  0  0  0
 10 11  1  0  0  0  0
 10 13  1  0  0  0  0
 11 12  1  0  0  0  0
 11 24  1  0  0  0  0
 11 25  1  0  0  0  0
 12 26  1  0  0  0  0
 13 20  1  0  0  0  0
 13 14  1  0  0  0  0
 13 15  1  0  0  0  0
 14 27  1  0  0  0  0
 15 21  1  0  0  0  0
 15 16  1  0  0  0  0
 16 28  1  0  0  0  0
M  CHG  1   1  -1
M  END
> <s_m_source_file>
AV-unprocessed.smi

> <i_m_source_file_index>
160

> <i_lp_mmshare_version>
43012

> <i_f3d_flags>
0

> <s_epik_input>
W05IMl1DKD1PKWMxbltjSF1uKG4xKVtDQEBIXTJPW0NASF0oW0NIMl1bT0hdKVtDQEBIXShbT0hdKVtDQEhdMltPSF0=

> <s_epik_cmdline>
J2VwaWtfcHl0aG9uJywgJy1waCcsICc3LjAnLCAnLXRuJywgJzgnLCAnLW1hJywgJzIwMCcsICctbWV0YWxfYmluZGluZycsICctaW1hZScsICc8aW5maWxlLm1hZT4nLCAnLW9tYWUnLCAnPG91dGZpbGUubWFlPic=

> <r_lp_tautomer_probability>
1

> <r_epik_Ionization_Penalty>
6.6993

> <r_epik_Ionization_Penalty_Charging>
6.6993

> <r_epik_Ionization_Penalty_Neutral>
6.01698e-06

> <r_epik_State_Penalty>
6.69929

> <r_epik_Charging_Adjusted_Penalty>
13.3986

> <i_epik_Tot_Q>
-1

> <i_epik_Tot_abs_Q>
1

> <r_epik_Metal_State_Penalty>
2.62798

> <b_epik_Metal_Only>
1

> <s_epik_Chemistry_Notes>
This compound contains an acetal/aminal-like group ( X-CH(R)-Y where X, Y are N, S, or O) that may be acid/base labile, releasing an aldehyde.

> <s_lp_Force_Field>
OPLS_2005

> <r_lp_Energy>
41.4703

> <b_lp_Chiralities_Consistent>
1

> <s_lp_Variant>
AV-unprocessed.smi:160-17

> <Gold.Version>
5.8.1

> <Gold.Id.Protein>
6NUR|6NUR_protein|mol2

> <Gold.PLP.Fitness>
42.8901

> <Gold.PLP.PLP>
-26.3200

> <Gold.PLP.part.hbond>
-6.8604

> <Gold.PLP.part.metal>
0.0000

> <Gold.PLP.part.buried>
0.4933

> <Gold.PLP.part.nonpolar>
-19.4547

> <Gold.PLP.part.repulsive>
0.2335

> <Gold.PLP.ligand.clash>
0.0000

> <Gold.PLP.ligand.torsion>
0.2255

> <Gold.PLP.Chemscore.Hbond>
4.6661

> <Gold.PLP.Chemscore.CHOScore>
1.0000

> <Gold.PLP.Chemscore.Metal>
0.0000

> <Gold.Chemscore.Hbonds>
donor molecule, donor type, donor heavy atom, donor atom, acceptor molecule, acceptor atom, score
      L1  H    12    26       P1  8028  0.95
      L1  H    16    28       P1  7957  1.00
      P1  H  7997  8008       L1     1  2.00
      P1  H  8011  8017       L1     9  0.67
      L1  C     6    23       P1  8028  1.00

> <Gold.PLP.Chemscore.Internal.Correction>
0.0227

> <Gold.Rescore>
     Score         DG    S(hbond)    S(metal)    S(lipo)     H(rot)  DE(clash)    DE(int)     intcor
      4.94      -7.08       2.72        0.00      24.38       4.04       1.82       0.32       ----

> <Gold.Chemscore.Fitness>
4.9437

> <Gold.Chemscore.DG>
-7.0802

> <Gold.Chemscore.ZeroCoef>
-5.4800

> <Gold.Chemscore.Hbond>
2.7217

> <Gold.Chemscore.Metal>
0.0000

> <Gold.Chemscore.Lipo>
24.3834

> <Gold.Chemscore.Internal_Hbond>
0.0000

> <Gold.Chemscore.DEClash>
1.8198

> <Gold.Chemscore.DEInternal>
0.3167

> <Gold.Chemscore.Rot>
4.0403

> <Gold.Chemscore.Internal.Correction>
   9.000000E+99

> <Gold.Chemscore.Hbonds>
donor molecule, donor type, donor heavy atom, donor atom, acceptor molecule, acceptor atom, score
      L1  H    12    26       P1  8028  0.21
      L1  H    16    28       P1  7957  0.90
      P1  H  7997  8008       L1     1  0.20
      P1  H  8011  8017       L1     9  0.29

> <Gold.Chemscore.Hbond.Weighted>
-9.0904

> <Gold.Chemscore.Metal.Weighted>
-0.0000

> <Gold.Chemscore.Lipo.Weighted>
-2.8529

> <Gold.Chemscore.Internal_Hbond.Weighted>
0.0000

> <Gold.Chemscore.DEClash.Weighted>
1.8198

> <Gold.Chemscore.DEInternal.Weighted>
0.3167

> <Gold.Chemscore.Rot.Weighted>
10.3431

> <Gold.Chemscore.Internal.Correction.Weighted>
   9.000000E+99

> <Gold.Protein.RotatedTorsions>
[ 6907 6896 6895 6894 ] final   32.54 input  -60.11 | X-H torsion
[ 7974 7965 7964 7962 ] final  129.79 input  175.53 | X-H torsion
[ 8008 7997 7996 7995 ] final  -94.54 input   59.86 | X-H torsion
[ 10167 10162 10161 10158 ] final   45.35 input  -65.29 | X-H torsion
[ 10718 10713 10712 10709 ] final  167.86 input   66.30 | X-H torsion
[ 10763 10752 10751 10750 ] final  155.00 input  -60.55 | X-H torsion
[ 11005 11000 10999 10996 ] final   79.45 input  -57.11 | X-H torsion

> <Gold.Protein.ActiveResidues>
 VAL166  LYS551  ARG553  GLY616  TRP617  ASP618  TYR619  PRO620  LYS621  CYS622 
 ASP623  PHE694  ASN695  SER759  ASP760  ASP761  ALA762  ILE779  LEU786  VAL792 
 PHE793  MET794  SER795  GLU796  ALA797  LYS798  CYS799  TRP800  GLU811  SER814 

> <Gold.Protein.RotatedAtoms>
  152.0758  134.9503  160.0573 H   0  0  0  0  0  0  0  0  0  0  0  0  # atno 6907 bound_to 6896
  152.0811  133.4148  159.4510 H   0  0  0  0  0  0  0  0  0  0  0  0  # atno 6908 bound_to 6896
  150.6836  134.2900  159.4706 H   0  0  0  0  0  0  0  0  0  0  0  0  # atno 6909 bound_to 6896
  145.0249  139.4098  143.5179 H   0  0  0  0  0  0  0  0  0  0  0  0  # atno 7974 bound_to 7965
  154.7497  140.0488  157.0883 H   0  0  0  0  0  0  0  0  0  0  0  0  # atno 8008 bound_to 7997
  155.0072  140.3131  155.4824 H   0  0  0  0  0  0  0  0  0  0  0  0  # atno 8009 bound_to 7997
  156.2882  140.2190  156.5185 H   0  0  0  0  0  0  0  0  0  0  0  0  # atno 8010 bound_to 7997
  140.3250  144.2659  150.6176 H   0  0  0  0  0  0  0  0  0  0  0  0  # atno 10167 bound_to 10162
  157.0454  131.0298  151.2699 H   0  0  0  0  0  0  0  0  0  0  0  0  # atno 10718 bound_to 10713
  154.1613  135.2809  155.3108 H   0  0  0  0  0  0  0  0  0  0  0  0  # atno 10763 bound_to 10752
  154.6145  135.5488  153.7511 H   0  0  0  0  0  0  0  0  0  0  0  0  # atno 10764 bound_to 10752
  153.0191  135.6423  154.1755 H   0  0  0  0  0  0  0  0  0  0  0  0  # atno 10765 bound_to 10752
  139.9172  134.7843  156.1780 H   0  0  0  0  0  0  0  0  0  0  0  0  # atno 11005 bound_to 11000
  146.3490  139.9767  142.8700 LP  0  0  0  0  0  0  0  0  0  0  0  0  # atno 17320 bound_to 7965
  145.1847  140.9784  143.4246 LP  0  0  0  0  0  0  0  0  0  0  0  0  # atno 17321 bound_to 7965
  140.5449  143.2216  151.8023 LP  0  0  0  0  0  0  0  0  0  0  0  0  # atno 17342 bound_to 10162
  139.4867  144.4552  151.9606 LP  0  0  0  0  0  0  0  0  0  0  0  0  # atno 17343 bound_to 10162
  157.5072  130.7916  149.7666 LP  0  0  0  0  0  0  0  0  0  0  0  0  # atno 17370 bound_to 10713
  156.0024  130.3873  150.2554 LP  0  0  0  0  0  0  0  0  0  0  0  0  # atno 17371 bound_to 10713
  141.0660  133.6819  156.2045 LP  0  0  0  0  0  0  0  0  0  0  0  0  # atno 17394 bound_to 11000
  140.6585  134.4993  157.5582 LP  0  0  0  0  0  0  0  0  0  0  0  0  # atno 17395 bound_to 11000

$$$$
