AV-unprocessed.smi:1056|AV-procd|sdf|4630|dock7
  -GOLD-   22720 3133D 1   1.00000     0.00000
 Structure written by MMmdl.
 45 47  0  0  0  0  0  0  0  0  2 V2000
  152.8820  142.4507  160.7387 C   0  0  0  0  0  0  0  0  0  0  0  0
  152.1784  142.1886  159.4188 C   0  0  0  0  0  0  0  0  0  0  0  0
  152.6973  141.2053  158.5467 C   0  0  0  0  0  0  0  0  0  0  0  0
  152.0713  140.9300  157.3116 C   0  0  0  0  0  0  0  0  0  0  0  0
  152.4016  140.0236  156.3186 N   0  0  0  0  0  0  0  0  0  0  0  0
  151.4397  140.2396  155.4270 C   0  0  0  0  0  0  0  0  0  0  0  0
  150.5254  141.1834  155.7227 N   0  0  0  0  0  0  0  0  0  0  0  0
  149.3937  141.5864  154.9082 C   0  0  0  0  0  0  0  0  0  0  0  0
  148.4965  140.3950  154.5153 C   0  0  2  0  0  0  0  0  0  0  0  0
  149.1735  139.5888  153.5721 O   0  0  0  0  0  0  0  0  0  0  0  0
  147.1618  140.8379  153.8831 C   0  0  0  0  0  0  0  0  0  0  0  0
  146.0544  139.8877  154.1570 N   0  3  2  0  0  0  0  0  0  0  0  0
  145.6672  139.8158  155.5861 C   0  0  0  0  0  0  0  0  0  0  0  0
  144.3797  138.9875  155.7445 C   0  0  0  0  0  0  0  0  0  0  0  0
  144.3767  137.7733  154.9316 N   0  0  0  0  0  0  0  0  0  0  0  0
  145.2250  137.5080  153.9247 C   0  0  0  0  0  0  0  0  0  0  0  0
  145.1538  136.4676  153.2762 O   0  0  0  0  0  0  0  0  0  0  0  0
  146.3107  138.5408  153.5860 C   0  0  0  0  0  0  0  0  0  0  0  0
  150.9026  141.6716  156.9695 C   0  0  0  0  0  0  0  0  0  0  0  0
  150.3780  142.6540  157.8277 C   0  0  0  0  0  0  0  0  0  0  0  0
  151.0150  142.9153  159.0589 C   0  0  0  0  0  0  0  0  0  0  0  0
  150.4381  143.9743  159.9817 C   0  0  0  0  0  0  0  0  0  0  0  0
  153.7681  141.8249  160.8494 H   0  0  0  0  0  0  0  0  0  0  0  0
  152.2153  142.2380  161.5746 H   0  0  0  0  0  0  0  0  0  0  0  0
  153.1988  143.4918  160.8036 H   0  0  0  0  0  0  0  0  0  0  0  0
  153.5830  140.6514  158.8212 H   0  0  0  0  0  0  0  0  0  0  0  0
  151.3975  139.6807  154.5036 H   0  0  0  0  0  0  0  0  0  0  0  0
  148.8228  142.3248  155.4725 H   0  0  0  0  0  0  0  0  0  0  0  0
  149.7650  142.0965  154.0186 H   0  0  0  0  0  0  0  0  0  0  0  0
  148.3125  139.7725  155.3908 H   0  0  0  0  0  0  0  0  0  0  0  0
  149.3454  140.1061  152.7994 H   0  0  0  0  0  0  0  0  0  0  0  0
  146.9028  141.8205  154.2815 H   0  0  0  0  0  0  0  0  0  0  0  0
  147.2674  140.9654  152.8042 H   0  0  0  0  0  0  0  0  0  0  0  0
  146.4798  139.3597  156.1539 H   0  0  0  0  0  0  0  0  0  0  0  0
  145.5089  140.8093  156.0041 H   0  0  0  0  0  0  0  0  0  0  0  0
  144.2237  138.7237  156.7908 H   0  0  0  0  0  0  0  0  0  0  0  0
  143.5207  139.5871  155.4409 H   0  0  0  0  0  0  0  0  0  0  0  0
  143.6715  137.0822  155.1464 H   0  0  0  0  0  0  0  0  0  0  0  0
  146.3968  138.6180  152.5013 H   0  0  0  0  0  0  0  0  0  0  0  0
  147.2645  138.1638  153.9578 H   0  0  0  0  0  0  0  0  0  0  0  0
  149.4925  143.2020  157.5417 H   0  0  0  0  0  0  0  0  0  0  0  0
  149.5509  144.4385  159.5498 H   0  0  0  0  0  0  0  0  0  0  0  0
  151.1702  144.7605  160.1671 H   0  0  0  0  0  0  0  0  0  0  0  0
  150.1533  143.5334  160.9371 H   0  0  0  0  0  0  0  0  0  0  0  0
  145.2488  140.2430  153.6621 H   0  0  0  0  0  0  0  0  0  0  0  0
  1  2  1  0  0  0  0
  1 23  1  0  0  0  0
  1 24  1  0  0  0  0
  1 25  1  0  0  0  0
  2 21  1  0  0  0  0
  2  3  2  0  0  0  0
  3  4  1  0  0  0  0
  3 26  1  0  0  0  0
  4 19  2  0  0  0  0
  4  5  1  0  0  0  0
  5  6  2  0  0  0  0
  6  7  1  0  0  0  0
  6 27  1  0  0  0  0
  7  8  1  0  0  0  0
  7 19  1  0  0  0  0
  8  9  1  0  0  0  0
  8 28  1  0  0  0  0
  8 29  1  0  0  0  0
  9 10  1  0  0  0  0
  9 11  1  0  0  0  0
  9 30  1  0  0  0  0
 10 31  1  0  0  0  0
 11 12  1  0  0  0  0
 11 32  1  0  0  0  0
 11 33  1  0  0  0  0
 12 18  1  0  0  0  0
 12 13  1  0  0  0  0
 12 45  1  0  0  0  0
 13 14  1  0  0  0  0
 13 34  1  0  0  0  0
 13 35  1  0  0  0  0
 14 15  1  0  0  0  0
 14 36  1  0  0  0  0
 14 37  1  0  0  0  0
 15 16  1  0  0  0  0
 15 38  1  0  0  0  0
 16 17  2  0  0  0  0
 16 18  1  0  0  0  0
 18 39  1  0  0  0  0
 18 40  1  0  0  0  0
 19 20  1  0  0  0  0
 20 21  2  0  0  0  0
 20 41  1  0  0  0  0
 21 22  1  0  0  0  0
 22 42  1  0  0  0  0
 22 43  1  0  0  0  0
 22 44  1  0  0  0  0
M  CHG  1  12   1
M  END
> <s_m_source_file>
AV-unprocessed.smi

> <i_m_source_file_index>
1056

> <i_lp_mmshare_version>
43012

> <i_f3d_flags>
0

> <s_epik_input>
W0NIM11jKFtjSF0xKWMoW0NIM10pW2NIXWMoYzEyKW4oW2NIXW4yKVtDSDJdW0NASF0oW09IXSlbQ0gyXU4zW0NIMl1bQ0gyXVtOSF1DKD1PKVtDSDJdMw==

> <s_epik_cmdline>
J2VwaWtfcHl0aG9uJywgJy1waCcsICc3LjAnLCAnLXRuJywgJzgnLCAnLW1hJywgJzIwMCcsICctbWV0YWxfYmluZGluZycsICctaW1hZScsICc8aW5maWxlLm1hZT4nLCAnLW9tYWUnLCAnPG91dGZpbGUubWFlPic=

> <r_epik_Ionization_Penalty>
0.153633

> <r_epik_Ionization_Penalty_Charging>
0.0674887

> <r_epik_Ionization_Penalty_Neutral>
0.0861443

> <r_epik_State_Penalty>
0.135155

> <r_epik_Charging_Adjusted_Penalty>
0.202644

> <i_epik_Tot_Q>
1

> <i_epik_Tot_abs_Q>
1

> <r_epik_Metal_State_Penalty>
0.190685

> <b_epik_Metal_Only>
0

> <s_lp_Force_Field>
OPLS_2005

> <r_lp_Energy>
23.9975

> <b_lp_Chiralities_Consistent>
1

> <s_lp_Variant>
AV-unprocessed.smi:1056-1

> <Gold.Version>
5.8.1

> <Gold.Id.Protein>
6NUR|6NUR_protein|mol2

> <Gold.PLP.Fitness>
48.3545

> <Gold.PLP.PLP>
-37.2633

> <Gold.PLP.part.hbond>
-3.0000

> <Gold.PLP.part.metal>
0.0000

> <Gold.PLP.part.buried>
-4.0893

> <Gold.PLP.part.nonpolar>
-30.5288

> <Gold.PLP.part.repulsive>
0.1110

> <Gold.PLP.ligand.clash>
0.0000

> <Gold.PLP.ligand.torsion>
0.4790

> <Gold.PLP.Chemscore.Hbond>
4.0000

> <Gold.PLP.Chemscore.CHOScore>
0.0000

> <Gold.PLP.Chemscore.Metal>
0.0000

> <Gold.Chemscore.Hbonds>
donor molecule, donor type, donor heavy atom, donor atom, acceptor molecule, acceptor atom, score
      L1  H    10    31       P1  7957  0.90
      L1  H    12    45       P1 10175  2.00
      P1  H  7997  8009       L1     5  1.00

> <Gold.PLP.Chemscore.Internal.Correction>
0.0491

> <Gold.Rescore>
     Score         DG    S(hbond)    S(metal)    S(lipo)     H(rot)  DE(clash)    DE(int)     intcor
     17.75     -18.48       2.76        0.00      84.37       2.38       0.13       0.60       ----

> <Gold.Chemscore.Fitness>
17.7505

> <Gold.Chemscore.DG>
-18.4781

> <Gold.Chemscore.ZeroCoef>
-5.4800

> <Gold.Chemscore.Hbond>
2.7591

> <Gold.Chemscore.Metal>
0.0000

> <Gold.Chemscore.Lipo>
84.3694

> <Gold.Chemscore.Internal_Hbond>
0.0000

> <Gold.Chemscore.DEClash>
0.1277

> <Gold.Chemscore.DEInternal>
0.5999

> <Gold.Chemscore.Rot>
2.3783

> <Gold.Chemscore.Internal.Correction>
   9.000000E+99

> <Gold.Chemscore.Hbonds>
donor molecule, donor type, donor heavy atom, donor atom, acceptor molecule, acceptor atom, score
      L1  H    10    31       P1  7957  0.88
      L1  H    12    45       P1 10175  0.98
      P1  H  7997  8009       L1     5  0.34

> <Gold.Chemscore.Hbond.Weighted>
-9.2152

> <Gold.Chemscore.Metal.Weighted>
-0.0000

> <Gold.Chemscore.Lipo.Weighted>
-9.8712

> <Gold.Chemscore.Internal_Hbond.Weighted>
0.0000

> <Gold.Chemscore.DEClash.Weighted>
0.1277

> <Gold.Chemscore.DEInternal.Weighted>
0.5999

> <Gold.Chemscore.Rot.Weighted>
6.0884

> <Gold.Chemscore.Internal.Correction.Weighted>
   9.000000E+99

> <Gold.Protein.RotatedTorsions>
[ 6907 6896 6895 6894 ] final  -43.98 input  -60.11 | X-H torsion
[ 7974 7965 7964 7962 ] final  136.24 input  175.53 | X-H torsion
[ 8008 7997 7996 7995 ] final -159.10 input   59.86 | X-H torsion
[ 10167 10162 10161 10158 ] final -130.75 input  -65.29 | X-H torsion
[ 10718 10713 10712 10709 ] final -114.96 input   66.30 | X-H torsion
[ 10763 10752 10751 10750 ] final  125.45 input  -60.55 | X-H torsion
[ 11005 11000 10999 10996 ] final  146.49 input  -57.11 | X-H torsion

> <Gold.Protein.ActiveResidues>
 VAL166  LYS551  ARG553  GLY616  TRP617  ASP618  TYR619  PRO620  LYS621  CYS622 
 ASP623  PHE694  ASN695  SER759  ASP760  ASP761  ALA762  ILE779  LEU786  VAL792 
 PHE793  MET794  SER795  GLU796  ALA797  LYS798  CYS799  TRP800  GLU811  SER814 

> <Gold.Protein.RotatedAtoms>
  150.9379  134.8790  159.7592 H   0  0  0  0  0  0  0  0  0  0  0  0  # atno 6907 bound_to 6896
  152.5067  134.3985  159.9418 H   0  0  0  0  0  0  0  0  0  0  0  0  # atno 6908 bound_to 6896
  151.4007  133.3718  159.2767 H   0  0  0  0  0  0  0  0  0  0  0  0  # atno 6909 bound_to 6896
  144.9584  139.4738  143.5491 H   0  0  0  0  0  0  0  0  0  0  0  0  # atno 7974 bound_to 7965
  155.7575  140.0835  157.2171 H   0  0  0  0  0  0  0  0  0  0  0  0  # atno 8008 bound_to 7997
  154.4006  140.1549  156.2851 H   0  0  0  0  0  0  0  0  0  0  0  0  # atno 8009 bound_to 7997
  155.8871  140.3417  155.5932 H   0  0  0  0  0  0  0  0  0  0  0  0  # atno 8010 bound_to 7997
  139.9261  143.6326  152.2542 H   0  0  0  0  0  0  0  0  0  0  0  0  # atno 10167 bound_to 10162
  156.0864  130.6055  150.8843 H   0  0  0  0  0  0  0  0  0  0  0  0  # atno 10718 bound_to 10713
  153.6775  135.3320  155.3169 H   0  0  0  0  0  0  0  0  0  0  0  0  # atno 10763 bound_to 10752
  154.8474  135.4401  154.1640 H   0  0  0  0  0  0  0  0  0  0  0  0  # atno 10764 bound_to 10752
  153.2648  135.6994  153.7618 H   0  0  0  0  0  0  0  0  0  0  0  0  # atno 10765 bound_to 10752
  140.0798  134.9104  157.1481 H   0  0  0  0  0  0  0  0  0  0  0  0  # atno 11005 bound_to 11000
  146.3345  139.8717  142.8839 LP  0  0  0  0  0  0  0  0  0  0  0  0  # atno 17320 bound_to 7965
  145.2737  141.0117  143.3757 LP  0  0  0  0  0  0  0  0  0  0  0  0  # atno 17321 bound_to 7965
  139.6821  144.7654  151.1589 LP  0  0  0  0  0  0  0  0  0  0  0  0  # atno 17342 bound_to 10162
  140.7650  143.5709  150.8996 LP  0  0  0  0  0  0  0  0  0  0  0  0  # atno 17343 bound_to 10162
  157.6000  131.0941  150.8977 LP  0  0  0  0  0  0  0  0  0  0  0  0  # atno 17370 bound_to 10713
  156.9136  130.5289  149.5280 LP  0  0  0  0  0  0  0  0  0  0  0  0  # atno 17371 bound_to 10713
  140.3505  134.2604  155.7199 LP  0  0  0  0  0  0  0  0  0  0  0  0  # atno 17394 bound_to 11000
  141.2042  133.7891  157.0297 LP  0  0  0  0  0  0  0  0  0  0  0  0  # atno 17395 bound_to 11000

$$$$
