AV-unprocessed.smi:1205|AV-procd|sdf|5042|dock8
  -GOLD-   22720 4 63D 1   1.00000     0.00000
 Structure written by MMmdl.
 49 50  0  0  0  0  0  0  0  0  2 V2000
  151.9165  140.9522  158.2584 C   0  0  0  0  0  0  0  0  0  0  0  0
  151.4708  140.2900  156.9882 C   0  0  0  0  0  0  0  0  0  0  0  0
  150.3046  140.5655  156.2166 C   0  0  0  0  0  0  0  0  0  0  0  0
  150.4080  139.6718  155.1859 C   0  0  0  0  0  0  0  0  0  0  0  0
  149.5636  139.4724  154.1392 N   0  0  0  0  0  0  0  0  0  0  0  0
  148.2654  139.1243  154.1620 C   0  0  0  0  0  0  0  0  0  0  0  0
  147.5957  138.9196  155.1746 O   0  0  0  0  0  0  0  0  0  0  0  0
  147.7669  139.0319  152.9211 N   0  0  0  0  0  0  0  0  0  0  0  0
  146.3876  138.6788  152.6003 C   0  0  0  0  0  0  0  0  0  0  0  0
  145.8595  137.5029  153.4619 C   0  0  1  0  0  0  0  0  0  0  0  0
  144.6567  137.9010  154.3382 C   0  0  0  0  0  0  0  0  0  0  0  0
  145.5466  136.2834  152.6616 N   0  3  2  0  0  0  0  0  0  0  0  0
  144.5468  136.5191  151.5872 C   0  0  0  0  0  0  0  0  0  0  0  0
  144.4801  135.3165  150.6321 C   0  0  0  0  0  0  0  0  0  0  0  0
  144.1840  134.0178  151.3971 C   0  0  0  0  0  0  0  0  0  0  0  0
  145.1757  133.8085  152.5576 C   0  0  1  0  0  0  0  0  0  0  0  0
  146.5731  133.3765  152.0797 C   0  0  0  0  0  0  0  0  0  0  0  0
  145.2287  135.0626  153.4538 C   0  0  0  0  0  0  0  0  0  0  0  0
  151.5557  138.9292  155.3537 N   0  0  0  0  0  0  0  0  0  0  0  0
  152.0912  137.8606  154.5327 C   0  0  0  0  0  0  0  0  0  0  0  0
  152.2105  139.3161  156.4698 N   0  0  0  0  0  0  0  0  0  0  0  0
  151.2308  141.7479  158.5501 H   0  0  0  0  0  0  0  0  0  0  0  0
  152.9071  141.3934  158.1453 H   0  0  0  0  0  0  0  0  0  0  0  0
  151.9612  140.2358  159.0792 H   0  0  0  0  0  0  0  0  0  0  0  0
  149.5343  141.2971  156.4082 H   0  0  0  0  0  0  0  0  0  0  0  0
  149.9697  139.6202  153.2271 H   0  0  0  0  0  0  0  0  0  0  0  0
  148.3844  139.2155  152.1434 H   0  0  0  0  0  0  0  0  0  0  0  0
  145.7859  139.5729  152.7631 H   0  0  0  0  0  0  0  0  0  0  0  0
  146.3162  138.4481  151.5365 H   0  0  0  0  0  0  0  0  0  0  0  0
  146.6473  137.2177  154.1605 H   0  0  0  0  0  0  0  0  0  0  0  0
  144.9333  138.6659  155.0644 H   0  0  0  0  0  0  0  0  0  0  0  0
  144.2814  137.0460  154.9011 H   0  0  0  0  0  0  0  0  0  0  0  0
  143.8330  138.2989  153.7460 H   0  0  0  0  0  0  0  0  0  0  0  0
  143.5649  136.7030  152.0248 H   0  0  0  0  0  0  0  0  0  0  0  0
  144.8119  137.4102  151.0170 H   0  0  0  0  0  0  0  0  0  0  0  0
  143.7110  135.4845  149.8776 H   0  0  0  0  0  0  0  0  0  0  0  0
  145.4222  135.2236  150.0909 H   0  0  0  0  0  0  0  0  0  0  0  0
  143.1706  134.0662  151.7976 H   0  0  0  0  0  0  0  0  0  0  0  0
  144.2020  133.1649  150.7176 H   0  0  0  0  0  0  0  0  0  0  0  0
  144.7930  132.9881  153.1660 H   0  0  0  0  0  0  0  0  0  0  0  0
  147.0533  134.1454  151.4746 H   0  0  0  0  0  0  0  0  0  0  0  0
  146.5182  132.4681  151.4793 H   0  0  0  0  0  0  0  0  0  0  0  0
  147.2276  133.1690  152.9266 H   0  0  0  0  0  0  0  0  0  0  0  0
  145.9643  134.9124  154.2434 H   0  0  0  0  0  0  0  0  0  0  0  0
  144.2635  135.1891  153.9460 H   0  0  0  0  0  0  0  0  0  0  0  0
  152.0878  138.1633  153.4854 H   0  0  0  0  0  0  0  0  0  0  0  0
  151.4758  136.9682  154.6489 H   0  0  0  0  0  0  0  0  0  0  0  0
  153.1153  137.6269  154.8273 H   0  0  0  0  0  0  0  0  0  0  0  0
  146.4047  136.0725  152.1725 H   0  0  0  0  0  0  0  0  0  0  0  0
  1  2  1  0  0  0  0
  1 22  1  0  0  0  0
  1 23  1  0  0  0  0
  1 24  1  0  0  0  0
  2 21  2  0  0  0  0
  2  3  1  0  0  0  0
  3  4  2  0  0  0  0
  3 25  1  0  0  0  0
  4  5  1  0  0  0  0
  4 19  1  0  0  0  0
  5  6  1  0  0  0  0
  5 26  1  0  0  0  0
  6  7  2  0  0  0  0
  6  8  1  0  0  0  0
  8  9  1  0  0  0  0
  8 27  1  0  0  0  0
  9 10  1  0  0  0  0
  9 28  1  0  0  0  0
  9 29  1  0  0  0  0
 10 11  1  0  0  0  0
 10 12  1  0  0  0  0
 10 30  1  0  0  0  0
 11 31  1  0  0  0  0
 11 32  1  0  0  0  0
 11 33  1  0  0  0  0
 12 18  1  0  0  0  0
 12 13  1  0  0  0  0
 12 49  1  0  0  0  0
 13 14  1  0  0  0  0
 13 34  1  0  0  0  0
 13 35  1  0  0  0  0
 14 15  1  0  0  0  0
 14 36  1  0  0  0  0
 14 37  1  0  0  0  0
 15 16  1  0  0  0  0
 15 38  1  0  0  0  0
 15 39  1  0  0  0  0
 16 17  1  0  0  0  0
 16 18  1  0  0  0  0
 16 40  1  0  0  0  0
 17 41  1  0  0  0  0
 17 42  1  0  0  0  0
 17 43  1  0  0  0  0
 18 44  1  0  0  0  0
 18 45  1  0  0  0  0
 19 20  1  0  0  0  0
 19 21  1  0  0  0  0
 20 46  1  0  0  0  0
 20 47  1  0  0  0  0
 20 48  1  0  0  0  0
M  CHG  1  12   1
M  END
> <s_m_source_file>
AV-unprocessed.smi

> <i_m_source_file_index>
1205

> <i_lp_mmshare_version>
43012

> <i_f3d_flags>
0

> <s_epik_input>
W0NIM11jMVtjSF1jKG4objEpW0NIM10pW05IXUMoPU8pW05IXVtDSDJdW0NASF0oW0NIM10pTjJbQ0gyXVtDSDJdW0NIMl1bQ0BASF0oW0NIM10pW0NIMl0y

> <s_epik_cmdline>
J2VwaWtfcHl0aG9uJywgJy1waCcsICc3LjAnLCAnLXRuJywgJzgnLCAnLW1hJywgJzIwMCcsICctbWV0YWxfYmluZGluZycsICctaW1hZScsICc8aW5maWxlLm1hZT4nLCAnLW9tYWUnLCAnPG91dGZpbGUubWFlPic=

> <r_lp_tautomer_probability>
1

> <r_epik_Ionization_Penalty>
0.0020309

> <r_epik_Ionization_Penalty_Charging>
0.00195276

> <r_epik_Ionization_Penalty_Neutral>
7.81448e-05

> <r_epik_State_Penalty>
0.00133177

> <r_epik_Charging_Adjusted_Penalty>
0.00328452

> <i_epik_Tot_Q>
1

> <i_epik_Tot_abs_Q>
1

> <r_epik_Metal_State_Penalty>
-0

> <b_epik_Metal_Only>
0

> <s_lp_Force_Field>
OPLS_2005

> <r_lp_Energy>
24.2005

> <b_lp_Chiralities_Consistent>
1

> <s_lp_Variant>
AV-unprocessed.smi:1205-4

> <Gold.Version>
5.8.1

> <Gold.Id.Protein>
6NUR|6NUR_protein|mol2

> <Gold.PLP.Fitness>
47.9075

> <Gold.PLP.PLP>
-37.1268

> <Gold.PLP.part.hbond>
-4.7504

> <Gold.PLP.part.metal>
0.0000

> <Gold.PLP.part.buried>
-2.3810

> <Gold.PLP.part.nonpolar>
-30.6645

> <Gold.PLP.part.repulsive>
0.2786

> <Gold.PLP.ligand.clash>
0.0000

> <Gold.PLP.ligand.torsion>
1.4600

> <Gold.PLP.Chemscore.Hbond>
4.5328

> <Gold.PLP.Chemscore.CHOScore>
0.0000

> <Gold.PLP.Chemscore.Metal>
0.0000

> <Gold.Chemscore.Hbonds>
donor molecule, donor type, donor heavy atom, donor atom, acceptor molecule, acceptor atom, score
      L1  H     5    26       P1  7957  0.71
      L1  H     8    27       P1  7957  1.00
      P1  H  7997  8008       L1    21  0.24

> <Gold.PLP.Chemscore.Internal.Correction>
0.1025

> <Gold.Rescore>
     Score         DG    S(hbond)    S(metal)    S(lipo)     H(rot)  DE(clash)    DE(int)     intcor
     17.88     -21.09       3.38        0.00      68.93       1.47       0.19       3.03       ----

> <Gold.Chemscore.Fitness>
17.8756

> <Gold.Chemscore.DG>
-21.0940

> <Gold.Chemscore.ZeroCoef>
-5.4800

> <Gold.Chemscore.Hbond>
3.3837

> <Gold.Chemscore.Metal>
0.0000

> <Gold.Chemscore.Lipo>
68.9327

> <Gold.Chemscore.Internal_Hbond>
0.0000

> <Gold.Chemscore.DEClash>
0.1874

> <Gold.Chemscore.DEInternal>
3.0309

> <Gold.Chemscore.Rot>
1.4658

> <Gold.Chemscore.Internal.Correction>
   9.000000E+99

> <Gold.Chemscore.Hbonds>
donor molecule, donor type, donor heavy atom, donor atom, acceptor molecule, acceptor atom, score
      L1  H     5    26       P1  7957  0.66
      L1  H     8    27       P1  7957  0.99
      P1  H  7997  8008       L1    21  0.11

> <Gold.Chemscore.Hbond.Weighted>
-11.3014

> <Gold.Chemscore.Metal.Weighted>
-0.0000

> <Gold.Chemscore.Lipo.Weighted>
-8.0651

> <Gold.Chemscore.Internal_Hbond.Weighted>
0.0000

> <Gold.Chemscore.DEClash.Weighted>
0.1874

> <Gold.Chemscore.DEInternal.Weighted>
3.0309

> <Gold.Chemscore.Rot.Weighted>
3.7526

> <Gold.Chemscore.Internal.Correction.Weighted>
   9.000000E+99

> <Gold.Protein.RotatedTorsions>
[ 6907 6896 6895 6894 ] final  -78.87 input  -60.11 | X-H torsion
[ 7974 7965 7964 7962 ] final   78.01 input  175.53 | X-H torsion
[ 8008 7997 7996 7995 ] final  -66.02 input   59.86 | X-H torsion
[ 10167 10162 10161 10158 ] final -131.95 input  -65.29 | X-H torsion
[ 10718 10713 10712 10709 ] final  -32.21 input   66.30 | X-H torsion
[ 10763 10752 10751 10750 ] final  118.32 input  -60.55 | X-H torsion
[ 11005 11000 10999 10996 ] final  -97.01 input  -57.11 | X-H torsion

> <Gold.Protein.ActiveResidues>
 VAL166  LYS551  ARG553  GLY616  TRP617  ASP618  TYR619  PRO620  LYS621  CYS622 
 ASP623  PHE694  ASN695  SER759  ASP760  ASP761  ALA762  ILE779  LEU786  VAL792 
 PHE793  MET794  SER795  GLU796  ALA797  LYS798  CYS799  TRP800  GLU811  SER814 

> <Gold.Protein.RotatedAtoms>
  150.6962  134.4206  159.5203 H   0  0  0  0  0  0  0  0  0  0  0  0  # atno 6907 bound_to 6896
  152.1950  134.8636  160.0523 H   0  0  0  0  0  0  0  0  0  0  0  0  # atno 6908 bound_to 6896
  151.9577  133.3650  159.4060 H   0  0  0  0  0  0  0  0  0  0  0  0  # atno 6909 bound_to 6896
  145.6827  139.2528  143.1805 H   0  0  0  0  0  0  0  0  0  0  0  0  # atno 7974 bound_to 7965
  154.4708  140.0921  156.7139 H   0  0  0  0  0  0  0  0  0  0  0  0  # atno 8008 bound_to 7997
  155.4730  140.3465  155.4310 H   0  0  0  0  0  0  0  0  0  0  0  0  # atno 8009 bound_to 7997
  156.1035  140.1428  156.9424 H   0  0  0  0  0  0  0  0  0  0  0  0  # atno 8010 bound_to 7997
  139.9136  143.6464  152.2570 H   0  0  0  0  0  0  0  0  0  0  0  0  # atno 10167 bound_to 10162
  156.3777  130.4350  149.7494 H   0  0  0  0  0  0  0  0  0  0  0  0  # atno 10718 bound_to 10713
  153.5658  135.3512  155.2818 H   0  0  0  0  0  0  0  0  0  0  0  0  # atno 10763 bound_to 10752
  154.8689  135.4147  154.2779 H   0  0  0  0  0  0  0  0  0  0  0  0  # atno 10764 bound_to 10752
  153.3535  135.7056  153.6839 H   0  0  0  0  0  0  0  0  0  0  0  0  # atno 10765 bound_to 10752
  141.1393  133.8139  157.0648 H   0  0  0  0  0  0  0  0  0  0  0  0  # atno 11005 bound_to 11000
  146.0950  140.7611  142.9577 LP  0  0  0  0  0  0  0  0  0  0  0  0  # atno 17320 bound_to 7965
  144.7021  140.3697  143.7147 LP  0  0  0  0  0  0  0  0  0  0  0  0  # atno 17321 bound_to 7965
  139.6921  144.7645  151.1420 LP  0  0  0  0  0  0  0  0  0  0  0  0  # atno 17342 bound_to 10162
  140.7679  143.5574  150.9136 LP  0  0  0  0  0  0  0  0  0  0  0  0  # atno 17343 bound_to 10162
  156.4597  130.7946  151.2966 LP  0  0  0  0  0  0  0  0  0  0  0  0  # atno 17370 bound_to 10713
  157.7489  131.0070  150.3172 LP  0  0  0  0  0  0  0  0  0  0  0  0  # atno 17371 bound_to 10713
  140.0548  134.9786  157.1201 LP  0  0  0  0  0  0  0  0  0  0  0  0  # atno 17394 bound_to 11000
  140.3936  134.2158  155.7165 LP  0  0  0  0  0  0  0  0  0  0  0  0  # atno 17395 bound_to 11000

$$$$
