AV-unprocessed.smi:178|AV-procd|sdf|1447|dock1
  -GOLD-   2262019243D 1   1.00000     0.00000
 Structure written by MMmdl.
 50 52  0  0  0  0  0  0  0  0  1 V2000
  151.4398  145.7746  159.6798 C   0  0  0  0  0  0  0  0  0  0  0  0
  152.1179  145.2825  158.5370 O   0  0  0  0  0  0  0  0  0  0  0  0
  152.6375  143.9788  158.7334 C   0  0  0  0  0  0  0  0  0  0  0  0
  151.4641  142.9923  158.8410 C   0  0  0  0  0  0  0  0  0  0  0  0
  151.8494  141.6170  158.5161 N   0  0  0  0  0  0  0  0  0  0  0  0
  152.7778  140.9210  159.4031 C   0  0  0  0  0  0  0  0  0  0  0  0
  153.0480  141.6956  160.6998 C   0  0  0  0  0  0  0  0  0  0  0  0
  154.1654  141.1271  161.4671 C   0  0  0  0  0  0  0  0  0  0  0  0
  155.0447  140.6802  162.0714 N   0  0  0  0  0  0  0  0  0  0  0  0
  151.4729  141.0719  157.3231 C   0  0  0  0  0  0  0  0  0  0  0  0
  152.3088  140.1679  156.7451 N   0  0  0  0  0  0  0  0  0  0  0  0
  152.0036  139.5979  155.5773 C   0  0  0  0  0  0  0  0  0  0  0  0
  150.9240  139.7822  154.8188 N   0  0  0  0  0  0  0  0  0  0  0  0
  150.0730  140.6840  155.3839 C   0  0  0  0  0  0  0  0  0  0  0  0
  150.2622  141.3683  156.6213 C   0  0  0  0  0  0  0  0  0  0  0  0
  149.1621  142.1859  156.8635 N   0  0  0  0  0  0  0  0  0  0  0  0
  148.3819  142.0043  155.8349 C   0  0  0  0  0  0  0  0  0  0  0  0
  148.8579  141.1265  154.8902 N   0  0  0  0  0  0  0  0  0  0  0  0
  148.2035  140.7458  153.6483 C   0  0  0  0  0  0  0  0  0  0  0  0
  147.9135  139.2291  153.5416 C   0  0  1  0  0  0  0  0  0  0  0  0
  149.0860  138.5755  153.0830 O   0  0  0  0  0  0  0  0  0  0  0  0
  147.5285  138.6180  154.8812 C   0  0  0  0  0  0  0  0  0  0  0  0
  146.7137  137.4002  154.4680 C   0  0  0  0  0  0  0  0  0  0  0  0
  145.9652  137.8556  153.3511 O   0  0  0  0  0  0  0  0  0  0  0  0
  146.6937  138.8665  152.6559 C   0  0  2  0  0  0  0  0  0  0  0  0
  146.9927  138.4059  151.2182 C   0  0  0  0  0  0  0  0  0  0  0  0
  151.0538  146.7731  159.4742 H   0  0  0  0  0  0  0  0  0  0  0  0
  152.1104  145.8428  160.5374 H   0  0  0  0  0  0  0  0  0  0  0  0
  150.5965  145.1355  159.9446 H   0  0  0  0  0  0  0  0  0  0  0  0
  153.2875  143.7098  157.8996 H   0  0  0  0  0  0  0  0  0  0  0  0
  153.2417  143.9549  159.6409 H   0  0  0  0  0  0  0  0  0  0  0  0
  151.0754  143.0160  159.8595 H   0  0  0  0  0  0  0  0  0  0  0  0
  150.6381  143.3142  158.2059 H   0  0  0  0  0  0  0  0  0  0  0  0
  152.3530  139.9481  159.6522 H   0  0  0  0  0  0  0  0  0  0  0  0
  153.7082  140.6959  158.8826 H   0  0  0  0  0  0  0  0  0  0  0  0
  153.2873  142.7381  160.4913 H   0  0  0  0  0  0  0  0  0  0  0  0
  152.1679  141.6884  161.3422 H   0  0  0  0  0  0  0  0  0  0  0  0
  152.7289  138.8941  155.1965 H   0  0  0  0  0  0  0  0  0  0  0  0
  147.4353  142.5151  155.7351 H   0  0  0  0  0  0  0  0  0  0  0  0
  147.2782  141.3165  153.5561 H   0  0  0  0  0  0  0  0  0  0  0  0
  148.8407  141.0651  152.8223 H   0  0  0  0  0  0  0  0  0  0  0  0
  148.8425  137.7303  152.7376 H   0  0  0  0  0  0  0  0  0  0  0  0
  148.3823  138.3692  155.5128 H   0  0  0  0  0  0  0  0  0  0  0  0
  146.8883  139.3017  155.4409 H   0  0  0  0  0  0  0  0  0  0  0  0
  147.3669  136.5842  154.1556 H   0  0  0  0  0  0  0  0  0  0  0  0
  146.0653  137.0350  155.2646 H   0  0  0  0  0  0  0  0  0  0  0  0
  146.0217  139.7240  152.6078 H   0  0  0  0  0  0  0  0  0  0  0  0
  147.5649  139.1553  150.6714 H   0  0  0  0  0  0  0  0  0  0  0  0
  146.0667  138.2325  150.6697 H   0  0  0  0  0  0  0  0  0  0  0  0
  147.5587  137.4742  151.2041 H   0  0  0  0  0  0  0  0  0  0  0  0
  1  2  1  0  0  0  0
  1 27  1  0  0  0  0
  1 28  1  0  0  0  0
  1 29  1  0  0  0  0
  2  3  1  0  0  0  0
  3  4  1  0  0  0  0
  3 30  1  0  0  0  0
  3 31  1  0  0  0  0
  4  5  1  0  0  0  0
  4 32  1  0  0  0  0
  4 33  1  0  0  0  0
  5  6  1  0  0  0  0
  5 10  1  0  0  0  0
  6  7  1  0  0  0  0
  6 34  1  0  0  0  0
  6 35  1  0  0  0  0
  7  8  1  0  0  0  0
  7 36  1  0  0  0  0
  7 37  1  0  0  0  0
  8  9  3  0  0  0  0
 10 15  1  0  0  0  0
 10 11  2  0  0  0  0
 11 12  1  0  0  0  0
 12 13  2  0  0  0  0
 12 38  1  0  0  0  0
 13 14  1  0  0  0  0
 14 18  1  0  0  0  0
 14 15  2  0  0  0  0
 15 16  1  0  0  0  0
 16 17  2  0  0  0  0
 17 18  1  0  0  0  0
 17 39  1  0  0  0  0
 18 19  1  0  0  0  0
 19 20  1  0  0  0  0
 19 40  1  0  0  0  0
 19 41  1  0  0  0  0
 20 25  1  0  0  0  0
 20 21  1  0  0  0  0
 20 22  1  0  0  0  0
 21 42  1  0  0  0  0
 22 23  1  0  0  0  0
 22 43  1  0  0  0  0
 22 44  1  0  0  0  0
 23 24  1  0  0  0  0
 23 45  1  0  0  0  0
 23 46  1  0  0  0  0
 24 25  1  0  0  0  0
 25 26  1  0  0  0  0
 25 47  1  0  0  0  0
 26 48  1  0  0  0  0
 26 49  1  0  0  0  0
 26 50  1  0  0  0  0
M  END
> <s_m_source_file>
AV-unprocessed.smi

> <i_m_source_file_index>
178

> <i_lp_mmshare_version>
43012

> <i_f3d_flags>
0

> <s_epik_input>
W0NIM11PW0NIMl1bQ0gyXU4oW0NIMl1bQ0gyXUMjTiljKG5bY0hdbjEpYyhjMTIpbltjSF1uMltDSDJdW0NAQF0zKFtPSF0pW0NIMl1bQ0gyXU9bQ0BIXTNbQ0gzXQ==

> <s_epik_cmdline>
J2VwaWtfcHl0aG9uJywgJy1waCcsICc3LjAnLCAnLXRuJywgJzgnLCAnLW1hJywgJzIwMCcsICctbWV0YWxfYmluZGluZycsICctaW1hZScsICc8aW5maWxlLm1hZT4nLCAnLW9tYWUnLCAnPG91dGZpbGUubWFlPic=

> <r_lp_tautomer_probability>
1

> <r_epik_Ionization_Penalty>
0.000885317

> <r_epik_Ionization_Penalty_Charging>
0

> <r_epik_Ionization_Penalty_Neutral>
0.000885317

> <r_epik_State_Penalty>
0.00047273

> <r_epik_Charging_Adjusted_Penalty>
0.00047273

> <i_epik_Tot_Q>
0

> <i_epik_Tot_abs_Q>
0

> <r_epik_Metal_State_Penalty>
-0

> <b_epik_Metal_Only>
0

> <s_lp_Force_Field>
OPLS_2005

> <r_lp_Energy>
28.3017

> <b_lp_Chiralities_Consistent>
1

> <s_lp_Variant>
AV-unprocessed.smi:178-3

> <Gold.Version>
5.8.1

> <Gold.Id.Protein>
6NUR|6NUR_protein|mol2

> <Gold.PLP.Fitness>
55.6385

> <Gold.PLP.PLP>
-48.6256

> <Gold.PLP.part.hbond>
-4.8773

> <Gold.PLP.part.metal>
0.0000

> <Gold.PLP.part.buried>
-1.0534

> <Gold.PLP.part.nonpolar>
-43.0975

> <Gold.PLP.part.repulsive>
0.4074

> <Gold.PLP.ligand.clash>
0.0000

> <Gold.PLP.ligand.torsion>
1.0784

> <Gold.PLP.Chemscore.Hbond>
2.8420

> <Gold.PLP.Chemscore.CHOScore>
0.0309

> <Gold.PLP.Chemscore.Metal>
0.0000

> <Gold.Chemscore.Hbonds>
donor molecule, donor type, donor heavy atom, donor atom, acceptor molecule, acceptor atom, score
      L1  H    21    42       P1  7948  1.00
      P1  H  7989  7998       L1    13  0.95
      P1  H  7997  8010       L1    11  0.87
      L1  C    17    39       P1  8028  0.10

> <Gold.PLP.Chemscore.Internal.Correction>
0.5509

> <Gold.Rescore>
     Score         DG    S(hbond)    S(metal)    S(lipo)     H(rot)  DE(clash)    DE(int)     intcor
     11.97     -13.63       1.81        0.00      91.64       3.37       0.60       1.05       ----

> <Gold.Chemscore.Fitness>
11.9736

> <Gold.Chemscore.DG>
-13.6279

> <Gold.Chemscore.ZeroCoef>
-5.4800

> <Gold.Chemscore.Hbond>
1.8148

> <Gold.Chemscore.Metal>
0.0000

> <Gold.Chemscore.Lipo>
91.6391

> <Gold.Chemscore.Internal_Hbond>
0.0000

> <Gold.Chemscore.DEClash>
0.6025

> <Gold.Chemscore.DEInternal>
1.0518

> <Gold.Chemscore.Rot>
3.3732

> <Gold.Chemscore.Internal.Correction>
   9.000000E+99

> <Gold.Chemscore.Hbonds>
donor molecule, donor type, donor heavy atom, donor atom, acceptor molecule, acceptor atom, score
      L1  H    21    42       P1  7948  0.99
      P1  H  7989  7998       L1    13  0.06
      P1  H  7997  8010       L1    11  0.24

> <Gold.Chemscore.Hbond.Weighted>
-6.0615

> <Gold.Chemscore.Metal.Weighted>
-0.0000

> <Gold.Chemscore.Lipo.Weighted>
-10.7218

> <Gold.Chemscore.Internal_Hbond.Weighted>
0.0000

> <Gold.Chemscore.DEClash.Weighted>
0.6025

> <Gold.Chemscore.DEInternal.Weighted>
1.0518

> <Gold.Chemscore.Rot.Weighted>
8.6354

> <Gold.Chemscore.Internal.Correction.Weighted>
   9.000000E+99

> <Gold.Protein.RotatedTorsions>
[ 6907 6896 6895 6894 ] final   78.03 input  -60.11 | X-H torsion
[ 7974 7965 7964 7962 ] final -114.93 input  175.53 | X-H torsion
[ 8008 7997 7996 7995 ] final   56.52 input   59.86 | X-H torsion
[ 10167 10162 10161 10158 ] final -166.25 input  -65.29 | X-H torsion
[ 10718 10713 10712 10709 ] final -170.63 input   66.30 | X-H torsion
[ 10763 10752 10751 10750 ] final  -45.08 input  -60.55 | X-H torsion
[ 11005 11000 10999 10996 ] final   77.14 input  -57.11 | X-H torsion

> <Gold.Protein.ActiveResidues>
 VAL166  LYS551  ARG553  GLY616  TRP617  ASP618  TYR619  PRO620  LYS621  CYS622 
 ASP623  PHE694  ASN695  SER759  ASP760  ASP761  ALA762  ILE779  LEU786  VAL792 
 PHE793  MET794  SER795  GLU796  ALA797  LYS798  CYS799  TRP800  GLU811  SER814 

> <Gold.Protein.RotatedAtoms>
  152.5142  134.3727  159.9323 H   0  0  0  0  0  0  0  0  0  0  0  0  # atno 6907 bound_to 6896
  151.3681  133.3858  159.2704 H   0  0  0  0  0  0  0  0  0  0  0  0  # atno 6908 bound_to 6896
  150.9599  134.9007  159.7782 H   0  0  0  0  0  0  0  0  0  0  0  0  # atno 6909 bound_to 6896
  145.1144  140.8631  143.3851 H   0  0  0  0  0  0  0  0  0  0  0  0  # atno 7974 bound_to 7965
  155.5188  140.3479  155.4402 H   0  0  0  0  0  0  0  0  0  0  0  0  # atno 8008 bound_to 7997
  156.0799  140.1384  156.9753 H   0  0  0  0  0  0  0  0  0  0  0  0  # atno 8009 bound_to 7997
  154.4574  140.0948  156.6772 H   0  0  0  0  0  0  0  0  0  0  0  0  # atno 8010 bound_to 7997
  139.6127  144.0782  152.1858 H   0  0  0  0  0  0  0  0  0  0  0  0  # atno 10167 bound_to 10162
  156.7290  130.9299  151.3103 H   0  0  0  0  0  0  0  0  0  0  0  0  # atno 10718 bound_to 10713
  154.0226  135.6667  153.4774 H   0  0  0  0  0  0  0  0  0  0  0  0  # atno 10763 bound_to 10752
  153.0574  135.5048  154.8009 H   0  0  0  0  0  0  0  0  0  0  0  0  # atno 10764 bound_to 10752
  154.6928  135.3064  154.9420 H   0  0  0  0  0  0  0  0  0  0  0  0  # atno 10765 bound_to 10752
  139.9267  134.7659  156.1485 H   0  0  0  0  0  0  0  0  0  0  0  0  # atno 11005 bound_to 11000
  145.0811  139.2959  143.5783 LP  0  0  0  0  0  0  0  0  0  0  0  0  # atno 17320 bound_to 7965
  146.3524  140.0317  142.8650 LP  0  0  0  0  0  0  0  0  0  0  0  0  # atno 17321 bound_to 7965
  140.0404  144.6011  150.7415 LP  0  0  0  0  0  0  0  0  0  0  0  0  # atno 17342 bound_to 10162
  140.7330  143.2712  151.3882 LP  0  0  0  0  0  0  0  0  0  0  0  0  # atno 17343 bound_to 10162
  157.6866  130.9192  150.0404 LP  0  0  0  0  0  0  0  0  0  0  0  0  # atno 17370 bound_to 10713
  156.1542  130.3643  149.9394 LP  0  0  0  0  0  0  0  0  0  0  0  0  # atno 17371 bound_to 10713
  141.0829  133.6746  156.2375 LP  0  0  0  0  0  0  0  0  0  0  0  0  # atno 17394 bound_to 11000
  140.6316  134.5258  157.5560 LP  0  0  0  0  0  0  0  0  0  0  0  0  # atno 17395 bound_to 11000

$$$$
