AV-unprocessed.smi:399|AV-procd|sdf|2490|dock8
  -GOLD-   2262022433D 1   1.00000     0.00000
 Structure written by MMmdl.
 46 47  0  0  0  0  0  0  0  0  3 V2000
  150.8546  140.1089  158.0084 C   0  0  0  0  0  0  0  0  0  0  0  0
  150.7333  139.3354  156.6701 C   0  0  0  0  0  0  0  0  0  0  0  0
  152.1218  139.4692  155.9923 C   0  0  0  0  0  0  0  0  0  0  0  0
  150.4649  137.8312  156.9773 C   0  0  0  0  0  0  0  0  0  0  0  0
  149.1913  137.6056  157.6544 N   0  0  0  0  0  0  0  0  0  0  0  0
  149.0556  136.9699  158.8263 C   0  0  0  0  0  0  0  0  0  0  0  0
  150.0096  136.5117  159.4568 O   0  0  0  0  0  0  0  0  0  0  0  0
  147.6223  136.8553  159.3652 C   0  0  0  0  0  0  0  0  0  0  0  0
  147.4773  135.8502  160.4321 N   0  0  0  0  0  0  0  0  0  0  0  0
  147.6422  134.5000  160.0653 C   0  0  0  0  0  0  0  0  0  0  0  0
  147.5239  133.4963  160.9565 C   0  0  0  0  0  0  0  0  0  0  0  0
  147.6894  132.1148  160.5608 N   0  3  0  0  0  0  0  0  0  0  0  0
  147.6009  131.2424  161.4187 O   0  0  0  0  0  0  0  0  0  0  0  0
  147.9138  131.8558  159.3821 O   0  5  0  0  0  0  0  0  0  0  0  0
  147.2190  133.8470  162.3301 C   0  0  0  0  0  0  0  0  0  0  0  0
  147.0554  135.1362  162.6864 C   0  0  0  0  0  0  0  0  0  0  0  0
  147.1789  136.2265  161.7134 C   0  0  0  0  0  0  0  0  0  0  0  0
  147.0232  137.4058  162.0308 O   0  0  0  0  0  0  0  0  0  0  0  0
  149.6788  139.9459  155.8142 N   0  0  0  0  0  0  0  0  0  0  0  0
  149.7883  141.3991  155.6358 C   0  0  0  0  0  0  0  0  0  0  0  0
  148.5984  141.9775  154.8508 C   0  0  0  0  0  0  0  0  0  0  0  0
  148.4945  141.3269  153.5903 O   0  0  0  0  0  0  0  0  0  0  0  0
  148.3258  139.9204  153.7185 C   0  0  0  0  0  0  0  0  0  0  0  0
  149.5128  139.3243  154.4945 C   0  0  0  0  0  0  0  0  0  0  0  0
  151.7435  139.8221  158.5711 H   0  0  0  0  0  0  0  0  0  0  0  0
  150.0062  139.9266  158.6680 H   0  0  0  0  0  0  0  0  0  0  0  0
  150.9201  141.1845  157.8388 H   0  0  0  0  0  0  0  0  0  0  0  0
  152.9372  139.2167  156.6707 H   0  0  0  0  0  0  0  0  0  0  0  0
  152.2979  140.4899  155.6503 H   0  0  0  0  0  0  0  0  0  0  0  0
  152.2273  138.8071  155.1330 H   0  0  0  0  0  0  0  0  0  0  0  0
  150.4555  137.2430  156.0594 H   0  0  0  0  0  0  0  0  0  0  0  0
  151.2586  137.4229  157.6036 H   0  0  0  0  0  0  0  0  0  0  0  0
  148.3610  137.9546  157.1979 H   0  0  0  0  0  0  0  0  0  0  0  0
  147.3145  137.8383  159.7246 H   0  0  0  0  0  0  0  0  0  0  0  0
  146.9456  136.6305  158.5386 H   0  0  0  0  0  0  0  0  0  0  0  0
  147.8591  134.3438  159.0183 H   0  0  0  0  0  0  0  0  0  0  0  0
  147.1192  133.0791  163.0830 H   0  0  0  0  0  0  0  0  0  0  0  0
  146.8281  135.3746  163.7152 H   0  0  0  0  0  0  0  0  0  0  0  0
  149.8299  141.9083  156.5969 H   0  0  0  0  0  0  0  0  0  0  0  0
  150.7075  141.6471  155.1051 H   0  0  0  0  0  0  0  0  0  0  0  0
  147.6697  141.8548  155.4104 H   0  0  0  0  0  0  0  0  0  0  0  0
  148.7358  143.0467  154.6887 H   0  0  0  0  0  0  0  0  0  0  0  0
  147.3842  139.7036  154.2255 H   0  0  0  0  0  0  0  0  0  0  0  0
  148.2633  139.4780  152.7243 H   0  0  0  0  0  0  0  0  0  0  0  0
  150.4168  139.4524  153.8993 H   0  0  0  0  0  0  0  0  0  0  0  0
  149.3434  138.2530  154.5862 H   0  0  0  0  0  0  0  0  0  0  0  0
  1  2  1  0  0  0  0
  1 25  1  0  0  0  0
  1 26  1  0  0  0  0
  1 27  1  0  0  0  0
  2  3  1  0  0  0  0
  2  4  1  0  0  0  0
  2 19  1  0  0  0  0
  3 28  1  0  0  0  0
  3 29  1  0  0  0  0
  3 30  1  0  0  0  0
  4  5  1  0  0  0  0
  4 31  1  0  0  0  0
  4 32  1  0  0  0  0
  5  6  1  0  0  0  0
  5 33  1  0  0  0  0
  6  7  2  0  0  0  0
  6  8  1  0  0  0  0
  8  9  1  0  0  0  0
  8 34  1  0  0  0  0
  8 35  1  0  0  0  0
  9 17  1  0  0  0  0
  9 10  1  0  0  0  0
 10 11  2  0  0  0  0
 10 36  1  0  0  0  0
 11 12  1  0  0  0  0
 11 15  1  0  0  0  0
 12 13  2  0  0  0  0
 12 14  1  0  0  0  0
 15 16  2  0  0  0  0
 15 37  1  0  0  0  0
 16 17  1  0  0  0  0
 16 38  1  0  0  0  0
 17 18  2  0  0  0  0
 19 24  1  0  0  0  0
 19 20  1  0  0  0  0
 20 21  1  0  0  0  0
 20 39  1  0  0  0  0
 20 40  1  0  0  0  0
 21 22  1  0  0  0  0
 21 41  1  0  0  0  0
 21 42  1  0  0  0  0
 22 23  1  0  0  0  0
 23 24  1  0  0  0  0
 23 43  1  0  0  0  0
 23 44  1  0  0  0  0
 24 45  1  0  0  0  0
 24 46  1  0  0  0  0
M  CHG  1  12   1
M  CHG  1  14  -1
M  END
> <s_m_source_file>
AV-unprocessed.smi

> <i_m_source_file_index>
399

> <i_lp_mmshare_version>
43012

> <i_f3d_flags>
0

> <s_epik_input>
W0NIMl0xW0NIMl1PW0NIMl1bQ0gyXU4xQyhbQ0gzXSkoW0NIM10pW0NIMl1bTkhdQyg9TylbQ0gyXW4yW2NIXWMoW04rXSg9TylbTy1dKVtjSF1bY0hdYzI9Tw==

> <s_epik_cmdline>
J2VwaWtfcHl0aG9uJywgJy1waCcsICc3LjAnLCAnLXRuJywgJzgnLCAnLW1hJywgJzIwMCcsICctbWV0YWxfYmluZGluZycsICctaW1hZScsICc8aW5maWxlLm1hZT4nLCAnLW9tYWUnLCAnPG91dGZpbGUubWFlPic=

> <r_lp_tautomer_probability>
1

> <r_epik_Ionization_Penalty>
0.237382

> <r_epik_Ionization_Penalty_Charging>
7.45368e-11

> <r_epik_Ionization_Penalty_Neutral>
0.237382

> <r_epik_State_Penalty>
0.228245

> <r_epik_Charging_Adjusted_Penalty>
0.228245

> <i_epik_Tot_Q>
0

> <i_epik_Tot_abs_Q>
2

> <r_epik_Metal_State_Penalty>
0.22822

> <b_epik_Metal_Only>
0

> <s_lp_Force_Field>
OPLS_2005

> <r_lp_Energy>
50.757

> <b_lp_Chiralities_Consistent>
1

> <s_lp_Variant>
AV-unprocessed.smi:399-1

> <Gold.Version>
5.8.1

> <Gold.Id.Protein>
6NUR|6NUR_protein|mol2

> <Gold.PLP.Fitness>
46.9697

> <Gold.PLP.PLP>
-37.7063

> <Gold.PLP.part.hbond>
-4.0000

> <Gold.PLP.part.metal>
0.0000

> <Gold.PLP.part.buried>
0.6630

> <Gold.PLP.part.nonpolar>
-35.1877

> <Gold.PLP.part.repulsive>
2.3561

> <Gold.PLP.ligand.clash>
0.0000

> <Gold.PLP.ligand.torsion>
0.3331

> <Gold.PLP.Chemscore.Hbond>
3.2802

> <Gold.PLP.Chemscore.CHOScore>
0.0000

> <Gold.PLP.Chemscore.Metal>
0.0000

> <Gold.Chemscore.Hbonds>
donor molecule, donor type, donor heavy atom, donor atom, acceptor molecule, acceptor atom, score
      P1  H  6896  6908       L1     7  1.00
      P1  H  6931  6943       L1    18  0.46
      P1  H  6934  6947       L1    18  0.75
      P1  H  8011  8017       L1    22  0.65

> <Gold.PLP.Chemscore.Internal.Correction>
0.0892

> <Gold.Rescore>
     Score         DG    S(hbond)    S(metal)    S(lipo)     H(rot)  DE(clash)    DE(int)     intcor
     16.34     -20.08       3.19        0.00      79.85       2.11       3.17       0.57       ----

> <Gold.Chemscore.Fitness>
16.3352

> <Gold.Chemscore.DG>
-20.0771

> <Gold.Chemscore.ZeroCoef>
-5.4800

> <Gold.Chemscore.Hbond>
3.1896

> <Gold.Chemscore.Metal>
0.0000

> <Gold.Chemscore.Lipo>
79.8540

> <Gold.Chemscore.Internal_Hbond>
0.0000

> <Gold.Chemscore.DEClash>
3.1704

> <Gold.Chemscore.DEInternal>
0.5715

> <Gold.Chemscore.Rot>
2.1090

> <Gold.Chemscore.Internal.Correction>
   9.000000E+99

> <Gold.Chemscore.Hbonds>
donor molecule, donor type, donor heavy atom, donor atom, acceptor molecule, acceptor atom, score
      P1  H  6896  6908       L1     7  1.00
      P1  H  6931  6943       L1    18  0.23
      P1  H  6934  6947       L1    18  0.73
      P1  H  8011  8017       L1    22  0.29

> <Gold.Chemscore.Hbond.Weighted>
-10.6531

> <Gold.Chemscore.Metal.Weighted>
-0.0000

> <Gold.Chemscore.Lipo.Weighted>
-9.3429

> <Gold.Chemscore.Internal_Hbond.Weighted>
0.0000

> <Gold.Chemscore.DEClash.Weighted>
3.1704

> <Gold.Chemscore.DEInternal.Weighted>
0.5715

> <Gold.Chemscore.Rot.Weighted>
5.3989

> <Gold.Chemscore.Internal.Correction.Weighted>
   9.000000E+99

> <Gold.Protein.RotatedTorsions>
[ 6907 6896 6895 6894 ] final -145.20 input  -60.11 | X-H torsion
[ 7974 7965 7964 7962 ] final  -38.70 input  175.53 | X-H torsion
[ 8008 7997 7996 7995 ] final -104.47 input   59.86 | X-H torsion
[ 10167 10162 10161 10158 ] final  119.91 input  -65.29 | X-H torsion
[ 10718 10713 10712 10709 ] final  -64.39 input   66.30 | X-H torsion
[ 10763 10752 10751 10750 ] final   32.50 input  -60.55 | X-H torsion
[ 11005 11000 10999 10996 ] final  164.81 input  -57.11 | X-H torsion

> <Gold.Protein.ActiveResidues>
 VAL166  LYS551  ARG553  GLY616  TRP617  ASP618  TYR619  PRO620  LYS621  CYS622 
 ASP623  PHE694  ASN695  SER759  ASP760  ASP761  ALA762  ILE779  LEU786  VAL792 
 PHE793  MET794  SER795  GLU796  ALA797  LYS798  CYS799  TRP800  GLU811  SER814 

> <Gold.Protein.RotatedAtoms>
  151.1244  133.5081  159.2600 H   0  0  0  0  0  0  0  0  0  0  0  0  # atno 6907 bound_to 6896
  151.1826  135.0367  159.8808 H   0  0  0  0  0  0  0  0  0  0  0  0  # atno 6908 bound_to 6896
  152.5457  134.1095  159.8405 H   0  0  0  0  0  0  0  0  0  0  0  0  # atno 6909 bound_to 6896
  146.0463  140.6542  142.9063 H   0  0  0  0  0  0  0  0  0  0  0  0  # atno 7974 bound_to 7965
  154.8857  140.0417  157.1809 H   0  0  0  0  0  0  0  0  0  0  0  0  # atno 8008 bound_to 7997
  154.8593  140.2941  155.5528 H   0  0  0  0  0  0  0  0  0  0  0  0  # atno 8009 bound_to 7997
  156.2998  140.2450  156.3564 H   0  0  0  0  0  0  0  0  0  0  0  0  # atno 8010 bound_to 7997
  139.6016  144.7058  151.3050 H   0  0  0  0  0  0  0  0  0  0  0  0  # atno 10167 bound_to 10162
  156.0732  130.4233  150.1414 H   0  0  0  0  0  0  0  0  0  0  0  0  # atno 10718 bound_to 10713
  153.0259  135.6411  154.1365 H   0  0  0  0  0  0  0  0  0  0  0  0  # atno 10763 bound_to 10752
  154.1094  135.2854  155.3235 H   0  0  0  0  0  0  0  0  0  0  0  0  # atno 10764 bound_to 10752
  154.6342  135.5482  153.7778 H   0  0  0  0  0  0  0  0  0  0  0  0  # atno 10765 bound_to 10752
  140.2497  134.7987  157.3490 H   0  0  0  0  0  0  0  0  0  0  0  0  # atno 11005 bound_to 11000
  144.7099  140.4000  143.7088 LP  0  0  0  0  0  0  0  0  0  0  0  0  # atno 17320 bound_to 7965
  145.6800  139.1616  143.2706 LP  0  0  0  0  0  0  0  0  0  0  0  0  # atno 17321 bound_to 7965
  140.7253  143.7020  150.7837 LP  0  0  0  0  0  0  0  0  0  0  0  0  # atno 17342 bound_to 10162
  140.0597  143.5167  152.2633 LP  0  0  0  0  0  0  0  0  0  0  0  0  # atno 17343 bound_to 10162
  156.9461  130.9760  151.3507 LP  0  0  0  0  0  0  0  0  0  0  0  0  # atno 17370 bound_to 10713
  157.5814  130.8379  149.8527 LP  0  0  0  0  0  0  0  0  0  0  0  0  # atno 17371 bound_to 10713
  140.1571  134.4776  155.7920 LP  0  0  0  0  0  0  0  0  0  0  0  0  # atno 17394 bound_to 11000
  141.2202  133.6886  156.7479 LP  0  0  0  0  0  0  0  0  0  0  0  0  # atno 17395 bound_to 11000

$$$$
