AV-unprocessed.smi:1385|AV-procd|sdf|5633|dock6
  -GOLD-   22720 5253D 1   1.00000     0.00000
 Structure written by MMmdl.
 38 39  0  0  0  0  0  0  0  0  3 V2000
  152.6904  141.2040  159.3556 C   0  0  0  0  0  0  0  0  0  0  0  0
  152.3208  140.7023  158.0019 C   0  0  0  0  0  0  0  0  0  0  0  0
  152.9965  139.7333  157.3795 N   0  0  0  0  0  0  0  0  0  0  0  0
  152.4601  139.4388  156.1347 N   0  0  0  0  0  0  0  0  0  0  0  0
  151.3827  140.1791  155.8379 C   0  0  0  0  0  0  0  0  0  0  0  0
  150.7186  140.0487  154.6774 N   0  5  0  0  0  0  0  0  0  0  0  0
  149.6074  140.7839  154.4489 C   0  0  0  0  0  0  0  0  0  0  0  0
  149.4321  141.9639  154.7607 O   0  0  0  0  0  0  0  0  0  0  0  0
  148.6362  140.1042  153.8232 N   0  0  0  0  0  0  0  0  0  0  0  0
  147.3167  140.6178  153.4572 C   0  0  2  0  0  0  0  0  0  0  0  0
  146.2049  140.0134  154.3379 C   0  0  0  0  0  0  0  0  0  0  0  0
  145.9929  138.5179  154.0452 C   0  0  0  0  0  0  0  0  0  0  0  0
  145.6992  138.2912  152.6048 N   0  3  2  0  0  0  0  0  0  0  0  0
  145.3545  136.8793  152.2960 C   0  0  0  0  0  0  0  0  0  0  0  0
  143.8934  136.5369  152.6056 C   0  0  0  0  0  0  0  0  0  0  0  0
  143.0482  137.5625  152.7333 N   0  0  0  0  0  0  0  0  0  0  0  0
  143.5329  135.3696  152.7456 O   0  0  0  0  0  0  0  0  0  0  0  0
  146.7838  138.8133  151.7348 C   0  0  0  0  0  0  0  0  0  0  0  0
  147.0209  140.3153  151.9783 C   0  0  0  0  0  0  0  0  0  0  0  0
  150.9555  141.3359  157.0985 S   0  0  0  0  0  0  0  0  0  0  0  0
  152.1620  140.6341  160.1197 H   0  0  0  0  0  0  0  0  0  0  0  0
  152.4219  142.2560  159.4532 H   0  0  0  0  0  0  0  0  0  0  0  0
  153.7635  141.1021  159.5196 H   0  0  0  0  0  0  0  0  0  0  0  0
  148.8354  139.1443  153.5829 H   0  0  0  0  0  0  0  0  0  0  0  0
  147.3264  141.7011  153.5886 H   0  0  0  0  0  0  0  0  0  0  0  0
  146.4294  140.1580  155.3954 H   0  0  0  0  0  0  0  0  0  0  0  0
  145.2720  140.5479  154.1538 H   0  0  0  0  0  0  0  0  0  0  0  0
  146.8771  137.9474  154.3339 H   0  0  0  0  0  0  0  0  0  0  0  0
  145.1698  138.1498  154.6578 H   0  0  0  0  0  0  0  0  0  0  0  0
  145.4973  136.6908  151.2312 H   0  0  0  0  0  0  0  0  0  0  0  0
  146.0289  136.2045  152.8262 H   0  0  0  0  0  0  0  0  0  0  0  0
  142.0728  137.3951  152.9351 H   0  0  0  0  0  0  0  0  0  0  0  0
  143.3879  138.5077  152.6250 H   0  0  0  0  0  0  0  0  0  0  0  0
  147.6995  138.2476  151.9140 H   0  0  0  0  0  0  0  0  0  0  0  0
  146.5198  138.6618  150.6875 H   0  0  0  0  0  0  0  0  0  0  0  0
  146.1345  140.8710  151.6694 H   0  0  0  0  0  0  0  0  0  0  0  0
  147.8364  140.6733  151.3486 H   0  0  0  0  0  0  0  0  0  0  0  0
  144.8758  138.8338  152.3853 H   0  0  0  0  0  0  0  0  0  0  0  0
  1  2  1  0  0  0  0
  1 21  1  0  0  0  0
  1 22  1  0  0  0  0
  1 23  1  0  0  0  0
  2 20  1  0  0  0  0
  2  3  2  0  0  0  0
  3  4  1  0  0  0  0
  4  5  2  0  0  0  0
  5  6  1  0  0  0  0
  5 20  1  0  0  0  0
  6  7  1  0  0  0  0
  7  8  2  0  0  0  0
  7  9  1  0  0  0  0
  9 10  1  0  0  0  0
  9 24  1  0  0  0  0
 10 19  1  0  0  0  0
 10 11  1  0  0  0  0
 10 25  1  0  0  0  0
 11 12  1  0  0  0  0
 11 26  1  0  0  0  0
 11 27  1  0  0  0  0
 12 13  1  0  0  0  0
 12 28  1  0  0  0  0
 12 29  1  0  0  0  0
 13 14  1  0  0  0  0
 13 18  1  0  0  0  0
 13 38  1  0  0  0  0
 14 15  1  0  0  0  0
 14 30  1  0  0  0  0
 14 31  1  0  0  0  0
 15 16  1  0  0  0  0
 15 17  2  0  0  0  0
 16 32  1  0  0  0  0
 16 33  1  0  0  0  0
 18 19  1  0  0  0  0
 18 34  1  0  0  0  0
 18 35  1  0  0  0  0
 19 36  1  0  0  0  0
 19 37  1  0  0  0  0
M  CHG  1   6  -1
M  CHG  1  13   1
M  END
> <s_m_source_file>
AV-unprocessed.smi

> <i_m_source_file_index>
1385

> <i_lp_mmshare_version>
43012

> <i_f3d_flags>
0

> <s_epik_input>
W0NIM11jMW5uYyhzMSlbTkhdQyg9TylbTkhdW0NIXTJbQ0gyXVtDSDJdTihbQ0gyXVtDSDJdMilbQ0gyXUMoPU8pW05IMl0=

> <s_epik_cmdline>
J2VwaWtfcHl0aG9uJywgJy1waCcsICc3LjAnLCAnLXRuJywgJzgnLCAnLW1hJywgJzIwMCcsICctbWV0YWxfYmluZGluZycsICctaW1hZScsICc8aW5maWxlLm1hZT4nLCAnLW9tYWUnLCAnPG91dGZpbGUubWFlPic=

> <r_lp_tautomer_probability>
1

> <r_epik_Ionization_Penalty>
3.90109

> <r_epik_Ionization_Penalty_Charging>
3.79141

> <r_epik_Ionization_Penalty_Neutral>
0.109679

> <r_epik_State_Penalty>
3.87237

> <r_epik_Charging_Adjusted_Penalty>
7.66378

> <i_epik_Tot_Q>
0

> <i_epik_Tot_abs_Q>
2

> <r_epik_Metal_State_Penalty>
1.33354

> <b_epik_Metal_Only>
1

> <s_lp_Force_Field>
OPLS_2005

> <r_lp_Energy>
6.54798

> <b_lp_Chiralities_Consistent>
1

> <s_lp_Variant>
AV-unprocessed.smi:1385-6

> <Gold.Version>
5.8.1

> <Gold.Id.Protein>
6NUR|6NUR_protein|mol2

> <Gold.PLP.Fitness>
43.1574

> <Gold.PLP.PLP>
-30.6433

> <Gold.PLP.part.hbond>
-7.6164

> <Gold.PLP.part.metal>
0.0000

> <Gold.PLP.part.buried>
0.9624

> <Gold.PLP.part.nonpolar>
-26.4629

> <Gold.PLP.part.repulsive>
1.9113

> <Gold.PLP.ligand.clash>
0.0000

> <Gold.PLP.ligand.torsion>
0.9547

> <Gold.PLP.Chemscore.Hbond>
4.8000

> <Gold.PLP.Chemscore.CHOScore>
0.0000

> <Gold.PLP.Chemscore.Metal>
0.0000

> <Gold.Chemscore.Hbonds>
donor molecule, donor type, donor heavy atom, donor atom, acceptor molecule, acceptor atom, score
      L1  H    13    38       P1 10175  2.00
      L1  H    16    33       P1 10175  1.00
      P1  H  7989  7998       L1     6  0.65
      P1  H  7997  8010       L1     3  1.00

> <Gold.PLP.Chemscore.Internal.Correction>
0.0234

> <Gold.Rescore>
     Score         DG    S(hbond)    S(metal)    S(lipo)     H(rot)  DE(clash)    DE(int)     intcor
     10.56     -14.84       2.17        0.00      62.86       2.04       2.02       2.26       ----

> <Gold.Chemscore.Fitness>
10.5556

> <Gold.Chemscore.DG>
-14.8425

> <Gold.Chemscore.ZeroCoef>
-5.4800

> <Gold.Chemscore.Hbond>
2.1659

> <Gold.Chemscore.Metal>
0.0000

> <Gold.Chemscore.Lipo>
62.8592

> <Gold.Chemscore.Internal_Hbond>
0.0000

> <Gold.Chemscore.DEClash>
2.0228

> <Gold.Chemscore.DEInternal>
2.2641

> <Gold.Chemscore.Rot>
2.0415

> <Gold.Chemscore.Internal.Correction>
   9.000000E+99

> <Gold.Chemscore.Hbonds>
donor molecule, donor type, donor heavy atom, donor atom, acceptor molecule, acceptor atom, score
      L1  H    13    38       P1 10175  0.93
      L1  H    16    33       P1 10175  0.99
      P1  H  7989  7998       L1     6  0.03
      P1  H  7997  8010       L1     3  0.31

> <Gold.Chemscore.Hbond.Weighted>
-7.2342

> <Gold.Chemscore.Metal.Weighted>
-0.0000

> <Gold.Chemscore.Lipo.Weighted>
-7.3545

> <Gold.Chemscore.Internal_Hbond.Weighted>
0.0000

> <Gold.Chemscore.DEClash.Weighted>
2.0228

> <Gold.Chemscore.DEInternal.Weighted>
2.2641

> <Gold.Chemscore.Rot.Weighted>
5.2262

> <Gold.Chemscore.Internal.Correction.Weighted>
   9.000000E+99

> <Gold.Protein.RotatedTorsions>
[ 6907 6896 6895 6894 ] final  141.62 input  -60.11 | X-H torsion
[ 7974 7965 7964 7962 ] final   11.69 input  175.53 | X-H torsion
[ 8008 7997 7996 7995 ] final   34.92 input   59.86 | X-H torsion
[ 10167 10162 10161 10158 ] final  -76.83 input  -65.29 | X-H torsion
[ 10718 10713 10712 10709 ] final -169.21 input   66.30 | X-H torsion
[ 10763 10752 10751 10750 ] final   79.86 input  -60.55 | X-H torsion
[ 11005 11000 10999 10996 ] final   67.24 input  -57.11 | X-H torsion

> <Gold.Protein.ActiveResidues>
 VAL166  LYS551  ARG553  GLY616  TRP617  ASP618  TYR619  PRO620  LYS621  CYS622 
 ASP623  PHE694  ASN695  SER759  ASP760  ASP761  ALA762  ILE779  LEU786  VAL792 
 PHE793  MET794  SER795  GLU796  ALA797  LYS798  CYS799  TRP800  GLU811  SER814 

> <Gold.Protein.RotatedAtoms>
  152.2287  133.5041  159.5203 H   0  0  0  0  0  0  0  0  0  0  0  0  # atno 6907 bound_to 6896
  150.7031  134.1245  159.4056 H   0  0  0  0  0  0  0  0  0  0  0  0  # atno 6908 bound_to 6896
  151.9166  135.0316  160.0569 H   0  0  0  0  0  0  0  0  0  0  0  0  # atno 6909 bound_to 6896
  146.2366  139.9448  142.8478 H   0  0  0  0  0  0  0  0  0  0  0  0  # atno 7974 bound_to 7965
  155.1627  140.3285  155.4408 H   0  0  0  0  0  0  0  0  0  0  0  0  # atno 8008 bound_to 7997
  156.2537  140.1957  156.6684 H   0  0  0  0  0  0  0  0  0  0  0  0  # atno 8009 bound_to 7997
  154.6393  140.0572  156.9813 H   0  0  0  0  0  0  0  0  0  0  0  0  # atno 8010 bound_to 7997
  140.4823  143.2399  151.8038 H   0  0  0  0  0  0  0  0  0  0  0  0  # atno 10167 bound_to 10162
  156.7083  130.9223  151.3087 H   0  0  0  0  0  0  0  0  0  0  0  0  # atno 10718 bound_to 10713
  153.0987  135.4824  154.8826 H   0  0  0  0  0  0  0  0  0  0  0  0  # atno 10763 bound_to 10752
  154.7354  135.3069  154.8823 H   0  0  0  0  0  0  0  0  0  0  0  0  # atno 10764 bound_to 10752
  153.9447  135.6830  153.4797 H   0  0  0  0  0  0  0  0  0  0  0  0  # atno 10765 bound_to 10752
  139.9783  134.6786  156.0312 H   0  0  0  0  0  0  0  0  0  0  0  0  # atno 11005 bound_to 11000
  145.1917  140.9815  143.4207 LP  0  0  0  0  0  0  0  0  0  0  0  0  # atno 17320 bound_to 7965
  144.9851  139.3745  143.6243 LP  0  0  0  0  0  0  0  0  0  0  0  0  # atno 17321 bound_to 7965
  139.4836  144.4756  151.9371 LP  0  0  0  0  0  0  0  0  0  0  0  0  # atno 17342 bound_to 10162
  140.3842  144.2698  150.5905 LP  0  0  0  0  0  0  0  0  0  0  0  0  # atno 17343 bound_to 10162
  157.6946  130.9269  150.0609 LP  0  0  0  0  0  0  0  0  0  0  0  0  # atno 17370 bound_to 10713
  156.1679  130.3645  149.9206 LP  0  0  0  0  0  0  0  0  0  0  0  0  # atno 17371 bound_to 10713
  141.1457  133.6556  156.3862 LP  0  0  0  0  0  0  0  0  0  0  0  0  # atno 17394 bound_to 11000
  140.5150  134.6359  157.5298 LP  0  0  0  0  0  0  0  0  0  0  0  0  # atno 17395 bound_to 11000

$$$$
