AV-unprocessed.smi:59|AV-procd|sdf|590|dock3
  -GOLD-   2262016483D 1   1.00000     0.00000
 Structure written by MMmdl.
 29 30  0  0  0  0  0  0  0  0  2 V2000
  148.2538  140.7304  154.5218 C   0  0  0  0  0  0  0  0  0  0  0  0
  149.1551  139.6074  154.7578 N   0  0  0  0  0  0  0  0  0  0  0  0
  148.8003  138.3201  154.8775 C   0  0  0  0  0  0  0  0  0  0  0  0
  147.6553  137.8697  154.8330 O   0  0  0  0  0  0  0  0  0  0  0  0
  150.0306  137.4578  155.1023 C   0  0  1  0  0  0  0  0  0  0  0  0
  149.9677  136.2426  154.3796 O   0  0  0  0  0  0  0  0  0  0  0  0
  151.1664  138.3851  154.6264 C   0  0  2  0  0  0  0  0  0  0  0  0
  152.5421  138.0890  155.2583 C   0  0  0  0  0  0  0  0  0  0  0  0
  153.4997  138.8511  154.9982 O   0  0  0  0  0  0  0  0  0  0  0  0
  152.6053  137.0940  156.0134 O   0  5  0  0  0  0  0  0  0  0  0  0
  150.6009  139.8191  154.8178 C   0  0  2  0  0  0  0  0  0  0  0  0
  151.0166  140.5023  156.1071 C   0  0  0  0  0  0  0  0  0  0  0  0
  151.2146  139.8984  157.3823 C   0  0  0  0  0  0  0  0  0  0  0  0
  151.5788  140.7639  158.3145 N   0  0  0  0  0  0  0  0  0  0  0  0
  151.6188  141.9490  157.6731 N   0  0  0  0  0  0  0  0  0  0  0  0
  151.9802  143.1437  158.4048 C   0  0  0  0  0  0  0  0  0  0  0  0
  151.2859  141.8228  156.3423 C   0  0  0  0  0  0  0  0  0  0  0  0
  150.0942  137.2438  156.1702 H   0  0  0  0  0  0  0  0  0  0  0  0
  151.2850  138.2273  153.5522 H   0  0  0  0  0  0  0  0  0  0  0  0
  150.8925  140.4278  153.9603 H   0  0  0  0  0  0  0  0  0  0  0  0
  147.2044  140.4385  154.5804 H   0  0  0  0  0  0  0  0  0  0  0  0
  148.4320  141.1524  153.5328 H   0  0  0  0  0  0  0  0  0  0  0  0
  148.4225  141.5137  155.2610 H   0  0  0  0  0  0  0  0  0  0  0  0
  149.7495  136.4425  153.4823 H   0  0  0  0  0  0  0  0  0  0  0  0
  151.1035  138.8593  157.6546 H   0  0  0  0  0  0  0  0  0  0  0  0
  152.0140  143.9996  157.7302 H   0  0  0  0  0  0  0  0  0  0  0  0
  152.9611  143.0144  158.8631 H   0  0  0  0  0  0  0  0  0  0  0  0
  151.2422  143.3355  159.1844 H   0  0  0  0  0  0  0  0  0  0  0  0
  151.2648  142.6737  155.6774 H   0  0  0  0  0  0  0  0  0  0  0  0
  1  2  1  0  0  0  0
  1 21  1  0  0  0  0
  1 22  1  0  0  0  0
  1 23  1  0  0  0  0
  2 11  1  0  0  0  0
  2  3  1  0  0  0  0
  3  4  2  0  0  0  0
  3  5  1  0  0  0  0
  5 18  1  0  0  0  0
  5  6  1  0  0  0  0
  5  7  1  0  0  0  0
  6 24  1  0  0  0  0
  7 19  1  0  0  0  0
  7  8  1  0  0  0  0
  7 11  1  0  0  0  0
  8  9  2  0  0  0  0
  8 10  1  0  0  0  0
 11 20  1  0  0  0  0
 11 12  1  0  0  0  0
 12 17  2  0  0  0  0
 12 13  1  0  0  0  0
 13 14  2  0  0  0  0
 13 25  1  0  0  0  0
 14 15  1  0  0  0  0
 15 16  1  0  0  0  0
 15 17  1  0  0  0  0
 16 26  1  0  0  0  0
 16 27  1  0  0  0  0
 16 28  1  0  0  0  0
 17 29  1  0  0  0  0
M  CHG  1  10  -1
M  END
> <s_m_source_file>
AV-unprocessed.smi

> <i_m_source_file_index>
59

> <i_lp_mmshare_version>
43012

> <i_f3d_flags>
0

> <s_epik_input>
W0NIM11OMUMoPU8pW0NASF0oW09IXSlbQ0BIXShDKD1PKVtPSF0pW0NASF0xYzJbY0hdbm4oW0NIM10pW2NIXTI=

> <s_epik_cmdline>
J2VwaWtfcHl0aG9uJywgJy1waCcsICc3LjAnLCAnLXRuJywgJzgnLCAnLW1hJywgJzIwMCcsICctbWV0YWxfYmluZGluZycsICctaW1hZScsICc8aW5maWxlLm1hZT4nLCAnLW9tYWUnLCAnPG91dGZpbGUubWFlPic=

> <r_lp_tautomer_probability>
1

> <r_epik_Ionization_Penalty>
0.00173515

> <r_epik_Ionization_Penalty_Charging>
0.00120567

> <r_epik_Ionization_Penalty_Neutral>
0.000529476

> <r_epik_State_Penalty>
-0

> <r_epik_Charging_Adjusted_Penalty>
0.00120567

> <i_epik_Tot_Q>
-1

> <i_epik_Tot_abs_Q>
1

> <r_epik_Metal_State_Penalty>
-0

> <b_epik_Metal_Only>
0

> <s_lp_Force_Field>
OPLS_2005

> <r_lp_Energy>
8.21521

> <b_lp_Chiralities_Consistent>
1

> <s_lp_Variant>
AV-unprocessed.smi:59-6

> <Gold.Version>
5.8.1

> <Gold.Id.Protein>
6NUR|6NUR_protein|mol2

> <Gold.PLP.Fitness>
40.2398

> <Gold.PLP.PLP>
-27.7579

> <Gold.PLP.part.hbond>
-3.7149

> <Gold.PLP.part.metal>
0.0000

> <Gold.PLP.part.buried>
-3.6141

> <Gold.PLP.part.nonpolar>
-21.8028

> <Gold.PLP.part.repulsive>
0.0917

> <Gold.PLP.ligand.clash>
0.0000

> <Gold.PLP.ligand.torsion>
0.7170

> <Gold.PLP.Chemscore.Hbond>
4.6320

> <Gold.PLP.Chemscore.CHOScore>
0.0000

> <Gold.PLP.Chemscore.Metal>
0.0000

> <Gold.Chemscore.Hbonds>
donor molecule, donor type, donor heavy atom, donor atom, acceptor molecule, acceptor atom, score
      L1  H     6    24       P1  7948  1.00
      P1  H  7997  8010       L1     9  2.00
      P1  H 10752 10765       L1    10  1.60

> <Gold.PLP.Chemscore.Internal.Correction>
0.0199

> <Gold.Rescore>
     Score         DG    S(hbond)    S(metal)    S(lipo)     H(rot)  DE(clash)    DE(int)     intcor
     14.39     -14.98       2.60        0.00      52.15       2.06       0.04       0.55       ----

> <Gold.Chemscore.Fitness>
14.3932

> <Gold.Chemscore.DG>
-14.9788

> <Gold.Chemscore.ZeroCoef>
-5.4800

> <Gold.Chemscore.Hbond>
2.5992

> <Gold.Chemscore.Metal>
0.0000

> <Gold.Chemscore.Lipo>
52.1457

> <Gold.Chemscore.Internal_Hbond>
0.0000

> <Gold.Chemscore.DEClash>
0.0375

> <Gold.Chemscore.DEInternal>
0.5480

> <Gold.Chemscore.Rot>
2.0639

> <Gold.Chemscore.Internal.Correction>
   9.000000E+99

> <Gold.Chemscore.Hbonds>
donor molecule, donor type, donor heavy atom, donor atom, acceptor molecule, acceptor atom, score
      L1  H     6    24       P1  7948  0.30
      P1  H  7997  8010       L1     9  0.96
      P1  H 10752 10765       L1    10  0.62

> <Gold.Chemscore.Hbond.Weighted>
-8.6814

> <Gold.Chemscore.Metal.Weighted>
-0.0000

> <Gold.Chemscore.Lipo.Weighted>
-6.1010

> <Gold.Chemscore.Internal_Hbond.Weighted>
0.0000

> <Gold.Chemscore.DEClash.Weighted>
0.0375

> <Gold.Chemscore.DEInternal.Weighted>
0.5480

> <Gold.Chemscore.Rot.Weighted>
5.2837

> <Gold.Chemscore.Internal.Correction.Weighted>
   9.000000E+99

> <Gold.Protein.RotatedTorsions>
[ 6907 6896 6895 6894 ] final -133.47 input  -60.11 | X-H torsion
[ 7974 7965 7964 7962 ] final   49.73 input  175.53 | X-H torsion
[ 8008 7997 7996 7995 ] final  107.66 input   59.86 | X-H torsion
[ 10167 10162 10161 10158 ] final  -96.63 input  -65.29 | X-H torsion
[ 10718 10713 10712 10709 ] final  175.49 input   66.30 | X-H torsion
[ 10763 10752 10751 10750 ] final -149.98 input  -60.55 | X-H torsion
[ 11005 11000 10999 10996 ] final   21.88 input  -57.11 | X-H torsion

> <Gold.Protein.ActiveResidues>
 VAL166  LYS551  ARG553  GLY616  TRP617  ASP618  TYR619  PRO620  LYS621  CYS622 
 ASP623  PHE694  ASN695  SER759  ASP760  ASP761  ALA762  ILE779  LEU786  VAL792 
 PHE793  MET794  SER795  GLU796  ALA797  LYS798  CYS799  TRP800  GLU811  SER814 

> <Gold.Protein.RotatedAtoms>
  150.9744  133.6310  159.2732 H   0  0  0  0  0  0  0  0  0  0  0  0  # atno 6907 bound_to 6896
  151.3588  135.0898  159.9437 H   0  0  0  0  0  0  0  0  0  0  0  0  # atno 6908 bound_to 6896
  152.5194  133.9321  159.7640 H   0  0  0  0  0  0  0  0  0  0  0  0  # atno 6909 bound_to 6896
  146.0081  139.4512  142.9973 H   0  0  0  0  0  0  0  0  0  0  0  0  # atno 7974 bound_to 7965
  156.1841  140.3091  155.9205 H   0  0  0  0  0  0  0  0  0  0  0  0  # atno 8008 bound_to 7997
  155.3319  140.0461  157.3060 H   0  0  0  0  0  0  0  0  0  0  0  0  # atno 8009 bound_to 7997
  154.5376  140.2251  155.8705 H   0  0  0  0  0  0  0  0  0  0  0  0  # atno 8010 bound_to 7997
  140.2918  143.3217  152.0338 H   0  0  0  0  0  0  0  0  0  0  0  0  # atno 10167 bound_to 10162
  156.9341  130.9980  151.2981 H   0  0  0  0  0  0  0  0  0  0  0  0  # atno 10718 bound_to 10713
  154.8145  135.3295  154.7213 H   0  0  0  0  0  0  0  0  0  0  0  0  # atno 10763 bound_to 10752
  153.7856  135.6915  153.4885 H   0  0  0  0  0  0  0  0  0  0  0  0  # atno 10764 bound_to 10752
  153.1951  135.4536  155.0144 H   0  0  0  0  0  0  0  0  0  0  0  0  # atno 10765 bound_to 10752
  140.3867  134.1863  155.7663 H   0  0  0  0  0  0  0  0  0  0  0  0  # atno 11005 bound_to 11000
  145.7385  141.0017  143.1314 LP  0  0  0  0  0  0  0  0  0  0  0  0  # atno 17320 bound_to 7965
  144.6943  139.9070  143.7461 LP  0  0  0  0  0  0  0  0  0  0  0  0  # atno 17321 bound_to 7965
  139.4936  144.6519  151.6656 LP  0  0  0  0  0  0  0  0  0  0  0  0  # atno 17342 bound_to 10162
  140.5726  144.0083  150.6224 LP  0  0  0  0  0  0  0  0  0  0  0  0  # atno 17343 bound_to 10162
  157.5828  130.8388  149.8546 LP  0  0  0  0  0  0  0  0  0  0  0  0  # atno 17370 bound_to 10713
  156.0434  130.3733  150.1378 LP  0  0  0  0  0  0  0  0  0  0  0  0  # atno 17371 bound_to 10713
  141.1905  133.8215  157.0916 LP  0  0  0  0  0  0  0  0  0  0  0  0  # atno 17394 bound_to 11000
  140.0438  134.9841  157.1010 LP  0  0  0  0  0  0  0  0  0  0  0  0  # atno 17395 bound_to 11000

$$$$
