AV-unprocessed.smi:287|AV-procd|sdf|2190|dock10
  -GOLD-   2262021583D 1   1.00000     0.00000
 Structure written by MMmdl.
 55 58  0  0  0  0  0  0  0  0  1 V2000
  151.7567  138.1045  154.6670 C   0  0  0  0  0  0  0  0  0  0  0  0
  150.4692  138.8012  154.3881 C   0  0  0  0  0  0  0  0  0  0  0  0
  149.2787  138.4070  153.8509 C   0  0  0  0  0  0  0  0  0  0  0  0
  148.4133  139.5415  153.8521 C   0  0  0  0  0  0  0  0  0  0  0  0
  146.9761  139.5666  153.3487 C   0  0  2  0  0  0  0  0  0  0  0  0
  146.9452  139.2762  151.8387 C   0  0  0  0  0  0  0  0  0  0  0  0
  146.3630  140.8328  153.4957 O   0  0  0  0  0  0  0  0  0  0  0  0
  146.0729  138.5630  154.1023 C   0  0  0  0  0  0  0  0  0  0  0  0
  144.7451  138.4375  153.5094 N   0  0  0  0  0  0  0  0  0  0  0  0
  144.1352  137.2349  153.4546 C   0  0  0  0  0  0  0  0  0  0  0  0
  143.1728  136.8979  154.3513 N   0  0  0  0  0  0  0  0  0  0  0  0
  142.5820  135.7031  154.2739 C   0  0  0  0  0  0  0  0  0  0  0  0
  142.8013  134.7205  153.3982 N   0  0  0  0  0  0  0  0  0  0  0  0
  143.7683  135.0479  152.4915 C   0  0  0  0  0  0  0  0  0  0  0  0
  144.4757  136.2839  152.4582 C   0  0  0  0  0  0  0  0  0  0  0  0
  145.3789  136.2838  151.4063 N   0  0  0  0  0  0  0  0  0  0  0  0
  145.2093  135.1165  150.8487 C   0  0  0  0  0  0  0  0  0  0  0  0
  144.2712  134.2974  151.4399 N   0  0  0  0  0  0  0  0  0  0  0  0
  143.8796  132.9244  150.9620 C   0  0  2  0  0  0  0  0  0  0  0  0
  144.3943  131.9870  151.8530 O   0  0  0  0  0  0  0  0  0  0  0  0
  145.6126  131.4708  151.3435 C   0  0  1  0  0  0  0  0  0  0  0  0
  145.9356  130.1122  151.9904 C   0  0  0  0  0  0  0  0  0  0  0  0
  147.3187  129.8247  151.9611 O   0  0  0  0  0  0  0  0  0  0  0  0
  145.4595  131.4932  149.8129 C   0  0  2  0  0  0  0  0  0  0  0  0
  146.6910  131.8296  149.2064 O   0  0  0  0  0  0  0  0  0  0  0  0
  144.4106  132.5822  149.5556 C   0  0  1  0  0  0  0  0  0  0  0  0
  143.3768  132.0751  148.7355 O   0  0  0  0  0  0  0  0  0  0  0  0
  149.1672  140.5564  154.3917 C   0  0  0  0  0  0  0  0  0  0  0  0
  148.9117  141.9983  154.6839 C   0  0  0  0  0  0  0  0  0  0  0  0
  150.4136  140.1152  154.7203 O   0  0  0  0  0  0  0  0  0  0  0  0
  142.7899  132.9343  151.0178 H   0  0  0  0  0  0  0  0  0  0  0  0
  146.3881  132.1726  151.6501 H   0  0  0  0  0  0  0  0  0  0  0  0
  145.1208  130.5304  149.4290 H   0  0  0  0  0  0  0  0  0  0  0  0
  144.8162  133.4703  149.0709 H   0  0  0  0  0  0  0  0  0  0  0  0
  151.6726  137.0363  154.4657 H   0  0  0  0  0  0  0  0  0  0  0  0
  152.0460  138.2292  155.7105 H   0  0  0  0  0  0  0  0  0  0  0  0
  152.5557  138.5047  154.0428 H   0  0  0  0  0  0  0  0  0  0  0  0
  149.0493  137.4117  153.5002 H   0  0  0  0  0  0  0  0  0  0  0  0
  147.3600  138.2925  151.6160 H   0  0  0  0  0  0  0  0  0  0  0  0
  147.5278  140.0110  151.2815 H   0  0  0  0  0  0  0  0  0  0  0  0
  145.9271  139.2966  151.4480 H   0  0  0  0  0  0  0  0  0  0  0  0
  145.5119  140.8026  153.0862 H   0  0  0  0  0  0  0  0  0  0  0  0
  146.5530  137.5859  154.1777 H   0  0  0  0  0  0  0  0  0  0  0  0
  145.9325  138.9208  155.1235 H   0  0  0  0  0  0  0  0  0  0  0  0
  144.3141  139.2975  153.2004 H   0  0  0  0  0  0  0  0  0  0  0  0
  141.8267  135.5055  155.0201 H   0  0  0  0  0  0  0  0  0  0  0  0
  145.7729  134.8172  149.9768 H   0  0  0  0  0  0  0  0  0  0  0  0
  145.6160  130.1170  153.0326 H   0  0  0  0  0  0  0  0  0  0  0  0
  145.3878  129.3119  151.4928 H   0  0  0  0  0  0  0  0  0  0  0  0
  147.6949  130.2366  151.1981 H   0  0  0  0  0  0  0  0  0  0  0  0
  147.3897  131.5672  149.7869 H   0  0  0  0  0  0  0  0  0  0  0  0
  142.6480  132.6762  148.7675 H   0  0  0  0  0  0  0  0  0  0  0  0
  148.6134  142.5288  153.7797 H   0  0  0  0  0  0  0  0  0  0  0  0
  149.8036  142.4857  155.0785 H   0  0  0  0  0  0  0  0  0  0  0  0
  148.1162  142.1077  155.4210 H   0  0  0  0  0  0  0  0  0  0  0  0
  1  2  1  0  0  0  0
  1 35  1  0  0  0  0
  1 36  1  0  0  0  0
  1 37  1  0  0  0  0
  2 30  1  0  0  0  0
  2  3  2  0  0  0  0
  3  4  1  0  0  0  0
  3 38  1  0  0  0  0
  4  5  1  0  0  0  0
  4 28  2  0  0  0  0
  5  6  1  0  0  0  0
  5  7  1  0  0  0  0
  5  8  1  0  0  0  0
  6 39  1  0  0  0  0
  6 40  1  0  0  0  0
  6 41  1  0  0  0  0
  7 42  1  0  0  0  0
  8  9  1  0  0  0  0
  8 43  1  0  0  0  0
  8 44  1  0  0  0  0
  9 10  1  0  0  0  0
  9 45  1  0  0  0  0
 10 15  1  0  0  0  0
 10 11  2  0  0  0  0
 11 12  1  0  0  0  0
 12 13  2  0  0  0  0
 12 46  1  0  0  0  0
 13 14  1  0  0  0  0
 14 18  1  0  0  0  0
 14 15  2  0  0  0  0
 15 16  1  0  0  0  0
 16 17  2  0  0  0  0
 17 18  1  0  0  0  0
 17 47  1  0  0  0  0
 18 19  1  0  0  0  0
 19 31  1  0  0  0  0
 19 26  1  0  0  0  0
 19 20  1  0  0  0  0
 20 21  1  0  0  0  0
 21 32  1  0  0  0  0
 21 22  1  0  0  0  0
 21 24  1  0  0  0  0
 22 23  1  0  0  0  0
 22 48  1  0  0  0  0
 22 49  1  0  0  0  0
 23 50  1  0  0  0  0
 24 33  1  0  0  0  0
 24 25  1  0  0  0  0
 24 26  1  0  0  0  0
 25 51  1  0  0  0  0
 26 34  1  0  0  0  0
 26 27  1  0  0  0  0
 27 52  1  0  0  0  0
 28 29  1  0  0  0  0
 28 30  1  0  0  0  0
 29 53  1  0  0  0  0
 29 54  1  0  0  0  0
 29 55  1  0  0  0  0
M  END
> <s_m_source_file>
AV-unprocessed.smi

> <i_m_source_file_index>
287

> <i_lp_mmshare_version>
43012

> <i_f3d_flags>
0

> <s_epik_input>
W0NIM11jMVtjSF1jKGMobzEpW0NIM10pW0NAQF0oW0NIM10pKFtPSF0pW0NIMl1bTkhdYyhuW2NIXW4yKWMoYzIzKW5bY0hdbjNbQ0BASF00T1tDQEhdKFtDSDJdW09IXSlbQ0BASF0oW09IXSlbQ0BIXTRbT0hd

> <s_epik_cmdline>
J2VwaWtfcHl0aG9uJywgJy1waCcsICc3LjAnLCAnLXRuJywgJzgnLCAnLW1hJywgJzIwMCcsICctbWV0YWxfYmluZGluZycsICctaW1hZScsICc8aW5maWxlLm1hZT4nLCAnLW9tYWUnLCAnPG91dGZpbGUubWFlPic=

> <r_lp_tautomer_probability>
1

> <r_epik_Ionization_Penalty>
0.000992612

> <r_epik_Ionization_Penalty_Charging>
0

> <r_epik_Ionization_Penalty_Neutral>
0.000992612

> <r_epik_State_Penalty>
-0

> <r_epik_Charging_Adjusted_Penalty>
0

> <i_epik_Tot_Q>
0

> <i_epik_Tot_abs_Q>
0

> <r_epik_Metal_State_Penalty>
-0

> <b_epik_Metal_Only>
0

> <s_epik_Chemistry_Notes>
This compound contains an acetal/aminal-like group ( X-CH(R)-Y where X, Y are N, S, or O) that may be acid/base labile, releasing an aldehyde.

> <s_lp_Force_Field>
OPLS_2005

> <r_lp_Energy>
41.2787

> <b_lp_Chiralities_Consistent>
1

> <s_lp_Variant>
AV-unprocessed.smi:287-14

> <Gold.Version>
5.8.1

> <Gold.Id.Protein>
6NUR|6NUR_protein|mol2

> <Gold.PLP.Fitness>
70.7685

> <Gold.PLP.PLP>
-50.6285

> <Gold.PLP.part.hbond>
-6.4334

> <Gold.PLP.part.metal>
0.0000

> <Gold.PLP.part.buried>
-0.4837

> <Gold.PLP.part.nonpolar>
-44.7135

> <Gold.PLP.part.repulsive>
0.6860

> <Gold.PLP.ligand.clash>
0.0000

> <Gold.PLP.ligand.torsion>
1.5245

> <Gold.PLP.Chemscore.Hbond>
5.8640

> <Gold.PLP.Chemscore.CHOScore>
1.8218

> <Gold.PLP.Chemscore.Metal>
0.0000

> <Gold.Chemscore.Hbonds>
donor molecule, donor type, donor heavy atom, donor atom, acceptor molecule, acceptor atom, score
      L1  H     7    42       P1 10175  1.00
      L1  H     9    45       P1 10175  0.96
      L1  H    23    50       P1 10747  1.00
      L1  H    25    51       P1 10747  1.00
      P1  H  7989  7998       L1    30  1.00
      P1  H 10785 10796       L1    27  0.85
      L1  C    12    46       P1 11000  0.78
      L1  C    17    47       P1  7921  1.00

> <Gold.PLP.Chemscore.Internal.Correction>
0.1317

> <Gold.Rescore>
     Score         DG    S(hbond)    S(metal)    S(lipo)     H(rot)  DE(clash)    DE(int)     intcor
     15.77     -21.71       5.12        0.00     107.87       5.27       3.54       2.41       ----

> <Gold.Chemscore.Fitness>
15.7690

> <Gold.Chemscore.DG>
-21.7135

> <Gold.Chemscore.ZeroCoef>
-5.4800

> <Gold.Chemscore.Hbond>
5.1187

> <Gold.Chemscore.Metal>
0.0000

> <Gold.Chemscore.Lipo>
107.8720

> <Gold.Chemscore.Internal_Hbond>
0.0000

> <Gold.Chemscore.DEClash>
3.5371

> <Gold.Chemscore.DEInternal>
2.4074

> <Gold.Chemscore.Rot>
5.2672

> <Gold.Chemscore.Internal.Correction>
   9.000000E+99

> <Gold.Chemscore.Hbonds>
donor molecule, donor type, donor heavy atom, donor atom, acceptor molecule, acceptor atom, score
      L1  H     7    42       P1 10175  0.60
      L1  H     9    45       P1 10175  0.90
      L1  H    23    50       P1 10747  0.97
      L1  H    25    51       P1 10747  0.99
      L1  H    27    52       P1 10186  0.01
      P1  H  7989  7998       L1    30  0.21
      P1  H 10785 10796       L1    27  0.76

> <Gold.Chemscore.Hbond.Weighted>
-17.0964

> <Gold.Chemscore.Metal.Weighted>
-0.0000

> <Gold.Chemscore.Lipo.Weighted>
-12.6210

> <Gold.Chemscore.Internal_Hbond.Weighted>
0.0000

> <Gold.Chemscore.DEClash.Weighted>
3.5371

> <Gold.Chemscore.DEInternal.Weighted>
2.4074

> <Gold.Chemscore.Rot.Weighted>
13.4839

> <Gold.Chemscore.Internal.Correction.Weighted>
   9.000000E+99

> <Gold.Protein.RotatedTorsions>
[ 6907 6896 6895 6894 ] final   -9.79 input  -60.11 | X-H torsion
[ 7974 7965 7964 7962 ] final  175.64 input  175.53 | X-H torsion
[ 8008 7997 7996 7995 ] final -114.85 input   59.86 | X-H torsion
[ 10167 10162 10161 10158 ] final  116.59 input  -65.29 | X-H torsion
[ 10718 10713 10712 10709 ] final   -9.36 input   66.30 | X-H torsion
[ 10763 10752 10751 10750 ] final  125.08 input  -60.55 | X-H torsion
[ 11005 11000 10999 10996 ] final -169.99 input  -57.11 | X-H torsion

> <Gold.Protein.ActiveResidues>
 VAL166  LYS551  ARG553  GLY616  TRP617  ASP618  TYR619  PRO620  LYS621  CYS622 
 ASP623  PHE694  ASN695  SER759  ASP760  ASP761  ALA762  ILE779  LEU786  VAL792 
 PHE793  MET794  SER795  GLU796  ALA797  LYS798  CYS799  TRP800  GLU811  SER814 

> <Gold.Protein.RotatedAtoms>
  151.4122  135.0986  159.9588 H   0  0  0  0  0  0  0  0  0  0  0  0  # atno 6907 bound_to 6896
  152.5016  133.8787  159.7345 H   0  0  0  0  0  0  0  0  0  0  0  0  # atno 6908 bound_to 6896
  150.9284  133.6739  159.2844 H   0  0  0  0  0  0  0  0  0  0  0  0  # atno 6909 bound_to 6896
  144.7198  139.9977  143.6440 H   0  0  0  0  0  0  0  0  0  0  0  0  # atno 7974 bound_to 7965
  155.0428  140.0392  157.2516 H   0  0  0  0  0  0  0  0  0  0  0  0  # atno 8008 bound_to 7997
  154.7202  140.2710  155.6525 H   0  0  0  0  0  0  0  0  0  0  0  0  # atno 8009 bound_to 7997
  156.2814  140.2704  156.1871 H   0  0  0  0  0  0  0  0  0  0  0  0  # atno 8010 bound_to 7997
  139.6237  144.7105  151.2580 H   0  0  0  0  0  0  0  0  0  0  0  0  # atno 10167 bound_to 10162
  156.6891  130.5060  149.5949 H   0  0  0  0  0  0  0  0  0  0  0  0  # atno 10718 bound_to 10713
  153.6715  135.3329  155.3154 H   0  0  0  0  0  0  0  0  0  0  0  0  # atno 10763 bound_to 10752
  154.8489  135.4387  154.1700 H   0  0  0  0  0  0  0  0  0  0  0  0  # atno 10764 bound_to 10752
  153.2692  135.6998  153.7574 H   0  0  0  0  0  0  0  0  0  0  0  0  # atno 10765 bound_to 10752
  140.5245  134.5677  157.5057 H   0  0  0  0  0  0  0  0  0  0  0  0  # atno 11005 bound_to 11000
  146.0360  139.3378  143.0726 LP  0  0  0  0  0  0  0  0  0  0  0  0  # atno 17320 bound_to 7965
  145.8394  140.9589  143.0807 LP  0  0  0  0  0  0  0  0  0  0  0  0  # atno 17321 bound_to 7965
  140.7397  143.6608  150.8166 LP  0  0  0  0  0  0  0  0  0  0  0  0  # atno 17342 bound_to 10162
  140.0223  143.5530  152.2795 LP  0  0  0  0  0  0  0  0  0  0  0  0  # atno 17343 bound_to 10162
  156.1810  130.6499  151.0952 LP  0  0  0  0  0  0  0  0  0  0  0  0  # atno 17370 bound_to 10713
  157.7015  131.0774  150.6804 LP  0  0  0  0  0  0  0  0  0  0  0  0  # atno 17371 bound_to 10713
  139.9588  134.7489  156.0283 LP  0  0  0  0  0  0  0  0  0  0  0  0  # atno 17394 bound_to 11000
  141.1316  133.6585  156.3479 LP  0  0  0  0  0  0  0  0  0  0  0  0  # atno 17395 bound_to 11000

$$$$
