AV-unprocessed.smi:16|AV-procd|sdf|95|dock9
  -GOLD-   2262015243D 1   1.00000     0.00000
 Structure written by MMmdl.
 59 63  0  0  0  0  0  0  0  0  1 V2000
  155.3079  139.5984  162.1573 C   0  0  0  0  0  0  0  0  0  0  0  0
  154.8745  140.1252  160.7802 C   0  0  0  0  0  0  0  0  0  0  0  0
  153.5968  140.8346  160.8360 N   0  0  0  0  0  0  0  0  0  0  0  0
  153.7266  141.9650  161.7585 C   0  0  0  0  0  0  0  0  0  0  0  0
  152.3749  142.6786  161.9300 C   0  0  0  0  0  0  0  0  0  0  0  0
  151.8252  143.1732  160.5864 C   0  0  1  0  0  0  0  0  0  0  0  0
  152.6252  144.2537  160.1112 O   0  0  0  0  0  0  0  0  0  0  0  0
  152.1227  144.7954  158.8947 C   0  0  0  0  0  0  0  0  0  0  0  0
  152.1375  143.7166  157.8003 C   0  0  0  0  0  0  0  0  0  0  0  0
  151.4137  142.5282  158.2519 N   0  0  0  0  0  0  0  0  0  0  0  0
  151.0776  141.5938  157.3229 C   0  0  0  0  0  0  0  0  0  0  0  0
  151.9576  140.6013  157.0200 N   0  0  0  0  0  0  0  0  0  0  0  0
  151.6448  139.6701  156.1150 C   0  0  0  0  0  0  0  0  0  0  0  0
  150.5248  139.5434  155.4025 N   0  0  0  0  0  0  0  0  0  0  0  0
  149.6368  140.5356  155.6962 C   0  0  0  0  0  0  0  0  0  0  0  0
  149.8322  141.5933  156.6302 C   0  0  0  0  0  0  0  0  0  0  0  0
  148.7206  142.4285  156.6304 N   0  0  0  0  0  0  0  0  0  0  0  0
  147.9147  141.8926  155.7551 C   0  0  0  0  0  0  0  0  0  0  0  0
  148.3753  140.7386  155.1639 N   0  0  0  0  0  0  0  0  0  0  0  0
  147.7229  139.9813  154.1361 C   0  0  0  0  0  0  0  0  0  0  0  0
  146.3430  139.3530  154.3600 C   0  0  0  0  0  0  0  0  0  0  0  0
  146.7368  138.1908  153.4186 C   0  0  0  0  0  0  0  0  0  0  0  0
  146.2588  136.7817  153.8200 C   0  0  0  0  0  0  0  0  0  0  0  0
  147.0455  135.7558  153.2486 O   0  0  0  0  0  0  0  0  0  0  0  0
  146.3295  138.4057  151.9481 C   0  0  0  0  0  0  0  0  0  0  0  0
  147.0778  137.5838  151.0752 O   0  0  0  0  0  0  0  0  0  0  0  0
  148.1947  138.5717  153.7663 C   0  0  0  0  0  0  0  0  0  0  0  0
  151.8328  142.0209  159.5610 C   0  0  1  0  0  0  0  0  0  0  0  0
  153.2183  141.3343  159.5104 C   0  0  0  0  0  0  0  0  0  0  0  0
  150.8055  143.5328  160.7363 H   0  0  0  0  0  0  0  0  0  0  0  0
  151.1125  141.2828  159.9095 H   0  0  0  0  0  0  0  0  0  0  0  0
  156.3193  139.1953  162.1073 H   0  0  0  0  0  0  0  0  0  0  0  0
  154.6630  138.7976  162.5173 H   0  0  0  0  0  0  0  0  0  0  0  0
  155.3087  140.3944  162.9026 H   0  0  0  0  0  0  0  0  0  0  0  0
  155.6455  140.8153  160.4348 H   0  0  0  0  0  0  0  0  0  0  0  0
  154.8318  139.3150  160.0508 H   0  0  0  0  0  0  0  0  0  0  0  0
  154.0621  141.6074  162.7328 H   0  0  0  0  0  0  0  0  0  0  0  0
  154.4833  142.6633  161.3970 H   0  0  0  0  0  0  0  0  0  0  0  0
  151.6600  141.9897  162.3821 H   0  0  0  0  0  0  0  0  0  0  0  0
  152.4762  143.5142  162.6229 H   0  0  0  0  0  0  0  0  0  0  0  0
  151.1128  145.1803  159.0453 H   0  0  0  0  0  0  0  0  0  0  0  0
  152.7439  145.6400  158.5971 H   0  0  0  0  0  0  0  0  0  0  0  0
  151.6775  144.1159  156.8954 H   0  0  0  0  0  0  0  0  0  0  0  0
  153.1649  143.4511  157.5487 H   0  0  0  0  0  0  0  0  0  0  0  0
  152.4001  138.9191  155.9368 H   0  0  0  0  0  0  0  0  0  0  0  0
  146.9561  142.3297  155.5161 H   0  0  0  0  0  0  0  0  0  0  0  0
  147.7138  140.6251  153.2550 H   0  0  0  0  0  0  0  0  0  0  0  0
  146.1912  139.0486  155.3968 H   0  0  0  0  0  0  0  0  0  0  0  0
  145.5096  139.9632  154.0105 H   0  0  0  0  0  0  0  0  0  0  0  0
  146.2833  136.6575  154.9032 H   0  0  0  0  0  0  0  0  0  0  0  0
  145.2279  136.6138  153.5072 H   0  0  0  0  0  0  0  0  0  0  0  0
  147.5695  136.1297  152.5568 H   0  0  0  0  0  0  0  0  0  0  0  0
  145.2691  138.1983  151.8007 H   0  0  0  0  0  0  0  0  0  0  0  0
  146.4813  139.4404  151.6405 H   0  0  0  0  0  0  0  0  0  0  0  0
  147.5356  136.9369  151.5902 H   0  0  0  0  0  0  0  0  0  0  0  0
  148.8938  138.5393  152.9301 H   0  0  0  0  0  0  0  0  0  0  0  0
  148.5949  138.0313  154.6258 H   0  0  0  0  0  0  0  0  0  0  0  0
  153.9814  142.0228  159.1447 H   0  0  0  0  0  0  0  0  0  0  0  0
  153.1713  140.5085  158.8020 H   0  0  0  0  0  0  0  0  0  0  0  0
  1  2  1  0  0  0  0
  1 32  1  0  0  0  0
  1 33  1  0  0  0  0
  1 34  1  0  0  0  0
  2  3  1  0  0  0  0
  2 35  1  0  0  0  0
  2 36  1  0  0  0  0
  3 29  1  0  0  0  0
  3  4  1  0  0  0  0
  4  5  1  0  0  0  0
  4 37  1  0  0  0  0
  4 38  1  0  0  0  0
  5  6  1  0  0  0  0
  5 39  1  0  0  0  0
  5 40  1  0  0  0  0
  6 30  1  0  0  0  0
  6 28  1  0  0  0  0
  6  7  1  0  0  0  0
  7  8  1  0  0  0  0
  8  9  1  0  0  0  0
  8 41  1  0  0  0  0
  8 42  1  0  0  0  0
  9 10  1  0  0  0  0
  9 43  1  0  0  0  0
  9 44  1  0  0  0  0
 10 11  1  0  0  0  0
 10 28  1  0  0  0  0
 11 16  1  0  0  0  0
 11 12  2  0  0  0  0
 12 13  1  0  0  0  0
 13 14  2  0  0  0  0
 13 45  1  0  0  0  0
 14 15  1  0  0  0  0
 15 19  1  0  0  0  0
 15 16  2  0  0  0  0
 16 17  1  0  0  0  0
 17 18  2  0  0  0  0
 18 19  1  0  0  0  0
 18 46  1  0  0  0  0
 19 20  1  0  0  0  0
 20 27  1  0  0  0  0
 20 21  1  0  0  0  0
 20 47  1  0  0  0  0
 21 22  1  0  0  0  0
 21 48  1  0  0  0  0
 21 49  1  0  0  0  0
 22 23  1  0  0  0  0
 22 25  1  0  0  0  0
 22 27  1  0  0  0  0
 23 24  1  0  0  0  0
 23 50  1  0  0  0  0
 23 51  1  0  0  0  0
 24 52  1  0  0  0  0
 25 26  1  0  0  0  0
 25 53  1  0  0  0  0
 25 54  1  0  0  0  0
 26 55  1  0  0  0  0
 27 56  1  0  0  0  0
 27 57  1  0  0  0  0
 28 31  1  0  0  0  0
 28 29  1  0  0  0  0
 29 58  1  0  0  0  0
 29 59  1  0  0  0  0
M  END
> <s_m_source_file>
AV-unprocessed.smi

> <i_m_source_file_index>
16

> <i_lp_mmshare_version>
43012

> <i_f3d_flags>
0

> <s_epik_input>
W0NIM11bQ0gyXU4oW0NIMl1bQ0gyXTEpW0NIMl1bQ0BASF0oW0NAQEhdMTIpTihbQ0gyXVtDSDJdTzIpYyhuW2NIXW4zKWMoYzM0KW5bY0hdbjRbQ0hdKFtDSDJdNSlbQ0gyXUM1KFtDSDJdW09IXSlbQ0gyXVtPSF0=

> <s_epik_cmdline>
J2VwaWtfcHl0aG9uJywgJy1waCcsICc3LjAnLCAnLXRuJywgJzgnLCAnLW1hJywgJzIwMCcsICctbWV0YWxfYmluZGluZycsICctaW1hZScsICc8aW5maWxlLm1hZT4nLCAnLW9tYWUnLCAnPG91dGZpbGUubWFlPic=

> <r_lp_tautomer_probability>
1

> <r_epik_Ionization_Penalty>
2.27341

> <r_epik_Ionization_Penalty_Charging>
0

> <r_epik_Ionization_Penalty_Neutral>
2.27341

> <r_epik_State_Penalty>
2.41121

> <r_epik_Charging_Adjusted_Penalty>
2.41121

> <i_epik_Tot_Q>
0

> <i_epik_Tot_abs_Q>
0

> <r_epik_Metal_State_Penalty>
2.40177

> <b_epik_Metal_Only>
0

> <s_lp_Force_Field>
OPLS_2005

> <r_lp_Energy>
57.2914

> <b_lp_Chiralities_Consistent>
1

> <s_lp_Variant>
AV-unprocessed.smi:16-9

> <Gold.Version>
5.8.1

> <Gold.Id.Protein>
6NUR|6NUR_protein|mol2

> <Gold.PLP.Fitness>
50.2832

> <Gold.PLP.PLP>
-42.7826

> <Gold.PLP.part.hbond>
-2.1505

> <Gold.PLP.part.metal>
0.0000

> <Gold.PLP.part.buried>
-3.7907

> <Gold.PLP.part.nonpolar>
-40.6435

> <Gold.PLP.part.repulsive>
3.5950

> <Gold.PLP.ligand.clash>
0.0000

> <Gold.PLP.ligand.torsion>
0.8977

> <Gold.PLP.Chemscore.Hbond>
2.7900

> <Gold.PLP.Chemscore.CHOScore>
0.0000

> <Gold.PLP.Chemscore.Metal>
0.0000

> <Gold.Chemscore.Hbonds>
donor molecule, donor type, donor heavy atom, donor atom, acceptor molecule, acceptor atom, score
      L1  H    24    52       P1  7948  0.96
      L1  H    26    55       P1  7948  0.86
      P1  H  7954  7966       L1    26  1.00

> <Gold.PLP.Chemscore.Internal.Correction>
0.9261

> <Gold.Rescore>
     Score         DG    S(hbond)    S(metal)    S(lipo)     H(rot)  DE(clash)    DE(int)     intcor
     14.61     -19.28       2.39        0.00     121.48       3.28       1.59       3.07       ----

> <Gold.Chemscore.Fitness>
14.6132

> <Gold.Chemscore.DG>
-19.2798

> <Gold.Chemscore.ZeroCoef>
-5.4800

> <Gold.Chemscore.Hbond>
2.3883

> <Gold.Chemscore.Metal>
0.0000

> <Gold.Chemscore.Lipo>
121.4844

> <Gold.Chemscore.Internal_Hbond>
0.0000

> <Gold.Chemscore.DEClash>
1.5922

> <Gold.Chemscore.DEInternal>
3.0744

> <Gold.Chemscore.Rot>
3.2776

> <Gold.Chemscore.Internal.Correction>
   9.000000E+99

> <Gold.Chemscore.Hbonds>
donor molecule, donor type, donor heavy atom, donor atom, acceptor molecule, acceptor atom, score
      L1  H    24    52       P1  7948  0.87
      L1  H    26    55       P1  7948  0.83
      P1  H  7954  7966       L1    26  0.30

> <Gold.Chemscore.Hbond.Weighted>
-7.9768

> <Gold.Chemscore.Metal.Weighted>
-0.0000

> <Gold.Chemscore.Lipo.Weighted>
-14.2137

> <Gold.Chemscore.Internal_Hbond.Weighted>
0.0000

> <Gold.Chemscore.DEClash.Weighted>
1.5922

> <Gold.Chemscore.DEInternal.Weighted>
3.0744

> <Gold.Chemscore.Rot.Weighted>
8.3907

> <Gold.Chemscore.Internal.Correction.Weighted>
   9.000000E+99

> <Gold.Protein.RotatedTorsions>
[ 6907 6896 6895 6894 ] final   85.58 input  -60.11 | X-H torsion
[ 7974 7965 7964 7962 ] final -169.90 input  175.53 | X-H torsion
[ 8008 7997 7996 7995 ] final    9.50 input   59.86 | X-H torsion
[ 10167 10162 10161 10158 ] final   13.58 input  -65.29 | X-H torsion
[ 10718 10713 10712 10709 ] final  158.96 input   66.30 | X-H torsion
[ 10763 10752 10751 10750 ] final   24.93 input  -60.55 | X-H torsion
[ 11005 11000 10999 10996 ] final  -80.69 input  -57.11 | X-H torsion

> <Gold.Protein.ActiveResidues>
 VAL166  LYS551  ARG553  GLY616  TRP617  ASP618  TYR619  PRO620  LYS621  CYS622 
 ASP623  PHE694  ASN695  SER759  ASP760  ASP761  ALA762  ILE779  LEU786  VAL792 
 PHE793  MET794  SER795  GLU796  ALA797  LYS798  CYS799  TRP800  GLU811  SER814 

> <Gold.Protein.RotatedAtoms>
  152.5377  134.2565  159.8918 H   0  0  0  0  0  0  0  0  0  0  0  0  # atno 6907 bound_to 6896
  151.2526  133.4336  159.2620 H   0  0  0  0  0  0  0  0  0  0  0  0  # atno 6908 bound_to 6896
  151.0525  134.9697  159.8275 H   0  0  0  0  0  0  0  0  0  0  0  0  # atno 6909 bound_to 6896
  144.7178  140.2152  143.6322 H   0  0  0  0  0  0  0  0  0  0  0  0  # atno 7974 bound_to 7965
  154.7808  140.2818  155.6065 H   0  0  0  0  0  0  0  0  0  0  0  0  # atno 8008 bound_to 7997
  156.2949  140.2623  156.2561 H   0  0  0  0  0  0  0  0  0  0  0  0  # atno 8009 bound_to 7997
  154.9787  140.0375  157.2257 H   0  0  0  0  0  0  0  0  0  0  0  0  # atno 8010 bound_to 7997
  140.5993  143.8637  150.6949 H   0  0  0  0  0  0  0  0  0  0  0  0  # atno 10167 bound_to 10162
  157.1707  131.0609  151.2184 H   0  0  0  0  0  0  0  0  0  0  0  0  # atno 10718 bound_to 10713
  153.0728  135.6594  154.0209 H   0  0  0  0  0  0  0  0  0  0  0  0  # atno 10763 bound_to 10752
  153.9851  135.2951  155.3418 H   0  0  0  0  0  0  0  0  0  0  0  0  # atno 10764 bound_to 10752
  154.7108  135.5206  153.8734 H   0  0  0  0  0  0  0  0  0  0  0  0  # atno 10765 bound_to 10752
  141.1667  133.7162  156.8311 H   0  0  0  0  0  0  0  0  0  0  0  0  # atno 11005 bound_to 11000
  145.8553  139.2195  143.1748 LP  0  0  0  0  0  0  0  0  0  0  0  0  # atno 17320 bound_to 7965
  146.0223  140.8336  142.9917 LP  0  0  0  0  0  0  0  0  0  0  0  0  # atno 17321 bound_to 7965
  140.2179  143.3832  152.1666 LP  0  0  0  0  0  0  0  0  0  0  0  0  # atno 17342 bound_to 10162
  139.5280  144.7125  151.5159 LP  0  0  0  0  0  0  0  0  0  0  0  0  # atno 17343 bound_to 10162
  157.4045  130.7351  149.6792 LP  0  0  0  0  0  0  0  0  0  0  0  0  # atno 17370 bound_to 10713
  155.9739  130.4112  150.3967 LP  0  0  0  0  0  0  0  0  0  0  0  0  # atno 17371 bound_to 10713
  140.2051  134.8869  157.3212 LP  0  0  0  0  0  0  0  0  0  0  0  0  # atno 17394 bound_to 11000
  140.2146  134.4097  155.7595 LP  0  0  0  0  0  0  0  0  0  0  0  0  # atno 17395 bound_to 11000

$$$$
