AV-unprocessed.smi:1843|AV-procd|sdf|7507|dock10
  -GOLD-   22720 9213D 1   1.00000     0.00000
 Structure written by MMmdl.
 36 38  0  0  0  0  0  0  0  0  2 V2000
  148.5681  138.6913  157.1827 O   0  0  0  0  0  0  0  0  0  0  0  0
  148.8044  137.6218  156.6161 C   0  0  0  0  0  0  0  0  0  0  0  0
  148.9658  136.4180  157.2107 N   0  5  0  0  0  0  0  0  0  0  0  0
  148.6176  136.2525  158.4974 C   0  0  0  0  0  0  0  0  0  0  0  0
  148.8318  137.1931  159.4280 N   0  0  0  0  0  0  0  0  0  0  0  0
  148.3911  136.8204  160.6899 N   0  0  0  0  0  0  0  0  0  0  0  0
  147.8434  135.6029  160.6929 C   0  0  0  0  0  0  0  0  0  0  0  0
  147.2963  134.9741  161.9305 C   0  0  0  0  0  0  0  0  0  0  0  0
  146.8851  133.5197  161.9423 C   0  0  0  0  0  0  0  0  0  0  0  0
  145.8355  134.5966  162.0463 C   0  0  0  0  0  0  0  0  0  0  0  0
  147.8182  134.8120  159.1253 S   0  0  0  0  0  0  0  0  0  0  0  0
  148.9335  137.5837  155.2824 N   0  0  0  0  0  0  0  0  0  0  0  0
  148.8254  138.7222  154.3717 C   0  0  1  0  0  0  0  0  0  0  0  0
  147.3544  139.1962  154.3388 C   0  0  0  0  0  0  0  0  0  0  0  0
  147.1762  140.4982  153.5451 C   0  0  0  0  0  0  0  0  0  0  0  0
  148.0831  141.6050  154.0979 C   0  0  0  0  0  0  0  0  0  0  0  0
  149.5513  141.1608  154.0735 C   0  0  0  0  0  0  0  0  0  0  0  0
  149.7654  139.8509  154.8560 C   0  0  2  0  0  0  0  0  0  0  0  0
  151.1107  139.4598  154.6657 O   0  0  0  0  0  0  0  0  0  0  0  0
  147.7901  135.3726  162.8144 H   0  0  0  0  0  0  0  0  0  0  0  0
  146.9477  132.9691  161.0056 H   0  0  0  0  0  0  0  0  0  0  0  0
  147.1064  132.9435  162.8382 H   0  0  0  0  0  0  0  0  0  0  0  0
  145.3560  134.7399  163.0123 H   0  0  0  0  0  0  0  0  0  0  0  0
  145.1938  134.7494  161.1810 H   0  0  0  0  0  0  0  0  0  0  0  0
  149.1301  136.6859  154.8650 H   0  0  0  0  0  0  0  0  0  0  0  0
  149.1230  138.4256  153.3637 H   0  0  0  0  0  0  0  0  0  0  0  0
  146.7197  138.4198  153.9098 H   0  0  0  0  0  0  0  0  0  0  0  0
  146.9978  139.3527  155.3579 H   0  0  0  0  0  0  0  0  0  0  0  0
  147.4078  140.3215  152.4939 H   0  0  0  0  0  0  0  0  0  0  0  0
  146.1342  140.8164  153.5841 H   0  0  0  0  0  0  0  0  0  0  0  0
  147.9597  142.5155  153.5111 H   0  0  0  0  0  0  0  0  0  0  0  0
  147.7881  141.8501  155.1189 H   0  0  0  0  0  0  0  0  0  0  0  0
  149.8643  141.0263  153.0366 H   0  0  0  0  0  0  0  0  0  0  0  0
  150.1818  141.9499  154.4851 H   0  0  0  0  0  0  0  0  0  0  0  0
  149.6024  140.0383  155.9185 H   0  0  0  0  0  0  0  0  0  0  0  0
  151.1812  138.5364  154.8560 H   0  0  0  0  0  0  0  0  0  0  0  0
  1  2  2  0  0  0  0
  2  3  1  0  0  0  0
  2 12  1  0  0  0  0
  3  4  1  0  0  0  0
  4 11  1  0  0  0  0
  4  5  2  0  0  0  0
  5  6  1  0  0  0  0
  6  7  2  0  0  0  0
  7  8  1  0  0  0  0
  7 11  1  0  0  0  0
  8 10  1  0  0  0  0
  8  9  1  0  0  0  0
  8 20  1  0  0  0  0
  9 10  1  0  0  0  0
  9 21  1  0  0  0  0
  9 22  1  0  0  0  0
 10 23  1  0  0  0  0
 10 24  1  0  0  0  0
 12 13  1  0  0  0  0
 12 25  1  0  0  0  0
 13 18  1  0  0  0  0
 13 14  1  0  0  0  0
 13 26  1  0  0  0  0
 14 15  1  0  0  0  0
 14 27  1  0  0  0  0
 14 28  1  0  0  0  0
 15 16  1  0  0  0  0
 15 29  1  0  0  0  0
 15 30  1  0  0  0  0
 16 17  1  0  0  0  0
 16 31  1  0  0  0  0
 16 32  1  0  0  0  0
 17 18  1  0  0  0  0
 17 33  1  0  0  0  0
 17 34  1  0  0  0  0
 18 19  1  0  0  0  0
 18 35  1  0  0  0  0
 19 36  1  0  0  0  0
M  CHG  1   3  -1
M  END
> <s_m_source_file>
AV-unprocessed.smi

> <i_m_source_file_index>
1843

> <i_lp_mmshare_version>
43012

> <i_f3d_flags>
0

> <s_epik_input>
W09IXVtDQEBIXTFbQ0gyXVtDSDJdW0NIMl1bQ0gyXVtDQEhdMVtOSF1DKD1PKVtOSF1jMm5uYyhzMilbQ0hdM1tDSDJdW0NIMl0z

> <s_epik_cmdline>
J2VwaWtfcHl0aG9uJywgJy1waCcsICc3LjAnLCAnLXRuJywgJzgnLCAnLW1hJywgJzIwMCcsICctbWV0YWxfYmluZGluZycsICctaW1hZScsICc8aW5maWxlLm1hZT4nLCAnLW9tYWUnLCAnPG91dGZpbGUubWFlPic=

> <r_lp_tautomer_probability>
1

> <r_epik_Ionization_Penalty>
4.7996

> <r_epik_Ionization_Penalty_Charging>
4.64516

> <r_epik_Ionization_Penalty_Neutral>
0.154442

> <r_epik_State_Penalty>
4.64493

> <r_epik_Charging_Adjusted_Penalty>
9.29009

> <i_epik_Tot_Q>
-1

> <i_epik_Tot_abs_Q>
1

> <r_epik_Metal_State_Penalty>
0.896144

> <b_epik_Metal_Only>
1

> <s_lp_Force_Field>
OPLS_2005

> <r_lp_Energy>
6.73246

> <b_lp_Chiralities_Consistent>
1

> <s_lp_Variant>
AV-unprocessed.smi:1843-8

> <Gold.Version>
5.8.1

> <Gold.Id.Protein>
6NUR|6NUR_protein|mol2

> <Gold.PLP.Fitness>
37.8708

> <Gold.PLP.PLP>
-32.4334

> <Gold.PLP.part.hbond>
-4.7883

> <Gold.PLP.part.metal>
0.0000

> <Gold.PLP.part.buried>
-1.0775

> <Gold.PLP.part.nonpolar>
-26.1990

> <Gold.PLP.part.repulsive>
0.0000

> <Gold.PLP.ligand.clash>
0.0000

> <Gold.PLP.ligand.torsion>
0.5023

> <Gold.PLP.Chemscore.Hbond>
2.1026

> <Gold.PLP.Chemscore.CHOScore>
0.0000

> <Gold.PLP.Chemscore.Metal>
0.0000

> <Gold.Chemscore.Hbonds>
donor molecule, donor type, donor heavy atom, donor atom, acceptor molecule, acceptor atom, score
      P1  H  6931  6943       L1     6  0.96
      P1  H  7989  7998       L1    19  0.95

> <Gold.PLP.Chemscore.Internal.Correction>
0.1342

> <Gold.Rescore>
     Score         DG    S(hbond)    S(metal)    S(lipo)     H(rot)  DE(clash)    DE(int)     intcor
     10.21     -13.76       1.37        0.00      69.31       1.72       0.22       3.33       ----

> <Gold.Chemscore.Fitness>
10.2147

> <Gold.Chemscore.DG>
-13.7590

> <Gold.Chemscore.ZeroCoef>
-5.4800

> <Gold.Chemscore.Hbond>
1.3661

> <Gold.Chemscore.Metal>
0.0000

> <Gold.Chemscore.Lipo>
69.3083

> <Gold.Chemscore.Internal_Hbond>
0.0000

> <Gold.Chemscore.DEClash>
0.2190

> <Gold.Chemscore.DEInternal>
3.3253

> <Gold.Chemscore.Rot>
1.7160

> <Gold.Chemscore.Internal.Correction>
   9.000000E+99

> <Gold.Chemscore.Hbonds>
donor molecule, donor type, donor heavy atom, donor atom, acceptor molecule, acceptor atom, score
      P1  H  6931  6943       L1     6  0.40
      P1  H  7989  7998       L1    19  0.22

> <Gold.Chemscore.Hbond.Weighted>
-4.5629

> <Gold.Chemscore.Metal.Weighted>
-0.0000

> <Gold.Chemscore.Lipo.Weighted>
-8.1091

> <Gold.Chemscore.Internal_Hbond.Weighted>
0.0000

> <Gold.Chemscore.DEClash.Weighted>
0.2190

> <Gold.Chemscore.DEInternal.Weighted>
3.3253

> <Gold.Chemscore.Rot.Weighted>
4.3930

> <Gold.Chemscore.Internal.Correction.Weighted>
   9.000000E+99

> <Gold.Protein.RotatedTorsions>
[ 6907 6896 6895 6894 ] final   23.37 input  -60.11 | X-H torsion
[ 7974 7965 7964 7962 ] final -102.97 input  175.53 | X-H torsion
[ 8008 7997 7996 7995 ] final -103.44 input   59.86 | X-H torsion
[ 10167 10162 10161 10158 ] final  -49.96 input  -65.29 | X-H torsion
[ 10718 10713 10712 10709 ] final  -16.65 input   66.30 | X-H torsion
[ 10763 10752 10751 10750 ] final   93.94 input  -60.55 | X-H torsion
[ 11005 11000 10999 10996 ] final  -48.53 input  -57.11 | X-H torsion

> <Gold.Protein.ActiveResidues>
 VAL166  LYS551  ARG553  GLY616  TRP617  ASP618  TYR619  PRO620  LYS621  CYS622 
 ASP623  PHE694  ASN695  SER759  ASP760  ASP761  ALA762  ILE779  LEU786  VAL792 
 PHE793  MET794  SER795  GLU796  ALA797  LYS798  CYS799  TRP800  GLU811  SER814 

> <Gold.Protein.RotatedAtoms>
  151.9413  135.0212  160.0535 H   0  0  0  0  0  0  0  0  0  0  0  0  # atno 6907 bound_to 6896
  152.2034  133.4853  159.5079 H   0  0  0  0  0  0  0  0  0  0  0  0  # atno 6908 bound_to 6896
  150.6959  134.1478  159.4172 H   0  0  0  0  0  0  0  0  0  0  0  0  # atno 6909 bound_to 6896
  145.2619  140.9272  143.3035 H   0  0  0  0  0  0  0  0  0  0  0  0  # atno 7974 bound_to 7965
  154.8709  140.0423  157.1724 H   0  0  0  0  0  0  0  0  0  0  0  0  # atno 8008 bound_to 7997
  154.8740  140.2962  155.5444 H   0  0  0  0  0  0  0  0  0  0  0  0  # atno 8009 bound_to 7997
  156.2999  140.2424  156.3733 H   0  0  0  0  0  0  0  0  0  0  0  0  # atno 8010 bound_to 7997
  140.6660  143.2677  151.4290 H   0  0  0  0  0  0  0  0  0  0  0  0  # atno 10167 bound_to 10162
  156.5847  130.4783  149.6305 H   0  0  0  0  0  0  0  0  0  0  0  0  # atno 10718 bound_to 10713
  153.2360  135.4307  155.0646 H   0  0  0  0  0  0  0  0  0  0  0  0  # atno 10763 bound_to 10752
  154.8319  135.3391  154.6719 H   0  0  0  0  0  0  0  0  0  0  0  0  # atno 10764 bound_to 10752
  153.7144  135.7021  153.5085 H   0  0  0  0  0  0  0  0  0  0  0  0  # atno 10765 bound_to 10752
  141.0706  133.6680  156.3454 H   0  0  0  0  0  0  0  0  0  0  0  0  # atno 11005 bound_to 11000
  144.9410  139.4189  143.6449 LP  0  0  0  0  0  0  0  0  0  0  0  0  # atno 17320 bound_to 7965
  146.3272  139.8370  142.8897 LP  0  0  0  0  0  0  0  0  0  0  0  0  # atno 17321 bound_to 7965
  139.5910  144.1500  152.2088 LP  0  0  0  0  0  0  0  0  0  0  0  0  # atno 17342 bound_to 10162
  140.0854  144.5665  150.7092 LP  0  0  0  0  0  0  0  0  0  0  0  0  # atno 17343 bound_to 10162
  156.2601  130.6957  151.1723 LP  0  0  0  0  0  0  0  0  0  0  0  0  # atno 17370 bound_to 10713
  157.7318  131.0605  150.5659 LP  0  0  0  0  0  0  0  0  0  0  0  0  # atno 17371 bound_to 10713
  140.5682  134.5867  157.5451 LP  0  0  0  0  0  0  0  0  0  0  0  0  # atno 17394 bound_to 11000
  139.9519  134.7601  156.0428 LP  0  0  0  0  0  0  0  0  0  0  0  0  # atno 17395 bound_to 11000

$$$$
