AV-unprocessed.smi:2083|AV-procd|sdf|8503|dock6
  -GOLD-   2272011213D 1   1.00000     0.00000
 Structure written by MMmdl.
 44 45  0  0  0  0  0  0  0  0  3 V2000
  143.3843  144.3727  163.0384 C   0  0  0  0  0  0  0  0  0  0  0  0
  144.4374  143.8355  162.1310 C   0  0  0  0  0  0  0  0  0  0  0  0
  145.5405  144.3988  161.5548 C   0  0  0  0  0  0  0  0  0  0  0  0
  146.0963  143.3278  160.8032 C   0  0  0  0  0  0  0  0  0  0  0  0
  147.2093  143.3818  160.0556 N   0  5  0  0  0  0  0  0  0  0  0  0
  147.3400  142.5813  158.9737 C   0  0  0  0  0  0  0  0  0  0  0  0
  146.4954  141.7957  158.5371 O   0  0  0  0  0  0  0  0  0  0  0  0
  148.5227  142.7011  158.3537 N   0  0  0  0  0  0  0  0  0  0  0  0
  148.9346  141.9725  157.1574 C   0  0  0  0  0  0  0  0  0  0  0  0
  150.2889  141.2311  157.3379 C   0  0  1  0  0  0  0  0  0  0  0  0
  150.9766  141.0331  155.9681 C   0  0  0  0  0  0  0  0  0  0  0  0
  151.2376  141.8996  158.2884 N   0  3  1  0  0  0  0  0  0  0  0  0
  152.3958  141.0782  158.7476 C   0  0  0  0  0  0  0  0  0  0  0  0
  153.2162  141.8067  159.8256 C   0  0  0  0  0  0  0  0  0  0  0  0
  153.6797  143.1864  159.3446 C   0  0  0  0  0  0  0  0  0  0  0  0
  152.4920  144.0168  158.8319 C   0  0  2  0  0  0  0  0  0  0  0  0
  151.5885  144.5386  159.9633 C   0  0  0  0  0  0  0  0  0  0  0  0
  151.7021  143.2211  157.7742 C   0  0  0  0  0  0  0  0  0  0  0  0
  145.4028  142.2089  160.9278 N   0  0  0  0  0  0  0  0  0  0  0  0
  144.3337  142.5275  161.7734 O   0  0  0  0  0  0  0  0  0  0  0  0
  143.8001  144.5931  164.0215 H   0  0  0  0  0  0  0  0  0  0  0  0
  142.5723  143.6565  163.1667 H   0  0  0  0  0  0  0  0  0  0  0  0
  142.9615  145.2928  162.6350 H   0  0  0  0  0  0  0  0  0  0  0  0
  145.8917  145.4153  161.6510 H   0  0  0  0  0  0  0  0  0  0  0  0
  149.1874  143.3515  158.7469 H   0  0  0  0  0  0  0  0  0  0  0  0
  148.1449  141.2609  156.9139 H   0  0  0  0  0  0  0  0  0  0  0  0
  148.9771  142.6913  156.3378 H   0  0  0  0  0  0  0  0  0  0  0  0
  150.0602  140.2470  157.7499 H   0  0  0  0  0  0  0  0  0  0  0  0
  150.3415  140.4850  155.2719 H   0  0  0  0  0  0  0  0  0  0  0  0
  151.9025  140.4652  156.0412 H   0  0  0  0  0  0  0  0  0  0  0  0
  151.2160  141.9924  155.5087 H   0  0  0  0  0  0  0  0  0  0  0  0
  152.0588  140.1432  159.1933 H   0  0  0  0  0  0  0  0  0  0  0  0
  153.0275  140.8247  157.8943 H   0  0  0  0  0  0  0  0  0  0  0  0
  152.6191  141.9109  160.7319 H   0  0  0  0  0  0  0  0  0  0  0  0
  154.0818  141.2037  160.1015 H   0  0  0  0  0  0  0  0  0  0  0  0
  154.2010  143.7136  160.1444 H   0  0  0  0  0  0  0  0  0  0  0  0
  154.4042  143.0583  158.5391 H   0  0  0  0  0  0  0  0  0  0  0  0
  152.9042  144.8977  158.3378 H   0  0  0  0  0  0  0  0  0  0  0  0
  151.1005  143.7276  160.5036 H   0  0  0  0  0  0  0  0  0  0  0  0
  150.8054  145.1866  159.5686 H   0  0  0  0  0  0  0  0  0  0  0  0
  152.1614  145.1211  160.6855 H   0  0  0  0  0  0  0  0  0  0  0  0
  152.3314  143.0553  156.8980 H   0  0  0  0  0  0  0  0  0  0  0  0
  150.8654  143.8281  157.4322 H   0  0  0  0  0  0  0  0  0  0  0  0
  150.6975  142.0864  159.1210 H   0  0  0  0  0  0  0  0  0  0  0  0
  1  2  1  0  0  0  0
  1 21  1  0  0  0  0
  1 22  1  0  0  0  0
  1 23  1  0  0  0  0
  2 20  1  0  0  0  0
  2  3  2  0  0  0  0
  3  4  1  0  0  0  0
  3 24  1  0  0  0  0
  4  5  1  0  0  0  0
  4 19  2  0  0  0  0
  5  6  1  0  0  0  0
  6  7  2  0  0  0  0
  6  8  1  0  0  0  0
  8  9  1  0  0  0  0
  8 25  1  0  0  0  0
  9 10  1  0  0  0  0
  9 26  1  0  0  0  0
  9 27  1  0  0  0  0
 10 11  1  0  0  0  0
 10 12  1  0  0  0  0
 10 28  1  0  0  0  0
 11 29  1  0  0  0  0
 11 30  1  0  0  0  0
 11 31  1  0  0  0  0
 12 18  1  0  0  0  0
 12 13  1  0  0  0  0
 12 44  1  0  0  0  0
 13 14  1  0  0  0  0
 13 32  1  0  0  0  0
 13 33  1  0  0  0  0
 14 15  1  0  0  0  0
 14 34  1  0  0  0  0
 14 35  1  0  0  0  0
 15 16  1  0  0  0  0
 15 36  1  0  0  0  0
 15 37  1  0  0  0  0
 16 17  1  0  0  0  0
 16 18  1  0  0  0  0
 16 38  1  0  0  0  0
 17 39  1  0  0  0  0
 17 40  1  0  0  0  0
 17 41  1  0  0  0  0
 18 42  1  0  0  0  0
 18 43  1  0  0  0  0
 19 20  1  0  0  0  0
M  CHG  1   5  -1
M  CHG  1  12   1
M  END
> <s_m_source_file>
AV-unprocessed.smi

> <i_m_source_file_index>
2083

> <i_lp_mmshare_version>
43012

> <i_f3d_flags>
0

> <s_epik_input>
W0NIM11jMVtjSF1jKG5vMSlbTkhdQyg9TylbTkhdW0NIMl1bQ0BIXShbQ0gzXSlOMltDSDJdW0NIMl1bQ0gyXVtDQEBIXShbQ0gzXSlbQ0gyXTI=

> <s_epik_cmdline>
J2VwaWtfcHl0aG9uJywgJy1waCcsICc3LjAnLCAnLXRuJywgJzgnLCAnLW1hJywgJzIwMCcsICctbWV0YWxfYmluZGluZycsICctaW1hZScsICc8aW5maWxlLm1hZT4nLCAnLW9tYWUnLCAnPG91dGZpbGUubWFlPic=

> <r_epik_Ionization_Penalty>
6.22434

> <r_epik_Ionization_Penalty_Charging>
6.22425

> <r_epik_Ionization_Penalty_Neutral>
9.62407e-05

> <r_epik_State_Penalty>
6.22423

> <r_epik_Charging_Adjusted_Penalty>
12.4485

> <i_epik_Tot_Q>
0

> <i_epik_Tot_abs_Q>
2

> <r_epik_Metal_State_Penalty>
2.16764

> <b_epik_Metal_Only>
1

> <s_lp_Force_Field>
OPLS_2005

> <r_lp_Energy>
12.2098

> <b_lp_Chiralities_Consistent>
1

> <s_lp_Variant>
AV-unprocessed.smi:2083-14

> <Gold.Version>
5.8.1

> <Gold.Id.Protein>
6NUR|6NUR_protein|mol2

> <Gold.PLP.Fitness>
46.2567

> <Gold.PLP.PLP>
-39.2969

> <Gold.PLP.part.hbond>
-4.4484

> <Gold.PLP.part.metal>
0.0000

> <Gold.PLP.part.buried>
-3.4715

> <Gold.PLP.part.nonpolar>
-31.4313

> <Gold.PLP.part.repulsive>
0.2889

> <Gold.PLP.ligand.clash>
0.0000

> <Gold.PLP.ligand.torsion>
0.6154

> <Gold.PLP.Chemscore.Hbond>
2.6928

> <Gold.PLP.Chemscore.CHOScore>
0.0000

> <Gold.PLP.Chemscore.Metal>
0.0000

> <Gold.Chemscore.Hbonds>
donor molecule, donor type, donor heavy atom, donor atom, acceptor molecule, acceptor atom, score
      P1  H  6933  6944       L1     5  1.19
      P1  H  6934  6946       L1    19  1.00

> <Gold.PLP.Chemscore.Internal.Correction>
0.1121

> <Gold.Rescore>
     Score         DG    S(hbond)    S(metal)    S(lipo)     H(rot)  DE(clash)    DE(int)     intcor
     14.16     -16.33       0.73        0.00     105.01       1.52       0.05       2.12       ----

> <Gold.Chemscore.Fitness>
14.1571

> <Gold.Chemscore.DG>
-16.3317

> <Gold.Chemscore.ZeroCoef>
-5.4800

> <Gold.Chemscore.Hbond>
0.7347

> <Gold.Chemscore.Metal>
0.0000

> <Gold.Chemscore.Lipo>
105.0119

> <Gold.Chemscore.Internal_Hbond>
0.0000

> <Gold.Chemscore.DEClash>
0.0513

> <Gold.Chemscore.DEInternal>
2.1233

> <Gold.Chemscore.Rot>
1.5190

> <Gold.Chemscore.Internal.Correction>
   9.000000E+99

> <Gold.Chemscore.Hbonds>
donor molecule, donor type, donor heavy atom, donor atom, acceptor molecule, acceptor atom, score
      P1  H  6933  6944       L1     5  0.03
      P1  H  6934  6946       L1    19  0.24

> <Gold.Chemscore.Hbond.Weighted>
-2.4539

> <Gold.Chemscore.Metal.Weighted>
-0.0000

> <Gold.Chemscore.Lipo.Weighted>
-12.2864

> <Gold.Chemscore.Internal_Hbond.Weighted>
0.0000

> <Gold.Chemscore.DEClash.Weighted>
0.0513

> <Gold.Chemscore.DEInternal.Weighted>
2.1233

> <Gold.Chemscore.Rot.Weighted>
3.8886

> <Gold.Chemscore.Internal.Correction.Weighted>
   9.000000E+99

> <Gold.Protein.RotatedTorsions>
[ 6907 6896 6895 6894 ] final -110.68 input  -60.11 | X-H torsion
[ 7974 7965 7964 7962 ] final -129.25 input  175.53 | X-H torsion
[ 8008 7997 7996 7995 ] final   16.89 input   59.86 | X-H torsion
[ 10167 10162 10161 10158 ] final  172.97 input  -65.29 | X-H torsion
[ 10718 10713 10712 10709 ] final -155.94 input   66.30 | X-H torsion
[ 10763 10752 10751 10750 ] final  -28.19 input  -60.55 | X-H torsion
[ 11005 11000 10999 10996 ] final -104.55 input  -57.11 | X-H torsion

> <Gold.Protein.ActiveResidues>
 VAL166  LYS551  ARG553  GLY616  TRP617  ASP618  TYR619  PRO620  LYS621  CYS622 
 ASP623  PHE694  ASN695  SER759  ASP760  ASP761  ALA762  ILE779  LEU786  VAL792 
 PHE793  MET794  SER795  GLU796  ALA797  LYS798  CYS799  TRP800  GLU811  SER814 

> <Gold.Protein.RotatedAtoms>
  150.7641  133.9346  159.3437 H   0  0  0  0  0  0  0  0  0  0  0  0  # atno 6907 bound_to 6896
  151.7248  135.0885  160.0299 H   0  0  0  0  0  0  0  0  0  0  0  0  # atno 6908 bound_to 6896
  152.3627  133.6280  159.6063 H   0  0  0  0  0  0  0  0  0  0  0  0  # atno 6909 bound_to 6896
  144.9591  140.7427  143.4740 H   0  0  0  0  0  0  0  0  0  0  0  0  # atno 7974 bound_to 7965
  154.8835  140.2976  155.5411 H   0  0  0  0  0  0  0  0  0  0  0  0  # atno 8008 bound_to 7997
  156.3022  140.2438  156.3775 H   0  0  0  0  0  0  0  0  0  0  0  0  # atno 8009 bound_to 7997
  154.8692  140.0402  157.1703 H   0  0  0  0  0  0  0  0  0  0  0  0  # atno 8010 bound_to 7997
  139.5093  144.3314  152.0108 H   0  0  0  0  0  0  0  0  0  0  0  0  # atno 10167 bound_to 10162
  156.5197  130.8472  151.2677 H   0  0  0  0  0  0  0  0  0  0  0  0  # atno 10718 bound_to 10713
  153.7443  135.6930  153.4960 H   0  0  0  0  0  0  0  0  0  0  0  0  # atno 10763 bound_to 10752
  153.2047  135.4424  155.0307 H   0  0  0  0  0  0  0  0  0  0  0  0  # atno 10764 bound_to 10752
  154.8209  135.3422  154.6967 H   0  0  0  0  0  0  0  0  0  0  0  0  # atno 10765 bound_to 10752
  141.1095  133.8733  157.1625 H   0  0  0  0  0  0  0  0  0  0  0  0  # atno 11005 bound_to 11000
  145.2727  139.1948  143.4833 LP  0  0  0  0  0  0  0  0  0  0  0  0  # atno 17320 bound_to 7965
  146.3347  140.2676  142.8604 LP  0  0  0  0  0  0  0  0  0  0  0  0  # atno 17321 bound_to 7965
  140.2753  144.3919  150.6137 LP  0  0  0  0  0  0  0  0  0  0  0  0  # atno 17342 bound_to 10162
  140.6058  143.2167  151.6984 LP  0  0  0  0  0  0  0  0  0  0  0  0  # atno 17343 bound_to 10162
  157.7438  130.9921  150.2626 LP  0  0  0  0  0  0  0  0  0  0  0  0  # atno 17370 bound_to 10713
  156.3161  130.3779  149.7617 LP  0  0  0  0  0  0  0  0  0  0  0  0  # atno 17371 bound_to 10713
  139.9981  135.0038  157.0129 LP  0  0  0  0  0  0  0  0  0  0  0  0  # atno 17394 bound_to 11000
  140.4813  134.1286  155.7217 LP  0  0  0  0  0  0  0  0  0  0  0  0  # atno 17395 bound_to 11000

$$$$
