AV-unprocessed.smi:979|AV-procd|sdf|4310|dock1
  -GOLD-   22720 2213D 1   1.00000     0.00000
 Structure written by MMmdl.
 43 44  0  0  0  0  0  0  0  0  1 V2000
  145.0077  144.5251  152.8133 C   0  0  0  0  0  0  0  0  0  0  0  0
  144.9494  143.7424  154.0323 N   0  0  0  0  0  0  0  0  0  0  0  0
  144.1447  143.9132  155.0919 C   0  0  0  0  0  0  0  0  0  0  0  0
  144.3273  143.0443  156.0851 N   0  0  0  0  0  0  0  0  0  0  0  0
  145.3464  142.2236  155.6453 N   0  0  0  0  0  0  0  0  0  0  0  0
  145.6725  142.6729  154.4269 C   0  0  0  0  0  0  0  0  0  0  0  0
  146.7473  142.0512  153.5835 C   0  0  0  0  0  0  0  0  0  0  0  0
  147.7103  141.1416  154.3726 C   0  0  0  0  0  0  0  0  0  0  0  0
  148.6818  141.8880  155.1660 N   0  0  0  0  0  0  0  0  0  0  0  0
  149.9507  141.5137  155.3849 C   0  0  0  0  0  0  0  0  0  0  0  0
  150.4435  140.4885  154.9144 O   0  0  0  0  0  0  0  0  0  0  0  0
  150.7889  142.4310  156.2773 C   0  0  0  0  0  0  0  0  0  0  0  0
  151.2417  141.7219  157.5674 C   0  0  0  0  0  0  0  0  0  0  0  0
  151.8909  142.6590  158.6061 C   0  0  0  0  0  0  0  0  0  0  0  0
  152.2218  141.9359  159.9309 C   0  0  0  0  0  0  0  0  0  0  0  0
  152.8345  142.8921  160.9679 C   0  0  0  0  0  0  0  0  0  0  0  0
  151.9228  144.1012  161.2227 C   0  0  0  0  0  0  0  0  0  0  0  0
  151.6034  144.8330  159.9112 C   0  0  0  0  0  0  0  0  0  0  0  0
  150.9833  143.8764  158.8804 C   0  0  0  0  0  0  0  0  0  0  0  0
  144.1418  145.1846  152.7502 H   0  0  0  0  0  0  0  0  0  0  0  0
  145.0109  143.8692  151.9443 H   0  0  0  0  0  0  0  0  0  0  0  0
  145.9157  145.1282  152.8087 H   0  0  0  0  0  0  0  0  0  0  0  0
  143.4059  144.6998  155.1421 H   0  0  0  0  0  0  0  0  0  0  0  0
  146.2941  141.4849  152.7701 H   0  0  0  0  0  0  0  0  0  0  0  0
  147.3140  142.8509  153.1058 H   0  0  0  0  0  0  0  0  0  0  0  0
  147.1506  140.4516  155.0058 H   0  0  0  0  0  0  0  0  0  0  0  0
  148.2750  140.5246  153.6731 H   0  0  0  0  0  0  0  0  0  0  0  0
  148.3594  142.7449  155.5925 H   0  0  0  0  0  0  0  0  0  0  0  0
  151.6511  142.7621  155.6988 H   0  0  0  0  0  0  0  0  0  0  0  0
  150.2167  143.3256  156.5277 H   0  0  0  0  0  0  0  0  0  0  0  0
  150.3695  141.2510  158.0234 H   0  0  0  0  0  0  0  0  0  0  0  0
  151.9305  140.9104  157.3274 H   0  0  0  0  0  0  0  0  0  0  0  0
  152.8237  143.0345  158.1821 H   0  0  0  0  0  0  0  0  0  0  0  0
  151.3158  141.4879  160.3415 H   0  0  0  0  0  0  0  0  0  0  0  0
  152.9183  141.1166  159.7549 H   0  0  0  0  0  0  0  0  0  0  0  0
  153.0144  142.3602  161.9026 H   0  0  0  0  0  0  0  0  0  0  0  0
  153.8081  143.2368  160.6167 H   0  0  0  0  0  0  0  0  0  0  0  0
  150.9957  143.7688  161.6915 H   0  0  0  0  0  0  0  0  0  0  0  0
  152.3980  144.7859  161.9256 H   0  0  0  0  0  0  0  0  0  0  0  0
  150.9232  145.6630  160.1046 H   0  0  0  0  0  0  0  0  0  0  0  0
  152.5162  145.2687  159.5033 H   0  0  0  0  0  0  0  0  0  0  0  0
  150.7954  144.4187  157.9531 H   0  0  0  0  0  0  0  0  0  0  0  0
  150.0107  143.5373  159.2400 H   0  0  0  0  0  0  0  0  0  0  0  0
  1  2  1  0  0  0  0
  1 20  1  0  0  0  0
  1 21  1  0  0  0  0
  1 22  1  0  0  0  0
  2  6  1  0  0  0  0
  2  3  1  0  0  0  0
  3  4  2  0  0  0  0
  3 23  1  0  0  0  0
  4  5  1  0  0  0  0
  5  6  2  0  0  0  0
  6  7  1  0  0  0  0
  7  8  1  0  0  0  0
  7 24  1  0  0  0  0
  7 25  1  0  0  0  0
  8  9  1  0  0  0  0
  8 26  1  0  0  0  0
  8 27  1  0  0  0  0
  9 10  1  0  0  0  0
  9 28  1  0  0  0  0
 10 11  2  0  0  0  0
 10 12  1  0  0  0  0
 12 13  1  0  0  0  0
 12 29  1  0  0  0  0
 12 30  1  0  0  0  0
 13 14  1  0  0  0  0
 13 31  1  0  0  0  0
 13 32  1  0  0  0  0
 14 19  1  0  0  0  0
 14 15  1  0  0  0  0
 14 33  1  0  0  0  0
 15 16  1  0  0  0  0
 15 34  1  0  0  0  0
 15 35  1  0  0  0  0
 16 17  1  0  0  0  0
 16 36  1  0  0  0  0
 16 37  1  0  0  0  0
 17 18  1  0  0  0  0
 17 38  1  0  0  0  0
 17 39  1  0  0  0  0
 18 19  1  0  0  0  0
 18 40  1  0  0  0  0
 18 41  1  0  0  0  0
 19 42  1  0  0  0  0
 19 43  1  0  0  0  0
M  END
> <s_m_source_file>
AV-unprocessed.smi

> <i_m_source_file_index>
979

> <i_lp_mmshare_version>
43012

> <i_f3d_flags>
0

> <s_epik_input>
W0NIM11uMVtjSF1ubmMxW0NIMl1bQ0gyXVtOSF1DKD1PKVtDSDJdW0NIMl1bQ0hdMltDSDJdW0NIMl1bQ0gyXVtDSDJdW0NIMl0y

> <s_epik_cmdline>
J2VwaWtfcHl0aG9uJywgJy1waCcsICc3LjAnLCAnLXRuJywgJzgnLCAnLW1hJywgJzIwMCcsICctbWV0YWxfYmluZGluZycsICctaW1hZScsICc8aW5maWxlLm1hZT4nLCAnLW9tYWUnLCAnPG91dGZpbGUubWFlPic=

> <r_lp_tautomer_probability>
1

> <r_epik_Ionization_Penalty>
0.000191268

> <r_epik_Ionization_Penalty_Charging>
0

> <r_epik_Ionization_Penalty_Neutral>
0.000191268

> <r_epik_State_Penalty>
-0

> <r_epik_Charging_Adjusted_Penalty>
0

> <i_epik_Tot_Q>
0

> <i_epik_Tot_abs_Q>
0

> <r_epik_Metal_State_Penalty>
-0

> <b_epik_Metal_Only>
0

> <s_lp_Force_Field>
OPLS_2005

> <r_lp_Energy>
9.56688

> <b_lp_Chiralities_Consistent>
1

> <s_lp_Variant>
AV-unprocessed.smi:979-1

> <Gold.Version>
5.8.1

> <Gold.Id.Protein>
6NUR|6NUR_protein|mol2

> <Gold.PLP.Fitness>
52.2211

> <Gold.PLP.PLP>
-47.2082

> <Gold.PLP.part.hbond>
-2.0000

> <Gold.PLP.part.metal>
0.0000

> <Gold.PLP.part.buried>
-7.0210

> <Gold.PLP.part.nonpolar>
-37.2375

> <Gold.PLP.part.repulsive>
0.4988

> <Gold.PLP.ligand.clash>
0.0000

> <Gold.PLP.ligand.torsion>
0.5220

> <Gold.PLP.Chemscore.Hbond>
1.9920

> <Gold.PLP.Chemscore.CHOScore>
0.0000

> <Gold.PLP.Chemscore.Metal>
0.0000

> <Gold.Chemscore.Hbonds>
donor molecule, donor type, donor heavy atom, donor atom, acceptor molecule, acceptor atom, score
      L1  H     9    28       P1  8028  0.78
      P1  H  7989  7998       L1    11  1.00

> <Gold.PLP.Chemscore.Internal.Correction>
0.0809

> <Gold.Rescore>
     Score         DG    S(hbond)    S(metal)    S(lipo)     H(rot)  DE(clash)    DE(int)     intcor
     14.91     -15.59       1.06        0.00     106.94       2.32       0.10       0.59       ----

> <Gold.Chemscore.Fitness>
14.9077

> <Gold.Chemscore.DG>
-15.5889

> <Gold.Chemscore.ZeroCoef>
-5.4800

> <Gold.Chemscore.Hbond>
1.0556

> <Gold.Chemscore.Metal>
0.0000

> <Gold.Chemscore.Lipo>
106.9428

> <Gold.Chemscore.Internal_Hbond>
0.0000

> <Gold.Chemscore.DEClash>
0.0958

> <Gold.Chemscore.DEInternal>
0.5854

> <Gold.Chemscore.Rot>
2.3161

> <Gold.Chemscore.Internal.Correction>
   9.000000E+99

> <Gold.Chemscore.Hbonds>
donor molecule, donor type, donor heavy atom, donor atom, acceptor molecule, acceptor atom, score
      L1  H     9    28       P1  8028  0.71
      P1  H  7989  7998       L1    11  0.74

> <Gold.Chemscore.Hbond.Weighted>
-3.5258

> <Gold.Chemscore.Metal.Weighted>
-0.0000

> <Gold.Chemscore.Lipo.Weighted>
-12.5123

> <Gold.Chemscore.Internal_Hbond.Weighted>
0.0000

> <Gold.Chemscore.DEClash.Weighted>
0.0958

> <Gold.Chemscore.DEInternal.Weighted>
0.5854

> <Gold.Chemscore.Rot.Weighted>
5.9292

> <Gold.Chemscore.Internal.Correction.Weighted>
   9.000000E+99

> <Gold.Protein.RotatedTorsions>
[ 6907 6896 6895 6894 ] final  -20.32 input  -60.11 | X-H torsion
[ 7974 7965 7964 7962 ] final  -71.66 input  175.53 | X-H torsion
[ 8008 7997 7996 7995 ] final -140.76 input   59.86 | X-H torsion
[ 10167 10162 10161 10158 ] final   -1.49 input  -65.29 | X-H torsion
[ 10718 10713 10712 10709 ] final  -70.52 input   66.30 | X-H torsion
[ 10763 10752 10751 10750 ] final   48.69 input  -60.55 | X-H torsion
[ 11005 11000 10999 10996 ] final  -14.62 input  -57.11 | X-H torsion

> <Gold.Protein.ActiveResidues>
 VAL166  LYS551  ARG553  GLY616  TRP617  ASP618  TYR619  PRO620  LYS621  CYS622 
 ASP623  PHE694  ASN695  SER759  ASP760  ASP761  ALA762  ILE779  LEU786  VAL792 
 PHE793  MET794  SER795  GLU796  ALA797  LYS798  CYS799  TRP800  GLU811  SER814 

> <Gold.Protein.RotatedAtoms>
  151.2499  135.0618  159.9057 H   0  0  0  0  0  0  0  0  0  0  0  0  # atno 6907 bound_to 6896
  152.5381  134.0343  159.8049 H   0  0  0  0  0  0  0  0  0  0  0  0  # atno 6908 bound_to 6896
  151.0550  133.5543  159.2670 H   0  0  0  0  0  0  0  0  0  0  0  0  # atno 6909 bound_to 6896
  145.6752  140.9207  143.0862 H   0  0  0  0  0  0  0  0  0  0  0  0  # atno 7974 bound_to 7965
  155.4666  140.0550  157.2984 H   0  0  0  0  0  0  0  0  0  0  0  0  # atno 8008 bound_to 7997
  154.4715  140.2042  155.9937 H   0  0  0  0  0  0  0  0  0  0  0  0  # atno 8009 bound_to 7997
  156.1064  140.3211  155.8016 H   0  0  0  0  0  0  0  0  0  0  0  0  # atno 8010 bound_to 7997
  140.6812  143.6769  150.8137 H   0  0  0  0  0  0  0  0  0  0  0  0  # atno 10167 bound_to 10162
  156.0404  130.4333  150.2308 H   0  0  0  0  0  0  0  0  0  0  0  0  # atno 10718 bound_to 10713
  152.9790  135.5936  154.3966 H   0  0  0  0  0  0  0  0  0  0  0  0  # atno 10763 bound_to 10752
  154.3616  135.2767  155.2318 H   0  0  0  0  0  0  0  0  0  0  0  0  # atno 10764 bound_to 10752
  154.4313  135.6035  153.6125 H   0  0  0  0  0  0  0  0  0  0  0  0  # atno 10765 bound_to 10752
  140.7883  133.8308  155.9356 H   0  0  0  0  0  0  0  0  0  0  0  0  # atno 11005 bound_to 11000
  144.7044  139.8624  143.7434 LP  0  0  0  0  0  0  0  0  0  0  0  0  # atno 17320 bound_to 7965
  146.1011  139.4007  143.0346 LP  0  0  0  0  0  0  0  0  0  0  0  0  # atno 17321 bound_to 7965
  140.0470  143.5288  152.2691 LP  0  0  0  0  0  0  0  0  0  0  0  0  # atno 17342 bound_to 10162
  139.6136  144.7614  151.2896 LP  0  0  0  0  0  0  0  0  0  0  0  0  # atno 17343 bound_to 10162
  157.0404  131.0033  151.3285 LP  0  0  0  0  0  0  0  0  0  0  0  0  # atno 17370 bound_to 10713
  157.5214  130.8000  149.7813 LP  0  0  0  0  0  0  0  0  0  0  0  0  # atno 17371 bound_to 10713
  140.9415  134.1895  157.4794 LP  0  0  0  0  0  0  0  0  0  0  0  0  # atno 17394 bound_to 11000
  139.8734  134.9873  156.5364 LP  0  0  0  0  0  0  0  0  0  0  0  0  # atno 17395 bound_to 11000

$$$$
