AV-unprocessed.smi:3041|AV-procd|sdf|11598|dock2
  -GOLD-   2272016573D 1   1.00000     0.00000
 Structure written by MMmdl.
 38 39  0  0  0  0  0  0  0  0  1 V2000
  145.4208  136.3264  151.4797 C   0  0  0  0  0  0  0  0  0  0  0  0
  146.1247  137.5192  151.8988 N   0  0  0  0  0  0  0  0  0  0  0  0
  146.4514  137.9210  153.1758 C   0  0  0  0  0  0  0  0  0  0  0  0
  147.1164  139.1104  153.0738 C   0  0  0  0  0  0  0  0  0  0  0  0
  147.7014  139.9608  154.1701 C   0  0  0  0  0  0  0  0  0  0  0  0
  148.0064  141.4005  153.7166 C   0  0  0  0  0  0  0  0  0  0  0  0
  148.7437  142.1548  154.7276 N   0  0  0  0  0  0  0  0  0  0  0  0
  149.8169  141.7129  155.3993 C   0  0  0  0  0  0  0  0  0  0  0  0
  150.3271  140.6049  155.2328 O   0  0  0  0  0  0  0  0  0  0  0  0
  150.2591  142.6231  156.2776 N   0  0  0  0  0  0  0  0  0  0  0  0
  151.4109  142.4597  157.1586 C   0  0  0  0  0  0  0  0  0  0  0  0
  151.2972  143.3775  158.3869 C   0  0  1  0  0  0  0  0  0  0  0  0
  152.5344  143.4278  159.2625 C   0  0  0  0  0  0  0  0  0  0  0  0
  152.3112  144.7163  160.0486 C   0  0  0  0  0  0  0  0  0  0  0  0
  151.5680  145.5754  159.1883 O   0  0  0  0  0  0  0  0  0  0  0  0
  151.1223  144.8559  158.0427 C   0  0  0  0  0  0  0  0  0  0  0  0
  147.1403  139.3561  151.6712 C   0  0  0  0  0  0  0  0  0  0  0  0
  146.5454  138.4037  150.9718 N   0  0  0  0  0  0  0  0  0  0  0  0
  145.3349  135.6305  152.3147 H   0  0  0  0  0  0  0  0  0  0  0  0
  145.9634  135.8392  150.6688 H   0  0  0  0  0  0  0  0  0  0  0  0
  144.4215  136.5922  151.1338 H   0  0  0  0  0  0  0  0  0  0  0  0
  146.1930  137.3307  154.0425 H   0  0  0  0  0  0  0  0  0  0  0  0
  147.0196  140.0002  155.0201 H   0  0  0  0  0  0  0  0  0  0  0  0
  148.6171  139.5096  154.5539 H   0  0  0  0  0  0  0  0  0  0  0  0
  148.5479  141.3889  152.7690 H   0  0  0  0  0  0  0  0  0  0  0  0
  147.0710  141.9257  153.5228 H   0  0  0  0  0  0  0  0  0  0  0  0
  148.4028  143.0814  154.9377 H   0  0  0  0  0  0  0  0  0  0  0  0
  149.7647  143.5011  156.3381 H   0  0  0  0  0  0  0  0  0  0  0  0
  151.4614  141.4150  157.4676 H   0  0  0  0  0  0  0  0  0  0  0  0
  152.3444  142.6742  156.6358 H   0  0  0  0  0  0  0  0  0  0  0  0
  150.4484  143.0631  158.9971 H   0  0  0  0  0  0  0  0  0  0  0  0
  152.6442  142.5539  159.9055 H   0  0  0  0  0  0  0  0  0  0  0  0
  153.4323  143.5164  158.6488 H   0  0  0  0  0  0  0  0  0  0  0  0
  151.7152  144.5196  160.9406 H   0  0  0  0  0  0  0  0  0  0  0  0
  153.2472  145.1787  160.3621 H   0  0  0  0  0  0  0  0  0  0  0  0
  151.7525  145.1339  157.1968 H   0  0  0  0  0  0  0  0  0  0  0  0
  150.0914  145.1063  157.7917 H   0  0  0  0  0  0  0  0  0  0  0  0
  147.5750  140.1922  151.1438 H   0  0  0  0  0  0  0  0  0  0  0  0
  1  2  1  0  0  0  0
  1 19  1  0  0  0  0
  1 20  1  0  0  0  0
  1 21  1  0  0  0  0
  2 18  1  0  0  0  0
  2  3  1  0  0  0  0
  3  4  2  0  0  0  0
  3 22  1  0  0  0  0
  4  5  1  0  0  0  0
  4 17  1  0  0  0  0
  5  6  1  0  0  0  0
  5 23  1  0  0  0  0
  5 24  1  0  0  0  0
  6  7  1  0  0  0  0
  6 25  1  0  0  0  0
  6 26  1  0  0  0  0
  7  8  1  0  0  0  0
  7 27  1  0  0  0  0
  8  9  2  0  0  0  0
  8 10  1  0  0  0  0
 10 11  1  0  0  0  0
 10 28  1  0  0  0  0
 11 12  1  0  0  0  0
 11 29  1  0  0  0  0
 11 30  1  0  0  0  0
 12 16  1  0  0  0  0
 12 13  1  0  0  0  0
 12 31  1  0  0  0  0
 13 14  1  0  0  0  0
 13 32  1  0  0  0  0
 13 33  1  0  0  0  0
 14 15  1  0  0  0  0
 14 34  1  0  0  0  0
 14 35  1  0  0  0  0
 15 16  1  0  0  0  0
 16 36  1  0  0  0  0
 16 37  1  0  0  0  0
 17 18  2  0  0  0  0
 17 38  1  0  0  0  0
M  END
> <s_m_source_file>
AV-unprocessed.smi

> <i_m_source_file_index>
3041

> <i_lp_mmshare_version>
43012

> <i_f3d_flags>
0

> <s_epik_input>
W0NIM11uMVtjSF1jKFtjSF1uMSlbQ0gyXVtDSDJdW05IXUMoPU8pW05IXVtDSDJdW0NAQEhdMltDSDJdW0NIMl1PW0NIMl0y

> <s_epik_cmdline>
J2VwaWtfcHl0aG9uJywgJy1waCcsICc3LjAnLCAnLXRuJywgJzgnLCAnLW1hJywgJzIwMCcsICctbWV0YWxfYmluZGluZycsICctaW1hZScsICc8aW5maWxlLm1hZT4nLCAnLW9tYWUnLCAnPG91dGZpbGUubWFlPic=

> <r_lp_tautomer_probability>
1

> <r_epik_Ionization_Penalty>
0.000557811

> <r_epik_Ionization_Penalty_Charging>
0

> <r_epik_Ionization_Penalty_Neutral>
0.000557811

> <r_epik_State_Penalty>
-0

> <r_epik_Charging_Adjusted_Penalty>
0

> <i_epik_Tot_Q>
0

> <i_epik_Tot_abs_Q>
0

> <r_epik_Metal_State_Penalty>
-0

> <b_epik_Metal_Only>
0

> <s_lp_Force_Field>
OPLS_2005

> <r_lp_Energy>
14.3495

> <b_lp_Chiralities_Consistent>
1

> <s_lp_Variant>
AV-unprocessed.smi:3041-2

> <Gold.Version>
5.8.1

> <Gold.Id.Protein>
6NUR|6NUR_protein|mol2

> <Gold.PLP.Fitness>
45.4183

> <Gold.PLP.PLP>
-34.8127

> <Gold.PLP.part.hbond>
-4.5067

> <Gold.PLP.part.metal>
0.0000

> <Gold.PLP.part.buried>
0.0987

> <Gold.PLP.part.nonpolar>
-32.1125

> <Gold.PLP.part.repulsive>
2.2636

> <Gold.PLP.ligand.clash>
0.0000

> <Gold.PLP.ligand.torsion>
0.5097

> <Gold.PLP.Chemscore.Hbond>
3.2970

> <Gold.PLP.Chemscore.CHOScore>
0.5741

> <Gold.PLP.Chemscore.Metal>
0.0000

> <Gold.Chemscore.Hbonds>
donor molecule, donor type, donor heavy atom, donor atom, acceptor molecule, acceptor atom, score
      L1  H     7    27       P1  8028  0.90
      L1  H    10    28       P1  8028  1.00
      P1  H  7954  7966       L1    18  0.80
      P1  H  7989  7998       L1     9  0.57
      L1  C    17    38       P1  7957  0.55

> <Gold.PLP.Chemscore.Internal.Correction>
0.0116

> <Gold.Rescore>
     Score         DG    S(hbond)    S(metal)    S(lipo)     H(rot)  DE(clash)    DE(int)     intcor
     15.00     -20.62       2.37        0.00     102.42       1.85       3.86       1.77       ----

> <Gold.Chemscore.Fitness>
14.9973

> <Gold.Chemscore.DG>
-20.6232

> <Gold.Chemscore.ZeroCoef>
-5.4800

> <Gold.Chemscore.Hbond>
2.3664

> <Gold.Chemscore.Metal>
0.0000

> <Gold.Chemscore.Lipo>
102.4169

> <Gold.Chemscore.Internal_Hbond>
0.0000

> <Gold.Chemscore.DEClash>
3.8561

> <Gold.Chemscore.DEInternal>
1.7698

> <Gold.Chemscore.Rot>
1.8528

> <Gold.Chemscore.Internal.Correction>
   9.000000E+99

> <Gold.Chemscore.Hbonds>
donor molecule, donor type, donor heavy atom, donor atom, acceptor molecule, acceptor atom, score
      L1  H     7    27       P1  8028  0.88
      L1  H    10    28       P1  8028  0.96
      P1  H  7954  7966       L1    18  0.10
      P1  H  7989  7998       L1     9  0.25

> <Gold.Chemscore.Hbond.Weighted>
-7.9037

> <Gold.Chemscore.Metal.Weighted>
-0.0000

> <Gold.Chemscore.Lipo.Weighted>
-11.9828

> <Gold.Chemscore.Internal_Hbond.Weighted>
0.0000

> <Gold.Chemscore.DEClash.Weighted>
3.8561

> <Gold.Chemscore.DEInternal.Weighted>
1.7698

> <Gold.Chemscore.Rot.Weighted>
4.7433

> <Gold.Chemscore.Internal.Correction.Weighted>
   9.000000E+99

> <Gold.Protein.RotatedTorsions>
[ 6907 6896 6895 6894 ] final  -79.97 input  -60.11 | X-H torsion
[ 7974 7965 7964 7962 ] final  109.37 input  175.53 | X-H torsion
[ 8008 7997 7996 7995 ] final  -85.49 input   59.86 | X-H torsion
[ 10167 10162 10161 10158 ] final  -43.62 input  -65.29 | X-H torsion
[ 10718 10713 10712 10709 ] final  -15.62 input   66.30 | X-H torsion
[ 10763 10752 10751 10750 ] final   33.17 input  -60.55 | X-H torsion
[ 11005 11000 10999 10996 ] final  -23.71 input  -57.11 | X-H torsion

> <Gold.Protein.ActiveResidues>
 VAL166  LYS551  ARG553  GLY616  TRP617  ASP618  TYR619  PRO620  LYS621  CYS622 
 ASP623  PHE694  ASN695  SER759  ASP760  ASP761  ALA762  ILE779  LEU786  VAL792 
 PHE793  MET794  SER795  GLU796  ALA797  LYS798  CYS799  TRP800  GLU811  SER814 

> <Gold.Protein.RotatedAtoms>
  150.6939  134.4041  159.5131 H   0  0  0  0  0  0  0  0  0  0  0  0  # atno 6907 bound_to 6896
  152.1810  134.8751  160.0535 H   0  0  0  0  0  0  0  0  0  0  0  0  # atno 6908 bound_to 6896
  151.9742  133.3701  159.4119 H   0  0  0  0  0  0  0  0  0  0  0  0  # atno 6909 bound_to 6896
  145.2686  139.2675  143.3978 H   0  0  0  0  0  0  0  0  0  0  0  0  # atno 7974 bound_to 7965
  154.6413  140.0591  156.9849 H   0  0  0  0  0  0  0  0  0  0  0  0  # atno 8008 bound_to 7997
  155.1512  140.3274  155.4412 H   0  0  0  0  0  0  0  0  0  0  0  0  # atno 8009 bound_to 7997
  156.2532  140.1947  156.6624 H   0  0  0  0  0  0  0  0  0  0  0  0  # atno 8010 bound_to 7997
  140.6927  143.2973  151.3378 H   0  0  0  0  0  0  0  0  0  0  0  0  # atno 10167 bound_to 10162
  156.5992  130.4819  149.6247 H   0  0  0  0  0  0  0  0  0  0  0  0  # atno 10718 bound_to 10713
  153.0225  135.6394  154.1470 H   0  0  0  0  0  0  0  0  0  0  0  0  # atno 10763 bound_to 10752
  154.1203  135.2847  155.3211 H   0  0  0  0  0  0  0  0  0  0  0  0  # atno 10764 bound_to 10752
  154.6268  135.5506  153.7698 H   0  0  0  0  0  0  0  0  0  0  0  0  # atno 10765 bound_to 10752
  140.8777  133.7676  156.0263 H   0  0  0  0  0  0  0  0  0  0  0  0  # atno 11005 bound_to 11000
  146.3253  140.3123  142.8627 LP  0  0  0  0  0  0  0  0  0  0  0  0  # atno 17320 bound_to 7965
  144.9355  140.8021  143.5663 LP  0  0  0  0  0  0  0  0  0  0  0  0  # atno 17321 bound_to 7965
  139.6347  144.0652  152.2506 LP  0  0  0  0  0  0  0  0  0  0  0  0  # atno 17342 bound_to 10162
  140.0139  144.6204  150.7624 LP  0  0  0  0  0  0  0  0  0  0  0  0  # atno 17343 bound_to 10162
  156.2484  130.6892  151.1621 LP  0  0  0  0  0  0  0  0  0  0  0  0  # atno 17370 bound_to 10713
  157.7284  131.0632  150.5822 LP  0  0  0  0  0  0  0  0  0  0  0  0  # atno 17371 bound_to 10713
  140.8499  134.2967  157.5280 LP  0  0  0  0  0  0  0  0  0  0  0  0  # atno 17394 bound_to 11000
  139.8717  134.9462  156.3931 LP  0  0  0  0  0  0  0  0  0  0  0  0  # atno 17395 bound_to 11000

$$$$
