AV-unprocessed.smi:909|AV-procd|sdf|4115|dock7
  -GOLD-   22720 2 13D 1   1.00000     0.00000
 Structure written by MMmdl.
 39 40  0  0  0  0  0  0  0  0  2 V2000
  151.4852  138.1000  154.4448 C   0  0  0  0  0  0  0  0  0  0  0  0
  150.5691  139.2739  154.6377 C   0  0  0  0  0  0  0  0  0  0  0  0
  151.0794  140.4554  154.9427 N   0  0  0  0  0  0  0  0  0  0  0  0
  149.9913  141.3274  155.0441 O   0  0  0  0  0  0  0  0  0  0  0  0
  148.8547  140.6272  154.7978 C   0  0  0  0  0  0  0  0  0  0  0  0
  147.5739  141.3898  154.8473 C   0  0  0  0  0  0  0  0  0  0  0  0
  149.1488  139.3161  154.5404 C   0  0  0  0  0  0  0  0  0  0  0  0
  148.2078  138.1836  154.2181 C   0  0  0  0  0  0  0  0  0  0  0  0
  148.4459  137.0294  155.1906 C   0  0  0  0  0  0  0  0  0  0  0  0
  148.2852  137.2157  156.3951 O   0  0  0  0  0  0  0  0  0  0  0  0
  148.8471  135.8754  154.6258 N   0  0  0  0  0  0  0  0  0  0  0  0
  149.1859  134.5558  155.1847 C   0  0  0  0  0  0  0  0  0  0  0  0
  150.3087  134.8366  156.2145 C   0  0  0  0  0  0  0  0  0  0  0  0
  150.1095  134.5086  157.4057 O   0  0  0  0  0  0  0  0  0  0  0  0
  151.3402  135.4201  155.8100 O   0  5  0  0  0  0  0  0  0  0  0  0
  148.0189  133.7710  155.8707 C   0  0  0  0  0  0  0  0  0  0  0  0
  146.9782  133.1966  154.8882 C   0  0  0  0  0  0  0  0  0  0  0  0
  147.6399  132.3472  153.7984 C   0  0  0  0  0  0  0  0  0  0  0  0
  148.7083  133.1600  153.0599 C   0  0  0  0  0  0  0  0  0  0  0  0
  149.7744  133.6885  154.0337 C   0  0  0  0  0  0  0  0  0  0  0  0
  151.5941  137.5351  155.3705 H   0  0  0  0  0  0  0  0  0  0  0  0
  152.4794  138.4158  154.1270 H   0  0  0  0  0  0  0  0  0  0  0  0
  151.0992  137.4215  153.6838 H   0  0  0  0  0  0  0  0  0  0  0  0
  147.2277  141.6240  153.8407 H   0  0  0  0  0  0  0  0  0  0  0  0
  147.6959  142.3282  155.3890 H   0  0  0  0  0  0  0  0  0  0  0  0
  146.7963  140.8111  155.3460 H   0  0  0  0  0  0  0  0  0  0  0  0
  147.1663  138.4993  154.2888 H   0  0  0  0  0  0  0  0  0  0  0  0
  148.3451  137.8288  153.1958 H   0  0  0  0  0  0  0  0  0  0  0  0
  148.9539  135.9172  153.6230 H   0  0  0  0  0  0  0  0  0  0  0  0
  148.4411  132.9264  156.4178 H   0  0  0  0  0  0  0  0  0  0  0  0
  147.5213  134.3730  156.6313 H   0  0  0  0  0  0  0  0  0  0  0  0
  146.2527  132.5937  155.4349 H   0  0  0  0  0  0  0  0  0  0  0  0
  146.4108  133.9985  154.4182 H   0  0  0  0  0  0  0  0  0  0  0  0
  148.0926  131.4608  154.2443 H   0  0  0  0  0  0  0  0  0  0  0  0
  146.8872  131.9922  153.0942 H   0  0  0  0  0  0  0  0  0  0  0  0
  149.1807  132.5404  152.2973 H   0  0  0  0  0  0  0  0  0  0  0  0
  148.2406  133.9933  152.5341 H   0  0  0  0  0  0  0  0  0  0  0  0
  150.5174  134.2521  153.4666 H   0  0  0  0  0  0  0  0  0  0  0  0
  150.3059  132.8323  154.4534 H   0  0  0  0  0  0  0  0  0  0  0  0
  1  2  1  0  0  0  0
  1 21  1  0  0  0  0
  1 22  1  0  0  0  0
  1 23  1  0  0  0  0
  2  7  1  0  0  0  0
  2  3  2  0  0  0  0
  3  4  1  0  0  0  0
  4  5  1  0  0  0  0
  5  6  1  0  0  0  0
  5  7  2  0  0  0  0
  6 24  1  0  0  0  0
  6 25  1  0  0  0  0
  6 26  1  0  0  0  0
  7  8  1  0  0  0  0
  8  9  1  0  0  0  0
  8 27  1  0  0  0  0
  8 28  1  0  0  0  0
  9 10  2  0  0  0  0
  9 11  1  0  0  0  0
 11 12  1  0  0  0  0
 11 29  1  0  0  0  0
 12 20  1  0  0  0  0
 12 13  1  0  0  0  0
 12 16  1  0  0  0  0
 13 14  2  0  0  0  0
 13 15  1  0  0  0  0
 16 17  1  0  0  0  0
 16 30  1  0  0  0  0
 16 31  1  0  0  0  0
 17 18  1  0  0  0  0
 17 32  1  0  0  0  0
 17 33  1  0  0  0  0
 18 19  1  0  0  0  0
 18 34  1  0  0  0  0
 18 35  1  0  0  0  0
 19 20  1  0  0  0  0
 19 36  1  0  0  0  0
 19 37  1  0  0  0  0
 20 38  1  0  0  0  0
 20 39  1  0  0  0  0
M  CHG  1  15  -1
M  END
> <s_m_source_file>
AV-unprocessed.smi

> <i_m_source_file_index>
909

> <i_lp_mmshare_version>
43012

> <i_f3d_flags>
0

> <s_epik_input>
W0NIM11jMW5vYyhbQ0gzXSljMVtDSDJdQyg9TylbTkhdQzIoQyg9TylbT0hdKVtDSDJdW0NIMl1bQ0gyXVtDSDJdW0NIMl0y

> <s_epik_cmdline>
J2VwaWtfcHl0aG9uJywgJy1waCcsICc3LjAnLCAnLXRuJywgJzgnLCAnLW1hJywgJzIwMCcsICctbWV0YWxfYmluZGluZycsICctaW1hZScsICc8aW5maWxlLm1hZT4nLCAnLW9tYWUnLCAnPG91dGZpbGUubWFlPic=

> <r_epik_Ionization_Penalty>
0.000391234

> <r_epik_Ionization_Penalty_Charging>
0.000391215

> <r_epik_Ionization_Penalty_Neutral>
1.90707e-08

> <r_epik_State_Penalty>
0.000239413

> <r_epik_Charging_Adjusted_Penalty>
0.000630628

> <i_epik_Tot_Q>
-1

> <i_epik_Tot_abs_Q>
1

> <r_epik_Metal_State_Penalty>
-0

> <b_epik_Metal_Only>
0

> <s_lp_Force_Field>
OPLS_2005

> <r_lp_Energy>
2.68806

> <b_lp_Chiralities_Consistent>
1

> <s_lp_Variant>
AV-unprocessed.smi:909-1

> <Gold.Version>
5.8.1

> <Gold.Id.Protein>
6NUR|6NUR_protein|mol2

> <Gold.PLP.Fitness>
45.3797

> <Gold.PLP.PLP>
-28.6400

> <Gold.PLP.part.hbond>
-4.8600

> <Gold.PLP.part.metal>
0.0000

> <Gold.PLP.part.buried>
-1.6879

> <Gold.PLP.part.nonpolar>
-21.8387

> <Gold.PLP.part.repulsive>
0.2577

> <Gold.PLP.ligand.clash>
0.0000

> <Gold.PLP.ligand.torsion>
0.1096

> <Gold.PLP.Chemscore.Hbond>
5.6320

> <Gold.PLP.Chemscore.CHOScore>
0.0000

> <Gold.PLP.Chemscore.Metal>
0.0000

> <Gold.Chemscore.Hbonds>
donor molecule, donor type, donor heavy atom, donor atom, acceptor molecule, acceptor atom, score
      L1  H    11    29       P1  7948  1.00
      P1  H  6896  6909       L1    14  1.45
      P1  H  7989  7998       L1     3  1.00
      P1  H 10752 10763       L1    15  2.00

> <Gold.PLP.Chemscore.Internal.Correction>
0.0628

> <Gold.Rescore>
     Score         DG    S(hbond)    S(metal)    S(lipo)     H(rot)  DE(clash)    DE(int)     intcor
     16.25     -17.89       3.05        0.00      61.10       1.93       0.08       1.56       ----

> <Gold.Chemscore.Fitness>
16.2523

> <Gold.Chemscore.DG>
-17.8918

> <Gold.Chemscore.ZeroCoef>
-5.4800

> <Gold.Chemscore.Hbond>
3.0540

> <Gold.Chemscore.Metal>
0.0000

> <Gold.Chemscore.Lipo>
61.1050

> <Gold.Chemscore.Internal_Hbond>
0.0000

> <Gold.Chemscore.DEClash>
0.0784

> <Gold.Chemscore.DEInternal>
1.5612

> <Gold.Chemscore.Rot>
1.9289

> <Gold.Chemscore.Internal.Correction>
   9.000000E+99

> <Gold.Chemscore.Hbonds>
donor molecule, donor type, donor heavy atom, donor atom, acceptor molecule, acceptor atom, score
      L1  H    11    29       P1  7948  0.96
      P1  H  6896  6909       L1    14  0.69
      P1  H  7989  7998       L1     3  0.06
      P1  H 10752 10763       L1    15  0.99

> <Gold.Chemscore.Hbond.Weighted>
-10.2004

> <Gold.Chemscore.Metal.Weighted>
-0.0000

> <Gold.Chemscore.Lipo.Weighted>
-7.1493

> <Gold.Chemscore.Internal_Hbond.Weighted>
0.0000

> <Gold.Chemscore.DEClash.Weighted>
0.0784

> <Gold.Chemscore.DEInternal.Weighted>
1.5612

> <Gold.Chemscore.Rot.Weighted>
4.9379

> <Gold.Chemscore.Internal.Correction.Weighted>
   9.000000E+99

> <Gold.Protein.RotatedTorsions>
[ 6907 6896 6895 6894 ] final   23.77 input  -60.11 | X-H torsion
[ 7974 7965 7964 7962 ] final  -43.57 input  175.53 | X-H torsion
[ 8008 7997 7996 7995 ] final  -85.96 input   59.86 | X-H torsion
[ 10167 10162 10161 10158 ] final  -16.26 input  -65.29 | X-H torsion
[ 10718 10713 10712 10709 ] final  -49.26 input   66.30 | X-H torsion
[ 10763 10752 10751 10750 ] final   81.21 input  -60.55 | X-H torsion
[ 11005 11000 10999 10996 ] final  117.90 input  -57.11 | X-H torsion

> <Gold.Protein.ActiveResidues>
 VAL166  LYS551  ARG553  GLY616  TRP617  ASP618  TYR619  PRO620  LYS621  CYS622 
 ASP623  PHE694  ASN695  SER759  ASP760  ASP761  ALA762  ILE779  LEU786  VAL792 
 PHE793  MET794  SER795  GLU796  ALA797  LYS798  CYS799  TRP800  GLU811  SER814 

> <Gold.Protein.RotatedAtoms>
  151.9473  135.0185  160.0539 H   0  0  0  0  0  0  0  0  0  0  0  0  # atno 6907 bound_to 6896
  152.1984  133.4818  159.5053 H   0  0  0  0  0  0  0  0  0  0  0  0  # atno 6908 bound_to 6896
  150.6949  134.1540  159.4194 H   0  0  0  0  0  0  0  0  0  0  0  0  # atno 6909 bound_to 6896
  146.0006  140.7079  142.9272 H   0  0  0  0  0  0  0  0  0  0  0  0  # atno 7974 bound_to 7965
  154.6465  140.0584  156.9906 H   0  0  0  0  0  0  0  0  0  0  0  0  # atno 8008 bound_to 7997
  155.1436  140.3267  155.4428 H   0  0  0  0  0  0  0  0  0  0  0  0  # atno 8009 bound_to 7997
  156.2556  140.1959  156.6551 H   0  0  0  0  0  0  0  0  0  0  0  0  # atno 8010 bound_to 7997
  140.7231  143.5134  150.9722 H   0  0  0  0  0  0  0  0  0  0  0  0  # atno 10167 bound_to 10162
  156.1910  130.4153  149.9372 H   0  0  0  0  0  0  0  0  0  0  0  0  # atno 10718 bound_to 10713
  153.1097  135.4774  154.9014 H   0  0  0  0  0  0  0  0  0  0  0  0  # atno 10763 bound_to 10752
  154.7468  135.3096  154.8632 H   0  0  0  0  0  0  0  0  0  0  0  0  # atno 10764 bound_to 10752
  153.9225  135.6853  153.4801 H   0  0  0  0  0  0  0  0  0  0  0  0  # atno 10765 bound_to 10752
  139.9090  134.9615  156.7422 H   0  0  0  0  0  0  0  0  0  0  0  0  # atno 11005 bound_to 11000
  144.6918  140.3226  143.7230 LP  0  0  0  0  0  0  0  0  0  0  0  0  # atno 17320 bound_to 7965
  145.7494  139.1789  143.2330 LP  0  0  0  0  0  0  0  0  0  0  0  0  # atno 17321 bound_to 7965
  139.8849  143.7026  152.3152 LP  0  0  0  0  0  0  0  0  0  0  0  0  # atno 17342 bound_to 10162
  139.7321  144.7580  151.0785 LP  0  0  0  0  0  0  0  0  0  0  0  0  # atno 17343 bound_to 10162
  156.7112  130.8971  151.3609 LP  0  0  0  0  0  0  0  0  0  0  0  0  # atno 17370 bound_to 10713
  157.6929  130.9252  150.0563 LP  0  0  0  0  0  0  0  0  0  0  0  0  # atno 17371 bound_to 10713
  140.6841  133.9449  155.7927 LP  0  0  0  0  0  0  0  0  0  0  0  0  # atno 17394 bound_to 11000
  141.0489  134.0513  157.3808 LP  0  0  0  0  0  0  0  0  0  0  0  0  # atno 17395 bound_to 11000

$$$$
