AV-unprocessed.smi:37|AV-procd|sdf|305|dock1
  -GOLD-   2262016113D 1   1.00000     0.00000
 Structure written by MMmdl.
 44 45  0  0  0  0  0  0  0  0  1 V2000
  145.9023  133.6797  162.2019 C   0  0  0  0  0  0  0  0  0  0  0  0
  146.7293  134.9725  162.2108 C   0  0  0  0  0  0  0  0  0  0  0  0
  146.8556  135.5918  160.8203 C   0  0  0  0  0  0  0  0  0  0  0  0
  146.7029  136.7999  160.6400 O   0  0  0  0  0  0  0  0  0  0  0  0
  147.1262  134.6834  159.8705 O   0  0  0  0  0  0  0  0  0  0  0  0
  146.9977  135.0346  158.5027 C   0  0  0  0  0  0  0  0  0  0  0  0
  148.2145  134.5084  157.7321 C   0  0  2  0  0  0  0  0  0  0  0  0
  149.3692  135.3106  157.9813 O   0  0  0  0  0  0  0  0  0  0  0  0
  150.1202  135.4706  156.8101 C   0  0  2  0  0  0  0  0  0  0  0  0
  150.0783  136.9208  156.3713 N   0  0  0  0  0  0  0  0  0  0  0  0
  149.3664  137.8912  157.0671 C   0  0  0  0  0  0  0  0  0  0  0  0
  149.3143  139.1874  156.6788 C   0  0  0  0  0  0  0  0  0  0  0  0
  148.6036  140.0686  157.4031 F   0  0  0  0  0  0  0  0  0  0  0  0
  150.0192  139.6365  155.4821 C   0  0  0  0  0  0  0  0  0  0  0  0
  150.0308  140.7878  155.0513 O   0  0  0  0  0  0  0  0  0  0  0  0
  150.7191  138.6284  154.8131 N   0  0  0  0  0  0  0  0  0  0  0  0
  150.7798  137.2893  155.2014 C   0  0  0  0  0  0  0  0  0  0  0  0
  151.4207  136.4821  154.5296 O   0  0  0  0  0  0  0  0  0  0  0  0
  149.4837  134.5795  155.7384 C   0  0  1  0  0  0  0  0  0  0  0  0
  150.3350  132.7751  155.7998 Br  0  0  0  0  0  0  0  0  0  0  0  0
  148.0422  134.5187  156.2141 C   0  0  1  0  0  0  0  0  0  0  0  0
  147.3558  133.3626  155.7545 O   0  0  0  0  0  0  0  0  0  0  0  0
  147.2080  133.1422  154.4373 C   0  0  0  0  0  0  0  0  0  0  0  0
  147.1468  134.0061  153.5624 O   0  0  0  0  0  0  0  0  0  0  0  0
  147.1268  131.6563  154.0976 C   0  0  0  0  0  0  0  0  0  0  0  0
  148.2866  131.2068  153.1983 C   0  0  0  0  0  0  0  0  0  0  0  0
  151.2204  138.8915  153.9769 H   0  0  0  0  0  0  0  0  0  0  0  0
  145.8690  133.2396  163.1986 H   0  0  0  0  0  0  0  0  0  0  0  0
  146.3318  132.9384  161.5273 H   0  0  0  0  0  0  0  0  0  0  0  0
  144.8736  133.8637  161.8901 H   0  0  0  0  0  0  0  0  0  0  0  0
  146.2764  135.7026  162.8814 H   0  0  0  0  0  0  0  0  0  0  0  0
  147.7285  134.7683  162.5965 H   0  0  0  0  0  0  0  0  0  0  0  0
  146.0739  134.6247  158.0934 H   0  0  0  0  0  0  0  0  0  0  0  0
  146.9440  136.1205  158.4151 H   0  0  0  0  0  0  0  0  0  0  0  0
  148.4568  133.4996  158.0707 H   0  0  0  0  0  0  0  0  0  0  0  0
  151.1717  135.2544  157.0084 H   0  0  0  0  0  0  0  0  0  0  0  0
  148.8207  137.6264  157.9587 H   0  0  0  0  0  0  0  0  0  0  0  0
  149.6002  134.9784  154.7302 H   0  0  0  0  0  0  0  0  0  0  0  0
  147.5205  135.4335  155.9265 H   0  0  0  0  0  0  0  0  0  0  0  0
  147.1313  131.0814  155.0240 H   0  0  0  0  0  0  0  0  0  0  0  0
  146.1738  131.4586  153.6062 H   0  0  0  0  0  0  0  0  0  0  0  0
  148.2303  130.1358  153.0046 H   0  0  0  0  0  0  0  0  0  0  0  0
  149.2513  131.4079  153.6655 H   0  0  0  0  0  0  0  0  0  0  0  0
  148.2661  131.7170  152.2347 H   0  0  0  0  0  0  0  0  0  0  0  0
  1  2  1  0  0  0  0
  1 28  1  0  0  0  0
  1 29  1  0  0  0  0
  1 30  1  0  0  0  0
  2  3  1  0  0  0  0
  2 31  1  0  0  0  0
  2 32  1  0  0  0  0
  3  4  2  0  0  0  0
  3  5  1  0  0  0  0
  5  6  1  0  0  0  0
  6  7  1  0  0  0  0
  6 33  1  0  0  0  0
  6 34  1  0  0  0  0
  7 21  1  0  0  0  0
  7  8  1  0  0  0  0
  7 35  1  0  0  0  0
  8  9  1  0  0  0  0
  9 10  1  0  0  0  0
  9 19  1  0  0  0  0
  9 36  1  0  0  0  0
 10 17  1  0  0  0  0
 10 11  1  0  0  0  0
 11 12  2  0  0  0  0
 11 37  1  0  0  0  0
 12 13  1  0  0  0  0
 12 14  1  0  0  0  0
 14 15  2  0  0  0  0
 14 16  1  0  0  0  0
 16 27  1  0  0  0  0
 16 17  1  0  0  0  0
 17 18  2  0  0  0  0
 19 20  1  0  0  0  0
 19 21  1  0  0  0  0
 19 38  1  0  0  0  0
 21 22  1  0  0  0  0
 21 39  1  0  0  0  0
 22 23  1  0  0  0  0
 23 24  2  0  0  0  0
 23 25  1  0  0  0  0
 25 26  1  0  0  0  0
 25 40  1  0  0  0  0
 25 41  1  0  0  0  0
 26 42  1  0  0  0  0
 26 43  1  0  0  0  0
 26 44  1  0  0  0  0
M  END
> <s_m_source_file>
AV-unprocessed.smi

> <i_m_source_file_index>
37

> <i_lp_mmshare_version>
43012

> <i_f3d_flags>
0

> <s_epik_input>
W0NIM11bQ0gyXUMoPU8pT1tDSDJdW0NAQEhdMU9bQ0BASF0objJbY0hdYyhGKWMoPU8pW25IXWMyPU8pW0NAQEhdKEJyKVtDQEhdMU9DKD1PKVtDSDJdW0NIM10=

> <s_epik_cmdline>
J2VwaWtfcHl0aG9uJywgJy1waCcsICc3LjAnLCAnLXRuJywgJzgnLCAnLW1hJywgJzIwMCcsICctbWV0YWxfYmluZGluZycsICctaW1hZScsICc8aW5maWxlLm1hZT4nLCAnLW9tYWUnLCAnPG91dGZpbGUubWFlPic=

> <r_lp_tautomer_probability>
0.999537

> <r_epik_Ionization_Penalty>
0.104106

> <r_epik_Ionization_Penalty_Charging>
0.104106

> <r_epik_Ionization_Penalty_Neutral>
3.94675e-16

> <r_epik_State_Penalty>
0.0940182

> <r_epik_Charging_Adjusted_Penalty>
0.198124

> <i_epik_Tot_Q>
0

> <i_epik_Tot_abs_Q>
0

> <r_epik_Metal_State_Penalty>
3.05314

> <b_epik_Metal_Only>
0

> <s_epik_Chemistry_Notes>
This compound has an ester and may undergo hydrolysis at high or low pH. This compound contains an acetal/aminal-like group ( X-CH(R)-Y where X, Y are N, S, or O) that may be acid/base labile, releasing an aldehyde.

> <s_lp_Force_Field>
OPLS_2005

> <r_lp_Energy>
22.9743

> <b_lp_Chiralities_Consistent>
1

> <s_lp_Variant>
AV-unprocessed.smi:37-3

> <Gold.Version>
5.8.1

> <Gold.Id.Protein>
6NUR|6NUR_protein|mol2

> <Gold.PLP.Fitness>
41.8816

> <Gold.PLP.PLP>
-30.2285

> <Gold.PLP.part.hbond>
-5.0000

> <Gold.PLP.part.metal>
0.0000

> <Gold.PLP.part.buried>
-5.5818

> <Gold.PLP.part.nonpolar>
-21.4747

> <Gold.PLP.part.repulsive>
1.0268

> <Gold.PLP.ligand.clash>
0.0000

> <Gold.PLP.ligand.torsion>
1.1631

> <Gold.PLP.Chemscore.Hbond>
4.5920

> <Gold.PLP.Chemscore.CHOScore>
0.0000

> <Gold.PLP.Chemscore.Metal>
0.0000

> <Gold.Chemscore.Hbonds>
donor molecule, donor type, donor heavy atom, donor atom, acceptor molecule, acceptor atom, score
      P1  H  6896  6907       L1     8  0.70
      P1  H  6934  6947       L1     4  0.36
      P1  H  7989  7998       L1    15  0.42
      P1  H 10752 10763       L1    18  1.00

> <Gold.PLP.Chemscore.Internal.Correction>
0.2034

> <Gold.Rescore>
     Score         DG    S(hbond)    S(metal)    S(lipo)     H(rot)  DE(clash)    DE(int)     intcor
     12.80     -14.51       3.67        0.00      45.29       3.33       0.14       1.57       ----

> <Gold.Chemscore.Fitness>
12.8009

> <Gold.Chemscore.DG>
-14.5121

> <Gold.Chemscore.ZeroCoef>
-5.4800

> <Gold.Chemscore.Hbond>
3.6702

> <Gold.Chemscore.Metal>
0.0000

> <Gold.Chemscore.Lipo>
45.2924

> <Gold.Chemscore.Internal_Hbond>
0.0000

> <Gold.Chemscore.DEClash>
0.1400

> <Gold.Chemscore.DEInternal>
1.5712

> <Gold.Chemscore.Rot>
3.3303

> <Gold.Chemscore.Internal.Correction>
   9.000000E+99

> <Gold.Chemscore.Hbonds>
donor molecule, donor type, donor heavy atom, donor atom, acceptor molecule, acceptor atom, score
      P1  H  6896  6907       L1     8  0.32
      P1  H  6934  6947       L1     4  0.35
      P1  H  7989  7998       L1    15  0.25
      P1  H 10752 10763       L1    18  1.00

> <Gold.Chemscore.Hbond.Weighted>
-12.2585

> <Gold.Chemscore.Metal.Weighted>
-0.0000

> <Gold.Chemscore.Lipo.Weighted>
-5.2992

> <Gold.Chemscore.Internal_Hbond.Weighted>
0.0000

> <Gold.Chemscore.DEClash.Weighted>
0.1400

> <Gold.Chemscore.DEInternal.Weighted>
1.5712

> <Gold.Chemscore.Rot.Weighted>
8.5256

> <Gold.Chemscore.Internal.Correction.Weighted>
   9.000000E+99

> <Gold.Protein.RotatedTorsions>
[ 6907 6896 6895 6894 ] final  -83.59 input  -60.11 | X-H torsion
[ 7974 7965 7964 7962 ] final   14.87 input  175.53 | X-H torsion
[ 8008 7997 7996 7995 ] final  -34.56 input   59.86 | X-H torsion
[ 10167 10162 10161 10158 ] final  -79.67 input  -65.29 | X-H torsion
[ 10718 10713 10712 10709 ] final  118.75 input   66.30 | X-H torsion
[ 10763 10752 10751 10750 ] final   41.11 input  -60.55 | X-H torsion
[ 11005 11000 10999 10996 ] final   91.65 input  -57.11 | X-H torsion

> <Gold.Protein.ActiveResidues>
 VAL166  LYS551  ARG553  GLY616  TRP617  ASP618  TYR619  PRO620  LYS621  CYS622 
 ASP623  PHE694  ASN695  SER759  ASP760  ASP761  ALA762  ILE779  LEU786  VAL792 
 PHE793  MET794  SER795  GLU796  ALA797  LYS798  CYS799  TRP800  GLU811  SER814 

> <Gold.Protein.RotatedAtoms>
  150.6884  134.3488  159.4899 H   0  0  0  0  0  0  0  0  0  0  0  0  # atno 6907 bound_to 6896
  152.1332  134.9116  160.0567 H   0  0  0  0  0  0  0  0  0  0  0  0  # atno 6908 bound_to 6896
  152.0278  133.3890  159.4321 H   0  0  0  0  0  0  0  0  0  0  0  0  # atno 6909 bound_to 6896
  146.2294  139.8978  142.8544 H   0  0  0  0  0  0  0  0  0  0  0  0  # atno 7974 bound_to 7965
  154.4117  140.1680  156.2070 H   0  0  0  0  0  0  0  0  0  0  0  0  # atno 8008 bound_to 7997
  155.9476  140.3403  155.6357 H   0  0  0  0  0  0  0  0  0  0  0  0  # atno 8009 bound_to 7997
  155.6910  140.0734  157.2439 H   0  0  0  0  0  0  0  0  0  0  0  0  # atno 8010 bound_to 7997
  140.4572  143.2464  151.8401 H   0  0  0  0  0  0  0  0  0  0  0  0  # atno 10167 bound_to 10162
  157.6009  131.1051  150.7800 H   0  0  0  0  0  0  0  0  0  0  0  0  # atno 10718 bound_to 10713
  152.9917  135.6171  154.2734 H   0  0  0  0  0  0  0  0  0  0  0  0  # atno 10763 bound_to 10752
  154.2466  135.2787  155.2835 H   0  0  0  0  0  0  0  0  0  0  0  0  # atno 10764 bound_to 10752
  154.5324  135.5784  153.6827 H   0  0  0  0  0  0  0  0  0  0  0  0  # atno 10765 bound_to 10752
  139.8835  134.8686  156.3458 H   0  0  0  0  0  0  0  0  0  0  0  0  # atno 11005 bound_to 11000
  145.2354  140.9989  143.3967 LP  0  0  0  0  0  0  0  0  0  0  0  0  # atno 17320 bound_to 7965
  144.9496  139.4097  143.6409 LP  0  0  0  0  0  0  0  0  0  0  0  0  # atno 17321 bound_to 7965
  139.4802  144.5050  151.9009 LP  0  0  0  0  0  0  0  0  0  0  0  0  # atno 17342 bound_to 10162
  140.4136  144.2336  150.5888 LP  0  0  0  0  0  0  0  0  0  0  0  0  # atno 17343 bound_to 10162
  156.8199  130.4980  149.5344 LP  0  0  0  0  0  0  0  0  0  0  0  0  # atno 17370 bound_to 10713
  156.1082  130.6020  151.0005 LP  0  0  0  0  0  0  0  0  0  0  0  0  # atno 17371 bound_to 10713
  140.9628  133.7378  156.0424 LP  0  0  0  0  0  0  0  0  0  0  0  0  # atno 17394 bound_to 11000
  140.7969  134.3554  157.5450 LP  0  0  0  0  0  0  0  0  0  0  0  0  # atno 17395 bound_to 11000

$$$$
