AV-unprocessed.smi:1469|AV-procd|sdf|5959|dock10
  -GOLD-   22720 6 43D 1   1.00000     0.00000
 Structure written by MMmdl.
 41 42  0  0  0  0  0  0  0  0  2 V2000
  148.2829  141.6836  153.8105 C   0  0  0  0  0  0  0  0  0  0  0  0
  147.8161  141.2217  155.2064 C   0  0  1  0  0  0  0  0  0  0  0  0
  148.9731  140.5347  155.9766 C   0  0  0  0  0  0  0  0  0  0  0  0
  149.9867  141.4722  156.4579 N   0  0  0  0  0  0  0  0  0  0  0  0
  150.5907  141.4191  157.6549 C   0  0  0  0  0  0  0  0  0  0  0  0
  150.3687  140.5351  158.4830 O   0  0  0  0  0  0  0  0  0  0  0  0
  151.6177  142.5245  157.9388 C   0  0  0  0  0  0  0  0  0  0  0  0
  152.2627  142.3977  159.2564 N   0  0  0  0  0  0  0  0  0  0  0  0
  151.9758  143.3944  160.2106 C   0  0  0  0  0  0  0  0  0  0  0  0
  152.5113  143.3739  161.4415 C   0  0  0  0  0  0  0  0  0  0  0  0
  153.4042  142.2908  161.7794 C   0  0  0  0  0  0  0  0  0  0  0  0
  153.6877  141.3340  160.8732 C   0  0  0  0  0  0  0  0  0  0  0  0
  153.1072  141.3542  159.5256 C   0  0  0  0  0  0  0  0  0  0  0  0
  153.3638  140.4873  158.6892 O   0  0  0  0  0  0  0  0  0  0  0  0
  147.2200  142.3464  155.9843 N   0  3  0  0  0  0  0  0  0  0  0  0
  145.8929  142.8112  155.5262 C   0  0  0  0  0  0  0  0  0  0  0  0
  145.3093  143.5661  156.7146 C   0  0  0  0  0  0  0  0  0  0  0  0
  145.7902  142.7505  157.9093 C   0  0  0  0  0  0  0  0  0  0  0  0
  147.1083  142.1138  157.4469 C   0  0  0  0  0  0  0  0  0  0  0  0
  148.7931  140.8778  153.2821 H   0  0  0  0  0  0  0  0  0  0  0  0
  148.9725  142.5253  153.8746 H   0  0  0  0  0  0  0  0  0  0  0  0
  147.4455  141.9887  153.1829 H   0  0  0  0  0  0  0  0  0  0  0  0
  147.0363  140.4742  155.0512 H   0  0  0  0  0  0  0  0  0  0  0  0
  148.5788  140.0161  156.8506 H   0  0  0  0  0  0  0  0  0  0  0  0
  149.4272  139.7535  155.3645 H   0  0  0  0  0  0  0  0  0  0  0  0
  150.2258  142.2390  155.8459 H   0  0  0  0  0  0  0  0  0  0  0  0
  152.3642  142.5045  157.1437 H   0  0  0  0  0  0  0  0  0  0  0  0
  151.1354  143.5003  157.8525 H   0  0  0  0  0  0  0  0  0  0  0  0
  151.3045  144.1723  159.8775 H   0  0  0  0  0  0  0  0  0  0  0  0
  152.2828  144.1483  162.1589 H   0  0  0  0  0  0  0  0  0  0  0  0
  153.8480  142.2477  162.7630 H   0  0  0  0  0  0  0  0  0  0  0  0
  154.3586  140.5316  161.1435 H   0  0  0  0  0  0  0  0  0  0  0  0
  145.9644  143.4397  154.6380 H   0  0  0  0  0  0  0  0  0  0  0  0
  145.2619  141.9527  155.2893 H   0  0  0  0  0  0  0  0  0  0  0  0
  145.7300  144.5719  156.7576 H   0  0  0  0  0  0  0  0  0  0  0  0
  144.2234  143.6558  156.6697 H   0  0  0  0  0  0  0  0  0  0  0  0
  145.9099  143.3585  158.8066 H   0  0  0  0  0  0  0  0  0  0  0  0
  145.0644  141.9678  158.1348 H   0  0  0  0  0  0  0  0  0  0  0  0
  147.1054  141.0497  157.6872 H   0  0  0  0  0  0  0  0  0  0  0  0
  147.9653  142.5645  157.9486 H   0  0  0  0  0  0  0  0  0  0  0  0
  147.8382  143.1377  155.8748 H   0  0  0  0  0  0  0  0  0  0  0  0
  1  2  1  0  0  0  0
  1 20  1  0  0  0  0
  1 21  1  0  0  0  0
  1 22  1  0  0  0  0
  2  3  1  0  0  0  0
  2 15  1  0  0  0  0
  2 23  1  0  0  0  0
  3  4  1  0  0  0  0
  3 24  1  0  0  0  0
  3 25  1  0  0  0  0
  4  5  1  0  0  0  0
  4 26  1  0  0  0  0
  5  6  2  0  0  0  0
  5  7  1  0  0  0  0
  7  8  1  0  0  0  0
  7 27  1  0  0  0  0
  7 28  1  0  0  0  0
  8 13  1  0  0  0  0
  8  9  1  0  0  0  0
  9 10  2  0  0  0  0
  9 29  1  0  0  0  0
 10 11  1  0  0  0  0
 10 30  1  0  0  0  0
 11 12  2  0  0  0  0
 11 31  1  0  0  0  0
 12 13  1  0  0  0  0
 12 32  1  0  0  0  0
 13 14  2  0  0  0  0
 15 19  1  0  0  0  0
 15 16  1  0  0  0  0
 15 41  1  0  0  0  0
 16 17  1  0  0  0  0
 16 33  1  0  0  0  0
 16 34  1  0  0  0  0
 17 18  1  0  0  0  0
 17 35  1  0  0  0  0
 17 36  1  0  0  0  0
 18 19  1  0  0  0  0
 18 37  1  0  0  0  0
 18 38  1  0  0  0  0
 19 39  1  0  0  0  0
 19 40  1  0  0  0  0
M  CHG  1  15   1
M  END
> <s_m_source_file>
AV-unprocessed.smi

> <i_m_source_file_index>
1469

> <i_lp_mmshare_version>
43012

> <i_f3d_flags>
0

> <s_epik_input>
W0NIMl0xW0NIMl1bQ0gyXVtDSDJdTjFbQ0BIXShbQ0gzXSlbQ0gyXVtOSF1DKD1PKVtDSDJdbjJbY0hdW2NIXVtjSF1bY0hdYzI9Tw==

> <s_epik_cmdline>
J2VwaWtfcHl0aG9uJywgJy1waCcsICc3LjAnLCAnLXRuJywgJzgnLCAnLW1hJywgJzIwMCcsICctbWV0YWxfYmluZGluZycsICctaW1hZScsICc8aW5maWxlLm1hZT4nLCAnLW9tYWUnLCAnPG91dGZpbGUubWFlPic=

> <r_lp_tautomer_probability>
1

> <r_epik_Ionization_Penalty>
0.00497231

> <r_epik_Ionization_Penalty_Charging>
0.00497223

> <r_epik_Ionization_Penalty_Neutral>
8.2288e-08

> <r_epik_State_Penalty>
0.0036131

> <r_epik_Charging_Adjusted_Penalty>
0.00858533

> <i_epik_Tot_Q>
1

> <i_epik_Tot_abs_Q>
1

> <r_epik_Metal_State_Penalty>
-0

> <b_epik_Metal_Only>
0

> <s_lp_Force_Field>
OPLS_2005

> <r_lp_Energy>
47.1466

> <b_lp_Chiralities_Consistent>
1

> <s_lp_Variant>
AV-unprocessed.smi:1469-2

> <Gold.Version>
5.8.1

> <Gold.Id.Protein>
6NUR|6NUR_protein|mol2

> <Gold.PLP.Fitness>
43.1499

> <Gold.PLP.PLP>
-36.1830

> <Gold.PLP.part.hbond>
-2.0000

> <Gold.PLP.part.metal>
0.0000

> <Gold.PLP.part.buried>
-2.1172

> <Gold.PLP.part.nonpolar>
-30.8536

> <Gold.PLP.part.repulsive>
0.0856

> <Gold.PLP.ligand.clash>
0.0000

> <Gold.PLP.ligand.torsion>
0.5289

> <Gold.PLP.Chemscore.Hbond>
2.6497

> <Gold.PLP.Chemscore.CHOScore>
0.0000

> <Gold.PLP.Chemscore.Metal>
0.0000

> <Gold.Chemscore.Hbonds>
donor molecule, donor type, donor heavy atom, donor atom, acceptor molecule, acceptor atom, score
      L1  H    15    41       P1  8028  2.00
      P1  H  7997  8009       L1    14  0.68

> <Gold.PLP.Chemscore.Internal.Correction>
0.0753

> <Gold.Rescore>
     Score         DG    S(hbond)    S(metal)    S(lipo)     H(rot)  DE(clash)    DE(int)     intcor
     14.36     -16.19       1.82        0.00      80.98       1.89       1.45       0.39       ----

> <Gold.Chemscore.Fitness>
14.3574

> <Gold.Chemscore.DG>
-16.1939

> <Gold.Chemscore.ZeroCoef>
-5.4800

> <Gold.Chemscore.Hbond>
1.8182

> <Gold.Chemscore.Metal>
0.0000

> <Gold.Chemscore.Lipo>
80.9840

> <Gold.Chemscore.Internal_Hbond>
0.0000

> <Gold.Chemscore.DEClash>
1.4474

> <Gold.Chemscore.DEInternal>
0.3891

> <Gold.Chemscore.Rot>
1.8882

> <Gold.Chemscore.Internal.Correction>
   9.000000E+99

> <Gold.Chemscore.Hbonds>
donor molecule, donor type, donor heavy atom, donor atom, acceptor molecule, acceptor atom, score
      L1  H    15    41       P1  8028  0.40
      P1  H  7997  8009       L1    14  0.65

> <Gold.Chemscore.Hbond.Weighted>
-6.0726

> <Gold.Chemscore.Metal.Weighted>
-0.0000

> <Gold.Chemscore.Lipo.Weighted>
-9.4751

> <Gold.Chemscore.Internal_Hbond.Weighted>
0.0000

> <Gold.Chemscore.DEClash.Weighted>
1.4474

> <Gold.Chemscore.DEInternal.Weighted>
0.3891

> <Gold.Chemscore.Rot.Weighted>
4.8338

> <Gold.Chemscore.Internal.Correction.Weighted>
   9.000000E+99

> <Gold.Protein.RotatedTorsions>
[ 6907 6896 6895 6894 ] final    8.46 input  -60.11 | X-H torsion
[ 7974 7965 7964 7962 ] final -100.05 input  175.53 | X-H torsion
[ 8008 7997 7996 7995 ] final  146.74 input   59.86 | X-H torsion
[ 10167 10162 10161 10158 ] final   87.98 input  -65.29 | X-H torsion
[ 10718 10713 10712 10709 ] final  112.09 input   66.30 | X-H torsion
[ 10763 10752 10751 10750 ] final -131.16 input  -60.55 | X-H torsion
[ 11005 11000 10999 10996 ] final   85.51 input  -57.11 | X-H torsion

> <Gold.Protein.ActiveResidues>
 VAL166  LYS551  ARG553  GLY616  TRP617  ASP618  TYR619  PRO620  LYS621  CYS622 
 ASP623  PHE694  ASN695  SER759  ASP760  ASP761  ALA762  ILE779  LEU786  VAL792 
 PHE793  MET794  SER795  GLU796  ALA797  LYS798  CYS799  TRP800  GLU811  SER814 

> <Gold.Protein.RotatedAtoms>
  151.7065  135.0920  160.0259 H   0  0  0  0  0  0  0  0  0  0  0  0  # atno 6907 bound_to 6896
  152.3688  133.6388  159.6080 H   0  0  0  0  0  0  0  0  0  0  0  0  # atno 6908 bound_to 6896
  150.7658  133.9220  159.3442 H   0  0  0  0  0  0  0  0  0  0  0  0  # atno 6909 bound_to 6896
  145.2996  140.9374  143.2831 H   0  0  0  0  0  0  0  0  0  0  0  0  # atno 7974 bound_to 7965
  156.2846  140.2174  156.5425 H   0  0  0  0  0  0  0  0  0  0  0  0  # atno 8008 bound_to 7997
  154.7357  140.0492  157.0789 H   0  0  0  0  0  0  0  0  0  0  0  0  # atno 8009 bound_to 7997
  155.0295  140.3133  155.4767 H   0  0  0  0  0  0  0  0  0  0  0  0  # atno 8010 bound_to 7997
  139.8719  144.6488  150.8940 H   0  0  0  0  0  0  0  0  0  0  0  0  # atno 10167 bound_to 10162
  157.6411  131.0962  150.6844 H   0  0  0  0  0  0  0  0  0  0  0  0  # atno 10718 bound_to 10713
  154.8752  135.3839  154.4200 H   0  0  0  0  0  0  0  0  0  0  0  0  # atno 10763 bound_to 10752
  153.4905  135.7030  153.5892 H   0  0  0  0  0  0  0  0  0  0  0  0  # atno 10764 bound_to 10752
  153.4268  135.3888  155.2112 H   0  0  0  0  0  0  0  0  0  0  0  0  # atno 10765 bound_to 10752
  139.8969  134.8292  156.2593 H   0  0  0  0  0  0  0  0  0  0  0  0  # atno 11005 bound_to 11000
  144.9104  139.4536  143.6589 LP  0  0  0  0  0  0  0  0  0  0  0  0  # atno 17320 bound_to 7965
  146.3156  139.7909  142.8986 LP  0  0  0  0  0  0  0  0  0  0  0  0  # atno 17321 bound_to 7965
  140.7759  143.3657  151.1744 LP  0  0  0  0  0  0  0  0  0  0  0  0  # atno 17342 bound_to 10162
  139.7276  143.9123  152.3008 LP  0  0  0  0  0  0  0  0  0  0  0  0  # atno 17343 bound_to 10162
  156.7168  130.4668  149.5533 LP  0  0  0  0  0  0  0  0  0  0  0  0  # atno 17370 bound_to 10713
  156.1693  130.6426  151.0817 LP  0  0  0  0  0  0  0  0  0  0  0  0  # atno 17371 bound_to 10713
  141.0173  133.7061  156.1210 LP  0  0  0  0  0  0  0  0  0  0  0  0  # atno 17394 bound_to 11000
  140.7283  134.4282  157.5568 LP  0  0  0  0  0  0  0  0  0  0  0  0  # atno 17395 bound_to 11000

$$$$
