AV-unprocessed.smi:2805|AV-procd|sdf|10814|dock1
  -GOLD-   2272015253D 1   1.00000     0.00000
 Structure written by MMmdl.
 43 44  0  0  0  0  0  0  0  0  1 V2000
  153.5804  140.8644  160.2641 C   0  0  0  0  0  0  0  0  0  0  0  0
  152.8063  142.0673  159.7678 C   0  0  0  0  0  0  0  0  0  0  0  0
  152.9045  143.3083  160.4253 C   0  0  0  0  0  0  0  0  0  0  0  0
  152.1627  144.3916  159.9147 C   0  0  0  0  0  0  0  0  0  0  0  0
  152.2216  145.7550  160.5712 C   0  0  0  0  0  0  0  0  0  0  0  0
  151.3675  144.2929  158.8279 N   0  0  0  0  0  0  0  0  0  0  0  0
  151.2658  143.1025  158.1864 C   0  0  0  0  0  0  0  0  0  0  0  0
  150.4582  142.8929  157.0376 N   0  0  0  0  0  0  0  0  0  0  0  0
  149.9715  141.7326  156.5641 C   0  0  0  0  0  0  0  0  0  0  0  0
  150.1614  140.6224  157.0618 O   0  0  0  0  0  0  0  0  0  0  0  0
  149.2337  141.9333  155.4626 N   0  0  0  0  0  0  0  0  0  0  0  0
  148.5386  140.8945  154.7042 C   0  0  1  0  0  0  0  0  0  0  0  0
  147.6848  139.9984  155.6257 C   0  0  0  0  0  0  0  0  0  0  0  0
  146.4748  140.7495  156.2083 C   0  0  0  0  0  0  0  0  0  0  0  0
  145.5968  141.3686  155.0998 C   0  0  1  0  0  0  0  0  0  0  0  0
  144.3966  142.1411  155.6774 C   0  0  0  0  0  0  0  0  0  0  0  0
  143.2177  141.8494  154.9572 O   0  0  0  0  0  0  0  0  0  0  0  0
  146.4506  142.2788  154.1943 C   0  0  0  0  0  0  0  0  0  0  0  0
  147.6638  141.5333  153.6093 C   0  0  0  0  0  0  0  0  0  0  0  0
  151.9765  141.9660  158.6330 C   0  0  0  0  0  0  0  0  0  0  0  0
  149.2910  140.2746  154.2131 H   0  0  0  0  0  0  0  0  0  0  0  0
  145.2089  140.5586  154.4799 H   0  0  0  0  0  0  0  0  0  0  0  0
  153.8535  140.9799  161.3134 H   0  0  0  0  0  0  0  0  0  0  0  0
  154.4939  140.7399  159.6826 H   0  0  0  0  0  0  0  0  0  0  0  0
  152.9841  139.9568  160.1675 H   0  0  0  0  0  0  0  0  0  0  0  0
  153.5319  143.4268  161.2969 H   0  0  0  0  0  0  0  0  0  0  0  0
  152.7700  145.7171  161.5128 H   0  0  0  0  0  0  0  0  0  0  0  0
  151.2158  146.1216  160.7791 H   0  0  0  0  0  0  0  0  0  0  0  0
  152.7192  146.4689  159.9144 H   0  0  0  0  0  0  0  0  0  0  0  0
  150.2177  143.7247  156.5194 H   0  0  0  0  0  0  0  0  0  0  0  0
  149.1357  142.8794  155.1247 H   0  0  0  0  0  0  0  0  0  0  0  0
  147.3275  139.1401  155.0556 H   0  0  0  0  0  0  0  0  0  0  0  0
  148.2929  139.5884  156.4328 H   0  0  0  0  0  0  0  0  0  0  0  0
  145.8857  140.0596  156.8131 H   0  0  0  0  0  0  0  0  0  0  0  0
  146.8200  141.5308  156.8867 H   0  0  0  0  0  0  0  0  0  0  0  0
  144.2468  141.8975  156.7297 H   0  0  0  0  0  0  0  0  0  0  0  0
  144.5717  143.2159  155.6181 H   0  0  0  0  0  0  0  0  0  0  0  0
  143.4485  141.3402  154.1953 H   0  0  0  0  0  0  0  0  0  0  0  0
  145.8402  142.6677  153.3787 H   0  0  0  0  0  0  0  0  0  0  0  0
  146.7914  143.1466  154.7603 H   0  0  0  0  0  0  0  0  0  0  0  0
  148.2602  142.2117  152.9980 H   0  0  0  0  0  0  0  0  0  0  0  0
  147.3095  140.7525  152.9352 H   0  0  0  0  0  0  0  0  0  0  0  0
  151.8877  141.0237  158.1116 H   0  0  0  0  0  0  0  0  0  0  0  0
  1  2  1  0  0  0  0
  1 23  1  0  0  0  0
  1 24  1  0  0  0  0
  1 25  1  0  0  0  0
  2 20  1  0  0  0  0
  2  3  2  0  0  0  0
  3  4  1  0  0  0  0
  3 26  1  0  0  0  0
  4  5  1  0  0  0  0
  4  6  2  0  0  0  0
  5 27  1  0  0  0  0
  5 28  1  0  0  0  0
  5 29  1  0  0  0  0
  6  7  1  0  0  0  0
  7  8  1  0  0  0  0
  7 20  2  0  0  0  0
  8  9  1  0  0  0  0
  8 30  1  0  0  0  0
  9 10  2  0  0  0  0
  9 11  1  0  0  0  0
 11 12  1  0  0  0  0
 11 31  1  0  0  0  0
 12 21  1  0  0  0  0
 12 19  1  0  0  0  0
 12 13  1  0  0  0  0
 13 14  1  0  0  0  0
 13 32  1  0  0  0  0
 13 33  1  0  0  0  0
 14 15  1  0  0  0  0
 14 34  1  0  0  0  0
 14 35  1  0  0  0  0
 15 22  1  0  0  0  0
 15 16  1  0  0  0  0
 15 18  1  0  0  0  0
 16 17  1  0  0  0  0
 16 36  1  0  0  0  0
 16 37  1  0  0  0  0
 17 38  1  0  0  0  0
 18 19  1  0  0  0  0
 18 39  1  0  0  0  0
 18 40  1  0  0  0  0
 19 41  1  0  0  0  0
 19 42  1  0  0  0  0
 20 43  1  0  0  0  0
M  END
> <s_m_source_file>
AV-unprocessed.smi

> <i_m_source_file_index>
2805

> <i_lp_mmshare_version>
43012

> <i_f3d_flags>
0

> <s_epik_input>
W0NIM11jMVtjSF1jKFtDSDNdKW5jKFtjSF0xKVtOSF1DKD1PKVtOSF1bQ0BIXTJbQ0gyXVtDSDJdW0NASF0oW0NIMl1bT0hdKVtDSDJdW0NIMl0y

> <s_epik_cmdline>
J2VwaWtfcHl0aG9uJywgJy1waCcsICc3LjAnLCAnLXRuJywgJzgnLCAnLW1hJywgJzIwMCcsICctbWV0YWxfYmluZGluZycsICctaW1hZScsICc8aW5maWxlLm1hZT4nLCAnLW9tYWUnLCAnPG91dGZpbGUubWFlPic=

> <r_lp_tautomer_probability>
1

> <r_epik_Ionization_Penalty>
0.000279533

> <r_epik_Ionization_Penalty_Charging>
0

> <r_epik_Ionization_Penalty_Neutral>
0.000279533

> <r_epik_State_Penalty>
-0

> <r_epik_Charging_Adjusted_Penalty>
0

> <i_epik_Tot_Q>
0

> <i_epik_Tot_abs_Q>
0

> <r_epik_Metal_State_Penalty>
-0

> <b_epik_Metal_Only>
0

> <s_lp_Force_Field>
OPLS_2005

> <r_lp_Energy>
9.89075

> <b_lp_Chiralities_Consistent>
1

> <s_lp_Variant>
AV-unprocessed.smi:2805-2

> <Gold.Version>
5.8.1

> <Gold.Id.Protein>
6NUR|6NUR_protein|mol2

> <Gold.PLP.Fitness>
45.0565

> <Gold.PLP.PLP>
-37.7955

> <Gold.PLP.part.hbond>
-4.0000

> <Gold.PLP.part.metal>
0.0000

> <Gold.PLP.part.buried>
-6.3990

> <Gold.PLP.part.nonpolar>
-29.0884

> <Gold.PLP.part.repulsive>
0.2843

> <Gold.PLP.ligand.clash>
0.0000

> <Gold.PLP.ligand.torsion>
0.7659

> <Gold.PLP.Chemscore.Hbond>
2.9280

> <Gold.PLP.Chemscore.CHOScore>
0.0000

> <Gold.PLP.Chemscore.Metal>
0.0000

> <Gold.Chemscore.Hbonds>
donor molecule, donor type, donor heavy atom, donor atom, acceptor molecule, acceptor atom, score
      L1  H     8    30       P1  8028  0.98
      L1  H    11    31       P1  8028  0.91
      L1  H    17    38       P1 10175  0.95

> <Gold.PLP.Chemscore.Internal.Correction>
0.0088

> <Gold.Rescore>
     Score         DG    S(hbond)    S(metal)    S(lipo)     H(rot)  DE(clash)    DE(int)     intcor
     17.99     -21.48       2.78        0.00      95.80       1.75       0.08       3.41       ----

> <Gold.Chemscore.Fitness>
17.9869

> <Gold.Chemscore.DG>
-21.4758

> <Gold.Chemscore.ZeroCoef>
-5.4800

> <Gold.Chemscore.Hbond>
2.7782

> <Gold.Chemscore.Metal>
0.0000

> <Gold.Chemscore.Lipo>
95.8039

> <Gold.Chemscore.Internal_Hbond>
0.0000

> <Gold.Chemscore.DEClash>
0.0826

> <Gold.Chemscore.DEInternal>
3.4063

> <Gold.Chemscore.Rot>
1.7548

> <Gold.Chemscore.Internal.Correction>
   9.000000E+99

> <Gold.Chemscore.Hbonds>
donor molecule, donor type, donor heavy atom, donor atom, acceptor molecule, acceptor atom, score
      L1  H     8    30       P1  8028  0.93
      L1  H    11    31       P1  8028  0.88
      L1  H    17    38       P1 10175  0.22

> <Gold.Chemscore.Hbond.Weighted>
-9.2791

> <Gold.Chemscore.Metal.Weighted>
-0.0000

> <Gold.Chemscore.Lipo.Weighted>
-11.2091

> <Gold.Chemscore.Internal_Hbond.Weighted>
0.0000

> <Gold.Chemscore.DEClash.Weighted>
0.0826

> <Gold.Chemscore.DEInternal.Weighted>
3.4063

> <Gold.Chemscore.Rot.Weighted>
4.4924

> <Gold.Chemscore.Internal.Correction.Weighted>
   9.000000E+99

> <Gold.Protein.RotatedTorsions>
[ 6907 6896 6895 6894 ] final  -47.25 input  -60.11 | X-H torsion
[ 7974 7965 7964 7962 ] final  -21.55 input  175.53 | X-H torsion
[ 8008 7997 7996 7995 ] final  -10.74 input   59.86 | X-H torsion
[ 10167 10162 10161 10158 ] final  -29.68 input  -65.29 | X-H torsion
[ 10718 10713 10712 10709 ] final   75.26 input   66.30 | X-H torsion
[ 10763 10752 10751 10750 ] final    0.69 input  -60.55 | X-H torsion
[ 11005 11000 10999 10996 ] final  121.71 input  -57.11 | X-H torsion

> <Gold.Protein.ActiveResidues>
 VAL166  LYS551  ARG553  GLY616  TRP617  ASP618  TYR619  PRO620  LYS621  CYS622 
 ASP623  PHE694  ASN695  SER759  ASP760  ASP761  ALA762  ILE779  LEU786  VAL792 
 PHE793  MET794  SER795  GLU796  ALA797  LYS798  CYS799  TRP800  GLU811  SER814 

> <Gold.Protein.RotatedAtoms>
  150.9028  134.8441  159.7371 H   0  0  0  0  0  0  0  0  0  0  0  0  # atno 6907 bound_to 6896
  152.4902  134.4477  159.9574 H   0  0  0  0  0  0  0  0  0  0  0  0  # atno 6908 bound_to 6896
  151.4527  133.3574  159.2833 H   0  0  0  0  0  0  0  0  0  0  0  0  # atno 6909 bound_to 6896
  146.1726  140.4357  142.8526 H   0  0  0  0  0  0  0  0  0  0  0  0  # atno 7974 bound_to 7965
  154.5527  140.2321  155.8459 H   0  0  0  0  0  0  0  0  0  0  0  0  # atno 8008 bound_to 7997
  156.1961  140.3065  155.9390 H   0  0  0  0  0  0  0  0  0  0  0  0  # atno 8009 bound_to 7997
  155.3040  140.0432  157.3022 H   0  0  0  0  0  0  0  0  0  0  0  0  # atno 8010 bound_to 7997
  140.7258  143.3909  151.1432 H   0  0  0  0  0  0  0  0  0  0  0  0  # atno 10167 bound_to 10162
  157.6627  130.9718  150.1328 H   0  0  0  0  0  0  0  0  0  0  0  0  # atno 10718 bound_to 10713
  153.3175  135.6967  153.7060 H   0  0  0  0  0  0  0  0  0  0  0  0  # atno 10763 bound_to 10752
  153.5913  135.3479  155.2912 H   0  0  0  0  0  0  0  0  0  0  0  0  # atno 10764 bound_to 10752
  154.8590  135.4318  154.2330 H   0  0  0  0  0  0  0  0  0  0  0  0  # atno 10765 bound_to 10752
  139.9237  134.9639  156.8000 H   0  0  0  0  0  0  0  0  0  0  0  0  # atno 11005 bound_to 11000
  144.8187  140.6512  143.6367 LP  0  0  0  0  0  0  0  0  0  0  0  0  # atno 17320 bound_to 7965
  145.4298  139.1551  143.4028 LP  0  0  0  0  0  0  0  0  0  0  0  0  # atno 17321 bound_to 7965
  139.7514  143.8773  152.3077 LP  0  0  0  0  0  0  0  0  0  0  0  0  # atno 17342 bound_to 10162
  139.8628  144.7108  150.9079 LP  0  0  0  0  0  0  0  0  0  0  0  0  # atno 17343 bound_to 10162
  156.2170  130.3671  149.8601 LP  0  0  0  0  0  0  0  0  0  0  0  0  # atno 17370 bound_to 10713
  156.6464  130.8726  151.3523 LP  0  0  0  0  0  0  0  0  0  0  0  0  # atno 17371 bound_to 10713
  140.6397  133.9829  155.7702 LP  0  0  0  0  0  0  0  0  0  0  0  0  # atno 17394 bound_to 11000
  141.0779  134.0107  157.3430 LP  0  0  0  0  0  0  0  0  0  0  0  0  # atno 17395 bound_to 11000

$$$$
