AV-unprocessed.smi:157|AV-procd|sdf|1295|dock9
  -GOLD-   2262018583D 1   1.00000     0.00000
 Structure written by MMmdl.
 35 37  0  0  0  0  0  0  0  0  1 V2000
  156.5700  138.4059  157.8821 O   0  0  0  0  0  0  0  0  0  0  0  0
  155.3953  137.6393  158.0430 C   0  0  0  0  0  0  0  0  0  0  0  0
  154.5306  138.2255  159.1694 C   0  0  1  0  0  0  0  0  0  0  0  0
  154.2612  139.5932  158.8935 O   0  0  0  0  0  0  0  0  0  0  0  0
  153.1106  139.9345  159.5851 C   0  0  1  0  0  0  0  0  0  0  0  0
  152.5316  141.1743  158.9765 N   0  0  0  0  0  0  0  0  0  0  0  0
  151.9988  141.2537  157.7514 C   0  0  0  0  0  0  0  0  0  0  0  0
  151.5468  142.4520  157.4239 N   0  0  0  0  0  0  0  0  0  0  0  0
  151.8010  143.2273  158.5538 C   0  0  0  0  0  0  0  0  0  0  0  0
  152.4054  142.4533  159.5345 C   0  0  0  0  0  0  0  0  0  0  0  0
  152.8754  142.6659  160.8173 N   0  0  0  0  0  0  0  0  0  0  0  0
  152.4642  143.7164  161.4543 C   0  0  0  0  0  0  0  0  0  0  0  0
  151.6704  144.7703  161.0261 N   0  0  0  0  0  0  0  0  0  0  0  0
  151.8890  145.4778  159.7762 C   0  0  0  0  0  0  0  0  0  0  0  0
  151.4449  144.6861  158.5406 C   0  0  2  0  0  0  0  0  0  0  0  0
  150.0399  144.7683  158.4154 O   0  0  0  0  0  0  0  0  0  0  0  0
  152.1665  138.7421  159.4540 C   0  0  0  0  0  0  0  0  0  0  0  0
  153.1344  137.5776  159.2715 C   0  0  2  0  0  0  0  0  0  0  0  0
  153.0667  136.6995  160.3771 O   0  0  0  0  0  0  0  0  0  0  0  0
  155.0433  138.1601  160.1318 H   0  0  0  0  0  0  0  0  0  0  0  0
  153.3473  140.1859  160.6205 H   0  0  0  0  0  0  0  0  0  0  0  0
  151.8688  145.1619  157.6556 H   0  0  0  0  0  0  0  0  0  0  0  0
  152.8799  137.0307  158.3626 H   0  0  0  0  0  0  0  0  0  0  0  0
  157.3123  137.8719  158.1200 H   0  0  0  0  0  0  0  0  0  0  0  0
  154.8413  137.5885  157.1049 H   0  0  0  0  0  0  0  0  0  0  0  0
  155.7017  136.6238  158.2955 H   0  0  0  0  0  0  0  0  0  0  0  0
  151.9467  140.4106  157.0782 H   0  0  0  0  0  0  0  0  0  0  0  0
  152.7690  143.8431  162.4941 H   0  0  0  0  0  0  0  0  0  0  0  0
  151.2556  145.3737  161.7214 H   0  0  0  0  0  0  0  0  0  0  0  0
  151.3985  146.4511  159.8102 H   0  0  0  0  0  0  0  0  0  0  0  0
  152.9588  145.6784  159.6995 H   0  0  0  0  0  0  0  0  0  0  0  0
  149.8171  144.6526  157.5041 H   0  0  0  0  0  0  0  0  0  0  0  0
  151.5238  138.6669  160.3321 H   0  0  0  0  0  0  0  0  0  0  0  0
  151.5359  138.8492  158.5712 H   0  0  0  0  0  0  0  0  0  0  0  0
  153.7983  136.8785  160.9479 H   0  0  0  0  0  0  0  0  0  0  0  0
  1  2  1  0  0  0  0
  1 24  1  0  0  0  0
  2  3  1  0  0  0  0
  2 25  1  0  0  0  0
  2 26  1  0  0  0  0
  3 20  1  0  0  0  0
  3 18  1  0  0  0  0
  3  4  1  0  0  0  0
  4  5  1  0  0  0  0
  5 21  1  0  0  0  0
  5  6  1  0  0  0  0
  5 17  1  0  0  0  0
  6 10  1  0  0  0  0
  6  7  1  0  0  0  0
  7  8  2  0  0  0  0
  7 27  1  0  0  0  0
  8  9  1  0  0  0  0
  9 15  1  0  0  0  0
  9 10  2  0  0  0  0
 10 11  1  0  0  0  0
 11 12  2  0  0  0  0
 12 13  1  0  0  0  0
 12 28  1  0  0  0  0
 13 14  1  0  0  0  0
 13 29  1  0  0  0  0
 14 15  1  0  0  0  0
 14 30  1  0  0  0  0
 14 31  1  0  0  0  0
 15 22  1  0  0  0  0
 15 16  1  0  0  0  0
 16 32  1  0  0  0  0
 17 18  1  0  0  0  0
 17 33  1  0  0  0  0
 17 34  1  0  0  0  0
 18 23  1  0  0  0  0
 18 19  1  0  0  0  0
 19 35  1  0  0  0  0
M  END
> <s_m_source_file>
AV-unprocessed.smi

> <i_m_source_file_index>
157

> <i_lp_mmshare_version>
43012

> <i_f3d_flags>
0

> <s_epik_input>
W09IXVtDSDJdW0NASF0xT1tDQEhdKFtDSDJdW0NAQEhdMVtPSF0pbihbY0hdbjIpYyhjMjMpTj1bQ0hdW05IXVtDSDJdW0NASF0zW09IXQ==

> <s_epik_cmdline>
J2VwaWtfcHl0aG9uJywgJy1waCcsICc3LjAnLCAnLXRuJywgJzgnLCAnLW1hJywgJzIwMCcsICctbWV0YWxfYmluZGluZycsICctaW1hZScsICc8aW5maWxlLm1hZT4nLCAnLW9tYWUnLCAnPG91dGZpbGUubWFlPic=

> <r_lp_tautomer_probability>
1

> <r_epik_Ionization_Penalty>
0.0357149

> <r_epik_Ionization_Penalty_Charging>
0.0355056

> <r_epik_Ionization_Penalty_Neutral>
0.000209255

> <r_epik_State_Penalty>
0.0296046

> <r_epik_Charging_Adjusted_Penalty>
0.0651102

> <i_epik_Tot_Q>
0

> <i_epik_Tot_abs_Q>
0

> <r_epik_Metal_State_Penalty>
3.03559e-05

> <b_epik_Metal_Only>
0

> <s_epik_Chemistry_Notes>
This compound has an imine and may undergo hydrolysis. This compound contains an acetal/aminal-like group ( X-CH(R)-Y where X, Y are N, S, or O) that may be acid/base labile, releasing an aldehyde.

> <s_lp_Force_Field>
OPLS_2005

> <r_lp_Energy>
44.773

> <b_lp_Chiralities_Consistent>
1

> <s_lp_Variant>
AV-unprocessed.smi:157-5

> <Gold.Version>
5.8.1

> <Gold.Id.Protein>
6NUR|6NUR_protein|mol2

> <Gold.PLP.Fitness>
42.8708

> <Gold.PLP.PLP>
-34.5860

> <Gold.PLP.part.hbond>
-5.5864

> <Gold.PLP.part.metal>
0.0000

> <Gold.PLP.part.buried>
-4.7516

> <Gold.PLP.part.nonpolar>
-23.4629

> <Gold.PLP.part.repulsive>
0.1565

> <Gold.PLP.ligand.clash>
0.0000

> <Gold.PLP.ligand.torsion>
0.1596

> <Gold.PLP.Chemscore.Hbond>
2.8629

> <Gold.PLP.Chemscore.CHOScore>
0.0000

> <Gold.PLP.Chemscore.Metal>
0.0000

> <Gold.Chemscore.Hbonds>
donor molecule, donor type, donor heavy atom, donor atom, acceptor molecule, acceptor atom, score
      L1  H    16    32       P1  8028  0.70
      P1  H  6896  6908       L1    19  1.00
      P1  H  7997  8008       L1     4  1.00

> <Gold.PLP.Chemscore.Internal.Correction>
0.0153

> <Gold.Rescore>
     Score         DG    S(hbond)    S(metal)    S(lipo)     H(rot)  DE(clash)    DE(int)     intcor
      9.32      -9.54       2.17        0.00      52.35       3.64       0.03       0.20       ----

> <Gold.Chemscore.Fitness>
9.3175

> <Gold.Chemscore.DG>
-9.5445

> <Gold.Chemscore.ZeroCoef>
-5.4800

> <Gold.Chemscore.Hbond>
2.1703

> <Gold.Chemscore.Metal>
0.0000

> <Gold.Chemscore.Lipo>
52.3466

> <Gold.Chemscore.Internal_Hbond>
0.0000

> <Gold.Chemscore.DEClash>
0.0308

> <Gold.Chemscore.DEInternal>
0.1962

> <Gold.Chemscore.Rot>
3.6362

> <Gold.Chemscore.Internal.Correction>
   9.000000E+99

> <Gold.Chemscore.Hbonds>
donor molecule, donor type, donor heavy atom, donor atom, acceptor molecule, acceptor atom, score
      L1  H    16    32       P1  8028  0.07
      P1  H  6896  6908       L1    19  0.91
      P1  H  7997  8008       L1     4  0.70

> <Gold.Chemscore.Hbond.Weighted>
-7.2487

> <Gold.Chemscore.Metal.Weighted>
-0.0000

> <Gold.Chemscore.Lipo.Weighted>
-6.1246

> <Gold.Chemscore.Internal_Hbond.Weighted>
0.0000

> <Gold.Chemscore.DEClash.Weighted>
0.0308

> <Gold.Chemscore.DEInternal.Weighted>
0.1962

> <Gold.Chemscore.Rot.Weighted>
9.3087

> <Gold.Chemscore.Internal.Correction.Weighted>
   9.000000E+99

> <Gold.Protein.RotatedTorsions>
[ 6907 6896 6895 6894 ] final  -83.89 input  -60.11 | X-H torsion
[ 7974 7965 7964 7962 ] final  -22.86 input  175.53 | X-H torsion
[ 8008 7997 7996 7995 ] final -111.33 input   59.86 | X-H torsion
[ 10167 10162 10161 10158 ] final -168.32 input  -65.29 | X-H torsion
[ 10718 10713 10712 10709 ] final   43.83 input   66.30 | X-H torsion
[ 10763 10752 10751 10750 ] final   37.02 input  -60.55 | X-H torsion
[ 11005 11000 10999 10996 ] final  121.14 input  -57.11 | X-H torsion

> <Gold.Protein.ActiveResidues>
 VAL166  LYS551  ARG553  GLY616  TRP617  ASP618  TYR619  PRO620  LYS621  CYS622 
 ASP623  PHE694  ASN695  SER759  ASP760  ASP761  ALA762  ILE779  LEU786  VAL792 
 PHE793  MET794  SER795  GLU796  ALA797  LYS798  CYS799  TRP800  GLU811  SER814 

> <Gold.Protein.RotatedAtoms>
  150.6881  134.3443  159.4881 H   0  0  0  0  0  0  0  0  0  0  0  0  # atno 6907 bound_to 6896
  152.1292  134.9145  160.0569 H   0  0  0  0  0  0  0  0  0  0  0  0  # atno 6908 bound_to 6896
  152.0321  133.3907  159.4338 H   0  0  0  0  0  0  0  0  0  0  0  0  # atno 6909 bound_to 6896
  146.1650  140.4537  142.8555 H   0  0  0  0  0  0  0  0  0  0  0  0  # atno 7974 bound_to 7965
  154.9881  140.0395  157.2307 H   0  0  0  0  0  0  0  0  0  0  0  0  # atno 8008 bound_to 7997
  154.7653  140.2792  155.6159 H   0  0  0  0  0  0  0  0  0  0  0  0  # atno 8009 bound_to 7997
  156.2911  140.2620  156.2442 H   0  0  0  0  0  0  0  0  0  0  0  0  # atno 8010 bound_to 7997
  139.5993  144.1045  152.1724 H   0  0  0  0  0  0  0  0  0  0  0  0  # atno 10167 bound_to 10162
  157.4202  130.7964  149.7508 H   0  0  0  0  0  0  0  0  0  0  0  0  # atno 10718 bound_to 10713
  153.0054  135.6289  154.2078 H   0  0  0  0  0  0  0  0  0  0  0  0  # atno 10763 bound_to 10752
  154.1822  135.2813  155.3050 H   0  0  0  0  0  0  0  0  0  0  0  0  # atno 10764 bound_to 10752
  154.5826  135.5642  153.7260 H   0  0  0  0  0  0  0  0  0  0  0  0  # atno 10765 bound_to 10752
  139.9213  134.9638  156.7912 H   0  0  0  0  0  0  0  0  0  0  0  0  # atno 11005 bound_to 11000
  144.8080  140.6335  143.6434 LP  0  0  0  0  0  0  0  0  0  0  0  0  # atno 17320 bound_to 7965
  145.4490  139.1526  143.3929 LP  0  0  0  0  0  0  0  0  0  0  0  0  # atno 17321 bound_to 7965
  140.0637  144.5835  150.7243 LP  0  0  0  0  0  0  0  0  0  0  0  0  # atno 17342 bound_to 10162
  140.7237  143.2614  151.4193 LP  0  0  0  0  0  0  0  0  0  0  0  0  # atno 17343 bound_to 10162
  155.9878  130.3964  150.3148 LP  0  0  0  0  0  0  0  0  0  0  0  0  # atno 17370 bound_to 10713
  157.1295  131.0268  151.2975 LP  0  0  0  0  0  0  0  0  0  0  0  0  # atno 17371 bound_to 10713
  140.6465  133.9770  155.7733 LP  0  0  0  0  0  0  0  0  0  0  0  0  # atno 17394 bound_to 11000
  141.0736  134.0168  157.3490 LP  0  0  0  0  0  0  0  0  0  0  0  0  # atno 17395 bound_to 11000

$$$$
