AV-unprocessed.smi:461|AV-procd|sdf|2631|dock9
  -GOLD-   2262023 33D 1   1.00000     0.00000
 Structure written by MMmdl.
 33 34  0  0  0  0  0  0  0  0  1 V2000
  152.2692  143.8388  161.4171 C   0  0  0  0  0  0  0  0  0  0  0  0
  152.6869  142.6427  160.6841 N   0  0  0  0  0  0  0  0  0  0  0  0
  152.0130  142.4608  159.4874 N   0  0  0  0  0  0  0  0  0  0  0  0
  152.3298  141.4133  158.7838 C   0  0  0  0  0  0  0  0  0  0  0  0
  151.7669  141.0517  157.5667 N   0  0  0  0  0  0  0  0  0  0  0  0
  150.7221  141.7940  156.8765 C   0  0  0  0  0  0  0  0  0  0  0  0
  149.7117  140.8674  156.1803 C   0  0  1  0  0  0  0  0  0  0  0  0
  148.3945  141.5496  155.8274 C   0  0  0  0  0  0  0  0  0  0  0  0
  147.8426  140.6302  154.7571 C   0  0  0  0  0  0  0  0  0  0  0  0
  149.1016  140.0724  154.0874 C   0  0  0  0  0  0  0  0  0  0  0  0
  150.1987  140.4635  154.9085 O   0  0  0  0  0  0  0  0  0  0  0  0
  153.3981  140.4431  159.2626 C   0  0  0  0  0  0  0  0  0  0  0  0
  153.6883  139.4501  158.5886 O   0  0  0  0  0  0  0  0  0  0  0  0
  153.9867  140.7436  160.4534 N   0  0  0  0  0  0  0  0  0  0  0  0
  155.0234  139.8136  160.9369 C   0  0  0  0  0  0  0  0  0  0  0  0
  153.6562  141.8342  161.2055 C   0  0  0  0  0  0  0  0  0  0  0  0
  154.1890  142.0854  162.2894 O   0  0  0  0  0  0  0  0  0  0  0  0
  153.1096  144.5215  161.5503 H   0  0  0  0  0  0  0  0  0  0  0  0
  151.8852  143.5722  162.4027 H   0  0  0  0  0  0  0  0  0  0  0  0
  151.4812  144.3869  160.8976 H   0  0  0  0  0  0  0  0  0  0  0  0
  151.1889  142.4581  156.1485 H   0  0  0  0  0  0  0  0  0  0  0  0
  150.2079  142.4356  157.5936 H   0  0  0  0  0  0  0  0  0  0  0  0
  149.5082  139.9807  156.7836 H   0  0  0  0  0  0  0  0  0  0  0  0
  147.7276  141.6571  156.6832 H   0  0  0  0  0  0  0  0  0  0  0  0
  148.5780  142.5404  155.4094 H   0  0  0  0  0  0  0  0  0  0  0  0
  147.2772  139.8192  155.2181 H   0  0  0  0  0  0  0  0  0  0  0  0
  147.1839  141.1465  154.0582 H   0  0  0  0  0  0  0  0  0  0  0  0
  149.0557  138.9857  154.0099 H   0  0  0  0  0  0  0  0  0  0  0  0
  149.2384  140.4779  153.0847 H   0  0  0  0  0  0  0  0  0  0  0  0
  155.5583  140.1500  161.8257 H   0  0  0  0  0  0  0  0  0  0  0  0
  155.7834  139.6486  160.1712 H   0  0  0  0  0  0  0  0  0  0  0  0
  154.5778  138.8477  161.1795 H   0  0  0  0  0  0  0  0  0  0  0  0
  152.0184  140.1800  157.1226 H   0  0  0  0  0  0  0  0  0  0  0  0
  1 18  1  0  0  0  0
  1 19  1  0  0  0  0
  1 20  1  0  0  0  0
  1  2  1  0  0  0  0
  2 16  1  0  0  0  0
  2  3  1  0  0  0  0
  3  4  2  0  0  0  0
  4 12  1  0  0  0  0
  4  5  1  0  0  0  0
  5  6  1  0  0  0  0
  5 33  1  0  0  0  0
  6  7  1  0  0  0  0
  6 21  1  0  0  0  0
  6 22  1  0  0  0  0
  7 11  1  0  0  0  0
  7  8  1  0  0  0  0
  7 23  1  0  0  0  0
  8  9  1  0  0  0  0
  8 24  1  0  0  0  0
  8 25  1  0  0  0  0
  9 10  1  0  0  0  0
  9 26  1  0  0  0  0
  9 27  1  0  0  0  0
 10 11  1  0  0  0  0
 10 28  1  0  0  0  0
 10 29  1  0  0  0  0
 12 13  2  0  0  0  0
 12 14  1  0  0  0  0
 14 15  1  0  0  0  0
 14 16  1  0  0  0  0
 15 30  1  0  0  0  0
 15 31  1  0  0  0  0
 15 32  1  0  0  0  0
 16 17  2  0  0  0  0
M  END
> <s_m_source_file>
AV-unprocessed.smi

> <i_m_source_file_index>
461

> <i_lp_mmshare_version>
43012

> <i_f3d_flags>
0

> <s_epik_input>
Tz1jMW4oW0NIM10pYyg9TyljKG5uMVtDSDNdKVtOSF1bQ0gyXVtDQEBIXTJbQ0gyXVtDSDJdW0NIMl1PMg==

> <s_epik_cmdline>
J2VwaWtfcHl0aG9uJywgJy1waCcsICc3LjAnLCAnLXRuJywgJzgnLCAnLW1hJywgJzIwMCcsICctbWV0YWxfYmluZGluZycsICctaW1hZScsICc8aW5maWxlLm1hZT4nLCAnLW9tYWUnLCAnPG91dGZpbGUubWFlPic=

> <r_lp_tautomer_probability>
1

> <r_epik_Ionization_Penalty>
0.000103292

> <r_epik_Ionization_Penalty_Charging>
5.59445e-09

> <r_epik_Ionization_Penalty_Neutral>
0.000103287

> <r_epik_State_Penalty>
-0

> <r_epik_Charging_Adjusted_Penalty>
5.59445e-09

> <i_epik_Tot_Q>
0

> <i_epik_Tot_abs_Q>
0

> <r_epik_Metal_State_Penalty>
-0

> <b_epik_Metal_Only>
0

> <s_lp_Force_Field>
OPLS_2005

> <r_lp_Energy>
40.9993

> <b_lp_Chiralities_Consistent>
1

> <s_lp_Variant>
AV-unprocessed.smi:461-2

> <Gold.Version>
5.8.1

> <Gold.Id.Protein>
6NUR|6NUR_protein|mol2

> <Gold.PLP.Fitness>
37.8018

> <Gold.PLP.PLP>
-32.8893

> <Gold.PLP.part.hbond>
-3.0000

> <Gold.PLP.part.metal>
0.0000

> <Gold.PLP.part.buried>
-2.6369

> <Gold.PLP.part.nonpolar>
-27.3713

> <Gold.PLP.part.repulsive>
0.1705

> <Gold.PLP.ligand.clash>
0.0000

> <Gold.PLP.ligand.torsion>
0.3650

> <Gold.PLP.Chemscore.Hbond>
1.8784

> <Gold.PLP.Chemscore.CHOScore>
0.0000

> <Gold.PLP.Chemscore.Metal>
0.0000

> <Gold.Chemscore.Hbonds>
donor molecule, donor type, donor heavy atom, donor atom, acceptor molecule, acceptor atom, score
      P1  H  7989  7998       L1    11  0.94
      P1  H  7997  8010       L1    13  1.00

> <Gold.PLP.Chemscore.Internal.Correction>
0.0073

> <Gold.Rescore>
     Score         DG    S(hbond)    S(metal)    S(lipo)     H(rot)  DE(clash)    DE(int)     intcor
     10.18     -10.81       0.96        0.00      46.36       1.30       0.23       0.40       ----

> <Gold.Chemscore.Fitness>
10.1765

> <Gold.Chemscore.DG>
-10.8078

> <Gold.Chemscore.ZeroCoef>
-5.4800

> <Gold.Chemscore.Hbond>
0.9640

> <Gold.Chemscore.Metal>
0.0000

> <Gold.Chemscore.Lipo>
46.3630

> <Gold.Chemscore.Internal_Hbond>
0.0000

> <Gold.Chemscore.DEClash>
0.2272

> <Gold.Chemscore.DEInternal>
0.4042

> <Gold.Chemscore.Rot>
1.2954

> <Gold.Chemscore.Internal.Correction>
   9.000000E+99

> <Gold.Chemscore.Hbonds>
donor molecule, donor type, donor heavy atom, donor atom, acceptor molecule, acceptor atom, score
      P1  H  7989  7998       L1    11  0.26
      P1  H  7997  8010       L1    13  0.58

> <Gold.Chemscore.Hbond.Weighted>
-3.2197

> <Gold.Chemscore.Metal.Weighted>
-0.0000

> <Gold.Chemscore.Lipo.Weighted>
-5.4245

> <Gold.Chemscore.Internal_Hbond.Weighted>
0.0000

> <Gold.Chemscore.DEClash.Weighted>
0.2272

> <Gold.Chemscore.DEInternal.Weighted>
0.4042

> <Gold.Chemscore.Rot.Weighted>
3.3163

> <Gold.Chemscore.Internal.Correction.Weighted>
   9.000000E+99

> <Gold.Protein.RotatedTorsions>
[ 6907 6896 6895 6894 ] final   53.44 input  -60.11 | X-H torsion
[ 7974 7965 7964 7962 ] final -124.56 input  175.53 | X-H torsion
[ 8008 7997 7996 7995 ] final    5.32 input   59.86 | X-H torsion
[ 10167 10162 10161 10158 ] final  167.83 input  -65.29 | X-H torsion
[ 10718 10713 10712 10709 ] final  -24.64 input   66.30 | X-H torsion
[ 10763 10752 10751 10750 ] final  -18.40 input  -60.55 | X-H torsion
[ 11005 11000 10999 10996 ] final  157.19 input  -57.11 | X-H torsion

> <Gold.Protein.ActiveResidues>
 VAL166  LYS551  ARG553  GLY616  TRP617  ASP618  TYR619  PRO620  LYS621  CYS622 
 ASP623  PHE694  ASN695  SER759  ASP760  ASP761  ALA762  ILE779  LEU786  VAL792 
 PHE793  MET794  SER795  GLU796  ALA797  LYS798  CYS799  TRP800  GLU811  SER814 

> <Gold.Protein.RotatedAtoms>
  152.3337  134.7226  160.0282 H   0  0  0  0  0  0  0  0  0  0  0  0  # atno 6907 bound_to 6896
  151.7635  133.3330  159.3432 H   0  0  0  0  0  0  0  0  0  0  0  0  # atno 6908 bound_to 6896
  150.7438  134.6016  159.6084 H   0  0  0  0  0  0  0  0  0  0  0  0  # atno 6909 bound_to 6896
  145.0068  140.7870  143.4462 H   0  0  0  0  0  0  0  0  0  0  0  0  # atno 7974 bound_to 7965
  154.7269  140.2723  155.6490 H   0  0  0  0  0  0  0  0  0  0  0  0  # atno 8008 bound_to 7997
  156.2839  140.2723  156.1883 H   0  0  0  0  0  0  0  0  0  0  0  0  # atno 8009 bound_to 7997
  155.0432  140.0371  157.2507 H   0  0  0  0  0  0  0  0  0  0  0  0  # atno 8010 bound_to 7997
  139.4954  144.3880  151.9549 H   0  0  0  0  0  0  0  0  0  0  0  0  # atno 10167 bound_to 10162
  156.4749  130.4532  149.6846 H   0  0  0  0  0  0  0  0  0  0  0  0  # atno 10718 bound_to 10713
  153.5886  135.7003  153.5432 H   0  0  0  0  0  0  0  0  0  0  0  0  # atno 10763 bound_to 10752
  153.3198  135.4077  155.1406 H   0  0  0  0  0  0  0  0  0  0  0  0  # atno 10764 bound_to 10752
  154.8604  135.3692  154.5417 H   0  0  0  0  0  0  0  0  0  0  0  0  # atno 10765 bound_to 10752
  140.1746  134.8519  157.2731 H   0  0  0  0  0  0  0  0  0  0  0  0  # atno 11005 bound_to 11000
  145.2077  139.2220  143.5159 LP  0  0  0  0  0  0  0  0  0  0  0  0  # atno 17320 bound_to 7965
  146.3462  140.1908  142.8589 LP  0  0  0  0  0  0  0  0  0  0  0  0  # atno 17321 bound_to 7965
  140.3317  144.3309  150.5986 LP  0  0  0  0  0  0  0  0  0  0  0  0  # atno 17342 bound_to 10162
  140.5639  143.2188  151.7716 LP  0  0  0  0  0  0  0  0  0  0  0  0  # atno 17343 bound_to 10162
  156.3580  130.7467  151.2435 LP  0  0  0  0  0  0  0  0  0  0  0  0  # atno 17370 bound_to 10713
  157.7488  131.0358  150.4380 LP  0  0  0  0  0  0  0  0  0  0  0  0  # atno 17371 bound_to 10713
  140.2338  134.3877  155.7510 LP  0  0  0  0  0  0  0  0  0  0  0  0  # atno 17394 bound_to 11000
  141.2219  133.7229  156.8682 LP  0  0  0  0  0  0  0  0  0  0  0  0  # atno 17395 bound_to 11000

$$$$
