AV-unprocessed.smi:9|AV-procd|sdf|51|dock4
  -GOLD-   2262015173D 1   1.00000     0.00000
 Structure written by MMmdl.
 35 37  0  0  0  0  0  0  0  0  1 V2000
  153.4551  137.8951  154.8076 O   0  0  0  0  0  0  0  0  0  0  0  0
  153.0752  138.4041  155.8598 C   0  0  0  0  0  0  0  0  0  0  0  0
  153.6270  138.1329  157.0677 N   0  0  0  0  0  0  0  0  0  0  0  0
  153.1830  138.7221  158.2793 C   0  0  0  0  0  0  0  0  0  0  0  0
  153.9950  138.2212  159.4633 C   0  0  0  0  0  0  0  0  0  0  0  0
  154.9743  137.4073  159.0663 F   0  0  0  0  0  0  0  0  0  0  0  0
  154.5469  139.2438  160.1173 F   0  0  0  0  0  0  0  0  0  0  0  0
  153.2159  137.5493  160.3114 F   0  0  0  0  0  0  0  0  0  0  0  0
  152.2079  139.5861  158.4016 N   0  0  0  0  0  0  0  0  0  0  0  0
  151.6354  139.8797  157.1801 C   0  0  0  0  0  0  0  0  0  0  0  0
  151.9632  139.3827  155.9455 C   0  0  0  0  0  0  0  0  0  0  0  0
  151.1483  139.9149  154.9540 N   0  0  0  0  0  0  0  0  0  0  0  0
  150.3520  140.7263  155.6472 C   0  0  0  0  0  0  0  0  0  0  0  0
  150.5858  140.7689  156.9733 N   0  0  0  0  0  0  0  0  0  0  0  0
  149.8747  141.5646  157.9648 C   0  0  0  0  0  0  0  0  0  0  0  0
  150.5237  142.9404  158.2652 C   0  0  1  0  0  0  0  0  0  0  0  0
  149.4756  143.8534  158.5334 O   0  0  0  0  0  0  0  0  0  0  0  0
  151.4726  142.8824  159.4830 C   0  0  0  0  0  0  0  0  0  0  0  0
  152.3079  144.1600  159.6145 C   0  0  0  0  0  0  0  0  0  0  0  0
  153.0039  144.4754  158.2860 C   0  0  0  0  0  0  0  0  0  0  0  0
  152.0208  144.6336  157.2725 O   0  0  0  0  0  0  0  0  0  0  0  0
  151.2675  143.4526  157.0085 C   0  0  0  0  0  0  0  0  0  0  0  0
  154.3927  137.4757  157.1010 H   0  0  0  0  0  0  0  0  0  0  0  0
  149.5780  141.3136  155.1750 H   0  0  0  0  0  0  0  0  0  0  0  0
  148.8552  141.7089  157.6045 H   0  0  0  0  0  0  0  0  0  0  0  0
  149.7876  140.9771  158.8799 H   0  0  0  0  0  0  0  0  0  0  0  0
  149.2964  144.3408  157.7437 H   0  0  0  0  0  0  0  0  0  0  0  0
  150.9177  142.7082  160.4056 H   0  0  0  0  0  0  0  0  0  0  0  0
  152.1509  142.0358  159.3680 H   0  0  0  0  0  0  0  0  0  0  0  0
  151.6688  144.9958  159.9010 H   0  0  0  0  0  0  0  0  0  0  0  0
  153.0458  144.0446  160.4088 H   0  0  0  0  0  0  0  0  0  0  0  0
  153.5734  145.4009  158.3718 H   0  0  0  0  0  0  0  0  0  0  0  0
  153.7092  143.6891  158.0124 H   0  0  0  0  0  0  0  0  0  0  0  0
  151.9510  142.6870  156.6378 H   0  0  0  0  0  0  0  0  0  0  0  0
  150.5648  143.6544  156.1989 H   0  0  0  0  0  0  0  0  0  0  0  0
  1  2  2  0  0  0  0
  2 11  1  0  0  0  0
  2  3  1  0  0  0  0
  3 23  1  0  0  0  0
  3  4  1  0  0  0  0
  4  5  1  0  0  0  0
  4  9  2  0  0  0  0
  5  6  1  0  0  0  0
  5  7  1  0  0  0  0
  5  8  1  0  0  0  0
  9 10  1  0  0  0  0
 10 14  1  0  0  0  0
 10 11  2  0  0  0  0
 11 12  1  0  0  0  0
 12 13  2  0  0  0  0
 13 14  1  0  0  0  0
 13 24  1  0  0  0  0
 14 15  1  0  0  0  0
 15 16  1  0  0  0  0
 15 25  1  0  0  0  0
 15 26  1  0  0  0  0
 16 22  1  0  0  0  0
 16 17  1  0  0  0  0
 16 18  1  0  0  0  0
 17 27  1  0  0  0  0
 18 19  1  0  0  0  0
 18 28  1  0  0  0  0
 18 29  1  0  0  0  0
 19 20  1  0  0  0  0
 19 30  1  0  0  0  0
 19 31  1  0  0  0  0
 20 21  1  0  0  0  0
 20 32  1  0  0  0  0
 20 33  1  0  0  0  0
 21 22  1  0  0  0  0
 22 34  1  0  0  0  0
 22 35  1  0  0  0  0
M  END
> <s_m_source_file>
AV-unprocessed.smi

> <i_m_source_file_index>
9

> <i_lp_mmshare_version>
43012

> <i_f3d_flags>
0

> <s_epik_input>
RkMoRikoRiljKG4xKVtuSF1jKD1PKWMoYzEyKW5bY0hdbjJbQ0gyXVtDQEBdMyhbT0hdKVtDSDJdW0NIMl1bQ0gyXU9bQ0gyXTM=

> <s_epik_cmdline>
J2VwaWtfcHl0aG9uJywgJy1waCcsICc3LjAnLCAnLXRuJywgJzgnLCAnLW1hJywgJzIwMCcsICctbWV0YWxfYmluZGluZycsICctaW1hZScsICc8aW5maWxlLm1hZT4nLCAnLW9tYWUnLCAnPG91dGZpbGUubWFlPic=

> <r_lp_tautomer_probability>
0.85571

> <r_epik_Ionization_Penalty>
0.770127

> <r_epik_Ionization_Penalty_Charging>
0.770101

> <r_epik_Ionization_Penalty_Neutral>
2.64604e-05

> <r_epik_State_Penalty>
2.30539

> <r_epik_Charging_Adjusted_Penalty>
3.07549

> <i_epik_Tot_Q>
0

> <i_epik_Tot_abs_Q>
0

> <r_epik_Metal_State_Penalty>
2.4903

> <b_epik_Metal_Only>
0

> <s_lp_Force_Field>
OPLS_2005

> <r_lp_Energy>
27.1686

> <b_lp_Chiralities_Consistent>
1

> <s_lp_Variant>
AV-unprocessed.smi:9-3

> <Gold.Version>
5.8.1

> <Gold.Id.Protein>
6NUR|6NUR_protein|mol2

> <Gold.PLP.Fitness>
36.0700

> <Gold.PLP.PLP>
-33.5712

> <Gold.PLP.part.hbond>
-4.0000

> <Gold.PLP.part.metal>
0.0000

> <Gold.PLP.part.buried>
-1.6038

> <Gold.PLP.part.nonpolar>
-28.1361

> <Gold.PLP.part.repulsive>
0.6477

> <Gold.PLP.ligand.clash>
0.0000

> <Gold.PLP.ligand.torsion>
1.0485

> <Gold.PLP.Chemscore.Hbond>
1.5291

> <Gold.PLP.Chemscore.CHOScore>
0.0000

> <Gold.PLP.Chemscore.Metal>
0.0000

> <Gold.Chemscore.Hbonds>
donor molecule, donor type, donor heavy atom, donor atom, acceptor molecule, acceptor atom, score
      L1  H    17    27       P1  8028  0.31
      P1  H  7989  7998       L1    12  1.00
      P1  H 10752 10765       L1     1  0.02

> <Gold.PLP.Chemscore.Internal.Correction>
0.0085

> <Gold.Rescore>
     Score         DG    S(hbond)    S(metal)    S(lipo)     H(rot)  DE(clash)    DE(int)     intcor
     10.82     -11.92       1.07        0.00      71.20       2.14       0.23       0.88       ----

> <Gold.Chemscore.Fitness>
10.8154

> <Gold.Chemscore.DG>
-11.9206

> <Gold.Chemscore.ZeroCoef>
-5.4800

> <Gold.Chemscore.Hbond>
1.0723

> <Gold.Chemscore.Metal>
0.0000

> <Gold.Chemscore.Lipo>
71.2005

> <Gold.Chemscore.Internal_Hbond>
0.0000

> <Gold.Chemscore.DEClash>
0.2285

> <Gold.Chemscore.DEInternal>
0.8767

> <Gold.Chemscore.Rot>
2.1373

> <Gold.Chemscore.Internal.Correction>
   9.000000E+99

> <Gold.Chemscore.Hbonds>
donor molecule, donor type, donor heavy atom, donor atom, acceptor molecule, acceptor atom, score
      L1  H    17    27       P1  8028  0.01
      P1  H  7989  7998       L1    12  0.50
      P1  H 10752 10765       L1     1  0.03

> <Gold.Chemscore.Hbond.Weighted>
-3.5816

> <Gold.Chemscore.Metal.Weighted>
-0.0000

> <Gold.Chemscore.Lipo.Weighted>
-8.3305

> <Gold.Chemscore.Internal_Hbond.Weighted>
0.0000

> <Gold.Chemscore.DEClash.Weighted>
0.2285

> <Gold.Chemscore.DEInternal.Weighted>
0.8767

> <Gold.Chemscore.Rot.Weighted>
5.4714

> <Gold.Chemscore.Internal.Correction.Weighted>
   9.000000E+99

> <Gold.Protein.RotatedTorsions>
[ 6907 6896 6895 6894 ] final   16.13 input  -60.11 | X-H torsion
[ 7974 7965 7964 7962 ] final  -15.20 input  175.53 | X-H torsion
[ 8008 7997 7996 7995 ] final    4.21 input   59.86 | X-H torsion
[ 10167 10162 10161 10158 ] final   63.35 input  -65.29 | X-H torsion
[ 10718 10713 10712 10709 ] final  147.18 input   66.30 | X-H torsion
[ 10763 10752 10751 10750 ] final  175.86 input  -60.55 | X-H torsion
[ 11005 11000 10999 10996 ] final   -5.96 input  -57.11 | X-H torsion

> <Gold.Protein.ActiveResidues>
 VAL166  LYS551  ARG553  GLY616  TRP617  ASP618  TYR619  PRO620  LYS621  CYS622 
 ASP623  PHE694  ASN695  SER759  ASP760  ASP761  ALA762  ILE779  LEU786  VAL792 
 PHE793  MET794  SER795  GLU796  ALA797  LYS798  CYS799  TRP800  GLU811  SER814 

> <Gold.Protein.RotatedAtoms>
  151.8290  135.0627  160.0434 H   0  0  0  0  0  0  0  0  0  0  0  0  # atno 6907 bound_to 6896
  152.2895  133.5543  159.5556 H   0  0  0  0  0  0  0  0  0  0  0  0  # atno 6908 bound_to 6896
  150.7224  134.0365  159.3793 H   0  0  0  0  0  0  0  0  0  0  0  0  # atno 6909 bound_to 6896
  146.2042  140.3459  142.8413 H   0  0  0  0  0  0  0  0  0  0  0  0  # atno 7974 bound_to 7965
  154.7131  140.2696  155.6610 H   0  0  0  0  0  0  0  0  0  0  0  0  # atno 8008 bound_to 7997
  156.2801  140.2749  156.1704 H   0  0  0  0  0  0  0  0  0  0  0  0  # atno 8009 bound_to 7997
  155.0607  140.0371  157.2566 H   0  0  0  0  0  0  0  0  0  0  0  0  # atno 8010 bound_to 7997
  140.1340  144.4616  150.6848 H   0  0  0  0  0  0  0  0  0  0  0  0  # atno 10167 bound_to 10162
  157.3241  131.0909  151.1216 H   0  0  0  0  0  0  0  0  0  0  0  0  # atno 10718 bound_to 10713
  154.4733  135.2772  155.1626 H   0  0  0  0  0  0  0  0  0  0  0  0  # atno 10763 bound_to 10752
  154.3366  135.6179  153.5580 H   0  0  0  0  0  0  0  0  0  0  0  0  # atno 10764 bound_to 10752
  152.9866  135.5778  154.5119 H   0  0  0  0  0  0  0  0  0  0  0  0  # atno 10765 bound_to 10752
  140.6968  133.9024  155.8655 H   0  0  0  0  0  0  0  0  0  0  0  0  # atno 11005 bound_to 11000
  144.8753  140.7328  143.6021 LP  0  0  0  0  0  0  0  0  0  0  0  0  # atno 17320 bound_to 7965
  145.3378  139.1741  143.4502 LP  0  0  0  0  0  0  0  0  0  0  0  0  # atno 17321 bound_to 7965
  140.6800  143.2322  151.5408 LP  0  0  0  0  0  0  0  0  0  0  0  0  # atno 17342 bound_to 10162
  139.5505  144.2407  152.1522 LP  0  0  0  0  0  0  0  0  0  0  0  0  # atno 17343 bound_to 10162
  157.2490  130.6605  149.5923 LP  0  0  0  0  0  0  0  0  0  0  0  0  # atno 17370 bound_to 10713
  155.9689  130.4544  150.5849 LP  0  0  0  0  0  0  0  0  0  0  0  0  # atno 17371 bound_to 10713
  141.0197  134.0907  157.4134 LP  0  0  0  0  0  0  0  0  0  0  0  0  # atno 17394 bound_to 11000
  139.8908  135.0114  156.6755 LP  0  0  0  0  0  0  0  0  0  0  0  0  # atno 17395 bound_to 11000

$$$$
