AV-unprocessed.smi:1702|AV-procd|sdf|6852|dock10
  -GOLD-   22720 8 33D 1   1.00000     0.00000
 Structure written by MMmdl.
 45 47  0  0  0  0  0  0  0  0  3 V2000
  143.6538  142.0235  156.1081 C   0  0  0  0  0  0  0  0  0  0  0  0
  144.7633  143.0758  156.2838 C   0  0  2  0  0  0  0  0  0  0  0  0
  145.1518  143.7597  154.9604 C   0  0  0  0  0  0  0  0  0  0  0  0
  145.9786  142.8360  154.0477 C   0  0  0  0  0  0  0  0  0  0  0  0
  147.1886  142.3299  154.7489 N   0  3  2  0  0  0  0  0  0  0  0  0
  148.0875  141.5348  153.8721 C   0  0  0  0  0  0  0  0  0  0  0  0
  149.1795  140.7881  154.6640 C   0  0  1  0  0  0  0  0  0  0  0  0
  150.0186  140.1045  153.7526 O   0  0  0  0  0  0  0  0  0  0  0  0
  150.0333  141.7528  155.5109 C   0  0  0  0  0  0  0  0  0  0  0  0
  150.8924  141.0570  156.4792 N   0  0  0  0  0  0  0  0  0  0  0  0
  151.3474  139.7739  156.4837 C   0  0  0  0  0  0  0  0  0  0  0  0
  152.1119  139.6125  157.5992 N   0  3  0  0  0  0  0  0  0  0  0  0
  152.1469  140.8093  158.3182 C   0  0  0  0  0  0  0  0  0  0  0  0
  152.7854  141.1398  159.5093 C   0  0  0  0  0  0  0  0  0  0  0  0
  152.6156  142.4600  159.9759 C   0  0  0  0  0  0  0  0  0  0  0  0
  153.2140  142.8342  161.1313 F   0  0  0  0  0  0  0  0  0  0  0  0
  151.8354  143.3954  159.2636 C   0  0  0  0  0  0  0  0  0  0  0  0
  151.6981  144.6529  159.7464 F   0  0  0  0  0  0  0  0  0  0  0  0
  151.1929  143.0487  158.0563 C   0  0  0  0  0  0  0  0  0  0  0  0
  151.3656  141.7416  157.6038 C   0  0  0  0  0  0  0  0  0  0  0  0
  146.8349  141.6069  155.9977 C   0  0  0  0  0  0  0  0  0  0  0  0
  146.0262  142.5037  156.9524 C   0  0  0  0  0  0  0  0  0  0  0  0
  143.9609  141.2043  155.4585 H   0  0  0  0  0  0  0  0  0  0  0  0
  142.7585  142.4694  155.6739 H   0  0  0  0  0  0  0  0  0  0  0  0
  143.3699  141.5925  157.0685 H   0  0  0  0  0  0  0  0  0  0  0  0
  144.3587  143.8430  156.9455 H   0  0  0  0  0  0  0  0  0  0  0  0
  144.2591  144.1043  154.4368 H   0  0  0  0  0  0  0  0  0  0  0  0
  145.7367  144.6544  155.1792 H   0  0  0  0  0  0  0  0  0  0  0  0
  145.3722  141.9953  153.7085 H   0  0  0  0  0  0  0  0  0  0  0  0
  146.2634  143.3918  153.1552 H   0  0  0  0  0  0  0  0  0  0  0  0
  147.5059  140.8003  153.3122 H   0  0  0  0  0  0  0  0  0  0  0  0
  148.5361  142.1937  153.1271 H   0  0  0  0  0  0  0  0  0  0  0  0
  148.7290  140.0495  155.3260 H   0  0  0  0  0  0  0  0  0  0  0  0
  149.8050  139.1837  153.7750 H   0  0  0  0  0  0  0  0  0  0  0  0
  150.6824  142.3497  154.8684 H   0  0  0  0  0  0  0  0  0  0  0  0
  149.4039  142.4594  156.0533 H   0  0  0  0  0  0  0  0  0  0  0  0
  151.1385  139.0188  155.7393 H   0  0  0  0  0  0  0  0  0  0  0  0
  153.3838  140.4273  160.0578 H   0  0  0  0  0  0  0  0  0  0  0  0
  150.5990  143.7731  157.5197 H   0  0  0  0  0  0  0  0  0  0  0  0
  146.2762  140.7025  155.7531 H   0  0  0  0  0  0  0  0  0  0  0  0
  147.7452  141.2854  156.5051 H   0  0  0  0  0  0  0  0  0  0  0  0
  146.6596  143.3283  157.2828 H   0  0  0  0  0  0  0  0  0  0  0  0
  145.7598  141.9494  157.8530 H   0  0  0  0  0  0  0  0  0  0  0  0
  147.7216  143.1382  155.0376 H   0  0  0  0  0  0  0  0  0  0  0  0
  152.5746  138.7472  157.8488 H   0  0  0  0  0  0  0  0  0  0  0  0
  1  2  1  0  0  0  0
  1 23  1  0  0  0  0
  1 24  1  0  0  0  0
  1 25  1  0  0  0  0
  2 22  1  0  0  0  0
  2  3  1  0  0  0  0
  2 26  1  0  0  0  0
  3  4  1  0  0  0  0
  3 27  1  0  0  0  0
  3 28  1  0  0  0  0
  4  5  1  0  0  0  0
  4 29  1  0  0  0  0
  4 30  1  0  0  0  0
  5  6  1  0  0  0  0
  5 21  1  0  0  0  0
  5 44  1  0  0  0  0
  6  7  1  0  0  0  0
  6 31  1  0  0  0  0
  6 32  1  0  0  0  0
  7  8  1  0  0  0  0
  7  9  1  0  0  0  0
  7 33  1  0  0  0  0
  8 34  1  0  0  0  0
  9 10  1  0  0  0  0
  9 35  1  0  0  0  0
  9 36  1  0  0  0  0
 10 20  1  0  0  0  0
 10 11  1  0  0  0  0
 11 12  2  0  0  0  0
 11 37  1  0  0  0  0
 12 13  1  0  0  0  0
 12 45  1  0  0  0  0
 13 20  2  0  0  0  0
 13 14  1  0  0  0  0
 14 15  2  0  0  0  0
 14 38  1  0  0  0  0
 15 16  1  0  0  0  0
 15 17  1  0  0  0  0
 17 18  1  0  0  0  0
 17 19  2  0  0  0  0
 19 20  1  0  0  0  0
 19 39  1  0  0  0  0
 21 22  1  0  0  0  0
 21 40  1  0  0  0  0
 21 41  1  0  0  0  0
 22 42  1  0  0  0  0
 22 43  1  0  0  0  0
M  CHG  1   5   1
M  CHG  1  12   1
M  END
> <s_m_source_file>
AV-unprocessed.smi

> <i_m_source_file_index>
1702

> <i_lp_mmshare_version>
43012

> <i_f3d_flags>
0

> <s_epik_input>
W0NIM11bQ0hdMVtDSDJdW0NIMl1OKFtDSDJdW0NIMl0xKVtDSDJdW0NASF0oW09IXSlbQ0gyXW4oW2NIXW4yKWMoYzIzKVtjSF1jKEYpYyhGKVtjSF0z

> <s_epik_cmdline>
J2VwaWtfcHl0aG9uJywgJy1waCcsICc3LjAnLCAnLXRuJywgJzgnLCAnLW1hJywgJzIwMCcsICctbWV0YWxfYmluZGluZycsICctaW1hZScsICc8aW5maWxlLm1hZT4nLCAnLW9tYWUnLCAnPG91dGZpbGUubWFlPic=

> <r_epik_Ionization_Penalty>
2.33291

> <r_epik_Ionization_Penalty_Charging>
2.33291

> <r_epik_Ionization_Penalty_Neutral>
6.90208e-07

> <r_epik_State_Penalty>
2.4838

> <r_epik_Charging_Adjusted_Penalty>
4.81672

> <i_epik_Tot_Q>
2

> <i_epik_Tot_abs_Q>
2

> <r_epik_Metal_State_Penalty>
6.56754

> <b_epik_Metal_Only>
0

> <s_lp_Force_Field>
OPLS_2005

> <r_lp_Energy>
31.9784

> <b_lp_Chiralities_Consistent>
1

> <s_lp_Variant>
AV-unprocessed.smi:1702-8

> <Gold.Version>
5.8.1

> <Gold.Id.Protein>
6NUR|6NUR_protein|mol2

> <Gold.PLP.Fitness>
56.5914

> <Gold.PLP.PLP>
-49.2609

> <Gold.PLP.part.hbond>
-2.9829

> <Gold.PLP.part.metal>
0.0000

> <Gold.PLP.part.buried>
-6.2594

> <Gold.PLP.part.nonpolar>
-39.7880

> <Gold.PLP.part.repulsive>
0.1962

> <Gold.PLP.ligand.clash>
0.0000

> <Gold.PLP.ligand.torsion>
0.5012

> <Gold.PLP.Chemscore.Hbond>
2.7680

> <Gold.PLP.Chemscore.CHOScore>
0.0000

> <Gold.PLP.Chemscore.Metal>
0.0000

> <Gold.Chemscore.Hbonds>
donor molecule, donor type, donor heavy atom, donor atom, acceptor molecule, acceptor atom, score
      L1  H     5    44       P1  8028  2.00
      P1  H  7989  7998       L1     8  0.77

> <Gold.PLP.Chemscore.Internal.Correction>
0.0288

> <Gold.Rescore>
     Score         DG    S(hbond)    S(metal)    S(lipo)     H(rot)  DE(clash)    DE(int)     intcor
     15.90     -16.67       1.56        0.00     101.87       2.32       0.29       0.48       ----

> <Gold.Chemscore.Fitness>
15.9011

> <Gold.Chemscore.DG>
-16.6735

> <Gold.Chemscore.ZeroCoef>
-5.4800

> <Gold.Chemscore.Hbond>
1.5616

> <Gold.Chemscore.Metal>
0.0000

> <Gold.Chemscore.Lipo>
101.8739

> <Gold.Chemscore.Internal_Hbond>
0.0000

> <Gold.Chemscore.DEClash>
0.2919

> <Gold.Chemscore.DEInternal>
0.4805

> <Gold.Chemscore.Rot>
2.3210

> <Gold.Chemscore.Internal.Correction>
   9.000000E+99

> <Gold.Chemscore.Hbonds>
donor molecule, donor type, donor heavy atom, donor atom, acceptor molecule, acceptor atom, score
      L1  H     5    44       P1  8028  0.56
      P1  H  7989  7998       L1     8  0.70

> <Gold.Chemscore.Hbond.Weighted>
-5.2159

> <Gold.Chemscore.Metal.Weighted>
-0.0000

> <Gold.Chemscore.Lipo.Weighted>
-11.9192

> <Gold.Chemscore.Internal_Hbond.Weighted>
0.0000

> <Gold.Chemscore.DEClash.Weighted>
0.2919

> <Gold.Chemscore.DEInternal.Weighted>
0.4805

> <Gold.Chemscore.Rot.Weighted>
5.9416

> <Gold.Chemscore.Internal.Correction.Weighted>
   9.000000E+99

> <Gold.Protein.RotatedTorsions>
[ 6907 6896 6895 6894 ] final   96.10 input  -60.11 | X-H torsion
[ 7974 7965 7964 7962 ] final  143.37 input  175.53 | X-H torsion
[ 8008 7997 7996 7995 ] final  145.56 input   59.86 | X-H torsion
[ 10167 10162 10161 10158 ] final   14.59 input  -65.29 | X-H torsion
[ 10718 10713 10712 10709 ] final -147.42 input   66.30 | X-H torsion
[ 10763 10752 10751 10750 ] final  -15.62 input  -60.55 | X-H torsion
[ 11005 11000 10999 10996 ] final  -80.95 input  -57.11 | X-H torsion

> <Gold.Protein.ActiveResidues>
 VAL166  LYS551  ARG553  GLY616  TRP617  ASP618  TYR619  PRO620  LYS621  CYS622 
 ASP623  PHE694  ASN695  SER759  ASP760  ASP761  ALA762  ILE779  LEU786  VAL792 
 PHE793  MET794  SER795  GLU796  ALA797  LYS798  CYS799  TRP800  GLU811  SER814 

> <Gold.Protein.RotatedAtoms>
  152.5438  134.0939  159.8288 H   0  0  0  0  0  0  0  0  0  0  0  0  # atno 6907 bound_to 6896
  151.1025  133.5226  159.2616 H   0  0  0  0  0  0  0  0  0  0  0  0  # atno 6908 bound_to 6896
  151.1975  135.0438  159.8913 H   0  0  0  0  0  0  0  0  0  0  0  0  # atno 6909 bound_to 6896
  144.8926  139.5536  143.5791 H   0  0  0  0  0  0  0  0  0  0  0  0  # atno 7974 bound_to 7965
  156.2880  140.2206  156.5234 H   0  0  0  0  0  0  0  0  0  0  0  0  # atno 8008 bound_to 7997
  154.7509  140.0480  157.0914 H   0  0  0  0  0  0  0  0  0  0  0  0  # atno 8009 bound_to 7997
  155.0111  140.3113  155.4832 H   0  0  0  0  0  0  0  0  0  0  0  0  # atno 8010 bound_to 7997
  140.5925  143.8767  150.6887 H   0  0  0  0  0  0  0  0  0  0  0  0  # atno 10167 bound_to 10162
  156.4073  130.7964  151.2179 H   0  0  0  0  0  0  0  0  0  0  0  0  # atno 10718 bound_to 10713
  153.5461  135.7012  153.5613 H   0  0  0  0  0  0  0  0  0  0  0  0  # atno 10763 bound_to 10752
  153.3558  135.3983  155.1681 H   0  0  0  0  0  0  0  0  0  0  0  0  # atno 10764 bound_to 10752
  154.8667  135.3776  154.4968 H   0  0  0  0  0  0  0  0  0  0  0  0  # atno 10765 bound_to 10752
  141.1667  133.7174  156.8350 H   0  0  0  0  0  0  0  0  0  0  0  0  # atno 11005 bound_to 11000
  146.3063  139.7591  142.9054 LP  0  0  0  0  0  0  0  0  0  0  0  0  # atno 17320 bound_to 7965
  145.3756  141.0350  143.3206 LP  0  0  0  0  0  0  0  0  0  0  0  0  # atno 17321 bound_to 7965
  140.2293  143.3748  152.1579 LP  0  0  0  0  0  0  0  0  0  0  0  0  # atno 17342 bound_to 10162
  139.5237  144.7074  151.5311 LP  0  0  0  0  0  0  0  0  0  0  0  0  # atno 17343 bound_to 10162
  157.7506  131.0268  150.3979 LP  0  0  0  0  0  0  0  0  0  0  0  0  # atno 17370 bound_to 10713
  156.4270  130.3964  149.6786 LP  0  0  0  0  0  0  0  0  0  0  0  0  # atno 17371 bound_to 10713
  140.2024  134.8887  157.3184 LP  0  0  0  0  0  0  0  0  0  0  0  0  # atno 17394 bound_to 11000
  140.2173  134.4066  155.7583 LP  0  0  0  0  0  0  0  0  0  0  0  0  # atno 17395 bound_to 11000

$$$$
