AV-unprocessed.smi:173|AV-procd|sdf|1423|dock9
  -GOLD-   2262019193D 1   1.00000     0.00000
 Structure written by MMmdl.
 60 64  0  0  0  0  0  0  0  0  1 V2000
  149.7581  142.6923  158.8924 O   0  0  0  0  0  0  0  0  0  0  0  0
  150.9238  142.3669  158.1550 C   0  0  0  0  0  0  0  0  0  0  0  0
  150.5005  141.4768  156.9592 C   0  0  0  0  0  0  0  0  0  0  0  0
  149.7686  140.2809  157.3460 N   0  0  0  0  0  0  0  0  0  0  0  0
  148.4392  140.0123  157.1057 C   0  0  0  0  0  0  0  0  0  0  0  0
  148.0171  138.8547  157.5369 N   0  0  0  0  0  0  0  0  0  0  0  0
  149.1392  138.2901  158.1289 C   0  0  0  0  0  0  0  0  0  0  0  0
  149.3965  137.0520  158.7716 C   0  0  0  0  0  0  0  0  0  0  0  0
  148.4414  136.1042  158.9049 N   0  0  0  0  0  0  0  0  0  0  0  0
  148.2111  135.2845  157.7114 C   0  0  0  0  0  0  0  0  0  0  0  0
  149.5195  134.7775  157.0747 C   0  0  2  0  0  0  0  0  0  0  0  0
  149.3387  134.2349  155.6600 C   0  0  0  0  0  0  0  0  0  0  0  0
  150.5445  133.3275  155.4780 C   0  0  0  0  0  0  0  0  0  0  0  0
  151.0048  133.0339  156.9092 C   0  0  0  0  0  0  0  0  0  0  0  0
  150.0284  133.6357  157.7476 O   0  0  0  0  0  0  0  0  0  0  0  0
  148.4353  135.5025  160.2413 C   0  0  0  0  0  0  0  0  0  0  0  0
  147.4246  134.3670  160.4397 C   0  0  0  0  0  0  0  0  0  0  0  0
  147.2722  134.2448  161.9621 C   0  0  0  0  0  0  0  0  0  0  0  0
  147.8047  135.5565  162.5653 C   0  0  0  0  0  0  0  0  0  0  0  0
  148.1252  136.4746  161.3821 C   0  0  0  0  0  0  0  0  0  0  0  0
  150.6483  136.8290  159.2513 N   0  0  0  0  0  0  0  0  0  0  0  0
  151.5948  137.7602  159.0990 C   0  0  0  0  0  0  0  0  0  0  0  0
  151.5040  138.9551  158.5098 N   0  0  0  0  0  0  0  0  0  0  0  0
  150.2459  139.1776  158.0312 C   0  0  0  0  0  0  0  0  0  0  0  0
  151.5618  143.6768  157.6506 C   0  0  0  0  0  0  0  0  0  0  0  0
  152.1549  144.5132  158.7986 C   0  0  0  0  0  0  0  0  0  0  0  0
  153.0900  143.7342  159.5343 O   0  0  0  0  0  0  0  0  0  0  0  0
  152.4896  142.6091  160.1641 C   0  0  0  0  0  0  0  0  0  0  0  0
  151.9118  141.6540  159.1045 C   0  0  0  0  0  0  0  0  0  0  0  0
  149.4750  141.9237  159.3639 H   0  0  0  0  0  0  0  0  0  0  0  0
  149.8836  142.0452  156.2615 H   0  0  0  0  0  0  0  0  0  0  0  0
  151.3817  141.1634  156.3975 H   0  0  0  0  0  0  0  0  0  0  0  0
  147.7912  140.7019  156.5844 H   0  0  0  0  0  0  0  0  0  0  0  0
  147.5549  134.4451  157.9450 H   0  0  0  0  0  0  0  0  0  0  0  0
  147.6804  135.8800  156.9711 H   0  0  0  0  0  0  0  0  0  0  0  0
  150.2743  135.5668  157.0708 H   0  0  0  0  0  0  0  0  0  0  0  0
  148.4242  133.6432  155.6006 H   0  0  0  0  0  0  0  0  0  0  0  0
  149.2806  135.0221  154.9081 H   0  0  0  0  0  0  0  0  0  0  0  0
  150.2790  132.4188  154.9368 H   0  0  0  0  0  0  0  0  0  0  0  0
  151.3352  133.8318  154.9215 H   0  0  0  0  0  0  0  0  0  0  0  0
  151.0826  131.9658  157.1129 H   0  0  0  0  0  0  0  0  0  0  0  0
  151.9769  133.4897  157.1028 H   0  0  0  0  0  0  0  0  0  0  0  0
  149.4295  135.0954  160.4387 H   0  0  0  0  0  0  0  0  0  0  0  0
  146.4589  134.6302  160.0070 H   0  0  0  0  0  0  0  0  0  0  0  0
  147.7490  133.4343  159.9773 H   0  0  0  0  0  0  0  0  0  0  0  0
  146.2307  134.0717  162.2349 H   0  0  0  0  0  0  0  0  0  0  0  0
  147.8508  133.4004  162.3381 H   0  0  0  0  0  0  0  0  0  0  0  0
  147.0909  136.0147  163.2504 H   0  0  0  0  0  0  0  0  0  0  0  0
  148.7149  135.3543  163.1312 H   0  0  0  0  0  0  0  0  0  0  0  0
  148.9547  137.1510  161.5906 H   0  0  0  0  0  0  0  0  0  0  0  0
  147.2495  137.0837  161.1617 H   0  0  0  0  0  0  0  0  0  0  0  0
  152.5646  137.5104  159.5030 H   0  0  0  0  0  0  0  0  0  0  0  0
  152.3626  143.4407  156.9486 H   0  0  0  0  0  0  0  0  0  0  0  0
  150.8336  144.2685  157.0944 H   0  0  0  0  0  0  0  0  0  0  0  0
  152.6678  145.3868  158.3958 H   0  0  0  0  0  0  0  0  0  0  0  0
  151.3719  144.8855  159.4608 H   0  0  0  0  0  0  0  0  0  0  0  0
  153.2468  142.0937  160.7549 H   0  0  0  0  0  0  0  0  0  0  0  0
  151.7165  142.9367  160.8612 H   0  0  0  0  0  0  0  0  0  0  0  0
  151.4343  140.8082  159.6007 H   0  0  0  0  0  0  0  0  0  0  0  0
  152.7366  141.2427  158.5214 H   0  0  0  0  0  0  0  0  0  0  0  0
  1  2  1  0  0  0  0
  1 30  1  0  0  0  0
  2 29  1  0  0  0  0
  2  3  1  0  0  0  0
  2 25  1  0  0  0  0
  3  4  1  0  0  0  0
  3 31  1  0  0  0  0
  3 32  1  0  0  0  0
  4 24  1  0  0  0  0
  4  5  1  0  0  0  0
  5  6  2  0  0  0  0
  5 33  1  0  0  0  0
  6  7  1  0  0  0  0
  7 24  2  0  0  0  0
  7  8  1  0  0  0  0
  8  9  1  0  0  0  0
  8 21  2  0  0  0  0
  9 10  1  0  0  0  0
  9 16  1  0  0  0  0
 10 11  1  0  0  0  0
 10 34  1  0  0  0  0
 10 35  1  0  0  0  0
 11 15  1  0  0  0  0
 11 12  1  0  0  0  0
 11 36  1  0  0  0  0
 12 13  1  0  0  0  0
 12 37  1  0  0  0  0
 12 38  1  0  0  0  0
 13 14  1  0  0  0  0
 13 39  1  0  0  0  0
 13 40  1  0  0  0  0
 14 15  1  0  0  0  0
 14 41  1  0  0  0  0
 14 42  1  0  0  0  0
 16 20  1  0  0  0  0
 16 17  1  0  0  0  0
 16 43  1  0  0  0  0
 17 18  1  0  0  0  0
 17 44  1  0  0  0  0
 17 45  1  0  0  0  0
 18 19  1  0  0  0  0
 18 46  1  0  0  0  0
 18 47  1  0  0  0  0
 19 20  1  0  0  0  0
 19 48  1  0  0  0  0
 19 49  1  0  0  0  0
 20 50  1  0  0  0  0
 20 51  1  0  0  0  0
 21 22  1  0  0  0  0
 22 23  2  0  0  0  0
 22 52  1  0  0  0  0
 23 24  1  0  0  0  0
 25 26  1  0  0  0  0
 25 53  1  0  0  0  0
 25 54  1  0  0  0  0
 26 27  1  0  0  0  0
 26 55  1  0  0  0  0
 26 56  1  0  0  0  0
 27 28  1  0  0  0  0
 28 29  1  0  0  0  0
 28 57  1  0  0  0  0
 28 58  1  0  0  0  0
 29 59  1  0  0  0  0
 29 60  1  0  0  0  0
M  END
> <s_m_source_file>
AV-unprocessed.smi

> <i_m_source_file_index>
173

> <i_lp_mmshare_version>
43012

> <i_f3d_flags>
0

> <s_epik_input>
W0NIMl0xW0NIMl1PW0NIMl1bQ0gyXUMxKFtPSF0pW0NIMl1uKFtjSF1uMiljKGMyMyluW2NIXW5jM04oW0NIMl1bQ0BASF00W0NIMl1bQ0gyXVtDSDJdTzQpW0NIXTVbQ0gyXVtDSDJdW0NIMl1bQ0gyXTU=

> <s_epik_cmdline>
J2VwaWtfcHl0aG9uJywgJy1waCcsICc3LjAnLCAnLXRuJywgJzgnLCAnLW1hJywgJzIwMCcsICctbWV0YWxfYmluZGluZycsICctaW1hZScsICc8aW5maWxlLm1hZT4nLCAnLW9tYWUnLCAnPG91dGZpbGUubWFlPic=

> <r_lp_tautomer_probability>
1

> <r_epik_Ionization_Penalty>
0.0053129

> <r_epik_Ionization_Penalty_Charging>
0

> <r_epik_Ionization_Penalty_Neutral>
0.0053129

> <r_epik_State_Penalty>
0.00367355

> <r_epik_Charging_Adjusted_Penalty>
0.00367355

> <i_epik_Tot_Q>
0

> <i_epik_Tot_abs_Q>
0

> <r_epik_Metal_State_Penalty>
-0

> <b_epik_Metal_Only>
0

> <s_lp_Force_Field>
OPLS_2005

> <r_lp_Energy>
56.2303

> <b_lp_Chiralities_Consistent>
1

> <s_lp_Variant>
AV-unprocessed.smi:173-1

> <Gold.Version>
5.8.1

> <Gold.Id.Protein>
6NUR|6NUR_protein|mol2

> <Gold.PLP.Fitness>
51.1952

> <Gold.PLP.PLP>
-48.7391

> <Gold.PLP.part.hbond>
-2.7831

> <Gold.PLP.part.metal>
0.0000

> <Gold.PLP.part.buried>
-7.3519

> <Gold.PLP.part.nonpolar>
-38.6619

> <Gold.PLP.part.repulsive>
0.0000

> <Gold.PLP.ligand.clash>
0.0000

> <Gold.PLP.ligand.torsion>
1.2600

> <Gold.PLP.Chemscore.Hbond>
1.3112

> <Gold.PLP.Chemscore.CHOScore>
0.0000

> <Gold.PLP.Chemscore.Metal>
0.0000

> <Gold.Chemscore.Hbonds>
donor molecule, donor type, donor heavy atom, donor atom, acceptor molecule, acceptor atom, score
      P1  H  6896  6907       L1    21  1.00
      P1  H  6896  6909       L1    15  0.33

> <Gold.PLP.Chemscore.Internal.Correction>
1.0425

> <Gold.Rescore>
     Score         DG    S(hbond)    S(metal)    S(lipo)     H(rot)  DE(clash)    DE(int)     intcor
     14.23     -15.46       0.95        0.00     114.95       2.59       0.06       1.17       ----

> <Gold.Chemscore.Fitness>
14.2346

> <Gold.Chemscore.DG>
-15.4592

> <Gold.Chemscore.ZeroCoef>
-5.4800

> <Gold.Chemscore.Hbond>
0.9475

> <Gold.Chemscore.Metal>
0.0000

> <Gold.Chemscore.Lipo>
114.9504

> <Gold.Chemscore.Internal_Hbond>
0.0000

> <Gold.Chemscore.DEClash>
0.0588

> <Gold.Chemscore.DEInternal>
1.1658

> <Gold.Chemscore.Rot>
2.5916

> <Gold.Chemscore.Internal.Correction>
   9.000000E+99

> <Gold.Chemscore.Hbonds>
donor molecule, donor type, donor heavy atom, donor atom, acceptor molecule, acceptor atom, score
      P1  H  6896  6907       L1    21  0.93
      P1  H  6896  6909       L1    15  0.01

> <Gold.Chemscore.Hbond.Weighted>
-3.1646

> <Gold.Chemscore.Metal.Weighted>
-0.0000

> <Gold.Chemscore.Lipo.Weighted>
-13.4492

> <Gold.Chemscore.Internal_Hbond.Weighted>
0.0000

> <Gold.Chemscore.DEClash.Weighted>
0.0588

> <Gold.Chemscore.DEInternal.Weighted>
1.1658

> <Gold.Chemscore.Rot.Weighted>
6.6346

> <Gold.Chemscore.Internal.Correction.Weighted>
   9.000000E+99

> <Gold.Protein.RotatedTorsions>
[ 6907 6896 6895 6894 ] final  -32.08 input  -60.11 | X-H torsion
[ 7974 7965 7964 7962 ] final  161.27 input  175.53 | X-H torsion
[ 8008 7997 7996 7995 ] final  145.48 input   59.86 | X-H torsion
[ 10167 10162 10161 10158 ] final  -36.84 input  -65.29 | X-H torsion
[ 10718 10713 10712 10709 ] final -111.20 input   66.30 | X-H torsion
[ 10763 10752 10751 10750 ] final -175.23 input  -60.55 | X-H torsion
[ 11005 11000 10999 10996 ] final -174.91 input  -57.11 | X-H torsion

> <Gold.Protein.ActiveResidues>
 VAL166  LYS551  ARG553  GLY616  TRP617  ASP618  TYR619  PRO620  LYS621  CYS622 
 ASP623  PHE694  ASN695  SER759  ASP760  ASP761  ALA762  ILE779  LEU786  VAL792 
 PHE793  MET794  SER795  GLU796  ALA797  LYS798  CYS799  TRP800  GLU811  SER814 

> <Gold.Protein.RotatedAtoms>
  151.0836  134.9873  159.8367 H   0  0  0  0  0  0  0  0  0  0  0  0  # atno 6907 bound_to 6896
  152.5422  134.2152  159.8776 H   0  0  0  0  0  0  0  0  0  0  0  0  # atno 6908 bound_to 6896
  151.2183  133.4473  159.2633 H   0  0  0  0  0  0  0  0  0  0  0  0  # atno 6909 bound_to 6896
  144.7694  139.7874  143.6303 H   0  0  0  0  0  0  0  0  0  0  0  0  # atno 7974 bound_to 7965
  156.2882  140.2208  156.5222 H   0  0  0  0  0  0  0  0  0  0  0  0  # atno 8008 bound_to 7997
  154.7519  140.0479  157.0923 H   0  0  0  0  0  0  0  0  0  0  0  0  # atno 8009 bound_to 7997
  155.0099  140.3111  155.4837 H   0  0  0  0  0  0  0  0  0  0  0  0  # atno 8010 bound_to 7997
  140.7133  143.3382  151.2417 H   0  0  0  0  0  0  0  0  0  0  0  0  # atno 10167 bound_to 10162
  156.0633  130.5855  150.8341 H   0  0  0  0  0  0  0  0  0  0  0  0  # atno 10718 bound_to 10713
  154.5869  135.2841  155.0675 H   0  0  0  0  0  0  0  0  0  0  0  0  # atno 10763 bound_to 10752
  154.1991  135.6427  153.5085 H   0  0  0  0  0  0  0  0  0  0  0  0  # atno 10764 bound_to 10752
  153.0107  135.5464  154.6542 H   0  0  0  0  0  0  0  0  0  0  0  0  # atno 10765 bound_to 10752
  140.4692  134.6181  157.4875 H   0  0  0  0  0  0  0  0  0  0  0  0  # atno 11005 bound_to 11000
  146.1829  139.5030  142.9855 LP  0  0  0  0  0  0  0  0  0  0  0  0  # atno 17320 bound_to 7965
  145.6370  141.0292  143.1832 LP  0  0  0  0  0  0  0  0  0  0  0  0  # atno 17321 bound_to 7965
  139.6882  143.9737  152.2845 LP  0  0  0  0  0  0  0  0  0  0  0  0  # atno 17342 bound_to 10162
  139.9390  144.6694  150.8286 LP  0  0  0  0  0  0  0  0  0  0  0  0  # atno 17343 bound_to 10162
  157.5658  131.0946  150.9492 LP  0  0  0  0  0  0  0  0  0  0  0  0  # atno 17370 bound_to 10713
  156.9719  130.5494  149.5291 LP  0  0  0  0  0  0  0  0  0  0  0  0  # atno 17371 bound_to 10713
  139.9896  134.7007  155.9713 LP  0  0  0  0  0  0  0  0  0  0  0  0  # atno 17394 bound_to 11000
  141.1585  133.6540  156.4240 LP  0  0  0  0  0  0  0  0  0  0  0  0  # atno 17395 bound_to 11000

$$$$
