AV-unprocessed.smi:1750|AV-procd|sdf|7054|dock4
  -GOLD-   22720 8273D 1   1.00000     0.00000
 Structure written by MMmdl.
 35 36  0  0  0  0  0  0  0  0  2 V2000
  146.5310  140.1487  152.3060 C   0  0  0  0  0  0  0  0  0  0  0  0
  147.3817  139.8687  153.5494 C   0  0  0  0  0  0  0  0  0  0  0  0
  148.2822  141.0529  153.9274 C   0  0  0  0  0  0  0  0  0  0  0  0
  149.5448  140.6208  154.5953 C   0  0  0  0  0  0  0  0  0  0  0  0
  150.2667  139.5778  154.1770 N   0  0  0  0  0  0  0  0  0  0  0  0
  151.3788  139.3575  154.9767 N   0  0  0  0  0  0  0  0  0  0  0  0
  151.4669  140.2156  156.0031 C   0  0  0  0  0  0  0  0  0  0  0  0
  152.4666  140.1697  156.8993 N   0  5  0  0  0  0  0  0  0  0  0  0
  152.1897  140.2211  158.2222 C   0  0  0  0  0  0  0  0  0  0  0  0
  151.1089  139.9562  158.7539 O   0  0  0  0  0  0  0  0  0  0  0  0
  153.2274  140.6035  158.9774 N   0  0  0  0  0  0  0  0  0  0  0  0
  153.2072  140.7366  160.4288 C   0  0  0  0  0  0  0  0  0  0  0  0
  153.3145  142.2104  160.8453 C   0  0  2  0  0  0  0  0  0  0  0  0
  153.4075  142.4467  162.3512 C   0  0  0  0  0  0  0  0  0  0  0  0
  152.9274  143.8803  162.5030 C   0  0  0  0  0  0  0  0  0  0  0  0
  152.1398  144.1478  161.2157 C   0  0  0  0  0  0  0  0  0  0  0  0
  152.1322  142.9159  160.5046 O   0  0  0  0  0  0  0  0  0  0  0  0
  150.1648  141.4039  156.0392 S   0  0  0  0  0  0  0  0  0  0  0  0
  145.9077  139.2887  152.0608 H   0  0  0  0  0  0  0  0  0  0  0  0
  147.1581  140.3635  151.4404 H   0  0  0  0  0  0  0  0  0  0  0  0
  145.8723  141.0030  152.4643 H   0  0  0  0  0  0  0  0  0  0  0  0
  146.7246  139.6280  154.3859 H   0  0  0  0  0  0  0  0  0  0  0  0
  147.9952  138.9840  153.3746 H   0  0  0  0  0  0  0  0  0  0  0  0
  148.5357  141.6304  153.0374 H   0  0  0  0  0  0  0  0  0  0  0  0
  147.7506  141.7298  154.5970 H   0  0  0  0  0  0  0  0  0  0  0  0
  154.0962  140.8110  158.5078 H   0  0  0  0  0  0  0  0  0  0  0  0
  152.2831  140.3108  160.8227 H   0  0  0  0  0  0  0  0  0  0  0  0
  154.0313  140.1616  160.8539 H   0  0  0  0  0  0  0  0  0  0  0  0
  154.1596  142.6834  160.3412 H   0  0  0  0  0  0  0  0  0  0  0  0
  152.7298  141.7747  162.8795 H   0  0  0  0  0  0  0  0  0  0  0  0
  154.4125  142.2904  162.7443 H   0  0  0  0  0  0  0  0  0  0  0  0
  152.3128  144.0028  163.3955 H   0  0  0  0  0  0  0  0  0  0  0  0
  153.7707  144.5677  162.5788 H   0  0  0  0  0  0  0  0  0  0  0  0
  151.1216  144.4839  161.4128 H   0  0  0  0  0  0  0  0  0  0  0  0
  152.6374  144.9092  160.6138 H   0  0  0  0  0  0  0  0  0  0  0  0
  1  2  1  0  0  0  0
  1 19  1  0  0  0  0
  1 20  1  0  0  0  0
  1 21  1  0  0  0  0
  2  3  1  0  0  0  0
  2 22  1  0  0  0  0
  2 23  1  0  0  0  0
  3  4  1  0  0  0  0
  3 24  1  0  0  0  0
  3 25  1  0  0  0  0
  4 18  1  0  0  0  0
  4  5  2  0  0  0  0
  5  6  1  0  0  0  0
  6  7  2  0  0  0  0
  7  8  1  0  0  0  0
  7 18  1  0  0  0  0
  8  9  1  0  0  0  0
  9 10  2  0  0  0  0
  9 11  1  0  0  0  0
 11 12  1  0  0  0  0
 11 26  1  0  0  0  0
 12 13  1  0  0  0  0
 12 27  1  0  0  0  0
 12 28  1  0  0  0  0
 13 17  1  0  0  0  0
 13 14  1  0  0  0  0
 13 29  1  0  0  0  0
 14 15  1  0  0  0  0
 14 30  1  0  0  0  0
 14 31  1  0  0  0  0
 15 16  1  0  0  0  0
 15 32  1  0  0  0  0
 15 33  1  0  0  0  0
 16 17  1  0  0  0  0
 16 34  1  0  0  0  0
 16 35  1  0  0  0  0
M  CHG  1   8  -1
M  END
> <s_m_source_file>
AV-unprocessed.smi

> <i_m_source_file_index>
1750

> <i_lp_mmshare_version>
43012

> <i_f3d_flags>
0

> <s_epik_input>
W0NIM11bQ0gyXVtDSDJdYzFubmMoczEpW05IXUMoPU8pW05IXVtDSDJdW0NAQEhdMltDSDJdW0NIMl1bQ0gyXU8y

> <s_epik_cmdline>
J2VwaWtfcHl0aG9uJywgJy1waCcsICc3LjAnLCAnLXRuJywgJzgnLCAnLW1hJywgJzIwMCcsICctbWV0YWxfYmluZGluZycsICctaW1hZScsICc8aW5maWxlLm1hZT4nLCAnLW9tYWUnLCAnPG91dGZpbGUubWFlPic=

> <r_lp_tautomer_probability>
1

> <r_epik_Ionization_Penalty>
4.22484

> <r_epik_Ionization_Penalty_Charging>
4.21437

> <r_epik_Ionization_Penalty_Neutral>
0.0104685

> <r_epik_State_Penalty>
4.21389

> <r_epik_Charging_Adjusted_Penalty>
8.42826

> <i_epik_Tot_Q>
-1

> <i_epik_Tot_abs_Q>
1

> <r_epik_Metal_State_Penalty>
0.69377

> <b_epik_Metal_Only>
1

> <s_lp_Force_Field>
OPLS_2005

> <r_lp_Energy>
11.1337

> <b_lp_Chiralities_Consistent>
1

> <s_lp_Variant>
AV-unprocessed.smi:1750-3

> <Gold.Version>
5.8.1

> <Gold.Id.Protein>
6NUR|6NUR_protein|mol2

> <Gold.PLP.Fitness>
41.7279

> <Gold.PLP.PLP>
-37.5710

> <Gold.PLP.part.hbond>
-3.0000

> <Gold.PLP.part.metal>
0.0000

> <Gold.PLP.part.buried>
1.1415

> <Gold.PLP.part.nonpolar>
-35.0918

> <Gold.PLP.part.repulsive>
0.9922

> <Gold.PLP.ligand.clash>
0.0000

> <Gold.PLP.ligand.torsion>
0.9682

> <Gold.PLP.Chemscore.Hbond>
2.0000

> <Gold.PLP.Chemscore.CHOScore>
0.0000

> <Gold.PLP.Chemscore.Metal>
0.0000

> <Gold.Chemscore.Hbonds>
donor molecule, donor type, donor heavy atom, donor atom, acceptor molecule, acceptor atom, score
      P1  H  7997  8009       L1     8  2.00

> <Gold.PLP.Chemscore.Internal.Correction>
0.0933

> <Gold.Rescore>
     Score         DG    S(hbond)    S(metal)    S(lipo)     H(rot)  DE(clash)    DE(int)     intcor
     13.74     -15.28       0.89        0.00      93.10       1.59       0.51       1.04       ----

> <Gold.Chemscore.Fitness>
13.7356

> <Gold.Chemscore.DG>
-15.2849

> <Gold.Chemscore.ZeroCoef>
-5.4800

> <Gold.Chemscore.Hbond>
0.8947

> <Gold.Chemscore.Metal>
0.0000

> <Gold.Chemscore.Lipo>
93.0990

> <Gold.Chemscore.Internal_Hbond>
0.0000

> <Gold.Chemscore.DEClash>
0.5084

> <Gold.Chemscore.DEInternal>
1.0410

> <Gold.Chemscore.Rot>
1.5922

> <Gold.Chemscore.Internal.Correction>
   9.000000E+99

> <Gold.Chemscore.Hbonds>
donor molecule, donor type, donor heavy atom, donor atom, acceptor molecule, acceptor atom, score
      P1  H  7997  8009       L1     8  0.86

> <Gold.Chemscore.Hbond.Weighted>
-2.9884

> <Gold.Chemscore.Metal.Weighted>
-0.0000

> <Gold.Chemscore.Lipo.Weighted>
-10.8926

> <Gold.Chemscore.Internal_Hbond.Weighted>
0.0000

> <Gold.Chemscore.DEClash.Weighted>
0.5084

> <Gold.Chemscore.DEInternal.Weighted>
1.0410

> <Gold.Chemscore.Rot.Weighted>
4.0761

> <Gold.Chemscore.Internal.Correction.Weighted>
   9.000000E+99

> <Gold.Protein.RotatedTorsions>
[ 6907 6896 6895 6894 ] final  163.94 input  -60.11 | X-H torsion
[ 7974 7965 7964 7962 ] final  105.98 input  175.53 | X-H torsion
[ 8008 7997 7996 7995 ] final -171.03 input   59.86 | X-H torsion
[ 10167 10162 10161 10158 ] final -110.23 input  -65.29 | X-H torsion
[ 10718 10713 10712 10709 ] final  -60.14 input   66.30 | X-H torsion
[ 10763 10752 10751 10750 ] final -169.40 input  -60.55 | X-H torsion
[ 11005 11000 10999 10996 ] final   73.42 input  -57.11 | X-H torsion

> <Gold.Protein.ActiveResidues>
 VAL166  LYS551  ARG553  GLY616  TRP617  ASP618  TYR619  PRO620  LYS621  CYS622 
 ASP623  PHE694  ASN695  SER759  ASP760  ASP761  ALA762  ILE779  LEU786  VAL792 
 PHE793  MET794  SER795  GLU796  ALA797  LYS798  CYS799  TRP800  GLU811  SER814 

> <Gold.Protein.RotatedAtoms>
  151.9174  133.3577  159.3884 H   0  0  0  0  0  0  0  0  0  0  0  0  # atno 6907 bound_to 6896
  150.7044  134.4670  159.5416 H   0  0  0  0  0  0  0  0  0  0  0  0  # atno 6908 bound_to 6896
  152.2287  134.8343  160.0527 H   0  0  0  0  0  0  0  0  0  0  0  0  # atno 6909 bound_to 6896
  145.3126  139.2536  143.3755 H   0  0  0  0  0  0  0  0  0  0  0  0  # atno 7974 bound_to 7965
  155.9262  140.1083  157.1168 H   0  0  0  0  0  0  0  0  0  0  0  0  # atno 8008 bound_to 7997
  154.4062  140.1246  156.4809 H   0  0  0  0  0  0  0  0  0  0  0  0  # atno 8009 bound_to 7997
  155.7136  140.3470  155.4987 H   0  0  0  0  0  0  0  0  0  0  0  0  # atno 8010 bound_to 7997
  140.1467  143.4233  152.1524 H   0  0  0  0  0  0  0  0  0  0  0  0  # atno 10167 bound_to 10162
  156.1011  130.4186  150.0813 H   0  0  0  0  0  0  0  0  0  0  0  0  # atno 10718 bound_to 10713
  154.6527  135.2913  154.9967 H   0  0  0  0  0  0  0  0  0  0  0  0  # atno 10763 bound_to 10752
  154.1054  135.6570  153.4879 H   0  0  0  0  0  0  0  0  0  0  0  0  # atno 10764 bound_to 10752
  153.0385  135.5252  154.7442 H   0  0  0  0  0  0  0  0  0  0  0  0  # atno 10765 bound_to 10752
  139.9441  134.7345  156.1024 H   0  0  0  0  0  0  0  0  0  0  0  0  # atno 11005 bound_to 11000
  146.3112  140.3666  142.8670 LP  0  0  0  0  0  0  0  0  0  0  0  0  # atno 17320 bound_to 7965
  144.9003  140.7634  143.5871 LP  0  0  0  0  0  0  0  0  0  0  0  0  # atno 17321 bound_to 7965
  139.5445  144.7287  151.4626 LP  0  0  0  0  0  0  0  0  0  0  0  0  # atno 17342 bound_to 10162
  140.6728  143.8257  150.7020 LP  0  0  0  0  0  0  0  0  0  0  0  0  # atno 17343 bound_to 10162
  156.8800  130.9553  151.3600 LP  0  0  0  0  0  0  0  0  0  0  0  0  # atno 17370 bound_to 10713
  157.6182  130.8634  149.9063 LP  0  0  0  0  0  0  0  0  0  0  0  0  # atno 17371 bound_to 10713
  141.1086  133.6651  156.2923 LP  0  0  0  0  0  0  0  0  0  0  0  0  # atno 17394 bound_to 11000
  140.5878  134.5681  157.5493 LP  0  0  0  0  0  0  0  0  0  0  0  0  # atno 17395 bound_to 11000

$$$$
