AV-unprocessed.smi:65|AV-procd|sdf|614|dock2
  -GOLD-   2262016503D 1   1.00000     0.00000
 Structure written by MMmdl.
 25 26  0  0  0  0  0  0  0  0  1 V2000
  152.9797  138.6877  154.9760 N   0  0  0  0  0  0  0  0  0  0  0  0
  152.0878  139.5639  155.5443 C   0  0  0  0  0  0  0  0  0  0  0  0
  151.0603  139.9475  154.7842 N   0  0  0  0  0  0  0  0  0  0  0  0
  150.1848  140.8123  155.3410 C   0  0  0  0  0  0  0  0  0  0  0  0
  150.3451  141.2869  156.6588 C   0  0  0  0  0  0  0  0  0  0  0  0
  151.4645  140.8055  157.3702 C   0  0  0  0  0  0  0  0  0  0  0  0
  151.6969  141.2532  158.6797 N   0  0  0  0  0  0  0  0  0  0  0  0
  151.8738  142.6993  158.7840 C   0  0  0  0  0  0  0  0  0  0  0  0
  153.2024  142.9255  159.5099 C   0  0  0  0  0  0  0  0  0  0  0  0
  153.3449  141.6590  160.3451 C   0  0  2  0  0  0  0  0  0  0  0  0
  154.6836  141.3955  160.7073 O   0  0  0  0  0  0  0  0  0  0  0  0
  152.7723  140.5919  159.4145 C   0  0  0  0  0  0  0  0  0  0  0  0
  152.3406  139.9435  156.7986 N   0  0  0  0  0  0  0  0  0  0  0  0
  153.7787  138.3608  155.4993 H   0  0  0  0  0  0  0  0  0  0  0  0
  152.8468  138.3666  154.0281 H   0  0  0  0  0  0  0  0  0  0  0  0
  149.3520  141.1295  154.7313 H   0  0  0  0  0  0  0  0  0  0  0  0
  149.6447  141.9818  157.0983 H   0  0  0  0  0  0  0  0  0  0  0  0
  151.8606  143.2016  157.8154 H   0  0  0  0  0  0  0  0  0  0  0  0
  151.0484  143.1002  159.3731 H   0  0  0  0  0  0  0  0  0  0  0  0
  154.0098  142.9869  158.7781 H   0  0  0  0  0  0  0  0  0  0  0  0
  153.2141  143.8386  160.1056 H   0  0  0  0  0  0  0  0  0  0  0  0
  152.7307  141.7379  161.2436 H   0  0  0  0  0  0  0  0  0  0  0  0
  154.7030  141.1304  161.6142 H   0  0  0  0  0  0  0  0  0  0  0  0
  152.3915  139.7381  159.9753 H   0  0  0  0  0  0  0  0  0  0  0  0
  153.5478  140.2252  158.7409 H   0  0  0  0  0  0  0  0  0  0  0  0
  1  2  1  0  0  0  0
  1 14  1  0  0  0  0
  1 15  1  0  0  0  0
  2 13  1  0  0  0  0
  2  3  2  0  0  0  0
  3  4  1  0  0  0  0
  4  5  2  0  0  0  0
  4 16  1  0  0  0  0
  5  6  1  0  0  0  0
  5 17  1  0  0  0  0
  6  7  1  0  0  0  0
  6 13  2  0  0  0  0
  7 12  1  0  0  0  0
  7  8  1  0  0  0  0
  8  9  1  0  0  0  0
  8 18  1  0  0  0  0
  8 19  1  0  0  0  0
  9 10  1  0  0  0  0
  9 20  1  0  0  0  0
  9 21  1  0  0  0  0
 10 11  1  0  0  0  0
 10 12  1  0  0  0  0
 10 22  1  0  0  0  0
 11 23  1  0  0  0  0
 12 24  1  0  0  0  0
 12 25  1  0  0  0  0
M  END
> <s_m_source_file>
AV-unprocessed.smi

> <i_m_source_file_index>
65

> <i_lp_mmshare_version>
43012

> <i_f3d_flags>
0

> <s_epik_input>
W05IMl1jMW5bY0hdW2NIXWMobjEpTjJbQ0gyXVtDSDJdW0NAQEhdKFtPSF0pW0NIMl0y

> <s_epik_cmdline>
J2VwaWtfcHl0aG9uJywgJy1waCcsICc3LjAnLCAnLXRuJywgJzgnLCAnLW1hJywgJzIwMCcsICctbWV0YWxfYmluZGluZycsICctaW1hZScsICc8aW5maWxlLm1hZT4nLCAnLW9tYWUnLCAnPG91dGZpbGUubWFlPic=

> <r_lp_tautomer_probability>
1

> <r_epik_Ionization_Penalty>
0.99295

> <r_epik_Ionization_Penalty_Charging>
0

> <r_epik_Ionization_Penalty_Neutral>
0.99295

> <r_epik_State_Penalty>
0.750885

> <r_epik_Charging_Adjusted_Penalty>
0.750885

> <i_epik_Tot_Q>
0

> <i_epik_Tot_abs_Q>
0

> <r_epik_Metal_State_Penalty>
0.338511

> <b_epik_Metal_Only>
0

> <s_lp_Force_Field>
OPLS_2005

> <r_lp_Energy>
21.5088

> <b_lp_Chiralities_Consistent>
1

> <s_lp_Variant>
AV-unprocessed.smi:65-4

> <Gold.Version>
5.8.1

> <Gold.Id.Protein>
6NUR|6NUR_protein|mol2

> <Gold.PLP.Fitness>
32.1424

> <Gold.PLP.PLP>
-26.2349

> <Gold.PLP.part.hbond>
-3.0000

> <Gold.PLP.part.metal>
0.0000

> <Gold.PLP.part.buried>
-3.2021

> <Gold.PLP.part.nonpolar>
-20.3713

> <Gold.PLP.part.repulsive>
0.3101

> <Gold.PLP.ligand.clash>
0.0000

> <Gold.PLP.ligand.torsion>
0.0661

> <Gold.PLP.Chemscore.Hbond>
1.9913

> <Gold.PLP.Chemscore.CHOScore>
0.0000

> <Gold.PLP.Chemscore.Metal>
0.0000

> <Gold.Chemscore.Hbonds>
donor molecule, donor type, donor heavy atom, donor atom, acceptor molecule, acceptor atom, score
      P1  H  7989  7998       L1     3  1.00
      P1  H  7997  8009       L1    13  0.90

> <Gold.PLP.Chemscore.Internal.Correction>
0.0659

> <Gold.Rescore>
     Score         DG    S(hbond)    S(metal)    S(lipo)     H(rot)  DE(clash)    DE(int)     intcor
      9.58     -10.07       0.64        0.00      54.95       1.55       0.42       0.06       ----

> <Gold.Chemscore.Fitness>
9.5789

> <Gold.Chemscore.DG>
-10.0660

> <Gold.Chemscore.ZeroCoef>
-5.4800

> <Gold.Chemscore.Hbond>
0.6359

> <Gold.Chemscore.Metal>
0.0000

> <Gold.Chemscore.Lipo>
54.9492

> <Gold.Chemscore.Internal_Hbond>
0.0000

> <Gold.Chemscore.DEClash>
0.4239

> <Gold.Chemscore.DEInternal>
0.0631

> <Gold.Chemscore.Rot>
1.5496

> <Gold.Chemscore.Internal.Correction>
   9.000000E+99

> <Gold.Chemscore.Hbonds>
donor molecule, donor type, donor heavy atom, donor atom, acceptor molecule, acceptor atom, score
      P1  H  7989  7998       L1     3  0.21
      P1  H  7997  8009       L1    13  0.19

> <Gold.Chemscore.Hbond.Weighted>
-2.1239

> <Gold.Chemscore.Metal.Weighted>
-0.0000

> <Gold.Chemscore.Lipo.Weighted>
-6.4291

> <Gold.Chemscore.Internal_Hbond.Weighted>
0.0000

> <Gold.Chemscore.DEClash.Weighted>
0.4239

> <Gold.Chemscore.DEInternal.Weighted>
0.0631

> <Gold.Chemscore.Rot.Weighted>
3.9670

> <Gold.Chemscore.Internal.Correction.Weighted>
   9.000000E+99

> <Gold.Protein.RotatedTorsions>
[ 6907 6896 6895 6894 ] final -121.86 input  -60.11 | X-H torsion
[ 7974 7965 7964 7962 ] final   73.20 input  175.53 | X-H torsion
[ 8008 7997 7996 7995 ] final  176.46 input   59.86 | X-H torsion
[ 10167 10162 10161 10158 ] final  117.31 input  -65.29 | X-H torsion
[ 10718 10713 10712 10709 ] final  -20.08 input   66.30 | X-H torsion
[ 10763 10752 10751 10750 ] final  -78.08 input  -60.55 | X-H torsion
[ 11005 11000 10999 10996 ] final  128.53 input  -57.11 | X-H torsion

> <Gold.Protein.ActiveResidues>
 VAL166  LYS551  ARG553  GLY616  TRP617  ASP618  TYR619  PRO620  LYS621  CYS622 
 ASP623  PHE694  ASN695  SER759  ASP760  ASP761  ALA762  ILE779  LEU786  VAL792 
 PHE793  MET794  SER795  GLU796  ALA797  LYS798  CYS799  TRP800  GLU811  SER814 

> <Gold.Protein.RotatedAtoms>
  150.8522  133.7769  159.3021 H   0  0  0  0  0  0  0  0  0  0  0  0  # atno 6907 bound_to 6896
  151.5438  135.1066  159.9942 H   0  0  0  0  0  0  0  0  0  0  0  0  # atno 6908 bound_to 6896
  152.4562  133.7684  159.6841 H   0  0  0  0  0  0  0  0  0  0  0  0  # atno 6909 bound_to 6896
  145.7439  139.2732  143.1470 H   0  0  0  0  0  0  0  0  0  0  0  0  # atno 7974 bound_to 7965
  156.0762  140.1383  156.9768 H   0  0  0  0  0  0  0  0  0  0  0  0  # atno 8008 bound_to 7997
  154.4559  140.0961  156.6806 H   0  0  0  0  0  0  0  0  0  0  0  0  # atno 8009 bound_to 7997
  155.5149  140.3454  155.4397 H   0  0  0  0  0  0  0  0  0  0  0  0  # atno 8010 bound_to 7997
  139.6187  144.7097  151.2681 H   0  0  0  0  0  0  0  0  0  0  0  0  # atno 10167 bound_to 10162
  156.5368  130.4668  149.6519 H   0  0  0  0  0  0  0  0  0  0  0  0  # atno 10718 bound_to 10713
  154.5213  135.5742  153.6683 H   0  0  0  0  0  0  0  0  0  0  0  0  # atno 10763 bound_to 10752
  152.9918  135.6182  154.2751 H   0  0  0  0  0  0  0  0  0  0  0  0  # atno 10764 bound_to 10752
  154.2672  135.2854  155.2733 H   0  0  0  0  0  0  0  0  0  0  0  0  # atno 10765 bound_to 10752
  139.9565  134.9612  156.9015 H   0  0  0  0  0  0  0  0  0  0  0  0  # atno 11005 bound_to 11000
  146.0422  140.8154  142.9823 LP  0  0  0  0  0  0  0  0  0  0  0  0  # atno 17320 bound_to 7965
  144.6864  140.2927  143.7275 LP  0  0  0  0  0  0  0  0  0  0  0  0  # atno 17321 bound_to 7965
  140.7368  143.6697  150.8093 LP  0  0  0  0  0  0  0  0  0  0  0  0  # atno 17342 bound_to 10162
  140.0304  143.5450  152.2762 LP  0  0  0  0  0  0  0  0  0  0  0  0  # atno 17343 bound_to 10162
  156.3009  130.7176  151.2047 LP  0  0  0  0  0  0  0  0  0  0  0  0  # atno 17370 bound_to 10713
  157.7412  131.0506  150.5111 LP  0  0  0  0  0  0  0  0  0  0  0  0  # atno 17371 bound_to 10713
  140.5596  134.0547  155.7395 LP  0  0  0  0  0  0  0  0  0  0  0  0  # atno 17394 bound_to 11000
  141.1237  133.9418  157.2677 LP  0  0  0  0  0  0  0  0  0  0  0  0  # atno 17395 bound_to 11000

$$$$
