AV-unprocessed.smi:1677|AV-procd|sdf|6723|dock6
  -GOLD-   22720 7463D 1   1.00000     0.00000
 Structure written by MMmdl.
 37 38  0  0  0  0  0  0  0  0  2 V2000
  148.6617  139.2488  156.7495 C   0  0  0  0  0  0  0  0  0  0  0  0
  149.9283  139.4789  155.9091 C   0  0  1  0  0  0  0  0  0  0  0  0
  149.6348  139.6583  154.4039 C   0  0  0  0  0  0  0  0  0  0  0  0
  148.4306  140.4551  154.1498 N   0  0  0  0  0  0  0  0  0  0  0  0
  148.2278  141.7730  154.4697 C   0  0  0  0  0  0  0  0  0  0  0  0
  146.9629  142.0883  154.0445 C   0  0  0  0  0  0  0  0  0  0  0  0
  146.4463  140.9494  153.4866 N   0  3  0  0  0  0  0  0  0  0  0  0
  147.3390  139.9563  153.5547 C   0  0  0  0  0  0  0  0  0  0  0  0
  150.6384  140.6448  156.4263 N   0  0  0  0  0  0  0  0  0  0  0  0
  151.1821  140.7445  157.6497 C   0  0  0  0  0  0  0  0  0  0  0  0
  151.1558  139.8315  158.4757 O   0  0  0  0  0  0  0  0  0  0  0  0
  151.8598  142.0786  157.9891 C   0  0  1  0  0  0  0  0  0  0  0  0
  150.8983  143.2655  157.7529 C   0  0  0  0  0  0  0  0  0  0  0  0
  151.4514  144.5675  158.3047 C   0  0  0  0  0  0  0  0  0  0  0  0
  152.4649  144.6250  159.1857 C   0  0  0  0  0  0  0  0  0  0  0  0
  153.1671  143.3948  159.7336 C   0  0  0  0  0  0  0  0  0  0  0  0
  152.3902  142.0976  159.4370 C   0  0  0  0  0  0  0  0  0  0  0  0
  148.1430  138.3371  156.4529 H   0  0  0  0  0  0  0  0  0  0  0  0
  147.9623  140.0796  156.6481 H   0  0  0  0  0  0  0  0  0  0  0  0
  148.9080  139.1492  157.8074 H   0  0  0  0  0  0  0  0  0  0  0  0
  150.5656  138.6018  156.0369 H   0  0  0  0  0  0  0  0  0  0  0  0
  150.4774  140.1363  153.9015 H   0  0  0  0  0  0  0  0  0  0  0  0
  149.4883  138.6909  153.9214 H   0  0  0  0  0  0  0  0  0  0  0  0
  148.9801  142.3728  154.9618 H   0  0  0  0  0  0  0  0  0  0  0  0
  146.4062  143.0128  154.0966 H   0  0  0  0  0  0  0  0  0  0  0  0
  147.2052  138.9516  153.1947 H   0  0  0  0  0  0  0  0  0  0  0  0
  150.7094  141.4445  155.8135 H   0  0  0  0  0  0  0  0  0  0  0  0
  152.7178  142.2015  157.3251 H   0  0  0  0  0  0  0  0  0  0  0  0
  150.7203  143.3888  156.6841 H   0  0  0  0  0  0  0  0  0  0  0  0
  149.9273  143.0886  158.2182 H   0  0  0  0  0  0  0  0  0  0  0  0
  150.9823  145.4792  157.9649 H   0  0  0  0  0  0  0  0  0  0  0  0
  152.8229  145.5842  159.5299 H   0  0  0  0  0  0  0  0  0  0  0  0
  154.1616  143.3484  159.2892 H   0  0  0  0  0  0  0  0  0  0  0  0
  153.3044  143.5078  160.8092 H   0  0  0  0  0  0  0  0  0  0  0  0
  151.5529  142.0186  160.1325 H   0  0  0  0  0  0  0  0  0  0  0  0
  153.0299  141.2348  159.6282 H   0  0  0  0  0  0  0  0  0  0  0  0
  145.5221  140.8678  153.0812 H   0  0  0  0  0  0  0  0  0  0  0  0
  1  2  1  0  0  0  0
  1 18  1  0  0  0  0
  1 19  1  0  0  0  0
  1 20  1  0  0  0  0
  2  3  1  0  0  0  0
  2  9  1  0  0  0  0
  2 21  1  0  0  0  0
  3  4  1  0  0  0  0
  3 22  1  0  0  0  0
  3 23  1  0  0  0  0
  4  8  1  0  0  0  0
  4  5  1  0  0  0  0
  5  6  2  0  0  0  0
  5 24  1  0  0  0  0
  6  7  1  0  0  0  0
  6 25  1  0  0  0  0
  7  8  2  0  0  0  0
  7 37  1  0  0  0  0
  8 26  1  0  0  0  0
  9 10  1  0  0  0  0
  9 27  1  0  0  0  0
 10 11  2  0  0  0  0
 10 12  1  0  0  0  0
 12 17  1  0  0  0  0
 12 13  1  0  0  0  0
 12 28  1  0  0  0  0
 13 14  1  0  0  0  0
 13 29  1  0  0  0  0
 13 30  1  0  0  0  0
 14 15  2  0  0  0  0
 14 31  1  0  0  0  0
 15 16  1  0  0  0  0
 15 32  1  0  0  0  0
 16 17  1  0  0  0  0
 16 33  1  0  0  0  0
 16 34  1  0  0  0  0
 17 35  1  0  0  0  0
 17 36  1  0  0  0  0
M  CHG  1   7   1
M  END
> <s_m_source_file>
AV-unprocessed.smi

> <i_m_source_file_index>
1677

> <i_lp_mmshare_version>
43012

> <i_f3d_flags>
0

> <s_epik_input>
W2NIXTFuW2NIXVtjSF1uMVtDSDJdW0NAQEhdKFtDSDNdKVtOSF1DKD1PKVtDQEBIXTJbQ0gyXVtDSF09W0NIXVtDSDJdW0NIMl0y

> <s_epik_cmdline>
J2VwaWtfcHl0aG9uJywgJy1waCcsICc3LjAnLCAnLXRuJywgJzgnLCAnLW1hJywgJzIwMCcsICctbWV0YWxfYmluZGluZycsICctaW1hZScsICc8aW5maWxlLm1hZT4nLCAnLW9tYWUnLCAnPG91dGZpbGUubWFlPic=

> <r_lp_tautomer_probability>
1

> <r_epik_Ionization_Penalty>
0.245541

> <r_epik_Ionization_Penalty_Charging>
0

> <r_epik_Ionization_Penalty_Neutral>
0.245541

> <r_epik_State_Penalty>
0.236686

> <r_epik_Charging_Adjusted_Penalty>
0.236686

> <i_epik_Tot_Q>
1

> <i_epik_Tot_abs_Q>
1

> <r_epik_Metal_State_Penalty>
0.529594

> <b_epik_Metal_Only>
0

> <s_lp_Force_Field>
OPLS_2005

> <r_lp_Energy>
11.602

> <b_lp_Chiralities_Consistent>
1

> <s_lp_Variant>
AV-unprocessed.smi:1677-4

> <Gold.Version>
5.8.1

> <Gold.Id.Protein>
6NUR|6NUR_protein|mol2

> <Gold.PLP.Fitness>
45.6109

> <Gold.PLP.PLP>
-37.2405

> <Gold.PLP.part.hbond>
-1.0000

> <Gold.PLP.part.metal>
0.0000

> <Gold.PLP.part.buried>
-3.1037

> <Gold.PLP.part.nonpolar>
-32.7053

> <Gold.PLP.part.repulsive>
0.0973

> <Gold.PLP.ligand.clash>
0.0000

> <Gold.PLP.ligand.torsion>
0.3246

> <Gold.PLP.Chemscore.Hbond>
2.0000

> <Gold.PLP.Chemscore.CHOScore>
0.9932

> <Gold.PLP.Chemscore.Metal>
0.0000

> <Gold.Chemscore.Hbonds>
donor molecule, donor type, donor heavy atom, donor atom, acceptor molecule, acceptor atom, score
      L1  H     7    37       P1 10175  2.00
      L1  C     5    24       P1  8028  0.97

> <Gold.PLP.Chemscore.Internal.Correction>
0.0400

> <Gold.Rescore>
     Score         DG    S(hbond)    S(metal)    S(lipo)     H(rot)  DE(clash)    DE(int)     intcor
     14.79     -15.12       0.98        0.00      94.13       1.81       0.06       0.28       ----

> <Gold.Chemscore.Fitness>
14.7872

> <Gold.Chemscore.DG>
-15.1241

> <Gold.Chemscore.ZeroCoef>
-5.4800

> <Gold.Chemscore.Hbond>
0.9809

> <Gold.Chemscore.Metal>
0.0000

> <Gold.Chemscore.Lipo>
94.1338

> <Gold.Chemscore.Internal_Hbond>
0.0000

> <Gold.Chemscore.DEClash>
0.0557

> <Gold.Chemscore.DEInternal>
0.2812

> <Gold.Chemscore.Rot>
1.8147

> <Gold.Chemscore.Internal.Correction>
   9.000000E+99

> <Gold.Chemscore.Hbonds>
donor molecule, donor type, donor heavy atom, donor atom, acceptor molecule, acceptor atom, score
      L1  H     7    37       P1 10175  0.49

> <Gold.Chemscore.Hbond.Weighted>
-3.2761

> <Gold.Chemscore.Metal.Weighted>
-0.0000

> <Gold.Chemscore.Lipo.Weighted>
-11.0137

> <Gold.Chemscore.Internal_Hbond.Weighted>
0.0000

> <Gold.Chemscore.DEClash.Weighted>
0.0557

> <Gold.Chemscore.DEInternal.Weighted>
0.2812

> <Gold.Chemscore.Rot.Weighted>
4.6456

> <Gold.Chemscore.Internal.Correction.Weighted>
   9.000000E+99

> <Gold.Protein.RotatedTorsions>
[ 6907 6896 6895 6894 ] final   42.36 input  -60.11 | X-H torsion
[ 7974 7965 7964 7962 ] final  -16.65 input  175.53 | X-H torsion
[ 8008 7997 7996 7995 ] final   12.09 input   59.86 | X-H torsion
[ 10167 10162 10161 10158 ] final   33.45 input  -65.29 | X-H torsion
[ 10718 10713 10712 10709 ] final -170.22 input   66.30 | X-H torsion
[ 10763 10752 10751 10750 ] final  -64.81 input  -60.55 | X-H torsion
[ 11005 11000 10999 10996 ] final  -15.37 input  -57.11 | X-H torsion

> <Gold.Protein.ActiveResidues>
 VAL166  LYS551  ARG553  GLY616  TRP617  ASP618  TYR619  PRO620  LYS621  CYS622 
 ASP623  PHE694  ASN695  SER759  ASP760  ASP761  ALA762  ILE779  LEU786  VAL792 
 PHE793  MET794  SER795  GLU796  ALA797  LYS798  CYS799  TRP800  GLU811  SER814 

> <Gold.Protein.RotatedAtoms>
  152.2069  134.8537  160.0501 H   0  0  0  0  0  0  0  0  0  0  0  0  # atno 6907 bound_to 6896
  151.9370  133.3622  159.3959 H   0  0  0  0  0  0  0  0  0  0  0  0  # atno 6908 bound_to 6896
  150.6967  134.4403  159.5333 H   0  0  0  0  0  0  0  0  0  0  0  0  # atno 6909 bound_to 6896
  146.1977  140.3667  142.8434 H   0  0  0  0  0  0  0  0  0  0  0  0  # atno 7974 bound_to 7965
  154.8158  140.2876  155.5821 H   0  0  0  0  0  0  0  0  0  0  0  0  # atno 8008 bound_to 7997
  156.2993  140.2559  156.2986 H   0  0  0  0  0  0  0  0  0  0  0  0  # atno 8009 bound_to 7997
  154.9395  140.0381  157.2079 H   0  0  0  0  0  0  0  0  0  0  0  0  # atno 8010 bound_to 7997
  140.4406  144.1192  150.6173 H   0  0  0  0  0  0  0  0  0  0  0  0  # atno 10167 bound_to 10162
  156.7231  130.9277  151.3099 H   0  0  0  0  0  0  0  0  0  0  0  0  # atno 10718 bound_to 10713
  154.3356  135.6167  153.5572 H   0  0  0  0  0  0  0  0  0  0  0  0  # atno 10763 bound_to 10752
  152.9808  135.5757  154.4912 H   0  0  0  0  0  0  0  0  0  0  0  0  # atno 10764 bound_to 10752
  154.4606  135.2856  155.1692 H   0  0  0  0  0  0  0  0  0  0  0  0  # atno 10765 bound_to 10752
  140.7960  133.8251  155.9424 H   0  0  0  0  0  0  0  0  0  0  0  0  # atno 11005 bound_to 11000
  144.8616  140.7148  143.6103 LP  0  0  0  0  0  0  0  0  0  0  0  0  # atno 17320 bound_to 7965
  145.3587  139.1687  143.4395 LP  0  0  0  0  0  0  0  0  0  0  0  0  # atno 17321 bound_to 7965
  140.4322  143.2563  151.9581 LP  0  0  0  0  0  0  0  0  0  0  0  0  # atno 17342 bound_to 10162
  139.4789  144.5733  151.8053 LP  0  0  0  0  0  0  0  0  0  0  0  0  # atno 17343 bound_to 10162
  157.6890  130.9214  150.0462 LP  0  0  0  0  0  0  0  0  0  0  0  0  # atno 17370 bound_to 10713
  156.1581  130.3643  149.9339 LP  0  0  0  0  0  0  0  0  0  0  0  0  # atno 17371 bound_to 10713
  140.9343  134.1982  157.4842 LP  0  0  0  0  0  0  0  0  0  0  0  0  # atno 17394 bound_to 11000
  139.8726  134.9845  156.5244 LP  0  0  0  0  0  0  0  0  0  0  0  0  # atno 17395 bound_to 11000

$$$$
