AV-unprocessed.smi:278|AV-procd|sdf|2094|dock1
  -GOLD-   2262021373D 1   1.00000     0.00000
 Structure written by MMmdl.
 50 54  0  0  0  0  0  0  0  0  1 V2000
  153.2684  138.9825  157.7375 O   0  0  0  0  0  0  0  0  0  0  0  0
  151.8663  139.2167  157.3602 S   0  0  0  0  0  0  0  0  0  0  0  0
  150.8832  138.1231  157.4055 O   0  0  0  0  0  0  0  0  0  0  0  0
  151.2206  140.6410  158.3206 C   0  0  0  0  0  0  0  0  0  0  0  0
  151.2166  141.8401  157.3633 C   0  0  0  0  0  0  0  0  0  0  0  0
  151.0295  141.3348  155.9210 C   0  0  2  0  0  0  0  0  0  0  0  0
  149.5955  140.9055  155.5920 C   0  0  0  0  0  0  0  0  0  0  0  0
  149.7324  139.8698  154.5779 N   0  0  0  0  0  0  0  0  0  0  0  0
  148.6565  139.1654  154.1384 C   0  0  0  0  0  0  0  0  0  0  0  0
  147.7443  139.7921  153.3481 N   0  0  0  0  0  0  0  0  0  0  0  0
  146.6739  139.1358  152.8918 C   0  0  0  0  0  0  0  0  0  0  0  0
  146.3270  137.8641  153.0938 N   0  0  0  0  0  0  0  0  0  0  0  0
  147.2419  137.2228  153.8750 C   0  0  0  0  0  0  0  0  0  0  0  0
  148.4236  137.7892  154.4345 C   0  0  0  0  0  0  0  0  0  0  0  0
  149.1057  136.8174  155.1603 N   0  0  0  0  0  0  0  0  0  0  0  0
  148.3691  135.7470  155.0424 C   0  0  0  0  0  0  0  0  0  0  0  0
  147.2321  135.9017  154.2845 N   0  0  0  0  0  0  0  0  0  0  0  0
  146.2410  134.8849  153.9815 C   0  0  0  0  0  0  0  0  0  0  0  0
  146.5190  134.1786  152.6401 C   0  0  1  0  0  0  0  0  0  0  0  0
  147.8424  133.6775  152.6017 O   0  0  0  0  0  0  0  0  0  0  0  0
  145.5139  133.0500  152.3350 C   0  0  1  0  0  0  0  0  0  0  0  0
  144.0980  133.5039  151.9390 C   0  0  0  0  0  0  0  0  0  0  0  0
  143.8936  132.8894  150.5658 C   0  0  0  0  0  0  0  0  0  0  0  0
  144.8599  131.7123  150.5784 C   0  0  0  0  0  0  0  0  0  0  0  0
  145.9850  132.2302  151.2687 O   0  0  0  0  0  0  0  0  0  0  0  0
  151.0505  139.2540  154.6546 C   0  0  0  0  0  0  0  0  0  0  0  0
  151.8288  140.0469  155.7147 C   0  0  2  0  0  0  0  0  0  0  0  0
  151.3472  142.0893  155.2000 H   0  0  0  0  0  0  0  0  0  0  0  0
  152.8576  140.2452  155.4133 H   0  0  0  0  0  0  0  0  0  0  0  0
  150.2075  140.3976  158.6412 H   0  0  0  0  0  0  0  0  0  0  0  0
  151.8332  140.8065  159.2069 H   0  0  0  0  0  0  0  0  0  0  0  0
  150.4604  142.5754  157.6398 H   0  0  0  0  0  0  0  0  0  0  0  0
  152.1829  142.3411  157.4306 H   0  0  0  0  0  0  0  0  0  0  0  0
  149.0981  140.4869  156.4678 H   0  0  0  0  0  0  0  0  0  0  0  0
  149.0006  141.7445  155.2300 H   0  0  0  0  0  0  0  0  0  0  0  0
  146.0001  139.7120  152.2751 H   0  0  0  0  0  0  0  0  0  0  0  0
  148.6396  134.8080  155.5030 H   0  0  0  0  0  0  0  0  0  0  0  0
  146.2207  134.1645  154.8002 H   0  0  0  0  0  0  0  0  0  0  0  0
  145.2601  135.3614  153.9605 H   0  0  0  0  0  0  0  0  0  0  0  0
  146.4441  134.9164  151.8403 H   0  0  0  0  0  0  0  0  0  0  0  0
  148.4253  134.3940  152.4011 H   0  0  0  0  0  0  0  0  0  0  0  0
  145.4323  132.4093  153.2147 H   0  0  0  0  0  0  0  0  0  0  0  0
  143.3696  133.1030  152.6448 H   0  0  0  0  0  0  0  0  0  0  0  0
  143.9735  134.5872  151.9214 H   0  0  0  0  0  0  0  0  0  0  0  0
  142.8613  132.5928  150.3786 H   0  0  0  0  0  0  0  0  0  0  0  0
  144.1896  133.6009  149.7940 H   0  0  0  0  0  0  0  0  0  0  0  0
  144.4438  130.8707  151.1344 H   0  0  0  0  0  0  0  0  0  0  0  0
  145.1234  131.3706  149.5773 H   0  0  0  0  0  0  0  0  0  0  0  0
  151.0013  138.1913  154.8924 H   0  0  0  0  0  0  0  0  0  0  0  0
  151.5340  139.3551  153.6827 H   0  0  0  0  0  0  0  0  0  0  0  0
  1  2  2  0  0  0  0
  2 27  1  0  0  0  0
  2  3  2  0  0  0  0
  2  4  1  0  0  0  0
  4  5  1  0  0  0  0
  4 30  1  0  0  0  0
  4 31  1  0  0  0  0
  5  6  1  0  0  0  0
  5 32  1  0  0  0  0
  5 33  1  0  0  0  0
  6 28  1  0  0  0  0
  6 27  1  0  0  0  0
  6  7  1  0  0  0  0
  7  8  1  0  0  0  0
  7 34  1  0  0  0  0
  7 35  1  0  0  0  0
  8  9  1  0  0  0  0
  8 26  1  0  0  0  0
  9 14  1  0  0  0  0
  9 10  2  0  0  0  0
 10 11  1  0  0  0  0
 11 12  2  0  0  0  0
 11 36  1  0  0  0  0
 12 13  1  0  0  0  0
 13 17  1  0  0  0  0
 13 14  2  0  0  0  0
 14 15  1  0  0  0  0
 15 16  2  0  0  0  0
 16 17  1  0  0  0  0
 16 37  1  0  0  0  0
 17 18  1  0  0  0  0
 18 19  1  0  0  0  0
 18 38  1  0  0  0  0
 18 39  1  0  0  0  0
 19 20  1  0  0  0  0
 19 21  1  0  0  0  0
 19 40  1  0  0  0  0
 20 41  1  0  0  0  0
 21 25  1  0  0  0  0
 21 22  1  0  0  0  0
 21 42  1  0  0  0  0
 22 23  1  0  0  0  0
 22 43  1  0  0  0  0
 22 44  1  0  0  0  0
 23 24  1  0  0  0  0
 23 45  1  0  0  0  0
 23 46  1  0  0  0  0
 24 25  1  0  0  0  0
 24 47  1  0  0  0  0
 24 48  1  0  0  0  0
 26 27  1  0  0  0  0
 26 49  1  0  0  0  0
 26 50  1  0  0  0  0
 27 29  1  0  0  0  0
M  END
> <s_m_source_file>
AV-unprocessed.smi

> <i_m_source_file_index>
278

> <i_lp_mmshare_version>
43012

> <i_f3d_flags>
0

> <s_epik_input>
W0NIMl0xW0NIMl1TKD1PKSg9TylbQ0BASF0oW0NAQEhdMTIpW0NIMl1OKFtDSDJdMiljKG5bY0hdbjMpYyhjMzQpbltjSF1uNFtDSDJdW0NASF0oW09IXSlbQ0BASF01W0NIMl1bQ0gyXVtDSDJdTzU=

> <s_epik_cmdline>
J2VwaWtfcHl0aG9uJywgJy1waCcsICc3LjAnLCAnLXRuJywgJzgnLCAnLW1hJywgJzIwMCcsICctbWV0YWxfYmluZGluZycsICctaW1hZScsICc8aW5maWxlLm1hZT4nLCAnLW9tYWUnLCAnPG91dGZpbGUubWFlPic=

> <r_lp_tautomer_probability>
1

> <r_epik_Ionization_Penalty>
0.000636766

> <r_epik_Ionization_Penalty_Charging>
0

> <r_epik_Ionization_Penalty_Neutral>
0.000636766

> <r_epik_State_Penalty>
0.000329976

> <r_epik_Charging_Adjusted_Penalty>
0.000329976

> <i_epik_Tot_Q>
0

> <i_epik_Tot_abs_Q>
0

> <r_epik_Metal_State_Penalty>
-0

> <b_epik_Metal_Only>
0

> <s_lp_Force_Field>
OPLS_2005

> <r_lp_Energy>
51.0774

> <b_lp_Chiralities_Consistent>
1

> <s_lp_Variant>
AV-unprocessed.smi:278-8

> <Gold.Version>
5.8.1

> <Gold.Id.Protein>
6NUR|6NUR_protein|mol2

> <Gold.PLP.Fitness>
41.0759

> <Gold.PLP.PLP>
-34.9449

> <Gold.PLP.part.hbond>
-2.0000

> <Gold.PLP.part.metal>
0.0000

> <Gold.PLP.part.buried>
-3.7583

> <Gold.PLP.part.nonpolar>
-30.8605

> <Gold.PLP.part.repulsive>
1.4017

> <Gold.PLP.ligand.clash>
0.0000

> <Gold.PLP.ligand.torsion>
1.5687

> <Gold.PLP.Chemscore.Hbond>
2.0000

> <Gold.PLP.Chemscore.CHOScore>
1.0000

> <Gold.PLP.Chemscore.Metal>
0.0000

> <Gold.Chemscore.Hbonds>
donor molecule, donor type, donor heavy atom, donor atom, acceptor molecule, acceptor atom, score
      L1  H    20    41       P1  7948  0.60
      P1  H  7997  8008       L1     1  1.00
      L1  C    11    36       P1 10175  1.00

> <Gold.PLP.Chemscore.Internal.Correction>
0.2684

> <Gold.Rescore>
     Score         DG    S(hbond)    S(metal)    S(lipo)     H(rot)  DE(clash)    DE(int)     intcor
     11.74     -13.24       1.44        0.00      71.92       2.13       0.02       1.48       ----

> <Gold.Chemscore.Fitness>
11.7391

> <Gold.Chemscore.DG>
-13.2351

> <Gold.Chemscore.ZeroCoef>
-5.4800

> <Gold.Chemscore.Hbond>
1.4387

> <Gold.Chemscore.Metal>
0.0000

> <Gold.Chemscore.Lipo>
71.9180

> <Gold.Chemscore.Internal_Hbond>
0.0000

> <Gold.Chemscore.DEClash>
0.0178

> <Gold.Chemscore.DEInternal>
1.4782

> <Gold.Chemscore.Rot>
2.1346

> <Gold.Chemscore.Internal.Correction>
   9.000000E+99

> <Gold.Chemscore.Hbonds>
donor molecule, donor type, donor heavy atom, donor atom, acceptor molecule, acceptor atom, score
      L1  H    20    41       P1  7948  0.04
      P1  H  7997  8008       L1     1  0.98

> <Gold.Chemscore.Hbond.Weighted>
-4.8053

> <Gold.Chemscore.Metal.Weighted>
-0.0000

> <Gold.Chemscore.Lipo.Weighted>
-8.4144

> <Gold.Chemscore.Internal_Hbond.Weighted>
0.0000

> <Gold.Chemscore.DEClash.Weighted>
0.0178

> <Gold.Chemscore.DEInternal.Weighted>
1.4782

> <Gold.Chemscore.Rot.Weighted>
5.4646

> <Gold.Chemscore.Internal.Correction.Weighted>
   9.000000E+99

> <Gold.Protein.RotatedTorsions>
[ 6907 6896 6895 6894 ] final   79.57 input  -60.11 | X-H torsion
[ 7974 7965 7964 7962 ] final   25.03 input  175.53 | X-H torsion
[ 8008 7997 7996 7995 ] final  -87.07 input   59.86 | X-H torsion
[ 10167 10162 10161 10158 ] final  -64.93 input  -65.29 | X-H torsion
[ 10718 10713 10712 10709 ] final  -47.73 input   66.30 | X-H torsion
[ 10763 10752 10751 10750 ] final  148.45 input  -60.55 | X-H torsion
[ 11005 11000 10999 10996 ] final   50.09 input  -57.11 | X-H torsion

> <Gold.Protein.ActiveResidues>
 VAL166  LYS551  ARG553  GLY616  TRP617  ASP618  TYR619  PRO620  LYS621  CYS622 
 ASP623  PHE694  ASN695  SER759  ASP760  ASP761  ALA762  ILE779  LEU786  VAL792 
 PHE793  MET794  SER795  GLU796  ALA797  LYS798  CYS799  TRP800  GLU811  SER814 

> <Gold.Protein.RotatedAtoms>
  152.5203  134.3491  159.9244 H   0  0  0  0  0  0  0  0  0  0  0  0  # atno 6907 bound_to 6896
  151.3442  133.3944  159.2681 H   0  0  0  0  0  0  0  0  0  0  0  0  # atno 6908 bound_to 6896
  150.9779  134.9158  159.7884 H   0  0  0  0  0  0  0  0  0  0  0  0  # atno 6909 bound_to 6896
  146.1909  139.7522  142.8833 H   0  0  0  0  0  0  0  0  0  0  0  0  # atno 7974 bound_to 7965
  154.6591  140.0570  157.0041 H   0  0  0  0  0  0  0  0  0  0  0  0  # atno 8008 bound_to 7997
  155.1256  140.3251  155.4468 H   0  0  0  0  0  0  0  0  0  0  0  0  # atno 8009 bound_to 7997
  156.2610  140.1990  156.6377 H   0  0  0  0  0  0  0  0  0  0  0  0  # atno 8010 bound_to 7997
  140.5766  143.2322  151.6430 H   0  0  0  0  0  0  0  0  0  0  0  0  # atno 10167 bound_to 10162
  156.2056  130.4158  149.9182 H   0  0  0  0  0  0  0  0  0  0  0  0  # atno 10718 bound_to 10713
  154.0549  135.2878  155.3334 H   0  0  0  0  0  0  0  0  0  0  0  0  # atno 10763 bound_to 10752
  154.6845  135.5250  153.8311 H   0  0  0  0  0  0  0  0  0  0  0  0  # atno 10764 bound_to 10752
  153.0545  135.6590  154.0742 H   0  0  0  0  0  0  0  0  0  0  0  0  # atno 10765 bound_to 10752
  140.1047  134.5034  155.8731 H   0  0  0  0  0  0  0  0  0  0  0  0  # atno 11005 bound_to 11000
  145.3797  141.0356  143.3185 LP  0  0  0  0  0  0  0  0  0  0  0  0  # atno 17320 bound_to 7965
  144.8484  139.5360  143.6868 LP  0  0  0  0  0  0  0  0  0  0  0  0  # atno 17321 bound_to 7965
  139.5146  144.3406  152.0744 LP  0  0  0  0  0  0  0  0  0  0  0  0  # atno 17342 bound_to 10162
  140.2550  144.4128  150.6207 LP  0  0  0  0  0  0  0  0  0  0  0  0  # atno 17343 bound_to 10162
  156.6877  130.8883  151.3584 LP  0  0  0  0  0  0  0  0  0  0  0  0  # atno 17370 bound_to 10713
  157.7010  130.9333  150.0787 LP  0  0  0  0  0  0  0  0  0  0  0  0  # atno 17371 bound_to 10713
  141.2115  133.6707  156.6587 LP  0  0  0  0  0  0  0  0  0  0  0  0  # atno 17394 bound_to 11000
  140.3172  134.8038  157.4223 LP  0  0  0  0  0  0  0  0  0  0  0  0  # atno 17395 bound_to 11000

$$$$
