AV-unprocessed.smi:265|AV-procd|sdf|2018|dock10
  -GOLD-   2262021223D 1   1.00000     0.00000
 Structure written by MMmdl.
 52 56  0  0  0  0  0  0  0  0  1 V2000
  151.2898  140.4972  158.0285 C   0  0  0  0  0  0  0  0  0  0  0  0
  151.7170  140.2227  156.5781 C   0  0  1  0  0  0  0  0  0  0  0  0
  152.8709  139.3863  156.6223 O   0  0  0  0  0  0  0  0  0  0  0  0
  152.8716  138.5365  155.4888 C   0  0  0  0  0  0  0  0  0  0  0  0
  151.4021  138.1703  155.3523 C   0  0  0  0  0  0  0  0  0  0  0  0
  150.6909  139.4812  155.6753 C   0  0  2  0  0  0  0  0  0  0  0  0
  150.5690  140.2191  154.4701 O   0  0  0  0  0  0  0  0  0  0  0  0
  149.2682  139.2887  156.2628 C   0  0  0  0  0  0  0  0  0  0  0  0
  148.4456  138.3640  155.4972 N   0  0  0  0  0  0  0  0  0  0  0  0
  147.3819  138.6894  154.6865 C   0  0  0  0  0  0  0  0  0  0  0  0
  146.7985  137.6795  154.1015 N   0  0  0  0  0  0  0  0  0  0  0  0
  147.5075  136.5713  154.5499 C   0  0  0  0  0  0  0  0  0  0  0  0
  147.4118  135.1711  154.3111 C   0  0  0  0  0  0  0  0  0  0  0  0
  146.4593  134.6283  153.5117 N   0  0  0  0  0  0  0  0  0  0  0  0
  145.2252  135.3936  153.3022 C   0  0  0  0  0  0  0  0  0  0  0  0
  144.1217  134.5165  152.6804 C   0  0  0  0  0  0  0  0  0  0  0  0
  144.6454  133.8442  151.4045 C   0  0  2  0  0  0  0  0  0  0  0  0
  143.6992  132.9441  150.8476 O   0  0  0  0  0  0  0  0  0  0  0  0
  144.0946  132.4212  149.5744 C   0  0  0  0  0  0  0  0  0  0  0  0
  145.5557  131.9230  149.5591 C   0  0  0  0  0  0  0  0  0  0  0  0
  145.9570  131.2318  148.6259 O   0  0  0  0  0  0  0  0  0  0  0  0
  146.3656  132.3022  150.5611 N   0  0  0  0  0  0  0  0  0  0  0  0
  145.8952  133.0160  151.7404 C   0  0  1  0  0  0  0  0  0  0  0  0
  146.9799  133.9246  152.3374 C   0  0  0  0  0  0  0  0  0  0  0  0
  148.3211  134.3679  154.9258 N   0  0  0  0  0  0  0  0  0  0  0  0
  149.2500  134.8928  155.7304 C   0  0  0  0  0  0  0  0  0  0  0  0
  149.4486  136.1724  156.0518 N   0  0  0  0  0  0  0  0  0  0  0  0
  148.5491  136.9854  155.4273 C   0  0  0  0  0  0  0  0  0  0  0  0
  144.8818  134.6193  150.6718 H   0  0  0  0  0  0  0  0  0  0  0  0
  145.6326  132.2582  152.4811 H   0  0  0  0  0  0  0  0  0  0  0  0
  150.4166  141.1481  158.0713 H   0  0  0  0  0  0  0  0  0  0  0  0
  152.0910  140.9930  158.5768 H   0  0  0  0  0  0  0  0  0  0  0  0
  151.0548  139.5737  158.5583 H   0  0  0  0  0  0  0  0  0  0  0  0
  152.0112  141.1700  156.1223 H   0  0  0  0  0  0  0  0  0  0  0  0
  153.2257  139.0842  154.6143 H   0  0  0  0  0  0  0  0  0  0  0  0
  153.5119  137.6668  155.6376 H   0  0  0  0  0  0  0  0  0  0  0  0
  151.1487  137.7567  154.3752 H   0  0  0  0  0  0  0  0  0  0  0  0
  151.1617  137.4184  156.1045 H   0  0  0  0  0  0  0  0  0  0  0  0
  149.6623  140.2082  154.2039 H   0  0  0  0  0  0  0  0  0  0  0  0
  149.3220  138.9155  157.2856 H   0  0  0  0  0  0  0  0  0  0  0  0
  148.7452  140.2449  156.3093 H   0  0  0  0  0  0  0  0  0  0  0  0
  147.0546  139.7080  154.5370 H   0  0  0  0  0  0  0  0  0  0  0  0
  144.8725  135.8005  154.2510 H   0  0  0  0  0  0  0  0  0  0  0  0
  145.4360  136.2401  152.6471 H   0  0  0  0  0  0  0  0  0  0  0  0
  143.8070  133.7575  153.3979 H   0  0  0  0  0  0  0  0  0  0  0  0
  143.2421  135.1204  152.4568 H   0  0  0  0  0  0  0  0  0  0  0  0
  143.4238  131.6066  149.3003 H   0  0  0  0  0  0  0  0  0  0  0  0
  143.9839  133.1983  148.8174 H   0  0  0  0  0  0  0  0  0  0  0  0
  147.3319  132.0099  150.5421 H   0  0  0  0  0  0  0  0  0  0  0  0
  147.3020  134.6617  151.6003 H   0  0  0  0  0  0  0  0  0  0  0  0
  147.8560  133.3268  152.5862 H   0  0  0  0  0  0  0  0  0  0  0  0
  149.9297  134.1858  156.1827 H   0  0  0  0  0  0  0  0  0  0  0  0
  1  2  1  0  0  0  0
  1 31  1  0  0  0  0
  1 32  1  0  0  0  0
  1 33  1  0  0  0  0
  2  6  1  0  0  0  0
  2  3  1  0  0  0  0
  2 34  1  0  0  0  0
  3  4  1  0  0  0  0
  4  5  1  0  0  0  0
  4 35  1  0  0  0  0
  4 36  1  0  0  0  0
  5  6  1  0  0  0  0
  5 37  1  0  0  0  0
  5 38  1  0  0  0  0
  6  7  1  0  0  0  0
  6  8  1  0  0  0  0
  7 39  1  0  0  0  0
  8  9  1  0  0  0  0
  8 40  1  0  0  0  0
  8 41  1  0  0  0  0
  9 28  1  0  0  0  0
  9 10  1  0  0  0  0
 10 11  2  0  0  0  0
 10 42  1  0  0  0  0
 11 12  1  0  0  0  0
 12 28  2  0  0  0  0
 12 13  1  0  0  0  0
 13 14  1  0  0  0  0
 13 25  2  0  0  0  0
 14 24  1  0  0  0  0
 14 15  1  0  0  0  0
 15 16  1  0  0  0  0
 15 43  1  0  0  0  0
 15 44  1  0  0  0  0
 16 17  1  0  0  0  0
 16 45  1  0  0  0  0
 16 46  1  0  0  0  0
 17 29  1  0  0  0  0
 17 23  1  0  0  0  0
 17 18  1  0  0  0  0
 18 19  1  0  0  0  0
 19 20  1  0  0  0  0
 19 47  1  0  0  0  0
 19 48  1  0  0  0  0
 20 21  2  0  0  0  0
 20 22  1  0  0  0  0
 22 23  1  0  0  0  0
 22 49  1  0  0  0  0
 23 30  1  0  0  0  0
 23 24  1  0  0  0  0
 24 50  1  0  0  0  0
 24 51  1  0  0  0  0
 25 26  1  0  0  0  0
 26 27  2  0  0  0  0
 26 52  1  0  0  0  0
 27 28  1  0  0  0  0
M  END
> <s_m_source_file>
AV-unprocessed.smi

> <i_m_source_file_index>
265

> <i_lp_mmshare_version>
43012

> <i_f3d_flags>
0

> <s_epik_input>
W0NIMl0xW0NIMl1PW0NAQEhdKFtDSDNdKVtDQEBdMShbT0hdKVtDSDJdbihbY0hdbjIpYyhjMjMpbltjSF1uYzNOKFtDSDJdW0NIMl00KVtDSDJdW0NAQEhdKFtDQEhdNDUpW05IXUMoPU8pW0NIMl1PNQ==

> <s_epik_cmdline>
J2VwaWtfcHl0aG9uJywgJy1waCcsICc3LjAnLCAnLXRuJywgJzgnLCAnLW1hJywgJzIwMCcsICctbWV0YWxfYmluZGluZycsICctaW1hZScsICc8aW5maWxlLm1hZT4nLCAnLW9tYWUnLCAnPG91dGZpbGUubWFlPic=

> <r_lp_tautomer_probability>
1

> <r_epik_Ionization_Penalty>
0.00221504

> <r_epik_Ionization_Penalty_Charging>
0

> <r_epik_Ionization_Penalty_Neutral>
0.00221504

> <r_epik_State_Penalty>
-0

> <r_epik_Charging_Adjusted_Penalty>
0

> <i_epik_Tot_Q>
0

> <i_epik_Tot_abs_Q>
0

> <r_epik_Metal_State_Penalty>
-0

> <b_epik_Metal_Only>
0

> <s_lp_Force_Field>
OPLS_2005

> <r_lp_Energy>
44.0648

> <b_lp_Chiralities_Consistent>
1

> <s_lp_Variant>
AV-unprocessed.smi:265-4

> <Gold.Version>
5.8.1

> <Gold.Id.Protein>
6NUR|6NUR_protein|mol2

> <Gold.PLP.Fitness>
38.6819

> <Gold.PLP.PLP>
-30.4475

> <Gold.PLP.part.hbond>
-4.5937

> <Gold.PLP.part.metal>
0.0000

> <Gold.PLP.part.buried>
0.1732

> <Gold.PLP.part.nonpolar>
-26.0791

> <Gold.PLP.part.repulsive>
0.8874

> <Gold.PLP.ligand.clash>
0.0000

> <Gold.PLP.ligand.torsion>
0.5812

> <Gold.PLP.Chemscore.Hbond>
2.9913

> <Gold.PLP.Chemscore.CHOScore>
0.0000

> <Gold.PLP.Chemscore.Metal>
0.0000

> <Gold.Chemscore.Hbonds>
donor molecule, donor type, donor heavy atom, donor atom, acceptor molecule, acceptor atom, score
      L1  H    22    49       P1 10747  1.00
      P1  H  7989  7998       L1     7  1.00
      P1  H  7997  8010       L1     3  1.00

> <Gold.PLP.Chemscore.Internal.Correction>
0.4231

> <Gold.Rescore>
     Score         DG    S(hbond)    S(metal)    S(lipo)     H(rot)  DE(clash)    DE(int)     intcor
     11.20     -16.02       2.45        0.00      69.15       2.25       1.73       3.08       ----

> <Gold.Chemscore.Fitness>
11.2017

> <Gold.Chemscore.DG>
-16.0163

> <Gold.Chemscore.ZeroCoef>
-5.4800

> <Gold.Chemscore.Hbond>
2.4532

> <Gold.Chemscore.Metal>
0.0000

> <Gold.Chemscore.Lipo>
69.1486

> <Gold.Chemscore.Internal_Hbond>
0.0000

> <Gold.Chemscore.DEClash>
1.7328

> <Gold.Chemscore.DEInternal>
3.0818

> <Gold.Chemscore.Rot>
2.2453

> <Gold.Chemscore.Internal.Correction>
   9.000000E+99

> <Gold.Chemscore.Hbonds>
donor molecule, donor type, donor heavy atom, donor atom, acceptor molecule, acceptor atom, score
      L1  H    22    49       P1 10747  0.94
      P1  H  7989  7998       L1     7  0.93
      P1  H  7997  8010       L1     3  0.59

> <Gold.Chemscore.Hbond.Weighted>
-8.1938

> <Gold.Chemscore.Metal.Weighted>
-0.0000

> <Gold.Chemscore.Lipo.Weighted>
-8.0904

> <Gold.Chemscore.Internal_Hbond.Weighted>
0.0000

> <Gold.Chemscore.DEClash.Weighted>
1.7328

> <Gold.Chemscore.DEInternal.Weighted>
3.0818

> <Gold.Chemscore.Rot.Weighted>
5.7479

> <Gold.Chemscore.Internal.Correction.Weighted>
   9.000000E+99

> <Gold.Protein.RotatedTorsions>
[ 6907 6896 6895 6894 ] final  -17.66 input  -60.11 | X-H torsion
[ 7974 7965 7964 7962 ] final -148.35 input  175.53 | X-H torsion
[ 8008 7997 7996 7995 ] final   52.92 input   59.86 | X-H torsion
[ 10167 10162 10161 10158 ] final  -15.81 input  -65.29 | X-H torsion
[ 10718 10713 10712 10709 ] final   76.79 input   66.30 | X-H torsion
[ 10763 10752 10751 10750 ] final -139.07 input  -60.55 | X-H torsion
[ 11005 11000 10999 10996 ] final   96.43 input  -57.11 | X-H torsion

> <Gold.Protein.ActiveResidues>
 VAL166  LYS551  ARG553  GLY616  TRP617  ASP618  TYR619  PRO620  LYS621  CYS622 
 ASP623  PHE694  ASN695  SER759  ASP760  ASP761  ALA762  ILE779  LEU786  VAL792 
 PHE793  MET794  SER795  GLU796  ALA797  LYS798  CYS799  TRP800  GLU811  SER814 

> <Gold.Protein.RotatedAtoms>
  151.2900  135.0739  159.9200 H   0  0  0  0  0  0  0  0  0  0  0  0  # atno 6907 bound_to 6896
  152.5318  133.9941  159.7875 H   0  0  0  0  0  0  0  0  0  0  0  0  # atno 6908 bound_to 6896
  151.0210  133.5826  159.2702 H   0  0  0  0  0  0  0  0  0  0  0  0  # atno 6909 bound_to 6896
  144.8035  140.5208  143.5691 H   0  0  0  0  0  0  0  0  0  0  0  0  # atno 7974 bound_to 7965
  155.4598  140.3461  155.4311 H   0  0  0  0  0  0  0  0  0  0  0  0  # atno 8008 bound_to 7997
  156.1168  140.1476  156.9291 H   0  0  0  0  0  0  0  0  0  0  0  0  # atno 8009 bound_to 7997
  154.4794  140.0874  156.7321 H   0  0  0  0  0  0  0  0  0  0  0  0  # atno 8010 bound_to 7997
  140.7224  143.5180  150.9668 H   0  0  0  0  0  0  0  0  0  0  0  0  # atno 10167 bound_to 10162
  157.6686  130.9791  150.1547 H   0  0  0  0  0  0  0  0  0  0  0  0  # atno 10718 bound_to 10713
  154.8619  135.3593  154.5488 H   0  0  0  0  0  0  0  0  0  0  0  0  # atno 10763 bound_to 10752
  153.6107  135.7009  153.5353 H   0  0  0  0  0  0  0  0  0  0  0  0  # atno 10764 bound_to 10752
  153.3212  135.4151  155.1379 H   0  0  0  0  0  0  0  0  0  0  0  0  # atno 10765 bound_to 10752
  139.8782  134.8950  156.4157 H   0  0  0  0  0  0  0  0  0  0  0  0  # atno 11005 bound_to 11000
  145.5495  139.1476  143.3402 LP  0  0  0  0  0  0  0  0  0  0  0  0  # atno 17320 bound_to 7965
  146.2321  140.5633  142.8970 LP  0  0  0  0  0  0  0  0  0  0  0  0  # atno 17321 bound_to 7965
  139.8896  143.6969  152.3147 LP  0  0  0  0  0  0  0  0  0  0  0  0  # atno 17342 bound_to 10162
  139.7281  144.7588  151.0847 LP  0  0  0  0  0  0  0  0  0  0  0  0  # atno 17343 bound_to 10162
  156.2338  130.3684  149.8415 LP  0  0  0  0  0  0  0  0  0  0  0  0  # atno 17370 bound_to 10713
  156.6234  130.8636  151.3480 LP  0  0  0  0  0  0  0  0  0  0  0  0  # atno 17371 bound_to 10713
  140.9169  133.7672  155.9859 LP  0  0  0  0  0  0  0  0  0  0  0  0  # atno 17394 bound_to 11000
  140.8483  134.2984  157.5286 LP  0  0  0  0  0  0  0  0  0  0  0  0  # atno 17395 bound_to 11000

$$$$
