AV-unprocessed.smi:1567|AV-procd|sdf|6308|dock1
  -GOLD-   22720 6503D 1   1.00000     0.00000
 Structure written by MMmdl.
 43 45  0  0  0  0  0  0  0  0  2 V2000
  148.2549  138.7907  153.1182 O   0  0  0  0  0  0  0  0  0  0  0  0
  146.9658  139.2261  152.7462 C   0  0  0  0  0  0  0  0  0  0  0  0
  146.2104  138.0763  152.0612 C   0  0  0  0  0  0  0  0  0  0  0  0
  145.6478  137.0340  153.0419 C   0  0  0  0  0  0  0  0  0  0  0  0
  145.3827  135.7164  152.3841 C   0  0  0  0  0  0  0  0  0  0  0  0
  146.3299  134.8770  151.8783 N   0  3  0  0  0  0  0  0  0  0  0  0
  145.7190  133.7470  151.3338 C   0  0  0  0  0  0  0  0  0  0  0  0
  146.2646  132.6269  150.7141 C   0  0  0  0  0  0  0  0  0  0  0  0
  145.3560  131.6430  150.2716 C   0  0  0  0  0  0  0  0  0  0  0  0
  143.9659  131.7938  150.4520 C   0  0  0  0  0  0  0  0  0  0  0  0
  143.4248  132.9346  151.0805 C   0  0  0  0  0  0  0  0  0  0  0  0
  144.3295  133.9044  151.5136 C   0  0  0  0  0  0  0  0  0  0  0  0
  144.1679  135.1358  152.1611 N   0  0  0  0  0  0  0  0  0  0  0  0
  142.8138  135.6094  152.4921 C   0  0  0  0  0  0  0  0  0  0  0  0
  142.4934  135.5109  153.9978 C   0  0  2  0  0  0  0  0  0  0  0  0
  142.1076  134.1932  154.3372 O   0  0  0  0  0  0  0  0  0  0  0  0
  141.4548  136.5419  154.4168 C   0  0  0  0  0  0  0  0  0  0  0  0
  140.1348  136.4398  153.9259 C   0  0  0  0  0  0  0  0  0  0  0  0
  139.1584  137.3811  154.3053 C   0  0  0  0  0  0  0  0  0  0  0  0
  137.8957  137.2755  153.8283 F   0  0  0  0  0  0  0  0  0  0  0  0
  139.4947  138.4310  155.1805 C   0  0  0  0  0  0  0  0  0  0  0  0
  140.8075  138.5375  155.6773 C   0  0  0  0  0  0  0  0  0  0  0  0
  141.7861  137.5973  155.2992 C   0  0  0  0  0  0  0  0  0  0  0  0
  143.0426  137.7138  155.7925 F   0  0  0  0  0  0  0  0  0  0  0  0
  148.8445  138.9379  152.3942 H   0  0  0  0  0  0  0  0  0  0  0  0
  146.4330  139.5604  153.6368 H   0  0  0  0  0  0  0  0  0  0  0  0
  147.0653  140.0843  152.0811 H   0  0  0  0  0  0  0  0  0  0  0  0
  145.3988  138.4795  151.4539 H   0  0  0  0  0  0  0  0  0  0  0  0
  146.8859  137.5728  151.3687 H   0  0  0  0  0  0  0  0  0  0  0  0
  146.3575  136.8769  153.8546 H   0  0  0  0  0  0  0  0  0  0  0  0
  144.7337  137.4067  153.5039 H   0  0  0  0  0  0  0  0  0  0  0  0
  147.3294  132.5084  150.5767 H   0  0  0  0  0  0  0  0  0  0  0  0
  145.7326  130.7543  149.7863 H   0  0  0  0  0  0  0  0  0  0  0  0
  143.3000  131.0180  150.1026 H   0  0  0  0  0  0  0  0  0  0  0  0
  142.3585  133.0345  151.2198 H   0  0  0  0  0  0  0  0  0  0  0  0
  142.7461  136.6480  152.1679 H   0  0  0  0  0  0  0  0  0  0  0  0
  142.0870  135.0642  151.8904 H   0  0  0  0  0  0  0  0  0  0  0  0
  143.4103  135.7076  154.5548 H   0  0  0  0  0  0  0  0  0  0  0  0
  141.7354  133.7831  153.5713 H   0  0  0  0  0  0  0  0  0  0  0  0
  139.8635  135.6378  153.2551 H   0  0  0  0  0  0  0  0  0  0  0  0
  138.7461  139.1532  155.4715 H   0  0  0  0  0  0  0  0  0  0  0  0
  141.0645  139.3418  156.3508 H   0  0  0  0  0  0  0  0  0  0  0  0
  147.3237  135.0663  151.9048 H   0  0  0  0  0  0  0  0  0  0  0  0
  1  2  1  0  0  0  0
  1 25  1  0  0  0  0
  2  3  1  0  0  0  0
  2 26  1  0  0  0  0
  2 27  1  0  0  0  0
  3  4  1  0  0  0  0
  3 28  1  0  0  0  0
  3 29  1  0  0  0  0
  4  5  1  0  0  0  0
  4 30  1  0  0  0  0
  4 31  1  0  0  0  0
  5 13  1  0  0  0  0
  5  6  2  0  0  0  0
  6  7  1  0  0  0  0
  6 43  1  0  0  0  0
  7 12  2  0  0  0  0
  7  8  1  0  0  0  0
  8  9  2  0  0  0  0
  8 32  1  0  0  0  0
  9 10  1  0  0  0  0
  9 33  1  0  0  0  0
 10 11  2  0  0  0  0
 10 34  1  0  0  0  0
 11 12  1  0  0  0  0
 11 35  1  0  0  0  0
 12 13  1  0  0  0  0
 13 14  1  0  0  0  0
 14 15  1  0  0  0  0
 14 36  1  0  0  0  0
 14 37  1  0  0  0  0
 15 16  1  0  0  0  0
 15 17  1  0  0  0  0
 15 38  1  0  0  0  0
 16 39  1  0  0  0  0
 17 23  1  0  0  0  0
 17 18  2  0  0  0  0
 18 19  1  0  0  0  0
 18 40  1  0  0  0  0
 19 20  1  0  0  0  0
 19 21  2  0  0  0  0
 21 22  1  0  0  0  0
 21 41  1  0  0  0  0
 22 23  2  0  0  0  0
 22 42  1  0  0  0  0
 23 24  1  0  0  0  0
M  CHG  1   6   1
M  END
> <s_m_source_file>
AV-unprocessed.smi

> <i_m_source_file_index>
1567

> <i_lp_mmshare_version>
43012

> <i_f3d_flags>
0

> <s_epik_input>
W09IXVtDSDJdW0NIMl1bQ0gyXWMobjEpbihjKGMxMilbY0hdW2NIXVtjSF1bY0hdMilbQ0gyXVtDQEhdKFtPSF0pYzNbY0hdYyhGKVtjSF1bY0hdYzNG

> <s_epik_cmdline>
J2VwaWtfcHl0aG9uJywgJy1waCcsICc3LjAnLCAnLXRuJywgJzgnLCAnLW1hJywgJzIwMCcsICctbWV0YWxfYmluZGluZycsICctaW1hZScsICc8aW5maWxlLm1hZT4nLCAnLW9tYWUnLCAnPG91dGZpbGUubWFlPic=

> <r_epik_Ionization_Penalty>
0.786443

> <r_epik_Ionization_Penalty_Charging>
0.786439

> <r_epik_Ionization_Penalty_Neutral>
3.69699e-06

> <r_epik_State_Penalty>
0.816472

> <r_epik_Charging_Adjusted_Penalty>
1.60291

> <i_epik_Tot_Q>
1

> <i_epik_Tot_abs_Q>
1

> <r_epik_Metal_State_Penalty>
4.73733

> <b_epik_Metal_Only>
0

> <s_lp_Force_Field>
OPLS_2005

> <r_lp_Energy>
17.4114

> <b_lp_Chiralities_Consistent>
1

> <s_lp_Variant>
AV-unprocessed.smi:1567-3

> <Gold.Version>
5.8.1

> <Gold.Id.Protein>
6NUR|6NUR_protein|mol2

> <Gold.PLP.Fitness>
55.4830

> <Gold.PLP.PLP>
-44.7843

> <Gold.PLP.part.hbond>
-5.0000

> <Gold.PLP.part.metal>
0.0000

> <Gold.PLP.part.buried>
-7.4564

> <Gold.PLP.part.nonpolar>
-33.8420

> <Gold.PLP.part.repulsive>
0.0349

> <Gold.PLP.ligand.clash>
0.0000

> <Gold.PLP.ligand.torsion>
0.6993

> <Gold.PLP.Chemscore.Hbond>
4.0000

> <Gold.PLP.Chemscore.CHOScore>
0.0000

> <Gold.PLP.Chemscore.Metal>
0.0000

> <Gold.Chemscore.Hbonds>
donor molecule, donor type, donor heavy atom, donor atom, acceptor molecule, acceptor atom, score
      L1  H     1    25       P1  7957  1.00
      L1  H     6    43       P1  7948  2.00
      P1  H 11000 11005       L1    16  1.00

> <Gold.PLP.Chemscore.Internal.Correction>
0.0973

> <Gold.Rescore>
     Score         DG    S(hbond)    S(metal)    S(lipo)     H(rot)  DE(clash)    DE(int)     intcor
     17.43     -18.36       2.88        0.00     100.35       3.31       0.05       0.87       ----

> <Gold.Chemscore.Fitness>
17.4335

> <Gold.Chemscore.DG>
-18.3574

> <Gold.Chemscore.ZeroCoef>
-5.4800

> <Gold.Chemscore.Hbond>
2.8794

> <Gold.Chemscore.Metal>
0.0000

> <Gold.Chemscore.Lipo>
100.3473

> <Gold.Chemscore.Internal_Hbond>
0.0000

> <Gold.Chemscore.DEClash>
0.0523

> <Gold.Chemscore.DEInternal>
0.8716

> <Gold.Chemscore.Rot>
3.3127

> <Gold.Chemscore.Internal.Correction>
   9.000000E+99

> <Gold.Chemscore.Hbonds>
donor molecule, donor type, donor heavy atom, donor atom, acceptor molecule, acceptor atom, score
      L1  H     1    25       P1  7957  0.95
      L1  H     6    43       P1  7948  0.92
      P1  H 11000 11005       L1    16  0.49

> <Gold.Chemscore.Hbond.Weighted>
-9.6173

> <Gold.Chemscore.Metal.Weighted>
-0.0000

> <Gold.Chemscore.Lipo.Weighted>
-11.7406

> <Gold.Chemscore.Internal_Hbond.Weighted>
0.0000

> <Gold.Chemscore.DEClash.Weighted>
0.0523

> <Gold.Chemscore.DEInternal.Weighted>
0.8716

> <Gold.Chemscore.Rot.Weighted>
8.4805

> <Gold.Chemscore.Internal.Correction.Weighted>
   9.000000E+99

> <Gold.Protein.RotatedTorsions>
[ 6907 6896 6895 6894 ] final  -32.98 input  -60.11 | X-H torsion
[ 7974 7965 7964 7962 ] final  119.64 input  175.53 | X-H torsion
[ 8008 7997 7996 7995 ] final   30.48 input   59.86 | X-H torsion
[ 10167 10162 10161 10158 ] final  -12.70 input  -65.29 | X-H torsion
[ 10718 10713 10712 10709 ] final  179.92 input   66.30 | X-H torsion
[ 10763 10752 10751 10750 ] final   86.76 input  -60.55 | X-H torsion
[ 11005 11000 10999 10996 ] final  -10.95 input  -57.11 | X-H torsion

> <Gold.Protein.ActiveResidues>
 VAL166  LYS551  ARG553  GLY616  TRP617  ASP618  TYR619  PRO620  LYS621  CYS622 
 ASP623  PHE694  ASN695  SER759  ASP760  ASP761  ALA762  ILE779  LEU786  VAL792 
 PHE793  MET794  SER795  GLU796  ALA797  LYS798  CYS799  TRP800  GLU811  SER814 

> <Gold.Protein.RotatedAtoms>
  151.0717  134.9802  159.8311 H   0  0  0  0  0  0  0  0  0  0  0  0  # atno 6907 bound_to 6896
  152.5409  134.2291  159.8828 H   0  0  0  0  0  0  0  0  0  0  0  0  # atno 6908 bound_to 6896
  151.2316  133.4404  159.2637 H   0  0  0  0  0  0  0  0  0  0  0  0  # atno 6909 bound_to 6896
  145.1407  139.3269  143.4617 H   0  0  0  0  0  0  0  0  0  0  0  0  # atno 7974 bound_to 7965
  155.0911  140.3220  155.4573 H   0  0  0  0  0  0  0  0  0  0  0  0  # atno 8008 bound_to 7997
  156.2742  140.2077  156.5985 H   0  0  0  0  0  0  0  0  0  0  0  0  # atno 8009 bound_to 7997
  154.6902  140.0517  157.0343 H   0  0  0  0  0  0  0  0  0  0  0  0  # atno 8010 bound_to 7997
  140.7167  143.5504  150.9307 H   0  0  0  0  0  0  0  0  0  0  0  0  # atno 10167 bound_to 10162
  156.8686  130.9776  151.3076 H   0  0  0  0  0  0  0  0  0  0  0  0  # atno 10718 bound_to 10713
  153.1601  135.4568  154.9760 H   0  0  0  0  0  0  0  0  0  0  0  0  # atno 10763 bound_to 10752
  154.7891  135.3214  154.7820 H   0  0  0  0  0  0  0  0  0  0  0  0  # atno 10764 bound_to 10752
  153.8312  135.6938  153.4869 H   0  0  0  0  0  0  0  0  0  0  0  0  # atno 10765 bound_to 10752
  140.7501  133.8599  155.9038 H   0  0  0  0  0  0  0  0  0  0  0  0  # atno 11005 bound_to 11000
  146.3505  140.1443  142.8594 LP  0  0  0  0  0  0  0  0  0  0  0  0  # atno 17320 bound_to 7965
  145.0535  140.9035  143.4981 LP  0  0  0  0  0  0  0  0  0  0  0  0  # atno 17321 bound_to 7965
  139.9229  143.6585  152.3093 LP  0  0  0  0  0  0  0  0  0  0  0  0  # atno 17342 bound_to 10162
  139.7008  144.7635  151.1277 LP  0  0  0  0  0  0  0  0  0  0  0  0  # atno 17343 bound_to 10162
  157.6209  130.8654  149.9106 LP  0  0  0  0  0  0  0  0  0  0  0  0  # atno 17370 bound_to 10713
  156.0738  130.3681  150.0720 LP  0  0  0  0  0  0  0  0  0  0  0  0  # atno 17371 bound_to 10713
  140.9759  134.1470  157.4537 LP  0  0  0  0  0  0  0  0  0  0  0  0  # atno 17394 bound_to 11000
  139.8789  134.9994  156.5953 LP  0  0  0  0  0  0  0  0  0  0  0  0  # atno 17395 bound_to 11000

$$$$
