AV-unprocessed.smi:1382|AV-procd|sdf|5620|dock6
  -GOLD-   22720 5233D 1   1.00000     0.00000
 Structure written by MMmdl.
 44 45  0  0  0  0  0  0  0  0  1 V2000
  147.5368  141.0738  153.7855 C   0  0  0  0  0  0  0  0  0  0  0  0
  148.8143  140.4409  154.3527 C   0  0  0  0  0  0  0  0  0  0  0  0
  149.3685  141.1692  155.5870 C   0  0  0  0  0  0  0  0  0  0  0  0
  148.6537  140.7905  156.8975 C   0  0  0  0  0  0  0  0  0  0  0  0
  149.2789  139.6643  157.5624 N   0  0  0  0  0  0  0  0  0  0  0  0
  148.5895  138.5064  157.9350 C   0  0  0  0  0  0  0  0  0  0  0  0
  147.2365  138.4298  157.6372 N   0  0  0  0  0  0  0  0  0  0  0  0
  149.2159  137.4700  158.5682 C   0  0  0  0  0  0  0  0  0  0  0  0
  148.5101  136.3252  158.9811 N   0  0  0  0  0  0  0  0  0  0  0  0
  148.5080  135.1781  158.0687 C   0  0  0  0  0  0  0  0  0  0  0  0
  147.8817  136.2340  160.1815 C   0  0  0  0  0  0  0  0  0  0  0  0
  147.9542  137.1359  161.0185 O   0  0  0  0  0  0  0  0  0  0  0  0
  147.0327  134.9874  160.5153 C   0  0  2  0  0  0  0  0  0  0  0  0
  146.4155  135.0042  161.9275 C   0  0  0  0  0  0  0  0  0  0  0  0
  147.2512  134.0010  162.6951 C   0  0  0  0  0  0  0  0  0  0  0  0
  147.6203  133.0129  161.5990 C   0  0  0  0  0  0  0  0  0  0  0  0
  147.8919  133.8482  160.4844 O   0  0  0  0  0  0  0  0  0  0  0  0
  150.6389  137.5621  158.9232 C   0  0  0  0  0  0  0  0  0  0  0  0
  151.2878  136.7055  159.5220 O   0  0  0  0  0  0  0  0  0  0  0  0
  151.2618  138.7479  158.5425 N   0  0  0  0  0  0  0  0  0  0  0  0
  150.6502  139.8087  157.8840 C   0  0  0  0  0  0  0  0  0  0  0  0
  151.3091  140.8151  157.6203 O   0  0  0  0  0  0  0  0  0  0  0  0
  152.2390  138.8506  158.7747 H   0  0  0  0  0  0  0  0  0  0  0  0
  147.2216  140.5581  152.8781 H   0  0  0  0  0  0  0  0  0  0  0  0
  147.6956  142.1223  153.5321 H   0  0  0  0  0  0  0  0  0  0  0  0
  146.7118  141.0199  154.4957 H   0  0  0  0  0  0  0  0  0  0  0  0
  148.6329  139.3925  154.5915 H   0  0  0  0  0  0  0  0  0  0  0  0
  149.5768  140.4455  153.5730 H   0  0  0  0  0  0  0  0  0  0  0  0
  150.4290  140.9323  155.6798 H   0  0  0  0  0  0  0  0  0  0  0  0
  149.3136  142.2471  155.4305 H   0  0  0  0  0  0  0  0  0  0  0  0
  148.6485  141.6125  157.6118 H   0  0  0  0  0  0  0  0  0  0  0  0
  147.6008  140.5521  156.7372 H   0  0  0  0  0  0  0  0  0  0  0  0
  146.7522  139.1806  157.1659 H   0  0  0  0  0  0  0  0  0  0  0  0
  146.6871  137.6117  157.8583 H   0  0  0  0  0  0  0  0  0  0  0  0
  148.9878  134.3146  158.5310 H   0  0  0  0  0  0  0  0  0  0  0  0
  149.0412  135.3972  157.1425 H   0  0  0  0  0  0  0  0  0  0  0  0
  147.4880  134.9018  157.7982 H   0  0  0  0  0  0  0  0  0  0  0  0
  146.2236  134.8491  159.7980 H   0  0  0  0  0  0  0  0  0  0  0  0
  146.4036  135.9848  162.4052 H   0  0  0  0  0  0  0  0  0  0  0  0
  145.3816  134.6602  161.8774 H   0  0  0  0  0  0  0  0  0  0  0  0
  148.1495  134.4798  163.0872 H   0  0  0  0  0  0  0  0  0  0  0  0
  146.7151  133.5408  163.5251 H   0  0  0  0  0  0  0  0  0  0  0  0
  148.4805  132.3953  161.8576 H   0  0  0  0  0  0  0  0  0  0  0  0
  146.7798  132.3571  161.3665 H   0  0  0  0  0  0  0  0  0  0  0  0
  1  2  1  0  0  0  0
  1 24  1  0  0  0  0
  1 25  1  0  0  0  0
  1 26  1  0  0  0  0
  2  3  1  0  0  0  0
  2 27  1  0  0  0  0
  2 28  1  0  0  0  0
  3  4  1  0  0  0  0
  3 29  1  0  0  0  0
  3 30  1  0  0  0  0
  4  5  1  0  0  0  0
  4 31  1  0  0  0  0
  4 32  1  0  0  0  0
  5 21  1  0  0  0  0
  5  6  1  0  0  0  0
  6  7  1  0  0  0  0
  6  8  2  0  0  0  0
  7 33  1  0  0  0  0
  7 34  1  0  0  0  0
  8  9  1  0  0  0  0
  8 18  1  0  0  0  0
  9 10  1  0  0  0  0
  9 11  1  0  0  0  0
 10 35  1  0  0  0  0
 10 36  1  0  0  0  0
 10 37  1  0  0  0  0
 11 12  2  0  0  0  0
 11 13  1  0  0  0  0
 13 17  1  0  0  0  0
 13 14  1  0  0  0  0
 13 38  1  0  0  0  0
 14 15  1  0  0  0  0
 14 39  1  0  0  0  0
 14 40  1  0  0  0  0
 15 16  1  0  0  0  0
 15 41  1  0  0  0  0
 15 42  1  0  0  0  0
 16 17  1  0  0  0  0
 16 43  1  0  0  0  0
 16 44  1  0  0  0  0
 18 19  2  0  0  0  0
 18 20  1  0  0  0  0
 20 23  1  0  0  0  0
 20 21  1  0  0  0  0
 21 22  2  0  0  0  0
M  END
> <s_m_source_file>
AV-unprocessed.smi

> <i_m_source_file_index>
1382

> <i_lp_mmshare_version>
43012

> <i_f3d_flags>
0

> <s_epik_input>
W0NIM11bQ0gyXVtDSDJdW0NIMl1uMWMoW05IMl0pYyhjKD1PKVtuSF1jMT1PKU4oW0NIM10pQyg9TylbQ0BASF0yW0NIMl1bQ0gyXVtDSDJdTzI=

> <s_epik_cmdline>
J2VwaWtfcHl0aG9uJywgJy1waCcsICc3LjAnLCAnLXRuJywgJzgnLCAnLW1hJywgJzIwMCcsICctbWV0YWxfYmluZGluZycsICctaW1hZScsICc8aW5maWxlLm1hZT4nLCAnLW9tYWUnLCAnPG91dGZpbGUubWFlPic=

> <r_lp_tautomer_probability>
1

> <r_epik_Ionization_Penalty>
1.19634e-05

> <r_epik_Ionization_Penalty_Charging>
6.01811e-06

> <r_epik_Ionization_Penalty_Neutral>
5.94533e-06

> <r_epik_State_Penalty>
-0

> <r_epik_Charging_Adjusted_Penalty>
6.01811e-06

> <i_epik_Tot_Q>
0

> <i_epik_Tot_abs_Q>
0

> <r_epik_Metal_State_Penalty>
-0

> <b_epik_Metal_Only>
0

> <s_epik_Chemistry_Notes>
This compound has an imine and may undergo hydrolysis.

> <s_lp_Force_Field>
OPLS_2005

> <r_lp_Energy>
42.2822

> <b_lp_Chiralities_Consistent>
1

> <s_lp_Variant>
AV-unprocessed.smi:1382-1

> <Gold.Version>
5.8.1

> <Gold.Id.Protein>
6NUR|6NUR_protein|mol2

> <Gold.PLP.Fitness>
40.6790

> <Gold.PLP.PLP>
-34.2378

> <Gold.PLP.part.hbond>
-3.0000

> <Gold.PLP.part.metal>
0.0000

> <Gold.PLP.part.buried>
-5.1810

> <Gold.PLP.part.nonpolar>
-26.6200

> <Gold.PLP.part.repulsive>
0.1665

> <Gold.PLP.ligand.clash>
0.0000

> <Gold.PLP.ligand.torsion>
1.8291

> <Gold.PLP.Chemscore.Hbond>
2.6000

> <Gold.PLP.Chemscore.CHOScore>
0.0000

> <Gold.PLP.Chemscore.Metal>
0.0000

> <Gold.Chemscore.Hbonds>
donor molecule, donor type, donor heavy atom, donor atom, acceptor molecule, acceptor atom, score
      P1  H  6896  6907       L1    19  1.00
      P1  H  6931  6943       L1    12  0.98
      P1  H  6934  6947       L1    12  0.76

> <Gold.PLP.Chemscore.Internal.Correction>
2.2995

> <Gold.Rescore>
     Score         DG    S(hbond)    S(metal)    S(lipo)     H(rot)  DE(clash)    DE(int)     intcor
     13.49     -16.60       2.63        0.00      57.15       1.69       0.00       3.10       ----

> <Gold.Chemscore.Fitness>
13.4949

> <Gold.Chemscore.DG>
-16.5973

> <Gold.Chemscore.ZeroCoef>
-5.4800

> <Gold.Chemscore.Hbond>
2.6251

> <Gold.Chemscore.Metal>
0.0000

> <Gold.Chemscore.Lipo>
57.1498

> <Gold.Chemscore.Internal_Hbond>
0.0000

> <Gold.Chemscore.DEClash>
0.0000

> <Gold.Chemscore.DEInternal>
3.1023

> <Gold.Chemscore.Rot>
1.6942

> <Gold.Chemscore.Internal.Correction>
   9.000000E+99

> <Gold.Chemscore.Hbonds>
donor molecule, donor type, donor heavy atom, donor atom, acceptor molecule, acceptor atom, score
      P1  H  6896  6907       L1    19  0.99
      P1  H  6931  6943       L1    12  0.92
      P1  H  6934  6947       L1    12  0.70

> <Gold.Chemscore.Hbond.Weighted>
-8.7680

> <Gold.Chemscore.Metal.Weighted>
-0.0000

> <Gold.Chemscore.Lipo.Weighted>
-6.6865

> <Gold.Chemscore.Internal_Hbond.Weighted>
0.0000

> <Gold.Chemscore.DEClash.Weighted>
0.0000

> <Gold.Chemscore.DEInternal.Weighted>
3.1023

> <Gold.Chemscore.Rot.Weighted>
4.3372

> <Gold.Chemscore.Internal.Correction.Weighted>
   9.000000E+99

> <Gold.Protein.RotatedTorsions>
[ 6907 6896 6895 6894 ] final   -1.21 input  -60.11 | X-H torsion
[ 7974 7965 7964 7962 ] final -110.42 input  175.53 | X-H torsion
[ 8008 7997 7996 7995 ] final  158.45 input   59.86 | X-H torsion
[ 10167 10162 10161 10158 ] final  -51.84 input  -65.29 | X-H torsion
[ 10718 10713 10712 10709 ] final  109.60 input   66.30 | X-H torsion
[ 10763 10752 10751 10750 ] final   83.87 input  -60.55 | X-H torsion
[ 11005 11000 10999 10996 ] final -139.98 input  -57.11 | X-H torsion

> <Gold.Protein.ActiveResidues>
 VAL166  LYS551  ARG553  GLY616  TRP617  ASP618  TYR619  PRO620  LYS621  CYS622 
 ASP623  PHE694  ASN695  SER759  ASP760  ASP761  ALA762  ILE779  LEU786  VAL792 
 PHE793  MET794  SER795  GLU796  ALA797  LYS798  CYS799  TRP800  GLU811  SER814 

> <Gold.Protein.RotatedAtoms>
  151.5498  135.1067  159.9946 H   0  0  0  0  0  0  0  0  0  0  0  0  # atno 6907 bound_to 6896
  152.4497  133.7600  159.6752 H   0  0  0  0  0  0  0  0  0  0  0  0  # atno 6908 bound_to 6896
  150.8421  133.7852  159.3081 H   0  0  0  0  0  0  0  0  0  0  0  0  # atno 6909 bound_to 6896
  145.1685  140.8914  143.3549 H   0  0  0  0  0  0  0  0  0  0  0  0  # atno 7974 bound_to 7965
  156.2302  140.1858  156.7263 H   0  0  0  0  0  0  0  0  0  0  0  0  # atno 8008 bound_to 7997
  154.6009  140.0636  156.9394 H   0  0  0  0  0  0  0  0  0  0  0  0  # atno 8009 bound_to 7997
  155.2176  140.3305  155.4322 H   0  0  0  0  0  0  0  0  0  0  0  0  # atno 8010 bound_to 7997
  140.6568  143.2605  151.4561 H   0  0  0  0  0  0  0  0  0  0  0  0  # atno 10167 bound_to 10162
  157.6534  131.0917  150.6478 H   0  0  0  0  0  0  0  0  0  0  0  0  # atno 10718 bound_to 10713
  153.1330  135.4675  154.9378 H   0  0  0  0  0  0  0  0  0  0  0  0  # atno 10763 bound_to 10752
  154.7681  135.3150  154.8248 H   0  0  0  0  0  0  0  0  0  0  0  0  # atno 10764 bound_to 10752
  153.8786  135.6896  153.4822 H   0  0  0  0  0  0  0  0  0  0  0  0  # atno 10765 bound_to 10752
  140.8467  134.2336  157.4782 H   0  0  0  0  0  0  0  0  0  0  0  0  # atno 11005 bound_to 11000
  145.0257  139.3384  143.6050 LP  0  0  0  0  0  0  0  0  0  0  0  0  # atno 17320 bound_to 7965
  146.3472  139.9575  142.8721 LP  0  0  0  0  0  0  0  0  0  0  0  0  # atno 17321 bound_to 7965
  139.5792  144.1748  152.1945 LP  0  0  0  0  0  0  0  0  0  0  0  0  # atno 17342 bound_to 10162
  140.1068  144.5492  150.6952 LP  0  0  0  0  0  0  0  0  0  0  0  0  # atno 17343 bound_to 10162
  156.6787  130.4560  149.5634 LP  0  0  0  0  0  0  0  0  0  0  0  0  # atno 17370 bound_to 10713
  156.1945  130.6581  151.1099 LP  0  0  0  0  0  0  0  0  0  0  0  0  # atno 17371 bound_to 10713
  139.8703  134.9663  156.4557 LP  0  0  0  0  0  0  0  0  0  0  0  0  # atno 17394 bound_to 11000
  140.8836  133.7900  155.9493 LP  0  0  0  0  0  0  0  0  0  0  0  0  # atno 17395 bound_to 11000

$$$$
