AV-unprocessed.smi:34|AV-procd|sdf|245|dock10
  -GOLD-   2262016 03D 1   1.00000     0.00000
 Structure written by MMmdl.
 54 58  0  0  0  0  0  0  0  0  2 V2000
  153.9075  140.1430  158.7953 O   0  0  0  0  0  0  0  0  0  0  0  0
  152.8017  140.6534  158.6047 C   0  0  0  0  0  0  0  0  0  0  0  0
  151.6893  140.0661  158.0950 N   0  5  0  0  0  0  0  0  0  0  0  0
  151.7973  139.1864  157.0876 C   0  0  0  0  0  0  0  0  0  0  0  0
  152.6619  139.4145  156.0666 N   0  0  0  0  0  0  0  0  0  0  0  0
  152.7786  138.5295  155.0701 C   0  0  0  0  0  0  0  0  0  0  0  0
  152.1432  137.3662  154.9011 N   0  0  0  0  0  0  0  0  0  0  0  0
  151.2713  137.1217  155.9228 C   0  0  0  0  0  0  0  0  0  0  0  0
  151.0509  137.9769  157.0424 C   0  0  0  0  0  0  0  0  0  0  0  0
  150.1097  137.4313  157.9027 N   0  0  0  0  0  0  0  0  0  0  0  0
  149.8053  136.2952  157.2805 C   0  0  0  0  0  0  0  0  0  0  0  0
  150.4331  136.0338  156.1166 N   0  0  0  0  0  0  0  0  0  0  0  0
  150.2517  134.8272  155.2478 C   0  0  2  0  0  0  0  0  0  0  0  0
  148.9299  134.7962  154.8005 O   0  0  0  0  0  0  0  0  0  0  0  0
  148.4585  133.4552  154.8428 C   0  0  2  0  0  0  0  0  0  0  0  0
  146.9247  133.4178  154.8600 C   0  0  0  0  0  0  0  0  0  0  0  0
  146.4349  133.4364  153.5286 O   0  0  0  0  0  0  0  0  0  0  0  0
  146.6064  132.3621  152.7329 C   0  0  0  0  0  0  0  0  0  0  0  0
  147.4009  131.4519  152.9784 O   0  0  0  0  0  0  0  0  0  0  0  0
  145.7293  132.3854  151.5267 C   0  0  0  0  0  0  0  0  0  0  0  0
  144.3715  132.7580  151.6646 C   0  0  0  0  0  0  0  0  0  0  0  0
  143.5197  132.7939  150.5436 C   0  0  0  0  0  0  0  0  0  0  0  0
  144.0148  132.4560  149.2706 C   0  0  0  0  0  0  0  0  0  0  0  0
  145.3627  132.0810  149.1204 C   0  0  0  0  0  0  0  0  0  0  0  0
  146.2164  132.0454  150.2403 C   0  0  0  0  0  0  0  0  0  0  0  0
  149.1434  132.8706  156.0798 C   0  0  2  0  0  0  0  0  0  0  0  0
  148.5026  133.2732  157.1793 F   0  0  0  0  0  0  0  0  0  0  0  0
  150.5260  133.4996  155.9875 C   0  0  2  0  0  0  0  0  0  0  0  0
  151.1563  133.6109  157.2514 O   0  0  0  0  0  0  0  0  0  0  0  0
  152.5793  142.0817  159.0250 C   0  0  0  0  0  0  0  0  0  0  0  0
  152.1116  143.0252  158.0817 C   0  0  0  0  0  0  0  0  0  0  0  0
  151.8722  144.3603  158.4620 C   0  0  0  0  0  0  0  0  0  0  0  0
  152.0886  144.7639  159.7929 C   0  0  0  0  0  0  0  0  0  0  0  0
  152.5407  143.8305  160.7442 C   0  0  0  0  0  0  0  0  0  0  0  0
  152.7806  142.4954  160.3646 C   0  0  0  0  0  0  0  0  0  0  0  0
  153.4859  138.7898  154.2969 H   0  0  0  0  0  0  0  0  0  0  0  0
  149.0791  135.6119  157.6953 H   0  0  0  0  0  0  0  0  0  0  0  0
  150.9321  134.9903  154.4108 H   0  0  0  0  0  0  0  0  0  0  0  0
  148.8277  132.9494  153.9486 H   0  0  0  0  0  0  0  0  0  0  0  0
  146.5635  132.5342  155.3879 H   0  0  0  0  0  0  0  0  0  0  0  0
  146.5449  134.2909  155.3922 H   0  0  0  0  0  0  0  0  0  0  0  0
  143.9690  133.0229  152.6317 H   0  0  0  0  0  0  0  0  0  0  0  0
  142.4854  133.0818  150.6612 H   0  0  0  0  0  0  0  0  0  0  0  0
  143.3614  132.4842  148.4109 H   0  0  0  0  0  0  0  0  0  0  0  0
  145.7433  131.8201  148.1436 H   0  0  0  0  0  0  0  0  0  0  0  0
  147.2454  131.7529  150.0898 H   0  0  0  0  0  0  0  0  0  0  0  0
  149.1627  131.7805  156.0903 H   0  0  0  0  0  0  0  0  0  0  0  0
  151.1543  132.8906  155.3364 H   0  0  0  0  0  0  0  0  0  0  0  0
  152.0722  133.8008  157.1174 H   0  0  0  0  0  0  0  0  0  0  0  0
  151.9382  142.7305  157.0567 H   0  0  0  0  0  0  0  0  0  0  0  0
  151.5207  145.0736  157.7315 H   0  0  0  0  0  0  0  0  0  0  0  0
  151.9041  145.7871  160.0850 H   0  0  0  0  0  0  0  0  0  0  0  0
  152.7008  144.1365  161.7673 H   0  0  0  0  0  0  0  0  0  0  0  0
  153.1166  141.7921  161.1129 H   0  0  0  0  0  0  0  0  0  0  0  0
  1  2  2  0  0  0  0
  2  3  1  0  0  0  0
  2 30  1  0  0  0  0
  3  4  1  0  0  0  0
  4  9  1  0  0  0  0
  4  5  2  0  0  0  0
  5  6  1  0  0  0  0
  6  7  2  0  0  0  0
  6 36  1  0  0  0  0
  7  8  1  0  0  0  0
  8 12  1  0  0  0  0
  8  9  2  0  0  0  0
  9 10  1  0  0  0  0
 10 11  2  0  0  0  0
 11 12  1  0  0  0  0
 11 37  1  0  0  0  0
 12 13  1  0  0  0  0
 13 28  1  0  0  0  0
 13 14  1  0  0  0  0
 13 38  1  0  0  0  0
 14 15  1  0  0  0  0
 15 16  1  0  0  0  0
 15 26  1  0  0  0  0
 15 39  1  0  0  0  0
 16 17  1  0  0  0  0
 16 40  1  0  0  0  0
 16 41  1  0  0  0  0
 17 18  1  0  0  0  0
 18 19  2  0  0  0  0
 18 20  1  0  0  0  0
 20 25  1  0  0  0  0
 20 21  2  0  0  0  0
 21 22  1  0  0  0  0
 21 42  1  0  0  0  0
 22 23  2  0  0  0  0
 22 43  1  0  0  0  0
 23 24  1  0  0  0  0
 23 44  1  0  0  0  0
 24 25  2  0  0  0  0
 24 45  1  0  0  0  0
 25 46  1  0  0  0  0
 26 27  1  0  0  0  0
 26 28  1  0  0  0  0
 26 47  1  0  0  0  0
 28 29  1  0  0  0  0
 28 48  1  0  0  0  0
 29 49  1  0  0  0  0
 30 35  1  0  0  0  0
 30 31  2  0  0  0  0
 31 32  1  0  0  0  0
 31 50  1  0  0  0  0
 32 33  2  0  0  0  0
 32 51  1  0  0  0  0
 33 34  1  0  0  0  0
 33 52  1  0  0  0  0
 34 35  2  0  0  0  0
 34 53  1  0  0  0  0
 35 54  1  0  0  0  0
M  CHG  1   3  -1
M  END
> <s_m_source_file>
AV-unprocessed.smi

> <i_m_source_file_index>
34

> <i_lp_mmshare_version>
43012

> <i_f3d_flags>
0

> <s_epik_input>
W2NIXTFbY0hdW2NIXVtjSF1bY0hdYzFDKD1PKVtOSF1jKG5bY0hdbjIpYyhjMjMpbltjSF1uM1tDQEBIXTRPW0NASF0oW0NAQEhdKEYpW0NASF00W09IXSlbQ0gyXU9DKD1PKWM1W2NIXVtjSF1bY0hdW2NIXVtjSF01

> <s_epik_cmdline>
J2VwaWtfcHl0aG9uJywgJy1waCcsICc3LjAnLCAnLXRuJywgJzgnLCAnLW1hJywgJzIwMCcsICctbWV0YWxfYmluZGluZycsICctaW1hZScsICc8aW5maWxlLm1hZT4nLCAnLW9tYWUnLCAnPG91dGZpbGUubWFlPic=

> <r_lp_tautomer_probability>
1

> <r_epik_Ionization_Penalty>
4.33227

> <r_epik_Ionization_Penalty_Charging>
3.41027

> <r_epik_Ionization_Penalty_Neutral>
0.922001

> <r_epik_State_Penalty>
3.41358

> <r_epik_Charging_Adjusted_Penalty>
6.82385

> <i_epik_Tot_Q>
-1

> <i_epik_Tot_abs_Q>
1

> <r_epik_Metal_State_Penalty>
0.496292

> <b_epik_Metal_Only>
1

> <s_epik_Chemistry_Notes>
This compound has an ester and may undergo hydrolysis at high or low pH. This compound contains an acetal/aminal-like group ( X-CH(R)-Y where X, Y are N, S, or O) that may be acid/base labile, releasing an aldehyde.

> <s_lp_Force_Field>
OPLS_2005

> <r_lp_Energy>
53.545

> <b_lp_Chiralities_Consistent>
1

> <s_lp_Variant>
AV-unprocessed.smi:34-31

> <Gold.Version>
5.8.1

> <Gold.Id.Protein>
6NUR|6NUR_protein|mol2

> <Gold.PLP.Fitness>
62.7366

> <Gold.PLP.PLP>
-59.5436

> <Gold.PLP.part.hbond>
-4.0000

> <Gold.PLP.part.metal>
0.0000

> <Gold.PLP.part.buried>
-7.8631

> <Gold.PLP.part.nonpolar>
-48.8796

> <Gold.PLP.part.repulsive>
0.7008

> <Gold.PLP.ligand.clash>
0.0000

> <Gold.PLP.ligand.torsion>
2.9250

> <Gold.PLP.Chemscore.Hbond>
2.8812

> <Gold.PLP.Chemscore.CHOScore>
0.0000

> <Gold.PLP.Chemscore.Metal>
0.0000

> <Gold.Chemscore.Hbonds>
donor molecule, donor type, donor heavy atom, donor atom, acceptor molecule, acceptor atom, score
      P1  H  6896  6908       L1    29  0.40
      P1  H  7997  8008       L1     1  0.32
      P1  H  7997  8009       L1     5  0.95
      P1  H 10752 10763       L1     7  0.80

> <Gold.PLP.Chemscore.Internal.Correction>
0.3994

> <Gold.Rescore>
     Score         DG    S(hbond)    S(metal)    S(lipo)     H(rot)  DE(clash)    DE(int)     intcor
     15.00     -20.57       1.57        0.00     143.09       2.69       0.61       4.96       ----

> <Gold.Chemscore.Fitness>
14.9986

> <Gold.Chemscore.DG>
-20.5656

> <Gold.Chemscore.ZeroCoef>
-5.4800

> <Gold.Chemscore.Hbond>
1.5693

> <Gold.Chemscore.Metal>
0.0000

> <Gold.Chemscore.Lipo>
143.0914

> <Gold.Chemscore.Internal_Hbond>
0.0000

> <Gold.Chemscore.DEClash>
0.6059

> <Gold.Chemscore.DEInternal>
4.9611

> <Gold.Chemscore.Rot>
2.6944

> <Gold.Chemscore.Internal.Correction>
   9.000000E+99

> <Gold.Chemscore.Hbonds>
donor molecule, donor type, donor heavy atom, donor atom, acceptor molecule, acceptor atom, score
      P1  H  6896  6908       L1    29  0.04
      P1  H  7997  8008       L1     1  0.33
      P1  H  7997  8009       L1     5  0.21
      P1  H 10752 10763       L1     7  0.43

> <Gold.Chemscore.Hbond.Weighted>
-5.2415

> <Gold.Chemscore.Metal.Weighted>
-0.0000

> <Gold.Chemscore.Lipo.Weighted>
-16.7417

> <Gold.Chemscore.Internal_Hbond.Weighted>
0.0000

> <Gold.Chemscore.DEClash.Weighted>
0.6059

> <Gold.Chemscore.DEInternal.Weighted>
4.9611

> <Gold.Chemscore.Rot.Weighted>
6.8975

> <Gold.Chemscore.Internal.Correction.Weighted>
   9.000000E+99

> <Gold.Protein.RotatedTorsions>
[ 6907 6896 6895 6894 ] final   80.10 input  -60.11 | X-H torsion
[ 7974 7965 7964 7962 ] final  -46.05 input  175.53 | X-H torsion
[ 8008 7997 7996 7995 ] final -140.58 input   59.86 | X-H torsion
[ 10167 10162 10161 10158 ] final   86.27 input  -65.29 | X-H torsion
[ 10718 10713 10712 10709 ] final -103.72 input   66.30 | X-H torsion
[ 10763 10752 10751 10750 ] final   50.98 input  -60.55 | X-H torsion
[ 11005 11000 10999 10996 ] final  116.43 input  -57.11 | X-H torsion

> <Gold.Protein.ActiveResidues>
 VAL166  LYS551  ARG553  GLY616  TRP617  ASP618  TYR619  PRO620  LYS621  CYS622 
 ASP623  PHE694  ASN695  SER759  ASP760  ASP761  ALA762  ILE779  LEU786  VAL792 
 PHE793  MET794  SER795  GLU796  ALA797  LYS798  CYS799  TRP800  GLU811  SER814 

> <Gold.Protein.RotatedAtoms>
  152.5223  134.3410  159.9216 H   0  0  0  0  0  0  0  0  0  0  0  0  # atno 6907 bound_to 6896
  151.3359  133.3975  159.2674 H   0  0  0  0  0  0  0  0  0  0  0  0  # atno 6908 bound_to 6896
  150.9842  134.9209  159.7920 H   0  0  0  0  0  0  0  0  0  0  0  0  # atno 6909 bound_to 6896
  145.9758  140.7335  142.9388 H   0  0  0  0  0  0  0  0  0  0  0  0  # atno 7974 bound_to 7965
  155.4637  140.0547  157.2988 H   0  0  0  0  0  0  0  0  0  0  0  0  # atno 8008 bound_to 7997
  154.4727  140.2047  155.9910 H   0  0  0  0  0  0  0  0  0  0  0  0  # atno 8009 bound_to 7997
  156.1082  140.3208  155.8040 H   0  0  0  0  0  0  0  0  0  0  0  0  # atno 8010 bound_to 7997
  139.8892  144.6395  150.8757 H   0  0  0  0  0  0  0  0  0  0  0  0  # atno 10167 bound_to 10162
  156.0276  130.5480  150.7293 H   0  0  0  0  0  0  0  0  0  0  0  0  # atno 10718 bound_to 10713
  152.9785  135.5861  154.4340 H   0  0  0  0  0  0  0  0  0  0  0  0  # atno 10763 bound_to 10752
  154.3950  135.2768  155.2133 H   0  0  0  0  0  0  0  0  0  0  0  0  # atno 10764 bound_to 10752
  154.3989  135.6108  153.5940 H   0  0  0  0  0  0  0  0  0  0  0  0  # atno 10765 bound_to 10752
  139.9041  134.9598  156.7197 H   0  0  0  0  0  0  0  0  0  0  0  0  # atno 11005 bound_to 11000
  144.6848  140.2825  143.7290 LP  0  0  0  0  0  0  0  0  0  0  0  0  # atno 17320 bound_to 7965
  145.7840  139.1902  143.2141 LP  0  0  0  0  0  0  0  0  0  0  0  0  # atno 17321 bound_to 7965
  140.7730  143.3524  151.1989 LP  0  0  0  0  0  0  0  0  0  0  0  0  # atno 17342 bound_to 10162
  139.7125  143.9353  152.2953 LP  0  0  0  0  0  0  0  0  0  0  0  0  # atno 17343 bound_to 10162
  157.4889  131.0909  151.0450 LP  0  0  0  0  0  0  0  0  0  0  0  0  # atno 17370 bound_to 10713
  157.0862  130.5923  149.5430 LP  0  0  0  0  0  0  0  0  0  0  0  0  # atno 17371 bound_to 10713
  140.7010  133.9306  155.8024 LP  0  0  0  0  0  0  0  0  0  0  0  0  # atno 17394 bound_to 11000
  141.0371  134.0673  157.3946 LP  0  0  0  0  0  0  0  0  0  0  0  0  # atno 17395 bound_to 11000

$$$$
