AV-unprocessed.smi:362|AV-procd|sdf|2421|dock4
  -GOLD-   2262022363D 1   1.00000     0.00000
 Structure written by MMmdl.
 36 38  0  0  0  0  0  0  0  0  1 V2000
  149.9525  141.3214  158.3858 O   0  0  0  0  0  0  0  0  0  0  0  0
  150.8834  141.7576  157.7075 C   0  0  0  0  0  0  0  0  0  0  0  0
  150.8971  141.5707  156.1837 C   0  0  0  0  0  0  0  0  0  0  0  0
  150.9771  140.1596  155.7787 N   0  0  0  0  0  0  0  0  0  0  0  0
  152.1194  139.6713  155.1602 C   0  0  0  0  0  0  0  0  0  0  0  0
  152.2557  138.3870  154.7531 C   0  0  0  0  0  0  0  0  0  0  0  0
  151.1727  137.4300  154.9525 C   0  0  0  0  0  0  0  0  0  0  0  0
  151.2011  136.2472  154.6203 O   0  0  0  0  0  0  0  0  0  0  0  0
  150.0398  137.9599  155.5755 N   0  0  0  0  0  0  0  0  0  0  0  0
  149.8923  139.2824  155.9964 C   0  0  0  0  0  0  0  0  0  0  0  0
  148.8471  139.6476  156.5334 O   0  0  0  0  0  0  0  0  0  0  0  0
  151.9218  142.4307  158.2264 N   0  0  0  0  0  0  0  0  0  0  0  0
  152.1236  142.7316  159.6397 C   0  0  0  0  0  0  0  0  0  0  0  0
  151.9173  144.2040  159.9560 C   0  0  0  0  0  0  0  0  0  0  0  0
  150.7705  144.9835  159.3563 C   0  0  0  0  0  0  0  0  0  0  0  0
  152.1900  145.2768  158.9280 C   0  0  0  0  0  0  0  0  0  0  0  0
  153.4919  142.2761  160.1133 C   0  0  0  0  0  0  0  0  0  0  0  0
  153.7443  140.8365  160.4927 C   0  0  0  0  0  0  0  0  0  0  0  0
  153.7480  141.9112  161.5566 C   0  0  0  0  0  0  0  0  0  0  0  0
  149.2624  137.3350  155.7322 H   0  0  0  0  0  0  0  0  0  0  0  0
  149.9944  142.0306  155.7793 H   0  0  0  0  0  0  0  0  0  0  0  0
  151.7261  142.1321  155.7477 H   0  0  0  0  0  0  0  0  0  0  0  0
  152.9460  140.3459  154.9875 H   0  0  0  0  0  0  0  0  0  0  0  0
  153.1705  138.0665  154.2760 H   0  0  0  0  0  0  0  0  0  0  0  0
  152.6350  142.7562  157.5901 H   0  0  0  0  0  0  0  0  0  0  0  0
  151.3881  142.1667  160.2164 H   0  0  0  0  0  0  0  0  0  0  0  0
  152.1690  144.4628  160.9830 H   0  0  0  0  0  0  0  0  0  0  0  0
  150.1292  144.4795  158.6363 H   0  0  0  0  0  0  0  0  0  0  0  0
  150.2742  145.7139  159.9919 H   0  0  0  0  0  0  0  0  0  0  0  0
  152.6416  146.2027  159.2778 H   0  0  0  0  0  0  0  0  0  0  0  0
  152.4846  144.9628  157.9286 H   0  0  0  0  0  0  0  0  0  0  0  0
  154.3135  142.7780  159.6051 H   0  0  0  0  0  0  0  0  0  0  0  0
  152.8988  140.1515  160.4742 H   0  0  0  0  0  0  0  0  0  0  0  0
  154.7017  140.4036  160.2102 H   0  0  0  0  0  0  0  0  0  0  0  0
  154.7081  142.1947  161.9828 H   0  0  0  0  0  0  0  0  0  0  0  0
  152.9073  141.9312  162.2470 H   0  0  0  0  0  0  0  0  0  0  0  0
  1  2  2  0  0  0  0
  2  3  1  0  0  0  0
  2 12  1  0  0  0  0
  3  4  1  0  0  0  0
  3 21  1  0  0  0  0
  3 22  1  0  0  0  0
  4 10  1  0  0  0  0
  4  5  1  0  0  0  0
  5  6  2  0  0  0  0
  5 23  1  0  0  0  0
  6  7  1  0  0  0  0
  6 24  1  0  0  0  0
  7  8  2  0  0  0  0
  7  9  1  0  0  0  0
  9 20  1  0  0  0  0
  9 10  1  0  0  0  0
 10 11  2  0  0  0  0
 12 13  1  0  0  0  0
 12 25  1  0  0  0  0
 13 14  1  0  0  0  0
 13 17  1  0  0  0  0
 13 26  1  0  0  0  0
 14 16  1  0  0  0  0
 14 15  1  0  0  0  0
 14 27  1  0  0  0  0
 15 16  1  0  0  0  0
 15 28  1  0  0  0  0
 15 29  1  0  0  0  0
 16 30  1  0  0  0  0
 16 31  1  0  0  0  0
 17 19  1  0  0  0  0
 17 18  1  0  0  0  0
 17 32  1  0  0  0  0
 18 19  1  0  0  0  0
 18 33  1  0  0  0  0
 18 34  1  0  0  0  0
 19 35  1  0  0  0  0
 19 36  1  0  0  0  0
M  END
> <s_m_source_file>
AV-unprocessed.smi

> <i_m_source_file_index>
362

> <i_lp_mmshare_version>
43012

> <i_f3d_flags>
0

> <s_epik_input>
W0NIMl0xW0NIMl1bQ0hdMVtDSF0oW0NIXTJbQ0gyXVtDSDJdMilbTkhdQyg9TylbQ0gyXW4zW2NIXVtjSF1jKD1PKVtuSF1jMz1P

> <s_epik_cmdline>
J2VwaWtfcHl0aG9uJywgJy1waCcsICc3LjAnLCAnLXRuJywgJzgnLCAnLW1hJywgJzIwMCcsICctbWV0YWxfYmluZGluZycsICctaW1hZScsICc8aW5maWxlLm1hZT4nLCAnLW9tYWUnLCAnPG91dGZpbGUubWFlPic=

> <r_lp_tautomer_probability>
0.999537

> <r_epik_Ionization_Penalty>
0.00315598

> <r_epik_Ionization_Penalty_Charging>
0.00315596

> <r_epik_Ionization_Penalty_Neutral>
2.04126e-08

> <r_epik_State_Penalty>
0.00222351

> <r_epik_Charging_Adjusted_Penalty>
0.00537947

> <i_epik_Tot_Q>
0

> <i_epik_Tot_abs_Q>
0

> <r_epik_Metal_State_Penalty>
0.363464

> <b_epik_Metal_Only>
0

> <s_lp_Force_Field>
OPLS_2005

> <r_lp_Energy>
23.1626

> <b_lp_Chiralities_Consistent>
1

> <s_lp_Variant>
AV-unprocessed.smi:362-1

> <Gold.Version>
5.8.1

> <Gold.Id.Protein>
6NUR|6NUR_protein|mol2

> <Gold.PLP.Fitness>
46.9473

> <Gold.PLP.PLP>
-44.3145

> <Gold.PLP.part.hbond>
-1.0000

> <Gold.PLP.part.metal>
0.0000

> <Gold.PLP.part.buried>
-4.5893

> <Gold.PLP.part.nonpolar>
-39.3614

> <Gold.PLP.part.repulsive>
0.2617

> <Gold.PLP.ligand.clash>
0.0000

> <Gold.PLP.ligand.torsion>
1.2416

> <Gold.PLP.Chemscore.Hbond>
1.0000

> <Gold.PLP.Chemscore.CHOScore>
0.0000

> <Gold.PLP.Chemscore.Metal>
0.0000

> <Gold.Chemscore.Hbonds>
donor molecule, donor type, donor heavy atom, donor atom, acceptor molecule, acceptor atom, score
      P1  H 10752 10765       L1     8  1.00

> <Gold.PLP.Chemscore.Internal.Correction>
2.1160

> <Gold.Rescore>
     Score         DG    S(hbond)    S(metal)    S(lipo)     H(rot)  DE(clash)    DE(int)     intcor
     13.42     -14.91       0.97        0.00     100.12       2.15       0.00       1.49       ----

> <Gold.Chemscore.Fitness>
13.4215

> <Gold.Chemscore.DG>
-14.9147

> <Gold.Chemscore.ZeroCoef>
-5.4800

> <Gold.Chemscore.Hbond>
0.9653

> <Gold.Chemscore.Metal>
0.0000

> <Gold.Chemscore.Lipo>
100.1246

> <Gold.Chemscore.Internal_Hbond>
0.0000

> <Gold.Chemscore.DEClash>
0.0000

> <Gold.Chemscore.DEInternal>
1.4933

> <Gold.Chemscore.Rot>
2.1500

> <Gold.Chemscore.Internal.Correction>
   9.000000E+99

> <Gold.Chemscore.Hbonds>
donor molecule, donor type, donor heavy atom, donor atom, acceptor molecule, acceptor atom, score
      P1  H 10752 10765       L1     8  0.81

> <Gold.Chemscore.Hbond.Weighted>
-3.2242

> <Gold.Chemscore.Metal.Weighted>
-0.0000

> <Gold.Chemscore.Lipo.Weighted>
-11.7146

> <Gold.Chemscore.Internal_Hbond.Weighted>
0.0000

> <Gold.Chemscore.DEClash.Weighted>
0.0000

> <Gold.Chemscore.DEInternal.Weighted>
1.4933

> <Gold.Chemscore.Rot.Weighted>
5.5040

> <Gold.Chemscore.Internal.Correction.Weighted>
   9.000000E+99

> <Gold.Protein.RotatedTorsions>
[ 6907 6896 6895 6894 ] final  124.20 input  -60.11 | X-H torsion
[ 7974 7965 7964 7962 ] final  -27.29 input  175.53 | X-H torsion
[ 8008 7997 7996 7995 ] final  -88.12 input   59.86 | X-H torsion
[ 10167 10162 10161 10158 ] final  163.97 input  -65.29 | X-H torsion
[ 10718 10713 10712 10709 ] final  153.70 input   66.30 | X-H torsion
[ 10763 10752 10751 10750 ] final  156.87 input  -60.55 | X-H torsion
[ 11005 11000 10999 10996 ] final  -53.65 input  -57.11 | X-H torsion

> <Gold.Protein.ActiveResidues>
 VAL166  LYS551  ARG553  GLY616  TRP617  ASP618  TYR619  PRO620  LYS621  CYS622 
 ASP623  PHE694  ASN695  SER759  ASP760  ASP761  ALA762  ILE779  LEU786  VAL792 
 PHE793  MET794  SER795  GLU796  ALA797  LYS798  CYS799  TRP800  GLU811  SER814 

> <Gold.Protein.RotatedAtoms>
  152.4098  133.6945  159.6387 H   0  0  0  0  0  0  0  0  0  0  0  0  # atno 6907 bound_to 6896
  150.7979  133.8645  159.3250 H   0  0  0  0  0  0  0  0  0  0  0  0  # atno 6908 bound_to 6896
  151.6390  135.1016  160.0189 H   0  0  0  0  0  0  0  0  0  0  0  0  # atno 6909 bound_to 6896
  146.1368  140.5132  142.8669 H   0  0  0  0  0  0  0  0  0  0  0  0  # atno 7974 bound_to 7965
  154.6712  140.0557  157.0167 H   0  0  0  0  0  0  0  0  0  0  0  0  # atno 8008 bound_to 7997
  155.1087  140.3236  155.4509 H   0  0  0  0  0  0  0  0  0  0  0  0  # atno 8009 bound_to 7997
  156.2658  140.2018  156.6211 H   0  0  0  0  0  0  0  0  0  0  0  0  # atno 8010 bound_to 7997
  139.4881  144.4283  151.9102 H   0  0  0  0  0  0  0  0  0  0  0  0  # atno 10167 bound_to 10162
  157.2413  131.0759  151.1791 H   0  0  0  0  0  0  0  0  0  0  0  0  # atno 10718 bound_to 10713
  154.1911  135.2795  155.3021 H   0  0  0  0  0  0  0  0  0  0  0  0  # atno 10763 bound_to 10752
  154.5928  135.5554  153.7298 H   0  0  0  0  0  0  0  0  0  0  0  0  # atno 10764 bound_to 10752
  153.0112  135.6372  154.2050 H   0  0  0  0  0  0  0  0  0  0  0  0  # atno 10765 bound_to 10752
  141.0986  133.6621  156.4203 H   0  0  0  0  0  0  0  0  0  0  0  0  # atno 11005 bound_to 11000
  144.7748  140.5717  143.6645 LP  0  0  0  0  0  0  0  0  0  0  0  0  # atno 17320 bound_to 7965
  145.5138  139.1478  143.3590 LP  0  0  0  0  0  0  0  0  0  0  0  0  # atno 17321 bound_to 7965
  140.3730  144.2832  150.5917 LP  0  0  0  0  0  0  0  0  0  0  0  0  # atno 17342 bound_to 10162
  140.5302  143.2245  151.8251 LP  0  0  0  0  0  0  0  0  0  0  0  0  # atno 17343 bound_to 10162
  157.3376  130.7017  149.6362 LP  0  0  0  0  0  0  0  0  0  0  0  0  # atno 17370 bound_to 10713
  155.9670  130.4289  150.4809 LP  0  0  0  0  0  0  0  0  0  0  0  0  # atno 17371 bound_to 10713
  140.5078  134.6424  157.5273 LP  0  0  0  0  0  0  0  0  0  0  0  0  # atno 17394 bound_to 11000
  139.9831  134.7106  155.9824 LP  0  0  0  0  0  0  0  0  0  0  0  0  # atno 17395 bound_to 11000

$$$$
