AV-unprocessed.smi:3216|AV-procd|sdf|12287|dock5
  -GOLD-   2272018123D 1   1.00000     0.00000
 Structure written by MMmdl.
 37 37  0  0  0  0  0  0  0  0  2 V2000
  150.5732  136.8028  154.9268 C   0  0  0  0  0  0  0  0  0  0  0  0
  150.9371  138.1868  154.3618 C   0  0  0  0  0  0  0  0  0  0  0  0
  152.0989  138.8065  155.1521 C   0  0  0  0  0  0  0  0  0  0  0  0
  149.7269  139.1445  154.3293 C   0  0  0  0  0  0  0  0  0  0  0  0
  148.5916  138.5898  153.5979 N   0  0  0  0  0  0  0  0  0  0  0  0
  147.3134  138.9616  153.7627 C   0  0  0  0  0  0  0  0  0  0  0  0
  146.9597  139.8290  154.5626 O   0  0  0  0  0  0  0  0  0  0  0  0
  146.2874  138.2496  152.8794 C   0  0  0  0  0  0  0  0  0  0  0  0
  146.9058  137.6413  151.6836 N   0  3  0  0  0  0  0  0  0  0  0  0
  145.9365  137.0735  150.7275 C   0  0  0  0  0  0  0  0  0  0  0  0
  145.0499  136.0172  151.4031 C   0  0  0  0  0  0  0  0  0  0  0  0
  145.2663  134.6957  150.8464 N   0  0  0  0  0  0  0  0  0  0  0  0
  144.3922  133.9171  150.1173 C   0  0  0  0  0  0  0  0  0  0  0  0
  145.0395  132.7529  149.8170 C   0  0  0  0  0  0  0  0  0  0  0  0
  146.3195  132.9125  150.4180 C   0  0  0  0  0  0  0  0  0  0  0  0
  146.4513  134.0759  151.0352 N   0  0  0  0  0  0  0  0  0  0  0  0
  150.2033  136.8785  155.9498 H   0  0  0  0  0  0  0  0  0  0  0  0
  151.4417  136.1436  154.9368 H   0  0  0  0  0  0  0  0  0  0  0  0
  149.8039  136.3136  154.3292 H   0  0  0  0  0  0  0  0  0  0  0  0
  151.2860  138.0439  153.3381 H   0  0  0  0  0  0  0  0  0  0  0  0
  151.8190  138.9915  156.1898 H   0  0  0  0  0  0  0  0  0  0  0  0
  152.4080  139.7571  154.7161 H   0  0  0  0  0  0  0  0  0  0  0  0
  152.9690  138.1493  155.1538 H   0  0  0  0  0  0  0  0  0  0  0  0
  149.3989  139.3619  155.3465 H   0  0  0  0  0  0  0  0  0  0  0  0
  150.0121  140.1028  153.8914 H   0  0  0  0  0  0  0  0  0  0  0  0
  148.7978  137.8737  152.9161 H   0  0  0  0  0  0  0  0  0  0  0  0
  145.7937  137.4752  153.4680 H   0  0  0  0  0  0  0  0  0  0  0  0
  145.5227  138.9625  152.5675 H   0  0  0  0  0  0  0  0  0  0  0  0
  147.4492  138.3502  151.2121 H   0  0  0  0  0  0  0  0  0  0  0  0
  145.3184  137.8761  150.3223 H   0  0  0  0  0  0  0  0  0  0  0  0
  146.4806  136.6307  149.8918 H   0  0  0  0  0  0  0  0  0  0  0  0
  145.2490  135.9774  152.4752 H   0  0  0  0  0  0  0  0  0  0  0  0
  143.9963  136.2744  151.2854 H   0  0  0  0  0  0  0  0  0  0  0  0
  143.3943  134.2516  149.8745 H   0  0  0  0  0  0  0  0  0  0  0  0
  144.6565  131.9135  149.2558 H   0  0  0  0  0  0  0  0  0  0  0  0
  147.1503  132.2223  150.4245 H   0  0  0  0  0  0  0  0  0  0  0  0
  147.5312  136.9084  151.9877 H   0  0  0  0  0  0  0  0  0  0  0  0
  1  2  1  0  0  0  0
  1 17  1  0  0  0  0
  1 18  1  0  0  0  0
  1 19  1  0  0  0  0
  2  3  1  0  0  0  0
  2  4  1  0  0  0  0
  2 20  1  0  0  0  0
  3 21  1  0  0  0  0
  3 22  1  0  0  0  0
  3 23  1  0  0  0  0
  4  5  1  0  0  0  0
  4 24  1  0  0  0  0
  4 25  1  0  0  0  0
  5  6  1  0  0  0  0
  5 26  1  0  0  0  0
  6  7  2  0  0  0  0
  6  8  1  0  0  0  0
  8  9  1  0  0  0  0
  8 27  1  0  0  0  0
  8 28  1  0  0  0  0
  9 10  1  0  0  0  0
  9 29  1  0  0  0  0
  9 37  1  0  0  0  0
 10 11  1  0  0  0  0
 10 30  1  0  0  0  0
 10 31  1  0  0  0  0
 11 12  1  0  0  0  0
 11 32  1  0  0  0  0
 11 33  1  0  0  0  0
 12 16  1  0  0  0  0
 12 13  1  0  0  0  0
 13 14  2  0  0  0  0
 13 34  1  0  0  0  0
 14 15  1  0  0  0  0
 14 35  1  0  0  0  0
 15 16  2  0  0  0  0
 15 36  1  0  0  0  0
M  CHG  1   9   1
M  END
> <s_m_source_file>
AV-unprocessed.smi

> <i_m_source_file_index>
3216

> <i_lp_mmshare_version>
43012

> <i_f3d_flags>
0

> <s_epik_input>
W0NIM11bQ0hdKFtDSDNdKVtDSDJdW05IXUMoPU8pW0NIMl1bTkhdW0NIMl1bQ0gyXW4xW2NIXVtjSF1bY0hdbjE=

> <s_epik_cmdline>
J2VwaWtfcHl0aG9uJywgJy1waCcsICc3LjAnLCAnLXRuJywgJzgnLCAnLW1hJywgJzIwMCcsICctbWV0YWxfYmluZGluZycsICctaW1hZScsICc8aW5maWxlLm1hZT4nLCAnLW9tYWUnLCAnPG91dGZpbGUubWFlPic=

> <r_lp_tautomer_probability>
1

> <r_epik_Ionization_Penalty>
0.20724

> <r_epik_Ionization_Penalty_Charging>
0.207237

> <r_epik_Ionization_Penalty_Neutral>
3.19342e-06

> <r_epik_State_Penalty>
0.197611

> <r_epik_Charging_Adjusted_Penalty>
0.404848

> <i_epik_Tot_Q>
1

> <i_epik_Tot_abs_Q>
1

> <r_epik_Metal_State_Penalty>
0.197786

> <b_epik_Metal_Only>
0

> <s_lp_Force_Field>
OPLS_2005

> <r_lp_Energy>
2.0828

> <b_lp_Chiralities_Consistent>
1

> <s_lp_Variant>
AV-unprocessed.smi:3216-1

> <Gold.Version>
5.8.1

> <Gold.Id.Protein>
6NUR|6NUR_protein|mol2

> <Gold.PLP.Fitness>
45.6158

> <Gold.PLP.PLP>
-32.3628

> <Gold.PLP.part.hbond>
-2.7434

> <Gold.PLP.part.metal>
0.0000

> <Gold.PLP.part.buried>
-0.5691

> <Gold.PLP.part.nonpolar>
-29.4511

> <Gold.PLP.part.repulsive>
0.4656

> <Gold.PLP.ligand.clash>
0.0000

> <Gold.PLP.ligand.torsion>
0.8908

> <Gold.PLP.Chemscore.Hbond>
2.9825

> <Gold.PLP.Chemscore.CHOScore>
2.0000

> <Gold.PLP.Chemscore.Metal>
0.0000

> <Gold.Chemscore.Hbonds>
donor molecule, donor type, donor heavy atom, donor atom, acceptor molecule, acceptor atom, score
      L1  H     5    26       P1  7948  1.00
      L1  H     9    37       P1  7948  1.86
      L1  C    13    34       P1 10186  1.00
      L1  C    15    36       P1 10747  1.00

> <Gold.PLP.Chemscore.Internal.Correction>
0.0870

> <Gold.Rescore>
     Score         DG    S(hbond)    S(metal)    S(lipo)     H(rot)  DE(clash)    DE(int)     intcor
     12.81     -15.21       1.96        0.00      78.10       2.32       1.50       0.90       ----

> <Gold.Chemscore.Fitness>
12.8097

> <Gold.Chemscore.DG>
-15.2137

> <Gold.Chemscore.ZeroCoef>
-5.4800

> <Gold.Chemscore.Hbond>
1.9558

> <Gold.Chemscore.Metal>
0.0000

> <Gold.Chemscore.Lipo>
78.1008

> <Gold.Chemscore.Internal_Hbond>
0.0000

> <Gold.Chemscore.DEClash>
1.5004

> <Gold.Chemscore.DEInternal>
0.9036

> <Gold.Chemscore.Rot>
2.3189

> <Gold.Chemscore.Internal.Correction>
   9.000000E+99

> <Gold.Chemscore.Hbonds>
donor molecule, donor type, donor heavy atom, donor atom, acceptor molecule, acceptor atom, score
      L1  H     5    26       P1  7948  0.99
      L1  H     9    37       P1  7948  0.86

> <Gold.Chemscore.Hbond.Weighted>
-6.5323

> <Gold.Chemscore.Metal.Weighted>
-0.0000

> <Gold.Chemscore.Lipo.Weighted>
-9.1378

> <Gold.Chemscore.Internal_Hbond.Weighted>
0.0000

> <Gold.Chemscore.DEClash.Weighted>
1.5004

> <Gold.Chemscore.DEInternal.Weighted>
0.9036

> <Gold.Chemscore.Rot.Weighted>
5.9363

> <Gold.Chemscore.Internal.Correction.Weighted>
   9.000000E+99

> <Gold.Protein.RotatedTorsions>
[ 6907 6896 6895 6894 ] final   59.06 input  -60.11 | X-H torsion
[ 7974 7965 7964 7962 ] final  -70.36 input  175.53 | X-H torsion
[ 8008 7997 7996 7995 ] final   64.36 input   59.86 | X-H torsion
[ 10167 10162 10161 10158 ] final -169.15 input  -65.29 | X-H torsion
[ 10718 10713 10712 10709 ] final   32.19 input   66.30 | X-H torsion
[ 10763 10752 10751 10750 ] final -110.72 input  -60.55 | X-H torsion
[ 11005 11000 10999 10996 ] final  -72.12 input  -57.11 | X-H torsion

> <Gold.Protein.ActiveResidues>
 VAL166  LYS551  ARG553  GLY616  TRP617  ASP618  TYR619  PRO620  LYS621  CYS622 
 ASP623  PHE694  ASN695  SER759  ASP760  ASP761  ALA762  ILE779  LEU786  VAL792 
 PHE793  MET794  SER795  GLU796  ALA797  LYS798  CYS799  TRP800  GLU811  SER814 

> <Gold.Protein.RotatedAtoms>
  152.3881  134.6486  160.0117 H   0  0  0  0  0  0  0  0  0  0  0  0  # atno 6907 bound_to 6896
  151.6728  133.3308  159.3208 H   0  0  0  0  0  0  0  0  0  0  0  0  # atno 6908 bound_to 6896
  150.7802  134.6784  159.6475 H   0  0  0  0  0  0  0  0  0  0  0  0  # atno 6909 bound_to 6896
  145.6919  140.9150  143.0777 H   0  0  0  0  0  0  0  0  0  0  0  0  # atno 7974 bound_to 7965
  155.6448  140.3497  155.4727 H   0  0  0  0  0  0  0  0  0  0  0  0  # atno 8008 bound_to 7997
  155.9896  140.1191  157.0674 H   0  0  0  0  0  0  0  0  0  0  0  0  # atno 8009 bound_to 7997
  154.4215  140.1122  156.5533 H   0  0  0  0  0  0  0  0  0  0  0  0  # atno 8010 bound_to 7997
  139.5940  144.1151  152.1668 H   0  0  0  0  0  0  0  0  0  0  0  0  # atno 10167 bound_to 10162
  157.2821  130.7260  149.6562 H   0  0  0  0  0  0  0  0  0  0  0  0  # atno 10718 bound_to 10713
  154.8263  135.4554  154.0928 H   0  0  0  0  0  0  0  0  0  0  0  0  # atno 10763 bound_to 10752
  153.2240  135.6897  153.7974 H   0  0  0  0  0  0  0  0  0  0  0  0  # atno 10764 bound_to 10752
  153.7380  135.3316  155.3275 H   0  0  0  0  0  0  0  0  0  0  0  0  # atno 10765 bound_to 10752
  141.1603  133.6837  156.7011 H   0  0  0  0  0  0  0  0  0  0  0  0  # atno 11005 bound_to 11000
  144.6994  139.8833  143.7448 LP  0  0  0  0  0  0  0  0  0  0  0  0  # atno 17320 bound_to 7965
  146.0874  139.3863  143.0427 LP  0  0  0  0  0  0  0  0  0  0  0  0  # atno 17321 bound_to 7965
  140.0732  144.5762  150.7176 LP  0  0  0  0  0  0  0  0  0  0  0  0  # atno 17342 bound_to 10162
  140.7197  143.2577  151.4319 LP  0  0  0  0  0  0  0  0  0  0  0  0  # atno 17343 bound_to 10162
  155.9664  130.4335  150.5008 LP  0  0  0  0  0  0  0  0  0  0  0  0  # atno 17370 bound_to 10713
  157.2954  131.0634  151.2105 LP  0  0  0  0  0  0  0  0  0  0  0  0  # atno 17371 bound_to 10713
  140.2958  134.8204  157.4056 LP  0  0  0  0  0  0  0  0  0  0  0  0  # atno 17394 bound_to 11000
  140.1306  134.5100  155.8109 LP  0  0  0  0  0  0  0  0  0  0  0  0  # atno 17395 bound_to 11000

$$$$
