AV-unprocessed.smi:33|AV-procd|sdf|204|dock1
  -GOLD-   2262015483D 1   1.00000     0.00000
 Structure written by MMmdl.
 67 72  0  0  0  0  0  0  0  0  1 V2000
  151.9847  139.7285  158.7624 O   0  0  0  0  0  0  0  0  0  0  0  0
  151.7902  140.8271  158.2380 C   0  0  0  0  0  0  0  0  0  0  0  0
  151.4862  140.9861  156.9304 O   0  0  0  0  0  0  0  0  0  0  0  0
  150.9874  139.8827  156.1864 C   0  0  0  0  0  0  0  0  0  0  0  0
  150.0755  140.2950  155.0136 C   0  0  1  0  0  0  0  0  0  0  0  0
  149.7885  139.2073  154.1381 O   0  0  0  0  0  0  0  0  0  0  0  0
  148.5062  138.6950  154.3733 C   0  0  1  0  0  0  0  0  0  0  0  0
  148.6566  137.3260  154.9625 N   0  0  0  0  0  0  0  0  0  0  0  0
  149.7685  136.5103  155.0100 C   0  0  0  0  0  0  0  0  0  0  0  0
  149.5958  135.3611  155.6054 N   0  0  0  0  0  0  0  0  0  0  0  0
  148.2501  135.3610  155.9461 C   0  0  0  0  0  0  0  0  0  0  0  0
  147.3925  134.4267  156.5855 C   0  0  0  0  0  0  0  0  0  0  0  0
  147.8323  133.2339  157.0477 N   0  0  0  0  0  0  0  0  0  0  0  0
  148.4542  133.2234  158.3771 C   0  0  0  0  0  0  0  0  0  0  0  0
  149.3746  132.4402  158.6171 O   0  0  0  0  0  0  0  0  0  0  0  0
  148.0075  134.2035  159.4242 C   0  0  0  0  0  0  0  0  0  0  0  0
  147.2849  133.7570  160.5521 C   0  0  0  0  0  0  0  0  0  0  0  0
  146.8433  134.6781  161.5217 C   0  0  0  0  0  0  0  0  0  0  0  0
  147.1050  136.0521  161.3601 C   0  0  0  0  0  0  0  0  0  0  0  0
  147.8011  136.5065  160.2239 C   0  0  0  0  0  0  0  0  0  0  0  0
  148.2444  135.5863  159.2548 C   0  0  0  0  0  0  0  0  0  0  0  0
  147.6823  132.0639  156.1687 C   0  0  0  0  0  0  0  0  0  0  0  0
  147.7504  130.9275  156.6414 O   0  0  0  0  0  0  0  0  0  0  0  0
  147.4120  132.2436  154.7016 C   0  0  0  0  0  0  0  0  0  0  0  0
  146.2861  131.6279  154.1127 C   0  0  0  0  0  0  0  0  0  0  0  0
  146.0324  131.7800  152.7357 C   0  0  0  0  0  0  0  0  0  0  0  0
  146.9126  132.5332  151.9358 C   0  0  0  0  0  0  0  0  0  0  0  0
  148.0519  133.1271  152.5112 C   0  0  0  0  0  0  0  0  0  0  0  0
  148.3059  132.9763  153.8882 C   0  0  0  0  0  0  0  0  0  0  0  0
  146.0841  134.7585  156.7335 N   0  0  0  0  0  0  0  0  0  0  0  0
  145.6478  135.9437  156.2960 C   0  0  0  0  0  0  0  0  0  0  0  0
  146.3356  136.9175  155.6943 N   0  0  0  0  0  0  0  0  0  0  0  0
  147.6483  136.5808  155.5353 C   0  0  0  0  0  0  0  0  0  0  0  0
  147.8064  139.6355  155.3745 C   0  0  2  0  0  0  0  0  0  0  0  0
  146.4890  139.9858  154.9992 O   0  0  0  0  0  0  0  0  0  0  0  0
  148.7080  140.8621  155.3844 C   0  0  2  0  0  0  0  0  0  0  0  0
  148.3579  141.7147  154.4168 F   0  0  0  0  0  0  0  0  0  0  0  0
  151.8434  142.1124  158.9925 C   0  0  0  0  0  0  0  0  0  0  0  0
  152.1890  142.0937  160.3643 C   0  0  0  0  0  0  0  0  0  0  0  0
  152.2455  143.2887  161.1070 C   0  0  0  0  0  0  0  0  0  0  0  0
  151.9617  144.5178  160.4852 C   0  0  0  0  0  0  0  0  0  0  0  0
  151.6126  144.5499  159.1227 C   0  0  0  0  0  0  0  0  0  0  0  0
  151.5535  143.3555  158.3799 C   0  0  0  0  0  0  0  0  0  0  0  0
  151.8390  139.3196  155.8029 H   0  0  0  0  0  0  0  0  0  0  0  0
  150.4312  139.2084  156.8393 H   0  0  0  0  0  0  0  0  0  0  0  0
  150.6327  141.0352  154.4382 H   0  0  0  0  0  0  0  0  0  0  0  0
  147.9675  138.5414  153.4373 H   0  0  0  0  0  0  0  0  0  0  0  0
  150.7289  136.8002  154.6096 H   0  0  0  0  0  0  0  0  0  0  0  0
  147.0765  132.7050  160.6851 H   0  0  0  0  0  0  0  0  0  0  0  0
  146.3017  134.3302  162.3890 H   0  0  0  0  0  0  0  0  0  0  0  0
  146.7654  136.7582  162.1035 H   0  0  0  0  0  0  0  0  0  0  0  0
  147.9935  137.5613  160.0938 H   0  0  0  0  0  0  0  0  0  0  0  0
  148.7693  135.9476  158.3819 H   0  0  0  0  0  0  0  0  0  0  0  0
  145.6037  131.0479  154.7174 H   0  0  0  0  0  0  0  0  0  0  0  0
  145.1625  131.3177  152.2933 H   0  0  0  0  0  0  0  0  0  0  0  0
  146.7176  132.6497  150.8800 H   0  0  0  0  0  0  0  0  0  0  0  0
  148.7322  133.6979  151.8966 H   0  0  0  0  0  0  0  0  0  0  0  0
  149.1860  133.4329  154.3177 H   0  0  0  0  0  0  0  0  0  0  0  0
  144.5975  136.1412  156.4519 H   0  0  0  0  0  0  0  0  0  0  0  0
  147.7900  139.1801  156.3632 H   0  0  0  0  0  0  0  0  0  0  0  0
  146.4752  140.1432  154.0675 H   0  0  0  0  0  0  0  0  0  0  0  0
  148.6964  141.4095  156.3274 H   0  0  0  0  0  0  0  0  0  0  0  0
  152.4117  141.1617  160.8638 H   0  0  0  0  0  0  0  0  0  0  0  0
  152.5066  143.2619  162.1548 H   0  0  0  0  0  0  0  0  0  0  0  0
  152.0023  145.4346  161.0547 H   0  0  0  0  0  0  0  0  0  0  0  0
  151.3857  145.4926  158.6466 H   0  0  0  0  0  0  0  0  0  0  0  0
  151.2841  143.4172  157.3377 H   0  0  0  0  0  0  0  0  0  0  0  0
  1  2  2  0  0  0  0
  2  3  1  0  0  0  0
  2 38  1  0  0  0  0
  3  4  1  0  0  0  0
  4  5  1  0  0  0  0
  4 44  1  0  0  0  0
  4 45  1  0  0  0  0
  5 36  1  0  0  0  0
  5  6  1  0  0  0  0
  5 46  1  0  0  0  0
  6  7  1  0  0  0  0
  7  8  1  0  0  0  0
  7 34  1  0  0  0  0
  7 47  1  0  0  0  0
  8 33  1  0  0  0  0
  8  9  1  0  0  0  0
  9 10  2  0  0  0  0
  9 48  1  0  0  0  0
 10 11  1  0  0  0  0
 11 33  2  0  0  0  0
 11 12  1  0  0  0  0
 12 13  1  0  0  0  0
 12 30  2  0  0  0  0
 13 14  1  0  0  0  0
 13 22  1  0  0  0  0
 14 15  2  0  0  0  0
 14 16  1  0  0  0  0
 16 21  1  0  0  0  0
 16 17  2  0  0  0  0
 17 18  1  0  0  0  0
 17 49  1  0  0  0  0
 18 19  2  0  0  0  0
 18 50  1  0  0  0  0
 19 20  1  0  0  0  0
 19 51  1  0  0  0  0
 20 21  2  0  0  0  0
 20 52  1  0  0  0  0
 21 53  1  0  0  0  0
 22 23  2  0  0  0  0
 22 24  1  0  0  0  0
 24 29  1  0  0  0  0
 24 25  2  0  0  0  0
 25 26  1  0  0  0  0
 25 54  1  0  0  0  0
 26 27  2  0  0  0  0
 26 55  1  0  0  0  0
 27 28  1  0  0  0  0
 27 56  1  0  0  0  0
 28 29  2  0  0  0  0
 28 57  1  0  0  0  0
 29 58  1  0  0  0  0
 30 31  1  0  0  0  0
 31 32  2  0  0  0  0
 31 59  1  0  0  0  0
 32 33  1  0  0  0  0
 34 35  1  0  0  0  0
 34 36  1  0  0  0  0
 34 60  1  0  0  0  0
 35 61  1  0  0  0  0
 36 37  1  0  0  0  0
 36 62  1  0  0  0  0
 38 43  1  0  0  0  0
 38 39  2  0  0  0  0
 39 40  1  0  0  0  0
 39 63  1  0  0  0  0
 40 41  2  0  0  0  0
 40 64  1  0  0  0  0
 41 42  1  0  0  0  0
 41 65  1  0  0  0  0
 42 43  2  0  0  0  0
 42 66  1  0  0  0  0
 43 67  1  0  0  0  0
M  END
> <s_m_source_file>
AV-unprocessed.smi

> <i_m_source_file_index>
33

> <i_lp_mmshare_version>
43012

> <i_f3d_flags>
0

> <s_epik_input>
W2NIXTFbY0hdW2NIXVtjSF1bY0hdYzFDKD1PKU9bQ0gyXVtDQEBIXTJPW0NASF0oW0NAQEhdKFtPSF0pW0NAQEhdMkYpbihbY0hdbjMpYyhjMzQpbltjSF1uYzROKEMoPU8pYzVbY0hdW2NIXVtjSF1bY0hdW2NIXTUpQyg9TyljNltjSF1bY0hdW2NIXVtjSF1bY0hdNg==

> <s_epik_cmdline>
J2VwaWtfcHl0aG9uJywgJy1waCcsICc3LjAnLCAnLXRuJywgJzgnLCAnLW1hJywgJzIwMCcsICctbWV0YWxfYmluZGluZycsICctaW1hZScsICc8aW5maWxlLm1hZT4nLCAnLW9tYWUnLCAnPG91dGZpbGUubWFlPic=

> <r_lp_tautomer_probability>
1

> <r_epik_Ionization_Penalty>
0.00067664

> <r_epik_Ionization_Penalty_Charging>
0

> <r_epik_Ionization_Penalty_Neutral>
0.00067664

> <r_epik_State_Penalty>
0.000428095

> <r_epik_Charging_Adjusted_Penalty>
0.000428095

> <i_epik_Tot_Q>
0

> <i_epik_Tot_abs_Q>
0

> <r_epik_Metal_State_Penalty>
-0

> <b_epik_Metal_Only>
0

> <s_epik_Chemistry_Notes>
This compound has an ester and may undergo hydrolysis at high or low pH. This compound contains an acetal/aminal-like group ( X-CH(R)-Y where X, Y are N, S, or O) that may be acid/base labile, releasing an aldehyde.

> <s_lp_Force_Field>
OPLS_2005

> <r_lp_Energy>
67.2923

> <b_lp_Chiralities_Consistent>
1

> <s_lp_Variant>
AV-unprocessed.smi:33-6

> <Gold.Version>
5.8.1

> <Gold.Id.Protein>
6NUR|6NUR_protein|mol2

> <Gold.PLP.Fitness>
55.5014

> <Gold.PLP.PLP>
-58.6228

> <Gold.PLP.part.hbond>
-1.0000

> <Gold.PLP.part.metal>
0.0000

> <Gold.PLP.part.buried>
-5.4394

> <Gold.PLP.part.nonpolar>
-52.4424

> <Gold.PLP.part.repulsive>
0.7322

> <Gold.PLP.ligand.clash>
0.0000

> <Gold.PLP.ligand.torsion>
5.1240

> <Gold.PLP.Chemscore.Hbond>
1.0000

> <Gold.PLP.Chemscore.CHOScore>
0.0000

> <Gold.PLP.Chemscore.Metal>
0.0000

> <Gold.Chemscore.Hbonds>
donor molecule, donor type, donor heavy atom, donor atom, acceptor molecule, acceptor atom, score
      P1  H  6896  6909       L1    15  0.96

> <Gold.PLP.Chemscore.Internal.Correction>
4.1266

> <Gold.Rescore>
     Score         DG    S(hbond)    S(metal)    S(lipo)     H(rot)  DE(clash)    DE(int)     intcor
     12.70     -19.07       0.69        0.00     151.74       2.52       0.08       6.30       ----

> <Gold.Chemscore.Fitness>
12.6956

> <Gold.Chemscore.DG>
-19.0695

> <Gold.Chemscore.ZeroCoef>
-5.4800

> <Gold.Chemscore.Hbond>
0.6885

> <Gold.Chemscore.Metal>
0.0000

> <Gold.Chemscore.Lipo>
151.7355

> <Gold.Chemscore.Internal_Hbond>
0.0000

> <Gold.Chemscore.DEClash>
0.0769

> <Gold.Chemscore.DEInternal>
6.2970

> <Gold.Chemscore.Rot>
2.5247

> <Gold.Chemscore.Internal.Correction>
   9.000000E+99

> <Gold.Chemscore.Hbonds>
donor molecule, donor type, donor heavy atom, donor atom, acceptor molecule, acceptor atom, score
      P1  H  6896  6909       L1    15  0.57

> <Gold.Chemscore.Hbond.Weighted>
-2.2997

> <Gold.Chemscore.Metal.Weighted>
-0.0000

> <Gold.Chemscore.Lipo.Weighted>
-17.7531

> <Gold.Chemscore.Internal_Hbond.Weighted>
0.0000

> <Gold.Chemscore.DEClash.Weighted>
0.0769

> <Gold.Chemscore.DEInternal.Weighted>
6.2970

> <Gold.Chemscore.Rot.Weighted>
6.4633

> <Gold.Chemscore.Internal.Correction.Weighted>
   9.000000E+99

> <Gold.Protein.RotatedTorsions>
[ 6907 6896 6895 6894 ] final  -19.27 input  -60.11 | X-H torsion
[ 7974 7965 7964 7962 ] final  -18.23 input  175.53 | X-H torsion
[ 8008 7997 7996 7995 ] final -129.87 input   59.86 | X-H torsion
[ 10167 10162 10161 10158 ] final  179.62 input  -65.29 | X-H torsion
[ 10718 10713 10712 10709 ] final -148.63 input   66.30 | X-H torsion
[ 10763 10752 10751 10750 ] final  158.82 input  -60.55 | X-H torsion
[ 11005 11000 10999 10996 ] final   -0.79 input  -57.11 | X-H torsion

> <Gold.Protein.ActiveResidues>
 VAL166  LYS551  ARG553  GLY616  TRP617  ASP618  TYR619  PRO620  LYS621  CYS622 
 ASP623  PHE694  ASN695  SER759  ASP760  ASP761  ALA762  ILE779  LEU786  VAL792 
 PHE793  MET794  SER795  GLU796  ALA797  LYS798  CYS799  TRP800  GLU811  SER814 

> <Gold.Protein.RotatedAtoms>
  151.2656  135.0668  159.9114 H   0  0  0  0  0  0  0  0  0  0  0  0  # atno 6907 bound_to 6896
  152.5359  134.0185  159.7981 H   0  0  0  0  0  0  0  0  0  0  0  0  # atno 6908 bound_to 6896
  151.0415  133.5652  159.2682 H   0  0  0  0  0  0  0  0  0  0  0  0  # atno 6909 bound_to 6896
  146.1902  140.3891  142.8461 H   0  0  0  0  0  0  0  0  0  0  0  0  # atno 7974 bound_to 7965
  155.2864  140.0446  157.3019 H   0  0  0  0  0  0  0  0  0  0  0  0  # atno 8008 bound_to 7997
  154.5566  140.2333  155.8368 H   0  0  0  0  0  0  0  0  0  0  0  0  # atno 8009 bound_to 7997
  156.2013  140.3025  155.9539 H   0  0  0  0  0  0  0  0  0  0  0  0  # atno 8010 bound_to 7997
  139.5344  144.2540  152.0762 H   0  0  0  0  0  0  0  0  0  0  0  0  # atno 10167 bound_to 10162
  156.4227  130.8037  151.2260 H   0  0  0  0  0  0  0  0  0  0  0  0  # atno 10718 bound_to 10713
  154.2221  135.2781  155.2921 H   0  0  0  0  0  0  0  0  0  0  0  0  # atno 10763 bound_to 10752
  154.5693  135.5623  153.7083 H   0  0  0  0  0  0  0  0  0  0  0  0  # atno 10764 bound_to 10752
  153.0039  135.6317  154.2362 H   0  0  0  0  0  0  0  0  0  0  0  0  # atno 10765 bound_to 10752
  140.6402  133.9497  155.8322 H   0  0  0  0  0  0  0  0  0  0  0  0  # atno 11005 bound_to 11000
  144.8473  140.6948  143.6191 LP  0  0  0  0  0  0  0  0  0  0  0  0  # atno 17320 bound_to 7965
  145.3815  139.1636  143.4278 LP  0  0  0  0  0  0  0  0  0  0  0  0  # atno 17321 bound_to 7965
  140.2008  144.4660  150.6432 LP  0  0  0  0  0  0  0  0  0  0  0  0  # atno 17342 bound_to 10162
  140.6542  143.2233  151.6007 LP  0  0  0  0  0  0  0  0  0  0  0  0  # atno 17343 bound_to 10162
  157.7508  131.0223  150.3786 LP  0  0  0  0  0  0  0  0  0  0  0  0  # atno 17370 bound_to 10713
  156.4106  130.3933  149.6894 LP  0  0  0  0  0  0  0  0  0  0  0  0  # atno 17371 bound_to 10713
  141.0612  134.0343  157.3655 LP  0  0  0  0  0  0  0  0  0  0  0  0  # atno 17394 bound_to 11000
  139.9083  135.0185  156.7583 LP  0  0  0  0  0  0  0  0  0  0  0  0  # atno 17395 bound_to 11000

$$$$
