AV-unprocessed.smi:2966|AV-procd|sdf|11324|dock8
  -GOLD-   2272016233D 1   1.00000     0.00000
 Structure written by MMmdl.
 40 42  0  0  0  0  0  0  0  0  1 V2000
  149.8064  139.1768  154.4790 C   0  0  0  0  0  0  0  0  0  0  0  0
  150.8705  140.0113  154.8998 O   0  0  0  0  0  0  0  0  0  0  0  0
  150.5558  140.7485  156.0696 C   0  0  0  0  0  0  0  0  0  0  0  0
  151.7504  141.6249  156.4713 C   0  0  0  0  0  0  0  0  0  0  0  0
  151.7774  141.8914  157.9022 N   0  0  0  0  0  0  0  0  0  0  0  0
  151.7683  140.9997  158.9239 C   0  0  0  0  0  0  0  0  0  0  0  0
  151.7227  139.2606  158.6568 S   0  0  0  0  0  0  0  0  0  0  0  0
  153.2917  138.8543  159.4779 C   0  0  0  0  0  0  0  0  0  0  0  0
  153.1832  137.7507  160.5324 C   0  0  0  0  0  0  0  0  0  0  0  0
  152.8707  136.6014  160.2188 O   0  0  0  0  0  0  0  0  0  0  0  0
  153.4442  138.1236  161.7939 N   0  0  0  0  0  0  0  0  0  0  0  0
  153.3995  137.2690  162.9366 C   0  0  0  0  0  0  0  0  0  0  0  0
  154.5725  137.3099  163.8920 C   0  0  0  0  0  0  0  0  0  0  0  0
  154.3814  136.1187  162.9944 C   0  0  0  0  0  0  0  0  0  0  0  0
  151.7983  141.5228  160.1492 N   0  0  0  0  0  0  0  0  0  0  0  0
  151.8397  142.8806  159.8999 C   0  0  0  0  0  0  0  0  0  0  0  0
  151.8897  143.9775  160.7900 C   0  0  0  0  0  0  0  0  0  0  0  0
  151.9292  145.2975  160.2947 C   0  0  0  0  0  0  0  0  0  0  0  0
  151.9180  145.5393  158.9055 C   0  0  0  0  0  0  0  0  0  0  0  0
  151.8668  144.4610  158.0014 C   0  0  0  0  0  0  0  0  0  0  0  0
  151.8282  143.1455  158.5014 C   0  0  0  0  0  0  0  0  0  0  0  0
  150.0987  138.6389  153.5773 H   0  0  0  0  0  0  0  0  0  0  0  0
  148.9145  139.7609  154.2488 H   0  0  0  0  0  0  0  0  0  0  0  0
  149.5562  138.4407  155.2441 H   0  0  0  0  0  0  0  0  0  0  0  0
  149.6793  141.3735  155.8910 H   0  0  0  0  0  0  0  0  0  0  0  0
  150.3094  140.0672  156.8851 H   0  0  0  0  0  0  0  0  0  0  0  0
  152.6822  141.1308  156.1944 H   0  0  0  0  0  0  0  0  0  0  0  0
  151.7330  142.5667  155.9231 H   0  0  0  0  0  0  0  0  0  0  0  0
  154.0148  138.5544  158.7186 H   0  0  0  0  0  0  0  0  0  0  0  0
  153.6801  139.7549  159.9546 H   0  0  0  0  0  0  0  0  0  0  0  0
  153.6929  139.0883  161.9582 H   0  0  0  0  0  0  0  0  0  0  0  0
  152.4244  137.0852  163.3859 H   0  0  0  0  0  0  0  0  0  0  0  0
  155.3944  137.9853  163.6615 H   0  0  0  0  0  0  0  0  0  0  0  0
  154.3600  137.1807  164.9513 H   0  0  0  0  0  0  0  0  0  0  0  0
  154.0414  135.1926  163.4538 H   0  0  0  0  0  0  0  0  0  0  0  0
  155.0757  135.9986  162.1650 H   0  0  0  0  0  0  0  0  0  0  0  0
  151.8997  143.8030  161.8557 H   0  0  0  0  0  0  0  0  0  0  0  0
  151.9698  146.1282  160.9839 H   0  0  0  0  0  0  0  0  0  0  0  0
  151.9497  146.5533  158.5345 H   0  0  0  0  0  0  0  0  0  0  0  0
  151.8593  144.6428  156.9370 H   0  0  0  0  0  0  0  0  0  0  0  0
  1  2  1  0  0  0  0
  1 22  1  0  0  0  0
  1 23  1  0  0  0  0
  1 24  1  0  0  0  0
  2  3  1  0  0  0  0
  3  4  1  0  0  0  0
  3 25  1  0  0  0  0
  3 26  1  0  0  0  0
  4  5  1  0  0  0  0
  4 27  1  0  0  0  0
  4 28  1  0  0  0  0
  5 21  1  0  0  0  0
  5  6  1  0  0  0  0
  6  7  1  0  0  0  0
  6 15  2  0  0  0  0
  7  8  1  0  0  0  0
  8  9  1  0  0  0  0
  8 29  1  0  0  0  0
  8 30  1  0  0  0  0
  9 10  2  0  0  0  0
  9 11  1  0  0  0  0
 11 12  1  0  0  0  0
 11 31  1  0  0  0  0
 12 14  1  0  0  0  0
 12 13  1  0  0  0  0
 12 32  1  0  0  0  0
 13 14  1  0  0  0  0
 13 33  1  0  0  0  0
 13 34  1  0  0  0  0
 14 35  1  0  0  0  0
 14 36  1  0  0  0  0
 15 16  1  0  0  0  0
 16 21  2  0  0  0  0
 16 17  1  0  0  0  0
 17 18  2  0  0  0  0
 17 37  1  0  0  0  0
 18 19  1  0  0  0  0
 18 38  1  0  0  0  0
 19 20  2  0  0  0  0
 19 39  1  0  0  0  0
 20 21  1  0  0  0  0
 20 40  1  0  0  0  0
M  END
> <s_m_source_file>
AV-unprocessed.smi

> <i_m_source_file_index>
2966

> <i_lp_mmshare_version>
43012

> <i_f3d_flags>
0

> <s_epik_input>
W2NIXTFbY0hdW2NIXVtjSF1jKGMxMiluKFtDSDJdW0NIMl1PW0NIM10pYyhuMilTW0NIMl1DKD1PKVtOSF1bQ0hdM1tDSDJdW0NIMl0z

> <s_epik_cmdline>
J2VwaWtfcHl0aG9uJywgJy1waCcsICc3LjAnLCAnLXRuJywgJzgnLCAnLW1hJywgJzIwMCcsICctbWV0YWxfYmluZGluZycsICctaW1hZScsICc8aW5maWxlLm1hZT4nLCAnLW9tYWUnLCAnPG91dGZpbGUubWFlPic=

> <r_epik_Ionization_Penalty>
0.0369383

> <r_epik_Ionization_Penalty_Charging>
0

> <r_epik_Ionization_Penalty_Neutral>
0.0369383

> <r_epik_State_Penalty>
0.0308874

> <r_epik_Charging_Adjusted_Penalty>
0.0308874

> <i_epik_Tot_Q>
0

> <i_epik_Tot_abs_Q>
0

> <r_epik_Metal_State_Penalty>
0.0290633

> <b_epik_Metal_Only>
0

> <s_lp_Force_Field>
OPLS_2005

> <r_lp_Energy>
20.8616

> <b_lp_Chiralities_Consistent>
1

> <s_lp_Variant>
AV-unprocessed.smi:2966-1

> <Gold.Version>
5.8.1

> <Gold.Id.Protein>
6NUR|6NUR_protein|mol2

> <Gold.PLP.Fitness>
49.7973

> <Gold.PLP.PLP>
-44.9371

> <Gold.PLP.part.hbond>
-2.4050

> <Gold.PLP.part.metal>
0.0000

> <Gold.PLP.part.buried>
-6.2429

> <Gold.PLP.part.nonpolar>
-35.9448

> <Gold.PLP.part.repulsive>
0.1037

> <Gold.PLP.ligand.clash>
0.0000

> <Gold.PLP.ligand.torsion>
0.6395

> <Gold.PLP.Chemscore.Hbond>
2.0000

> <Gold.PLP.Chemscore.CHOScore>
0.0000

> <Gold.PLP.Chemscore.Metal>
0.0000

> <Gold.Chemscore.Hbonds>
donor molecule, donor type, donor heavy atom, donor atom, acceptor molecule, acceptor atom, score
      P1  H  6896  6907       L1    10  1.00
      P1  H  7989  7998       L1     2  1.00

> <Gold.PLP.Chemscore.Internal.Correction>
0.1392

> <Gold.Rescore>
     Score         DG    S(hbond)    S(metal)    S(lipo)     H(rot)  DE(clash)    DE(int)     intcor
     18.66     -20.72       1.94        0.00     121.58       2.13       1.23       0.83       ----

> <Gold.Chemscore.Fitness>
18.6576

> <Gold.Chemscore.DG>
-20.7179

> <Gold.Chemscore.ZeroCoef>
-5.4800

> <Gold.Chemscore.Hbond>
1.9390

> <Gold.Chemscore.Metal>
0.0000

> <Gold.Chemscore.Lipo>
121.5752

> <Gold.Chemscore.Internal_Hbond>
0.0000

> <Gold.Chemscore.DEClash>
1.2307

> <Gold.Chemscore.DEInternal>
0.8296

> <Gold.Chemscore.Rot>
2.1338

> <Gold.Chemscore.Internal.Correction>
   9.000000E+99

> <Gold.Chemscore.Hbonds>
donor molecule, donor type, donor heavy atom, donor atom, acceptor molecule, acceptor atom, score
      P1  H  6896  6907       L1    10  1.00
      P1  H  7989  7998       L1     2  0.80

> <Gold.Chemscore.Hbond.Weighted>
-6.4761

> <Gold.Chemscore.Metal.Weighted>
-0.0000

> <Gold.Chemscore.Lipo.Weighted>
-14.2243

> <Gold.Chemscore.Internal_Hbond.Weighted>
0.0000

> <Gold.Chemscore.DEClash.Weighted>
1.2307

> <Gold.Chemscore.DEInternal.Weighted>
0.8296

> <Gold.Chemscore.Rot.Weighted>
5.4626

> <Gold.Chemscore.Internal.Correction.Weighted>
   9.000000E+99

> <Gold.Protein.RotatedTorsions>
[ 6907 6896 6895 6894 ] final   28.20 input  -60.11 | X-H torsion
[ 7974 7965 7964 7962 ] final  174.75 input  175.53 | X-H torsion
[ 8008 7997 7996 7995 ] final   50.35 input   59.86 | X-H torsion
[ 10167 10162 10161 10158 ] final -143.26 input  -65.29 | X-H torsion
[ 10718 10713 10712 10709 ] final  161.42 input   66.30 | X-H torsion
[ 10763 10752 10751 10750 ] final -124.43 input  -60.55 | X-H torsion
[ 11005 11000 10999 10996 ] final   94.01 input  -57.11 | X-H torsion

> <Gold.Protein.ActiveResidues>
 VAL166  LYS551  ARG553  GLY616  TRP617  ASP618  TYR619  PRO620  LYS621  CYS622 
 ASP623  PHE694  ASN695  SER759  ASP760  ASP761  ALA762  ILE779  LEU786  VAL792 
 PHE793  MET794  SER795  GLU796  ALA797  LYS798  CYS799  TRP800  GLU811  SER814 

> <Gold.Protein.RotatedAtoms>
  152.0134  134.9863  160.0568 H   0  0  0  0  0  0  0  0  0  0  0  0  # atno 6907 bound_to 6896
  152.1407  133.4457  159.4773 H   0  0  0  0  0  0  0  0  0  0  0  0  # atno 6908 bound_to 6896
  150.6865  134.2227  159.4446 H   0  0  0  0  0  0  0  0  0  0  0  0  # atno 6909 bound_to 6896
  144.7215  139.9844  143.6439 H   0  0  0  0  0  0  0  0  0  0  0  0  # atno 7974 bound_to 7965
  155.4174  140.3445  155.4268 H   0  0  0  0  0  0  0  0  0  0  0  0  # atno 8008 bound_to 7997
  156.1413  140.1543  156.8947 H   0  0  0  0  0  0  0  0  0  0  0  0  # atno 8009 bound_to 7997
  154.4973  140.0824  156.7705 H   0  0  0  0  0  0  0  0  0  0  0  0  # atno 8010 bound_to 7997
  139.8010  143.7834  152.2658 H   0  0  0  0  0  0  0  0  0  0  0  0  # atno 10167 bound_to 10162
  157.1368  131.0530  151.2346 H   0  0  0  0  0  0  0  0  0  0  0  0  # atno 10718 bound_to 10713
  154.8723  135.4064  154.3104 H   0  0  0  0  0  0  0  0  0  0  0  0  # atno 10763 bound_to 10752
  153.3949  135.7016  153.6473 H   0  0  0  0  0  0  0  0  0  0  0  0  # atno 10764 bound_to 10752
  153.5241  135.3681  155.2616 H   0  0  0  0  0  0  0  0  0  0  0  0  # atno 10765 bound_to 10752
  139.8803  134.8821  156.3801 H   0  0  0  0  0  0  0  0  0  0  0  0  # atno 11005 bound_to 11000
  146.0462  139.3468  143.0667 LP  0  0  0  0  0  0  0  0  0  0  0  0  # atno 17320 bound_to 7965
  145.8273  140.9649  143.0867 LP  0  0  0  0  0  0  0  0  0  0  0  0  # atno 17321 bound_to 7965
  139.7954  144.7394  150.9898 LP  0  0  0  0  0  0  0  0  0  0  0  0  # atno 17342 bound_to 10162
  140.7820  143.4399  151.0567 LP  0  0  0  0  0  0  0  0  0  0  0  0  # atno 17343 bound_to 10162
  157.4343  130.7508  149.7016 LP  0  0  0  0  0  0  0  0  0  0  0  0  # atno 17370 bound_to 10713
  155.9796  130.4038  150.3574 LP  0  0  0  0  0  0  0  0  0  0  0  0  # atno 17371 bound_to 10713
  140.9405  133.7518  156.0140 LP  0  0  0  0  0  0  0  0  0  0  0  0  # atno 17394 bound_to 11000
  140.8225  134.3272  157.5377 LP  0  0  0  0  0  0  0  0  0  0  0  0  # atno 17395 bound_to 11000

$$$$
