AV-unprocessed.smi:1035|AV-procd|sdf|4515|dock1
  -GOLD-   22720 2523D 1   1.00000     0.00000
 Structure written by MMmdl.
 42 43  0  0  0  0  0  0  0  0  1 V2000
  153.9299  141.5755  160.0865 C   0  0  0  0  0  0  0  0  0  0  0  0
  152.7149  141.9438  159.2530 C   0  0  0  0  0  0  0  0  0  0  0  0
  152.0719  143.1192  159.4252 C   0  0  0  0  0  0  0  0  0  0  0  0
  150.9154  143.4593  158.6327 C   0  0  0  0  0  0  0  0  0  0  0  0
  150.4937  142.5765  157.7163 C   0  0  0  0  0  0  0  0  0  0  0  0
  151.1469  141.3464  157.5149 N   0  0  0  0  0  0  0  0  0  0  0  0
  150.5884  140.4560  156.4827 C   0  0  0  0  0  0  0  0  0  0  0  0
  149.3730  139.6481  156.9610 C   0  0  0  0  0  0  0  0  0  0  0  0
  148.2788  139.7539  156.4046 O   0  0  0  0  0  0  0  0  0  0  0  0
  149.5889  138.8271  157.9979 N   0  0  0  0  0  0  0  0  0  0  0  0
  148.5706  137.9784  158.6044 C   0  0  0  0  0  0  0  0  0  0  0  0
  149.1650  136.6450  159.0894 C   0  0  0  0  0  0  0  0  0  0  0  0
  148.3793  136.0013  160.2226 C   0  0  0  0  0  0  0  0  0  0  0  0
  148.1939  136.6205  161.4049 C   0  0  0  0  0  0  0  0  0  0  0  0
  147.4025  136.0336  162.5607 C   0  0  0  0  0  0  0  0  0  0  0  0
  146.5508  134.8260  162.1343 C   0  0  0  0  0  0  0  0  0  0  0  0
  147.3414  133.8886  161.2132 C   0  0  0  0  0  0  0  0  0  0  0  0
  147.8078  134.6166  159.9398 C   0  0  0  0  0  0  0  0  0  0  0  0
  152.2470  140.9769  158.2421 C   0  0  0  0  0  0  0  0  0  0  0  0
  152.8074  139.8950  158.0553 O   0  0  0  0  0  0  0  0  0  0  0  0
  154.1851  142.3681  160.7908 H   0  0  0  0  0  0  0  0  0  0  0  0
  154.7950  141.4037  159.4454 H   0  0  0  0  0  0  0  0  0  0  0  0
  153.7383  140.6668  160.6580 H   0  0  0  0  0  0  0  0  0  0  0  0
  152.4214  143.8208  160.1687 H   0  0  0  0  0  0  0  0  0  0  0  0
  150.4007  144.3978  158.7770 H   0  0  0  0  0  0  0  0  0  0  0  0
  149.6322  142.7506  157.0878 H   0  0  0  0  0  0  0  0  0  0  0  0
  150.2902  141.0303  155.6043 H   0  0  0  0  0  0  0  0  0  0  0  0
  151.3564  139.7679  156.1238 H   0  0  0  0  0  0  0  0  0  0  0  0
  150.5142  138.7949  158.4011 H   0  0  0  0  0  0  0  0  0  0  0  0
  148.1076  138.5103  159.4369 H   0  0  0  0  0  0  0  0  0  0  0  0
  147.7806  137.7835  157.8775 H   0  0  0  0  0  0  0  0  0  0  0  0
  149.2160  135.9412  158.2582 H   0  0  0  0  0  0  0  0  0  0  0  0
  150.1949  136.8084  159.4102 H   0  0  0  0  0  0  0  0  0  0  0  0
  148.6286  137.5946  161.5756 H   0  0  0  0  0  0  0  0  0  0  0  0
  148.1091  135.7407  163.3380 H   0  0  0  0  0  0  0  0  0  0  0  0
  146.7626  136.8060  162.9882 H   0  0  0  0  0  0  0  0  0  0  0  0
  146.2000  134.2873  163.0151 H   0  0  0  0  0  0  0  0  0  0  0  0
  145.6601  135.1746  161.6098 H   0  0  0  0  0  0  0  0  0  0  0  0
  148.2092  133.5061  161.7523 H   0  0  0  0  0  0  0  0  0  0  0  0
  146.7377  133.0210  160.9457 H   0  0  0  0  0  0  0  0  0  0  0  0
  146.9685  134.7297  159.2528 H   0  0  0  0  0  0  0  0  0  0  0  0
  148.5555  134.0099  159.4279 H   0  0  0  0  0  0  0  0  0  0  0  0
  1  2  1  0  0  0  0
  1 21  1  0  0  0  0
  1 22  1  0  0  0  0
  1 23  1  0  0  0  0
  2 19  1  0  0  0  0
  2  3  2  0  0  0  0
  3  4  1  0  0  0  0
  3 24  1  0  0  0  0
  4  5  2  0  0  0  0
  4 25  1  0  0  0  0
  5  6  1  0  0  0  0
  5 26  1  0  0  0  0
  6  7  1  0  0  0  0
  6 19  1  0  0  0  0
  7  8  1  0  0  0  0
  7 27  1  0  0  0  0
  7 28  1  0  0  0  0
  8  9  2  0  0  0  0
  8 10  1  0  0  0  0
 10 11  1  0  0  0  0
 10 29  1  0  0  0  0
 11 12  1  0  0  0  0
 11 30  1  0  0  0  0
 11 31  1  0  0  0  0
 12 13  1  0  0  0  0
 12 32  1  0  0  0  0
 12 33  1  0  0  0  0
 13 18  1  0  0  0  0
 13 14  2  0  0  0  0
 14 15  1  0  0  0  0
 14 34  1  0  0  0  0
 15 16  1  0  0  0  0
 15 35  1  0  0  0  0
 15 36  1  0  0  0  0
 16 17  1  0  0  0  0
 16 37  1  0  0  0  0
 16 38  1  0  0  0  0
 17 18  1  0  0  0  0
 17 39  1  0  0  0  0
 17 40  1  0  0  0  0
 18 41  1  0  0  0  0
 18 42  1  0  0  0  0
 19 20  2  0  0  0  0
M  END
> <s_m_source_file>
AV-unprocessed.smi

> <i_m_source_file_index>
1035

> <i_lp_mmshare_version>
43012

> <i_f3d_flags>
0

> <s_epik_input>
W0NIM11jMVtjSF1bY0hdW2NIXW4oYzE9TylbQ0gyXUMoPU8pW05IXVtDSDJdW0NIMl1DMj1bQ0hdW0NIMl1bQ0gyXVtDSDJdW0NIMl0y

> <s_epik_cmdline>
J2VwaWtfcHl0aG9uJywgJy1waCcsICc3LjAnLCAnLXRuJywgJzgnLCAnLW1hJywgJzIwMCcsICctbWV0YWxfYmluZGluZycsICctaW1hZScsICc8aW5maWxlLm1hZT4nLCAnLW9tYWUnLCAnPG91dGZpbGUubWFlPic=

> <r_lp_tautomer_probability>
1

> <r_epik_Ionization_Penalty>
7.80073e-07

> <r_epik_Ionization_Penalty_Charging>
7.6197e-07

> <r_epik_Ionization_Penalty_Neutral>
1.81035e-08

> <r_epik_State_Penalty>
-0

> <r_epik_Charging_Adjusted_Penalty>
7.6197e-07

> <i_epik_Tot_Q>
0

> <i_epik_Tot_abs_Q>
0

> <r_epik_Metal_State_Penalty>
-0

> <b_epik_Metal_Only>
0

> <s_lp_Force_Field>
OPLS_2005

> <r_lp_Energy>
17.5966

> <b_lp_Chiralities_Consistent>
1

> <s_lp_Variant>
AV-unprocessed.smi:1035-1

> <Gold.Version>
5.8.1

> <Gold.Id.Protein>
6NUR|6NUR_protein|mol2

> <Gold.PLP.Fitness>
42.7868

> <Gold.PLP.PLP>
-37.9000

> <Gold.PLP.part.hbond>
-1.0000

> <Gold.PLP.part.metal>
0.0000

> <Gold.PLP.part.buried>
-2.1233

> <Gold.PLP.part.nonpolar>
-35.7388

> <Gold.PLP.part.repulsive>
0.1306

> <Gold.PLP.ligand.clash>
0.0000

> <Gold.PLP.ligand.torsion>
0.6138

> <Gold.PLP.Chemscore.Hbond>
1.0000

> <Gold.PLP.Chemscore.CHOScore>
0.9989

> <Gold.PLP.Chemscore.Metal>
0.0000

> <Gold.Chemscore.Hbonds>
donor molecule, donor type, donor heavy atom, donor atom, acceptor molecule, acceptor atom, score
      P1  H  7997  8008       L1    20  0.93
      L1  C     5    26       P1  8028  0.97

> <Gold.PLP.Chemscore.Internal.Correction>
0.1177

> <Gold.Rescore>
     Score         DG    S(hbond)    S(metal)    S(lipo)     H(rot)  DE(clash)    DE(int)     intcor
     16.08     -16.77       0.96        0.00     104.79       1.63       0.19       0.49       ----

> <Gold.Chemscore.Fitness>
16.0849

> <Gold.Chemscore.DG>
-16.7667

> <Gold.Chemscore.ZeroCoef>
-5.4800

> <Gold.Chemscore.Hbond>
0.9587

> <Gold.Chemscore.Metal>
0.0000

> <Gold.Chemscore.Lipo>
104.7902

> <Gold.Chemscore.Internal_Hbond>
0.0000

> <Gold.Chemscore.DEClash>
0.1898

> <Gold.Chemscore.DEInternal>
0.4920

> <Gold.Chemscore.Rot>
1.6311

> <Gold.Chemscore.Internal.Correction>
   9.000000E+99

> <Gold.Chemscore.Hbonds>
donor molecule, donor type, donor heavy atom, donor atom, acceptor molecule, acceptor atom, score
      P1  H  7997  8008       L1    20  0.77

> <Gold.Chemscore.Hbond.Weighted>
-3.2020

> <Gold.Chemscore.Metal.Weighted>
-0.0000

> <Gold.Chemscore.Lipo.Weighted>
-12.2605

> <Gold.Chemscore.Internal_Hbond.Weighted>
0.0000

> <Gold.Chemscore.DEClash.Weighted>
0.1898

> <Gold.Chemscore.DEInternal.Weighted>
0.4920

> <Gold.Chemscore.Rot.Weighted>
4.1757

> <Gold.Chemscore.Internal.Correction.Weighted>
   9.000000E+99

> <Gold.Protein.RotatedTorsions>
[ 6907 6896 6895 6894 ] final  -30.05 input  -60.11 | X-H torsion
[ 7974 7965 7964 7962 ] final  -96.78 input  175.53 | X-H torsion
[ 8008 7997 7996 7995 ] final  -85.54 input   59.86 | X-H torsion
[ 10167 10162 10161 10158 ] final  -80.12 input  -65.29 | X-H torsion
[ 10718 10713 10712 10709 ] final  123.14 input   66.30 | X-H torsion
[ 10763 10752 10751 10750 ] final  167.70 input  -60.55 | X-H torsion
[ 11005 11000 10999 10996 ] final  -41.00 input  -57.11 | X-H torsion

> <Gold.Protein.ActiveResidues>
 VAL166  LYS551  ARG553  GLY616  TRP617  ASP618  TYR619  PRO620  LYS621  CYS622 
 ASP623  PHE694  ASN695  SER759  ASP760  ASP761  ALA762  ILE779  LEU786  VAL792 
 PHE793  MET794  SER795  GLU796  ALA797  LYS798  CYS799  TRP800  GLU811  SER814 

> <Gold.Protein.RotatedAtoms>
  151.1108  135.0025  159.8492 H   0  0  0  0  0  0  0  0  0  0  0  0  # atno 6907 bound_to 6896
  152.5443  134.1838  159.8656 H   0  0  0  0  0  0  0  0  0  0  0  0  # atno 6908 bound_to 6896
  151.1889  133.4635  159.2628 H   0  0  0  0  0  0  0  0  0  0  0  0  # atno 6909 bound_to 6896
  145.3424  140.9462  143.2600 H   0  0  0  0  0  0  0  0  0  0  0  0  # atno 7974 bound_to 7965
  154.6419  140.0590  156.9856 H   0  0  0  0  0  0  0  0  0  0  0  0  # atno 8008 bound_to 7997
  155.1503  140.3273  155.4414 H   0  0  0  0  0  0  0  0  0  0  0  0  # atno 8009 bound_to 7997
  156.2535  140.1948  156.6615 H   0  0  0  0  0  0  0  0  0  0  0  0  # atno 8010 bound_to 7997
  140.4532  143.2476  151.8458 H   0  0  0  0  0  0  0  0  0  0  0  0  # atno 10167 bound_to 10162
  157.5688  131.1085  150.8405 H   0  0  0  0  0  0  0  0  0  0  0  0  # atno 10718 bound_to 10713
  154.3577  135.2753  155.2337 H   0  0  0  0  0  0  0  0  0  0  0  0  # atno 10763 bound_to 10752
  154.4539  135.5924  153.6213 H   0  0  0  0  0  0  0  0  0  0  0  0  # atno 10764 bound_to 10752
  152.9845  135.6048  154.3794 H   0  0  0  0  0  0  0  0  0  0  0  0  # atno 10765 bound_to 10752
  141.0215  133.6861  156.2398 H   0  0  0  0  0  0  0  0  0  0  0  0  # atno 11005 bound_to 11000
  144.8780  139.4943  143.6736 LP  0  0  0  0  0  0  0  0  0  0  0  0  # atno 17320 bound_to 7965
  146.3002  139.7402  142.9097 LP  0  0  0  0  0  0  0  0  0  0  0  0  # atno 17321 bound_to 7965
  139.4798  144.5096  151.8951 LP  0  0  0  0  0  0  0  0  0  0  0  0  # atno 17342 bound_to 10162
  140.4182  144.2278  150.5887 LP  0  0  0  0  0  0  0  0  0  0  0  0  # atno 17343 bound_to 10162
  156.8883  130.5203  149.5287 LP  0  0  0  0  0  0  0  0  0  0  0  0  # atno 17370 bound_to 10713
  156.0734  130.5762  150.9428 LP  0  0  0  0  0  0  0  0  0  0  0  0  # atno 17371 bound_to 10713
  140.6565  134.5013  157.5581 LP  0  0  0  0  0  0  0  0  0  0  0  0  # atno 17394 bound_to 11000
  139.9149  134.8267  156.1401 LP  0  0  0  0  0  0  0  0  0  0  0  0  # atno 17395 bound_to 11000

$$$$
