AV-unprocessed.smi:2717|AV-procd|sdf|10484|dock3
  -GOLD-   2272014523D 1   1.00000     0.00000
 Structure written by MMmdl.
 43 44  0  0  0  0  0  0  0  0  1 V2000
  151.1507  141.1690  157.9536 C   0  0  0  0  0  0  0  0  0  0  0  0
  150.7742  141.7700  156.5953 C   0  0  0  0  0  0  0  0  0  0  0  0
  150.2184  140.7546  155.6537 C   0  0  0  0  0  0  0  0  0  0  0  0
  148.9853  140.8203  155.1453 N   0  0  0  0  0  0  0  0  0  0  0  0
  148.6841  139.7343  154.3176 C   0  0  0  0  0  0  0  0  0  0  0  0
  147.3441  139.6527  153.6512 C   0  0  0  0  0  0  0  0  0  0  0  0
  146.5168  138.4582  154.1542 C   0  0  0  0  0  0  0  0  0  0  0  0
  146.7504  137.2656  153.3477 N   0  0  0  0  0  0  0  0  0  0  0  0
  145.8548  136.2891  153.1454 C   0  0  0  0  0  0  0  0  0  0  0  0
  144.7182  136.2863  153.6188 O   0  0  0  0  0  0  0  0  0  0  0  0
  146.3479  135.3141  152.3683 N   0  0  0  0  0  0  0  0  0  0  0  0
  145.6220  134.1151  151.9591 C   0  0  2  0  0  0  0  0  0  0  0  0
  146.3177  133.4361  150.7602 C   0  0  0  0  0  0  0  0  0  0  0  0
  145.5240  132.2151  150.2676 C   0  0  0  0  0  0  0  0  0  0  0  0
  144.0758  132.5981  149.9179 C   0  0  1  0  0  0  0  0  0  0  0  0
  143.3593  131.4417  149.5390 O   0  0  0  0  0  0  0  0  0  0  0  0
  143.3773  133.2636  151.1159 C   0  0  0  0  0  0  0  0  0  0  0  0
  144.1682  134.4862  151.6089 C   0  0  0  0  0  0  0  0  0  0  0  0
  149.7138  138.8323  154.2133 C   0  0  0  0  0  0  0  0  0  0  0  0
  151.0975  139.3133  155.1566 S   0  0  0  0  0  0  0  0  0  0  0  0
  151.5492  141.9343  158.6196 H   0  0  0  0  0  0  0  0  0  0  0  0
  151.9095  140.3938  157.8440 H   0  0  0  0  0  0  0  0  0  0  0  0
  150.2831  140.7224  158.4402 H   0  0  0  0  0  0  0  0  0  0  0  0
  150.0392  142.5642  156.7309 H   0  0  0  0  0  0  0  0  0  0  0  0
  151.6499  142.2298  156.1366 H   0  0  0  0  0  0  0  0  0  0  0  0
  146.7885  140.5757  153.8211 H   0  0  0  0  0  0  0  0  0  0  0  0
  147.4758  139.5792  152.5707 H   0  0  0  0  0  0  0  0  0  0  0  0
  146.7391  138.2512  155.2027 H   0  0  0  0  0  0  0  0  0  0  0  0
  145.4539  138.6967  154.1044 H   0  0  0  0  0  0  0  0  0  0  0  0
  147.6587  137.1776  152.9161 H   0  0  0  0  0  0  0  0  0  0  0  0
  147.2942  135.4094  152.0300 H   0  0  0  0  0  0  0  0  0  0  0  0
  145.5997  133.4143  152.7960 H   0  0  0  0  0  0  0  0  0  0  0  0
  146.4269  134.1504  149.9428 H   0  0  0  0  0  0  0  0  0  0  0  0
  147.3265  133.1259  151.0346 H   0  0  0  0  0  0  0  0  0  0  0  0
  146.0187  131.7805  149.3983 H   0  0  0  0  0  0  0  0  0  0  0  0
  145.5276  131.4472  151.0428 H   0  0  0  0  0  0  0  0  0  0  0  0
  144.0765  133.2860  149.0715 H   0  0  0  0  0  0  0  0  0  0  0  0
  142.4411  131.5875  149.7086 H   0  0  0  0  0  0  0  0  0  0  0  0
  142.3660  133.5653  150.8407 H   0  0  0  0  0  0  0  0  0  0  0  0
  143.2759  132.5465  151.9319 H   0  0  0  0  0  0  0  0  0  0  0  0
  143.6718  134.9161  152.4799 H   0  0  0  0  0  0  0  0  0  0  0  0
  144.1582  135.2561  150.8358 H   0  0  0  0  0  0  0  0  0  0  0  0
  149.7413  137.9157  153.6433 H   0  0  0  0  0  0  0  0  0  0  0  0
  1  2  1  0  0  0  0
  1 21  1  0  0  0  0
  1 22  1  0  0  0  0
  1 23  1  0  0  0  0
  2  3  1  0  0  0  0
  2 24  1  0  0  0  0
  2 25  1  0  0  0  0
  3 20  1  0  0  0  0
  3  4  2  0  0  0  0
  4  5  1  0  0  0  0
  5  6  1  0  0  0  0
  5 19  2  0  0  0  0
  6  7  1  0  0  0  0
  6 26  1  0  0  0  0
  6 27  1  0  0  0  0
  7  8  1  0  0  0  0
  7 28  1  0  0  0  0
  7 29  1  0  0  0  0
  8  9  1  0  0  0  0
  8 30  1  0  0  0  0
  9 10  2  0  0  0  0
  9 11  1  0  0  0  0
 11 12  1  0  0  0  0
 11 31  1  0  0  0  0
 12 18  1  0  0  0  0
 12 13  1  0  0  0  0
 12 32  1  0  0  0  0
 13 14  1  0  0  0  0
 13 33  1  0  0  0  0
 13 34  1  0  0  0  0
 14 15  1  0  0  0  0
 14 35  1  0  0  0  0
 14 36  1  0  0  0  0
 15 16  1  0  0  0  0
 15 17  1  0  0  0  0
 15 37  1  0  0  0  0
 16 38  1  0  0  0  0
 17 18  1  0  0  0  0
 17 39  1  0  0  0  0
 17 40  1  0  0  0  0
 18 41  1  0  0  0  0
 18 42  1  0  0  0  0
 19 20  1  0  0  0  0
 19 43  1  0  0  0  0
M  END
> <s_m_source_file>
AV-unprocessed.smi

> <i_m_source_file_index>
2717

> <i_lp_mmshare_version>
43012

> <i_f3d_flags>
0

> <s_epik_input>
W0NIM11bQ0gyXWMxbmMoW2NIXXMxKVtDSDJdW0NIMl1bTkhdQyg9TylbTkhdW0NAQEhdMltDSDJdW0NIMl1bQ0BASF0oW09IXSlbQ0gyXVtDSDJdMg==

> <s_epik_cmdline>
J2VwaWtfcHl0aG9uJywgJy1waCcsICc3LjAnLCAnLXRuJywgJzgnLCAnLW1hJywgJzIwMCcsICctbWV0YWxfYmluZGluZycsICctaW1hZScsICc8aW5maWxlLm1hZT4nLCAnLW9tYWUnLCAnPG91dGZpbGUubWFlPic=

> <r_epik_Ionization_Penalty>
0.00202099

> <r_epik_Ionization_Penalty_Charging>
0

> <r_epik_Ionization_Penalty_Neutral>
0.00202099

> <r_epik_State_Penalty>
0.00133629

> <r_epik_Charging_Adjusted_Penalty>
0.00133629

> <i_epik_Tot_Q>
0

> <i_epik_Tot_abs_Q>
0

> <r_epik_Metal_State_Penalty>
-0

> <b_epik_Metal_Only>
0

> <s_lp_Force_Field>
OPLS_2005

> <r_lp_Energy>
-3.71108

> <b_lp_Chiralities_Consistent>
1

> <s_lp_Variant>
AV-unprocessed.smi:2717-1

> <Gold.Version>
5.8.1

> <Gold.Id.Protein>
6NUR|6NUR_protein|mol2

> <Gold.PLP.Fitness>
50.0289

> <Gold.PLP.PLP>
-37.5121

> <Gold.PLP.part.hbond>
-4.0000

> <Gold.PLP.part.metal>
0.0000

> <Gold.PLP.part.buried>
-3.2180

> <Gold.PLP.part.nonpolar>
-30.5328

> <Gold.PLP.part.repulsive>
0.1885

> <Gold.PLP.ligand.clash>
0.0000

> <Gold.PLP.ligand.torsion>
0.6575

> <Gold.PLP.Chemscore.Hbond>
3.5920

> <Gold.PLP.Chemscore.CHOScore>
1.0000

> <Gold.PLP.Chemscore.Metal>
0.0000

> <Gold.Chemscore.Hbonds>
donor molecule, donor type, donor heavy atom, donor atom, acceptor molecule, acceptor atom, score
      L1  H     8    30       P1  7948  1.00
      L1  H    11    31       P1  7948  1.00
      L1  H    16    38       P1 10952  0.62
      P1  H 10785 10796       L1    16  0.85
      L1  C    19    43       P1  7948  0.98

> <Gold.PLP.Chemscore.Internal.Correction>
0.0558

> <Gold.Rescore>
     Score         DG    S(hbond)    S(metal)    S(lipo)     H(rot)  DE(clash)    DE(int)     intcor
     18.62     -21.39       3.15        0.00      94.42       2.21       0.21       2.56       ----

> <Gold.Chemscore.Fitness>
18.6172

> <Gold.Chemscore.DG>
-21.3876

> <Gold.Chemscore.ZeroCoef>
-5.4800

> <Gold.Chemscore.Hbond>
3.1480

> <Gold.Chemscore.Metal>
0.0000

> <Gold.Chemscore.Lipo>
94.4184

> <Gold.Chemscore.Internal_Hbond>
0.0000

> <Gold.Chemscore.DEClash>
0.2114

> <Gold.Chemscore.DEInternal>
2.5590

> <Gold.Chemscore.Rot>
2.2084

> <Gold.Chemscore.Internal.Correction>
   9.000000E+99

> <Gold.Chemscore.Hbonds>
donor molecule, donor type, donor heavy atom, donor atom, acceptor molecule, acceptor atom, score
      L1  H     8    30       P1  7948  0.97
      L1  H    11    31       P1  7948  0.99
      L1  H    16    38       P1 10952  0.58
      P1  H 10785 10796       L1    16  0.13

> <Gold.Chemscore.Hbond.Weighted>
-10.5142

> <Gold.Chemscore.Metal.Weighted>
-0.0000

> <Gold.Chemscore.Lipo.Weighted>
-11.0470

> <Gold.Chemscore.Internal_Hbond.Weighted>
0.0000

> <Gold.Chemscore.DEClash.Weighted>
0.2114

> <Gold.Chemscore.DEInternal.Weighted>
2.5590

> <Gold.Chemscore.Rot.Weighted>
5.6535

> <Gold.Chemscore.Internal.Correction.Weighted>
   9.000000E+99

> <Gold.Protein.RotatedTorsions>
[ 6907 6896 6895 6894 ] final -114.80 input  -60.11 | X-H torsion
[ 7974 7965 7964 7962 ] final  -46.61 input  175.53 | X-H torsion
[ 8008 7997 7996 7995 ] final   -3.42 input   59.86 | X-H torsion
[ 10167 10162 10161 10158 ] final  149.90 input  -65.29 | X-H torsion
[ 10718 10713 10712 10709 ] final   49.30 input   66.30 | X-H torsion
[ 10763 10752 10751 10750 ] final  130.17 input  -60.55 | X-H torsion
[ 11005 11000 10999 10996 ] final  -22.69 input  -57.11 | X-H torsion

> <Gold.Protein.ActiveResidues>
 VAL166  LYS551  ARG553  GLY616  TRP617  ASP618  TYR619  PRO620  LYS621  CYS622 
 ASP623  PHE694  ASN695  SER759  ASP760  ASP761  ALA762  ILE779  LEU786  VAL792 
 PHE793  MET794  SER795  GLU796  ALA797  LYS798  CYS799  TRP800  GLU811  SER814 

> <Gold.Protein.RotatedAtoms>
  150.7929  133.8749  159.3269 H   0  0  0  0  0  0  0  0  0  0  0  0  # atno 6907 bound_to 6896
  151.6582  135.0991  160.0184 H   0  0  0  0  0  0  0  0  0  0  0  0  # atno 6908 bound_to 6896
  152.4006  133.6773  159.6348 H   0  0  0  0  0  0  0  0  0  0  0  0  # atno 6909 bound_to 6896
  145.9701  140.7392  142.9414 H   0  0  0  0  0  0  0  0  0  0  0  0  # atno 7974 bound_to 7965
  154.6251  140.2510  155.7501 H   0  0  0  0  0  0  0  0  0  0  0  0  # atno 8008 bound_to 7997
  156.2449  140.2918  156.0497 H   0  0  0  0  0  0  0  0  0  0  0  0  # atno 8009 bound_to 7997
  155.1834  140.0389  157.2877 H   0  0  0  0  0  0  0  0  0  0  0  0  # atno 8010 bound_to 7997
  139.4856  144.5565  151.7308 H   0  0  0  0  0  0  0  0  0  0  0  0  # atno 10167 bound_to 10162
  157.4773  130.8293  149.8054 H   0  0  0  0  0  0  0  0  0  0  0  0  # atno 10718 bound_to 10713
  153.7537  135.3206  155.3325 H   0  0  0  0  0  0  0  0  0  0  0  0  # atno 10763 bound_to 10752
  154.8254  135.4573  154.0906 H   0  0  0  0  0  0  0  0  0  0  0  0  # atno 10764 bound_to 10752
  153.2116  135.6936  153.8189 H   0  0  0  0  0  0  0  0  0  0  0  0  # atno 10765 bound_to 10752
  140.8681  133.7740  156.0153 H   0  0  0  0  0  0  0  0  0  0  0  0  # atno 11005 bound_to 11000
  144.6835  140.2735  143.7302 LP  0  0  0  0  0  0  0  0  0  0  0  0  # atno 17320 bound_to 7965
  145.7918  139.1930  143.2098 LP  0  0  0  0  0  0  0  0  0  0  0  0  # atno 17321 bound_to 7965
  140.5127  144.1000  150.5999 LP  0  0  0  0  0  0  0  0  0  0  0  0  # atno 17342 bound_to 10162
  140.3931  143.2742  152.0036 LP  0  0  0  0  0  0  0  0  0  0  0  0  # atno 17343 bound_to 10162
  156.0103  130.3836  150.2287 LP  0  0  0  0  0  0  0  0  0  0  0  0  # atno 17370 bound_to 10713
  157.0471  131.0052  151.3265 LP  0  0  0  0  0  0  0  0  0  0  0  0  # atno 17371 bound_to 10713
  140.8606  134.2846  157.5236 LP  0  0  0  0  0  0  0  0  0  0  0  0  # atno 17394 bound_to 11000
  139.8710  134.9516  156.4089 LP  0  0  0  0  0  0  0  0  0  0  0  0  # atno 17395 bound_to 11000

$$$$
