AV-unprocessed.smi:81|AV-procd|sdf|790|dock2
  -GOLD-   2262017163D 1   1.00000     0.00000
 Structure written by MMmdl.
 64 67  0  0  0  0  0  0  0  0  2 V2000
  147.6794  128.3669  153.8151 C   0  0  0  0  0  0  0  0  0  0  0  0
  148.3055  129.6373  153.2169 C   0  0  0  0  0  0  0  0  0  0  0  0
  149.8349  129.5927  153.3410 C   0  0  0  0  0  0  0  0  0  0  0  0
  147.7491  130.9193  153.8797 C   0  0  0  0  0  0  0  0  0  0  0  0
  148.5273  132.1331  153.6077 N   0  0  0  0  0  0  0  0  0  0  0  0
  149.2615  132.6062  154.6441 C   0  0  0  0  0  0  0  0  0  0  0  0
  149.9642  131.7018  155.3713 N   0  0  0  0  0  0  0  0  0  0  0  0
  150.6806  132.0993  156.4263 C   0  0  0  0  0  0  0  0  0  0  0  0
  150.8232  133.3300  156.9213 N   0  0  0  0  0  0  0  0  0  0  0  0
  150.1037  134.2409  156.2051 C   0  0  0  0  0  0  0  0  0  0  0  0
  149.3007  133.9675  155.0627 C   0  0  0  0  0  0  0  0  0  0  0  0
  148.7238  135.1442  154.6016 N   0  0  0  0  0  0  0  0  0  0  0  0
  149.1566  136.0582  155.4257 C   0  0  0  0  0  0  0  0  0  0  0  0
  149.9868  135.6031  156.4256 N   0  0  0  0  0  0  0  0  0  0  0  0
  150.6095  136.3803  157.4906 C   0  0  0  0  0  0  0  0  0  0  0  0
  151.6572  137.4099  156.9877 C   0  0  1  0  0  0  0  0  0  0  0  0
  152.8111  136.6952  156.5741 O   0  0  0  0  0  0  0  0  0  0  0  0
  151.1690  138.2502  155.8203 C   0  0  0  0  0  0  0  0  0  0  0  0
  152.1222  139.4431  155.8350 C   0  0  0  0  0  0  0  0  0  0  0  0
  152.5933  139.5616  157.1756 O   0  0  0  0  0  0  0  0  0  0  0  0
  152.1103  138.4934  157.9901 C   0  0  1  0  0  0  0  0  0  0  0  0
  150.9946  139.1198  158.8492 C   0  0  0  0  0  0  0  0  0  0  0  0
  147.9457  133.0975  152.6577 C   0  0  2  0  0  0  0  0  0  0  0  0
  146.7260  133.8988  153.1733 C   0  0  0  0  0  0  0  0  0  0  0  0
  145.3686  133.2131  152.9230 C   0  0  0  0  0  0  0  0  0  0  0  0
  145.2181  132.8256  151.5012 N   0  3  2  0  0  0  0  0  0  0  0  0
  143.8686  132.2996  151.2032 C   0  0  0  0  0  0  0  0  0  0  0  0
  146.2903  131.8985  151.0707 C   0  0  0  0  0  0  0  0  0  0  0  0
  147.6812  132.5364  151.2403 C   0  0  0  0  0  0  0  0  0  0  0  0
  147.8772  128.2944  154.8850 H   0  0  0  0  0  0  0  0  0  0  0  0
  148.0812  127.4709  153.3408 H   0  0  0  0  0  0  0  0  0  0  0  0
  146.5986  128.3503  153.6749 H   0  0  0  0  0  0  0  0  0  0  0  0
  148.0813  129.6525  152.1499 H   0  0  0  0  0  0  0  0  0  0  0  0
  150.1481  129.5624  154.3852 H   0  0  0  0  0  0  0  0  0  0  0  0
  150.2914  130.4700  152.8814 H   0  0  0  0  0  0  0  0  0  0  0  0
  150.2442  128.7124  152.8445 H   0  0  0  0  0  0  0  0  0  0  0  0
  146.7261  131.0746  153.5351 H   0  0  0  0  0  0  0  0  0  0  0  0
  147.6749  130.7723  154.9565 H   0  0  0  0  0  0  0  0  0  0  0  0
  151.2139  131.3199  156.9503 H   0  0  0  0  0  0  0  0  0  0  0  0
  148.8717  137.0926  155.3173 H   0  0  0  0  0  0  0  0  0  0  0  0
  149.8156  136.9107  158.0178 H   0  0  0  0  0  0  0  0  0  0  0  0
  151.0353  135.6964  158.2241 H   0  0  0  0  0  0  0  0  0  0  0  0
  153.5466  136.9925  157.0879 H   0  0  0  0  0  0  0  0  0  0  0  0
  151.1681  137.7171  154.8685 H   0  0  0  0  0  0  0  0  0  0  0  0
  150.1505  138.5932  156.0060 H   0  0  0  0  0  0  0  0  0  0  0  0
  152.9768  139.2597  155.1832 H   0  0  0  0  0  0  0  0  0  0  0  0
  151.6366  140.3610  155.5035 H   0  0  0  0  0  0  0  0  0  0  0  0
  152.9021  138.1289  158.6464 H   0  0  0  0  0  0  0  0  0  0  0  0
  150.5496  138.4070  159.5388 H   0  0  0  0  0  0  0  0  0  0  0  0
  150.1927  139.5272  158.2337 H   0  0  0  0  0  0  0  0  0  0  0  0
  151.3906  139.9389  159.4497 H   0  0  0  0  0  0  0  0  0  0  0  0
  148.7392  133.8372  152.5424 H   0  0  0  0  0  0  0  0  0  0  0  0
  146.8449  134.1486  154.2281 H   0  0  0  0  0  0  0  0  0  0  0  0
  146.7099  134.8559  152.6503 H   0  0  0  0  0  0  0  0  0  0  0  0
  145.2445  132.3311  153.5498 H   0  0  0  0  0  0  0  0  0  0  0  0
  144.5671  133.8998  153.1980 H   0  0  0  0  0  0  0  0  0  0  0  0
  143.6736  131.3833  151.7621 H   0  0  0  0  0  0  0  0  0  0  0  0
  143.7665  132.0800  150.1399 H   0  0  0  0  0  0  0  0  0  0  0  0
  143.1036  133.0308  151.4659 H   0  0  0  0  0  0  0  0  0  0  0  0
  146.2088  130.9701  151.6322 H   0  0  0  0  0  0  0  0  0  0  0  0
  146.1445  131.6377  150.0217 H   0  0  0  0  0  0  0  0  0  0  0  0
  147.7523  133.3645  150.5338 H   0  0  0  0  0  0  0  0  0  0  0  0
  148.4584  131.8331  150.9413 H   0  0  0  0  0  0  0  0  0  0  0  0
  145.3253  133.6690  150.9558 H   0  0  0  0  0  0  0  0  0  0  0  0
  1  2  1  0  0  0  0
  1 30  1  0  0  0  0
  1 31  1  0  0  0  0
  1 32  1  0  0  0  0
  2  3  1  0  0  0  0
  2  4  1  0  0  0  0
  2 33  1  0  0  0  0
  3 34  1  0  0  0  0
  3 35  1  0  0  0  0
  3 36  1  0  0  0  0
  4  5  1  0  0  0  0
  4 37  1  0  0  0  0
  4 38  1  0  0  0  0
  5  6  1  0  0  0  0
  5 23  1  0  0  0  0
  6 11  1  0  0  0  0
  6  7  2  0  0  0  0
  7  8  1  0  0  0  0
  8  9  2  0  0  0  0
  8 39  1  0  0  0  0
  9 10  1  0  0  0  0
 10 14  1  0  0  0  0
 10 11  2  0  0  0  0
 11 12  1  0  0  0  0
 12 13  2  0  0  0  0
 13 14  1  0  0  0  0
 13 40  1  0  0  0  0
 14 15  1  0  0  0  0
 15 16  1  0  0  0  0
 15 41  1  0  0  0  0
 15 42  1  0  0  0  0
 16 21  1  0  0  0  0
 16 17  1  0  0  0  0
 16 18  1  0  0  0  0
 17 43  1  0  0  0  0
 18 19  1  0  0  0  0
 18 44  1  0  0  0  0
 18 45  1  0  0  0  0
 19 20  1  0  0  0  0
 19 46  1  0  0  0  0
 19 47  1  0  0  0  0
 20 21  1  0  0  0  0
 21 22  1  0  0  0  0
 21 48  1  0  0  0  0
 22 49  1  0  0  0  0
 22 50  1  0  0  0  0
 22 51  1  0  0  0  0
 23 29  1  0  0  0  0
 23 24  1  0  0  0  0
 23 52  1  0  0  0  0
 24 25  1  0  0  0  0
 24 53  1  0  0  0  0
 24 54  1  0  0  0  0
 25 26  1  0  0  0  0
 25 55  1  0  0  0  0
 25 56  1  0  0  0  0
 26 27  1  0  0  0  0
 26 28  1  0  0  0  0
 26 64  1  0  0  0  0
 27 57  1  0  0  0  0
 27 58  1  0  0  0  0
 27 59  1  0  0  0  0
 28 29  1  0  0  0  0
 28 60  1  0  0  0  0
 28 61  1  0  0  0  0
 29 62  1  0  0  0  0
 29 63  1  0  0  0  0
M  CHG  1  26   1
M  END
> <s_m_source_file>
AV-unprocessed.smi

> <i_m_source_file_index>
81

> <i_lp_mmshare_version>
43012

> <i_f3d_flags>
0

> <s_epik_input>
W0NIMl0xW0NIMl1OKFtDSDNdKVtDSDJdW0NIMl1bQ0hdMU4oW0NIMl1bQ0hdKFtDSDNdKVtDSDNdKWMobltjSF1uMiljKGMyMyluW2NIXW4zW0NIMl1bQ0BAXTQoW09IXSlbQ0gyXVtDSDJdT1tDQEhdNFtDSDNd

> <s_epik_cmdline>
J2VwaWtfcHl0aG9uJywgJy1waCcsICc3LjAnLCAnLXRuJywgJzgnLCAnLW1hJywgJzIwMCcsICctbWV0YWxfYmluZGluZycsICctaW1hZScsICc8aW5maWxlLm1hZT4nLCAnLW9tYWUnLCAnPG91dGZpbGUubWFlPic=

> <r_lp_tautomer_probability>
1

> <r_epik_Ionization_Penalty>
0.00272708

> <r_epik_Ionization_Penalty_Charging>
0.00158983

> <r_epik_Ionization_Penalty_Neutral>
0.00113725

> <r_epik_State_Penalty>
-0

> <r_epik_Charging_Adjusted_Penalty>
0.00158983

> <i_epik_Tot_Q>
1

> <i_epik_Tot_abs_Q>
1

> <r_epik_Metal_State_Penalty>
-0

> <b_epik_Metal_Only>
0

> <s_lp_Force_Field>
OPLS_2005

> <r_lp_Energy>
53.2372

> <b_lp_Chiralities_Consistent>
1

> <s_lp_Variant>
AV-unprocessed.smi:81-5

> <Gold.Version>
5.8.1

> <Gold.Id.Protein>
6NUR|6NUR_protein|mol2

> <Gold.PLP.Fitness>
41.4628

> <Gold.PLP.PLP>
-34.3502

> <Gold.PLP.part.hbond>
-3.0000

> <Gold.PLP.part.metal>
0.0000

> <Gold.PLP.part.buried>
-2.1501

> <Gold.PLP.part.nonpolar>
-31.4721

> <Gold.PLP.part.repulsive>
1.5559

> <Gold.PLP.ligand.clash>
0.0000

> <Gold.PLP.ligand.torsion>
1.1958

> <Gold.PLP.Chemscore.Hbond>
2.6339

> <Gold.PLP.Chemscore.CHOScore>
0.0000

> <Gold.PLP.Chemscore.Metal>
0.0000

> <Gold.Chemscore.Hbonds>
donor molecule, donor type, donor heavy atom, donor atom, acceptor molecule, acceptor atom, score
      P1  H  6896  6907       L1     9  0.27
      P1  H  7997  8010       L1    20  0.70
      P1  H 10752 10764       L1    17  1.00

> <Gold.PLP.Chemscore.Internal.Correction>
1.6025

> <Gold.Rescore>
     Score         DG    S(hbond)    S(metal)    S(lipo)     H(rot)  DE(clash)    DE(int)     intcor
     11.59     -16.58       2.13        0.00      84.68       2.32       0.86       4.12       ----

> <Gold.Chemscore.Fitness>
11.5948

> <Gold.Chemscore.DG>
-16.5796

> <Gold.Chemscore.ZeroCoef>
-5.4800

> <Gold.Chemscore.Hbond>
2.1321

> <Gold.Chemscore.Metal>
0.0000

> <Gold.Chemscore.Lipo>
84.6844

> <Gold.Chemscore.Internal_Hbond>
0.0000

> <Gold.Chemscore.DEClash>
0.8603

> <Gold.Chemscore.DEInternal>
4.1244

> <Gold.Chemscore.Rot>
2.3163

> <Gold.Chemscore.Internal.Correction>
   9.000000E+99

> <Gold.Chemscore.Hbonds>
donor molecule, donor type, donor heavy atom, donor atom, acceptor molecule, acceptor atom, score
      P1  H  6896  6907       L1     9  0.26
      P1  H  7997  8010       L1    20  0.07
      P1  H 10752 10764       L1    17  0.67

> <Gold.Chemscore.Hbond.Weighted>
-7.1212

> <Gold.Chemscore.Metal.Weighted>
-0.0000

> <Gold.Chemscore.Lipo.Weighted>
-9.9081

> <Gold.Chemscore.Internal_Hbond.Weighted>
0.0000

> <Gold.Chemscore.DEClash.Weighted>
0.8603

> <Gold.Chemscore.DEInternal.Weighted>
4.1244

> <Gold.Chemscore.Rot.Weighted>
5.9297

> <Gold.Chemscore.Internal.Correction.Weighted>
   9.000000E+99

> <Gold.Protein.RotatedTorsions>
[ 6907 6896 6895 6894 ] final -138.35 input  -60.11 | X-H torsion
[ 7974 7965 7964 7962 ] final   43.96 input  175.53 | X-H torsion
[ 8008 7997 7996 7995 ] final   59.54 input   59.86 | X-H torsion
[ 10167 10162 10161 10158 ] final   29.51 input  -65.29 | X-H torsion
[ 10718 10713 10712 10709 ] final  120.93 input   66.30 | X-H torsion
[ 10763 10752 10751 10750 ] final   -9.01 input  -60.55 | X-H torsion
[ 11005 11000 10999 10996 ] final   55.20 input  -57.11 | X-H torsion

> <Gold.Protein.ActiveResidues>
 VAL166  LYS551  ARG553  GLY616  TRP617  ASP618  TYR619  PRO620  LYS621  CYS622 
 ASP623  PHE694  ASN695  SER759  ASP760  ASP761  ALA762  ILE779  LEU786  VAL792 
 PHE793  MET794  SER795  GLU796  ALA797  LYS798  CYS799  TRP800  GLU811  SER814 

> <Gold.Protein.RotatedAtoms>
  151.0339  133.5765  159.2657 H   0  0  0  0  0  0  0  0  0  0  0  0  # atno 6907 bound_to 6896
  151.2837  135.0720  159.9188 H   0  0  0  0  0  0  0  0  0  0  0  0  # atno 6908 bound_to 6896
  152.5350  134.0050  159.7966 H   0  0  0  0  0  0  0  0  0  0  0  0  # atno 6909 bound_to 6896
  146.0610  139.5127  142.9658 H   0  0  0  0  0  0  0  0  0  0  0  0  # atno 7974 bound_to 7965
  155.5679  140.3489  155.4508 H   0  0  0  0  0  0  0  0  0  0  0  0  # atno 8008 bound_to 7997
  156.0466  140.1308  157.0122 H   0  0  0  0  0  0  0  0  0  0  0  0  # atno 8009 bound_to 7997
  154.4415  140.1013  156.6300 H   0  0  0  0  0  0  0  0  0  0  0  0  # atno 8010 bound_to 7997
  140.4760  144.0690  150.6251 H   0  0  0  0  0  0  0  0  0  0  0  0  # atno 10167 bound_to 10162
  157.5855  131.1070  150.8104 H   0  0  0  0  0  0  0  0  0  0  0  0  # atno 10718 bound_to 10713
  153.4486  135.7015  153.6123 H   0  0  0  0  0  0  0  0  0  0  0  0  # atno 10763 bound_to 10752
  153.4468  135.3767  155.2260 H   0  0  0  0  0  0  0  0  0  0  0  0  # atno 10764 bound_to 10752
  154.8728  135.3987  154.3895 H   0  0  0  0  0  0  0  0  0  0  0  0  # atno 10765 bound_to 10752
  140.0626  134.5581  155.9135 H   0  0  0  0  0  0  0  0  0  0  0  0  # atno 11005 bound_to 11000
  145.6560  141.0252  143.1734 LP  0  0  0  0  0  0  0  0  0  0  0  0  # atno 17320 bound_to 7965
  144.7175  139.8146  143.7393 LP  0  0  0  0  0  0  0  0  0  0  0  0  # atno 17321 bound_to 7965
  140.3918  143.2748  152.0051 LP  0  0  0  0  0  0  0  0  0  0  0  0  # atno 17342 bound_to 10162
  139.4825  144.6071  151.7502 LP  0  0  0  0  0  0  0  0  0  0  0  0  # atno 17343 bound_to 10162
  156.8539  130.5090  149.5309 LP  0  0  0  0  0  0  0  0  0  0  0  0  # atno 17370 bound_to 10713
  156.0903  130.5891  150.9721 LP  0  0  0  0  0  0  0  0  0  0  0  0  # atno 17371 bound_to 10713
  141.1979  133.6599  156.5767 LP  0  0  0  0  0  0  0  0  0  0  0  0  # atno 17394 bound_to 11000
  140.3747  134.7575  157.4622 LP  0  0  0  0  0  0  0  0  0  0  0  0  # atno 17395 bound_to 11000

$$$$
