AV-unprocessed.smi:1480|AV-procd|sdf|5985|dock5
  -GOLD-   22720 6 73D 1   1.00000     0.00000
 Structure written by MMmdl.
 37 38  0  0  0  0  0  0  0  0  1 V2000
  151.3986  142.7773  157.8683 C   0  0  0  0  0  0  0  0  0  0  0  0
  152.2307  142.2312  158.9419 N   0  0  0  0  0  0  0  0  0  0  0  0
  152.4831  143.1504  160.0606 C   0  0  0  0  0  0  0  0  0  0  0  0
  152.9847  142.4499  161.3298 C   0  0  0  0  0  0  0  0  0  0  0  0
  154.1216  141.4807  160.9816 C   0  0  1  0  0  0  0  0  0  0  0  0
  154.6795  140.8186  162.2499 C   0  0  0  0  0  0  0  0  0  0  0  0
  154.8535  139.6000  162.2749 O   0  0  0  0  0  0  0  0  0  0  0  0
  154.9433  141.6498  163.2749 N   0  0  0  0  0  0  0  0  0  0  0  0
  155.4564  141.3374  164.5606 C   0  0  0  0  0  0  0  0  0  0  0  0
  156.3622  140.2793  164.8725 C   0  0  0  0  0  0  0  0  0  0  0  0
  156.5367  140.4047  166.2211 C   0  0  0  0  0  0  0  0  0  0  0  0
  155.7737  141.4758  166.6424 N   0  0  0  0  0  0  0  0  0  0  0  0
  155.6255  142.0035  167.9880 C   0  0  0  0  0  0  0  0  0  0  0  0
  156.0407  143.4753  168.0605 C   0  0  0  0  0  0  0  0  0  0  0  0
  155.9938  144.0634  169.2586 N   0  0  0  0  0  0  0  0  0  0  0  0
  156.4009  144.0750  167.0498 O   0  0  0  0  0  0  0  0  0  0  0  0
  155.1026  142.0474  165.6183 N   0  0  0  0  0  0  0  0  0  0  0  0
  153.6120  140.4224  159.9823 C   0  0  0  0  0  0  0  0  0  0  0  0
  152.7680  140.9921  158.8294 C   0  0  0  0  0  0  0  0  0  0  0  0
  152.5835  140.2800  157.8420 O   0  0  0  0  0  0  0  0  0  0  0  0
  151.9305  142.7548  156.9160 H   0  0  0  0  0  0  0  0  0  0  0  0
  151.1130  143.8135  158.0540 H   0  0  0  0  0  0  0  0  0  0  0  0
  150.4823  142.1952  157.7618 H   0  0  0  0  0  0  0  0  0  0  0  0
  153.2222  143.8823  159.7321 H   0  0  0  0  0  0  0  0  0  0  0  0
  151.5766  143.7082  160.2996 H   0  0  0  0  0  0  0  0  0  0  0  0
  153.3172  143.1945  162.0546 H   0  0  0  0  0  0  0  0  0  0  0  0
  152.1582  141.9099  161.7950 H   0  0  0  0  0  0  0  0  0  0  0  0
  154.9223  142.0493  160.5040 H   0  0  0  0  0  0  0  0  0  0  0  0
  154.7586  142.6288  163.1124 H   0  0  0  0  0  0  0  0  0  0  0  0
  156.8181  139.5420  164.2293 H   0  0  0  0  0  0  0  0  0  0  0  0
  157.1366  139.8281  166.9097 H   0  0  0  0  0  0  0  0  0  0  0  0
  154.5867  141.9063  168.3077 H   0  0  0  0  0  0  0  0  0  0  0  0
  156.2277  141.3966  168.6656 H   0  0  0  0  0  0  0  0  0  0  0  0
  156.2585  145.0327  169.3572 H   0  0  0  0  0  0  0  0  0  0  0  0
  155.6931  143.5339  170.0639 H   0  0  0  0  0  0  0  0  0  0  0  0
  154.4582  139.8779  159.5611 H   0  0  0  0  0  0  0  0  0  0  0  0
  152.9933  139.6816  160.4915 H   0  0  0  0  0  0  0  0  0  0  0  0
  1  2  1  0  0  0  0
  1 21  1  0  0  0  0
  1 22  1  0  0  0  0
  1 23  1  0  0  0  0
  2 19  1  0  0  0  0
  2  3  1  0  0  0  0
  3  4  1  0  0  0  0
  3 24  1  0  0  0  0
  3 25  1  0  0  0  0
  4  5  1  0  0  0  0
  4 26  1  0  0  0  0
  4 27  1  0  0  0  0
  5  6  1  0  0  0  0
  5 18  1  0  0  0  0
  5 28  1  0  0  0  0
  6  7  2  0  0  0  0
  6  8  1  0  0  0  0
  8  9  1  0  0  0  0
  8 29  1  0  0  0  0
  9 17  2  0  0  0  0
  9 10  1  0  0  0  0
 10 11  2  0  0  0  0
 10 30  1  0  0  0  0
 11 12  1  0  0  0  0
 11 31  1  0  0  0  0
 12 13  1  0  0  0  0
 12 17  1  0  0  0  0
 13 14  1  0  0  0  0
 13 32  1  0  0  0  0
 13 33  1  0  0  0  0
 14 15  1  0  0  0  0
 14 16  2  0  0  0  0
 15 34  1  0  0  0  0
 15 35  1  0  0  0  0
 18 19  1  0  0  0  0
 18 36  1  0  0  0  0
 18 37  1  0  0  0  0
 19 20  2  0  0  0  0
M  END
> <s_m_source_file>
AV-unprocessed.smi

> <i_m_source_file_index>
1480

> <i_lp_mmshare_version>
43012

> <i_f3d_flags>
0

> <s_epik_input>
W0NIM11OMVtDSDJdW0NIMl1bQ0BIXShbQ0gyXUMxPU8pQyg9TylbTkhdYzJbY0hdW2NIXW4objIpW0NIMl1DKD1PKVtOSDJd

> <s_epik_cmdline>
J2VwaWtfcHl0aG9uJywgJy1waCcsICc3LjAnLCAnLXRuJywgJzgnLCAnLW1hJywgJzIwMCcsICctbWV0YWxfYmluZGluZycsICctaW1hZScsICc8aW5maWxlLm1hZT4nLCAnLW9tYWUnLCAnPG91dGZpbGUubWFlPic=

> <r_lp_tautomer_probability>
1

> <r_epik_Ionization_Penalty>
3.93272e-06

> <r_epik_Ionization_Penalty_Charging>
0

> <r_epik_Ionization_Penalty_Neutral>
3.93272e-06

> <r_epik_State_Penalty>
-0

> <r_epik_Charging_Adjusted_Penalty>
0

> <i_epik_Tot_Q>
0

> <i_epik_Tot_abs_Q>
0

> <r_epik_Metal_State_Penalty>
-0

> <b_epik_Metal_Only>
0

> <s_lp_Force_Field>
OPLS_2005

> <r_lp_Energy>
17.1692

> <b_lp_Chiralities_Consistent>
1

> <s_lp_Variant>
AV-unprocessed.smi:1480-1

> <Gold.Version>
5.8.1

> <Gold.Id.Protein>
6NUR|6NUR_protein|mol2

> <Gold.PLP.Fitness>
42.7865

> <Gold.PLP.PLP>
-40.8178

> <Gold.PLP.part.hbond>
-4.3483

> <Gold.PLP.part.metal>
0.0000

> <Gold.PLP.part.buried>
-4.0939

> <Gold.PLP.part.nonpolar>
-31.6589

> <Gold.PLP.part.repulsive>
0.0998

> <Gold.PLP.ligand.clash>
0.0000

> <Gold.PLP.ligand.torsion>
0.4625

> <Gold.PLP.Chemscore.Hbond>
0.9600

> <Gold.PLP.Chemscore.CHOScore>
0.0000

> <Gold.PLP.Chemscore.Metal>
0.0000

> <Gold.Chemscore.Hbonds>
donor molecule, donor type, donor heavy atom, donor atom, acceptor molecule, acceptor atom, score
      P1  H  7997  8010       L1    20  0.61

> <Gold.PLP.Chemscore.Internal.Correction>
0.0138

> <Gold.Rescore>
     Score         DG    S(hbond)    S(metal)    S(lipo)     H(rot)  DE(clash)    DE(int)     intcor
      6.68     -10.19       0.74        0.00      63.56       2.03       1.83       1.68       ----

> <Gold.Chemscore.Fitness>
6.6751

> <Gold.Chemscore.DG>
-10.1855

> <Gold.Chemscore.ZeroCoef>
-5.4800

> <Gold.Chemscore.Hbond>
0.7360

> <Gold.Chemscore.Metal>
0.0000

> <Gold.Chemscore.Lipo>
63.5560

> <Gold.Chemscore.Internal_Hbond>
0.0000

> <Gold.Chemscore.DEClash>
1.8291

> <Gold.Chemscore.DEInternal>
1.6813

> <Gold.Chemscore.Rot>
2.0269

> <Gold.Chemscore.Internal.Correction>
   9.000000E+99

> <Gold.Chemscore.Hbonds>
donor molecule, donor type, donor heavy atom, donor atom, acceptor molecule, acceptor atom, score
      P1  H  7997  8010       L1    20  0.27

> <Gold.Chemscore.Hbond.Weighted>
-2.4582

> <Gold.Chemscore.Metal.Weighted>
-0.0000

> <Gold.Chemscore.Lipo.Weighted>
-7.4361

> <Gold.Chemscore.Internal_Hbond.Weighted>
0.0000

> <Gold.Chemscore.DEClash.Weighted>
1.8291

> <Gold.Chemscore.DEInternal.Weighted>
1.6813

> <Gold.Chemscore.Rot.Weighted>
5.1888

> <Gold.Chemscore.Internal.Correction.Weighted>
   9.000000E+99

> <Gold.Protein.RotatedTorsions>
[ 6907 6896 6895 6894 ] final  139.69 input  -60.11 | X-H torsion
[ 7974 7965 7964 7962 ] final  106.75 input  175.53 | X-H torsion
[ 8008 7997 7996 7995 ] final   37.50 input   59.86 | X-H torsion
[ 10167 10162 10161 10158 ] final   91.03 input  -65.29 | X-H torsion
[ 10718 10713 10712 10709 ] final   85.26 input   66.30 | X-H torsion
[ 10763 10752 10751 10750 ] final   20.84 input  -60.55 | X-H torsion
[ 11005 11000 10999 10996 ] final  171.59 input  -57.11 | X-H torsion

> <Gold.Protein.ActiveResidues>
 VAL166  LYS551  ARG553  GLY616  TRP617  ASP618  TYR619  PRO620  LYS621  CYS622 
 ASP623  PHE694  ASN695  SER759  ASP760  ASP761  ALA762  ILE779  LEU786  VAL792 
 PHE793  MET794  SER795  GLU796  ALA797  LYS798  CYS799  TRP800  GLU811  SER814 

> <Gold.Protein.RotatedAtoms>
  152.2519  133.5222  159.5330 H   0  0  0  0  0  0  0  0  0  0  0  0  # atno 6907 bound_to 6896
  150.7096  134.0949  159.3954 H   0  0  0  0  0  0  0  0  0  0  0  0  # atno 6908 bound_to 6896
  151.8868  135.0432  160.0545 H   0  0  0  0  0  0  0  0  0  0  0  0  # atno 6909 bound_to 6896
  145.3026  139.2565  143.3806 H   0  0  0  0  0  0  0  0  0  0  0  0  # atno 7974 bound_to 7965
  155.2049  140.3318  155.4337 H   0  0  0  0  0  0  0  0  0  0  0  0  # atno 8008 bound_to 7997
  156.2393  140.1887  156.7083 H   0  0  0  0  0  0  0  0  0  0  0  0  # atno 8009 bound_to 7997
  154.6117  140.0608  156.9487 H   0  0  0  0  0  0  0  0  0  0  0  0  # atno 8010 bound_to 7997
  139.8415  144.6639  150.9278 H   0  0  0  0  0  0  0  0  0  0  0  0  # atno 10167 bound_to 10162
  157.6912  131.0167  150.2795 H   0  0  0  0  0  0  0  0  0  0  0  0  # atno 10718 bound_to 10713
  153.1044  135.6681  153.9614 H   0  0  0  0  0  0  0  0  0  0  0  0  # atno 10763 bound_to 10752
  153.9175  135.3018  155.3449 H   0  0  0  0  0  0  0  0  0  0  0  0  # atno 10764 bound_to 10752
  154.7465  135.5055  153.9289 H   0  0  0  0  0  0  0  0  0  0  0  0  # atno 10765 bound_to 10752
  140.3206  134.7441  157.4061 H   0  0  0  0  0  0  0  0  0  0  0  0  # atno 11005 bound_to 11000
  146.3146  140.3544  142.8659 LP  0  0  0  0  0  0  0  0  0  0  0  0  # atno 17320 bound_to 7965
  144.9081  140.7724  143.5825 LP  0  0  0  0  0  0  0  0  0  0  0  0  # atno 17321 bound_to 7965
  140.7797  143.3909  151.1312 LP  0  0  0  0  0  0  0  0  0  0  0  0  # atno 17342 bound_to 10162
  139.7555  143.8714  152.3087 LP  0  0  0  0  0  0  0  0  0  0  0  0  # atno 17343 bound_to 10162
  156.3344  130.3805  149.7463 LP  0  0  0  0  0  0  0  0  0  0  0  0  # atno 17370 bound_to 10713
  156.4992  130.8121  151.3125 LP  0  0  0  0  0  0  0  0  0  0  0  0  # atno 17371 bound_to 10713
  140.0945  134.5556  155.8412 LP  0  0  0  0  0  0  0  0  0  0  0  0  # atno 17394 bound_to 11000
  141.2087  133.6676  156.6391 LP  0  0  0  0  0  0  0  0  0  0  0  0  # atno 17395 bound_to 11000

$$$$
