AV-unprocessed.smi:2756|AV-procd|sdf|10618|dock5
  -GOLD-   2272015 63D 1   1.00000     0.00000
 Structure written by MMmdl.
 19 19  0  0  0  0  0  0  0  0  3 V2000
  149.8649  142.1705  155.8796 N   0  0  0  0  0  0  0  0  0  0  0  0
  150.8045  142.3535  156.8944 C   0  0  0  0  0  0  0  0  0  0  0  0
  151.0380  143.6210  157.3022 N   0  3  0  0  0  0  0  0  0  0  0  0
  151.9147  143.9323  158.2813 C   0  0  0  0  0  0  0  0  0  0  0  0
  152.6360  142.9092  158.9264 C   0  0  0  0  0  0  0  0  0  0  0  0
  152.4277  141.5719  158.5328 C   0  0  0  0  0  0  0  0  0  0  0  0
  151.5041  141.2812  157.5034 C   0  0  0  0  0  0  0  0  0  0  0  0
  151.2840  139.8351  157.0797 C   0  0  0  0  0  0  0  0  0  0  0  0
  151.8570  139.6615  155.6731 C   0  0  0  0  0  0  0  0  0  0  0  0
  153.1008  139.5789  155.5738 O   0  0  0  0  0  0  0  0  0  0  0  0
  151.0430  139.6289  154.7247 O   0  5  0  0  0  0  0  0  0  0  0  0
  149.6491  141.2436  155.5392 H   0  0  0  0  0  0  0  0  0  0  0  0
  149.2393  142.9128  155.6026 H   0  0  0  0  0  0  0  0  0  0  0  0
  152.0093  144.9818  158.5187 H   0  0  0  0  0  0  0  0  0  0  0  0
  153.3375  143.1450  159.7130 H   0  0  0  0  0  0  0  0  0  0  0  0
  152.9704  140.7756  159.0209 H   0  0  0  0  0  0  0  0  0  0  0  0
  151.7605  139.1473  157.7792 H   0  0  0  0  0  0  0  0  0  0  0  0
  150.2197  139.5966  157.0754 H   0  0  0  0  0  0  0  0  0  0  0  0
  150.5242  144.3791  156.8530 H   0  0  0  0  0  0  0  0  0  0  0  0
  1  2  1  0  0  0  0
  1 12  1  0  0  0  0
  1 13  1  0  0  0  0
  2  7  1  0  0  0  0
  2  3  2  0  0  0  0
  3  4  1  0  0  0  0
  3 19  1  0  0  0  0
  4  5  2  0  0  0  0
  4 14  1  0  0  0  0
  5  6  1  0  0  0  0
  5 15  1  0  0  0  0
  6  7  2  0  0  0  0
  6 16  1  0  0  0  0
  7  8  1  0  0  0  0
  8  9  1  0  0  0  0
  8 17  1  0  0  0  0
  8 18  1  0  0  0  0
  9 10  2  0  0  0  0
  9 11  1  0  0  0  0
M  CHG  1   3   1
M  CHG  1  11  -1
M  END
> <s_m_source_file>
AV-unprocessed.smi

> <i_m_source_file_index>
2756

> <i_lp_mmshare_version>
43012

> <i_f3d_flags>
0

> <s_epik_input>
W05IMl1jMW5bY0hdW2NIXVtjSF1jMVtDSDJdQyg9TylbT0hd

> <s_epik_cmdline>
J2VwaWtfcHl0aG9uJywgJy1waCcsICc3LjAnLCAnLXRuJywgJzgnLCAnLW1hJywgJzIwMCcsICctbWV0YWxfYmluZGluZycsICctaW1hZScsICc8aW5maWxlLm1hZT4nLCAnLW9tYWUnLCAnPG91dGZpbGUubWFlPic=

> <r_lp_tautomer_probability>
0.999994

> <r_epik_Ionization_Penalty>
0.0994946

> <r_epik_Ionization_Penalty_Charging>
0.0994944

> <r_epik_Ionization_Penalty_Neutral>
2.48807e-07

> <r_epik_State_Penalty>
0.0891183

> <r_epik_Charging_Adjusted_Penalty>
0.188613

> <i_epik_Tot_Q>
0

> <i_epik_Tot_abs_Q>
2

> <r_epik_Metal_State_Penalty>
3.01912

> <b_epik_Metal_Only>
0

> <s_lp_Force_Field>
OPLS_2005

> <r_lp_Energy>
1.50311

> <b_lp_Chiralities_Consistent>
1

> <s_lp_Variant>
AV-unprocessed.smi:2756-1

> <Gold.Version>
5.8.1

> <Gold.Id.Protein>
6NUR|6NUR_protein|mol2

> <Gold.PLP.Fitness>
43.7654

> <Gold.PLP.PLP>
-24.5140

> <Gold.PLP.part.hbond>
-3.9156

> <Gold.PLP.part.metal>
0.0000

> <Gold.PLP.part.buried>
-3.7788

> <Gold.PLP.part.nonpolar>
-17.2564

> <Gold.PLP.part.repulsive>
0.2038

> <Gold.PLP.ligand.clash>
0.0000

> <Gold.PLP.ligand.torsion>
0.2987

> <Gold.PLP.Chemscore.Hbond>
6.6160

> <Gold.PLP.Chemscore.CHOScore>
0.0000

> <Gold.PLP.Chemscore.Metal>
0.0000

> <Gold.Chemscore.Hbonds>
donor molecule, donor type, donor heavy atom, donor atom, acceptor molecule, acceptor atom, score
      L1  H     1    13       P1  8028  1.89
      L1  H     3    19       P1  8028  1.73
      P1  H  7989  7998       L1    11  1.00
      P1  H  7997  8009       L1    10  1.98

> <Gold.PLP.Chemscore.Internal.Correction>
0.0007

> <Gold.Rescore>
     Score         DG    S(hbond)    S(metal)    S(lipo)     H(rot)  DE(clash)    DE(int)     intcor
     18.29     -18.89       3.66        0.00      44.71       1.58       0.00       0.60       ----

> <Gold.Chemscore.Fitness>
18.2912

> <Gold.Chemscore.DG>
-18.8919

> <Gold.Chemscore.ZeroCoef>
-5.4800

> <Gold.Chemscore.Hbond>
3.6636

> <Gold.Chemscore.Metal>
0.0000

> <Gold.Chemscore.Lipo>
44.7074

> <Gold.Chemscore.Internal_Hbond>
0.0000

> <Gold.Chemscore.DEClash>
0.0021

> <Gold.Chemscore.DEInternal>
0.5985

> <Gold.Chemscore.Rot>
1.5841

> <Gold.Chemscore.Internal.Correction>
   9.000000E+99

> <Gold.Chemscore.Hbonds>
donor molecule, donor type, donor heavy atom, donor atom, acceptor molecule, acceptor atom, score
      L1  H     1    13       P1  8028  0.91
      L1  H     3    19       P1  8028  0.76
      P1  H  7989  7998       L1    11  0.55
      P1  H  7997  8009       L1    10  0.92

> <Gold.Chemscore.Hbond.Weighted>
-12.2365

> <Gold.Chemscore.Metal.Weighted>
-0.0000

> <Gold.Chemscore.Lipo.Weighted>
-5.2308

> <Gold.Chemscore.Internal_Hbond.Weighted>
0.0000

> <Gold.Chemscore.DEClash.Weighted>
0.0021

> <Gold.Chemscore.DEInternal.Weighted>
0.5985

> <Gold.Chemscore.Rot.Weighted>
4.0554

> <Gold.Chemscore.Internal.Correction.Weighted>
   9.000000E+99

> <Gold.Protein.RotatedTorsions>
[ 6907 6896 6895 6894 ] final  -76.54 input  -60.11 | X-H torsion
[ 7974 7965 7964 7962 ] final  -51.85 input  175.53 | X-H torsion
[ 8008 7997 7996 7995 ] final -159.87 input   59.86 | X-H torsion
[ 10167 10162 10161 10158 ] final  132.55 input  -65.29 | X-H torsion
[ 10718 10713 10712 10709 ] final   47.99 input   66.30 | X-H torsion
[ 10763 10752 10751 10750 ] final  -57.29 input  -60.55 | X-H torsion
[ 11005 11000 10999 10996 ] final    7.86 input  -57.11 | X-H torsion

> <Gold.Protein.ActiveResidues>
 VAL166  LYS551  ARG553  GLY616  TRP617  ASP618  TYR619  PRO620  LYS621  CYS622 
 ASP623  PHE694  ASN695  SER759  ASP760  ASP761  ALA762  ILE779  LEU786  VAL792 
 PHE793  MET794  SER795  GLU796  ALA797  LYS798  CYS799  TRP800  GLU811  SER814 

> <Gold.Protein.RotatedAtoms>
  150.7024  134.4557  159.5356 H   0  0  0  0  0  0  0  0  0  0  0  0  # atno 6907 bound_to 6896
  152.2241  134.8382  160.0491 H   0  0  0  0  0  0  0  0  0  0  0  0  # atno 6908 bound_to 6896
  151.9222  133.3553  159.3938 H   0  0  0  0  0  0  0  0  0  0  0  0  # atno 6909 bound_to 6896
  145.9144  140.7887  142.9679 H   0  0  0  0  0  0  0  0  0  0  0  0  # atno 7974 bound_to 7965
  155.7691  140.0849  157.2117 H   0  0  0  0  0  0  0  0  0  0  0  0  # atno 8008 bound_to 7997
  154.3997  140.1528  156.2978 H   0  0  0  0  0  0  0  0  0  0  0  0  # atno 8009 bound_to 7997
  155.8765  140.3423  155.5860 H   0  0  0  0  0  0  0  0  0  0  0  0  # atno 8010 bound_to 7997
  139.5335  144.6657  151.4867 H   0  0  0  0  0  0  0  0  0  0  0  0  # atno 10167 bound_to 10162
  157.4641  130.8215  149.7918 H   0  0  0  0  0  0  0  0  0  0  0  0  # atno 10718 bound_to 10713
  154.2201  135.6379  153.5142 H   0  0  0  0  0  0  0  0  0  0  0  0  # atno 10763 bound_to 10752
  152.9970  135.5495  154.6123 H   0  0  0  0  0  0  0  0  0  0  0  0  # atno 10764 bound_to 10752
  154.5581  135.2907  155.0919 H   0  0  0  0  0  0  0  0  0  0  0  0  # atno 10765 bound_to 10752
  140.5435  134.0351  155.7912 H   0  0  0  0  0  0  0  0  0  0  0  0  # atno 11005 bound_to 11000
  144.6746  140.1877  143.7399 LP  0  0  0  0  0  0  0  0  0  0  0  0  # atno 17320 bound_to 7965
  145.8630  139.2232  143.1705 LP  0  0  0  0  0  0  0  0  0  0  0  0  # atno 17321 bound_to 7965
  140.6528  143.8662  150.6803 LP  0  0  0  0  0  0  0  0  0  0  0  0  # atno 17342 bound_to 10162
  140.2032  143.3942  152.1775 LP  0  0  0  0  0  0  0  0  0  0  0  0  # atno 17343 bound_to 10162
  156.0042  130.3864  150.2491 LP  0  0  0  0  0  0  0  0  0  0  0  0  # atno 17370 bound_to 10713
  157.0671  131.0106  151.3203 LP  0  0  0  0  0  0  0  0  0  0  0  0  # atno 17371 bound_to 10713
  141.1213  133.9456  157.2723 LP  0  0  0  0  0  0  0  0  0  0  0  0  # atno 17394 bound_to 11000
  139.9492  135.0178  156.8942 LP  0  0  0  0  0  0  0  0  0  0  0  0  # atno 17395 bound_to 11000

$$$$
