AV-unprocessed.smi:1459|AV-procd|sdf|5925|dock9
  -GOLD-   22720 6 13D 1   1.00000     0.00000
 Structure written by MMmdl.
 34 35  0  0  0  0  0  0  0  0  1 V2000
  144.2554  143.6045  162.8486 C   0  0  0  0  0  0  0  0  0  0  0  0
  145.0350  144.1460  161.7001 C   0  0  0  0  0  0  0  0  0  0  0  0
  146.3705  144.1717  161.4119 C   0  0  0  0  0  0  0  0  0  0  0  0
  146.4142  144.8400  160.1597 C   0  0  0  0  0  0  0  0  0  0  0  0
  147.6494  145.0766  159.5046 N   0  0  0  0  0  0  0  0  0  0  0  0
  148.8786  144.7332  159.9251 C   0  0  0  0  0  0  0  0  0  0  0  0
  149.1287  144.1502  160.9805 O   0  0  0  0  0  0  0  0  0  0  0  0
  149.8157  145.1138  159.0441 N   0  0  0  0  0  0  0  0  0  0  0  0
  151.2563  144.9246  159.1994 C   0  0  1  0  0  0  0  0  0  0  0  0
  151.7508  145.8399  160.3300 C   0  0  0  0  0  0  0  0  0  0  0  0
  151.5615  143.4366  159.4705 C   0  0  2  0  0  0  0  0  0  0  0  0
  153.0514  143.1002  159.5611 C   0  0  0  0  0  0  0  0  0  0  0  0
  153.0612  141.6345  159.1949 C   0  0  0  0  0  0  0  0  0  0  0  0
  152.0053  141.5867  158.0964 C   0  0  0  0  0  0  0  0  0  0  0  0
  151.0726  142.6175  158.4085 O   0  0  0  0  0  0  0  0  0  0  0  0
  145.2142  145.1912  159.7231 N   0  0  0  0  0  0  0  0  0  0  0  0
  144.3241  144.7479  160.7082 O   0  0  0  0  0  0  0  0  0  0  0  0
  144.9165  143.1622  163.5940 H   0  0  0  0  0  0  0  0  0  0  0  0
  143.5588  142.8354  162.5145 H   0  0  0  0  0  0  0  0  0  0  0  0
  143.6812  144.3948  163.3323 H   0  0  0  0  0  0  0  0  0  0  0  0
  147.1824  143.7748  162.0032 H   0  0  0  0  0  0  0  0  0  0  0  0
  147.5915  145.5621  158.6220 H   0  0  0  0  0  0  0  0  0  0  0  0
  149.5121  145.5889  158.2070 H   0  0  0  0  0  0  0  0  0  0  0  0
  151.7696  145.2254  158.2843 H   0  0  0  0  0  0  0  0  0  0  0  0
  152.8331  145.7809  160.4454 H   0  0  0  0  0  0  0  0  0  0  0  0
  151.2986  145.5721  161.2855 H   0  0  0  0  0  0  0  0  0  0  0  0
  151.5046  146.8824  160.1253 H   0  0  0  0  0  0  0  0  0  0  0  0
  151.0678  143.1114  160.3880 H   0  0  0  0  0  0  0  0  0  0  0  0
  153.6210  143.6705  158.8257 H   0  0  0  0  0  0  0  0  0  0  0  0
  153.4734  143.2949  160.5473 H   0  0  0  0  0  0  0  0  0  0  0  0
  154.0375  141.2783  158.8653 H   0  0  0  0  0  0  0  0  0  0  0  0
  152.7452  141.0333  160.0485 H   0  0  0  0  0  0  0  0  0  0  0  0
  152.4529  141.8088  157.1269 H   0  0  0  0  0  0  0  0  0  0  0  0
  151.5177  140.6138  158.0300 H   0  0  0  0  0  0  0  0  0  0  0  0
  1  2  1  0  0  0  0
  1 18  1  0  0  0  0
  1 19  1  0  0  0  0
  1 20  1  0  0  0  0
  2 17  1  0  0  0  0
  2  3  2  0  0  0  0
  3  4  1  0  0  0  0
  3 21  1  0  0  0  0
  4  5  1  0  0  0  0
  4 16  2  0  0  0  0
  5  6  1  0  0  0  0
  5 22  1  0  0  0  0
  6  7  2  0  0  0  0
  6  8  1  0  0  0  0
  8  9  1  0  0  0  0
  8 23  1  0  0  0  0
  9 10  1  0  0  0  0
  9 11  1  0  0  0  0
  9 24  1  0  0  0  0
 10 25  1  0  0  0  0
 10 26  1  0  0  0  0
 10 27  1  0  0  0  0
 11 15  1  0  0  0  0
 11 12  1  0  0  0  0
 11 28  1  0  0  0  0
 12 13  1  0  0  0  0
 12 29  1  0  0  0  0
 12 30  1  0  0  0  0
 13 14  1  0  0  0  0
 13 31  1  0  0  0  0
 13 32  1  0  0  0  0
 14 15  1  0  0  0  0
 14 33  1  0  0  0  0
 14 34  1  0  0  0  0
 16 17  1  0  0  0  0
M  END
> <s_m_source_file>
AV-unprocessed.smi

> <i_m_source_file_index>
1459

> <i_lp_mmshare_version>
43012

> <i_f3d_flags>
0

> <s_epik_input>
W0NIM11jMVtjSF1jKG5vMSlbTkhdQyg9TylbTkhdW0NASF0oW0NIM10pW0NAQEhdMltDSDJdW0NIMl1bQ0gyXU8y

> <s_epik_cmdline>
J2VwaWtfcHl0aG9uJywgJy1waCcsICc3LjAnLCAnLXRuJywgJzgnLCAnLW1hJywgJzIwMCcsICctbWV0YWxfYmluZGluZycsICctaW1hZScsICc8aW5maWxlLm1hZT4nLCAnLW9tYWUnLCAnPG91dGZpbGUubWFlPic=

> <r_lp_tautomer_probability>
1

> <r_epik_Ionization_Penalty>
2.20869e-05

> <r_epik_Ionization_Penalty_Charging>
0

> <r_epik_Ionization_Penalty_Neutral>
2.20869e-05

> <r_epik_State_Penalty>
-0

> <r_epik_Charging_Adjusted_Penalty>
0

> <i_epik_Tot_Q>
0

> <i_epik_Tot_abs_Q>
0

> <r_epik_Metal_State_Penalty>
-0

> <b_epik_Metal_Only>
0

> <s_lp_Force_Field>
OPLS_2005

> <r_lp_Energy>
15.9423

> <b_lp_Chiralities_Consistent>
1

> <s_lp_Variant>
AV-unprocessed.smi:1459-2

> <Gold.Version>
5.8.1

> <Gold.Id.Protein>
6NUR|6NUR_protein|mol2

> <Gold.PLP.Fitness>
42.5017

> <Gold.PLP.PLP>
-35.2513

> <Gold.PLP.part.hbond>
-2.9620

> <Gold.PLP.part.metal>
0.0000

> <Gold.PLP.part.buried>
-3.9339

> <Gold.PLP.part.nonpolar>
-30.7277

> <Gold.PLP.part.repulsive>
0.8143

> <Gold.PLP.ligand.clash>
0.0000

> <Gold.PLP.ligand.torsion>
0.0636

> <Gold.PLP.Chemscore.Hbond>
2.4560

> <Gold.PLP.Chemscore.CHOScore>
0.0000

> <Gold.PLP.Chemscore.Metal>
0.0000

> <Gold.Chemscore.Hbonds>
donor molecule, donor type, donor heavy atom, donor atom, acceptor molecule, acceptor atom, score
      L1  H     5    22       P1  8029  0.71
      L1  H     8    23       P1  8029  0.80
      P1  H  6933  6944       L1     7  0.56

> <Gold.PLP.Chemscore.Internal.Correction>
0.0097

> <Gold.Rescore>
     Score         DG    S(hbond)    S(metal)    S(lipo)     H(rot)  DE(clash)    DE(int)     intcor
     18.05     -20.82       2.65        0.00      83.31       1.28       0.41       2.36       ----

> <Gold.Chemscore.Fitness>
18.0515

> <Gold.Chemscore.DG>
-20.8211

> <Gold.Chemscore.ZeroCoef>
-5.4800

> <Gold.Chemscore.Hbond>
2.6541

> <Gold.Chemscore.Metal>
0.0000

> <Gold.Chemscore.Lipo>
83.3073

> <Gold.Chemscore.Internal_Hbond>
0.0000

> <Gold.Chemscore.DEClash>
0.4134

> <Gold.Chemscore.DEInternal>
2.3561

> <Gold.Chemscore.Rot>
1.2776

> <Gold.Chemscore.Internal.Correction>
   9.000000E+99

> <Gold.Chemscore.Hbonds>
donor molecule, donor type, donor heavy atom, donor atom, acceptor molecule, acceptor atom, score
      L1  H     5    22       P1  8029  0.73
      L1  H     8    23       P1  8029  0.52
      P1  H  6933  6944       L1     7  0.56

> <Gold.Chemscore.Hbond.Weighted>
-8.8648

> <Gold.Chemscore.Metal.Weighted>
-0.0000

> <Gold.Chemscore.Lipo.Weighted>
-9.7470

> <Gold.Chemscore.Internal_Hbond.Weighted>
0.0000

> <Gold.Chemscore.DEClash.Weighted>
0.4134

> <Gold.Chemscore.DEInternal.Weighted>
2.3561

> <Gold.Chemscore.Rot.Weighted>
3.2707

> <Gold.Chemscore.Internal.Correction.Weighted>
   9.000000E+99

> <Gold.Protein.RotatedTorsions>
[ 6907 6896 6895 6894 ] final  135.74 input  -60.11 | X-H torsion
[ 7974 7965 7964 7962 ] final  168.20 input  175.53 | X-H torsion
[ 8008 7997 7996 7995 ] final -143.67 input   59.86 | X-H torsion
[ 10167 10162 10161 10158 ] final   87.61 input  -65.29 | X-H torsion
[ 10718 10713 10712 10709 ] final  152.03 input   66.30 | X-H torsion
[ 10763 10752 10751 10750 ] final  178.80 input  -60.55 | X-H torsion
[ 11005 11000 10999 10996 ] final  136.54 input  -57.11 | X-H torsion

> <Gold.Protein.ActiveResidues>
 VAL166  LYS551  ARG553  GLY616  TRP617  ASP618  TYR619  PRO620  LYS621  CYS622 
 ASP623  PHE694  ASN695  SER759  ASP760  ASP761  ALA762  ILE779  LEU786  VAL792 
 PHE793  MET794  SER795  GLU796  ALA797  LYS798  CYS799  TRP800  GLU811  SER814 

> <Gold.Protein.RotatedAtoms>
  152.2971  133.5618  159.5594 H   0  0  0  0  0  0  0  0  0  0  0  0  # atno 6907 bound_to 6896
  150.7261  134.0345  159.3753 H   0  0  0  0  0  0  0  0  0  0  0  0  # atno 6908 bound_to 6896
  151.8248  135.0641  160.0480 H   0  0  0  0  0  0  0  0  0  0  0  0  # atno 6909 bound_to 6896
  144.7397  139.8873  143.6400 H   0  0  0  0  0  0  0  0  0  0  0  0  # atno 7974 bound_to 7965
  155.5144  140.0586  157.2918 H   0  0  0  0  0  0  0  0  0  0  0  0  # atno 8008 bound_to 7997
  154.4540  140.1963  156.0382 H   0  0  0  0  0  0  0  0  0  0  0  0  # atno 8009 bound_to 7997
  156.0762  140.3253  155.7640 H   0  0  0  0  0  0  0  0  0  0  0  0  # atno 8010 bound_to 7997
  139.8756  144.6468  150.8900 H   0  0  0  0  0  0  0  0  0  0  0  0  # atno 10167 bound_to 10162
  157.2631  131.0802  151.1652 H   0  0  0  0  0  0  0  0  0  0  0  0  # atno 10718 bound_to 10713
  154.5123  135.2789  155.1332 H   0  0  0  0  0  0  0  0  0  0  0  0  # atno 10763 bound_to 10752
  154.2922  135.6264  153.5393 H   0  0  0  0  0  0  0  0  0  0  0  0  # atno 10764 bound_to 10752
  152.9921  135.5677  154.5592 H   0  0  0  0  0  0  0  0  0  0  0  0  # atno 10765 bound_to 10752
  140.0053  134.9462  157.0160 H   0  0  0  0  0  0  0  0  0  0  0  0  # atno 11005 bound_to 11000
  146.1168  139.4180  143.0253 LP  0  0  0  0  0  0  0  0  0  0  0  0  # atno 17320 bound_to 7965
  145.7363  141.0024  143.1325 LP  0  0  0  0  0  0  0  0  0  0  0  0  # atno 17321 bound_to 7965
  140.7753  143.3627  151.1797 LP  0  0  0  0  0  0  0  0  0  0  0  0  # atno 17342 bound_to 10162
  139.7243  143.9174  152.2997 LP  0  0  0  0  0  0  0  0  0  0  0  0  # atno 17343 bound_to 10162
  157.3154  130.6910  149.6239 LP  0  0  0  0  0  0  0  0  0  0  0  0  # atno 17370 bound_to 10713
  155.9664  130.4351  150.5077 LP  0  0  0  0  0  0  0  0  0  0  0  0  # atno 17371 bound_to 10713
  140.4653  134.1442  155.7196 LP  0  0  0  0  0  0  0  0  0  0  0  0  # atno 17394 bound_to 11000
  141.1672  133.8680  157.1680 LP  0  0  0  0  0  0  0  0  0  0  0  0  # atno 17395 bound_to 11000

$$$$
