AV-unprocessed.smi:2634|AV-procd|sdf|10254|dock4
  -GOLD-   2272014263D 1   1.00000     0.00000
 Structure written by MMmdl.
 27 28  0  0  0  0  0  0  0  0  2 V2000
  150.8926  142.5383  156.4860 N   0  0  0  0  0  0  0  0  0  0  0  0
  151.5163  142.4167  157.7291 C   0  0  0  0  0  0  0  0  0  0  0  0
  152.3095  141.3964  158.1351 N   0  3  0  0  0  0  0  0  0  0  0  0
  152.6310  140.3012  157.3663 N   0  0  0  0  0  0  0  0  0  0  0  0
  152.7600  141.5950  159.4378 C   0  0  0  0  0  0  0  0  0  0  0  0
  153.5793  140.8399  160.2725 C   0  0  0  0  0  0  0  0  0  0  0  0
  153.8235  141.3653  161.5579 C   0  0  0  0  0  0  0  0  0  0  0  0
  153.2634  142.5922  161.9706 C   0  0  0  0  0  0  0  0  0  0  0  0
  152.4338  143.3503  161.1176 C   0  0  0  0  0  0  0  0  0  0  0  0
  152.1939  142.8306  159.8457 C   0  0  0  0  0  0  0  0  0  0  0  0
  151.4325  143.3045  158.7572 N   0  0  0  0  0  0  0  0  0  0  0  0
  150.7103  144.5771  158.8753 C   0  0  0  0  0  0  0  0  0  0  0  0
  149.6065  144.5101  159.9398 C   0  0  0  0  0  0  0  0  0  0  0  0
  148.7546  145.6263  159.8082 O   0  0  0  0  0  0  0  0  0  0  0  0
  151.0046  141.8374  155.7674 H   0  0  0  0  0  0  0  0  0  0  0  0
  152.0478  140.3309  156.5419 H   0  0  0  0  0  0  0  0  0  0  0  0
  152.3740  139.4779  157.8924 H   0  0  0  0  0  0  0  0  0  0  0  0
  154.0090  139.8997  159.9589 H   0  0  0  0  0  0  0  0  0  0  0  0
  154.4536  140.8157  162.2422 H   0  0  0  0  0  0  0  0  0  0  0  0
  153.4743  142.9601  162.9643 H   0  0  0  0  0  0  0  0  0  0  0  0
  152.0107  144.2875  161.4481 H   0  0  0  0  0  0  0  0  0  0  0  0
  151.4280  145.3681  159.0965 H   0  0  0  0  0  0  0  0  0  0  0  0
  150.2825  144.8089  157.8993 H   0  0  0  0  0  0  0  0  0  0  0  0
  149.0184  143.5986  159.8281 H   0  0  0  0  0  0  0  0  0  0  0  0
  150.0318  144.5052  160.9438 H   0  0  0  0  0  0  0  0  0  0  0  0
  148.5406  145.7379  158.8942 H   0  0  0  0  0  0  0  0  0  0  0  0
  150.3183  143.3376  156.2585 H   0  0  0  0  0  0  0  0  0  0  0  0
  1  2  1  0  0  0  0
  1 15  1  0  0  0  0
  1 27  1  0  0  0  0
  2 11  1  0  0  0  0
  2  3  2  0  0  0  0
  3  4  1  0  0  0  0
  3  5  1  0  0  0  0
  4 16  1  0  0  0  0
  4 17  1  0  0  0  0
  5 10  2  0  0  0  0
  5  6  1  0  0  0  0
  6  7  2  0  0  0  0
  6 18  1  0  0  0  0
  7  8  1  0  0  0  0
  7 19  1  0  0  0  0
  8  9  2  0  0  0  0
  8 20  1  0  0  0  0
  9 10  1  0  0  0  0
  9 21  1  0  0  0  0
 10 11  1  0  0  0  0
 11 12  1  0  0  0  0
 12 13  1  0  0  0  0
 12 22  1  0  0  0  0
 12 23  1  0  0  0  0
 13 14  1  0  0  0  0
 13 24  1  0  0  0  0
 13 25  1  0  0  0  0
 14 26  1  0  0  0  0
M  CHG  1   3   1
M  END
> <s_m_source_file>
AV-unprocessed.smi

> <i_m_source_file_index>
2634

> <i_lp_mmshare_version>
43012

> <i_f3d_flags>
0

> <s_epik_input>
W05IMl1uMS9jKD1OXFtIXSluKFtDSDJdW0NIMl1bT0hdKWMoYzEyKVtjSF1bY0hdW2NIXVtjSF0y

> <s_epik_cmdline>
J2VwaWtfcHl0aG9uJywgJy1waCcsICc3LjAnLCAnLXRuJywgJzgnLCAnLW1hJywgJzIwMCcsICctbWV0YWxfYmluZGluZycsICctaW1hZScsICc8aW5maWxlLm1hZT4nLCAnLW9tYWUnLCAnPG91dGZpbGUubWFlPic=

> <r_lp_tautomer_probability>
1

> <r_epik_Ionization_Penalty>
1.24644e-06

> <r_epik_Ionization_Penalty_Charging>
0

> <r_epik_Ionization_Penalty_Neutral>
1.24644e-06

> <r_epik_State_Penalty>
-0

> <r_epik_Charging_Adjusted_Penalty>
0

> <i_epik_Tot_Q>
1

> <i_epik_Tot_abs_Q>
1

> <r_epik_Metal_State_Penalty>
-0

> <b_epik_Metal_Only>
0

> <s_lp_Force_Field>
OPLS_2005

> <r_lp_Energy>
25.9386

> <b_lp_Chiralities_Consistent>
1

> <s_lp_Variant>
AV-unprocessed.smi:2634-1

> <Gold.Version>
5.8.1

> <Gold.Id.Protein>
6NUR|6NUR_protein|mol2

> <Gold.PLP.Fitness>
47.1632

> <Gold.PLP.PLP>
-35.3950

> <Gold.PLP.part.hbond>
-4.0000

> <Gold.PLP.part.metal>
0.0000

> <Gold.PLP.part.buried>
-3.9826

> <Gold.PLP.part.nonpolar>
-26.5317

> <Gold.PLP.part.repulsive>
0.0771

> <Gold.PLP.ligand.clash>
0.0000

> <Gold.PLP.ligand.torsion>
0.0672

> <Gold.PLP.Chemscore.Hbond>
3.9675

> <Gold.PLP.Chemscore.CHOScore>
0.0000

> <Gold.PLP.Chemscore.Metal>
0.0000

> <Gold.Chemscore.Hbonds>
donor molecule, donor type, donor heavy atom, donor atom, acceptor molecule, acceptor atom, score
      L1  H     1    27       P1  8028  1.79
      L1  H    14    26       P1  8029  1.00
      P1  H  7997  8008       L1     4  0.94

> <Gold.PLP.Chemscore.Internal.Correction>
0.0002

> <Gold.Rescore>
     Score         DG    S(hbond)    S(metal)    S(lipo)     H(rot)  DE(clash)    DE(int)     intcor
     17.36     -17.54       2.43        0.00      76.80       1.96       0.07       0.11       ----

> <Gold.Chemscore.Fitness>
17.3644

> <Gold.Chemscore.DG>
-17.5416

> <Gold.Chemscore.ZeroCoef>
-5.4800

> <Gold.Chemscore.Hbond>
2.4263

> <Gold.Chemscore.Metal>
0.0000

> <Gold.Chemscore.Lipo>
76.8048

> <Gold.Chemscore.Internal_Hbond>
0.0000

> <Gold.Chemscore.DEClash>
0.0717

> <Gold.Chemscore.DEInternal>
0.1056

> <Gold.Chemscore.Rot>
1.9643

> <Gold.Chemscore.Internal.Correction>
   9.000000E+99

> <Gold.Chemscore.Hbonds>
donor molecule, donor type, donor heavy atom, donor atom, acceptor molecule, acceptor atom, score
      L1  H     1    27       P1  8028  0.87
      L1  H    14    26       P1  8029  1.00
      P1  H  7997  8008       L1     4  0.21

> <Gold.Chemscore.Hbond.Weighted>
-8.1040

> <Gold.Chemscore.Metal.Weighted>
-0.0000

> <Gold.Chemscore.Lipo.Weighted>
-8.9862

> <Gold.Chemscore.Internal_Hbond.Weighted>
0.0000

> <Gold.Chemscore.DEClash.Weighted>
0.0717

> <Gold.Chemscore.DEInternal.Weighted>
0.1056

> <Gold.Chemscore.Rot.Weighted>
5.0285

> <Gold.Chemscore.Internal.Correction.Weighted>
   9.000000E+99

> <Gold.Protein.RotatedTorsions>
[ 6907 6896 6895 6894 ] final  101.74 input  -60.11 | X-H torsion
[ 7974 7965 7964 7962 ] final   42.25 input  175.53 | X-H torsion
[ 8008 7997 7996 7995 ] final  -56.53 input   59.86 | X-H torsion
[ 10167 10162 10161 10158 ] final -141.53 input  -65.29 | X-H torsion
[ 10718 10713 10712 10709 ] final   96.96 input   66.30 | X-H torsion
[ 10763 10752 10751 10750 ] final   58.16 input  -60.55 | X-H torsion
[ 11005 11000 10999 10996 ] final  -84.72 input  -57.11 | X-H torsion

> <Gold.Protein.ActiveResidues>
 VAL166  LYS551  ARG553  GLY616  TRP617  ASP618  TYR619  PRO620  LYS621  CYS622 
 ASP623  PHE694  ASN695  SER759  ASP760  ASP761  ALA762  ILE779  LEU786  VAL792 
 PHE793  MET794  SER795  GLU796  ALA797  LYS798  CYS799  TRP800  GLU811  SER814 

> <Gold.Protein.RotatedAtoms>
  152.5342  134.0080  159.7924 H   0  0  0  0  0  0  0  0  0  0  0  0  # atno 6907 bound_to 6896
  151.0287  133.5802  159.2670 H   0  0  0  0  0  0  0  0  0  0  0  0  # atno 6908 bound_to 6896
  151.2815  135.0722  159.9224 H   0  0  0  0  0  0  0  0  0  0  0  0  # atno 6909 bound_to 6896
  146.0755  139.5321  142.9570 H   0  0  0  0  0  0  0  0  0  0  0  0  # atno 7974 bound_to 7965
  154.4233  140.1127  156.5652 H   0  0  0  0  0  0  0  0  0  0  0  0  # atno 8008 bound_to 7997
  155.6270  140.3495  155.4651 H   0  0  0  0  0  0  0  0  0  0  0  0  # atno 8009 bound_to 7997
  155.9979  140.1193  157.0566 H   0  0  0  0  0  0  0  0  0  0  0  0  # atno 8010 bound_to 7997
  139.8176  143.7617  152.2665 H   0  0  0  0  0  0  0  0  0  0  0  0  # atno 10167 bound_to 10162
  157.6919  131.0594  150.4571 H   0  0  0  0  0  0  0  0  0  0  0  0  # atno 10718 bound_to 10713
  152.9865  135.5616  154.5508 H   0  0  0  0  0  0  0  0  0  0  0  0  # atno 10763 bound_to 10752
  154.4945  135.2794  155.1472 H   0  0  0  0  0  0  0  0  0  0  0  0  # atno 10764 bound_to 10752
  154.2928  135.6323  153.5445 H   0  0  0  0  0  0  0  0  0  0  0  0  # atno 10765 bound_to 10752
  141.1648  133.7361  156.8909 H   0  0  0  0  0  0  0  0  0  0  0  0  # atno 11005 bound_to 11000
  145.6313  141.0303  143.1862 LP  0  0  0  0  0  0  0  0  0  0  0  0  # atno 17320 bound_to 7965
  144.7259  139.7877  143.7365 LP  0  0  0  0  0  0  0  0  0  0  0  0  # atno 17321 bound_to 7965
  139.7786  144.7452  151.0121 LP  0  0  0  0  0  0  0  0  0  0  0  0  # atno 17342 bound_to 10162
  140.7815  143.4567  151.0335 LP  0  0  0  0  0  0  0  0  0  0  0  0  # atno 17343 bound_to 10162
  156.4918  130.4097  149.6402 LP  0  0  0  0  0  0  0  0  0  0  0  0  # atno 17370 bound_to 10713
  156.3410  130.7382  151.2327 LP  0  0  0  0  0  0  0  0  0  0  0  0  # atno 17371 bound_to 10713
  140.1649  134.9140  157.2761 LP  0  0  0  0  0  0  0  0  0  0  0  0  # atno 17394 bound_to 11000
  140.2568  134.3617  155.7421 LP  0  0  0  0  0  0  0  0  0  0  0  0  # atno 17395 bound_to 11000

$$$$
