AV-unprocessed.smi:2439|AV-procd|sdf|9609|dock7
  -GOLD-   2272013243D 1   1.00000     0.00000
 Structure written by MMmdl.
 41 43  0  0  0  0  0  0  0  0  2 V2000
  153.8135  140.3940  159.3723 N   0  0  0  0  0  0  0  0  0  0  0  0
  153.1543  141.2504  159.7853 C   0  0  0  0  0  0  0  0  0  0  0  0
  152.3221  142.3288  160.3047 C   0  0  0  0  0  0  0  0  0  0  0  0
  152.1627  142.4583  161.7004 C   0  0  0  0  0  0  0  0  0  0  0  0
  151.3577  143.4956  162.2052 C   0  0  0  0  0  0  0  0  0  0  0  0
  150.7418  144.3674  161.2892 C   0  0  0  0  0  0  0  0  0  0  0  0
  150.8855  144.2553  159.9519 N   0  0  0  0  0  0  0  0  0  0  0  0
  151.6589  143.2574  159.4580 C   0  0  0  0  0  0  0  0  0  0  0  0
  151.7870  143.1662  158.0606 N   0  0  0  0  0  0  0  0  0  0  0  0
  150.6143  143.1103  157.1996 C   0  0  0  0  0  0  0  0  0  0  0  0
  150.1980  141.6563  156.9032 C   0  0  2  0  0  0  0  0  0  0  0  0
  149.6117  141.4744  155.4905 C   0  0  0  0  0  0  0  0  0  0  0  0
  148.2660  142.0858  155.3822 N   0  3  1  0  0  0  0  0  0  0  0  0
  147.7010  141.9573  154.0147 C   0  0  0  0  0  0  0  0  0  0  0  0
  146.3460  142.6734  153.9032 C   0  0  0  0  0  0  0  0  0  0  0  0
  145.3628  142.1439  154.9544 C   0  0  0  0  0  0  0  0  0  0  0  0
  145.9777  142.2661  156.3546 C   0  0  0  0  0  0  0  0  0  0  0  0
  147.3487  141.5636  156.4312 C   0  0  2  0  0  0  0  0  0  0  0  0
  147.9830  141.7416  157.8239 C   0  0  0  0  0  0  0  0  0  0  0  0
  149.2746  141.1438  157.8644 O   0  0  0  0  0  0  0  0  0  0  0  0
  152.6481  141.7730  162.3807 H   0  0  0  0  0  0  0  0  0  0  0  0
  151.2159  143.6195  163.2688 H   0  0  0  0  0  0  0  0  0  0  0  0
  150.1162  145.1755  161.6383 H   0  0  0  0  0  0  0  0  0  0  0  0
  152.6986  143.0144  157.6520 H   0  0  0  0  0  0  0  0  0  0  0  0
  149.7936  143.6685  157.6499 H   0  0  0  0  0  0  0  0  0  0  0  0
  150.8554  143.6151  156.2633 H   0  0  0  0  0  0  0  0  0  0  0  0
  151.0943  141.0382  156.9699 H   0  0  0  0  0  0  0  0  0  0  0  0
  150.2802  141.9119  154.7479 H   0  0  0  0  0  0  0  0  0  0  0  0
  149.5387  140.4101  155.2607 H   0  0  0  0  0  0  0  0  0  0  0  0
  148.3977  142.3816  153.2907 H   0  0  0  0  0  0  0  0  0  0  0  0
  147.5870  140.9014  153.7638 H   0  0  0  0  0  0  0  0  0  0  0  0
  146.4849  143.7471  154.0363 H   0  0  0  0  0  0  0  0  0  0  0  0
  145.9324  142.5358  152.9037 H   0  0  0  0  0  0  0  0  0  0  0  0
  144.4242  142.6967  154.9050 H   0  0  0  0  0  0  0  0  0  0  0  0
  145.1237  141.1004  154.7450 H   0  0  0  0  0  0  0  0  0  0  0  0
  146.0878  143.3214  156.6094 H   0  0  0  0  0  0  0  0  0  0  0  0
  145.2970  141.8404  157.0928 H   0  0  0  0  0  0  0  0  0  0  0  0
  147.2052  140.4963  156.2526 H   0  0  0  0  0  0  0  0  0  0  0  0
  148.0393  142.7943  158.1019 H   0  0  0  0  0  0  0  0  0  0  0  0
  147.3613  141.2604  158.5793 H   0  0  0  0  0  0  0  0  0  0  0  0
  148.3787  143.0739  155.5592 H   0  0  0  0  0  0  0  0  0  0  0  0
  1  2  3  0  0  0  0
  2  3  1  0  0  0  0
  3  8  1  0  0  0  0
  3  4  2  0  0  0  0
  4  5  1  0  0  0  0
  4 21  1  0  0  0  0
  5  6  2  0  0  0  0
  5 22  1  0  0  0  0
  6  7  1  0  0  0  0
  6 23  1  0  0  0  0
  7  8  2  0  0  0  0
  8  9  1  0  0  0  0
  9 10  1  0  0  0  0
  9 24  1  0  0  0  0
 10 11  1  0  0  0  0
 10 25  1  0  0  0  0
 10 26  1  0  0  0  0
 11 20  1  0  0  0  0
 11 12  1  0  0  0  0
 11 27  1  0  0  0  0
 12 13  1  0  0  0  0
 12 28  1  0  0  0  0
 12 29  1  0  0  0  0
 13 18  1  0  0  0  0
 13 14  1  0  0  0  0
 13 41  1  0  0  0  0
 14 15  1  0  0  0  0
 14 30  1  0  0  0  0
 14 31  1  0  0  0  0
 15 16  1  0  0  0  0
 15 32  1  0  0  0  0
 15 33  1  0  0  0  0
 16 17  1  0  0  0  0
 16 34  1  0  0  0  0
 16 35  1  0  0  0  0
 17 18  1  0  0  0  0
 17 36  1  0  0  0  0
 17 37  1  0  0  0  0
 18 19  1  0  0  0  0
 18 38  1  0  0  0  0
 19 20  1  0  0  0  0
 19 39  1  0  0  0  0
 19 40  1  0  0  0  0
M  CHG  1  13   1
M  END
> <s_m_source_file>
AV-unprocessed.smi

> <i_m_source_file_index>
2439

> <i_lp_mmshare_version>
43012

> <i_f3d_flags>
0

> <s_epik_input>
TiNDYzFbY0hdW2NIXVtjSF1uYzFbTkhdW0NIMl1bQ0BIXShbQ0gyXTIpT1tDSDJdW0NAQEhdKE4yMylbQ0gyXVtDSDJdW0NIMl1bQ0gyXTM=

> <s_epik_cmdline>
J2VwaWtfcHl0aG9uJywgJy1waCcsICc3LjAnLCAnLXRuJywgJzgnLCAnLW1hJywgJzIwMCcsICctbWV0YWxfYmluZGluZycsICctaW1hZScsICc8aW5maWxlLm1hZT4nLCAnLW9tYWUnLCAnPG91dGZpbGUubWFlPic=

> <r_epik_Ionization_Penalty>
0.0803594

> <r_epik_Ionization_Penalty_Charging>
0.0803403

> <r_epik_Ionization_Penalty_Neutral>
1.90988e-05

> <r_epik_State_Penalty>
0.0711481

> <r_epik_Charging_Adjusted_Penalty>
0.151488

> <i_epik_Tot_Q>
1

> <i_epik_Tot_abs_Q>
1

> <r_epik_Metal_State_Penalty>
0.0711482

> <b_epik_Metal_Only>
0

> <s_lp_Force_Field>
OPLS_2005

> <r_lp_Energy>
31.556

> <b_lp_Chiralities_Consistent>
1

> <s_lp_Variant>
AV-unprocessed.smi:2439-7

> <Gold.Version>
5.8.1

> <Gold.Id.Protein>
6NUR|6NUR_protein|mol2

> <Gold.PLP.Fitness>
47.5160

> <Gold.PLP.PLP>
-40.6844

> <Gold.PLP.part.hbond>
-2.0000

> <Gold.PLP.part.metal>
0.0000

> <Gold.PLP.part.buried>
-1.1884

> <Gold.PLP.part.nonpolar>
-38.3453

> <Gold.PLP.part.repulsive>
0.2621

> <Gold.PLP.ligand.clash>
0.0000

> <Gold.PLP.ligand.torsion>
1.0761

> <Gold.PLP.Chemscore.Hbond>
2.9920

> <Gold.PLP.Chemscore.CHOScore>
0.0000

> <Gold.PLP.Chemscore.Metal>
0.0000

> <Gold.Chemscore.Hbonds>
donor molecule, donor type, donor heavy atom, donor atom, acceptor molecule, acceptor atom, score
      L1  H    13    41       P1  8028  2.00
      P1  H  7997  8008       L1     1  0.08

> <Gold.PLP.Chemscore.Internal.Correction>
0.0078

> <Gold.Rescore>
     Score         DG    S(hbond)    S(metal)    S(lipo)     H(rot)  DE(clash)    DE(int)     intcor
     16.53     -19.12       1.89        0.00      90.37       1.27       1.86       0.74       ----

> <Gold.Chemscore.Fitness>
16.5293

> <Gold.Chemscore.DG>
-19.1244

> <Gold.Chemscore.ZeroCoef>
-5.4800

> <Gold.Chemscore.Hbond>
1.8898

> <Gold.Chemscore.Metal>
0.0000

> <Gold.Chemscore.Lipo>
90.3700

> <Gold.Chemscore.Internal_Hbond>
0.0000

> <Gold.Chemscore.DEClash>
1.8552

> <Gold.Chemscore.DEInternal>
0.7398

> <Gold.Chemscore.Rot>
1.2659

> <Gold.Chemscore.Internal.Correction>
   9.000000E+99

> <Gold.Chemscore.Hbonds>
donor molecule, donor type, donor heavy atom, donor atom, acceptor molecule, acceptor atom, score
      L1  H    13    41       P1  8028  0.98
      P1  H  7997  8008       L1     1  0.11

> <Gold.Chemscore.Hbond.Weighted>
-6.3119

> <Gold.Chemscore.Metal.Weighted>
-0.0000

> <Gold.Chemscore.Lipo.Weighted>
-10.5733

> <Gold.Chemscore.Internal_Hbond.Weighted>
0.0000

> <Gold.Chemscore.DEClash.Weighted>
1.8552

> <Gold.Chemscore.DEInternal.Weighted>
0.7398

> <Gold.Chemscore.Rot.Weighted>
3.2408

> <Gold.Chemscore.Internal.Correction.Weighted>
   9.000000E+99

> <Gold.Protein.RotatedTorsions>
[ 6907 6896 6895 6894 ] final   91.73 input  -60.11 | X-H torsion
[ 7974 7965 7964 7962 ] final   12.96 input  175.53 | X-H torsion
[ 8008 7997 7996 7995 ] final -106.65 input   59.86 | X-H torsion
[ 10167 10162 10161 10158 ] final -112.07 input  -65.29 | X-H torsion
[ 10718 10713 10712 10709 ] final -113.18 input   66.30 | X-H torsion
[ 10763 10752 10751 10750 ] final  120.65 input  -60.55 | X-H torsion
[ 11005 11000 10999 10996 ] final   43.68 input  -57.11 | X-H torsion

> <Gold.Protein.ActiveResidues>
 VAL166  LYS551  ARG553  GLY616  TRP617  ASP618  TYR619  PRO620  LYS621  CYS622 
 ASP623  PHE694  ASN695  SER759  ASP760  ASP761  ALA762  ILE779  LEU786  VAL792 
 PHE793  MET794  SER795  GLU796  ALA797  LYS798  CYS799  TRP800  GLU811  SER814 

> <Gold.Protein.RotatedAtoms>
  152.5451  134.1612  159.8558 H   0  0  0  0  0  0  0  0  0  0  0  0  # atno 6907 bound_to 6896
  151.1630  133.4826  159.2601 H   0  0  0  0  0  0  0  0  0  0  0  0  # atno 6908 bound_to 6896
  151.1353  135.0163  159.8656 H   0  0  0  0  0  0  0  0  0  0  0  0  # atno 6909 bound_to 6896
  146.2340  139.9259  142.8503 H   0  0  0  0  0  0  0  0  0  0  0  0  # atno 7974 bound_to 7965
  154.9177  140.0408  157.1981 H   0  0  0  0  0  0  0  0  0  0  0  0  # atno 8008 bound_to 7997
  154.8285  140.2895  155.5717 H   0  0  0  0  0  0  0  0  0  0  0  0  # atno 8009 bound_to 7997
  156.2985  140.2505  156.3205 H   0  0  0  0  0  0  0  0  0  0  0  0  # atno 8010 bound_to 7997
  140.1267  143.4396  152.1655 H   0  0  0  0  0  0  0  0  0  0  0  0  # atno 10167 bound_to 10162
  156.0751  130.5959  150.8608 H   0  0  0  0  0  0  0  0  0  0  0  0  # atno 10718 bound_to 10713
  153.6018  135.3446  155.2948 H   0  0  0  0  0  0  0  0  0  0  0  0  # atno 10763 bound_to 10752
  154.8634  135.4229  154.2404 H   0  0  0  0  0  0  0  0  0  0  0  0  # atno 10764 bound_to 10752
  153.3234  135.7039  153.7082 H   0  0  0  0  0  0  0  0  0  0  0  0  # atno 10765 bound_to 10752
  140.1622  134.4327  155.8310 H   0  0  0  0  0  0  0  0  0  0  0  0  # atno 11005 bound_to 11000
  145.2092  140.9888  143.4111 LP  0  0  0  0  0  0  0  0  0  0  0  0  # atno 17320 bound_to 7965
  144.9706  139.3884  143.6311 LP  0  0  0  0  0  0  0  0  0  0  0  0  # atno 17321 bound_to 7965
  139.5540  144.7359  151.4348 LP  0  0  0  0  0  0  0  0  0  0  0  0  # atno 17342 bound_to 10162
  140.6841  143.8015  150.7161 LP  0  0  0  0  0  0  0  0  0  0  0  0  # atno 17343 bound_to 10162
  157.5842  131.0946  150.9223 LP  0  0  0  0  0  0  0  0  0  0  0  0  # atno 17370 bound_to 10713
  156.9413  130.5385  149.5280 LP  0  0  0  0  0  0  0  0  0  0  0  0  # atno 17371 bound_to 10713
  141.2210  133.6918  156.7614 LP  0  0  0  0  0  0  0  0  0  0  0  0  # atno 17394 bound_to 11000
  140.2476  134.8565  157.3636 LP  0  0  0  0  0  0  0  0  0  0  0  0  # atno 17395 bound_to 11000

$$$$
