AV-unprocessed.smi:3260|AV-procd|sdf|12477|dock5
  -GOLD-   2272018373D 1   1.00000     0.00000
 Structure written by MMmdl.
 38 39  0  0  0  0  0  0  0  0  1 V2000
  150.6070  141.8530  156.1875 C   0  0  0  0  0  0  0  0  0  0  0  0
  149.6844  141.1133  155.3530 N   0  0  0  0  0  0  0  0  0  0  0  0
  148.5332  141.5576  154.7392 C   0  0  0  0  0  0  0  0  0  0  0  0
  147.9958  140.4997  154.0610 C   0  0  0  0  0  0  0  0  0  0  0  0
  146.7424  140.4493  153.2328 C   0  0  0  0  0  0  0  0  0  0  0  0
  146.9707  139.7076  151.9057 C   0  0  0  0  0  0  0  0  0  0  0  0
  145.8917  138.7677  151.6250 N   0  0  0  0  0  0  0  0  0  0  0  0
  145.6946  137.6128  152.2756 C   0  0  0  0  0  0  0  0  0  0  0  0
  146.4101  137.2077  153.1921 O   0  0  0  0  0  0  0  0  0  0  0  0
  144.6246  136.9548  151.8083 N   0  0  0  0  0  0  0  0  0  0  0  0
  144.1288  135.6871  152.3317 C   0  0  0  0  0  0  0  0  0  0  0  0
  144.3167  134.5504  151.3138 C   0  0  1  0  0  0  0  0  0  0  0  0
  145.7628  134.0814  151.1739 C   0  0  0  0  0  0  0  0  0  0  0  0
  145.6231  132.6625  150.6457 C   0  0  0  0  0  0  0  0  0  0  0  0
  144.1682  132.2923  150.9506 C   0  0  0  0  0  0  0  0  0  0  0  0
  143.6636  133.3637  151.7359 O   0  0  0  0  0  0  0  0  0  0  0  0
  148.9096  139.4398  154.3253 C   0  0  0  0  0  0  0  0  0  0  0  0
  149.9186  139.8100  155.0970 N   0  0  0  0  0  0  0  0  0  0  0  0
  150.2077  142.8457  156.3975 H   0  0  0  0  0  0  0  0  0  0  0  0
  151.5644  141.9558  155.6762 H   0  0  0  0  0  0  0  0  0  0  0  0
  150.7580  141.3262  157.1304 H   0  0  0  0  0  0  0  0  0  0  0  0
  148.1922  142.5778  154.8364 H   0  0  0  0  0  0  0  0  0  0  0  0
  145.9410  139.9586  153.7861 H   0  0  0  0  0  0  0  0  0  0  0  0
  146.3845  141.4591  153.0279 H   0  0  0  0  0  0  0  0  0  0  0  0
  147.0722  140.4177  151.0829 H   0  0  0  0  0  0  0  0  0  0  0  0
  147.9046  139.1463  151.9473 H   0  0  0  0  0  0  0  0  0  0  0  0
  145.2491  139.0162  150.8873 H   0  0  0  0  0  0  0  0  0  0  0  0
  144.1028  137.3698  151.0505 H   0  0  0  0  0  0  0  0  0  0  0  0
  144.6927  135.4617  153.2371 H   0  0  0  0  0  0  0  0  0  0  0  0
  143.0829  135.7692  152.6332 H   0  0  0  0  0  0  0  0  0  0  0  0
  143.9280  134.8443  150.3366 H   0  0  0  0  0  0  0  0  0  0  0  0
  146.3530  134.7233  150.5194 H   0  0  0  0  0  0  0  0  0  0  0  0
  146.2475  134.0596  152.1511 H   0  0  0  0  0  0  0  0  0  0  0  0
  145.8105  132.6193  149.5723 H   0  0  0  0  0  0  0  0  0  0  0  0
  146.3265  131.9892  151.1365 H   0  0  0  0  0  0  0  0  0  0  0  0
  143.5901  132.2192  150.0282 H   0  0  0  0  0  0  0  0  0  0  0  0
  144.0795  131.3452  151.4832 H   0  0  0  0  0  0  0  0  0  0  0  0
  148.8681  138.4168  153.9808 H   0  0  0  0  0  0  0  0  0  0  0  0
  1  2  1  0  0  0  0
  1 19  1  0  0  0  0
  1 20  1  0  0  0  0
  1 21  1  0  0  0  0
  2 18  1  0  0  0  0
  2  3  1  0  0  0  0
  3  4  2  0  0  0  0
  3 22  1  0  0  0  0
  4  5  1  0  0  0  0
  4 17  1  0  0  0  0
  5  6  1  0  0  0  0
  5 23  1  0  0  0  0
  5 24  1  0  0  0  0
  6  7  1  0  0  0  0
  6 25  1  0  0  0  0
  6 26  1  0  0  0  0
  7  8  1  0  0  0  0
  7 27  1  0  0  0  0
  8  9  2  0  0  0  0
  8 10  1  0  0  0  0
 10 11  1  0  0  0  0
 10 28  1  0  0  0  0
 11 12  1  0  0  0  0
 11 29  1  0  0  0  0
 11 30  1  0  0  0  0
 12 16  1  0  0  0  0
 12 13  1  0  0  0  0
 12 31  1  0  0  0  0
 13 14  1  0  0  0  0
 13 32  1  0  0  0  0
 13 33  1  0  0  0  0
 14 15  1  0  0  0  0
 14 34  1  0  0  0  0
 14 35  1  0  0  0  0
 15 16  1  0  0  0  0
 15 36  1  0  0  0  0
 15 37  1  0  0  0  0
 17 18  2  0  0  0  0
 17 38  1  0  0  0  0
M  END
> <s_m_source_file>
AV-unprocessed.smi

> <i_m_source_file_index>
3260

> <i_lp_mmshare_version>
43012

> <i_f3d_flags>
0

> <s_epik_input>
W0NIM11uMVtjSF1jKFtjSF1uMSlbQ0gyXVtDSDJdW05IXUMoPU8pW05IXVtDSDJdW0NAQEhdMltDSDJdW0NIMl1bQ0gyXU8y

> <s_epik_cmdline>
J2VwaWtfcHl0aG9uJywgJy1waCcsICc3LjAnLCAnLXRuJywgJzgnLCAnLW1hJywgJzIwMCcsICctbWV0YWxfYmluZGluZycsICctaW1hZScsICc8aW5maWxlLm1hZT4nLCAnLW9tYWUnLCAnPG91dGZpbGUubWFlPic=

> <r_lp_tautomer_probability>
1

> <r_epik_Ionization_Penalty>
0.000550106

> <r_epik_Ionization_Penalty_Charging>
0

> <r_epik_Ionization_Penalty_Neutral>
0.000550106

> <r_epik_State_Penalty>
-0

> <r_epik_Charging_Adjusted_Penalty>
0

> <i_epik_Tot_Q>
0

> <i_epik_Tot_abs_Q>
0

> <r_epik_Metal_State_Penalty>
-0

> <b_epik_Metal_Only>
0

> <s_lp_Force_Field>
OPLS_2005

> <r_lp_Energy>
10.8429

> <b_lp_Chiralities_Consistent>
1

> <s_lp_Variant>
AV-unprocessed.smi:3260-2

> <Gold.Version>
5.8.1

> <Gold.Id.Protein>
6NUR|6NUR_protein|mol2

> <Gold.PLP.Fitness>
42.9019

> <Gold.PLP.PLP>
-33.6095

> <Gold.PLP.part.hbond>
-3.0000

> <Gold.PLP.part.metal>
0.0000

> <Gold.PLP.part.buried>
-0.1186

> <Gold.PLP.part.nonpolar>
-31.8546

> <Gold.PLP.part.repulsive>
2.2630

> <Gold.PLP.ligand.clash>
0.0000

> <Gold.PLP.ligand.torsion>
0.6695

> <Gold.PLP.Chemscore.Hbond>
1.9600

> <Gold.PLP.Chemscore.CHOScore>
1.5712

> <Gold.PLP.Chemscore.Metal>
0.0000

> <Gold.Chemscore.Hbonds>
donor molecule, donor type, donor heavy atom, donor atom, acceptor molecule, acceptor atom, score
      L1  H     7    27       P1 10171  1.00
      L1  H    10    28       P1 10171  1.00
      L1  C     3    22       P1  8028  1.00

> <Gold.PLP.Chemscore.Internal.Correction>
0.0377

> <Gold.Rescore>
     Score         DG    S(hbond)    S(metal)    S(lipo)     H(rot)  DE(clash)    DE(int)     intcor
     13.71     -15.89       1.92        0.00      74.82       1.85       1.41       0.76       ----

> <Gold.Chemscore.Fitness>
13.7149

> <Gold.Chemscore.DG>
-15.8894

> <Gold.Chemscore.ZeroCoef>
-5.4800

> <Gold.Chemscore.Hbond>
1.9158

> <Gold.Chemscore.Metal>
0.0000

> <Gold.Chemscore.Lipo>
74.8204

> <Gold.Chemscore.Internal_Hbond>
0.0000

> <Gold.Chemscore.DEClash>
1.4147

> <Gold.Chemscore.DEInternal>
0.7599

> <Gold.Chemscore.Rot>
1.8528

> <Gold.Chemscore.Internal.Correction>
   9.000000E+99

> <Gold.Chemscore.Hbonds>
donor molecule, donor type, donor heavy atom, donor atom, acceptor molecule, acceptor atom, score
      L1  H     7    27       P1 10171  0.96
      L1  H    10    28       P1 10171  0.97

> <Gold.Chemscore.Hbond.Weighted>
-6.3987

> <Gold.Chemscore.Metal.Weighted>
-0.0000

> <Gold.Chemscore.Lipo.Weighted>
-8.7540

> <Gold.Chemscore.Internal_Hbond.Weighted>
0.0000

> <Gold.Chemscore.DEClash.Weighted>
1.4147

> <Gold.Chemscore.DEInternal.Weighted>
0.7599

> <Gold.Chemscore.Rot.Weighted>
4.7433

> <Gold.Chemscore.Internal.Correction.Weighted>
   9.000000E+99

> <Gold.Protein.RotatedTorsions>
[ 6907 6896 6895 6894 ] final  -38.63 input  -60.11 | X-H torsion
[ 7974 7965 7964 7962 ] final   99.05 input  175.53 | X-H torsion
[ 8008 7997 7996 7995 ] final   23.61 input   59.86 | X-H torsion
[ 10167 10162 10161 10158 ] final -139.50 input  -65.29 | X-H torsion
[ 10718 10713 10712 10709 ] final  -39.70 input   66.30 | X-H torsion
[ 10763 10752 10751 10750 ] final   58.18 input  -60.55 | X-H torsion
[ 11005 11000 10999 10996 ] final  144.39 input  -57.11 | X-H torsion

> <Gold.Protein.ActiveResidues>
 VAL166  LYS551  ARG553  GLY616  TRP617  ASP618  TYR619  PRO620  LYS621  CYS622 
 ASP623  PHE694  ASN695  SER759  ASP760  ASP761  ALA762  ILE779  LEU786  VAL792 
 PHE793  MET794  SER795  GLU796  ALA797  LYS798  CYS799  TRP800  GLU811  SER814 

> <Gold.Protein.RotatedAtoms>
  151.0001  134.9315  159.7948 H   0  0  0  0  0  0  0  0  0  0  0  0  # atno 6907 bound_to 6896
  152.5275  134.3166  159.9143 H   0  0  0  0  0  0  0  0  0  0  0  0  # atno 6908 bound_to 6896
  151.3172  133.4014  159.2686 H   0  0  0  0  0  0  0  0  0  0  0  0  # atno 6909 bound_to 6896
  145.4040  139.2343  143.3284 H   0  0  0  0  0  0  0  0  0  0  0  0  # atno 7974 bound_to 7965
  154.9835  140.3105  155.4936 H   0  0  0  0  0  0  0  0  0  0  0  0  # atno 8008 bound_to 7997
  156.2950  140.2262  156.4876 H   0  0  0  0  0  0  0  0  0  0  0  0  # atno 8009 bound_to 7997
  154.7767  140.0448  157.1083 H   0  0  0  0  0  0  0  0  0  0  0  0  # atno 8010 bound_to 7997
  139.8373  143.7367  152.2664 H   0  0  0  0  0  0  0  0  0  0  0  0  # atno 10167 bound_to 10162
  156.2895  130.4226  149.8253 H   0  0  0  0  0  0  0  0  0  0  0  0  # atno 10718 bound_to 10713
  152.9865  135.5616  154.5510 H   0  0  0  0  0  0  0  0  0  0  0  0  # atno 10763 bound_to 10752
  154.4947  135.2794  155.1470 H   0  0  0  0  0  0  0  0  0  0  0  0  # atno 10764 bound_to 10752
  154.2925  135.6323  153.5444 H   0  0  0  0  0  0  0  0  0  0  0  0  # atno 10765 bound_to 10752
  140.0629  134.9195  157.1214 H   0  0  0  0  0  0  0  0  0  0  0  0  # atno 11005 bound_to 11000
  146.2738  140.4742  142.8804 LP  0  0  0  0  0  0  0  0  0  0  0  0  # atno 17320 bound_to 7965
  144.8354  140.6774  143.6264 LP  0  0  0  0  0  0  0  0  0  0  0  0  # atno 17321 bound_to 7965
  139.7594  144.7511  151.0387 LP  0  0  0  0  0  0  0  0  0  0  0  0  # atno 17342 bound_to 10162
  140.7801  143.4769  151.0071 LP  0  0  0  0  0  0  0  0  0  0  0  0  # atno 17343 bound_to 10162
  156.5671  130.8409  151.3346 LP  0  0  0  0  0  0  0  0  0  0  0  0  # atno 17370 bound_to 10713
  157.7338  130.9736  150.1997 LP  0  0  0  0  0  0  0  0  0  0  0  0  # atno 17371 bound_to 10713
  140.3743  134.2356  155.7175 LP  0  0  0  0  0  0  0  0  0  0  0  0  # atno 17394 bound_to 11000
  141.1980  133.8045  157.0600 LP  0  0  0  0  0  0  0  0  0  0  0  0  # atno 17395 bound_to 11000

$$$$
