AV-unprocessed.smi:2489|AV-procd|sdf|9802|dock3
  -GOLD-   2272013433D 1   1.00000     0.00000
 Structure written by MMmdl.
 33 34  0  0  0  0  0  0  0  0  1 V2000
  151.7178  145.1918  159.5660 C   0  0  0  0  0  0  0  0  0  0  0  0
  151.7105  144.1094  160.4860 O   0  0  0  0  0  0  0  0  0  0  0  0
  152.3192  142.9391  160.0946 C   0  0  0  0  0  0  0  0  0  0  0  0
  153.3361  142.2558  160.8906 C   0  0  0  0  0  0  0  0  0  0  0  0
  153.8584  141.1170  160.4116 C   0  0  0  0  0  0  0  0  0  0  0  0
  153.4661  140.5762  159.1957 N   0  0  0  0  0  0  0  0  0  0  0  0
  152.4966  141.1827  158.3771 C   0  0  0  0  0  0  0  0  0  0  0  0
  152.0875  140.7294  157.2279 N   0  0  0  0  0  0  0  0  0  0  0  0
  152.5732  139.5511  156.6675 C   0  0  0  0  0  0  0  0  0  0  0  0
  153.3338  138.7089  157.1534 O   0  0  0  0  0  0  0  0  0  0  0  0
  152.0461  139.3394  155.2412 C   0  0  1  0  0  0  0  0  0  0  0  0
  151.2333  138.0419  155.0907 C   0  0  0  0  0  0  0  0  0  0  0  0
  149.9970  138.4868  154.3363 C   0  0  0  0  0  0  0  0  0  0  0  0
  149.8210  139.9161  154.8342 C   0  0  2  0  0  0  0  0  0  0  0  0
  148.9731  140.8016  153.9155 C   0  0  0  0  0  0  0  0  0  0  0  0
  151.1542  140.4034  154.9033 O   0  0  0  0  0  0  0  0  0  0  0  0
  151.9343  142.4177  158.9062 C   0  0  0  0  0  0  0  0  0  0  0  0
  151.2042  146.0438  160.0112 H   0  0  0  0  0  0  0  0  0  0  0  0
  151.1917  144.9373  158.6449 H   0  0  0  0  0  0  0  0  0  0  0  0
  152.7339  145.5098  159.3286 H   0  0  0  0  0  0  0  0  0  0  0  0
  153.6794  142.6324  161.8422 H   0  0  0  0  0  0  0  0  0  0  0  0
  154.6137  140.5476  160.9329 H   0  0  0  0  0  0  0  0  0  0  0  0
  152.8664  139.3605  154.5216 H   0  0  0  0  0  0  0  0  0  0  0  0
  151.7830  137.2674  154.5556 H   0  0  0  0  0  0  0  0  0  0  0  0
  150.9446  137.6321  156.0602 H   0  0  0  0  0  0  0  0  0  0  0  0
  150.1947  138.4792  153.2635 H   0  0  0  0  0  0  0  0  0  0  0  0
  149.1280  137.8568  154.5288 H   0  0  0  0  0  0  0  0  0  0  0  0
  149.4010  139.9066  155.8413 H   0  0  0  0  0  0  0  0  0  0  0  0
  147.9549  140.4208  153.8342 H   0  0  0  0  0  0  0  0  0  0  0  0
  149.3957  140.8473  152.9114 H   0  0  0  0  0  0  0  0  0  0  0  0
  148.9186  141.8202  154.3002 H   0  0  0  0  0  0  0  0  0  0  0  0
  151.1792  142.9569  158.3523 H   0  0  0  0  0  0  0  0  0  0  0  0
  153.9160  139.7147  158.9199 H   0  0  0  0  0  0  0  0  0  0  0  0
  1  2  1  0  0  0  0
  1 18  1  0  0  0  0
  1 19  1  0  0  0  0
  1 20  1  0  0  0  0
  2  3  1  0  0  0  0
  3 17  2  0  0  0  0
  3  4  1  0  0  0  0
  4  5  2  0  0  0  0
  4 21  1  0  0  0  0
  5  6  1  0  0  0  0
  5 22  1  0  0  0  0
  6  7  1  0  0  0  0
  6 33  1  0  0  0  0
  7  8  2  0  0  0  0
  7 17  1  0  0  0  0
  8  9  1  0  0  0  0
  9 10  2  0  0  0  0
  9 11  1  0  0  0  0
 11 16  1  0  0  0  0
 11 12  1  0  0  0  0
 11 23  1  0  0  0  0
 12 13  1  0  0  0  0
 12 24  1  0  0  0  0
 12 25  1  0  0  0  0
 13 14  1  0  0  0  0
 13 26  1  0  0  0  0
 13 27  1  0  0  0  0
 14 15  1  0  0  0  0
 14 16  1  0  0  0  0
 14 28  1  0  0  0  0
 15 29  1  0  0  0  0
 15 30  1  0  0  0  0
 15 31  1  0  0  0  0
 17 32  1  0  0  0  0
M  END
> <s_m_source_file>
AV-unprocessed.smi

> <i_m_source_file_index>
2489

> <i_lp_mmshare_version>
43012

> <i_f3d_flags>
0

> <s_epik_input>
W0NIM11PYzFbY0hdW2NIXW5jKFtjSF0xKVtOSF1DKD1PKVtDQEBIXTJbQ0gyXVtDSDJdW0NASF0oTzIpW0NIM10=

> <s_epik_cmdline>
J2VwaWtfcHl0aG9uJywgJy1waCcsICc3LjAnLCAnLXRuJywgJzgnLCAnLW1hJywgJzIwMCcsICctbWV0YWxfYmluZGluZycsICctaW1hZScsICc8aW5maWxlLm1hZT4nLCAnLW9tYWUnLCAnPG91dGZpbGUubWFlPic=

> <r_epik_Ionization_Penalty>
0.410206

> <r_epik_Ionization_Penalty_Charging>
0.410206

> <r_epik_Ionization_Penalty_Neutral>
6.57528e-13

> <r_epik_State_Penalty>
1.30987

> <r_epik_Charging_Adjusted_Penalty>
1.72007

> <i_epik_Tot_Q>
0

> <i_epik_Tot_abs_Q>
0

> <r_epik_Metal_State_Penalty>
1.32171

> <b_epik_Metal_Only>
0

> <s_lp_Force_Field>
OPLS_2005

> <r_lp_Energy>
36.1754

> <b_lp_Chiralities_Consistent>
1

> <s_lp_Variant>
AV-unprocessed.smi:2489-8

> <Gold.Version>
5.8.1

> <Gold.Id.Protein>
6NUR|6NUR_protein|mol2

> <Gold.PLP.Fitness>
40.2506

> <Gold.PLP.PLP>
-36.3251

> <Gold.PLP.part.hbond>
-2.0000

> <Gold.PLP.part.metal>
0.0000

> <Gold.PLP.part.buried>
-1.4906

> <Gold.PLP.part.nonpolar>
-31.8314

> <Gold.PLP.part.repulsive>
0.2479

> <Gold.PLP.ligand.clash>
0.0000

> <Gold.PLP.ligand.torsion>
0.0706

> <Gold.PLP.Chemscore.Hbond>
1.3521

> <Gold.PLP.Chemscore.CHOScore>
0.0000

> <Gold.PLP.Chemscore.Metal>
0.0000

> <Gold.Chemscore.Hbonds>
donor molecule, donor type, donor heavy atom, donor atom, acceptor molecule, acceptor atom, score
      P1  H  7989  7998       L1    16  1.00
      P1  H  7997  8009       L1    10  0.32

> <Gold.PLP.Chemscore.Internal.Correction>
0.0106

> <Gold.Rescore>
     Score         DG    S(hbond)    S(metal)    S(lipo)     H(rot)  DE(clash)    DE(int)     intcor
     13.58     -15.70       0.90        0.00      88.41       1.23       0.54       1.58       ----

> <Gold.Chemscore.Fitness>
13.5775

> <Gold.Chemscore.DG>
-15.6982

> <Gold.Chemscore.ZeroCoef>
-5.4800

> <Gold.Chemscore.Hbond>
0.9024

> <Gold.Chemscore.Metal>
0.0000

> <Gold.Chemscore.Lipo>
88.4082

> <Gold.Chemscore.Internal_Hbond>
0.0000

> <Gold.Chemscore.DEClash>
0.5380

> <Gold.Chemscore.DEInternal>
1.5827

> <Gold.Chemscore.Rot>
1.2264

> <Gold.Chemscore.Internal.Correction>
   9.000000E+99

> <Gold.Chemscore.Hbonds>
donor molecule, donor type, donor heavy atom, donor atom, acceptor molecule, acceptor atom, score
      P1  H  7989  7998       L1    16  0.33
      P1  H  7997  8009       L1    10  0.01

> <Gold.Chemscore.Hbond.Weighted>
-3.0140

> <Gold.Chemscore.Metal.Weighted>
-0.0000

> <Gold.Chemscore.Lipo.Weighted>
-10.3438

> <Gold.Chemscore.Internal_Hbond.Weighted>
0.0000

> <Gold.Chemscore.DEClash.Weighted>
0.5380

> <Gold.Chemscore.DEInternal.Weighted>
1.5827

> <Gold.Chemscore.Rot.Weighted>
3.1396

> <Gold.Chemscore.Internal.Correction.Weighted>
   9.000000E+99

> <Gold.Protein.RotatedTorsions>
[ 6907 6896 6895 6894 ] final   76.18 input  -60.11 | X-H torsion
[ 7974 7965 7964 7962 ] final -109.11 input  175.53 | X-H torsion
[ 8008 7997 7996 7995 ] final  145.48 input   59.86 | X-H torsion
[ 10167 10162 10161 10158 ] final  159.43 input  -65.29 | X-H torsion
[ 10718 10713 10712 10709 ] final   83.89 input   66.30 | X-H torsion
[ 10763 10752 10751 10750 ] final -136.51 input  -60.55 | X-H torsion
[ 11005 11000 10999 10996 ] final   13.02 input  -57.11 | X-H torsion

> <Gold.Protein.ActiveResidues>
 VAL166  LYS551  ARG553  GLY616  TRP617  ASP618  TYR619  PRO620  LYS621  CYS622 
 ASP623  PHE694  ASN695  SER759  ASP760  ASP761  ALA762  ILE779  LEU786  VAL792 
 PHE793  MET794  SER795  GLU796  ALA797  LYS798  CYS799  TRP800  GLU811  SER814 

> <Gold.Protein.RotatedAtoms>
  152.5061  134.4007  159.9415 H   0  0  0  0  0  0  0  0  0  0  0  0  # atno 6907 bound_to 6896
  151.3971  133.3763  159.2735 H   0  0  0  0  0  0  0  0  0  0  0  0  # atno 6908 bound_to 6896
  150.9389  134.8820  159.7658 H   0  0  0  0  0  0  0  0  0  0  0  0  # atno 6909 bound_to 6896
  145.1845  140.8986  143.3460 H   0  0  0  0  0  0  0  0  0  0  0  0  # atno 7974 bound_to 7965
  156.2882  140.2208  156.5221 H   0  0  0  0  0  0  0  0  0  0  0  0  # atno 8008 bound_to 7997
  154.7520  140.0479  157.0923 H   0  0  0  0  0  0  0  0  0  0  0  0  # atno 8009 bound_to 7997
  155.0098  140.3111  155.4837 H   0  0  0  0  0  0  0  0  0  0  0  0  # atno 8010 bound_to 7997
  139.4832  144.4731  151.8549 H   0  0  0  0  0  0  0  0  0  0  0  0  # atno 10167 bound_to 10162
  157.6888  131.0110  150.2591 H   0  0  0  0  0  0  0  0  0  0  0  0  # atno 10718 bound_to 10713
  154.8682  135.3670  154.5073 H   0  0  0  0  0  0  0  0  0  0  0  0  # atno 10763 bound_to 10752
  153.5710  135.7020  153.5509 H   0  0  0  0  0  0  0  0  0  0  0  0  # atno 10764 bound_to 10752
  153.3542  135.4064  155.1632 H   0  0  0  0  0  0  0  0  0  0  0  0  # atno 10765 bound_to 10752
  140.4854  134.0893  155.7759 H   0  0  0  0  0  0  0  0  0  0  0  0  # atno 11005 bound_to 11000
  145.0103  139.3516  143.6123 LP  0  0  0  0  0  0  0  0  0  0  0  0  # atno 17320 bound_to 7965
  146.3447  139.9362  142.8747 LP  0  0  0  0  0  0  0  0  0  0  0  0  # atno 17321 bound_to 7965
  140.4201  144.2254  150.5887 LP  0  0  0  0  0  0  0  0  0  0  0  0  # atno 17342 bound_to 10162
  140.4882  143.2356  151.8857 LP  0  0  0  0  0  0  0  0  0  0  0  0  # atno 17343 bound_to 10162
  156.3173  130.3780  149.7606 LP  0  0  0  0  0  0  0  0  0  0  0  0  # atno 17370 bound_to 10713
  156.5188  130.8205  151.3196 LP  0  0  0  0  0  0  0  0  0  0  0  0  # atno 17371 bound_to 10713
  141.1510  133.8968  157.2096 LP  0  0  0  0  0  0  0  0  0  0  0  0  # atno 17394 bound_to 11000
  139.9801  135.0101  156.9728 LP  0  0  0  0  0  0  0  0  0  0  0  0  # atno 17395 bound_to 11000

$$$$
