AV-unprocessed.smi:1592|AV-procd|sdf|6402|dock7
  -GOLD-   22720 7 43D 1   1.00000     0.00000
 Structure written by MMmdl.
 27 28  0  0  0  0  0  0  0  0  1 V2000
  152.8125  139.7297  157.3320 O   0  0  0  0  0  0  0  0  0  0  0  0
  152.0033  140.2971  156.5970 C   0  0  0  0  0  0  0  0  0  0  0  0
  151.4692  141.5088  156.8377 N   0  0  0  0  0  0  0  0  0  0  0  0
  151.7143  142.3859  157.9304 C   0  0  0  0  0  0  0  0  0  0  0  0
  151.8855  141.9516  159.2044 N   0  0  0  0  0  0  0  0  0  0  0  0
  152.1140  142.8489  160.1856 C   0  0  0  0  0  0  0  0  0  0  0  0
  152.1873  144.2347  159.9587 C   0  0  0  0  0  0  0  0  0  0  0  0
  152.0128  144.7002  158.6439 C   0  0  0  0  0  0  0  0  0  0  0  0
  151.7733  143.7675  157.6146 C   0  0  0  0  0  0  0  0  0  0  0  0
  151.6023  144.2145  156.3334 O   0  0  0  0  0  0  0  0  0  0  0  0
  151.5241  139.6071  155.3145 C   0  0  1  0  0  0  0  0  0  0  0  0
  150.5401  138.4461  155.5535 C   0  0  0  0  0  0  0  0  0  0  0  0
  149.2249  138.9704  155.0109 C   0  0  0  0  0  0  0  0  0  0  0  0
  149.6934  139.9359  153.9321 C   0  0  0  0  0  0  0  0  0  0  0  0
  150.8127  140.5658  154.5341 O   0  0  0  0  0  0  0  0  0  0  0  0
  150.8052  141.8478  156.1565 H   0  0  0  0  0  0  0  0  0  0  0  0
  152.2420  142.4494  161.1806 H   0  0  0  0  0  0  0  0  0  0  0  0
  152.3720  144.9210  160.7717 H   0  0  0  0  0  0  0  0  0  0  0  0
  152.0616  145.7578  158.4295 H   0  0  0  0  0  0  0  0  0  0  0  0
  150.7112  144.4665  156.1446 H   0  0  0  0  0  0  0  0  0  0  0  0
  152.3782  139.2467  154.7384 H   0  0  0  0  0  0  0  0  0  0  0  0
  150.8583  137.5737  154.9812 H   0  0  0  0  0  0  0  0  0  0  0  0
  150.4568  138.1363  156.5963 H   0  0  0  0  0  0  0  0  0  0  0  0
  148.5741  138.1838  154.6288 H   0  0  0  0  0  0  0  0  0  0  0  0
  148.6881  139.5132  155.7898 H   0  0  0  0  0  0  0  0  0  0  0  0
  150.0120  139.3989  153.0374 H   0  0  0  0  0  0  0  0  0  0  0  0
  148.9282  140.6590  153.6498 H   0  0  0  0  0  0  0  0  0  0  0  0
  1  2  2  0  0  0  0
  2  3  1  0  0  0  0
  2 11  1  0  0  0  0
  3  4  1  0  0  0  0
  3 16  1  0  0  0  0
  4  9  1  0  0  0  0
  4  5  2  0  0  0  0
  5  6  1  0  0  0  0
  6  7  2  0  0  0  0
  6 17  1  0  0  0  0
  7  8  1  0  0  0  0
  7 18  1  0  0  0  0
  8  9  2  0  0  0  0
  8 19  1  0  0  0  0
  9 10  1  0  0  0  0
 10 20  1  0  0  0  0
 11 15  1  0  0  0  0
 11 12  1  0  0  0  0
 11 21  1  0  0  0  0
 12 13  1  0  0  0  0
 12 22  1  0  0  0  0
 12 23  1  0  0  0  0
 13 14  1  0  0  0  0
 13 24  1  0  0  0  0
 13 25  1  0  0  0  0
 14 15  1  0  0  0  0
 14 26  1  0  0  0  0
 14 27  1  0  0  0  0
M  END
> <s_m_source_file>
AV-unprocessed.smi

> <i_m_source_file_index>
1592

> <i_lp_mmshare_version>
43012

> <i_f3d_flags>
0

> <s_epik_input>
TzFbQ0gyXVtDSDJdW0NIMl1bQ0BIXTFDKD1PKVtOSF1jMm5bY0hdW2NIXVtjSF1jMltPSF0=

> <s_epik_cmdline>
J2VwaWtfcHl0aG9uJywgJy1waCcsICc3LjAnLCAnLXRuJywgJzgnLCAnLW1hJywgJzIwMCcsICctbWV0YWxfYmluZGluZycsICctaW1hZScsICc8aW5maWxlLm1hZT4nLCAnLW9tYWUnLCAnPG91dGZpbGUubWFlPic=

> <r_lp_tautomer_probability>
0.43658

> <r_epik_Ionization_Penalty>
0.0209102

> <r_epik_Ionization_Penalty_Charging>
0

> <r_epik_Ionization_Penalty_Neutral>
0.0209102

> <r_epik_State_Penalty>
0.412899

> <r_epik_Charging_Adjusted_Penalty>
0.412899

> <i_epik_Tot_Q>
0

> <i_epik_Tot_abs_Q>
0

> <r_epik_Metal_State_Penalty>
0.372161

> <b_epik_Metal_Only>
0

> <s_lp_Force_Field>
OPLS_2005

> <r_lp_Energy>
20.3979

> <b_lp_Chiralities_Consistent>
1

> <s_lp_Variant>
AV-unprocessed.smi:1592-2

> <Gold.Version>
5.8.1

> <Gold.Id.Protein>
6NUR|6NUR_protein|mol2

> <Gold.PLP.Fitness>
38.6875

> <Gold.PLP.PLP>
-30.8388

> <Gold.PLP.part.hbond>
-3.0000

> <Gold.PLP.part.metal>
0.0000

> <Gold.PLP.part.buried>
-3.4552

> <Gold.PLP.part.nonpolar>
-24.4355

> <Gold.PLP.part.repulsive>
0.1794

> <Gold.PLP.ligand.clash>
0.0000

> <Gold.PLP.ligand.torsion>
0.5793

> <Gold.PLP.Chemscore.Hbond>
3.0000

> <Gold.PLP.Chemscore.CHOScore>
0.0000

> <Gold.PLP.Chemscore.Metal>
0.0000

> <Gold.Chemscore.Hbonds>
donor molecule, donor type, donor heavy atom, donor atom, acceptor molecule, acceptor atom, score
      L1  H    10    20       P1  8028  1.00
      P1  H  7989  7998       L1    15  0.55
      P1  H  7997  8008       L1     1  1.00

> <Gold.PLP.Chemscore.Internal.Correction>
0.0074

> <Gold.Rescore>
     Score         DG    S(hbond)    S(metal)    S(lipo)     H(rot)  DE(clash)    DE(int)     intcor
     16.16     -16.63       1.99        0.00      70.69       1.47       0.03       0.44       ----

> <Gold.Chemscore.Fitness>
16.1588

> <Gold.Chemscore.DG>
-16.6272

> <Gold.Chemscore.ZeroCoef>
-5.4800

> <Gold.Chemscore.Hbond>
1.9913

> <Gold.Chemscore.Metal>
0.0000

> <Gold.Chemscore.Lipo>
70.6851

> <Gold.Chemscore.Internal_Hbond>
0.0000

> <Gold.Chemscore.DEClash>
0.0297

> <Gold.Chemscore.DEInternal>
0.4386

> <Gold.Chemscore.Rot>
1.4742

> <Gold.Chemscore.Internal.Correction>
   9.000000E+99

> <Gold.Chemscore.Hbonds>
donor molecule, donor type, donor heavy atom, donor atom, acceptor molecule, acceptor atom, score
      L1  H    10    20       P1  8028  1.00
      P1  H  7989  7998       L1    15  0.15
      P1  H  7997  8008       L1     1  0.39

> <Gold.Chemscore.Hbond.Weighted>
-6.6509

> <Gold.Chemscore.Metal.Weighted>
-0.0000

> <Gold.Chemscore.Lipo.Weighted>
-8.2702

> <Gold.Chemscore.Internal_Hbond.Weighted>
0.0000

> <Gold.Chemscore.DEClash.Weighted>
0.0297

> <Gold.Chemscore.DEInternal.Weighted>
0.4386

> <Gold.Chemscore.Rot.Weighted>
3.7739

> <Gold.Chemscore.Internal.Correction.Weighted>
   9.000000E+99

> <Gold.Protein.RotatedTorsions>
[ 6907 6896 6895 6894 ] final -170.92 input  -60.11 | X-H torsion
[ 7974 7965 7964 7962 ] final   88.93 input  175.53 | X-H torsion
[ 8008 7997 7996 7995 ] final  -55.17 input   59.86 | X-H torsion
[ 10167 10162 10161 10158 ] final -177.09 input  -65.29 | X-H torsion
[ 10718 10713 10712 10709 ] final   58.15 input   66.30 | X-H torsion
[ 10763 10752 10751 10750 ] final  -75.67 input  -60.55 | X-H torsion
[ 11005 11000 10999 10996 ] final  114.27 input  -57.11 | X-H torsion

> <Gold.Protein.ActiveResidues>
 VAL166  LYS551  ARG553  GLY616  TRP617  ASP618  TYR619  PRO620  LYS621  CYS622 
 ASP623  PHE694  ASN695  SER759  ASP760  ASP761  ALA762  ILE779  LEU786  VAL792 
 PHE793  MET794  SER795  GLU796  ALA797  LYS798  CYS799  TRP800  GLU811  SER814 

> <Gold.Protein.RotatedAtoms>
  151.5155  133.3476  159.2892 H   0  0  0  0  0  0  0  0  0  0  0  0  # atno 6907 bound_to 6896
  150.8685  134.8056  159.7148 H   0  0  0  0  0  0  0  0  0  0  0  0  # atno 6908 bound_to 6896
  152.4681  134.5035  159.9784 H   0  0  0  0  0  0  0  0  0  0  0  0  # atno 6909 bound_to 6896
  145.5391  139.2287  143.2575 H   0  0  0  0  0  0  0  0  0  0  0  0  # atno 7974 bound_to 7965
  154.4186  140.1159  156.5434 H   0  0  0  0  0  0  0  0  0  0  0  0  # atno 8008 bound_to 7997
  155.6484  140.3496  155.4720 H   0  0  0  0  0  0  0  0  0  0  0  0  # atno 8009 bound_to 7997
  155.9813  140.1161  157.0714 H   0  0  0  0  0  0  0  0  0  0  0  0  # atno 8010 bound_to 7997
  139.5497  144.2142  152.1054 H   0  0  0  0  0  0  0  0  0  0  0  0  # atno 10167 bound_to 10162
  157.5573  130.8809  149.9056 H   0  0  0  0  0  0  0  0  0  0  0  0  # atno 10718 bound_to 10713
  154.4896  135.5823  153.6449 H   0  0  0  0  0  0  0  0  0  0  0  0  # atno 10763 bound_to 10752
  152.9860  135.6109  154.3142 H   0  0  0  0  0  0  0  0  0  0  0  0  # atno 10764 bound_to 10752
  154.3040  135.2846  155.2577 H   0  0  0  0  0  0  0  0  0  0  0  0  # atno 10765 bound_to 10752
  139.8976  134.9565  156.6867 H   0  0  0  0  0  0  0  0  0  0  0  0  # atno 11005 bound_to 11000
  146.1993  140.6211  142.9110 LP  0  0  0  0  0  0  0  0  0  0  0  0  # atno 17320 bound_to 7965
  144.7586  140.5367  143.6751 LP  0  0  0  0  0  0  0  0  0  0  0  0  # atno 17321 bound_to 7965
  140.1635  144.5004  150.6619 LP  0  0  0  0  0  0  0  0  0  0  0  0  # atno 17342 bound_to 10162
  140.6756  143.2304  151.5515 LP  0  0  0  0  0  0  0  0  0  0  0  0  # atno 17343 bound_to 10162
  156.0630  130.3697  150.0940 LP  0  0  0  0  0  0  0  0  0  0  0  0  # atno 17370 bound_to 10713
  156.9107  130.9651  151.3563 LP  0  0  0  0  0  0  0  0  0  0  0  0  # atno 17371 bound_to 10713
  140.7257  133.9102  155.8177 LP  0  0  0  0  0  0  0  0  0  0  0  0  # atno 17394 bound_to 11000
  141.0193  134.0912  157.4138 LP  0  0  0  0  0  0  0  0  0  0  0  0  # atno 17395 bound_to 11000

$$$$
