AV-unprocessed.smi:3348|AV-procd|sdf|12921|dock6
  -GOLD-   2272019343D 1   1.00000     0.00000
 Structure written by MMmdl.
 47 48  0  0  0  0  0  0  0  0  2 V2000
  144.2468  135.7303  152.7173 C   0  0  0  0  0  0  0  0  0  0  0  0
  145.3730  135.6541  151.6736 C   0  0  2  0  0  0  0  0  0  0  0  0
  145.9632  134.2320  151.6066 C   0  0  0  0  0  0  0  0  0  0  0  0
  145.1338  133.3260  150.8316 N   0  0  0  0  0  0  0  0  0  0  0  0
  145.5309  132.2655  150.0443 C   0  0  0  0  0  0  0  0  0  0  0  0
  144.4023  131.7052  149.5186 C   0  0  0  0  0  0  0  0  0  0  0  0
  143.3498  132.5033  150.0478 C   0  0  0  0  0  0  0  0  0  0  0  0
  143.7905  133.4710  150.8361 N   0  0  0  0  0  0  0  0  0  0  0  0
  146.4371  136.6369  151.9803 N   0  3  0  0  0  0  0  0  0  0  0  0
  146.4818  137.8152  151.0901 C   0  0  0  0  0  0  0  0  0  0  0  0
  146.6279  139.1064  151.9010 C   0  0  0  0  0  0  0  0  0  0  0  0
  147.5069  138.8564  152.9876 O   0  0  0  0  0  0  0  0  0  0  0  0
  148.1325  140.0170  153.5221 C   0  0  1  0  0  0  0  0  0  0  0  0
  147.0752  140.9117  154.2042 C   0  0  0  0  0  0  0  0  0  0  0  0
  147.7220  142.1101  154.9139 C   0  0  0  0  0  0  0  0  0  0  0  0
  148.7786  141.6463  155.9257 C   0  0  0  0  0  0  0  0  0  0  0  0
  149.8381  140.7625  155.2506 C   0  0  0  0  0  0  0  0  0  0  0  0
  149.2031  139.5527  154.5359 C   0  0  2  0  0  0  0  0  0  0  0  0
  150.2859  138.6904  153.8665 C   0  0  0  0  0  0  0  0  0  0  0  0
  143.4618  135.0061  152.4981 H   0  0  0  0  0  0  0  0  0  0  0  0
  143.7786  136.7142  152.7369 H   0  0  0  0  0  0  0  0  0  0  0  0
  144.6205  135.5189  153.7198 H   0  0  0  0  0  0  0  0  0  0  0  0
  144.9531  135.8888  150.6940 H   0  0  0  0  0  0  0  0  0  0  0  0
  146.9692  134.2465  151.1836 H   0  0  0  0  0  0  0  0  0  0  0  0
  146.0562  133.8177  152.6115 H   0  0  0  0  0  0  0  0  0  0  0  0
  146.5713  132.0004  149.9250 H   0  0  0  0  0  0  0  0  0  0  0  0
  144.3381  130.8554  148.8551 H   0  0  0  0  0  0  0  0  0  0  0  0
  142.2865  132.4075  149.8845 H   0  0  0  0  0  0  0  0  0  0  0  0
  146.3318  136.9454  152.9366 H   0  0  0  0  0  0  0  0  0  0  0  0
  147.3326  137.7114  150.4160 H   0  0  0  0  0  0  0  0  0  0  0  0
  145.5856  137.8651  150.4719 H   0  0  0  0  0  0  0  0  0  0  0  0
  147.0087  139.9113  151.2700 H   0  0  0  0  0  0  0  0  0  0  0  0
  145.6497  139.4140  152.2700 H   0  0  0  0  0  0  0  0  0  0  0  0
  148.6299  140.5773  152.7279 H   0  0  0  0  0  0  0  0  0  0  0  0
  146.3515  141.2776  153.4764 H   0  0  0  0  0  0  0  0  0  0  0  0
  146.5115  140.3230  154.9294 H   0  0  0  0  0  0  0  0  0  0  0  0
  148.1836  142.7675  154.1761 H   0  0  0  0  0  0  0  0  0  0  0  0
  146.9573  142.7000  155.4199 H   0  0  0  0  0  0  0  0  0  0  0  0
  149.2553  142.5104  156.3892 H   0  0  0  0  0  0  0  0  0  0  0  0
  148.2963  141.0901  156.7304 H   0  0  0  0  0  0  0  0  0  0  0  0
  150.4038  141.3594  154.5337 H   0  0  0  0  0  0  0  0  0  0  0  0
  150.5541  140.4202  155.9987 H   0  0  0  0  0  0  0  0  0  0  0  0
  148.7113  138.9391  155.2926 H   0  0  0  0  0  0  0  0  0  0  0  0
  150.8038  139.2432  153.0824 H   0  0  0  0  0  0  0  0  0  0  0  0
  149.8596  137.7938  153.4161 H   0  0  0  0  0  0  0  0  0  0  0  0
  151.0319  138.3662  154.5926 H   0  0  0  0  0  0  0  0  0  0  0  0
  147.3249  136.1611  151.8958 H   0  0  0  0  0  0  0  0  0  0  0  0
  1  2  1  0  0  0  0
  1 20  1  0  0  0  0
  1 21  1  0  0  0  0
  1 22  1  0  0  0  0
  2  3  1  0  0  0  0
  2  9  1  0  0  0  0
  2 23  1  0  0  0  0
  3  4  1  0  0  0  0
  3 24  1  0  0  0  0
  3 25  1  0  0  0  0
  4  8  1  0  0  0  0
  4  5  1  0  0  0  0
  5  6  2  0  0  0  0
  5 26  1  0  0  0  0
  6  7  1  0  0  0  0
  6 27  1  0  0  0  0
  7  8  2  0  0  0  0
  7 28  1  0  0  0  0
  9 10  1  0  0  0  0
  9 29  1  0  0  0  0
  9 47  1  0  0  0  0
 10 11  1  0  0  0  0
 10 30  1  0  0  0  0
 10 31  1  0  0  0  0
 11 12  1  0  0  0  0
 11 32  1  0  0  0  0
 11 33  1  0  0  0  0
 12 13  1  0  0  0  0
 13 18  1  0  0  0  0
 13 14  1  0  0  0  0
 13 34  1  0  0  0  0
 14 15  1  0  0  0  0
 14 35  1  0  0  0  0
 14 36  1  0  0  0  0
 15 16  1  0  0  0  0
 15 37  1  0  0  0  0
 15 38  1  0  0  0  0
 16 17  1  0  0  0  0
 16 39  1  0  0  0  0
 16 40  1  0  0  0  0
 17 18  1  0  0  0  0
 17 41  1  0  0  0  0
 17 42  1  0  0  0  0
 18 19  1  0  0  0  0
 18 43  1  0  0  0  0
 19 44  1  0  0  0  0
 19 45  1  0  0  0  0
 19 46  1  0  0  0  0
M  CHG  1   9   1
M  END
> <s_m_source_file>
AV-unprocessed.smi

> <i_m_source_file_index>
3348

> <i_lp_mmshare_version>
43012

> <i_f3d_flags>
0

> <s_epik_input>
bjFbY0hdW2NIXVtjSF1uMVtDSDJdW0NAQEhdKFtDSDNdKVtOSF1bQ0gyXVtDSDJdT1tDQEBIXTJbQ0gyXVtDSDJdW0NIMl1bQ0gyXVtDQEhdMltDSDNd

> <s_epik_cmdline>
J2VwaWtfcHl0aG9uJywgJy1waCcsICc3LjAnLCAnLXRuJywgJzgnLCAnLW1hJywgJzIwMCcsICctbWV0YWxfYmluZGluZycsICctaW1hZScsICc8aW5maWxlLm1hZT4nLCAnLW9tYWUnLCAnPG91dGZpbGUubWFlPic=

> <r_lp_tautomer_probability>
1

> <r_epik_Ionization_Penalty>
0.00925088

> <r_epik_Ionization_Penalty_Charging>
0.00924645

> <r_epik_Ionization_Penalty_Neutral>
4.42413e-06

> <r_epik_State_Penalty>
0.0070118

> <r_epik_Charging_Adjusted_Penalty>
0.0162583

> <i_epik_Tot_Q>
1

> <i_epik_Tot_abs_Q>
1

> <r_epik_Metal_State_Penalty>
0.00701222

> <b_epik_Metal_Only>
0

> <s_lp_Force_Field>
OPLS_2005

> <r_lp_Energy>
15.6253

> <b_lp_Chiralities_Consistent>
1

> <s_lp_Variant>
AV-unprocessed.smi:3348-7

> <Gold.Version>
5.8.1

> <Gold.Id.Protein>
6NUR|6NUR_protein|mol2

> <Gold.PLP.Fitness>
40.3336

> <Gold.PLP.PLP>
-29.6551

> <Gold.PLP.part.hbond>
-1.0000

> <Gold.PLP.part.metal>
0.0000

> <Gold.PLP.part.buried>
6.0684

> <Gold.PLP.part.nonpolar>
-36.5578

> <Gold.PLP.part.repulsive>
0.4804

> <Gold.PLP.ligand.clash>
0.0000

> <Gold.PLP.ligand.torsion>
1.8237

> <Gold.PLP.Chemscore.Hbond>
2.0000

> <Gold.PLP.Chemscore.CHOScore>
2.7368

> <Gold.PLP.Chemscore.Metal>
0.0000

> <Gold.Chemscore.Hbonds>
donor molecule, donor type, donor heavy atom, donor atom, acceptor molecule, acceptor atom, score
      L1  H     9    47       P1  7948  1.98
      L1  C     5    26       P1 10747  0.64
      L1  C     7    28       P1 10186  0.78
      L1  C     7    28       P1 10952  0.99

> <Gold.PLP.Chemscore.Internal.Correction>
0.1154

> <Gold.Rescore>
     Score         DG    S(hbond)    S(metal)    S(lipo)     H(rot)  DE(clash)    DE(int)     intcor
     12.88     -16.37       0.99        0.00     104.72       1.82       1.38       2.11       ----

> <Gold.Chemscore.Fitness>
12.8800

> <Gold.Chemscore.DG>
-16.3727

> <Gold.Chemscore.ZeroCoef>
-5.4800

> <Gold.Chemscore.Hbond>
0.9852

> <Gold.Chemscore.Metal>
0.0000

> <Gold.Chemscore.Lipo>
104.7166

> <Gold.Chemscore.Internal_Hbond>
0.0000

> <Gold.Chemscore.DEClash>
1.3809

> <Gold.Chemscore.DEInternal>
2.1117

> <Gold.Chemscore.Rot>
1.8163

> <Gold.Chemscore.Internal.Correction>
   9.000000E+99

> <Gold.Chemscore.Hbonds>
donor molecule, donor type, donor heavy atom, donor atom, acceptor molecule, acceptor atom, score
      L1  H     9    47       P1  7948  0.93

> <Gold.Chemscore.Hbond.Weighted>
-3.2906

> <Gold.Chemscore.Metal.Weighted>
-0.0000

> <Gold.Chemscore.Lipo.Weighted>
-12.2518

> <Gold.Chemscore.Internal_Hbond.Weighted>
0.0000

> <Gold.Chemscore.DEClash.Weighted>
1.3809

> <Gold.Chemscore.DEInternal.Weighted>
2.1117

> <Gold.Chemscore.Rot.Weighted>
4.6497

> <Gold.Chemscore.Internal.Correction.Weighted>
   9.000000E+99

> <Gold.Protein.RotatedTorsions>
[ 6907 6896 6895 6894 ] final  -73.33 input  -60.11 | X-H torsion
[ 7974 7965 7964 7962 ] final   -9.64 input  175.53 | X-H torsion
[ 8008 7997 7996 7995 ] final  -26.79 input   59.86 | X-H torsion
[ 10167 10162 10161 10158 ] final -108.24 input  -65.29 | X-H torsion
[ 10718 10713 10712 10709 ] final   30.95 input   66.30 | X-H torsion
[ 10763 10752 10751 10750 ] final -173.55 input  -60.55 | X-H torsion
[ 11005 11000 10999 10996 ] final   63.97 input  -57.11 | X-H torsion

> <Gold.Protein.ActiveResidues>
 VAL166  LYS551  ARG553  GLY616  TRP617  ASP618  TYR619  PRO620  LYS621  CYS622 
 ASP623  PHE694  ASN695  SER759  ASP760  ASP761  ALA762  ILE779  LEU786  VAL792 
 PHE793  MET794  SER795  GLU796  ALA797  LYS798  CYS799  TRP800  GLU811  SER814 

> <Gold.Protein.RotatedAtoms>
  150.7134  134.5032  159.5571 H   0  0  0  0  0  0  0  0  0  0  0  0  # atno 6907 bound_to 6896
  152.2625  134.8016  160.0437 H   0  0  0  0  0  0  0  0  0  0  0  0  # atno 6908 bound_to 6896
  151.8725  133.3443  159.3776 H   0  0  0  0  0  0  0  0  0  0  0  0  # atno 6909 bound_to 6896
  146.2245  140.2647  142.8353 H   0  0  0  0  0  0  0  0  0  0  0  0  # atno 7974 bound_to 7965
  154.4408  140.1890  156.0831 H   0  0  0  0  0  0  0  0  0  0  0  0  # atno 8008 bound_to 7997
  156.0423  140.3318  155.7231 H   0  0  0  0  0  0  0  0  0  0  0  0  # atno 8009 bound_to 7997
  155.5681  140.0610  157.2804 H   0  0  0  0  0  0  0  0  0  0  0  0  # atno 8010 bound_to 7997
  140.1683  143.4063  152.1373 H   0  0  0  0  0  0  0  0  0  0  0  0  # atno 10167 bound_to 10162
  157.2662  130.7185  149.6480 H   0  0  0  0  0  0  0  0  0  0  0  0  # atno 10718 bound_to 10713
  154.6065  135.2860  155.0479 H   0  0  0  0  0  0  0  0  0  0  0  0  # atno 10763 bound_to 10752
  154.1724  135.6470  153.5017 H   0  0  0  0  0  0  0  0  0  0  0  0  # atno 10764 bound_to 10752
  153.0177  135.5404  154.6803 H   0  0  0  0  0  0  0  0  0  0  0  0  # atno 10765 bound_to 10752
  139.9989  134.6473  155.9963 H   0  0  0  0  0  0  0  0  0  0  0  0  # atno 11005 bound_to 11000
  144.9313  140.7978  143.5687 LP  0  0  0  0  0  0  0  0  0  0  0  0  # atno 17320 bound_to 7965
  145.2591  139.2000  143.4902 LP  0  0  0  0  0  0  0  0  0  0  0  0  # atno 17321 bound_to 7965
  139.5349  144.7199  151.4927 LP  0  0  0  0  0  0  0  0  0  0  0  0  # atno 17342 bound_to 10162
  140.6598  143.8522  150.6875 LP  0  0  0  0  0  0  0  0  0  0  0  0  # atno 17343 bound_to 10162
  155.9663  130.4382  150.5207 LP  0  0  0  0  0  0  0  0  0  0  0  0  # atno 17370 bound_to 10713
  157.3122  131.0666  151.1993 LP  0  0  0  0  0  0  0  0  0  0  0  0  # atno 17371 bound_to 10713
  141.1626  133.6538  156.4371 LP  0  0  0  0  0  0  0  0  0  0  0  0  # atno 17394 bound_to 11000
  140.4765  134.6704  157.5152 LP  0  0  0  0  0  0  0  0  0  0  0  0  # atno 17395 bound_to 11000

$$$$
