AV-unprocessed.smi:581|AV-procd|sdf|2992|dock3
  -GOLD-   2262023493D 1   1.00000     0.00000
 Structure written by MMmdl.
 35 36  0  0  0  0  0  0  0  0  2 V2000
  148.1009  139.5440  158.2932 C   0  0  0  0  0  0  0  0  0  0  0  0
  149.5064  139.3885  158.8483 C   0  0  0  0  0  0  0  0  0  0  0  0
  150.0736  140.5690  159.2913 N   0  0  0  0  0  0  0  0  0  0  0  0
  151.3612  140.5506  159.8103 C   0  0  0  0  0  0  0  0  0  0  0  0
  151.8227  141.7918  160.2432 N   0  0  0  0  0  0  0  0  0  0  0  0
  153.1055  141.8944  160.9369 C   0  0  0  0  0  0  0  0  0  0  0  0
  153.2054  143.2079  161.7304 C   0  0  0  0  0  0  0  0  0  0  0  0
  152.9875  144.3104  160.8594 O   0  0  0  0  0  0  0  0  0  0  0  0
  151.6930  144.2636  160.2738 C   0  0  0  0  0  0  0  0  0  0  0  0
  151.5478  142.9807  159.4378 C   0  0  0  0  0  0  0  0  0  0  0  0
  152.0775  139.4678  159.8961 N   0  0  0  0  0  0  0  0  0  0  0  0
  151.5627  138.2398  159.4539 C   0  0  0  0  0  0  0  0  0  0  0  0
  152.2536  137.2240  159.5141 O   0  0  0  0  0  0  0  0  0  0  0  0
  150.1833  138.2162  158.9170 C   0  0  0  0  0  0  0  0  0  0  0  0
  149.6004  136.8883  158.4222 C   0  0  0  0  0  0  0  0  0  0  0  0
  149.3375  135.8432  159.5302 C   0  0  0  0  0  0  0  0  0  0  0  0
  148.6734  136.4514  160.7677 C   0  0  0  0  0  0  0  0  0  0  0  0
  147.5874  137.0475  160.5966 O   0  0  0  0  0  0  0  0  0  0  0  0
  149.2635  136.3086  161.8606 O   0  5  0  0  0  0  0  0  0  0  0  0
  149.5194  141.4102  159.2317 H   0  0  0  0  0  0  0  0  0  0  0  0
  147.3804  139.0185  158.9189 H   0  0  0  0  0  0  0  0  0  0  0  0
  148.0395  139.1466  157.2801 H   0  0  0  0  0  0  0  0  0  0  0  0
  147.8008  140.5920  158.2551 H   0  0  0  0  0  0  0  0  0  0  0  0
  153.9116  141.8394  160.2039 H   0  0  0  0  0  0  0  0  0  0  0  0
  153.2342  141.0509  161.6170 H   0  0  0  0  0  0  0  0  0  0  0  0
  152.4812  143.2251  162.5467 H   0  0  0  0  0  0  0  0  0  0  0  0
  154.1941  143.3007  162.1799 H   0  0  0  0  0  0  0  0  0  0  0  0
  150.9268  144.3103  161.0493 H   0  0  0  0  0  0  0  0  0  0  0  0
  151.5587  145.1409  159.6410 H   0  0  0  0  0  0  0  0  0  0  0  0
  150.5449  142.9416  159.0113 H   0  0  0  0  0  0  0  0  0  0  0  0
  152.2446  143.0040  158.5988 H   0  0  0  0  0  0  0  0  0  0  0  0
  150.2396  136.4510  157.6543 H   0  0  0  0  0  0  0  0  0  0  0  0
  148.6623  137.0946  157.9078 H   0  0  0  0  0  0  0  0  0  0  0  0
  148.7172  135.0303  159.1544 H   0  0  0  0  0  0  0  0  0  0  0  0
  150.2806  135.3874  159.8329 H   0  0  0  0  0  0  0  0  0  0  0  0
  1 21  1  0  0  0  0
  1 22  1  0  0  0  0
  1 23  1  0  0  0  0
  1  2  1  0  0  0  0
  2 14  2  0  0  0  0
  2  3  1  0  0  0  0
  3 20  1  0  0  0  0
  3  4  1  0  0  0  0
  4  5  1  0  0  0  0
  4 11  2  0  0  0  0
  5 10  1  0  0  0  0
  5  6  1  0  0  0  0
  6  7  1  0  0  0  0
  6 24  1  0  0  0  0
  6 25  1  0  0  0  0
  7  8  1  0  0  0  0
  7 26  1  0  0  0  0
  7 27  1  0  0  0  0
  8  9  1  0  0  0  0
  9 10  1  0  0  0  0
  9 28  1  0  0  0  0
  9 29  1  0  0  0  0
 10 30  1  0  0  0  0
 10 31  1  0  0  0  0
 11 12  1  0  0  0  0
 12 13  2  0  0  0  0
 12 14  1  0  0  0  0
 14 15  1  0  0  0  0
 15 16  1  0  0  0  0
 15 32  1  0  0  0  0
 15 33  1  0  0  0  0
 16 17  1  0  0  0  0
 16 34  1  0  0  0  0
 16 35  1  0  0  0  0
 17 18  2  0  0  0  0
 17 19  1  0  0  0  0
M  CHG  1  19  -1
M  END
> <s_m_source_file>
AV-unprocessed.smi

> <i_m_source_file_index>
581

> <i_lp_mmshare_version>
43012

> <i_f3d_flags>
0

> <s_epik_input>
W0NIMl0xW0NIMl1PW0NIMl1bQ0gyXU4xYyhuYzJbQ0gzXSlbbkhdYyg9TyljMltDSDJdW0NIMl1DKD1PKVtPSF0=

> <s_epik_cmdline>
J2VwaWtfcHl0aG9uJywgJy1waCcsICc3LjAnLCAnLXRuJywgJzgnLCAnLW1hJywgJzIwMCcsICctbWV0YWxfYmluZGluZycsICctaW1hZScsICc8aW5maWxlLm1hZT4nLCAnLW9tYWUnLCAnPG91dGZpbGUubWFlPic=

> <r_lp_tautomer_probability>
0.108306

> <r_epik_Ionization_Penalty>
0.0702858

> <r_epik_Ionization_Penalty_Charging>
0.050334

> <r_epik_Ionization_Penalty_Neutral>
0.0199519

> <r_epik_State_Penalty>
1.38976

> <r_epik_Charging_Adjusted_Penalty>
1.44009

> <i_epik_Tot_Q>
-1

> <i_epik_Tot_abs_Q>
1

> <r_epik_Metal_State_Penalty>
1.61644

> <b_epik_Metal_Only>
0

> <s_lp_Force_Field>
OPLS_2005

> <r_lp_Energy>
27.984

> <b_lp_Chiralities_Consistent>
1

> <s_lp_Variant>
AV-unprocessed.smi:581-2

> <Gold.Version>
5.8.1

> <Gold.Id.Protein>
6NUR|6NUR_protein|mol2

> <Gold.PLP.Fitness>
43.9852

> <Gold.PLP.PLP>
-29.5580

> <Gold.PLP.part.hbond>
-3.2230

> <Gold.PLP.part.metal>
0.0000

> <Gold.PLP.part.buried>
-5.0779

> <Gold.PLP.part.nonpolar>
-22.0480

> <Gold.PLP.part.repulsive>
0.1783

> <Gold.PLP.ligand.clash>
0.0000

> <Gold.PLP.ligand.torsion>
0.4609

> <Gold.PLP.Chemscore.Hbond>
5.0000

> <Gold.PLP.Chemscore.CHOScore>
0.0000

> <Gold.PLP.Chemscore.Metal>
0.0000

> <Gold.Chemscore.Hbonds>
donor molecule, donor type, donor heavy atom, donor atom, acceptor molecule, acceptor atom, score
      P1  H  6896  6907       L1    13  0.20
      P1  H  6931  6943       L1    19  0.30
      P1  H  6934  6947       L1    18  1.95

> <Gold.PLP.Chemscore.Internal.Correction>
0.3490

> <Gold.Rescore>
     Score         DG    S(hbond)    S(metal)    S(lipo)     H(rot)  DE(clash)    DE(int)     intcor
     12.57     -12.93       2.00        0.00      47.98       1.89       0.01       0.35       ----

> <Gold.Chemscore.Fitness>
12.5675

> <Gold.Chemscore.DG>
-12.9268

> <Gold.Chemscore.ZeroCoef>
-5.4800

> <Gold.Chemscore.Hbond>
1.9966

> <Gold.Chemscore.Metal>
0.0000

> <Gold.Chemscore.Lipo>
47.9832

> <Gold.Chemscore.Internal_Hbond>
0.0000

> <Gold.Chemscore.DEClash>
0.0073

> <Gold.Chemscore.DEInternal>
0.3520

> <Gold.Chemscore.Rot>
1.8890

> <Gold.Chemscore.Internal.Correction>
   9.000000E+99

> <Gold.Chemscore.Hbonds>
donor molecule, donor type, donor heavy atom, donor atom, acceptor molecule, acceptor atom, score
      P1  H  6896  6907       L1    13  0.20
      P1  H  6934  6947       L1    18  0.86

> <Gold.Chemscore.Hbond.Weighted>
-6.6685

> <Gold.Chemscore.Metal.Weighted>
-0.0000

> <Gold.Chemscore.Lipo.Weighted>
-5.6140

> <Gold.Chemscore.Internal_Hbond.Weighted>
0.0000

> <Gold.Chemscore.DEClash.Weighted>
0.0073

> <Gold.Chemscore.DEInternal.Weighted>
0.3520

> <Gold.Chemscore.Rot.Weighted>
4.8357

> <Gold.Chemscore.Internal.Correction.Weighted>
   9.000000E+99

> <Gold.Protein.RotatedTorsions>
[ 6907 6896 6895 6894 ] final  -18.72 input  -60.11 | X-H torsion
[ 7974 7965 7964 7962 ] final  147.18 input  175.53 | X-H torsion
[ 8008 7997 7996 7995 ] final  149.06 input   59.86 | X-H torsion
[ 10167 10162 10161 10158 ] final  -66.20 input  -65.29 | X-H torsion
[ 10718 10713 10712 10709 ] final  -40.25 input   66.30 | X-H torsion
[ 10763 10752 10751 10750 ] final -156.35 input  -60.55 | X-H torsion
[ 11005 11000 10999 10996 ] final  105.52 input  -57.11 | X-H torsion

> <Gold.Protein.ActiveResidues>
 VAL166  LYS551  ARG553  GLY616  TRP617  ASP618  TYR619  PRO620  LYS621  CYS622 
 ASP623  PHE694  ASN695  SER759  ASP760  ASP761  ALA762  ILE779  LEU786  VAL792 
 PHE793  MET794  SER795  GLU796  ALA797  LYS798  CYS799  TRP800  GLU811  SER814 

> <Gold.Protein.RotatedAtoms>
  151.2740  135.0693  159.9144 H   0  0  0  0  0  0  0  0  0  0  0  0  # atno 6907 bound_to 6896
  152.5346  134.0101  159.7944 H   0  0  0  0  0  0  0  0  0  0  0  0  # atno 6908 bound_to 6896
  151.0344  133.5712  159.2688 H   0  0  0  0  0  0  0  0  0  0  0  0  # atno 6909 bound_to 6896
  144.8612  139.5997  143.5930 H   0  0  0  0  0  0  0  0  0  0  0  0  # atno 7974 bound_to 7965
  156.2769  140.2112  156.5798 H   0  0  0  0  0  0  0  0  0  0  0  0  # atno 8008 bound_to 7997
  154.7068  140.0516  157.0534 H   0  0  0  0  0  0  0  0  0  0  0  0  # atno 8009 bound_to 7997
  155.0660  140.3171  155.4648 H   0  0  0  0  0  0  0  0  0  0  0  0  # atno 8010 bound_to 7997
  140.5674  143.2315  151.6606 H   0  0  0  0  0  0  0  0  0  0  0  0  # atno 10167 bound_to 10162
  156.2834  130.4220  149.8313 H   0  0  0  0  0  0  0  0  0  0  0  0  # atno 10718 bound_to 10713
  154.7719  135.3148  154.8172 H   0  0  0  0  0  0  0  0  0  0  0  0  # atno 10763 bound_to 10752
  153.8905  135.6826  153.4765 H   0  0  0  0  0  0  0  0  0  0  0  0  # atno 10764 bound_to 10752
  153.1334  135.4770  154.9320 H   0  0  0  0  0  0  0  0  0  0  0  0  # atno 10765 bound_to 10752
  139.8803  134.9338  156.5526 H   0  0  0  0  0  0  0  0  0  0  0  0  # atno 11005 bound_to 11000
  146.2861  139.7009  142.9194 LP  0  0  0  0  0  0  0  0  0  0  0  0  # atno 17320 bound_to 7965
  145.4309  141.0415  143.2911 LP  0  0  0  0  0  0  0  0  0  0  0  0  # atno 17321 bound_to 7965
  139.5100  144.3557  152.0610 LP  0  0  0  0  0  0  0  0  0  0  0  0  # atno 17342 bound_to 10162
  140.2691  144.3984  150.6158 LP  0  0  0  0  0  0  0  0  0  0  0  0  # atno 17343 bound_to 10162
  156.5752  130.8442  151.3368 LP  0  0  0  0  0  0  0  0  0  0  0  0  # atno 17370 bound_to 10713
  157.7321  130.9710  150.1913 LP  0  0  0  0  0  0  0  0  0  0  0  0  # atno 17371 bound_to 10713
  140.8228  133.8340  155.8912 LP  0  0  0  0  0  0  0  0  0  0  0  0  # atno 17394 bound_to 11000
  140.9402  134.1911  157.4803 LP  0  0  0  0  0  0  0  0  0  0  0  0  # atno 17395 bound_to 11000

$$$$
