AV-unprocessed.smi:809|AV-procd|sdf|3806|dock1
  -GOLD-   22720 1243D 1   1.00000     0.00000
 Structure written by MMmdl.
 40 41  0  0  0  0  0  0  0  0  2 V2000
  153.7771  141.3485  160.1906 C   0  0  0  0  0  0  0  0  0  0  0  0
  152.9636  142.3636  159.4513 C   0  0  0  0  0  0  0  0  0  0  0  0
  153.1061  143.7291  159.4954 C   0  0  0  0  0  0  0  0  0  0  0  0
  151.9474  144.5407  158.4762 S   0  0  0  0  0  0  0  0  0  0  0  0
  151.3034  142.9700  158.0245 C   0  0  0  0  0  0  0  0  0  0  0  0
  150.2193  142.8339  157.1182 N   0  0  0  0  0  0  0  0  0  0  0  0
  149.6276  141.7025  156.6976 C   0  0  0  0  0  0  0  0  0  0  0  0
  149.9320  140.5649  157.0580 O   0  0  0  0  0  0  0  0  0  0  0  0
  148.6526  141.9632  155.8148 N   0  0  0  0  0  0  0  0  0  0  0  0
  147.8147  140.9678  155.1480 C   0  0  0  0  0  0  0  0  0  0  0  0
  148.5678  140.1825  154.0410 C   0  0  1  0  0  0  0  0  0  0  0  0
  149.2089  141.1491  153.2304 O   0  0  0  0  0  0  0  0  0  0  0  0
  149.6362  139.1869  154.5506 C   0  0  0  0  0  0  0  0  0  0  0  0
  149.0024  137.9524  155.2159 C   0  0  0  0  0  0  0  0  0  0  0  0
  148.0737  137.2656  154.2850 N   0  3  1  0  0  0  0  0  0  0  0  0
  147.5384  136.0085  154.8505 C   0  0  0  0  0  0  0  0  0  0  0  0
  147.0002  138.1673  153.7986 C   0  0  0  0  0  0  0  0  0  0  0  0
  147.5883  139.4205  153.1217 C   0  0  0  0  0  0  0  0  0  0  0  0
  151.9312  141.9426  158.6081 N   0  0  0  0  0  0  0  0  0  0  0  0
  154.6313  141.8080  160.6884 H   0  0  0  0  0  0  0  0  0  0  0  0
  154.1622  140.5838  159.5157 H   0  0  0  0  0  0  0  0  0  0  0  0
  153.1808  140.8473  160.9533 H   0  0  0  0  0  0  0  0  0  0  0  0
  153.8212  144.3051  160.0637 H   0  0  0  0  0  0  0  0  0  0  0  0
  149.8588  143.6979  156.7405 H   0  0  0  0  0  0  0  0  0  0  0  0
  148.4743  142.9285  155.5779 H   0  0  0  0  0  0  0  0  0  0  0  0
  147.3990  140.2830  155.8870 H   0  0  0  0  0  0  0  0  0  0  0  0
  146.9540  141.4841  154.7205 H   0  0  0  0  0  0  0  0  0  0  0  0
  149.0552  140.9359  152.3227 H   0  0  0  0  0  0  0  0  0  0  0  0
  150.2440  138.8477  153.7101 H   0  0  0  0  0  0  0  0  0  0  0  0
  150.3332  139.6679  155.2369 H   0  0  0  0  0  0  0  0  0  0  0  0
  149.7906  137.2615  155.5177 H   0  0  0  0  0  0  0  0  0  0  0  0
  148.4673  138.2337  156.1226 H   0  0  0  0  0  0  0  0  0  0  0  0
  146.9265  136.2046  155.7320 H   0  0  0  0  0  0  0  0  0  0  0  0
  148.3496  135.3391  155.1390 H   0  0  0  0  0  0  0  0  0  0  0  0
  146.9235  135.4873  154.1160 H   0  0  0  0  0  0  0  0  0  0  0  0
  146.3763  137.6312  153.0824 H   0  0  0  0  0  0  0  0  0  0  0  0
  146.3497  138.4448  154.6287 H   0  0  0  0  0  0  0  0  0  0  0  0
  146.7816  140.0790  152.7962 H   0  0  0  0  0  0  0  0  0  0  0  0
  148.1063  139.1072  152.2137 H   0  0  0  0  0  0  0  0  0  0  0  0
  148.6195  137.0051  153.4761 H   0  0  0  0  0  0  0  0  0  0  0  0
  1  2  1  0  0  0  0
  1 20  1  0  0  0  0
  1 21  1  0  0  0  0
  1 22  1  0  0  0  0
  2 19  1  0  0  0  0
  2  3  2  0  0  0  0
  3  4  1  0  0  0  0
  3 23  1  0  0  0  0
  4  5  1  0  0  0  0
  5  6  1  0  0  0  0
  5 19  2  0  0  0  0
  6  7  1  0  0  0  0
  6 24  1  0  0  0  0
  7  8  2  0  0  0  0
  7  9  1  0  0  0  0
  9 10  1  0  0  0  0
  9 25  1  0  0  0  0
 10 11  1  0  0  0  0
 10 26  1  0  0  0  0
 10 27  1  0  0  0  0
 11 18  1  0  0  0  0
 11 12  1  0  0  0  0
 11 13  1  0  0  0  0
 12 28  1  0  0  0  0
 13 14  1  0  0  0  0
 13 29  1  0  0  0  0
 13 30  1  0  0  0  0
 14 15  1  0  0  0  0
 14 31  1  0  0  0  0
 14 32  1  0  0  0  0
 15 16  1  0  0  0  0
 15 17  1  0  0  0  0
 15 40  1  0  0  0  0
 16 33  1  0  0  0  0
 16 34  1  0  0  0  0
 16 35  1  0  0  0  0
 17 18  1  0  0  0  0
 17 36  1  0  0  0  0
 17 37  1  0  0  0  0
 18 38  1  0  0  0  0
 18 39  1  0  0  0  0
M  CHG  1  15   1
M  END
> <s_m_source_file>
AV-unprocessed.smi

> <i_m_source_file_index>
809

> <i_lp_mmshare_version>
43012

> <i_f3d_flags>
0

> <s_epik_input>
W0NIM11jMVtjSF1zYyhuMSlbTkhdQyg9TylbTkhdW0NIMl1DMihbT0hdKVtDSDJdW0NIMl1OKFtDSDNdKVtDSDJdW0NIMl0y

> <s_epik_cmdline>
J2VwaWtfcHl0aG9uJywgJy1waCcsICc3LjAnLCAnLXRuJywgJzgnLCAnLW1hJywgJzIwMCcsICctbWV0YWxfYmluZGluZycsICctaW1hZScsICc8aW5maWxlLm1hZT4nLCAnLW9tYWUnLCAnPG91dGZpbGUubWFlPic=

> <r_lp_tautomer_probability>
0.999

> <r_epik_Ionization_Penalty>
0.00116503

> <r_epik_Ionization_Penalty_Charging>
0.000767707

> <r_epik_Ionization_Penalty_Neutral>
0.00039732

> <r_epik_State_Penalty>
0.000177984

> <r_epik_Charging_Adjusted_Penalty>
0.00094569

> <i_epik_Tot_Q>
1

> <i_epik_Tot_abs_Q>
1

> <r_epik_Metal_State_Penalty>
0.00775393

> <b_epik_Metal_Only>
0

> <s_lp_Force_Field>
OPLS_2005

> <r_lp_Energy>
16.2661

> <b_lp_Chiralities_Consistent>
1

> <s_lp_Variant>
AV-unprocessed.smi:809-2

> <Gold.Version>
5.8.1

> <Gold.Id.Protein>
6NUR|6NUR_protein|mol2

> <Gold.PLP.Fitness>
49.7156

> <Gold.PLP.PLP>
-34.9829

> <Gold.PLP.part.hbond>
-5.5573

> <Gold.PLP.part.metal>
0.0000

> <Gold.PLP.part.buried>
-2.4061

> <Gold.PLP.part.nonpolar>
-27.3409

> <Gold.PLP.part.repulsive>
0.1161

> <Gold.PLP.ligand.clash>
0.0000

> <Gold.PLP.ligand.torsion>
0.1919

> <Gold.PLP.Chemscore.Hbond>
5.0296

> <Gold.PLP.Chemscore.CHOScore>
0.0000

> <Gold.PLP.Chemscore.Metal>
0.0000

> <Gold.Chemscore.Hbonds>
donor molecule, donor type, donor heavy atom, donor atom, acceptor molecule, acceptor atom, score
      L1  H     6    24       P1  8028  1.00
      L1  H     9    25       P1  8028  1.00
      L1  H    12    28       P1  7957  0.85
      L1  H    15    40       P1  7948  2.00
      P1  H  7989  7998       L1    12  0.01

> <Gold.PLP.Chemscore.Internal.Correction>
0.0275

> <Gold.Rescore>
     Score         DG    S(hbond)    S(metal)    S(lipo)     H(rot)  DE(clash)    DE(int)     intcor
     20.12     -22.75       3.85        0.00      78.00       1.85       1.05       1.57       ----

> <Gold.Chemscore.Fitness>
20.1235

> <Gold.Chemscore.DG>
-22.7483

> <Gold.Chemscore.ZeroCoef>
-5.4800

> <Gold.Chemscore.Hbond>
3.8536

> <Gold.Chemscore.Metal>
0.0000

> <Gold.Chemscore.Lipo>
78.0000

> <Gold.Chemscore.Internal_Hbond>
0.0000

> <Gold.Chemscore.DEClash>
1.0532

> <Gold.Chemscore.DEInternal>
1.5716

> <Gold.Chemscore.Rot>
1.8471

> <Gold.Chemscore.Internal.Correction>
   9.000000E+99

> <Gold.Chemscore.Hbonds>
donor molecule, donor type, donor heavy atom, donor atom, acceptor molecule, acceptor atom, score
      L1  H     6    24       P1  8028  0.99
      L1  H     9    25       P1  8028  0.96
      L1  H    12    28       P1  7957  0.81
      L1  H    15    40       P1  7948  0.99

> <Gold.Chemscore.Hbond.Weighted>
-12.8710

> <Gold.Chemscore.Metal.Weighted>
-0.0000

> <Gold.Chemscore.Lipo.Weighted>
-9.1260

> <Gold.Chemscore.Internal_Hbond.Weighted>
0.0000

> <Gold.Chemscore.DEClash.Weighted>
1.0532

> <Gold.Chemscore.DEInternal.Weighted>
1.5716

> <Gold.Chemscore.Rot.Weighted>
4.7286

> <Gold.Chemscore.Internal.Correction.Weighted>
   9.000000E+99

> <Gold.Protein.RotatedTorsions>
[ 6907 6896 6895 6894 ] final -110.25 input  -60.11 | X-H torsion
[ 7974 7965 7964 7962 ] final  -89.39 input  175.53 | X-H torsion
[ 8008 7997 7996 7995 ] final -171.39 input   59.86 | X-H torsion
[ 10167 10162 10161 10158 ] final  -53.08 input  -65.29 | X-H torsion
[ 10718 10713 10712 10709 ] final -145.12 input   66.30 | X-H torsion
[ 10763 10752 10751 10750 ] final  -56.68 input  -60.55 | X-H torsion
[ 11005 11000 10999 10996 ] final -138.49 input  -57.11 | X-H torsion

> <Gold.Protein.ActiveResidues>
 VAL166  LYS551  ARG553  GLY616  TRP617  ASP618  TYR619  PRO620  LYS621  CYS622 
 ASP623  PHE694  ASN695  SER759  ASP760  ASP761  ALA762  ILE779  LEU786  VAL792 
 PHE793  MET794  SER795  GLU796  ALA797  LYS798  CYS799  TRP800  GLU811  SER814 

> <Gold.Protein.RotatedAtoms>
  150.7613  133.9409  159.3455 H   0  0  0  0  0  0  0  0  0  0  0  0  # atno 6907 bound_to 6896
  151.7317  135.0871  160.0310 H   0  0  0  0  0  0  0  0  0  0  0  0  # atno 6908 bound_to 6896
  152.3585  133.6230  159.6033 H   0  0  0  0  0  0  0  0  0  0  0  0  # atno 6909 bound_to 6896
  145.4404  140.9559  143.2078 H   0  0  0  0  0  0  0  0  0  0  0  0  # atno 7974 bound_to 7965
  155.9310  140.1091  157.1132 H   0  0  0  0  0  0  0  0  0  0  0  0  # atno 8008 bound_to 7997
  154.4071  140.1237  156.4868 H   0  0  0  0  0  0  0  0  0  0  0  0  # atno 8009 bound_to 7997
  155.7080  140.3471  155.4964 H   0  0  0  0  0  0  0  0  0  0  0  0  # atno 8010 bound_to 7997
  140.6504  143.2562  151.4740 H   0  0  0  0  0  0  0  0  0  0  0  0  # atno 10167 bound_to 10162
  156.3785  130.7825  151.2014 H   0  0  0  0  0  0  0  0  0  0  0  0  # atno 10718 bound_to 10713
  154.2105  135.6395  153.5114 H   0  0  0  0  0  0  0  0  0  0  0  0  # atno 10763 bound_to 10752
  152.9991  135.5473  154.6220 H   0  0  0  0  0  0  0  0  0  0  0  0  # atno 10764 bound_to 10752
  154.5656  135.2912  155.0851 H   0  0  0  0  0  0  0  0  0  0  0  0  # atno 10765 bound_to 10752
  140.8610  134.2168  157.4707 H   0  0  0  0  0  0  0  0  0  0  0  0  # atno 11005 bound_to 11000
  144.8125  139.5936  143.7023 LP  0  0  0  0  0  0  0  0  0  0  0  0  # atno 17320 bound_to 7965
  146.2559  139.6302  142.9395 LP  0  0  0  0  0  0  0  0  0  0  0  0  # atno 17321 bound_to 7965
  139.5718  144.1910  152.1847 LP  0  0  0  0  0  0  0  0  0  0  0  0  # atno 17342 bound_to 10162
  140.1209  144.5374  150.6864 LP  0  0  0  0  0  0  0  0  0  0  0  0  # atno 17343 bound_to 10162
  157.7490  131.0351  150.4348 LP  0  0  0  0  0  0  0  0  0  0  0  0  # atno 17370 bound_to 10713
  156.4587  130.4027  149.6589 LP  0  0  0  0  0  0  0  0  0  0  0  0  # atno 17371 bound_to 10713
  139.8707  134.9729  156.4792 LP  0  0  0  0  0  0  0  0  0  0  0  0  # atno 17394 bound_to 11000
  140.8682  133.8008  155.9336 LP  0  0  0  0  0  0  0  0  0  0  0  0  # atno 17395 bound_to 11000

$$$$
