AV-unprocessed.smi:2710|AV-procd|sdf|10468|dock7
  -GOLD-   2272014503D 1   1.00000     0.00000
 Structure written by MMmdl.
 53 54  0  0  0  0  0  0  0  0  2 V2000
  150.5946  141.1297  158.0964 C   0  0  0  0  0  0  0  0  0  0  0  0
  150.1347  141.8903  156.8437 C   0  0  0  0  0  0  0  0  0  0  0  0
  149.1110  141.1555  156.0525 N   0  3  2  0  0  0  0  0  0  0  0  0
  148.9991  141.6754  154.6632 C   0  0  0  0  0  0  0  0  0  0  0  0
  148.1039  140.7753  153.7960 C   0  0  0  0  0  0  0  0  0  0  0  0
  146.7129  140.6057  154.4226 C   0  0  1  0  0  0  0  0  0  0  0  0
  145.9108  139.6900  153.6160 N   0  0  0  0  0  0  0  0  0  0  0  0
  146.2112  138.4035  153.3850 C   0  0  0  0  0  0  0  0  0  0  0  0
  147.2152  137.8532  153.8354 O   0  0  0  0  0  0  0  0  0  0  0  0
  145.2758  137.8174  152.6183 N   0  0  0  0  0  0  0  0  0  0  0  0
  145.2181  136.4766  152.1490 C   0  0  0  0  0  0  0  0  0  0  0  0
  144.1798  136.1118  151.2686 C   0  0  0  0  0  0  0  0  0  0  0  0
  144.0653  134.8616  150.7741 N   0  0  0  0  0  0  0  0  0  0  0  0
  144.9642  133.9515  151.1710 C   0  0  0  0  0  0  0  0  0  0  0  0
  144.9114  132.5701  150.4948 C   0  0  0  0  0  0  0  0  0  0  0  0
  143.7204  132.4769  149.5123 C   0  0  0  0  0  0  0  0  0  0  0  0
  144.7804  131.4756  151.5701 C   0  0  0  0  0  0  0  0  0  0  0  0
  146.1820  132.3148  149.6504 C   0  0  0  0  0  0  0  0  0  0  0  0
  146.0158  134.2045  151.9611 N   0  0  0  0  0  0  0  0  0  0  0  0
  146.1422  135.4511  152.4640 C   0  0  0  0  0  0  0  0  0  0  0  0
  146.8641  140.0827  155.8638 C   0  0  0  0  0  0  0  0  0  0  0  0
  147.7827  140.9804  156.7195 C   0  0  2  0  0  0  0  0  0  0  0  0
  147.1002  142.3110  157.1045 C   0  0  0  0  0  0  0  0  0  0  0  0
  151.4327  141.6434  158.5685 H   0  0  0  0  0  0  0  0  0  0  0  0
  150.9246  140.1205  157.8477 H   0  0  0  0  0  0  0  0  0  0  0  0
  149.8046  141.0559  158.8435 H   0  0  0  0  0  0  0  0  0  0  0  0
  149.7793  142.8866  157.1070 H   0  0  0  0  0  0  0  0  0  0  0  0
  151.0110  142.0441  156.2127 H   0  0  0  0  0  0  0  0  0  0  0  0
  148.6159  142.6962  154.6745 H   0  0  0  0  0  0  0  0  0  0  0  0
  149.9901  141.7233  154.2104 H   0  0  0  0  0  0  0  0  0  0  0  0
  148.0144  141.2002  152.7954 H   0  0  0  0  0  0  0  0  0  0  0  0
  148.5792  139.8005  153.6764 H   0  0  0  0  0  0  0  0  0  0  0  0
  146.2219  141.5803  154.4371 H   0  0  0  0  0  0  0  0  0  0  0  0
  145.0618  140.0588  153.2128 H   0  0  0  0  0  0  0  0  0  0  0  0
  144.4879  138.3949  152.3637 H   0  0  0  0  0  0  0  0  0  0  0  0
  143.4362  136.8287  150.9523 H   0  0  0  0  0  0  0  0  0  0  0  0
  143.7074  131.5170  148.9945 H   0  0  0  0  0  0  0  0  0  0  0  0
  143.7701  133.2580  148.7525 H   0  0  0  0  0  0  0  0  0  0  0  0
  142.7608  132.5717  150.0218 H   0  0  0  0  0  0  0  0  0  0  0  0
  143.8721  131.6061  152.1595 H   0  0  0  0  0  0  0  0  0  0  0  0
  145.6252  131.4950  152.2597 H   0  0  0  0  0  0  0  0  0  0  0  0
  144.7435  130.4815  151.1234 H   0  0  0  0  0  0  0  0  0  0  0  0
  146.1276  131.3577  149.1305 H   0  0  0  0  0  0  0  0  0  0  0  0
  147.0826  132.2873  150.2648 H   0  0  0  0  0  0  0  0  0  0  0  0
  146.3193  133.0899  148.8955 H   0  0  0  0  0  0  0  0  0  0  0  0
  147.0006  135.6059  153.0979 H   0  0  0  0  0  0  0  0  0  0  0  0
  145.8866  139.9915  156.3394 H   0  0  0  0  0  0  0  0  0  0  0  0
  147.2795  139.0738  155.8378 H   0  0  0  0  0  0  0  0  0  0  0  0
  147.9490  140.4323  157.6462 H   0  0  0  0  0  0  0  0  0  0  0  0
  146.1282  142.1253  157.5620 H   0  0  0  0  0  0  0  0  0  0  0  0
  146.9326  142.9577  156.2439 H   0  0  0  0  0  0  0  0  0  0  0  0
  147.6855  142.8709  157.8334 H   0  0  0  0  0  0  0  0  0  0  0  0
  149.4808  140.2211  155.9513 H   0  0  0  0  0  0  0  0  0  0  0  0
  1  2  1  0  0  0  0
  1 24  1  0  0  0  0
  1 25  1  0  0  0  0
  1 26  1  0  0  0  0
  2  3  1  0  0  0  0
  2 27  1  0  0  0  0
  2 28  1  0  0  0  0
  3 22  1  0  0  0  0
  3  4  1  0  0  0  0
  3 53  1  0  0  0  0
  4  5  1  0  0  0  0
  4 29  1  0  0  0  0
  4 30  1  0  0  0  0
  5  6  1  0  0  0  0
  5 31  1  0  0  0  0
  5 32  1  0  0  0  0
  6  7  1  0  0  0  0
  6 21  1  0  0  0  0
  6 33  1  0  0  0  0
  7  8  1  0  0  0  0
  7 34  1  0  0  0  0
  8  9  2  0  0  0  0
  8 10  1  0  0  0  0
 10 11  1  0  0  0  0
 10 35  1  0  0  0  0
 11 20  1  0  0  0  0
 11 12  2  0  0  0  0
 12 13  1  0  0  0  0
 12 36  1  0  0  0  0
 13 14  2  0  0  0  0
 14 15  1  0  0  0  0
 14 19  1  0  0  0  0
 15 16  1  0  0  0  0
 15 17  1  0  0  0  0
 15 18  1  0  0  0  0
 16 37  1  0  0  0  0
 16 38  1  0  0  0  0
 16 39  1  0  0  0  0
 17 40  1  0  0  0  0
 17 41  1  0  0  0  0
 17 42  1  0  0  0  0
 18 43  1  0  0  0  0
 18 44  1  0  0  0  0
 18 45  1  0  0  0  0
 19 20  2  0  0  0  0
 20 46  1  0  0  0  0
 21 22  1  0  0  0  0
 21 47  1  0  0  0  0
 21 48  1  0  0  0  0
 22 23  1  0  0  0  0
 22 49  1  0  0  0  0
 23 50  1  0  0  0  0
 23 51  1  0  0  0  0
 23 52  1  0  0  0  0
M  CHG  1   3   1
M  END
> <s_m_source_file>
AV-unprocessed.smi

> <i_m_source_file_index>
2710

> <i_lp_mmshare_version>
43012

> <i_f3d_flags>
0

> <s_epik_input>
W0NIM11bQ0gyXU4xW0NIMl1bQ0gyXVtDQEhdKFtDSDJdW0NASF0xW0NIM10pW05IXUMoPU8pW05IXWMyW2NIXW5jKEMoW0NIM10pKFtDSDNdKVtDSDNdKW5bY0hdMg==

> <s_epik_cmdline>
J2VwaWtfcHl0aG9uJywgJy1waCcsICc3LjAnLCAnLXRuJywgJzgnLCAnLW1hJywgJzIwMCcsICctbWV0YWxfYmluZGluZycsICctaW1hZScsICc8aW5maWxlLm1hZT4nLCAnLW9tYWUnLCAnPG91dGZpbGUubWFlPic=

> <r_lp_tautomer_probability>
1

> <r_epik_Ionization_Penalty>
0.00396003

> <r_epik_Ionization_Penalty_Charging>
0.0039379

> <r_epik_Ionization_Penalty_Neutral>
2.21316e-05

> <r_epik_State_Penalty>
0.00281651

> <r_epik_Charging_Adjusted_Penalty>
0.00675441

> <i_epik_Tot_Q>
1

> <i_epik_Tot_abs_Q>
1

> <r_epik_Metal_State_Penalty>
-0

> <b_epik_Metal_Only>
0

> <s_lp_Force_Field>
OPLS_2005

> <r_lp_Energy>
21.0502

> <b_lp_Chiralities_Consistent>
1

> <s_lp_Variant>
AV-unprocessed.smi:2710-5

> <Gold.Version>
5.8.1

> <Gold.Id.Protein>
6NUR|6NUR_protein|mol2

> <Gold.PLP.Fitness>
40.4784

> <Gold.PLP.PLP>
-31.3454

> <Gold.PLP.part.hbond>
-2.2764

> <Gold.PLP.part.metal>
0.0000

> <Gold.PLP.part.buried>
0.2640

> <Gold.PLP.part.nonpolar>
-29.8324

> <Gold.PLP.part.repulsive>
0.7847

> <Gold.PLP.ligand.clash>
0.0000

> <Gold.PLP.ligand.torsion>
0.1649

> <Gold.PLP.Chemscore.Hbond>
1.5533

> <Gold.PLP.Chemscore.CHOScore>
1.5427

> <Gold.PLP.Chemscore.Metal>
0.0000

> <Gold.Chemscore.Hbonds>
donor molecule, donor type, donor heavy atom, donor atom, acceptor molecule, acceptor atom, score
      L1  H     7    34       P1 10175  1.00
      L1  H    10    35       P1 10175  0.50
      L1  C    12    36       P1 10171  0.90
      L1  C    20    46       P1  7948  0.64

> <Gold.PLP.Chemscore.Internal.Correction>
0.1749

> <Gold.Rescore>
     Score         DG    S(hbond)    S(metal)    S(lipo)     H(rot)  DE(clash)    DE(int)     intcor
     14.30     -17.04       1.50        0.00      84.65       1.31       0.27       2.47       ----

> <Gold.Chemscore.Fitness>
14.2999

> <Gold.Chemscore.DG>
-17.0388

> <Gold.Chemscore.ZeroCoef>
-5.4800

> <Gold.Chemscore.Hbond>
1.4981

> <Gold.Chemscore.Metal>
0.0000

> <Gold.Chemscore.Lipo>
84.6495

> <Gold.Chemscore.Internal_Hbond>
0.0000

> <Gold.Chemscore.DEClash>
0.2733

> <Gold.Chemscore.DEInternal>
2.4657

> <Gold.Chemscore.Rot>
1.3081

> <Gold.Chemscore.Internal.Correction>
   9.000000E+99

> <Gold.Chemscore.Hbonds>
donor molecule, donor type, donor heavy atom, donor atom, acceptor molecule, acceptor atom, score
      L1  H     7    34       P1 10175  0.99
      L1  H    10    35       P1 10175  0.50

> <Gold.Chemscore.Hbond.Weighted>
-5.0037

> <Gold.Chemscore.Metal.Weighted>
-0.0000

> <Gold.Chemscore.Lipo.Weighted>
-9.9040

> <Gold.Chemscore.Internal_Hbond.Weighted>
0.0000

> <Gold.Chemscore.DEClash.Weighted>
0.2733

> <Gold.Chemscore.DEInternal.Weighted>
2.4657

> <Gold.Chemscore.Rot.Weighted>
3.3488

> <Gold.Chemscore.Internal.Correction.Weighted>
   9.000000E+99

> <Gold.Protein.RotatedTorsions>
[ 6907 6896 6895 6894 ] final -164.77 input  -60.11 | X-H torsion
[ 7974 7965 7964 7962 ] final  -70.56 input  175.53 | X-H torsion
[ 8008 7997 7996 7995 ] final   49.14 input   59.86 | X-H torsion
[ 10167 10162 10161 10158 ] final   89.64 input  -65.29 | X-H torsion
[ 10718 10713 10712 10709 ] final  -71.19 input   66.30 | X-H torsion
[ 10763 10752 10751 10750 ] final -121.13 input  -60.55 | X-H torsion
[ 11005 11000 10999 10996 ] final   99.96 input  -57.11 | X-H torsion

> <Gold.Protein.ActiveResidues>
 VAL166  LYS551  ARG553  GLY616  TRP617  ASP618  TYR619  PRO620  LYS621  CYS622 
 ASP623  PHE694  ASN695  SER759  ASP760  ASP761  ALA762  ILE779  LEU786  VAL792 
 PHE793  MET794  SER795  GLU796  ALA797  LYS798  CYS799  TRP800  GLU811  SER814 

> <Gold.Protein.RotatedAtoms>
  151.4171  133.3709  159.2751 H   0  0  0  0  0  0  0  0  0  0  0  0  # atno 6907 bound_to 6896
  150.9321  134.8737  159.7568 H   0  0  0  0  0  0  0  0  0  0  0  0  # atno 6908 bound_to 6896
  152.5033  134.4116  159.9502 H   0  0  0  0  0  0  0  0  0  0  0  0  # atno 6909 bound_to 6896
  145.6894  140.9159  143.0790 H   0  0  0  0  0  0  0  0  0  0  0  0  # atno 7974 bound_to 7965
  155.3972  140.3436  155.4255 H   0  0  0  0  0  0  0  0  0  0  0  0  # atno 8008 bound_to 7997
  156.1524  140.1575  156.8781 H   0  0  0  0  0  0  0  0  0  0  0  0  # atno 8009 bound_to 7997
  154.5064  140.0801  156.7884 H   0  0  0  0  0  0  0  0  0  0  0  0  # atno 8010 bound_to 7997
  139.8553  144.6572  150.9122 H   0  0  0  0  0  0  0  0  0  0  0  0  # atno 10167 bound_to 10162
  156.0374  130.4346  150.2407 H   0  0  0  0  0  0  0  0  0  0  0  0  # atno 10718 bound_to 10713
  154.8661  135.4179  154.2570 H   0  0  0  0  0  0  0  0  0  0  0  0  # atno 10763 bound_to 10752
  153.3505  135.6998  153.6798 H   0  0  0  0  0  0  0  0  0  0  0  0  # atno 10764 bound_to 10752
  153.5739  135.3586  155.2821 H   0  0  0  0  0  0  0  0  0  0  0  0  # atno 10765 bound_to 10752
  139.8771  134.9119  156.4684 H   0  0  0  0  0  0  0  0  0  0  0  0  # atno 11005 bound_to 11000
  144.7001  139.8801  143.7446 LP  0  0  0  0  0  0  0  0  0  0  0  0  # atno 17320 bound_to 7965
  146.0895  139.3884  143.0414 LP  0  0  0  0  0  0  0  0  0  0  0  0  # atno 17321 bound_to 7965
  140.7782  143.3792  151.1508 LP  0  0  0  0  0  0  0  0  0  0  0  0  # atno 17342 bound_to 10162
  139.7426  143.8901  152.3054 LP  0  0  0  0  0  0  0  0  0  0  0  0  # atno 17343 bound_to 10162
  157.0505  131.0061  151.3255 LP  0  0  0  0  0  0  0  0  0  0  0  0  # atno 17370 bound_to 10713
  157.5144  130.7958  149.7740 LP  0  0  0  0  0  0  0  0  0  0  0  0  # atno 17371 bound_to 10713
  140.8813  133.7915  155.9470 LP  0  0  0  0  0  0  0  0  0  0  0  0  # atno 17394 bound_to 11000
  140.8851  134.2564  157.5124 LP  0  0  0  0  0  0  0  0  0  0  0  0  # atno 17395 bound_to 11000

$$$$
