AV-unprocessed.smi:1127|AV-procd|sdf|4841|dock1
  -GOLD-   22720 3403D 1   1.00000     0.00000
 Structure written by MMmdl.
 42 43  0  0  0  0  0  0  0  0  1 V2000
  151.2949  137.6495  154.4157 C   0  0  0  0  0  0  0  0  0  0  0  0
  151.0821  139.2485  155.3308 S   0  0  1  0  0  0  0  0  0  0  0  0
  150.3722  140.2184  154.3845 O   0  0  0  0  0  0  0  0  0  0  0  0
  149.7541  138.6207  156.4168 C   0  0  0  0  0  0  0  0  0  0  0  0
  148.4682  138.5548  156.0586 N   0  0  0  0  0  0  0  0  0  0  0  0
  147.8205  138.0180  157.1552 N   0  0  0  0  0  0  0  0  0  0  0  0
  148.7855  137.8188  158.0555 C   0  0  0  0  0  0  0  0  0  0  0  0
  150.0180  138.1740  157.6593 N   0  0  0  0  0  0  0  0  0  0  0  0
  151.2709  138.0865  158.3910 C   0  0  0  0  0  0  0  0  0  0  0  0
  152.1342  139.3350  158.1894 C   0  0  0  0  0  0  0  0  0  0  0  0
  153.2554  139.2419  157.6894 O   0  0  0  0  0  0  0  0  0  0  0  0
  151.5863  140.5000  158.5675 N   0  0  0  0  0  0  0  0  0  0  0  0
  152.1966  141.8188  158.4154 C   0  0  0  0  0  0  0  0  0  0  0  0
  152.5354  142.3858  159.8108 C   0  0  0  0  0  0  0  0  0  0  0  0
  152.9677  143.8657  159.8393 C   0  0  0  0  0  0  0  0  0  0  0  0
  151.8776  144.8429  160.3255 C   0  0  0  0  0  0  0  0  0  0  0  0
  150.6674  145.0588  159.3933 C   0  0  0  0  0  0  0  0  0  0  0  0
  149.7300  143.8416  159.2591 C   0  0  0  0  0  0  0  0  0  0  0  0
  149.8914  143.0205  157.9654 C   0  0  0  0  0  0  0  0  0  0  0  0
  151.3313  142.7192  157.5036 C   0  0  0  0  0  0  0  0  0  0  0  0
  151.1947  136.7989  155.0905 H   0  0  0  0  0  0  0  0  0  0  0  0
  152.2819  137.6090  153.9564 H   0  0  0  0  0  0  0  0  0  0  0  0
  150.5444  137.5609  153.6303 H   0  0  0  0  0  0  0  0  0  0  0  0
  148.5862  137.4004  159.0312 H   0  0  0  0  0  0  0  0  0  0  0  0
  151.0478  137.9331  159.4480 H   0  0  0  0  0  0  0  0  0  0  0  0
  151.8226  137.2110  158.0469 H   0  0  0  0  0  0  0  0  0  0  0  0
  150.6602  140.4760  158.9696 H   0  0  0  0  0  0  0  0  0  0  0  0
  153.1531  141.6975  157.9036 H   0  0  0  0  0  0  0  0  0  0  0  0
  151.7218  142.2167  160.5150 H   0  0  0  0  0  0  0  0  0  0  0  0
  153.3581  141.7884  160.2065 H   0  0  0  0  0  0  0  0  0  0  0  0
  153.7999  143.9494  160.5395 H   0  0  0  0  0  0  0  0  0  0  0  0
  153.3785  144.1809  158.8803 H   0  0  0  0  0  0  0  0  0  0  0  0
  151.5263  144.5342  161.3108 H   0  0  0  0  0  0  0  0  0  0  0  0
  152.3505  145.8132  160.4810 H   0  0  0  0  0  0  0  0  0  0  0  0
  150.0831  145.8745  159.8210 H   0  0  0  0  0  0  0  0  0  0  0  0
  150.9848  145.4258  158.4173 H   0  0  0  0  0  0  0  0  0  0  0  0
  149.8076  143.2000  160.1352 H   0  0  0  0  0  0  0  0  0  0  0  0
  148.7002  144.1999  159.2822 H   0  0  0  0  0  0  0  0  0  0  0  0
  149.3301  142.0913  158.0622 H   0  0  0  0  0  0  0  0  0  0  0  0
  149.4025  143.5700  157.1601 H   0  0  0  0  0  0  0  0  0  0  0  0
  151.8554  143.6493  157.2908 H   0  0  0  0  0  0  0  0  0  0  0  0
  151.2623  142.2321  156.5302 H   0  0  0  0  0  0  0  0  0  0  0  0
  1  2  1  0  0  0  0
  1 21  1  0  0  0  0
  1 22  1  0  0  0  0
  1 23  1  0  0  0  0
  2  3  2  0  0  0  0
  2  4  1  0  0  0  0
  4  8  1  0  0  0  0
  4  5  2  0  0  0  0
  5  6  1  0  0  0  0
  6  7  2  0  0  0  0
  7  8  1  0  0  0  0
  7 24  1  0  0  0  0
  8  9  1  0  0  0  0
  9 10  1  0  0  0  0
  9 25  1  0  0  0  0
  9 26  1  0  0  0  0
 10 11  2  0  0  0  0
 10 12  1  0  0  0  0
 12 13  1  0  0  0  0
 12 27  1  0  0  0  0
 13 20  1  0  0  0  0
 13 14  1  0  0  0  0
 13 28  1  0  0  0  0
 14 15  1  0  0  0  0
 14 29  1  0  0  0  0
 14 30  1  0  0  0  0
 15 16  1  0  0  0  0
 15 31  1  0  0  0  0
 15 32  1  0  0  0  0
 16 17  1  0  0  0  0
 16 33  1  0  0  0  0
 16 34  1  0  0  0  0
 17 18  1  0  0  0  0
 17 35  1  0  0  0  0
 17 36  1  0  0  0  0
 18 19  1  0  0  0  0
 18 37  1  0  0  0  0
 18 38  1  0  0  0  0
 19 20  1  0  0  0  0
 19 39  1  0  0  0  0
 19 40  1  0  0  0  0
 20 41  1  0  0  0  0
 20 42  1  0  0  0  0
M  END
> <s_m_source_file>
AV-unprocessed.smi

> <i_m_source_file_index>
1127

> <i_lp_mmshare_version>
43012

> <i_f3d_flags>
0

> <s_epik_input>
W0NIM11bU0BdKD1PKWMxbm5bY0hdbjFbQ0gyXUMoPU8pW05IXVtDSF0yW0NIMl1bQ0gyXVtDSDJdW0NIMl1bQ0gyXVtDSDJdW0NIMl0y

> <s_epik_cmdline>
J2VwaWtfcHl0aG9uJywgJy1waCcsICc3LjAnLCAnLXRuJywgJzgnLCAnLW1hJywgJzIwMCcsICctbWV0YWxfYmluZGluZycsICctaW1hZScsICc8aW5maWxlLm1hZT4nLCAnLW9tYWUnLCAnPG91dGZpbGUubWFlPic=

> <r_lp_tautomer_probability>
1

> <r_epik_Ionization_Penalty>
7.34999e-08

> <r_epik_Ionization_Penalty_Charging>
0

> <r_epik_Ionization_Penalty_Neutral>
7.34999e-08

> <r_epik_State_Penalty>
-0

> <r_epik_Charging_Adjusted_Penalty>
0

> <i_epik_Tot_Q>
0

> <i_epik_Tot_abs_Q>
0

> <r_epik_Metal_State_Penalty>
-0

> <b_epik_Metal_Only>
0

> <s_lp_Force_Field>
OPLS_2005

> <r_lp_Energy>
17.4242

> <b_lp_Chiralities_Consistent>
1

> <s_lp_Variant>
AV-unprocessed.smi:1127-2

> <Gold.Version>
5.8.1

> <Gold.Id.Protein>
6NUR|6NUR_protein|mol2

> <Gold.PLP.Fitness>
37.6826

> <Gold.PLP.PLP>
-32.8882

> <Gold.PLP.part.hbond>
-2.0000

> <Gold.PLP.part.metal>
0.0000

> <Gold.PLP.part.buried>
-5.0964

> <Gold.PLP.part.nonpolar>
-26.1036

> <Gold.PLP.part.repulsive>
0.2484

> <Gold.PLP.ligand.clash>
0.0000

> <Gold.PLP.ligand.torsion>
1.1635

> <Gold.PLP.Chemscore.Hbond>
2.0000

> <Gold.PLP.Chemscore.CHOScore>
0.0000

> <Gold.PLP.Chemscore.Metal>
0.0000

> <Gold.Chemscore.Hbonds>
donor molecule, donor type, donor heavy atom, donor atom, acceptor molecule, acceptor atom, score
      P1  H  7989  7998       L1     3  1.00
      P1  H  7997  8010       L1    11  1.00

> <Gold.PLP.Chemscore.Internal.Correction>
1.1214

> <Gold.Rescore>
     Score         DG    S(hbond)    S(metal)    S(lipo)     H(rot)  DE(clash)    DE(int)     intcor
     16.85     -17.93       1.98        0.00      87.12       1.70       0.08       0.99       ----

> <Gold.Chemscore.Fitness>
16.8547

> <Gold.Chemscore.DG>
-17.9252

> <Gold.Chemscore.ZeroCoef>
-5.4800

> <Gold.Chemscore.Hbond>
1.9805

> <Gold.Chemscore.Metal>
0.0000

> <Gold.Chemscore.Lipo>
87.1246

> <Gold.Chemscore.Internal_Hbond>
0.0000

> <Gold.Chemscore.DEClash>
0.0826

> <Gold.Chemscore.DEInternal>
0.9879

> <Gold.Chemscore.Rot>
1.7044

> <Gold.Chemscore.Internal.Correction>
   9.000000E+99

> <Gold.Chemscore.Hbonds>
donor molecule, donor type, donor heavy atom, donor atom, acceptor molecule, acceptor atom, score
      P1  H  7989  7998       L1     3  0.44
      P1  H  7997  8010       L1    11  1.00

> <Gold.Chemscore.Hbond.Weighted>
-6.6147

> <Gold.Chemscore.Metal.Weighted>
-0.0000

> <Gold.Chemscore.Lipo.Weighted>
-10.1936

> <Gold.Chemscore.Internal_Hbond.Weighted>
0.0000

> <Gold.Chemscore.DEClash.Weighted>
0.0826

> <Gold.Chemscore.DEInternal.Weighted>
0.9879

> <Gold.Chemscore.Rot.Weighted>
4.3631

> <Gold.Chemscore.Internal.Correction.Weighted>
   9.000000E+99

> <Gold.Protein.RotatedTorsions>
[ 6907 6896 6895 6894 ] final  139.14 input  -60.11 | X-H torsion
[ 7974 7965 7964 7962 ] final   28.93 input  175.53 | X-H torsion
[ 8008 7997 7996 7995 ] final   49.51 input   59.86 | X-H torsion
[ 10167 10162 10161 10158 ] final  -49.35 input  -65.29 | X-H torsion
[ 10718 10713 10712 10709 ] final  -18.00 input   66.30 | X-H torsion
[ 10763 10752 10751 10750 ] final  -80.37 input  -60.55 | X-H torsion
[ 11005 11000 10999 10996 ] final -161.25 input  -57.11 | X-H torsion

> <Gold.Protein.ActiveResidues>
 VAL166  LYS551  ARG553  GLY616  TRP617  ASP618  TYR619  PRO620  LYS621  CYS622 
 ASP623  PHE694  ASN695  SER759  ASP760  ASP761  ALA762  ILE779  LEU786  VAL792 
 PHE793  MET794  SER795  GLU796  ALA797  LYS798  CYS799  TRP800  GLU811  SER814 

> <Gold.Protein.RotatedAtoms>
  152.2583  133.5275  159.5366 H   0  0  0  0  0  0  0  0  0  0  0  0  # atno 6907 bound_to 6896
  150.7116  134.0864  159.3925 H   0  0  0  0  0  0  0  0  0  0  0  0  # atno 6908 bound_to 6896
  151.8783  135.0463  160.0537 H   0  0  0  0  0  0  0  0  0  0  0  0  # atno 6909 bound_to 6896
  146.1701  139.6990  142.8973 H   0  0  0  0  0  0  0  0  0  0  0  0  # atno 7974 bound_to 7965
  155.4034  140.3439  155.4258 H   0  0  0  0  0  0  0  0  0  0  0  0  # atno 8008 bound_to 7997
  156.1490  140.1565  156.8832 H   0  0  0  0  0  0  0  0  0  0  0  0  # atno 8009 bound_to 7997
  154.5036  140.0808  156.7829 H   0  0  0  0  0  0  0  0  0  0  0  0  # atno 8010 bound_to 7997
  140.6689  143.2701  151.4202 H   0  0  0  0  0  0  0  0  0  0  0  0  # atno 10167 bound_to 10162
  156.5656  130.4736  149.6386 H   0  0  0  0  0  0  0  0  0  0  0  0  # atno 10718 bound_to 10713
  154.5503  135.5663  153.6916 H   0  0  0  0  0  0  0  0  0  0  0  0  # atno 10763 bound_to 10752
  152.9988  135.6249  154.2383 H   0  0  0  0  0  0  0  0  0  0  0  0  # atno 10764 bound_to 10752
  154.2317  135.2865  155.2867 H   0  0  0  0  0  0  0  0  0  0  0  0  # atno 10765 bound_to 10752
  140.6225  134.4735  157.5224 H   0  0  0  0  0  0  0  0  0  0  0  0  # atno 11005 bound_to 11000
  145.4363  141.0419  143.2882 LP  0  0  0  0  0  0  0  0  0  0  0  0  # atno 17320 bound_to 7965
  144.8150  139.5893  143.7012 LP  0  0  0  0  0  0  0  0  0  0  0  0  # atno 17321 bound_to 7965
  139.5949  144.1419  152.2132 LP  0  0  0  0  0  0  0  0  0  0  0  0  # atno 17342 bound_to 10162
  140.0785  144.5720  150.7139 LP  0  0  0  0  0  0  0  0  0  0  0  0  # atno 17343 bound_to 10162
  156.2760  130.7044  151.1855 LP  0  0  0  0  0  0  0  0  0  0  0  0  # atno 17370 bound_to 10713
  157.7359  131.0567  150.5443 LP  0  0  0  0  0  0  0  0  0  0  0  0  # atno 17371 bound_to 10713
  139.9148  134.8270  156.1405 LP  0  0  0  0  0  0  0  0  0  0  0  0  # atno 17394 bound_to 11000
  141.0732  133.6787  156.2183 LP  0  0  0  0  0  0  0  0  0  0  0  0  # atno 17395 bound_to 11000

$$$$
