AV-unprocessed.smi:2448|AV-procd|sdf|9653|dock10
  -GOLD-   2272013283D 1   1.00000     0.00000
 Structure written by MMmdl.
 37 38  0  0  0  0  0  0  0  0  1 V2000
  146.4753  135.4127  152.0852 O   0  0  0  0  0  0  0  0  0  0  0  0
  146.3258  134.1908  152.7859 C   0  0  1  0  0  0  0  0  0  0  0  0
  147.2662  134.2273  154.0077 C   0  0  0  0  0  0  0  0  0  0  0  0
  148.6751  134.2850  153.6143 N   0  0  0  0  0  0  0  0  0  0  0  0
  149.6455  134.5359  154.6908 C   0  0  1  0  0  0  0  0  0  0  0  0
  149.2524  135.7320  155.5980 C   0  0  0  0  0  0  0  0  0  0  0  0
  149.8541  137.0713  155.2014 C   0  0  0  0  0  0  0  0  0  0  0  0
  151.2502  137.2205  155.0602 C   0  0  0  0  0  0  0  0  0  0  0  0
  151.7588  138.4805  154.6863 C   0  0  0  0  0  0  0  0  0  0  0  0
  150.9768  139.5551  154.4483 N   0  0  0  0  0  0  0  0  0  0  0  0
  149.6411  139.4035  154.5737 C   0  0  0  0  0  0  0  0  0  0  0  0
  149.0312  138.1881  154.9434 C   0  0  0  0  0  0  0  0  0  0  0  0
  149.8358  133.2478  155.5195 C   0  0  0  0  0  0  0  0  0  0  0  0
  149.9797  132.2012  154.7052 F   0  0  0  0  0  0  0  0  0  0  0  0
  150.9326  133.3385  156.2719 F   0  0  0  0  0  0  0  0  0  0  0  0
  148.7833  133.0363  156.3107 F   0  0  0  0  0  0  0  0  0  0  0  0
  144.8435  133.9681  153.1368 C   0  0  0  0  0  0  0  0  0  0  0  0
  144.1042  133.6078  151.8443 C   0  0  0  0  0  0  0  0  0  0  0  0
  145.2473  132.6713  150.7992 S   0  0  0  0  0  0  0  0  0  0  0  0
  146.6960  133.0510  151.8212 C   0  0  0  0  0  0  0  0  0  0  0  0
  147.3988  135.5847  151.9815 H   0  0  0  0  0  0  0  0  0  0  0  0
  147.0275  135.1018  154.6142 H   0  0  0  0  0  0  0  0  0  0  0  0
  147.0722  133.3546  154.6277 H   0  0  0  0  0  0  0  0  0  0  0  0
  148.7936  134.9868  152.8904 H   0  0  0  0  0  0  0  0  0  0  0  0
  150.6176  134.7432  154.2425 H   0  0  0  0  0  0  0  0  0  0  0  0
  148.1663  135.8121  155.6583 H   0  0  0  0  0  0  0  0  0  0  0  0
  149.5884  135.5451  156.6181 H   0  0  0  0  0  0  0  0  0  0  0  0
  151.9205  136.3928  155.2397 H   0  0  0  0  0  0  0  0  0  0  0  0
  152.8229  138.6283  154.5751 H   0  0  0  0  0  0  0  0  0  0  0  0
  149.0388  140.2769  154.3719 H   0  0  0  0  0  0  0  0  0  0  0  0
  147.9563  138.1196  155.0236 H   0  0  0  0  0  0  0  0  0  0  0  0
  144.7609  133.1339  153.8351 H   0  0  0  0  0  0  0  0  0  0  0  0
  144.3938  134.8348  153.6231 H   0  0  0  0  0  0  0  0  0  0  0  0
  143.1939  133.0398  152.0364 H   0  0  0  0  0  0  0  0  0  0  0  0
  143.8218  134.5152  151.3097 H   0  0  0  0  0  0  0  0  0  0  0  0
  147.5640  133.2840  151.2034 H   0  0  0  0  0  0  0  0  0  0  0  0
  146.9342  132.1471  152.3830 H   0  0  0  0  0  0  0  0  0  0  0  0
  1  2  1  0  0  0  0
  1 21  1  0  0  0  0
  2 20  1  0  0  0  0
  2  3  1  0  0  0  0
  2 17  1  0  0  0  0
  3  4  1  0  0  0  0
  3 22  1  0  0  0  0
  3 23  1  0  0  0  0
  4  5  1  0  0  0  0
  4 24  1  0  0  0  0
  5  6  1  0  0  0  0
  5 13  1  0  0  0  0
  5 25  1  0  0  0  0
  6  7  1  0  0  0  0
  6 26  1  0  0  0  0
  6 27  1  0  0  0  0
  7 12  1  0  0  0  0
  7  8  2  0  0  0  0
  8  9  1  0  0  0  0
  8 28  1  0  0  0  0
  9 10  2  0  0  0  0
  9 29  1  0  0  0  0
 10 11  1  0  0  0  0
 11 12  2  0  0  0  0
 11 30  1  0  0  0  0
 12 31  1  0  0  0  0
 13 14  1  0  0  0  0
 13 15  1  0  0  0  0
 13 16  1  0  0  0  0
 17 18  1  0  0  0  0
 17 32  1  0  0  0  0
 17 33  1  0  0  0  0
 18 19  1  0  0  0  0
 18 34  1  0  0  0  0
 18 35  1  0  0  0  0
 19 20  1  0  0  0  0
 20 36  1  0  0  0  0
 20 37  1  0  0  0  0
M  END
> <s_m_source_file>
AV-unprocessed.smi

> <i_m_source_file_index>
2448

> <i_lp_mmshare_version>
43012

> <i_f3d_flags>
0

> <s_epik_input>
W0NIMl0xU1tDSDJdW0NIMl1bQ0BAXTEoW09IXSlbQ0gyXVtOSF1bQ0BASF0oQyhGKShGKUYpW0NIMl1jMltjSF1bY0hdbltjSF1bY0hdMg==

> <s_epik_cmdline>
J2VwaWtfcHl0aG9uJywgJy1waCcsICc3LjAnLCAnLXRuJywgJzgnLCAnLW1hJywgJzIwMCcsICctbWV0YWxfYmluZGluZycsICctaW1hZScsICc8aW5maWxlLm1hZT4nLCAnLW9tYWUnLCAnPG91dGZpbGUubWFlPic=

> <r_epik_Ionization_Penalty>
0.187708

> <r_epik_Ionization_Penalty_Charging>
0

> <r_epik_Ionization_Penalty_Neutral>
0.187708

> <r_epik_State_Penalty>
0.22769

> <r_epik_Charging_Adjusted_Penalty>
0.22769

> <i_epik_Tot_Q>
0

> <i_epik_Tot_abs_Q>
0

> <r_epik_Metal_State_Penalty>
0.176206

> <b_epik_Metal_Only>
0

> <s_lp_Force_Field>
OPLS_2005

> <r_lp_Energy>
32.0446

> <b_lp_Chiralities_Consistent>
1

> <s_lp_Variant>
AV-unprocessed.smi:2448-3

> <Gold.Version>
5.8.1

> <Gold.Id.Protein>
6NUR|6NUR_protein|mol2

> <Gold.PLP.Fitness>
40.0045

> <Gold.PLP.PLP>
-32.2724

> <Gold.PLP.part.hbond>
-3.0000

> <Gold.PLP.part.metal>
0.0000

> <Gold.PLP.part.buried>
-4.5347

> <Gold.PLP.part.nonpolar>
-25.2112

> <Gold.PLP.part.repulsive>
0.1285

> <Gold.PLP.ligand.clash>
0.0000

> <Gold.PLP.ligand.torsion>
0.8708

> <Gold.PLP.Chemscore.Hbond>
3.0000

> <Gold.PLP.Chemscore.CHOScore>
0.0000

> <Gold.PLP.Chemscore.Metal>
0.0000

> <Gold.Chemscore.Hbonds>
donor molecule, donor type, donor heavy atom, donor atom, acceptor molecule, acceptor atom, score
      L1  H     1    21       P1  7948  1.00
      L1  H     4    24       P1  7948  0.95
      P1  H  7989  7998       L1    10  1.00

> <Gold.PLP.Chemscore.Internal.Correction>
0.4736

> <Gold.Rescore>
     Score         DG    S(hbond)    S(metal)    S(lipo)     H(rot)  DE(clash)    DE(int)     intcor
     13.45     -15.51       2.21        0.00      73.30       2.31       0.08       1.99       ----

> <Gold.Chemscore.Fitness>
13.4477

> <Gold.Chemscore.DG>
-15.5087

> <Gold.Chemscore.ZeroCoef>
-5.4800

> <Gold.Chemscore.Hbond>
2.2064

> <Gold.Chemscore.Metal>
0.0000

> <Gold.Chemscore.Lipo>
73.2968

> <Gold.Chemscore.Internal_Hbond>
0.0000

> <Gold.Chemscore.DEClash>
0.0758

> <Gold.Chemscore.DEInternal>
1.9852

> <Gold.Chemscore.Rot>
2.3111

> <Gold.Chemscore.Internal.Correction>
   9.000000E+99

> <Gold.Chemscore.Hbonds>
donor molecule, donor type, donor heavy atom, donor atom, acceptor molecule, acceptor atom, score
      L1  H     1    21       P1  7948  1.00
      L1  H     4    24       P1  7948  0.21
      P1  H  7989  7998       L1    10  0.94

> <Gold.Chemscore.Hbond.Weighted>
-7.3693

> <Gold.Chemscore.Metal.Weighted>
-0.0000

> <Gold.Chemscore.Lipo.Weighted>
-8.5757

> <Gold.Chemscore.Internal_Hbond.Weighted>
0.0000

> <Gold.Chemscore.DEClash.Weighted>
0.0758

> <Gold.Chemscore.DEInternal.Weighted>
1.9852

> <Gold.Chemscore.Rot.Weighted>
5.9164

> <Gold.Chemscore.Internal.Correction.Weighted>
   9.000000E+99

> <Gold.Protein.RotatedTorsions>
[ 6907 6896 6895 6894 ] final  163.16 input  -60.11 | X-H torsion
[ 7974 7965 7964 7962 ] final   -1.86 input  175.53 | X-H torsion
[ 8008 7997 7996 7995 ] final   -1.04 input   59.86 | X-H torsion
[ 10167 10162 10161 10158 ] final -129.89 input  -65.29 | X-H torsion
[ 10718 10713 10712 10709 ] final  -54.61 input   66.30 | X-H torsion
[ 10763 10752 10751 10750 ] final  -77.64 input  -60.55 | X-H torsion
[ 11005 11000 10999 10996 ] final -109.30 input  -57.11 | X-H torsion

> <Gold.Protein.ActiveResidues>
 VAL166  LYS551  ARG553  GLY616  TRP617  ASP618  TYR619  PRO620  LYS621  CYS622 
 ASP623  PHE694  ASN695  SER759  ASP760  ASP761  ALA762  ILE779  LEU786  VAL792 
 PHE793  MET794  SER795  GLU796  ALA797  LYS798  CYS799  TRP800  GLU811  SER814 

> <Gold.Protein.RotatedAtoms>
  151.9294  133.3607  159.3924 H   0  0  0  0  0  0  0  0  0  0  0  0  # atno 6907 bound_to 6896
  150.7020  134.4553  159.5365 H   0  0  0  0  0  0  0  0  0  0  0  0  # atno 6908 bound_to 6896
  152.2191  134.8430  160.0539 H   0  0  0  0  0  0  0  0  0  0  0  0  # atno 6909 bound_to 6896
  146.2412  140.1484  142.8334 H   0  0  0  0  0  0  0  0  0  0  0  0  # atno 7974 bound_to 7965
  154.6512  140.2569  155.7211 H   0  0  0  0  0  0  0  0  0  0  0  0  # atno 8008 bound_to 7997
  156.2576  140.2867  156.0868 H   0  0  0  0  0  0  0  0  0  0  0  0  # atno 8009 bound_to 7997
  155.1448  140.0381  157.2797 H   0  0  0  0  0  0  0  0  0  0  0  0  # atno 8010 bound_to 7997
  139.9351  143.6228  152.2519 H   0  0  0  0  0  0  0  0  0  0  0  0  # atno 10167 bound_to 10162
  156.1436  130.4153  150.0061 H   0  0  0  0  0  0  0  0  0  0  0  0  # atno 10718 bound_to 10713
  154.5156  135.5757  153.6639 H   0  0  0  0  0  0  0  0  0  0  0  0  # atno 10763 bound_to 10752
  152.9906  135.6169  154.2822 H   0  0  0  0  0  0  0  0  0  0  0  0  # atno 10764 bound_to 10752
  154.2740  135.2852  155.2706 H   0  0  0  0  0  0  0  0  0  0  0  0  # atno 10765 bound_to 10752
  141.0855  133.9147  157.2195 H   0  0  0  0  0  0  0  0  0  0  0  0  # atno 11005 bound_to 11000
  145.0188  140.8776  143.5179 LP  0  0  0  0  0  0  0  0  0  0  0  0  # atno 17320 bound_to 7965
  145.1530  139.2503  143.5431 LP  0  0  0  0  0  0  0  0  0  0  0  0  # atno 17321 bound_to 7965
  139.6750  144.7659  151.1712 LP  0  0  0  0  0  0  0  0  0  0  0  0  # atno 17342 bound_to 10162
  140.7627  143.5808  150.8897 LP  0  0  0  0  0  0  0  0  0  0  0  0  # atno 17343 bound_to 10162
  156.7939  130.9266  151.3646 LP  0  0  0  0  0  0  0  0  0  0  0  0  # atno 17370 bound_to 10713
  157.6597  130.8955  149.9804 LP  0  0  0  0  0  0  0  0  0  0  0  0  # atno 17371 bound_to 10713
  139.9673  135.0138  156.9419 LP  0  0  0  0  0  0  0  0  0  0  0  0  # atno 17394 bound_to 11000
  140.5373  134.0754  155.7332 LP  0  0  0  0  0  0  0  0  0  0  0  0  # atno 17395 bound_to 11000

$$$$
