AV-unprocessed.smi:867|AV-procd|sdf|3996|dock2
  -GOLD-   22720 1473D 1   1.00000     0.00000
 Structure written by MMmdl.
 53 56  0  0  0  0  0  0  0  0  2 V2000
  148.1174  140.9565  155.7169 O   0  0  0  0  0  0  0  0  0  0  0  0
  149.1954  140.4139  155.4716 C   0  0  0  0  0  0  0  0  0  0  0  0
  150.3525  140.8481  155.9993 N   0  0  0  0  0  0  0  0  0  0  0  0
  150.4889  141.9692  156.9210 C   0  0  0  0  0  0  0  0  0  0  0  0
  151.8843  142.0062  157.5636 C   0  0  0  0  0  0  0  0  0  0  0  0
  151.9639  143.0197  158.6878 C   0  0  0  0  0  0  0  0  0  0  0  0
  151.8124  144.3981  158.4315 C   0  0  0  0  0  0  0  0  0  0  0  0
  151.9019  145.3018  159.5077 C   0  0  0  0  0  0  0  0  0  0  0  0
  152.1410  144.7870  160.7978 C   0  0  0  0  0  0  0  0  0  0  0  0
  152.2880  143.4693  161.0550 N   0  0  0  0  0  0  0  0  0  0  0  0
  152.2000  142.6095  160.0173 C   0  0  0  0  0  0  0  0  0  0  0  0
  149.3233  139.3800  154.6033 N   0  0  0  0  0  0  0  0  0  0  0  0
  150.5067  138.5270  154.4417 C   0  0  0  0  0  0  0  0  0  0  0  0
  150.2287  137.1674  155.1063 C   0  0  0  0  0  0  0  0  0  0  0  0
  149.0070  136.5092  154.5534 N   0  3  0  0  0  0  0  0  0  0  0  0
  148.7508  135.1864  155.2028 C   0  0  2  0  0  0  0  0  0  0  0  0
  150.0209  134.2938  155.2161 C   0  0  0  0  0  0  0  0  0  0  0  0
  149.5510  132.9807  154.5691 C   0  0  1  0  0  0  0  0  0  0  0  0
  148.5841  132.2553  155.5193 C   0  0  0  0  0  0  0  0  0  0  0  0
  147.3197  133.1274  155.4351 C   0  0  0  0  0  0  0  0  0  0  0  0
  147.7392  134.2567  154.4727 C   0  0  2  0  0  0  0  0  0  0  0  0
  148.6161  133.4973  153.4835 C   0  0  0  0  0  0  0  0  0  0  0  0
  147.8325  137.4311  154.5448 C   0  0  0  0  0  0  0  0  0  0  0  0
  148.1722  138.7949  153.9151 C   0  0  0  0  0  0  0  0  0  0  0  0
  151.2029  140.3740  155.7322 H   0  0  0  0  0  0  0  0  0  0  0  0
  150.3137  142.8881  156.3606 H   0  0  0  0  0  0  0  0  0  0  0  0
  149.7141  141.9214  157.6882 H   0  0  0  0  0  0  0  0  0  0  0  0
  152.1480  141.0230  157.9557 H   0  0  0  0  0  0  0  0  0  0  0  0
  152.6368  142.2502  156.8126 H   0  0  0  0  0  0  0  0  0  0  0  0
  151.6337  144.7585  157.4288 H   0  0  0  0  0  0  0  0  0  0  0  0
  151.7916  146.3642  159.3484 H   0  0  0  0  0  0  0  0  0  0  0  0
  152.2165  145.4518  161.6454 H   0  0  0  0  0  0  0  0  0  0  0  0
  152.3257  141.5633  160.2554 H   0  0  0  0  0  0  0  0  0  0  0  0
  150.7083  138.3889  153.3784 H   0  0  0  0  0  0  0  0  0  0  0  0
  151.4190  138.9553  154.8569 H   0  0  0  0  0  0  0  0  0  0  0  0
  151.1031  136.5309  154.9769 H   0  0  0  0  0  0  0  0  0  0  0  0
  150.1045  137.3085  156.1815 H   0  0  0  0  0  0  0  0  0  0  0  0
  148.4017  135.3749  156.2198 H   0  0  0  0  0  0  0  0  0  0  0  0
  150.8224  134.7161  154.6084 H   0  0  0  0  0  0  0  0  0  0  0  0
  150.4134  134.1448  156.2228 H   0  0  0  0  0  0  0  0  0  0  0  0
  150.3679  132.3521  154.2133 H   0  0  0  0  0  0  0  0  0  0  0  0
  148.3764  131.2436  155.1684 H   0  0  0  0  0  0  0  0  0  0  0  0
  148.9764  132.1854  156.5345 H   0  0  0  0  0  0  0  0  0  0  0  0
  146.4904  132.5538  155.0185 H   0  0  0  0  0  0  0  0  0  0  0  0
  147.0052  133.5023  156.4097 H   0  0  0  0  0  0  0  0  0  0  0  0
  146.8667  134.7376  154.0364 H   0  0  0  0  0  0  0  0  0  0  0  0
  149.1087  134.1442  152.7557 H   0  0  0  0  0  0  0  0  0  0  0  0
  148.0861  132.7024  152.9555 H   0  0  0  0  0  0  0  0  0  0  0  0
  147.0142  137.0089  153.9657 H   0  0  0  0  0  0  0  0  0  0  0  0
  147.4720  137.5704  155.5653 H   0  0  0  0  0  0  0  0  0  0  0  0
  147.2961  139.4450  153.9373 H   0  0  0  0  0  0  0  0  0  0  0  0
  148.4148  138.6684  152.8589 H   0  0  0  0  0  0  0  0  0  0  0  0
  149.2062  136.3150  153.5825 H   0  0  0  0  0  0  0  0  0  0  0  0
  1  2  2  0  0  0  0
  2  3  1  0  0  0  0
  2 12  1  0  0  0  0
  3  4  1  0  0  0  0
  3 25  1  0  0  0  0
  4  5  1  0  0  0  0
  4 26  1  0  0  0  0
  4 27  1  0  0  0  0
  5  6  1  0  0  0  0
  5 28  1  0  0  0  0
  5 29  1  0  0  0  0
  6 11  1  0  0  0  0
  6  7  2  0  0  0  0
  7  8  1  0  0  0  0
  7 30  1  0  0  0  0
  8  9  2  0  0  0  0
  8 31  1  0  0  0  0
  9 10  1  0  0  0  0
  9 32  1  0  0  0  0
 10 11  2  0  0  0  0
 11 33  1  0  0  0  0
 12 24  1  0  0  0  0
 12 13  1  0  0  0  0
 13 14  1  0  0  0  0
 13 34  1  0  0  0  0
 13 35  1  0  0  0  0
 14 15  1  0  0  0  0
 14 36  1  0  0  0  0
 14 37  1  0  0  0  0
 15 16  1  0  0  0  0
 15 23  1  0  0  0  0
 15 53  1  0  0  0  0
 16 21  1  0  0  0  0
 16 17  1  0  0  0  0
 16 38  1  0  0  0  0
 17 18  1  0  0  0  0
 17 39  1  0  0  0  0
 17 40  1  0  0  0  0
 18 22  1  0  0  0  0
 18 19  1  0  0  0  0
 18 41  1  0  0  0  0
 19 20  1  0  0  0  0
 19 42  1  0  0  0  0
 19 43  1  0  0  0  0
 20 21  1  0  0  0  0
 20 44  1  0  0  0  0
 20 45  1  0  0  0  0
 21 22  1  0  0  0  0
 21 46  1  0  0  0  0
 22 47  1  0  0  0  0
 22 48  1  0  0  0  0
 23 24  1  0  0  0  0
 23 49  1  0  0  0  0
 23 50  1  0  0  0  0
 24 51  1  0  0  0  0
 24 52  1  0  0  0  0
M  CHG  1  15   1
M  END
> <s_m_source_file>
AV-unprocessed.smi

> <i_m_source_file_index>
867

> <i_lp_mmshare_version>
43012

> <i_f3d_flags>
0

> <s_epik_input>
W0NIMl0xW0NIMl1bQ0BASF0oW0NIMl0yKVtDQEBIXShbQ0gyXVtDQEhdMTIpTihbQ0gyXVtDSDJdMylbQ0gyXVtDSDJdTjNDKD1PKVtOSF1bQ0gyXVtDSDJdYzRbY0hdW2NIXVtjSF1uW2NIXTQ=

> <s_epik_cmdline>
J2VwaWtfcHl0aG9uJywgJy1waCcsICc3LjAnLCAnLXRuJywgJzgnLCAnLW1hJywgJzIwMCcsICctbWV0YWxfYmluZGluZycsICctaW1hZScsICc8aW5maWxlLm1hZT4nLCAnLW9tYWUnLCAnPG91dGZpbGUubWFlPic=

> <r_epik_Ionization_Penalty>
0.0161279

> <r_epik_Ionization_Penalty_Charging>
0.00262064

> <r_epik_Ionization_Penalty_Neutral>
0.0135072

> <r_epik_State_Penalty>
0.0104914

> <r_epik_Charging_Adjusted_Penalty>
0.013112

> <i_epik_Tot_Q>
1

> <i_epik_Tot_abs_Q>
1

> <r_epik_Metal_State_Penalty>
0.0102536

> <b_epik_Metal_Only>
0

> <s_lp_Force_Field>
OPLS_2005

> <r_lp_Energy>
96.257

> <b_lp_Chiralities_Consistent>
1

> <s_lp_Variant>
AV-unprocessed.smi:867-3

> <Gold.Version>
5.8.1

> <Gold.Id.Protein>
6NUR|6NUR_protein|mol2

> <Gold.PLP.Fitness>
47.8258

> <Gold.PLP.PLP>
-42.1805

> <Gold.PLP.part.hbond>
-1.0000

> <Gold.PLP.part.metal>
0.0000

> <Gold.PLP.part.buried>
-6.0851

> <Gold.PLP.part.nonpolar>
-35.8534

> <Gold.PLP.part.repulsive>
0.2356

> <Gold.PLP.ligand.clash>
0.0000

> <Gold.PLP.ligand.torsion>
0.2470

> <Gold.PLP.Chemscore.Hbond>
2.0000

> <Gold.PLP.Chemscore.CHOScore>
0.0000

> <Gold.PLP.Chemscore.Metal>
0.0000

> <Gold.Chemscore.Hbonds>
donor molecule, donor type, donor heavy atom, donor atom, acceptor molecule, acceptor atom, score
      L1  H    15    53       P1  7948  2.00

> <Gold.PLP.Chemscore.Internal.Correction>
0.1393

> <Gold.Rescore>
     Score         DG    S(hbond)    S(metal)    S(lipo)     H(rot)  DE(clash)    DE(int)     intcor
     19.17     -19.64       0.96        0.00     123.75       1.37       0.19       0.28       ----

> <Gold.Chemscore.Fitness>
19.1737

> <Gold.Chemscore.DG>
-19.6380

> <Gold.Chemscore.ZeroCoef>
-5.4800

> <Gold.Chemscore.Hbond>
0.9563

> <Gold.Chemscore.Metal>
0.0000

> <Gold.Chemscore.Lipo>
123.7527

> <Gold.Chemscore.Internal_Hbond>
0.0000

> <Gold.Chemscore.DEClash>
0.1888

> <Gold.Chemscore.DEInternal>
0.2755

> <Gold.Chemscore.Rot>
1.3731

> <Gold.Chemscore.Internal.Correction>
   9.000000E+99

> <Gold.Chemscore.Hbonds>
donor molecule, donor type, donor heavy atom, donor atom, acceptor molecule, acceptor atom, score
      L1  H    15    53       P1  7948  0.92

> <Gold.Chemscore.Hbond.Weighted>
-3.1942

> <Gold.Chemscore.Metal.Weighted>
-0.0000

> <Gold.Chemscore.Lipo.Weighted>
-14.4791

> <Gold.Chemscore.Internal_Hbond.Weighted>
0.0000

> <Gold.Chemscore.DEClash.Weighted>
0.1888

> <Gold.Chemscore.DEInternal.Weighted>
0.2755

> <Gold.Chemscore.Rot.Weighted>
3.5152

> <Gold.Chemscore.Internal.Correction.Weighted>
   9.000000E+99

> <Gold.Protein.RotatedTorsions>
[ 6907 6896 6895 6894 ] final  -33.94 input  -60.11 | X-H torsion
[ 7974 7965 7964 7962 ] final  -68.89 input  175.53 | X-H torsion
[ 8008 7997 7996 7995 ] final -172.30 input   59.86 | X-H torsion
[ 10167 10162 10161 10158 ] final  -80.56 input  -65.29 | X-H torsion
[ 10718 10713 10712 10709 ] final   19.14 input   66.30 | X-H torsion
[ 10763 10752 10751 10750 ] final  172.74 input  -60.55 | X-H torsion
[ 11005 11000 10999 10996 ] final  -30.19 input  -57.11 | X-H torsion

> <Gold.Protein.ActiveResidues>
 VAL166  LYS551  ARG553  GLY616  TRP617  ASP618  TYR619  PRO620  LYS621  CYS622 
 ASP623  PHE694  ASN695  SER759  ASP760  ASP761  ALA762  ILE779  LEU786  VAL792 
 PHE793  MET794  SER795  GLU796  ALA797  LYS798  CYS799  TRP800  GLU811  SER814 

> <Gold.Protein.RotatedAtoms>
  151.0591  134.9725  159.8250 H   0  0  0  0  0  0  0  0  0  0  0  0  # atno 6907 bound_to 6896
  152.5393  134.2440  159.8883 H   0  0  0  0  0  0  0  0  0  0  0  0  # atno 6908 bound_to 6896
  151.2459  133.4332  159.2643 H   0  0  0  0  0  0  0  0  0  0  0  0  # atno 6909 bound_to 6896
  145.7107  140.9079  143.0682 H   0  0  0  0  0  0  0  0  0  0  0  0  # atno 7974 bound_to 7965
  155.9427  140.1111  157.1042 H   0  0  0  0  0  0  0  0  0  0  0  0  # atno 8008 bound_to 7997
  154.4093  140.1216  156.5015 H   0  0  0  0  0  0  0  0  0  0  0  0  # atno 8009 bound_to 7997
  155.6941  140.3472  155.4908 H   0  0  0  0  0  0  0  0  0  0  0  0  # atno 8010 bound_to 7997
  140.4492  143.2489  151.8514 H   0  0  0  0  0  0  0  0  0  0  0  0  # atno 10167 bound_to 10162
  157.1062  130.6489  149.5885 H   0  0  0  0  0  0  0  0  0  0  0  0  # atno 10718 bound_to 10713
  154.4304  135.2759  155.1916 H   0  0  0  0  0  0  0  0  0  0  0  0  # atno 10763 bound_to 10752
  154.3825  135.6084  153.5802 H   0  0  0  0  0  0  0  0  0  0  0  0  # atno 10764 bound_to 10752
  152.9836  135.5884  154.4614 H   0  0  0  0  0  0  0  0  0  0  0  0  # atno 10765 bound_to 10752
  140.9361  133.7308  156.1007 H   0  0  0  0  0  0  0  0  0  0  0  0  # atno 11005 bound_to 11000
  144.6943  139.9071  143.7461 LP  0  0  0  0  0  0  0  0  0  0  0  0  # atno 17320 bound_to 7965
  146.0715  139.3704  143.0520 LP  0  0  0  0  0  0  0  0  0  0  0  0  # atno 17321 bound_to 7965
  139.4795  144.5140  151.8893 LP  0  0  0  0  0  0  0  0  0  0  0  0  # atno 17342 bound_to 10162
  140.4228  144.2221  150.5887 LP  0  0  0  0  0  0  0  0  0  0  0  0  # atno 17343 bound_to 10162
  155.9861  130.4895  150.7065 LP  0  0  0  0  0  0  0  0  0  0  0  0  # atno 17370 bound_to 10713
  157.4599  131.0882  151.0757 LP  0  0  0  0  0  0  0  0  0  0  0  0  # atno 17371 bound_to 10713
  140.7797  134.3739  157.5490 LP  0  0  0  0  0  0  0  0  0  0  0  0  # atno 17394 bound_to 11000
  139.8808  134.9074  156.2944 LP  0  0  0  0  0  0  0  0  0  0  0  0  # atno 17395 bound_to 11000

$$$$
