AV-unprocessed.smi:2353|AV-procd|sdf|9380|dock1
  -GOLD-   2272013 03D 1   1.00000     0.00000
 Structure written by MMmdl.
 45 47  0  0  0  0  0  0  0  0  1 V2000
  151.0907  144.1771  158.7480 C   0  0  0  0  0  0  0  0  0  0  0  0
  151.8926  143.2098  159.5943 C   0  0  0  0  0  0  0  0  0  0  0  0
  152.4693  143.6348  160.8068 C   0  0  0  0  0  0  0  0  0  0  0  0
  153.2082  142.7289  161.5885 C   0  0  0  0  0  0  0  0  0  0  0  0
  153.3762  141.3948  161.1637 C   0  0  0  0  0  0  0  0  0  0  0  0
  154.1762  140.4307  162.0194 C   0  0  0  0  0  0  0  0  0  0  0  0
  152.8062  140.9555  159.9463 C   0  0  0  0  0  0  0  0  0  0  0  0
  153.0129  139.6394  159.5876 O   0  0  0  0  0  0  0  0  0  0  0  0
  152.1946  139.0730  158.5731 C   0  0  0  0  0  0  0  0  0  0  0  0
  151.4860  137.8353  159.1482 C   0  0  2  0  0  0  0  0  0  0  0  0
  152.4102  136.7653  159.1042 O   0  0  0  0  0  0  0  0  0  0  0  0
  150.2543  137.4340  158.3061 C   0  0  0  0  0  0  0  0  0  0  0  0
  150.4023  137.8184  156.8973 N   0  0  0  0  0  0  0  0  0  0  0  0
  149.5491  138.8320  156.5002 N   0  0  0  0  0  0  0  0  0  0  0  0
  149.5797  139.2953  155.2937 C   0  0  0  0  0  0  0  0  0  0  0  0
  148.6851  140.3679  154.8972 N   0  0  0  0  0  0  0  0  0  0  0  0
  148.7985  141.0294  153.6736 C   0  0  0  0  0  0  0  0  0  0  0  0
  147.7934  141.9715  153.6600 C   0  0  0  0  0  0  0  0  0  0  0  0
  147.0635  141.9100  154.8455 N   0  0  0  0  0  0  0  0  0  0  0  0
  147.6512  140.9384  155.5312 C   0  0  0  0  0  0  0  0  0  0  0  0
  150.5168  138.7319  154.3276 C   0  0  0  0  0  0  0  0  0  0  0  0
  151.3424  137.7397  154.7252 C   0  0  0  0  0  0  0  0  0  0  0  0
  151.3254  137.2179  156.0902 C   0  0  0  0  0  0  0  0  0  0  0  0
  152.0748  136.3227  156.4793 O   0  0  0  0  0  0  0  0  0  0  0  0
  152.0599  141.8768  159.1676 C   0  0  0  0  0  0  0  0  0  0  0  0
  151.1765  145.1981  159.1211 H   0  0  0  0  0  0  0  0  0  0  0  0
  150.0369  143.8983  158.7544 H   0  0  0  0  0  0  0  0  0  0  0  0
  151.4441  144.1627  157.7168 H   0  0  0  0  0  0  0  0  0  0  0  0
  152.3471  144.6542  161.1428 H   0  0  0  0  0  0  0  0  0  0  0  0
  153.6462  143.0637  162.5174 H   0  0  0  0  0  0  0  0  0  0  0  0
  155.0673  140.1005  161.4845 H   0  0  0  0  0  0  0  0  0  0  0  0
  153.5765  139.5533  162.2631 H   0  0  0  0  0  0  0  0  0  0  0  0
  154.4922  140.8939  162.9546 H   0  0  0  0  0  0  0  0  0  0  0  0
  151.4506  139.8163  158.2829 H   0  0  0  0  0  0  0  0  0  0  0  0
  152.7725  138.8126  157.6843 H   0  0  0  0  0  0  0  0  0  0  0  0
  151.1940  138.0318  160.1807 H   0  0  0  0  0  0  0  0  0  0  0  0
  153.1876  137.0570  158.6532 H   0  0  0  0  0  0  0  0  0  0  0  0
  150.1056  136.3539  158.3565 H   0  0  0  0  0  0  0  0  0  0  0  0
  149.3439  137.8602  158.7328 H   0  0  0  0  0  0  0  0  0  0  0  0
  149.5387  140.8208  152.9185 H   0  0  0  0  0  0  0  0  0  0  0  0
  147.5423  142.6878  152.8918 H   0  0  0  0  0  0  0  0  0  0  0  0
  147.3200  140.6366  156.5140 H   0  0  0  0  0  0  0  0  0  0  0  0
  150.5725  139.0715  153.3073 H   0  0  0  0  0  0  0  0  0  0  0  0
  152.0372  137.3166  154.0144 H   0  0  0  0  0  0  0  0  0  0  0  0
  151.6022  141.5821  158.2355 H   0  0  0  0  0  0  0  0  0  0  0  0
  1  2  1  0  0  0  0
  1 26  1  0  0  0  0
  1 27  1  0  0  0  0
  1 28  1  0  0  0  0
  2 25  1  0  0  0  0
  2  3  2  0  0  0  0
  3  4  1  0  0  0  0
  3 29  1  0  0  0  0
  4  5  2  0  0  0  0
  4 30  1  0  0  0  0
  5  6  1  0  0  0  0
  5  7  1  0  0  0  0
  6 31  1  0  0  0  0
  6 32  1  0  0  0  0
  6 33  1  0  0  0  0
  7  8  1  0  0  0  0
  7 25  2  0  0  0  0
  8  9  1  0  0  0  0
  9 10  1  0  0  0  0
  9 34  1  0  0  0  0
  9 35  1  0  0  0  0
 10 11  1  0  0  0  0
 10 12  1  0  0  0  0
 10 36  1  0  0  0  0
 11 37  1  0  0  0  0
 12 13  1  0  0  0  0
 12 38  1  0  0  0  0
 12 39  1  0  0  0  0
 13 23  1  0  0  0  0
 13 14  1  0  0  0  0
 14 15  2  0  0  0  0
 15 16  1  0  0  0  0
 15 21  1  0  0  0  0
 16 20  1  0  0  0  0
 16 17  1  0  0  0  0
 17 18  2  0  0  0  0
 17 40  1  0  0  0  0
 18 19  1  0  0  0  0
 18 41  1  0  0  0  0
 19 20  2  0  0  0  0
 20 42  1  0  0  0  0
 21 22  2  0  0  0  0
 21 43  1  0  0  0  0
 22 23  1  0  0  0  0
 22 44  1  0  0  0  0
 23 24  2  0  0  0  0
 25 45  1  0  0  0  0
M  END
> <s_m_source_file>
AV-unprocessed.smi

> <i_m_source_file_index>
2353

> <i_lp_mmshare_version>
43012

> <i_f3d_flags>
0

> <s_epik_input>
W0NIM11jMVtjSF1bY0hdYyhbQ0gzXSljKFtjSF0xKU9bQ0gyXVtDQEhdKFtPSF0pW0NIMl1uMm5jKFtjSF1bY0hdYzI9TyktbjNbY0hdW2NIXW5bY0hdMw==

> <s_epik_cmdline>
J2VwaWtfcHl0aG9uJywgJy1waCcsICc3LjAnLCAnLXRuJywgJzgnLCAnLW1hJywgJzIwMCcsICctbWV0YWxfYmluZGluZycsICctaW1hZScsICc8aW5maWxlLm1hZT4nLCAnLW9tYWUnLCAnPG91dGZpbGUubWFlPic=

> <r_lp_tautomer_probability>
1

> <r_epik_Ionization_Penalty>
0.03707

> <r_epik_Ionization_Penalty_Charging>
0.0370699

> <r_epik_Ionization_Penalty_Neutral>
1.17174e-07

> <r_epik_State_Penalty>
0.0310055

> <r_epik_Charging_Adjusted_Penalty>
0.0680754

> <i_epik_Tot_Q>
0

> <i_epik_Tot_abs_Q>
0

> <r_epik_Metal_State_Penalty>
0.0291724

> <b_epik_Metal_Only>
0

> <s_lp_Force_Field>
OPLS_2005

> <r_lp_Energy>
36.9493

> <b_lp_Chiralities_Consistent>
1

> <s_lp_Variant>
AV-unprocessed.smi:2353-1

> <Gold.Version>
5.8.1

> <Gold.Id.Protein>
6NUR|6NUR_protein|mol2

> <Gold.PLP.Fitness>
52.2275

> <Gold.PLP.PLP>
-45.7947

> <Gold.PLP.part.hbond>
-2.0000

> <Gold.PLP.part.metal>
0.0000

> <Gold.PLP.part.buried>
-6.9158

> <Gold.PLP.part.nonpolar>
-37.9359

> <Gold.PLP.part.repulsive>
0.1263

> <Gold.PLP.ligand.clash>
0.0000

> <Gold.PLP.ligand.torsion>
1.2407

> <Gold.PLP.Chemscore.Hbond>
1.9040

> <Gold.PLP.Chemscore.CHOScore>
1.0000

> <Gold.PLP.Chemscore.Metal>
0.0000

> <Gold.Chemscore.Hbonds>
donor molecule, donor type, donor heavy atom, donor atom, acceptor molecule, acceptor atom, score
      P1  H  6896  6907       L1    11  0.96
      P1  H 10752 10765       L1    24  1.00
      L1  C    17    40       P1  7957  0.72

> <Gold.PLP.Chemscore.Internal.Correction>
0.2021

> <Gold.Rescore>
     Score         DG    S(hbond)    S(metal)    S(lipo)     H(rot)  DE(clash)    DE(int)     intcor
     17.11     -20.05       1.80        0.00     130.09       2.60       0.14       2.80       ----

> <Gold.Chemscore.Fitness>
17.1120

> <Gold.Chemscore.DG>
-20.0505

> <Gold.Chemscore.ZeroCoef>
-5.4800

> <Gold.Chemscore.Hbond>
1.7970

> <Gold.Chemscore.Metal>
0.0000

> <Gold.Chemscore.Lipo>
130.0918

> <Gold.Chemscore.Internal_Hbond>
0.0000

> <Gold.Chemscore.DEClash>
0.1389

> <Gold.Chemscore.DEInternal>
2.7996

> <Gold.Chemscore.Rot>
2.5986

> <Gold.Chemscore.Internal.Correction>
   9.000000E+99

> <Gold.Chemscore.Hbonds>
donor molecule, donor type, donor heavy atom, donor atom, acceptor molecule, acceptor atom, score
      P1  H  6896  6907       L1    11  0.82
      P1  H 10752 10765       L1    24  0.94

> <Gold.Chemscore.Hbond.Weighted>
-6.0021

> <Gold.Chemscore.Metal.Weighted>
-0.0000

> <Gold.Chemscore.Lipo.Weighted>
-15.2207

> <Gold.Chemscore.Internal_Hbond.Weighted>
0.0000

> <Gold.Chemscore.DEClash.Weighted>
0.1389

> <Gold.Chemscore.DEInternal.Weighted>
2.7996

> <Gold.Chemscore.Rot.Weighted>
6.6524

> <Gold.Chemscore.Internal.Correction.Weighted>
   9.000000E+99

> <Gold.Protein.RotatedTorsions>
[ 6907 6896 6895 6894 ] final   14.87 input  -60.11 | X-H torsion
[ 7974 7965 7964 7962 ] final   21.23 input  175.53 | X-H torsion
[ 8008 7997 7996 7995 ] final -160.61 input   59.86 | X-H torsion
[ 10167 10162 10161 10158 ] final   10.98 input  -65.29 | X-H torsion
[ 10718 10713 10712 10709 ] final   72.20 input   66.30 | X-H torsion
[ 10763 10752 10751 10750 ] final -140.87 input  -60.55 | X-H torsion
[ 11005 11000 10999 10996 ] final -162.76 input  -57.11 | X-H torsion

> <Gold.Protein.ActiveResidues>
 VAL166  LYS551  ARG553  GLY616  TRP617  ASP618  TYR619  PRO620  LYS621  CYS622 
 ASP623  PHE694  ASN695  SER759  ASP760  ASP761  ALA762  ILE779  LEU786  VAL792 
 PHE793  MET794  SER795  GLU796  ALA797  LYS798  CYS799  TRP800  GLU811  SER814 

> <Gold.Protein.RotatedAtoms>
  151.8090  135.0686  160.0410 H   0  0  0  0  0  0  0  0  0  0  0  0  # atno 6907 bound_to 6896
  152.3034  133.5674  159.5641 H   0  0  0  0  0  0  0  0  0  0  0  0  # atno 6908 bound_to 6896
  150.7284  134.0174  159.3732 H   0  0  0  0  0  0  0  0  0  0  0  0  # atno 6909 bound_to 6896
  146.2080  139.8057  142.8711 H   0  0  0  0  0  0  0  0  0  0  0  0  # atno 7974 bound_to 7965
  155.7800  140.0864  157.2064 H   0  0  0  0  0  0  0  0  0  0  0  0  # atno 8008 bound_to 7997
  154.3991  140.1509  156.3099 H   0  0  0  0  0  0  0  0  0  0  0  0  # atno 8009 bound_to 7997
  155.8663  140.3428  155.5793 H   0  0  0  0  0  0  0  0  0  0  0  0  # atno 8010 bound_to 7997
  140.6160  143.8306  150.7119 H   0  0  0  0  0  0  0  0  0  0  0  0  # atno 10167 bound_to 10162
  157.6489  130.9566  150.0895 H   0  0  0  0  0  0  0  0  0  0  0  0  # atno 10718 bound_to 10713
  154.8564  135.3541  154.5777 H   0  0  0  0  0  0  0  0  0  0  0  0  # atno 10763 bound_to 10752
  153.6388  135.6999  153.5253 H   0  0  0  0  0  0  0  0  0  0  0  0  # atno 10764 bound_to 10752
  153.2988  135.4212  155.1193 H   0  0  0  0  0  0  0  0  0  0  0  0  # atno 10765 bound_to 10752
  140.6057  134.4902  157.5210 H   0  0  0  0  0  0  0  0  0  0  0  0  # atno 11005 bound_to 11000
  145.3249  141.0253  143.3479 LP  0  0  0  0  0  0  0  0  0  0  0  0  # atno 17320 bound_to 7965
  144.8840  139.4865  143.6709 LP  0  0  0  0  0  0  0  0  0  0  0  0  # atno 17321 bound_to 7965
  140.1885  143.4055  152.1880 LP  0  0  0  0  0  0  0  0  0  0  0  0  # atno 17342 bound_to 10162
  139.5399  144.7246  151.4768 LP  0  0  0  0  0  0  0  0  0  0  0  0  # atno 17343 bound_to 10162
  156.1848  130.3652  149.8987 LP  0  0  0  0  0  0  0  0  0  0  0  0  # atno 17370 bound_to 10713
  156.6930  130.8903  151.3590 LP  0  0  0  0  0  0  0  0  0  0  0  0  # atno 17371 bound_to 10713
  139.9213  134.8142  156.1202 LP  0  0  0  0  0  0  0  0  0  0  0  0  # atno 17394 bound_to 11000
  141.0842  133.6741  156.2401 LP  0  0  0  0  0  0  0  0  0  0  0  0  # atno 17395 bound_to 11000

$$$$
