AV-unprocessed.smi:1218|AV-procd|sdf|5106|dock4
  -GOLD-   22720 4153D 1   1.00000     0.00000
 Structure written by MMmdl.
 45 46  0  0  0  0  0  0  0  0  2 V2000
  153.0006  143.2262  158.9511 C   0  0  0  0  0  0  0  0  0  0  0  0
  151.8906  144.2556  158.6903 C   0  0  0  0  0  0  0  0  0  0  0  0
  152.0834  145.4917  159.5849 C   0  0  0  0  0  0  0  0  0  0  0  0
  150.5001  143.6145  158.8888 C   0  0  0  0  0  0  0  0  0  0  0  0
  149.9921  142.9322  157.6708 N   0  3  1  0  0  0  0  0  0  0  0  0
  150.9386  141.9365  157.1101 C   0  0  0  0  0  0  0  0  0  0  0  0
  150.3535  141.2937  155.8430 C   0  0  0  0  0  0  0  0  0  0  0  0
  149.0940  140.7106  156.1472 O   0  0  0  0  0  0  0  0  0  0  0  0
  148.1393  141.6737  156.5817 C   0  0  1  0  0  0  0  0  0  0  0  0
  146.7836  140.9759  156.7941 C   0  0  0  0  0  0  0  0  0  0  0  0
  145.7774  141.8910  157.3238 N   0  0  0  0  0  0  0  0  0  0  0  0
  145.6873  142.2833  158.6041 C   0  0  0  0  0  0  0  0  0  0  0  0
  146.4608  141.8969  159.4816 O   0  0  0  0  0  0  0  0  0  0  0  0
  144.5431  143.2505  158.9307 C   0  0  0  0  0  0  0  0  0  0  0  0
  144.2851  143.3472  160.3583 N   0  0  0  0  0  0  0  0  0  0  0  0
  145.1660  143.6732  161.3692 C   0  0  0  0  0  0  0  0  0  0  0  0
  144.4699  143.6350  162.5432 C   0  0  0  0  0  0  0  0  0  0  0  0
  143.1526  143.2747  162.1434 C   0  0  0  0  0  0  0  0  0  0  0  0
  143.0444  143.1057  160.8354 N   0  0  0  0  0  0  0  0  0  0  0  0
  148.6594  142.3174  157.8825 C   0  0  0  0  0  0  0  0  0  0  0  0
  152.9704  142.8604  159.9779 H   0  0  0  0  0  0  0  0  0  0  0  0
  153.9872  143.6587  158.7813 H   0  0  0  0  0  0  0  0  0  0  0  0
  152.9027  142.3656  158.2883 H   0  0  0  0  0  0  0  0  0  0  0  0
  151.9961  144.5720  157.6529 H   0  0  0  0  0  0  0  0  0  0  0  0
  151.9922  145.2350  160.6409 H   0  0  0  0  0  0  0  0  0  0  0  0
  151.3460  146.2635  159.3646 H   0  0  0  0  0  0  0  0  0  0  0  0
  153.0690  145.9339  159.4360 H   0  0  0  0  0  0  0  0  0  0  0  0
  150.5185  142.9026  159.7155 H   0  0  0  0  0  0  0  0  0  0  0  0
  149.8017  144.3998  159.1824 H   0  0  0  0  0  0  0  0  0  0  0  0
  151.8906  142.4064  156.8661 H   0  0  0  0  0  0  0  0  0  0  0  0
  151.1438  141.1656  157.8545 H   0  0  0  0  0  0  0  0  0  0  0  0
  150.2470  142.0286  155.0434 H   0  0  0  0  0  0  0  0  0  0  0  0
  151.0220  140.5157  155.4739 H   0  0  0  0  0  0  0  0  0  0  0  0
  148.0238  142.4430  155.8156 H   0  0  0  0  0  0  0  0  0  0  0  0
  146.4382  140.5120  155.8685 H   0  0  0  0  0  0  0  0  0  0  0  0
  146.8982  140.1667  157.5160 H   0  0  0  0  0  0  0  0  0  0  0  0
  145.1009  142.2554  156.6685 H   0  0  0  0  0  0  0  0  0  0  0  0
  144.7794  144.2481  158.5581 H   0  0  0  0  0  0  0  0  0  0  0  0
  143.6375  142.9217  158.4184 H   0  0  0  0  0  0  0  0  0  0  0  0
  146.2035  143.8986  161.1704 H   0  0  0  0  0  0  0  0  0  0  0  0
  144.8445  143.8334  163.5363 H   0  0  0  0  0  0  0  0  0  0  0  0
  142.2774  143.1322  162.7602 H   0  0  0  0  0  0  0  0  0  0  0  0
  148.7265  141.5685  158.6736 H   0  0  0  0  0  0  0  0  0  0  0  0
  147.9557  143.0795  158.2202 H   0  0  0  0  0  0  0  0  0  0  0  0
  149.8643  143.6490  156.9706 H   0  0  0  0  0  0  0  0  0  0  0  0
  1  2  1  0  0  0  0
  1 21  1  0  0  0  0
  1 22  1  0  0  0  0
  1 23  1  0  0  0  0
  2  3  1  0  0  0  0
  2  4  1  0  0  0  0
  2 24  1  0  0  0  0
  3 25  1  0  0  0  0
  3 26  1  0  0  0  0
  3 27  1  0  0  0  0
  4  5  1  0  0  0  0
  4 28  1  0  0  0  0
  4 29  1  0  0  0  0
  5 20  1  0  0  0  0
  5  6  1  0  0  0  0
  5 45  1  0  0  0  0
  6  7  1  0  0  0  0
  6 30  1  0  0  0  0
  6 31  1  0  0  0  0
  7  8  1  0  0  0  0
  7 32  1  0  0  0  0
  7 33  1  0  0  0  0
  8  9  1  0  0  0  0
  9 10  1  0  0  0  0
  9 20  1  0  0  0  0
  9 34  1  0  0  0  0
 10 11  1  0  0  0  0
 10 35  1  0  0  0  0
 10 36  1  0  0  0  0
 11 12  1  0  0  0  0
 11 37  1  0  0  0  0
 12 13  2  0  0  0  0
 12 14  1  0  0  0  0
 14 15  1  0  0  0  0
 14 38  1  0  0  0  0
 14 39  1  0  0  0  0
 15 19  1  0  0  0  0
 15 16  1  0  0  0  0
 16 17  2  0  0  0  0
 16 40  1  0  0  0  0
 17 18  1  0  0  0  0
 17 41  1  0  0  0  0
 18 19  2  0  0  0  0
 18 42  1  0  0  0  0
 20 43  1  0  0  0  0
 20 44  1  0  0  0  0
M  CHG  1   5   1
M  END
> <s_m_source_file>
AV-unprocessed.smi

> <i_m_source_file_index>
1218

> <i_lp_mmshare_version>
43012

> <i_f3d_flags>
0

> <s_epik_input>
W0NIM11bQ0hdKFtDSDNdKVtDSDJdTjFbQ0gyXVtDSDJdT1tDQEhdKFtDSDJdMSlbQ0gyXVtOSF1DKD1PKVtDSDJdbjJbY0hdW2NIXVtjSF1uMg==

> <s_epik_cmdline>
J2VwaWtfcHl0aG9uJywgJy1waCcsICc3LjAnLCAnLXRuJywgJzgnLCAnLW1hJywgJzIwMCcsICctbWV0YWxfYmluZGluZycsICctaW1hZScsICc8aW5maWxlLm1hZT4nLCAnLW9tYWUnLCAnPG91dGZpbGUubWFlPic=

> <r_lp_tautomer_probability>
1

> <r_epik_Ionization_Penalty>
0.0995066

> <r_epik_Ionization_Penalty_Charging>
0.0994921

> <r_epik_Ionization_Penalty_Neutral>
1.44634e-05

> <r_epik_State_Penalty>
0.0895432

> <r_epik_Charging_Adjusted_Penalty>
0.189035

> <i_epik_Tot_Q>
1

> <i_epik_Tot_abs_Q>
1

> <r_epik_Metal_State_Penalty>
0.0895432

> <b_epik_Metal_Only>
0

> <s_lp_Force_Field>
OPLS_2005

> <r_lp_Energy>
18.9521

> <b_lp_Chiralities_Consistent>
1

> <s_lp_Variant>
AV-unprocessed.smi:1218-1

> <Gold.Version>
5.8.1

> <Gold.Id.Protein>
6NUR|6NUR_protein|mol2

> <Gold.PLP.Fitness>
44.4437

> <Gold.PLP.PLP>
-36.6583

> <Gold.PLP.part.hbond>
-2.0000

> <Gold.PLP.part.metal>
0.0000

> <Gold.PLP.part.buried>
-4.4068

> <Gold.PLP.part.nonpolar>
-29.2641

> <Gold.PLP.part.repulsive>
0.1453

> <Gold.PLP.ligand.clash>
0.0000

> <Gold.PLP.ligand.torsion>
0.6879

> <Gold.PLP.Chemscore.Hbond>
3.0000

> <Gold.PLP.Chemscore.CHOScore>
0.0000

> <Gold.PLP.Chemscore.Metal>
0.0000

> <Gold.Chemscore.Hbonds>
donor molecule, donor type, donor heavy atom, donor atom, acceptor molecule, acceptor atom, score
      L1  H     5    45       P1  8028  2.00
      P1  H  6934  6946       L1    13  1.00

> <Gold.PLP.Chemscore.Internal.Correction>
0.1611

> <Gold.Rescore>
     Score         DG    S(hbond)    S(metal)    S(lipo)     H(rot)  DE(clash)    DE(int)     intcor
     17.31     -18.20       1.97        0.00      95.30       1.96       0.04       0.86       ----

> <Gold.Chemscore.Fitness>
17.3062

> <Gold.Chemscore.DG>
-18.2010

> <Gold.Chemscore.ZeroCoef>
-5.4800

> <Gold.Chemscore.Hbond>
1.9744

> <Gold.Chemscore.Metal>
0.0000

> <Gold.Chemscore.Lipo>
95.2999

> <Gold.Chemscore.Internal_Hbond>
0.0000

> <Gold.Chemscore.DEClash>
0.0387

> <Gold.Chemscore.DEInternal>
0.8561

> <Gold.Chemscore.Rot>
1.9624

> <Gold.Chemscore.Internal.Correction>
   9.000000E+99

> <Gold.Chemscore.Hbonds>
donor molecule, donor type, donor heavy atom, donor atom, acceptor molecule, acceptor atom, score
      L1  H     5    45       P1  8028  0.96
      P1  H  6934  6946       L1    13  0.94

> <Gold.Chemscore.Hbond.Weighted>
-6.5946

> <Gold.Chemscore.Metal.Weighted>
-0.0000

> <Gold.Chemscore.Lipo.Weighted>
-11.1501

> <Gold.Chemscore.Internal_Hbond.Weighted>
0.0000

> <Gold.Chemscore.DEClash.Weighted>
0.0387

> <Gold.Chemscore.DEInternal.Weighted>
0.8561

> <Gold.Chemscore.Rot.Weighted>
5.0237

> <Gold.Chemscore.Internal.Correction.Weighted>
   9.000000E+99

> <Gold.Protein.RotatedTorsions>
[ 6907 6896 6895 6894 ] final -136.36 input  -60.11 | X-H torsion
[ 7974 7965 7964 7962 ] final  -73.51 input  175.53 | X-H torsion
[ 8008 7997 7996 7995 ] final   28.33 input   59.86 | X-H torsion
[ 10167 10162 10161 10158 ] final -120.84 input  -65.29 | X-H torsion
[ 10718 10713 10712 10709 ] final  169.36 input   66.30 | X-H torsion
[ 10763 10752 10751 10750 ] final  147.02 input  -60.55 | X-H torsion
[ 11005 11000 10999 10996 ] final -161.21 input  -57.11 | X-H torsion

> <Gold.Protein.ActiveResidues>
 VAL166  LYS551  ARG553  GLY616  TRP617  ASP618  TYR619  PRO620  LYS621  CYS622 
 ASP623  PHE694  ASN695  SER759  ASP760  ASP761  ALA762  ILE779  LEU786  VAL792 
 PHE793  MET794  SER795  GLU796  ALA797  LYS798  CYS799  TRP800  GLU811  SER814 

> <Gold.Protein.RotatedAtoms>
  151.0091  133.5982  159.2684 H   0  0  0  0  0  0  0  0  0  0  0  0  # atno 6907 bound_to 6896
  151.3141  135.0801  159.9292 H   0  0  0  0  0  0  0  0  0  0  0  0  # atno 6908 bound_to 6896
  152.5295  133.9750  159.7834 H   0  0  0  0  0  0  0  0  0  0  0  0  # atno 6909 bound_to 6896
  145.6512  140.9282  143.0984 H   0  0  0  0  0  0  0  0  0  0  0  0  # atno 7974 bound_to 7965
  155.0570  140.3186  155.4673 H   0  0  0  0  0  0  0  0  0  0  0  0  # atno 8008 bound_to 7997
  156.2822  140.2136  156.5641 H   0  0  0  0  0  0  0  0  0  0  0  0  # atno 8009 bound_to 7997
  154.7163  140.0493  157.0585 H   0  0  0  0  0  0  0  0  0  0  0  0  # atno 8010 bound_to 7997
  140.0315  143.5244  152.2174 H   0  0  0  0  0  0  0  0  0  0  0  0  # atno 10167 bound_to 10162
  157.0238  131.0239  151.2766 H   0  0  0  0  0  0  0  0  0  0  0  0  # atno 10718 bound_to 10713
  154.0315  135.2897  155.3368 H   0  0  0  0  0  0  0  0  0  0  0  0  # atno 10763 bound_to 10752
  154.6985  135.5198  153.8496 H   0  0  0  0  0  0  0  0  0  0  0  0  # atno 10764 bound_to 10752
  153.0638  135.6623  154.0528 H   0  0  0  0  0  0  0  0  0  0  0  0  # atno 10765 bound_to 10752
  140.6230  134.4731  157.5225 H   0  0  0  0  0  0  0  0  0  0  0  0  # atno 11005 bound_to 11000
  144.7122  139.8328  143.7411 LP  0  0  0  0  0  0  0  0  0  0  0  0  # atno 17320 bound_to 7965
  146.1202  139.4219  143.0233 LP  0  0  0  0  0  0  0  0  0  0  0  0  # atno 17321 bound_to 7965
  139.6073  144.7599  151.3032 LP  0  0  0  0  0  0  0  0  0  0  0  0  # atno 17342 bound_to 10162
  140.7300  143.6892  150.7936 LP  0  0  0  0  0  0  0  0  0  0  0  0  # atno 17343 bound_to 10162
  157.5229  130.8010  149.7830 LP  0  0  0  0  0  0  0  0  0  0  0  0  # atno 17370 bound_to 10713
  156.0093  130.3840  150.2320 LP  0  0  0  0  0  0  0  0  0  0  0  0  # atno 17371 bound_to 10713
  139.9146  134.8273  156.1410 LP  0  0  0  0  0  0  0  0  0  0  0  0  # atno 17394 bound_to 11000
  141.0729  133.6788  156.2177 LP  0  0  0  0  0  0  0  0  0  0  0  0  # atno 17395 bound_to 11000

$$$$
