AV-unprocessed.smi:1338|AV-procd|sdf|5499|dock1
  -GOLD-   22720 5 83D 1   1.00000     0.00000
 Structure written by MMmdl.
 40 41  0  0  0  0  0  0  0  0  1 V2000
  146.7350  136.6111  154.2547 C   0  0  0  0  0  0  0  0  0  0  0  0
  147.3285  137.9979  154.3860 C   0  0  0  0  0  0  0  0  0  0  0  0
  146.6333  139.0593  154.6310 N   0  0  0  0  0  0  0  0  0  0  0  0
  147.2954  140.2911  154.7292 C   0  0  0  0  0  0  0  0  0  0  0  0
  146.4073  141.4904  155.0145 C   0  0  0  0  0  0  0  0  0  0  0  0
  148.6484  140.3911  154.5737 C   0  0  0  0  0  0  0  0  0  0  0  0
  149.3984  141.7182  154.6711 C   0  0  0  0  0  0  0  0  0  0  0  0
  150.4870  141.7729  155.7442 C   0  0  0  0  0  0  0  0  0  0  0  0
  151.2654  140.8292  155.8789 O   0  0  0  0  0  0  0  0  0  0  0  0
  150.5362  142.8859  156.4923 N   0  0  0  0  0  0  0  0  0  0  0  0
  151.5088  143.1538  157.5468 C   0  0  0  0  0  0  0  0  0  0  0  0
  151.3502  142.1436  158.7017 C   0  0  0  0  0  0  0  0  0  0  0  0
  152.3111  142.4573  159.8601 C   0  0  0  0  0  0  0  0  0  0  0  0
  152.1314  143.8994  160.3598 C   0  0  0  0  0  0  0  0  0  0  0  0
  152.2941  144.9087  159.2122 C   0  0  0  0  0  0  0  0  0  0  0  0
  151.3321  144.5974  158.0542 C   0  0  0  0  0  0  0  0  0  0  0  0
  149.4323  139.1720  154.2945 C   0  0  0  0  0  0  0  0  0  0  0  0
  150.6515  139.1473  154.1331 O   0  0  0  0  0  0  0  0  0  0  0  0
  148.7116  138.0311  154.2165 N   0  0  0  0  0  0  0  0  0  0  0  0
  149.2025  137.1701  154.0249 H   0  0  0  0  0  0  0  0  0  0  0  0
  146.0063  136.5901  153.4441 H   0  0  0  0  0  0  0  0  0  0  0  0
  146.2288  136.3306  155.1786 H   0  0  0  0  0  0  0  0  0  0  0  0
  147.5007  135.8628  154.0445 H   0  0  0  0  0  0  0  0  0  0  0  0
  146.7037  141.9780  155.9431 H   0  0  0  0  0  0  0  0  0  0  0  0
  145.3622  141.1940  155.1138 H   0  0  0  0  0  0  0  0  0  0  0  0
  146.4703  142.2158  154.2035 H   0  0  0  0  0  0  0  0  0  0  0  0
  149.8373  141.9430  153.6986 H   0  0  0  0  0  0  0  0  0  0  0  0
  148.7038  142.5393  154.8523 H   0  0  0  0  0  0  0  0  0  0  0  0
  149.8555  143.6085  156.3087 H   0  0  0  0  0  0  0  0  0  0  0  0
  152.5157  143.0627  157.1341 H   0  0  0  0  0  0  0  0  0  0  0  0
  150.3236  142.1627  159.0701 H   0  0  0  0  0  0  0  0  0  0  0  0
  151.5307  141.1295  158.3434 H   0  0  0  0  0  0  0  0  0  0  0  0
  152.1462  141.7573  160.6796 H   0  0  0  0  0  0  0  0  0  0  0  0
  153.3404  142.3100  159.5304 H   0  0  0  0  0  0  0  0  0  0  0  0
  151.1432  144.0105  160.8074 H   0  0  0  0  0  0  0  0  0  0  0  0
  152.8544  144.1128  161.1477 H   0  0  0  0  0  0  0  0  0  0  0  0
  152.1187  145.9202  159.5795 H   0  0  0  0  0  0  0  0  0  0  0  0
  153.3223  144.8855  158.8485 H   0  0  0  0  0  0  0  0  0  0  0  0
  151.4998  145.3029  157.2393 H   0  0  0  0  0  0  0  0  0  0  0  0
  150.3048  144.7501  158.3880 H   0  0  0  0  0  0  0  0  0  0  0  0
  1  2  1  0  0  0  0
  1 21  1  0  0  0  0
  1 22  1  0  0  0  0
  1 23  1  0  0  0  0
  2 19  1  0  0  0  0
  2  3  2  0  0  0  0
  3  4  1  0  0  0  0
  4  5  1  0  0  0  0
  4  6  2  0  0  0  0
  5 24  1  0  0  0  0
  5 25  1  0  0  0  0
  5 26  1  0  0  0  0
  6  7  1  0  0  0  0
  6 17  1  0  0  0  0
  7  8  1  0  0  0  0
  7 27  1  0  0  0  0
  7 28  1  0  0  0  0
  8  9  2  0  0  0  0
  8 10  1  0  0  0  0
 10 11  1  0  0  0  0
 10 29  1  0  0  0  0
 11 16  1  0  0  0  0
 11 12  1  0  0  0  0
 11 30  1  0  0  0  0
 12 13  1  0  0  0  0
 12 31  1  0  0  0  0
 12 32  1  0  0  0  0
 13 14  1  0  0  0  0
 13 33  1  0  0  0  0
 13 34  1  0  0  0  0
 14 15  1  0  0  0  0
 14 35  1  0  0  0  0
 14 36  1  0  0  0  0
 15 16  1  0  0  0  0
 15 37  1  0  0  0  0
 15 38  1  0  0  0  0
 16 39  1  0  0  0  0
 16 40  1  0  0  0  0
 17 18  2  0  0  0  0
 17 19  1  0  0  0  0
 19 20  1  0  0  0  0
M  END
> <s_m_source_file>
AV-unprocessed.smi

> <i_m_source_file_index>
1338

> <i_lp_mmshare_version>
43012

> <i_f3d_flags>
0

> <s_epik_input>
W0NIM11jMW5jKFtDSDNdKWMoYyg9TylbbkhdMSlbQ0gyXUMoPU8pW05IXVtDSF0yW0NIMl1bQ0gyXVtDSDJdW0NIMl1bQ0gyXTI=

> <s_epik_cmdline>
J2VwaWtfcHl0aG9uJywgJy1waCcsICc3LjAnLCAnLXRuJywgJzgnLCAnLW1hJywgJzIwMCcsICctbWV0YWxfYmluZGluZycsICctaW1hZScsICc8aW5maWxlLm1hZT4nLCAnLW9tYWUnLCAnPG91dGZpbGUubWFlPic=

> <r_lp_tautomer_probability>
0.839158

> <r_epik_Ionization_Penalty>
0.000373802

> <r_epik_Ionization_Penalty_Charging>
0.000339356

> <r_epik_Ionization_Penalty_Neutral>
3.44455e-05

> <r_epik_State_Penalty>
0.09125

> <r_epik_Charging_Adjusted_Penalty>
0.0915894

> <i_epik_Tot_Q>
0

> <i_epik_Tot_abs_Q>
0

> <r_epik_Metal_State_Penalty>
0.252336

> <b_epik_Metal_Only>
0

> <s_lp_Force_Field>
OPLS_2005

> <r_lp_Energy>
10.2314

> <b_lp_Chiralities_Consistent>
1

> <s_lp_Variant>
AV-unprocessed.smi:1338-1

> <Gold.Version>
5.8.1

> <Gold.Id.Protein>
6NUR|6NUR_protein|mol2

> <Gold.PLP.Fitness>
41.7067

> <Gold.PLP.PLP>
-35.8459

> <Gold.PLP.part.hbond>
-3.5503

> <Gold.PLP.part.metal>
0.0000

> <Gold.PLP.part.buried>
-2.3027

> <Gold.PLP.part.nonpolar>
-29.5324

> <Gold.PLP.part.repulsive>
0.3782

> <Gold.PLP.ligand.clash>
0.0000

> <Gold.PLP.ligand.torsion>
0.2375

> <Gold.PLP.Chemscore.Hbond>
2.1109

> <Gold.PLP.Chemscore.CHOScore>
0.0000

> <Gold.PLP.Chemscore.Metal>
0.0000

> <Gold.Chemscore.Hbonds>
donor molecule, donor type, donor heavy atom, donor atom, acceptor molecule, acceptor atom, score
      L1  H    10    29       P1  8028  1.00
      L1  H    19    20       P1  7948  0.07
      P1  H  7989  7998       L1    18  0.89

> <Gold.PLP.Chemscore.Internal.Correction>
0.0032

> <Gold.Rescore>
     Score         DG    S(hbond)    S(metal)    S(lipo)     H(rot)  DE(clash)    DE(int)     intcor
     16.39     -19.90       2.27        0.00      91.21       1.49       0.65       2.85       ----

> <Gold.Chemscore.Fitness>
16.3947

> <Gold.Chemscore.DG>
-19.8996

> <Gold.Chemscore.ZeroCoef>
-5.4800

> <Gold.Chemscore.Hbond>
2.2675

> <Gold.Chemscore.Metal>
0.0000

> <Gold.Chemscore.Lipo>
91.2083

> <Gold.Chemscore.Internal_Hbond>
0.0000

> <Gold.Chemscore.DEClash>
0.6513

> <Gold.Chemscore.DEInternal>
2.8537

> <Gold.Chemscore.Rot>
1.4942

> <Gold.Chemscore.Internal.Correction>
   9.000000E+99

> <Gold.Chemscore.Hbonds>
donor molecule, donor type, donor heavy atom, donor atom, acceptor molecule, acceptor atom, score
      L1  H    10    29       P1  8028  0.99
      L1  H    19    20       P1  7948  0.08
      P1  H  7989  7998       L1    18  0.85

> <Gold.Chemscore.Hbond.Weighted>
-7.5735

> <Gold.Chemscore.Metal.Weighted>
-0.0000

> <Gold.Chemscore.Lipo.Weighted>
-10.6714

> <Gold.Chemscore.Internal_Hbond.Weighted>
0.0000

> <Gold.Chemscore.DEClash.Weighted>
0.6513

> <Gold.Chemscore.DEInternal.Weighted>
2.8537

> <Gold.Chemscore.Rot.Weighted>
3.8253

> <Gold.Chemscore.Internal.Correction.Weighted>
   9.000000E+99

> <Gold.Protein.RotatedTorsions>
[ 6907 6896 6895 6894 ] final   83.23 input  -60.11 | X-H torsion
[ 7974 7965 7964 7962 ] final   32.62 input  175.53 | X-H torsion
[ 8008 7997 7996 7995 ] final    3.98 input   59.86 | X-H torsion
[ 10167 10162 10161 10158 ] final -172.45 input  -65.29 | X-H torsion
[ 10718 10713 10712 10709 ] final  -61.78 input   66.30 | X-H torsion
[ 10763 10752 10751 10750 ] final -161.18 input  -60.55 | X-H torsion
[ 11005 11000 10999 10996 ] final -110.87 input  -57.11 | X-H torsion

> <Gold.Protein.ActiveResidues>
 VAL166  LYS551  ARG553  GLY616  TRP617  ASP618  TYR619  PRO620  LYS621  CYS622 
 ASP623  PHE694  ASN695  SER759  ASP760  ASP761  ALA762  ILE779  LEU786  VAL792 
 PHE793  MET794  SER795  GLU796  ALA797  LYS798  CYS799  TRP800  GLU811  SER814 

> <Gold.Protein.RotatedAtoms>
  152.5321  134.2927  159.9048 H   0  0  0  0  0  0  0  0  0  0  0  0  # atno 6907 bound_to 6896
  151.2879  133.4172  159.2639 H   0  0  0  0  0  0  0  0  0  0  0  0  # atno 6908 bound_to 6896
  151.0226  134.9496  159.8125 H   0  0  0  0  0  0  0  0  0  0  0  0  # atno 6909 bound_to 6896
  146.1474  139.6502  142.9122 H   0  0  0  0  0  0  0  0  0  0  0  0  # atno 7974 bound_to 7965
  154.7104  140.2691  155.6635 H   0  0  0  0  0  0  0  0  0  0  0  0  # atno 8008 bound_to 7997
  156.2793  140.2754  156.1667 H   0  0  0  0  0  0  0  0  0  0  0  0  # atno 8009 bound_to 7997
  155.0643  140.0371  157.2577 H   0  0  0  0  0  0  0  0  0  0  0  0  # atno 8010 bound_to 7997
  139.5744  144.1567  152.1429 H   0  0  0  0  0  0  0  0  0  0  0  0  # atno 10167 bound_to 10162
  156.0899  130.4202  150.1042 H   0  0  0  0  0  0  0  0  0  0  0  0  # atno 10718 bound_to 10713
  154.7326  135.3050  154.8865 H   0  0  0  0  0  0  0  0  0  0  0  0  # atno 10763 bound_to 10752
  153.9704  135.6742  153.4751 H   0  0  0  0  0  0  0  0  0  0  0  0  # atno 10764 bound_to 10752
  153.0932  135.4948  154.8652 H   0  0  0  0  0  0  0  0  0  0  0  0  # atno 10765 bound_to 10752
  141.0767  133.9289  157.2375 H   0  0  0  0  0  0  0  0  0  0  0  0  # atno 11005 bound_to 11000
  145.4904  141.0438  143.2596 LP  0  0  0  0  0  0  0  0  0  0  0  0  # atno 17320 bound_to 7965
  144.7863  139.6420  143.7133 LP  0  0  0  0  0  0  0  0  0  0  0  0  # atno 17321 bound_to 7965
  140.1106  144.5460  150.6927 LP  0  0  0  0  0  0  0  0  0  0  0  0  # atno 17342 bound_to 10162
  140.7027  143.2446  151.4817 LP  0  0  0  0  0  0  0  0  0  0  0  0  # atno 17343 bound_to 10162
  156.9054  130.9634  151.3570 LP  0  0  0  0  0  0  0  0  0  0  0  0  # atno 17370 bound_to 10713
  157.6045  130.8537  149.8853 LP  0  0  0  0  0  0  0  0  0  0  0  0  # atno 17371 bound_to 10713
  139.9579  135.0161  156.9180 LP  0  0  0  0  0  0  0  0  0  0  0  0  # atno 17394 bound_to 11000
  140.5558  134.0583  155.7383 LP  0  0  0  0  0  0  0  0  0  0  0  0  # atno 17395 bound_to 11000

$$$$
