AV-unprocessed.smi:283|AV-procd|sdf|2146|dock2
  -GOLD-   2262021473D 1   1.00000     0.00000
 Structure written by MMmdl.
 48 51  0  0  0  0  0  0  0  0  1 V2000
  150.8969  142.3484  157.1663 C   0  0  0  0  0  0  0  0  0  0  0  0
  150.5142  141.4206  158.3271 C   0  0  1  0  0  0  0  0  0  0  0  0
  149.9578  140.1765  157.7998 N   0  0  0  0  0  0  0  0  0  0  0  0
  148.8088  140.1668  157.0881 C   0  0  0  0  0  0  0  0  0  0  0  0
  147.9601  141.1923  157.3378 N   0  0  0  0  0  0  0  0  0  0  0  0
  146.8062  141.2865  156.6717 C   0  0  0  0  0  0  0  0  0  0  0  0
  146.3167  140.4749  155.7334 N   0  0  0  0  0  0  0  0  0  0  0  0
  147.1585  139.4299  155.4855 C   0  0  0  0  0  0  0  0  0  0  0  0
  148.4134  139.1979  156.1185 C   0  0  0  0  0  0  0  0  0  0  0  0
  148.9685  138.0263  155.6157 N   0  0  0  0  0  0  0  0  0  0  0  0
  148.1055  137.6087  154.7307 C   0  0  0  0  0  0  0  0  0  0  0  0
  146.9848  138.3940  154.5896 N   0  0  0  0  0  0  0  0  0  0  0  0
  145.8304  138.1871  153.6589 C   0  0  2  0  0  0  0  0  0  0  0  0
  145.2832  136.9343  153.9367 O   0  0  0  0  0  0  0  0  0  0  0  0
  144.8690  136.3111  152.7290 C   0  0  1  0  0  0  0  0  0  0  0  0
  143.4109  136.7407  152.4511 C   0  0  0  0  0  0  0  0  0  0  0  0
  142.5222  136.1433  153.3715 O   0  0  0  0  0  0  0  0  0  0  0  0
  145.9269  136.7863  151.7196 C   0  0  1  0  0  0  0  0  0  0  0  0
  145.4703  136.7406  150.3813 O   0  0  0  0  0  0  0  0  0  0  0  0
  146.2322  138.2115  152.1651 C   0  0  2  0  0  0  0  0  0  0  0  0
  147.5888  138.5407  151.9221 O   0  0  0  0  0  0  0  0  0  0  0  0
  151.7019  141.2413  159.2776 C   0  0  0  0  0  0  0  0  0  0  0  0
  152.2027  139.9457  159.5459 C   0  0  0  0  0  0  0  0  0  0  0  0
  153.2920  139.7623  160.4180 C   0  0  0  0  0  0  0  0  0  0  0  0
  153.9004  140.8749  161.0258 C   0  0  0  0  0  0  0  0  0  0  0  0
  153.4208  142.1696  160.7553 C   0  0  0  0  0  0  0  0  0  0  0  0
  152.3303  142.3591  159.8828 C   0  0  0  0  0  0  0  0  0  0  0  0
  151.7943  143.9742  159.5760 Cl  0  0  0  0  0  0  0  0  0  0  0  0
  145.1223  138.9759  153.9163 H   0  0  0  0  0  0  0  0  0  0  0  0
  144.9112  135.2292  152.8622 H   0  0  0  0  0  0  0  0  0  0  0  0
  146.8163  136.1621  151.8196 H   0  0  0  0  0  0  0  0  0  0  0  0
  145.5843  138.9287  151.6589 H   0  0  0  0  0  0  0  0  0  0  0  0
  151.2282  143.3200  157.5337 H   0  0  0  0  0  0  0  0  0  0  0  0
  150.0478  142.5211  156.5042 H   0  0  0  0  0  0  0  0  0  0  0  0
  151.7055  141.9255  156.5691 H   0  0  0  0  0  0  0  0  0  0  0  0
  149.7018  141.9090  158.8625 H   0  0  0  0  0  0  0  0  0  0  0  0
  150.3248  139.3382  158.2260 H   0  0  0  0  0  0  0  0  0  0  0  0
  146.1876  142.1349  156.9244 H   0  0  0  0  0  0  0  0  0  0  0  0
  148.2651  136.7090  154.1547 H   0  0  0  0  0  0  0  0  0  0  0  0
  143.3187  137.8208  152.5685 H   0  0  0  0  0  0  0  0  0  0  0  0
  143.1050  136.5046  151.4317 H   0  0  0  0  0  0  0  0  0  0  0  0
  142.4169  136.7270  154.1075 H   0  0  0  0  0  0  0  0  0  0  0  0
  144.9190  137.4928  150.2279 H   0  0  0  0  0  0  0  0  0  0  0  0
  148.1115  137.7618  152.0351 H   0  0  0  0  0  0  0  0  0  0  0  0
  151.7511  139.0797  159.0847 H   0  0  0  0  0  0  0  0  0  0  0  0
  153.6613  138.7676  160.6191 H   0  0  0  0  0  0  0  0  0  0  0  0
  154.7369  140.7362  161.6947 H   0  0  0  0  0  0  0  0  0  0  0  0
  153.8947  143.0224  161.2186 H   0  0  0  0  0  0  0  0  0  0  0  0
  1  2  1  0  0  0  0
  1 33  1  0  0  0  0
  1 34  1  0  0  0  0
  1 35  1  0  0  0  0
  2  3  1  0  0  0  0
  2 22  1  0  0  0  0
  2 36  1  0  0  0  0
  3  4  1  0  0  0  0
  3 37  1  0  0  0  0
  4  9  1  0  0  0  0
  4  5  2  0  0  0  0
  5  6  1  0  0  0  0
  6  7  2  0  0  0  0
  6 38  1  0  0  0  0
  7  8  1  0  0  0  0
  8 12  1  0  0  0  0
  8  9  2  0  0  0  0
  9 10  1  0  0  0  0
 10 11  2  0  0  0  0
 11 12  1  0  0  0  0
 11 39  1  0  0  0  0
 12 13  1  0  0  0  0
 13 29  1  0  0  0  0
 13 20  1  0  0  0  0
 13 14  1  0  0  0  0
 14 15  1  0  0  0  0
 15 30  1  0  0  0  0
 15 16  1  0  0  0  0
 15 18  1  0  0  0  0
 16 17  1  0  0  0  0
 16 40  1  0  0  0  0
 16 41  1  0  0  0  0
 17 42  1  0  0  0  0
 18 31  1  0  0  0  0
 18 19  1  0  0  0  0
 18 20  1  0  0  0  0
 19 43  1  0  0  0  0
 20 32  1  0  0  0  0
 20 21  1  0  0  0  0
 21 44  1  0  0  0  0
 22 27  1  0  0  0  0
 22 23  2  0  0  0  0
 23 24  1  0  0  0  0
 23 45  1  0  0  0  0
 24 25  2  0  0  0  0
 24 46  1  0  0  0  0
 25 26  1  0  0  0  0
 25 47  1  0  0  0  0
 26 27  2  0  0  0  0
 26 48  1  0  0  0  0
 27 28  1  0  0  0  0
M  END
> <s_m_source_file>
AV-unprocessed.smi

> <i_m_source_file_index>
283

> <i_lp_mmshare_version>
43012

> <i_f3d_flags>
0

> <s_epik_input>
Q2xjMVtjSF1bY0hdW2NIXVtjSF1jMVtDQEhdKFtDSDNdKVtOSF1jKG5bY0hdbjIpYyhjMjMpbltjSF1uM1tDQEBIXTRPW0NASF0oW0NIMl1bT0hdKVtDQEBIXShbT0hdKVtDQEhdNFtPSF0=

> <s_epik_cmdline>
J2VwaWtfcHl0aG9uJywgJy1waCcsICc3LjAnLCAnLXRuJywgJzgnLCAnLW1hJywgJzIwMCcsICctbWV0YWxfYmluZGluZycsICctaW1hZScsICc8aW5maWxlLm1hZT4nLCAnLW9tYWUnLCAnPG91dGZpbGUubWFlPic=

> <r_lp_tautomer_probability>
1

> <r_epik_Ionization_Penalty>
0.000266407

> <r_epik_Ionization_Penalty_Charging>
0

> <r_epik_Ionization_Penalty_Neutral>
0.000266407

> <r_epik_State_Penalty>
-0

> <r_epik_Charging_Adjusted_Penalty>
0

> <i_epik_Tot_Q>
0

> <i_epik_Tot_abs_Q>
0

> <r_epik_Metal_State_Penalty>
-0

> <b_epik_Metal_Only>
0

> <s_epik_Chemistry_Notes>
This compound contains an acetal/aminal-like group ( X-CH(R)-Y where X, Y are N, S, or O) that may be acid/base labile, releasing an aldehyde.

> <s_lp_Force_Field>
OPLS_2005

> <r_lp_Energy>
50.6684

> <b_lp_Chiralities_Consistent>
1

> <s_lp_Variant>
AV-unprocessed.smi:283-22

> <Gold.Version>
5.8.1

> <Gold.Id.Protein>
6NUR|6NUR_protein|mol2

> <Gold.PLP.Fitness>
49.3140

> <Gold.PLP.PLP>
-40.5613

> <Gold.PLP.part.hbond>
-3.8375

> <Gold.PLP.part.metal>
0.0000

> <Gold.PLP.part.buried>
-6.2530

> <Gold.PLP.part.nonpolar>
-32.3455

> <Gold.PLP.part.repulsive>
0.3369

> <Gold.PLP.ligand.clash>
0.0000

> <Gold.PLP.ligand.torsion>
0.2366

> <Gold.PLP.Chemscore.Hbond>
2.0000

> <Gold.PLP.Chemscore.CHOScore>
1.0000

> <Gold.PLP.Chemscore.Metal>
0.0000

> <Gold.Chemscore.Hbonds>
donor molecule, donor type, donor heavy atom, donor atom, acceptor molecule, acceptor atom, score
      L1  H    19    43       P1 10171  1.00
      L1  H    21    44       P1  7948  1.00
      L1  C    11    39       P1  7948  1.00

> <Gold.PLP.Chemscore.Internal.Correction>
0.2260

> <Gold.Rescore>
     Score         DG    S(hbond)    S(metal)    S(lipo)     H(rot)  DE(clash)    DE(int)     intcor
     13.37     -13.92       1.99        0.00     104.85       4.10       0.04       0.51       ----

> <Gold.Chemscore.Fitness>
13.3670

> <Gold.Chemscore.DG>
-13.9194

> <Gold.Chemscore.ZeroCoef>
-5.4800

> <Gold.Chemscore.Hbond>
1.9941

> <Gold.Chemscore.Metal>
0.0000

> <Gold.Chemscore.Lipo>
104.8460

> <Gold.Chemscore.Internal_Hbond>
0.0000

> <Gold.Chemscore.DEClash>
0.0402

> <Gold.Chemscore.DEInternal>
0.5121

> <Gold.Chemscore.Rot>
4.0968

> <Gold.Chemscore.Internal.Correction>
   9.000000E+99

> <Gold.Chemscore.Hbonds>
donor molecule, donor type, donor heavy atom, donor atom, acceptor molecule, acceptor atom, score
      L1  H    19    43       P1 10171  0.96
      L1  H    21    44       P1  7948  1.00

> <Gold.Chemscore.Hbond.Weighted>
-6.6603

> <Gold.Chemscore.Metal.Weighted>
-0.0000

> <Gold.Chemscore.Lipo.Weighted>
-12.2670

> <Gold.Chemscore.Internal_Hbond.Weighted>
0.0000

> <Gold.Chemscore.DEClash.Weighted>
0.0402

> <Gold.Chemscore.DEInternal.Weighted>
0.5121

> <Gold.Chemscore.Rot.Weighted>
10.4879

> <Gold.Chemscore.Internal.Correction.Weighted>
   9.000000E+99

> <Gold.Protein.RotatedTorsions>
[ 6907 6896 6895 6894 ] final  -56.94 input  -60.11 | X-H torsion
[ 7974 7965 7964 7962 ] final   -5.17 input  175.53 | X-H torsion
[ 8008 7997 7996 7995 ] final   90.24 input   59.86 | X-H torsion
[ 10167 10162 10161 10158 ] final   59.67 input  -65.29 | X-H torsion
[ 10718 10713 10712 10709 ] final -169.62 input   66.30 | X-H torsion
[ 10763 10752 10751 10750 ] final  -26.68 input  -60.55 | X-H torsion
[ 11005 11000 10999 10996 ] final    1.79 input  -57.11 | X-H torsion

> <Gold.Protein.ActiveResidues>
 VAL166  LYS551  ARG553  GLY616  TRP617  ASP618  TYR619  PRO620  LYS621  CYS622 
 ASP623  PHE694  ASN695  SER759  ASP760  ASP761  ALA762  ILE779  LEU786  VAL792 
 PHE793  MET794  SER795  GLU796  ALA797  LYS798  CYS799  TRP800  GLU811  SER814 

> <Gold.Protein.RotatedAtoms>
  150.8126  134.7290  159.6701 H   0  0  0  0  0  0  0  0  0  0  0  0  # atno 6907 bound_to 6896
  152.4246  134.5889  159.9978 H   0  0  0  0  0  0  0  0  0  0  0  0  # atno 6908 bound_to 6896
  151.6094  133.3311  159.3100 H   0  0  0  0  0  0  0  0  0  0  0  0  # atno 6909 bound_to 6896
  146.2358  140.1980  142.8333 H   0  0  0  0  0  0  0  0  0  0  0  0  # atno 7974 bound_to 7965
  156.0096  140.3351  155.6928 H   0  0  0  0  0  0  0  0  0  0  0  0  # atno 8008 bound_to 7997
  155.6176  140.0671  157.2705 H   0  0  0  0  0  0  0  0  0  0  0  0  # atno 8009 bound_to 7997
  154.4277  140.1782  156.1325 H   0  0  0  0  0  0  0  0  0  0  0  0  # atno 8010 bound_to 7997
  140.1739  144.4249  150.6648 H   0  0  0  0  0  0  0  0  0  0  0  0  # atno 10167 bound_to 10162
  156.7142  130.9245  151.3092 H   0  0  0  0  0  0  0  0  0  0  0  0  # atno 10718 bound_to 10713
  153.7198  135.6945  153.5015 H   0  0  0  0  0  0  0  0  0  0  0  0  # atno 10763 bound_to 10752
  153.2212  135.4369  155.0490 H   0  0  0  0  0  0  0  0  0  0  0  0  # atno 10764 bound_to 10752
  154.8288  135.3461  154.6732 H   0  0  0  0  0  0  0  0  0  0  0  0  # atno 10765 bound_to 10752
  140.6115  133.9744  155.8179 H   0  0  0  0  0  0  0  0  0  0  0  0  # atno 11005 bound_to 11000
  144.9804  140.8454  143.5400 LP  0  0  0  0  0  0  0  0  0  0  0  0  # atno 17320 bound_to 7965
  145.1973  139.2270  143.5211 LP  0  0  0  0  0  0  0  0  0  0  0  0  # atno 17321 bound_to 7965
  140.6564  143.2239  151.5959 LP  0  0  0  0  0  0  0  0  0  0  0  0  # atno 17342 bound_to 10162
  139.5326  144.2873  152.1181 LP  0  0  0  0  0  0  0  0  0  0  0  0  # atno 17343 bound_to 10162
  157.6924  130.9247  150.0550 LP  0  0  0  0  0  0  0  0  0  0  0  0  # atno 17370 bound_to 10713
  156.1640  130.3644  149.9259 LP  0  0  0  0  0  0  0  0  0  0  0  0  # atno 17371 bound_to 10713
  141.0805  134.0070  157.3393 LP  0  0  0  0  0  0  0  0  0  0  0  0  # atno 17394 bound_to 11000
  139.9190  135.0199  156.7993 LP  0  0  0  0  0  0  0  0  0  0  0  0  # atno 17395 bound_to 11000

$$$$
