AV-unprocessed.smi:2505|AV-procd|sdf|9860|dock8
  -GOLD-   2272013493D 1   1.00000     0.00000
 Structure written by MMmdl.
 48 52  0  0  0  0  0  0  0  0  1 V2000
  145.8680  138.6210  153.6431 O   0  0  0  0  0  0  0  0  0  0  0  0
  146.7672  137.9608  153.1283 C   0  0  0  0  0  0  0  0  0  0  0  0
  148.0804  138.1256  153.3742 N   0  0  0  0  0  0  0  0  0  0  0  0
  148.7323  139.1631  154.0922 C   0  0  0  0  0  0  0  0  0  0  0  0
  148.1039  140.3184  154.6196 C   0  0  0  0  0  0  0  0  0  0  0  0
  148.8038  141.2687  155.2761 N   0  0  0  0  0  0  0  0  0  0  0  0
  150.1206  141.0799  155.3949 C   0  0  0  0  0  0  0  0  0  0  0  0
  150.8812  142.1153  156.1636 C   0  0  0  0  0  0  0  0  0  0  0  0
  151.6264  141.7495  157.4312 C   0  0  0  0  0  0  0  0  0  0  0  0
  150.3880  142.5980  157.5123 C   0  0  0  0  0  0  0  0  0  0  0  0
  150.8186  140.0340  154.9436 N   0  0  0  0  0  0  0  0  0  0  0  0
  150.1268  139.0790  154.2861 C   0  0  0  0  0  0  0  0  0  0  0  0
  146.4940  136.9672  152.2659 N   0  0  0  0  0  0  0  0  0  0  0  0
  145.1838  136.5246  151.7854 C   0  0  1  0  0  0  0  0  0  0  0  0
  145.1676  135.0219  151.5039 C   0  0  2  0  0  0  0  0  0  0  0  0
  145.0745  134.1948  150.2719 C   0  0  0  0  0  0  0  0  0  0  0  0
  144.0015  133.1913  150.7699 C   0  0  0  0  0  0  0  0  0  0  0  0
  143.4943  133.7361  152.0126 O   0  0  0  0  0  0  0  0  0  0  0  0
  143.7079  135.1278  151.8883 C   0  0  1  0  0  0  0  0  0  0  0  0
  144.1390  136.1884  152.9221 C   0  0  0  0  0  0  0  0  0  0  0  0
  144.6266  135.7114  154.3024 C   0  0  0  0  0  0  0  0  0  0  0  0
  144.4133  136.8680  155.2737 C   0  0  0  0  0  0  0  0  0  0  0  0
  143.1522  137.5553  154.7655 C   0  0  0  0  0  0  0  0  0  0  0  0
  143.0984  137.2654  153.2611 C   0  0  0  0  0  0  0  0  0  0  0  0
  148.6939  137.4455  152.9492 H   0  0  0  0  0  0  0  0  0  0  0  0
  147.0484  140.5132  154.5176 H   0  0  0  0  0  0  0  0  0  0  0  0
  151.3371  142.8460  155.4983 H   0  0  0  0  0  0  0  0  0  0  0  0
  151.5535  140.7232  157.7861 H   0  0  0  0  0  0  0  0  0  0  0  0
  152.5834  142.2361  157.6072 H   0  0  0  0  0  0  0  0  0  0  0  0
  150.5155  143.6535  157.7433 H   0  0  0  0  0  0  0  0  0  0  0  0
  149.4911  142.1365  157.9211 H   0  0  0  0  0  0  0  0  0  0  0  0
  150.6939  138.2389  153.9122 H   0  0  0  0  0  0  0  0  0  0  0  0
  147.2854  136.4448  151.9191 H   0  0  0  0  0  0  0  0  0  0  0  0
  144.7829  137.1207  150.9603 H   0  0  0  0  0  0  0  0  0  0  0  0
  145.7584  134.4883  152.2546 H   0  0  0  0  0  0  0  0  0  0  0  0
  144.7264  134.7750  149.4163 H   0  0  0  0  0  0  0  0  0  0  0  0
  146.0161  133.7088  150.0151 H   0  0  0  0  0  0  0  0  0  0  0  0
  143.1968  133.0886  150.0410 H   0  0  0  0  0  0  0  0  0  0  0  0
  144.4228  132.2022  150.9517 H   0  0  0  0  0  0  0  0  0  0  0  0
  143.0702  135.5500  151.1029 H   0  0  0  0  0  0  0  0  0  0  0  0
  144.0330  134.8556  154.6266 H   0  0  0  0  0  0  0  0  0  0  0  0
  145.6681  135.3902  154.3131 H   0  0  0  0  0  0  0  0  0  0  0  0
  144.3256  136.5383  156.3092 H   0  0  0  0  0  0  0  0  0  0  0  0
  145.2556  137.5580  155.2161 H   0  0  0  0  0  0  0  0  0  0  0  0
  142.2781  137.1203  155.2517 H   0  0  0  0  0  0  0  0  0  0  0  0
  143.1517  138.6240  154.9829 H   0  0  0  0  0  0  0  0  0  0  0  0
  143.2868  138.1791  152.6984 H   0  0  0  0  0  0  0  0  0  0  0  0
  142.0934  136.9446  152.9840 H   0  0  0  0  0  0  0  0  0  0  0  0
  1  2  2  0  0  0  0
  2  3  1  0  0  0  0
  2 13  1  0  0  0  0
  3  4  1  0  0  0  0
  3 25  1  0  0  0  0
  4 12  1  0  0  0  0
  4  5  2  0  0  0  0
  5  6  1  0  0  0  0
  5 26  1  0  0  0  0
  6  7  2  0  0  0  0
  7  8  1  0  0  0  0
  7 11  1  0  0  0  0
  8 10  1  0  0  0  0
  8  9  1  0  0  0  0
  8 27  1  0  0  0  0
  9 10  1  0  0  0  0
  9 28  1  0  0  0  0
  9 29  1  0  0  0  0
 10 30  1  0  0  0  0
 10 31  1  0  0  0  0
 11 12  2  0  0  0  0
 12 32  1  0  0  0  0
 13 14  1  0  0  0  0
 13 33  1  0  0  0  0
 14 20  1  0  0  0  0
 14 15  1  0  0  0  0
 14 34  1  0  0  0  0
 15 19  1  0  0  0  0
 15 16  1  0  0  0  0
 15 35  1  0  0  0  0
 16 17  1  0  0  0  0
 16 36  1  0  0  0  0
 16 37  1  0  0  0  0
 17 18  1  0  0  0  0
 17 38  1  0  0  0  0
 17 39  1  0  0  0  0
 18 19  1  0  0  0  0
 19 20  1  0  0  0  0
 19 40  1  0  0  0  0
 20 24  1  0  0  0  0
 20 21  1  0  0  0  0
 21 22  1  0  0  0  0
 21 41  1  0  0  0  0
 21 42  1  0  0  0  0
 22 23  1  0  0  0  0
 22 43  1  0  0  0  0
 22 44  1  0  0  0  0
 23 24  1  0  0  0  0
 23 45  1  0  0  0  0
 23 46  1  0  0  0  0
 24 47  1  0  0  0  0
 24 48  1  0  0  0  0
M  END
> <s_m_source_file>
AV-unprocessed.smi

> <i_m_source_file_index>
2505

> <i_lp_mmshare_version>
43012

> <i_f3d_flags>
0

> <s_epik_input>
W0NIMl0xW0NIMl1bQ0hdMWMobltjSF0yKW5bY0hdYzJbTkhdQyg9TylbTkhdW0NAQEhdM1tDQEBIXShbQ0gyXVtDSDJdTzQpW0NASF00QzM1W0NIMl1bQ0gyXVtDSDJdW0NIMl01

> <s_epik_cmdline>
J2VwaWtfcHl0aG9uJywgJy1waCcsICc3LjAnLCAnLXRuJywgJzgnLCAnLW1hJywgJzIwMCcsICctbWV0YWxfYmluZGluZycsICctaW1hZScsICc8aW5maWxlLm1hZT4nLCAnLW9tYWUnLCAnPG91dGZpbGUubWFlPic=

> <r_lp_tautomer_probability>
1

> <r_epik_Ionization_Penalty>
2.6075e-05

> <r_epik_Ionization_Penalty_Charging>
0

> <r_epik_Ionization_Penalty_Neutral>
2.6075e-05

> <r_epik_State_Penalty>
-0

> <r_epik_Charging_Adjusted_Penalty>
0

> <i_epik_Tot_Q>
0

> <i_epik_Tot_abs_Q>
0

> <r_epik_Metal_State_Penalty>
-0

> <b_epik_Metal_Only>
0

> <s_lp_Force_Field>
OPLS_2005

> <r_lp_Energy>
84.9225

> <b_lp_Chiralities_Consistent>
1

> <s_lp_Variant>
AV-unprocessed.smi:2505-8

> <Gold.Version>
5.8.1

> <Gold.Id.Protein>
6NUR|6NUR_protein|mol2

> <Gold.PLP.Fitness>
41.2683

> <Gold.PLP.PLP>
-32.6721

> <Gold.PLP.part.hbond>
-3.0361

> <Gold.PLP.part.metal>
0.0000

> <Gold.PLP.part.buried>
-3.2360

> <Gold.PLP.part.nonpolar>
-26.9094

> <Gold.PLP.part.repulsive>
0.5831

> <Gold.PLP.ligand.clash>
0.0000

> <Gold.PLP.ligand.torsion>
0.3275

> <Gold.PLP.Chemscore.Hbond>
2.9500

> <Gold.PLP.Chemscore.CHOScore>
0.0000

> <Gold.PLP.Chemscore.Metal>
0.0000

> <Gold.Chemscore.Hbonds>
donor molecule, donor type, donor heavy atom, donor atom, acceptor molecule, acceptor atom, score
      L1  H     3    25       P1  7948  1.00
      L1  H    13    33       P1  7948  0.99
      P1  H  7989  7998       L1    11  0.90

> <Gold.PLP.Chemscore.Internal.Correction>
0.4012

> <Gold.Rescore>
     Score         DG    S(hbond)    S(metal)    S(lipo)     H(rot)  DE(clash)    DE(int)     intcor
     15.57     -18.47       2.03        0.00      78.81       1.17       0.19       2.71       ----

> <Gold.Chemscore.Fitness>
15.5696

> <Gold.Chemscore.DG>
-18.4717

> <Gold.Chemscore.ZeroCoef>
-5.4800

> <Gold.Chemscore.Hbond>
2.0290

> <Gold.Chemscore.Metal>
0.0000

> <Gold.Chemscore.Lipo>
78.8131

> <Gold.Chemscore.Internal_Hbond>
0.0000

> <Gold.Chemscore.DEClash>
0.1944

> <Gold.Chemscore.DEInternal>
2.7076

> <Gold.Chemscore.Rot>
1.1744

> <Gold.Chemscore.Internal.Correction>
   9.000000E+99

> <Gold.Chemscore.Hbonds>
donor molecule, donor type, donor heavy atom, donor atom, acceptor molecule, acceptor atom, score
      L1  H     3    25       P1  7948  0.95
      L1  H    13    33       P1  7948  0.94
      P1  H  7989  7998       L1    11  0.05

> <Gold.Chemscore.Hbond.Weighted>
-6.7770

> <Gold.Chemscore.Metal.Weighted>
-0.0000

> <Gold.Chemscore.Lipo.Weighted>
-9.2211

> <Gold.Chemscore.Internal_Hbond.Weighted>
0.0000

> <Gold.Chemscore.DEClash.Weighted>
0.1944

> <Gold.Chemscore.DEInternal.Weighted>
2.7076

> <Gold.Chemscore.Rot.Weighted>
3.0064

> <Gold.Chemscore.Internal.Correction.Weighted>
   9.000000E+99

> <Gold.Protein.RotatedTorsions>
[ 6907 6896 6895 6894 ] final -109.83 input  -60.11 | X-H torsion
[ 7974 7965 7964 7962 ] final -110.99 input  175.53 | X-H torsion
[ 8008 7997 7996 7995 ] final  146.00 input   59.86 | X-H torsion
[ 10167 10162 10161 10158 ] final  165.99 input  -65.29 | X-H torsion
[ 10718 10713 10712 10709 ] final  -43.22 input   66.30 | X-H torsion
[ 10763 10752 10751 10750 ] final  124.52 input  -60.55 | X-H torsion
[ 11005 11000 10999 10996 ] final   18.94 input  -57.11 | X-H torsion

> <Gold.Protein.ActiveResidues>
 VAL166  LYS551  ARG553  GLY616  TRP617  ASP618  TYR619  PRO620  LYS621  CYS622 
 ASP623  PHE694  ASN695  SER759  ASP760  ASP761  ALA762  ILE779  LEU786  VAL792 
 PHE793  MET794  SER795  GLU796  ALA797  LYS798  CYS799  TRP800  GLU811  SER814 

> <Gold.Protein.RotatedAtoms>
  150.7586  133.9471  159.3473 H   0  0  0  0  0  0  0  0  0  0  0  0  # atno 6907 bound_to 6896
  151.7385  135.0857  160.0321 H   0  0  0  0  0  0  0  0  0  0  0  0  # atno 6908 bound_to 6896
  152.3544  133.6181  159.6004 H   0  0  0  0  0  0  0  0  0  0  0  0  # atno 6909 bound_to 6896
  145.1615  140.8881  143.3588 H   0  0  0  0  0  0  0  0  0  0  0  0  # atno 7974 bound_to 7965
  156.2867  140.2194  156.5306 H   0  0  0  0  0  0  0  0  0  0  0  0  # atno 8008 bound_to 7997
  154.7452  140.0484  157.0867 H   0  0  0  0  0  0  0  0  0  0  0  0  # atno 8009 bound_to 7997
  155.0180  140.3121  155.4807 H   0  0  0  0  0  0  0  0  0  0  0  0  # atno 8010 bound_to 7997
  139.4916  144.4074  151.9339 H   0  0  0  0  0  0  0  0  0  0  0  0  # atno 10167 bound_to 10162
  156.2513  130.4188  149.8646 H   0  0  0  0  0  0  0  0  0  0  0  0  # atno 10718 bound_to 10713
  153.6626  135.3344  155.3131 H   0  0  0  0  0  0  0  0  0  0  0  0  # atno 10763 bound_to 10752
  154.8511  135.4367  154.1788 H   0  0  0  0  0  0  0  0  0  0  0  0  # atno 10764 bound_to 10752
  153.2759  135.7004  153.7509 H   0  0  0  0  0  0  0  0  0  0  0  0  # atno 10765 bound_to 10752
  140.4193  134.1536  155.7672 H   0  0  0  0  0  0  0  0  0  0  0  0  # atno 11005 bound_to 11000
  145.0326  139.3328  143.6017 LP  0  0  0  0  0  0  0  0  0  0  0  0  # atno 17320 bound_to 7965
  146.3481  139.9669  142.8711 LP  0  0  0  0  0  0  0  0  0  0  0  0  # atno 17321 bound_to 7965
  140.3514  144.3084  150.5948 LP  0  0  0  0  0  0  0  0  0  0  0  0  # atno 17342 bound_to 10162
  140.5481  143.2211  151.7972 LP  0  0  0  0  0  0  0  0  0  0  0  0  # atno 17343 bound_to 10162
  156.6194  130.8620  151.3472 LP  0  0  0  0  0  0  0  0  0  0  0  0  # atno 17370 bound_to 10713
  157.7215  130.9565  150.1460 LP  0  0  0  0  0  0  0  0  0  0  0  0  # atno 17371 bound_to 10713
  141.1790  133.8453  157.1322 LP  0  0  0  0  0  0  0  0  0  0  0  0  # atno 17394 bound_to 11000
  140.0212  134.9945  157.0595 LP  0  0  0  0  0  0  0  0  0  0  0  0  # atno 17395 bound_to 11000

$$$$
