AV-unprocessed.smi:15|AV-procd|sdf|85|dock8
  -GOLD-   2262015223D 1   1.00000     0.00000
 Structure written by MMmdl.
 53 56  0  0  0  0  0  0  0  0  1 V2000
  149.8786  141.1982  155.4908 C   0  0  0  0  0  0  0  0  0  0  0  0
  151.0920  140.3692  155.9416 C   0  0  0  0  0  0  0  0  0  0  0  0
  151.3358  140.4333  157.3831 N   0  0  0  0  0  0  0  0  0  0  0  0
  150.6572  141.4910  158.1271 C   0  0  0  0  0  0  0  0  0  0  0  0
  151.4665  142.7972  158.1534 C   0  0  2  0  0  0  0  0  0  0  0  0
  152.6159  142.8018  159.1611 C   0  0  0  0  0  0  0  0  0  0  0  0
  152.7937  144.2747  159.4969 C   0  0  0  0  0  0  0  0  0  0  0  0
  151.5279  144.9400  158.9486 C   0  0  0  0  0  0  0  0  0  0  0  0
  150.6583  143.8671  158.6148 O   0  0  0  0  0  0  0  0  0  0  0  0
  151.2815  139.2481  158.0290 C   0  0  0  0  0  0  0  0  0  0  0  0
  152.4609  138.6714  158.3664 N   0  0  0  0  0  0  0  0  0  0  0  0
  152.4695  137.4973  159.0046 C   0  0  0  0  0  0  0  0  0  0  0  0
  151.4338  136.7507  159.3949 N   0  0  0  0  0  0  0  0  0  0  0  0
  150.2464  137.3368  159.0663 C   0  0  0  0  0  0  0  0  0  0  0  0
  150.0795  138.5763  158.3876 C   0  0  0  0  0  0  0  0  0  0  0  0
  148.7273  138.8539  158.2302 N   0  0  0  0  0  0  0  0  0  0  0  0
  148.1284  137.8326  158.7797 C   0  0  0  0  0  0  0  0  0  0  0  0
  148.9645  136.8765  159.3118 N   0  0  0  0  0  0  0  0  0  0  0  0
  148.5677  135.6453  159.9790 C   0  0  0  0  0  0  0  0  0  0  0  0
  147.4381  135.8459  161.0232 C   0  0  2  0  0  0  0  0  0  0  0  0
  147.6813  137.0717  161.6939 O   0  0  0  0  0  0  0  0  0  0  0  0
  147.3702  134.7426  162.0744 C   0  0  0  0  0  0  0  0  0  0  0  0
  145.9092  134.7662  162.4965 C   0  0  0  0  0  0  0  0  0  0  0  0
  145.2363  134.9775  161.2676 O   0  0  0  0  0  0  0  0  0  0  0  0
  145.9850  135.8945  160.4721 C   0  0  2  0  0  0  0  0  0  0  0  0
  145.7909  135.4878  159.0028 C   0  0  0  0  0  0  0  0  0  0  0  0
  149.6985  141.0653  154.4241 H   0  0  0  0  0  0  0  0  0  0  0  0
  150.0268  142.2642  155.6659 H   0  0  0  0  0  0  0  0  0  0  0  0
  148.9761  140.8916  156.0202 H   0  0  0  0  0  0  0  0  0  0  0  0
  150.9250  139.3305  155.6587 H   0  0  0  0  0  0  0  0  0  0  0  0
  151.9824  140.6891  155.4005 H   0  0  0  0  0  0  0  0  0  0  0  0
  149.6852  141.6738  157.6672 H   0  0  0  0  0  0  0  0  0  0  0  0
  150.4560  141.1735  159.1523 H   0  0  0  0  0  0  0  0  0  0  0  0
  151.8350  143.0523  157.1585 H   0  0  0  0  0  0  0  0  0  0  0  0
  152.3307  142.2546  160.0608 H   0  0  0  0  0  0  0  0  0  0  0  0
  153.5219  142.3432  158.7636 H   0  0  0  0  0  0  0  0  0  0  0  0
  152.8886  144.4169  160.5739 H   0  0  0  0  0  0  0  0  0  0  0  0
  153.6836  144.6905  159.0233 H   0  0  0  0  0  0  0  0  0  0  0  0
  151.0628  145.6137  159.6684 H   0  0  0  0  0  0  0  0  0  0  0  0
  151.7553  145.5100  158.0465 H   0  0  0  0  0  0  0  0  0  0  0  0
  153.4464  137.0985  159.2354 H   0  0  0  0  0  0  0  0  0  0  0  0
  147.0517  137.7499  158.8177 H   0  0  0  0  0  0  0  0  0  0  0  0
  148.2577  134.9304  159.2156 H   0  0  0  0  0  0  0  0  0  0  0  0
  149.4563  135.2261  160.4511 H   0  0  0  0  0  0  0  0  0  0  0  0
  147.2892  137.0253  162.5525 H   0  0  0  0  0  0  0  0  0  0  0  0
  147.5861  133.7760  161.6179 H   0  0  0  0  0  0  0  0  0  0  0  0
  148.0624  134.8801  162.9065 H   0  0  0  0  0  0  0  0  0  0  0  0
  145.5919  133.8398  162.9755 H   0  0  0  0  0  0  0  0  0  0  0  0
  145.7081  135.5960  163.1758 H   0  0  0  0  0  0  0  0  0  0  0  0
  145.5554  136.8882  160.6130 H   0  0  0  0  0  0  0  0  0  0  0  0
  146.3283  136.1550  158.3289 H   0  0  0  0  0  0  0  0  0  0  0  0
  144.7364  135.5296  158.7292 H   0  0  0  0  0  0  0  0  0  0  0  0
  146.1338  134.4689  158.8218 H   0  0  0  0  0  0  0  0  0  0  0  0
  1  2  1  0  0  0  0
  1 27  1  0  0  0  0
  1 28  1  0  0  0  0
  1 29  1  0  0  0  0
  2  3  1  0  0  0  0
  2 30  1  0  0  0  0
  2 31  1  0  0  0  0
  3  4  1  0  0  0  0
  3 10  1  0  0  0  0
  4  5  1  0  0  0  0
  4 32  1  0  0  0  0
  4 33  1  0  0  0  0
  5  9  1  0  0  0  0
  5  6  1  0  0  0  0
  5 34  1  0  0  0  0
  6  7  1  0  0  0  0
  6 35  1  0  0  0  0
  6 36  1  0  0  0  0
  7  8  1  0  0  0  0
  7 37  1  0  0  0  0
  7 38  1  0  0  0  0
  8  9  1  0  0  0  0
  8 39  1  0  0  0  0
  8 40  1  0  0  0  0
 10 15  1  0  0  0  0
 10 11  2  0  0  0  0
 11 12  1  0  0  0  0
 12 13  2  0  0  0  0
 12 41  1  0  0  0  0
 13 14  1  0  0  0  0
 14 18  1  0  0  0  0
 14 15  2  0  0  0  0
 15 16  1  0  0  0  0
 16 17  2  0  0  0  0
 17 18  1  0  0  0  0
 17 42  1  0  0  0  0
 18 19  1  0  0  0  0
 19 20  1  0  0  0  0
 19 43  1  0  0  0  0
 19 44  1  0  0  0  0
 20 25  1  0  0  0  0
 20 21  1  0  0  0  0
 20 22  1  0  0  0  0
 21 45  1  0  0  0  0
 22 23  1  0  0  0  0
 22 46  1  0  0  0  0
 22 47  1  0  0  0  0
 23 24  1  0  0  0  0
 23 48  1  0  0  0  0
 23 49  1  0  0  0  0
 24 25  1  0  0  0  0
 25 26  1  0  0  0  0
 25 50  1  0  0  0  0
 26 51  1  0  0  0  0
 26 52  1  0  0  0  0
 26 53  1  0  0  0  0
M  END
> <s_m_source_file>
AV-unprocessed.smi

> <i_m_source_file_index>
15

> <i_lp_mmshare_version>
43012

> <i_f3d_flags>
0

> <s_epik_input>
TzFbQ0gyXVtDSDJdW0NIMl1bQ0BIXTFbQ0gyXU4oW0NIMl1bQ0gzXSljKG5bY0hdbjIpYyhjMjMpbltjSF1uM1tDSDJdW0NAQF00KFtPSF0pW0NIMl1bQ0gyXU9bQ0BIXTRbQ0gzXQ==

> <s_epik_cmdline>
J2VwaWtfcHl0aG9uJywgJy1waCcsICc3LjAnLCAnLXRuJywgJzgnLCAnLW1hJywgJzIwMCcsICctbWV0YWxfYmluZGluZycsICctaW1hZScsICc8aW5maWxlLm1hZT4nLCAnLW9tYWUnLCAnPG91dGZpbGUubWFlPic=

> <r_lp_tautomer_probability>
1

> <r_epik_Ionization_Penalty>
0.00360814

> <r_epik_Ionization_Penalty_Charging>
0

> <r_epik_Ionization_Penalty_Neutral>
0.00360814

> <r_epik_State_Penalty>
0.00237482

> <r_epik_Charging_Adjusted_Penalty>
0.00237482

> <i_epik_Tot_Q>
0

> <i_epik_Tot_abs_Q>
0

> <r_epik_Metal_State_Penalty>
-0

> <b_epik_Metal_Only>
0

> <s_lp_Force_Field>
OPLS_2005

> <r_lp_Energy>
47.4065

> <b_lp_Chiralities_Consistent>
1

> <s_lp_Variant>
AV-unprocessed.smi:15-7

> <Gold.Version>
5.8.1

> <Gold.Id.Protein>
6NUR|6NUR_protein|mol2

> <Gold.PLP.Fitness>
49.7305

> <Gold.PLP.PLP>
-44.9283

> <Gold.PLP.part.hbond>
-3.0000

> <Gold.PLP.part.metal>
0.0000

> <Gold.PLP.part.buried>
-5.5998

> <Gold.PLP.part.nonpolar>
-35.7782

> <Gold.PLP.part.repulsive>
0.1758

> <Gold.PLP.ligand.clash>
0.0000

> <Gold.PLP.ligand.torsion>
2.0367

> <Gold.PLP.Chemscore.Hbond>
2.7520

> <Gold.PLP.Chemscore.CHOScore>
0.0000

> <Gold.PLP.Chemscore.Metal>
0.0000

> <Gold.Chemscore.Hbonds>
donor molecule, donor type, donor heavy atom, donor atom, acceptor molecule, acceptor atom, score
      P1  H  6896  6907       L1    13  1.00
      P1  H  6931  6943       L1    21  1.00
      P1  H  6934  6947       L1    21  0.54

> <Gold.PLP.Chemscore.Internal.Correction>
0.6196

> <Gold.Rescore>
     Score         DG    S(hbond)    S(metal)    S(lipo)     H(rot)  DE(clash)    DE(int)     intcor
     14.74     -16.98       1.95        0.00     101.95       2.71       0.14       2.10       ----

> <Gold.Chemscore.Fitness>
14.7401

> <Gold.Chemscore.DG>
-16.9766

> <Gold.Chemscore.ZeroCoef>
-5.4800

> <Gold.Chemscore.Hbond>
1.9460

> <Gold.Chemscore.Metal>
0.0000

> <Gold.Chemscore.Lipo>
101.9458

> <Gold.Chemscore.Internal_Hbond>
0.0000

> <Gold.Chemscore.DEClash>
0.1366

> <Gold.Chemscore.DEInternal>
2.1000

> <Gold.Chemscore.Rot>
2.7074

> <Gold.Chemscore.Internal.Correction>
   9.000000E+99

> <Gold.Chemscore.Hbonds>
donor molecule, donor type, donor heavy atom, donor atom, acceptor molecule, acceptor atom, score
      P1  H  6896  6907       L1    13  0.98
      P1  H  6931  6943       L1    21  0.39
      P1  H  6934  6947       L1    21  0.26

> <Gold.Chemscore.Hbond.Weighted>
-6.4997

> <Gold.Chemscore.Metal.Weighted>
-0.0000

> <Gold.Chemscore.Lipo.Weighted>
-11.9277

> <Gold.Chemscore.Internal_Hbond.Weighted>
0.0000

> <Gold.Chemscore.DEClash.Weighted>
0.1366

> <Gold.Chemscore.DEInternal.Weighted>
2.1000

> <Gold.Chemscore.Rot.Weighted>
6.9308

> <Gold.Chemscore.Internal.Correction.Weighted>
   9.000000E+99

> <Gold.Protein.RotatedTorsions>
[ 6907 6896 6895 6894 ] final   -1.96 input  -60.11 | X-H torsion
[ 7974 7965 7964 7962 ] final   30.04 input  175.53 | X-H torsion
[ 8008 7997 7996 7995 ] final  -46.74 input   59.86 | X-H torsion
[ 10167 10162 10161 10158 ] final   84.24 input  -65.29 | X-H torsion
[ 10718 10713 10712 10709 ] final   33.73 input   66.30 | X-H torsion
[ 10763 10752 10751 10750 ] final -102.66 input  -60.55 | X-H torsion
[ 11005 11000 10999 10996 ] final   96.20 input  -57.11 | X-H torsion

> <Gold.Protein.ActiveResidues>
 VAL166  LYS551  ARG553  GLY616  TRP617  ASP618  TYR619  PRO620  LYS621  CYS622 
 ASP623  PHE694  ASN695  SER759  ASP760  ASP761  ALA762  ILE779  LEU786  VAL792 
 PHE793  MET794  SER795  GLU796  ALA797  LYS798  CYS799  TRP800  GLU811  SER814 

> <Gold.Protein.RotatedAtoms>
  151.5376  135.1068  159.9918 H   0  0  0  0  0  0  0  0  0  0  0  0  # atno 6907 bound_to 6896
  152.4550  133.7701  159.6804 H   0  0  0  0  0  0  0  0  0  0  0  0  # atno 6908 bound_to 6896
  150.8490  133.7750  159.3057 H   0  0  0  0  0  0  0  0  0  0  0  0  # atno 6909 bound_to 6896
  146.1635  139.6841  142.9017 H   0  0  0  0  0  0  0  0  0  0  0  0  # atno 7974 bound_to 7965
  154.4010  140.1364  156.4061 H   0  0  0  0  0  0  0  0  0  0  0  0  # atno 8008 bound_to 7997
  155.7778  140.3482  155.5260 H   0  0  0  0  0  0  0  0  0  0  0  0  # atno 8009 bound_to 7997
  155.8704  140.0971  157.1544 H   0  0  0  0  0  0  0  0  0  0  0  0  # atno 8010 bound_to 7997
  139.9101  144.6277  150.8546 H   0  0  0  0  0  0  0  0  0  0  0  0  # atno 10167 bound_to 10162
  157.3015  130.7353  149.6670 H   0  0  0  0  0  0  0  0  0  0  0  0  # atno 10718 bound_to 10713
  154.7750  135.4852  153.9726 H   0  0  0  0  0  0  0  0  0  0  0  0  # atno 10763 bound_to 10752
  153.1417  135.6774  153.9024 H   0  0  0  0  0  0  0  0  0  0  0  0  # atno 10764 bound_to 10752
  153.8696  135.3145  155.3420 H   0  0  0  0  0  0  0  0  0  0  0  0  # atno 10765 bound_to 10752
  139.8783  134.8938  156.4123 H   0  0  0  0  0  0  0  0  0  0  0  0  # atno 11005 bound_to 11000
  145.4526  141.0429  143.2796 LP  0  0  0  0  0  0  0  0  0  0  0  0  # atno 17320 bound_to 7965
  144.8060  139.6050  143.7050 LP  0  0  0  0  0  0  0  0  0  0  0  0  # atno 17321 bound_to 7965
  140.7687  143.3372  151.2284 LP  0  0  0  0  0  0  0  0  0  0  0  0  # atno 17342 bound_to 10162
  139.6950  143.9629  152.2878 LP  0  0  0  0  0  0  0  0  0  0  0  0  # atno 17343 bound_to 10162
  155.9672  130.4278  150.4761 LP  0  0  0  0  0  0  0  0  0  0  0  0  # atno 17370 bound_to 10713
  157.2743  131.0593  151.2239 LP  0  0  0  0  0  0  0  0  0  0  0  0  # atno 17371 bound_to 10713
  140.9192  133.7657  155.9885 LP  0  0  0  0  0  0  0  0  0  0  0  0  # atno 17394 bound_to 11000
  140.8459  134.3011  157.5295 LP  0  0  0  0  0  0  0  0  0  0  0  0  # atno 17395 bound_to 11000

$$$$
