AV-unprocessed.smi:697|AV-procd|sdf|3392|dock2
  -GOLD-   22720 0373D 1   1.00000     0.00000
 Structure written by MMmdl.
 44 45  0  0  0  0  0  0  0  0  1 V2000
  150.7287  141.2528  155.8536 C   0  0  0  0  0  0  0  0  0  0  0  0
  151.1403  140.2377  154.9473 O   0  0  0  0  0  0  0  0  0  0  0  0
  151.4237  138.9576  155.5147 C   0  0  2  0  0  0  0  0  0  0  0  0
  152.4388  139.1035  156.6592 C   0  0  0  0  0  0  0  0  0  0  0  0
  151.6974  137.8907  154.4387 C   0  0  0  0  0  0  0  0  0  0  0  0
  150.8093  136.9595  155.2609 C   0  0  2  0  0  0  0  0  0  0  0  0
  149.9947  136.0796  154.4298 N   0  0  0  0  0  0  0  0  0  0  0  0
  149.7508  134.7912  154.7041 C   0  0  0  0  0  0  0  0  0  0  0  0
  150.2217  134.2110  155.6820 O   0  0  0  0  0  0  0  0  0  0  0  0
  148.9436  134.2480  153.7743 N   0  0  0  0  0  0  0  0  0  0  0  0
  148.4071  132.9510  153.7019 C   0  0  0  0  0  0  0  0  0  0  0  0
  149.0631  131.8139  154.0537 C   0  0  0  0  0  0  0  0  0  0  0  0
  148.4389  130.5044  153.9662 C   0  0  0  0  0  0  0  0  0  0  0  0
  149.2103  129.2331  154.2852 C   0  0  0  0  0  0  0  0  0  0  0  0
  150.4983  129.4916  154.5140 F   0  0  0  0  0  0  0  0  0  0  0  0
  148.7080  128.6273  155.3611 F   0  0  0  0  0  0  0  0  0  0  0  0
  149.1323  128.3870  153.2591 F   0  0  0  0  0  0  0  0  0  0  0  0
  147.1731  130.4717  153.5102 C   0  0  0  0  0  0  0  0  0  0  0  0
  146.4846  131.6372  153.1670 N   0  0  0  0  0  0  0  0  0  0  0  0
  147.0137  132.8794  153.2315 C   0  0  0  0  0  0  0  0  0  0  0  0
  146.3403  133.8579  152.9095 O   0  0  0  0  0  0  0  0  0  0  0  0
  150.0745  138.2175  155.7913 C   0  0  0  0  0  0  0  0  0  0  0  0
  149.6087  138.1530  157.2494 C   0  0  0  0  0  0  0  0  0  0  0  0
  148.8556  138.7036  154.9808 C   0  0  0  0  0  0  0  0  0  0  0  0
  145.5318  131.5312  152.8496 H   0  0  0  0  0  0  0  0  0  0  0  0
  150.6440  142.1969  155.3154 H   0  0  0  0  0  0  0  0  0  0  0  0
  151.4477  141.3972  156.6603 H   0  0  0  0  0  0  0  0  0  0  0  0
  149.7520  141.0395  156.2869 H   0  0  0  0  0  0  0  0  0  0  0  0
  152.5725  138.1697  157.2051 H   0  0  0  0  0  0  0  0  0  0  0  0
  152.1189  139.8583  157.3777 H   0  0  0  0  0  0  0  0  0  0  0  0
  153.4252  139.3888  156.2950 H   0  0  0  0  0  0  0  0  0  0  0  0
  151.2847  138.1392  153.4591 H   0  0  0  0  0  0  0  0  0  0  0  0
  152.7374  137.5721  154.3640 H   0  0  0  0  0  0  0  0  0  0  0  0
  151.3768  136.4366  156.0341 H   0  0  0  0  0  0  0  0  0  0  0  0
  149.5764  136.4843  153.6049 H   0  0  0  0  0  0  0  0  0  0  0  0
  148.6920  134.8451  152.9997 H   0  0  0  0  0  0  0  0  0  0  0  0
  150.0710  131.8457  154.4328 H   0  0  0  0  0  0  0  0  0  0  0  0
  146.6000  129.5672  153.3693 H   0  0  0  0  0  0  0  0  0  0  0  0
  148.6995  137.5602  157.3543 H   0  0  0  0  0  0  0  0  0  0  0  0
  149.4016  139.1474  157.6455 H   0  0  0  0  0  0  0  0  0  0  0  0
  150.3553  137.6937  157.8969 H   0  0  0  0  0  0  0  0  0  0  0  0
  148.0085  138.0240  155.0794 H   0  0  0  0  0  0  0  0  0  0  0  0
  149.0733  138.7879  153.9160 H   0  0  0  0  0  0  0  0  0  0  0  0
  148.5203  139.6856  155.3157 H   0  0  0  0  0  0  0  0  0  0  0  0
  1  2  1  0  0  0  0
  1 26  1  0  0  0  0
  1 27  1  0  0  0  0
  1 28  1  0  0  0  0
  2  3  1  0  0  0  0
  3 22  1  0  0  0  0
  3  4  1  0  0  0  0
  3  5  1  0  0  0  0
  4 29  1  0  0  0  0
  4 30  1  0  0  0  0
  4 31  1  0  0  0  0
  5  6  1  0  0  0  0
  5 32  1  0  0  0  0
  5 33  1  0  0  0  0
  6  7  1  0  0  0  0
  6 22  1  0  0  0  0
  6 34  1  0  0  0  0
  7  8  1  0  0  0  0
  7 35  1  0  0  0  0
  8  9  2  0  0  0  0
  8 10  1  0  0  0  0
 10 11  1  0  0  0  0
 10 36  1  0  0  0  0
 11 20  1  0  0  0  0
 11 12  2  0  0  0  0
 12 13  1  0  0  0  0
 12 37  1  0  0  0  0
 13 14  1  0  0  0  0
 13 18  2  0  0  0  0
 14 15  1  0  0  0  0
 14 16  1  0  0  0  0
 14 17  1  0  0  0  0
 18 19  1  0  0  0  0
 18 38  1  0  0  0  0
 19 25  1  0  0  0  0
 19 20  1  0  0  0  0
 20 21  2  0  0  0  0
 22 23  1  0  0  0  0
 22 24  1  0  0  0  0
 23 39  1  0  0  0  0
 23 40  1  0  0  0  0
 23 41  1  0  0  0  0
 24 42  1  0  0  0  0
 24 43  1  0  0  0  0
 24 44  1  0  0  0  0
M  END
> <s_m_source_file>
AV-unprocessed.smi

> <i_m_source_file_index>
697

> <i_lp_mmshare_version>
43012

> <i_f3d_flags>
0

> <s_epik_input>
W0NIM11PW0NAQF0xKFtDSDNdKVtDSDJdW0NASF0oQzEoW0NIM10pW0NIM10pW05IXUMoPU8pW05IXWMyW2NIXWMoQyhGKShGKUYpW2NIXVtuSF1jMj1P

> <s_epik_cmdline>
J2VwaWtfcHl0aG9uJywgJy1waCcsICc3LjAnLCAnLXRuJywgJzgnLCAnLW1hJywgJzIwMCcsICctbWV0YWxfYmluZGluZycsICctaW1hZScsICc8aW5maWxlLm1hZT4nLCAnLW9tYWUnLCAnPG91dGZpbGUubWFlPic=

> <r_lp_tautomer_probability>
1

> <r_epik_Ionization_Penalty>
0.0036482

> <r_epik_Ionization_Penalty_Charging>
0.00362828

> <r_epik_Ionization_Penalty_Neutral>
1.99208e-05

> <r_epik_State_Penalty>
-0

> <r_epik_Charging_Adjusted_Penalty>
0.00362828

> <i_epik_Tot_Q>
0

> <i_epik_Tot_abs_Q>
0

> <r_epik_Metal_State_Penalty>
0.369362

> <b_epik_Metal_Only>
0

> <s_lp_Force_Field>
OPLS_2005

> <r_lp_Energy>
34.4916

> <b_lp_Chiralities_Consistent>
1

> <s_lp_Variant>
AV-unprocessed.smi:697-4

> <Gold.Version>
5.8.1

> <Gold.Id.Protein>
6NUR|6NUR_protein|mol2

> <Gold.PLP.Fitness>
43.4874

> <Gold.PLP.PLP>
-35.7066

> <Gold.PLP.part.hbond>
-3.6166

> <Gold.PLP.part.metal>
0.0000

> <Gold.PLP.part.buried>
-3.1596

> <Gold.PLP.part.nonpolar>
-29.1012

> <Gold.PLP.part.repulsive>
0.2517

> <Gold.PLP.ligand.clash>
0.0000

> <Gold.PLP.ligand.torsion>
0.7205

> <Gold.PLP.Chemscore.Hbond>
2.9280

> <Gold.PLP.Chemscore.CHOScore>
0.0000

> <Gold.PLP.Chemscore.Metal>
0.0000

> <Gold.Chemscore.Hbonds>
donor molecule, donor type, donor heavy atom, donor atom, acceptor molecule, acceptor atom, score
      L1  H     7    35       P1  7948  0.94
      L1  H    10    36       P1  7948  1.00
      P1  H  7989  7998       L1     2  1.00

> <Gold.PLP.Chemscore.Internal.Correction>
0.4379

> <Gold.Rescore>
     Score         DG    S(hbond)    S(metal)    S(lipo)     H(rot)  DE(clash)    DE(int)     intcor
     16.78     -17.33       2.29        0.00      64.51       1.31       0.01       0.54       ----

> <Gold.Chemscore.Fitness>
16.7773

> <Gold.Chemscore.DG>
-17.3348

> <Gold.Chemscore.ZeroCoef>
-5.4800

> <Gold.Chemscore.Hbond>
2.2906

> <Gold.Chemscore.Metal>
0.0000

> <Gold.Chemscore.Lipo>
64.5135

> <Gold.Chemscore.Internal_Hbond>
0.0000

> <Gold.Chemscore.DEClash>
0.0137

> <Gold.Chemscore.DEInternal>
0.5439

> <Gold.Chemscore.Rot>
1.3062

> <Gold.Chemscore.Internal.Correction>
   9.000000E+99

> <Gold.Chemscore.Hbonds>
donor molecule, donor type, donor heavy atom, donor atom, acceptor molecule, acceptor atom, score
      L1  H     7    35       P1  7948  0.59
      L1  H    10    36       P1  7948  0.29
      P1  H  7989  7998       L1     2  0.81

> <Gold.Chemscore.Hbond.Weighted>
-7.6508

> <Gold.Chemscore.Metal.Weighted>
-0.0000

> <Gold.Chemscore.Lipo.Weighted>
-7.5481

> <Gold.Chemscore.Internal_Hbond.Weighted>
0.0000

> <Gold.Chemscore.DEClash.Weighted>
0.0137

> <Gold.Chemscore.DEInternal.Weighted>
0.5439

> <Gold.Chemscore.Rot.Weighted>
3.3440

> <Gold.Chemscore.Internal.Correction.Weighted>
   9.000000E+99

> <Gold.Protein.RotatedTorsions>
[ 6907 6896 6895 6894 ] final -132.07 input  -60.11 | X-H torsion
[ 7974 7965 7964 7962 ] final -125.20 input  175.53 | X-H torsion
[ 8008 7997 7996 7995 ] final  140.49 input   59.86 | X-H torsion
[ 10167 10162 10161 10158 ] final  -24.52 input  -65.29 | X-H torsion
[ 10718 10713 10712 10709 ] final  -46.57 input   66.30 | X-H torsion
[ 10763 10752 10751 10750 ] final  148.46 input  -60.55 | X-H torsion
[ 11005 11000 10999 10996 ] final  -10.92 input  -57.11 | X-H torsion

> <Gold.Protein.ActiveResidues>
 VAL166  LYS551  ARG553  GLY616  TRP617  ASP618  TYR619  PRO620  LYS621  CYS622 
 ASP623  PHE694  ASN695  SER759  ASP760  ASP761  ALA762  ILE779  LEU786  VAL792 
 PHE793  MET794  SER795  GLU796  ALA797  LYS798  CYS799  TRP800  GLU811  SER814 

> <Gold.Protein.RotatedAtoms>
  150.9581  133.6475  159.2759 H   0  0  0  0  0  0  0  0  0  0  0  0  # atno 6907 bound_to 6896
  151.3807  135.0938  159.9505 H   0  0  0  0  0  0  0  0  0  0  0  0  # atno 6908 bound_to 6896
  152.5137  133.9116  159.7545 H   0  0  0  0  0  0  0  0  0  0  0  0  # atno 6909 bound_to 6896
  145.0001  140.7812  143.4502 H   0  0  0  0  0  0  0  0  0  0  0  0  # atno 7974 bound_to 7965
  156.2978  140.2340  156.4409 H   0  0  0  0  0  0  0  0  0  0  0  0  # atno 8008 bound_to 7997
  154.8186  140.0439  157.1415 H   0  0  0  0  0  0  0  0  0  0  0  0  # atno 8009 bound_to 7997
  154.9341  140.3020  155.5157 H   0  0  0  0  0  0  0  0  0  0  0  0  # atno 8010 bound_to 7997
  140.7288  143.4346  151.0749 H   0  0  0  0  0  0  0  0  0  0  0  0  # atno 10167 bound_to 10162
  156.2170  130.4164  149.9041 H   0  0  0  0  0  0  0  0  0  0  0  0  # atno 10718 bound_to 10713
  154.0551  135.2878  155.3334 H   0  0  0  0  0  0  0  0  0  0  0  0  # atno 10763 bound_to 10752
  154.6844  135.5251  153.8310 H   0  0  0  0  0  0  0  0  0  0  0  0  # atno 10764 bound_to 10752
  153.0545  135.6590  154.0744 H   0  0  0  0  0  0  0  0  0  0  0  0  # atno 10765 bound_to 10752
  140.7498  133.8601  155.9035 H   0  0  0  0  0  0  0  0  0  0  0  0  # atno 11005 bound_to 11000
  145.2165  139.2179  143.5115 LP  0  0  0  0  0  0  0  0  0  0  0  0  # atno 17320 bound_to 7965
  146.3450  140.2014  142.8589 LP  0  0  0  0  0  0  0  0  0  0  0  0  # atno 17321 bound_to 7965
  139.8007  143.8088  152.3162 LP  0  0  0  0  0  0  0  0  0  0  0  0  # atno 17342 bound_to 10162
  139.8104  144.7338  150.9705 LP  0  0  0  0  0  0  0  0  0  0  0  0  # atno 17343 bound_to 10162
  156.6700  130.8816  151.3560 LP  0  0  0  0  0  0  0  0  0  0  0  0  # atno 17370 bound_to 10713
  157.7068  130.9394  150.0958 LP  0  0  0  0  0  0  0  0  0  0  0  0  # atno 17371 bound_to 10713
  140.9761  134.1467  157.4535 LP  0  0  0  0  0  0  0  0  0  0  0  0  # atno 17394 bound_to 11000
  139.8790  134.9995  156.5958 LP  0  0  0  0  0  0  0  0  0  0  0  0  # atno 17395 bound_to 11000

$$$$
