AV-unprocessed.smi:1738|AV-procd|sdf|7002|dock3
  -GOLD-   22720 8213D 1   1.00000     0.00000
 Structure written by MMmdl.
 46 48  0  0  0  0  0  0  0  0  2 V2000
  152.1473  139.5066  159.1786 C   0  0  0  0  0  0  0  0  0  0  0  0
  152.9113  137.9792  158.4968 S   0  0  0  0  0  0  0  0  0  0  0  0
  154.1665  138.3509  157.8251 O   0  0  0  0  0  0  0  0  0  0  0  0
  152.9315  136.9686  159.5658 O   0  0  0  0  0  0  0  0  0  0  0  0
  151.7518  137.4476  157.2420 C   0  0  0  0  0  0  0  0  0  0  0  0
  151.8501  137.9391  155.9250 C   0  0  0  0  0  0  0  0  0  0  0  0
  150.9348  137.4615  154.9675 C   0  0  0  0  0  0  0  0  0  0  0  0
  149.9708  136.4998  155.3606 C   0  0  0  0  0  0  0  0  0  0  0  0
  148.9805  135.9476  154.5020 N   0  0  0  0  0  0  0  0  0  0  0  0
  147.8020  135.3831  154.8178 C   0  0  0  0  0  0  0  0  0  0  0  0
  147.3458  135.2658  155.9544 O   0  0  0  0  0  0  0  0  0  0  0  0
  147.1598  134.9594  153.7201 N   0  0  0  0  0  0  0  0  0  0  0  0
  145.8581  134.2976  153.7106 C   0  0  1  0  0  0  0  0  0  0  0  0
  144.6860  135.2813  153.5482 C   0  0  0  0  0  0  0  0  0  0  0  0
  143.6630  134.5546  152.6527 C   0  0  0  0  0  0  0  0  0  0  0  0
  144.2261  133.2097  152.4265 N   0  3  1  0  0  0  0  0  0  0  0  0
  143.7912  132.4926  151.2081 C   0  0  0  0  0  0  0  0  0  0  0  0
  144.4166  131.0833  151.1973 C   0  0  0  0  0  0  0  0  0  0  0  0
  145.9482  131.1358  151.3690 C   0  0  0  0  0  0  0  0  0  0  0  0
  146.3423  131.9742  152.6003 C   0  0  0  0  0  0  0  0  0  0  0  0
  145.6864  133.3627  152.5106 C   0  0  2  0  0  0  0  0  0  0  0  0
  149.9738  136.0779  156.7078 C   0  0  0  0  0  0  0  0  0  0  0  0
  150.8461  136.5270  157.6339 N   0  0  0  0  0  0  0  0  0  0  0  0
  152.7857  139.9118  159.9632 H   0  0  0  0  0  0  0  0  0  0  0  0
  151.1677  139.2694  159.5931 H   0  0  0  0  0  0  0  0  0  0  0  0
  152.0367  140.2439  158.3837 H   0  0  0  0  0  0  0  0  0  0  0  0
  152.5996  138.6666  155.6511 H   0  0  0  0  0  0  0  0  0  0  0  0
  150.9901  137.8506  153.9635 H   0  0  0  0  0  0  0  0  0  0  0  0
  149.1836  136.0203  153.5156 H   0  0  0  0  0  0  0  0  0  0  0  0
  147.6054  135.1024  152.8254 H   0  0  0  0  0  0  0  0  0  0  0  0
  145.7060  133.7356  154.6348 H   0  0  0  0  0  0  0  0  0  0  0  0
  144.2608  135.5480  154.5161 H   0  0  0  0  0  0  0  0  0  0  0  0
  145.0055  136.2060  153.0651 H   0  0  0  0  0  0  0  0  0  0  0  0
  142.6787  134.4869  153.1166 H   0  0  0  0  0  0  0  0  0  0  0  0
  143.5551  135.0825  151.7037 H   0  0  0  0  0  0  0  0  0  0  0  0
  142.7031  132.4217  151.1931 H   0  0  0  0  0  0  0  0  0  0  0  0
  144.0914  133.0513  150.3203 H   0  0  0  0  0  0  0  0  0  0  0  0
  143.9857  130.4920  152.0063 H   0  0  0  0  0  0  0  0  0  0  0  0
  144.1618  130.5678  150.2709 H   0  0  0  0  0  0  0  0  0  0  0  0
  146.3510  130.1264  151.4572 H   0  0  0  0  0  0  0  0  0  0  0  0
  146.3972  131.5710  150.4754 H   0  0  0  0  0  0  0  0  0  0  0  0
  146.0275  131.4671  153.5134 H   0  0  0  0  0  0  0  0  0  0  0  0
  147.4270  132.0680  152.6512 H   0  0  0  0  0  0  0  0  0  0  0  0
  146.0350  133.8709  151.6082 H   0  0  0  0  0  0  0  0  0  0  0  0
  149.2536  135.3515  157.0553 H   0  0  0  0  0  0  0  0  0  0  0  0
  143.9529  132.6474  153.2200 H   0  0  0  0  0  0  0  0  0  0  0  0
  1  2  1  0  0  0  0
  1 24  1  0  0  0  0
  1 25  1  0  0  0  0
  1 26  1  0  0  0  0
  2  3  2  0  0  0  0
  2  4  2  0  0  0  0
  2  5  1  0  0  0  0
  5 23  1  0  0  0  0
  5  6  2  0  0  0  0
  6  7  1  0  0  0  0
  6 27  1  0  0  0  0
  7  8  2  0  0  0  0
  7 28  1  0  0  0  0
  8  9  1  0  0  0  0
  8 22  1  0  0  0  0
  9 10  1  0  0  0  0
  9 29  1  0  0  0  0
 10 11  2  0  0  0  0
 10 12  1  0  0  0  0
 12 13  1  0  0  0  0
 12 30  1  0  0  0  0
 13 21  1  0  0  0  0
 13 14  1  0  0  0  0
 13 31  1  0  0  0  0
 14 15  1  0  0  0  0
 14 32  1  0  0  0  0
 14 33  1  0  0  0  0
 15 16  1  0  0  0  0
 15 34  1  0  0  0  0
 15 35  1  0  0  0  0
 16 21  1  0  0  0  0
 16 17  1  0  0  0  0
 16 46  1  0  0  0  0
 17 18  1  0  0  0  0
 17 36  1  0  0  0  0
 17 37  1  0  0  0  0
 18 19  1  0  0  0  0
 18 38  1  0  0  0  0
 18 39  1  0  0  0  0
 19 20  1  0  0  0  0
 19 40  1  0  0  0  0
 19 41  1  0  0  0  0
 20 21  1  0  0  0  0
 20 42  1  0  0  0  0
 20 43  1  0  0  0  0
 21 44  1  0  0  0  0
 22 23  2  0  0  0  0
 22 45  1  0  0  0  0
M  CHG  1  16   1
M  END
> <s_m_source_file>
AV-unprocessed.smi

> <i_m_source_file_index>
1738

> <i_lp_mmshare_version>
43012

> <i_f3d_flags>
0

> <s_epik_input>
W0NIM11TKD1PKSg9TyljMVtjSF1bY0hdYyhbY0hdbjEpW05IXUMoPU8pW05IXVtDQEhdKFtDSDJdW0NIMl0yKVtDQEBIXShOMjMpW0NIMl1bQ0gyXVtDSDJdW0NIMl0z

> <s_epik_cmdline>
J2VwaWtfcHl0aG9uJywgJy1waCcsICc3LjAnLCAnLXRuJywgJzgnLCAnLW1hJywgJzIwMCcsICctbWV0YWxfYmluZGluZycsICctaW1hZScsICc8aW5maWxlLm1hZT4nLCAnLW9tYWUnLCAnPG91dGZpbGUubWFlPic=

> <r_epik_Ionization_Penalty>
0.00100042

> <r_epik_Ionization_Penalty_Charging>
0.000974069

> <r_epik_Ionization_Penalty_Neutral>
2.63543e-05

> <r_epik_State_Penalty>
0.000633842

> <r_epik_Charging_Adjusted_Penalty>
0.00160791

> <i_epik_Tot_Q>
1

> <i_epik_Tot_abs_Q>
1

> <r_epik_Metal_State_Penalty>
-0

> <b_epik_Metal_Only>
0

> <s_lp_Force_Field>
OPLS_2005

> <r_lp_Energy>
37.3337

> <b_lp_Chiralities_Consistent>
1

> <s_lp_Variant>
AV-unprocessed.smi:1738-6

> <Gold.Version>
5.8.1

> <Gold.Id.Protein>
6NUR|6NUR_protein|mol2

> <Gold.PLP.Fitness>
41.2343

> <Gold.PLP.PLP>
-27.9070

> <Gold.PLP.part.hbond>
-4.7157

> <Gold.PLP.part.metal>
0.0000

> <Gold.PLP.part.buried>
-5.6851

> <Gold.PLP.part.nonpolar>
-18.4000

> <Gold.PLP.part.repulsive>
0.0295

> <Gold.PLP.ligand.clash>
0.0000

> <Gold.PLP.ligand.torsion>
1.4904

> <Gold.PLP.Chemscore.Hbond>
4.7593

> <Gold.PLP.Chemscore.CHOScore>
0.0000

> <Gold.PLP.Chemscore.Metal>
0.0000

> <Gold.Chemscore.Hbonds>
donor molecule, donor type, donor heavy atom, donor atom, acceptor molecule, acceptor atom, score
      L1  H     9    29       P1  7948  1.00
      L1  H    12    30       P1  7948  0.90
      L1  H    16    46       P1 10957  1.17
      P1  H  6896  6907       L1     4  0.65
      P1  H  7997  8008       L1     3  0.94

> <Gold.PLP.Chemscore.Internal.Correction>
2.0303

> <Gold.Rescore>
     Score         DG    S(hbond)    S(metal)    S(lipo)     H(rot)  DE(clash)    DE(int)     intcor
     22.13     -24.85       4.40        0.00      61.92       1.00       0.04       2.69       ----

> <Gold.Chemscore.Fitness>
22.1267

> <Gold.Chemscore.DG>
-24.8532

> <Gold.Chemscore.ZeroCoef>
-5.4800

> <Gold.Chemscore.Hbond>
4.3976

> <Gold.Chemscore.Metal>
0.0000

> <Gold.Chemscore.Lipo>
61.9249

> <Gold.Chemscore.Internal_Hbond>
0.0000

> <Gold.Chemscore.DEClash>
0.0354

> <Gold.Chemscore.DEInternal>
2.6911

> <Gold.Chemscore.Rot>
1.0000

> <Gold.Chemscore.Internal.Correction>
   9.000000E+99

> <Gold.Chemscore.Hbonds>
donor molecule, donor type, donor heavy atom, donor atom, acceptor molecule, acceptor atom, score
      L1  H     9    29       P1  7948  0.85
      L1  H    12    30       P1  7948  0.86
      L1  H    16    46       P1 10957  0.17
      P1  H  6896  6907       L1     4  0.64
      P1  H  7997  8008       L1     3  0.91

> <Gold.Chemscore.Hbond.Weighted>
-14.6880

> <Gold.Chemscore.Metal.Weighted>
-0.0000

> <Gold.Chemscore.Lipo.Weighted>
-7.2452

> <Gold.Chemscore.Internal_Hbond.Weighted>
0.0000

> <Gold.Chemscore.DEClash.Weighted>
0.0354

> <Gold.Chemscore.DEInternal.Weighted>
2.6911

> <Gold.Chemscore.Rot.Weighted>
2.5600

> <Gold.Chemscore.Internal.Correction.Weighted>
   9.000000E+99

> <Gold.Protein.RotatedTorsions>
[ 6907 6896 6895 6894 ] final   29.77 input  -60.11 | X-H torsion
[ 7974 7965 7964 7962 ] final   83.03 input  175.53 | X-H torsion
[ 8008 7997 7996 7995 ] final  -96.34 input   59.86 | X-H torsion
[ 10167 10162 10161 10158 ] final -157.18 input  -65.29 | X-H torsion
[ 10718 10713 10712 10709 ] final   87.65 input   66.30 | X-H torsion
[ 10763 10752 10751 10750 ] final   79.03 input  -60.55 | X-H torsion
[ 11005 11000 10999 10996 ] final  -26.43 input  -57.11 | X-H torsion

> <Gold.Protein.ActiveResidues>
 VAL166  LYS551  ARG553  GLY616  TRP617  ASP618  TYR619  PRO620  LYS621  CYS622 
 ASP623  PHE694  ASN695  SER759  ASP760  ASP761  ALA762  ILE779  LEU786  VAL792 
 PHE793  MET794  SER795  GLU796  ALA797  LYS798  CYS799  TRP800  GLU811  SER814 

> <Gold.Protein.RotatedAtoms>
  152.0363  134.9738  160.0573 H   0  0  0  0  0  0  0  0  0  0  0  0  # atno 6907 bound_to 6896
  152.1194  133.4340  159.4677 H   0  0  0  0  0  0  0  0  0  0  0  0  # atno 6908 bound_to 6896
  150.6848  134.2471  159.4539 H   0  0  0  0  0  0  0  0  0  0  0  0  # atno 6909 bound_to 6896
  145.6173  139.2379  143.2158 H   0  0  0  0  0  0  0  0  0  0  0  0  # atno 7974 bound_to 7965
  154.7732  140.0472  157.1068 H   0  0  0  0  0  0  0  0  0  0  0  0  # atno 8008 bound_to 7997
  154.9795  140.3099  155.4933 H   0  0  0  0  0  0  0  0  0  0  0  0  # atno 8009 bound_to 7997
  156.2924  140.2238  156.4893 H   0  0  0  0  0  0  0  0  0  0  0  0  # atno 8010 bound_to 7997
  139.6791  143.9612  152.2327 H   0  0  0  0  0  0  0  0  0  0  0  0  # atno 10167 bound_to 10162
  157.6942  131.0264  150.3156 H   0  0  0  0  0  0  0  0  0  0  0  0  # atno 10718 bound_to 10713
  153.0920  135.4855  154.8708 H   0  0  0  0  0  0  0  0  0  0  0  0  # atno 10763 bound_to 10752
  154.7281  135.3054  154.8940 H   0  0  0  0  0  0  0  0  0  0  0  0  # atno 10764 bound_to 10752
  153.9584  135.6815  153.4798 H   0  0  0  0  0  0  0  0  0  0  0  0  # atno 10765 bound_to 10752
  140.9028  133.7512  156.0567 H   0  0  0  0  0  0  0  0  0  0  0  0  # atno 11005 bound_to 11000
  146.1458  140.6994  142.9345 LP  0  0  0  0  0  0  0  0  0  0  0  0  # atno 17320 bound_to 7965
  144.7245  140.4481  143.6983 LP  0  0  0  0  0  0  0  0  0  0  0  0  # atno 17321 bound_to 7965
  139.9397  144.6689  150.8279 LP  0  0  0  0  0  0  0  0  0  0  0  0  # atno 17342 bound_to 10162
  140.7646  143.3253  151.2530 LP  0  0  0  0  0  0  0  0  0  0  0  0  # atno 17343 bound_to 10162
  156.3651  130.3853  149.7220 LP  0  0  0  0  0  0  0  0  0  0  0  0  # atno 17370 bound_to 10713
  156.4653  130.7971  151.2990 LP  0  0  0  0  0  0  0  0  0  0  0  0  # atno 17371 bound_to 10713
  140.8208  134.3291  157.5382 LP  0  0  0  0  0  0  0  0  0  0  0  0  # atno 17394 bound_to 11000
  139.8745  134.9308  156.3512 LP  0  0  0  0  0  0  0  0  0  0  0  0  # atno 17395 bound_to 11000

$$$$
