AV-unprocessed.smi:1643|AV-procd|sdf|6583|dock3
  -GOLD-   22720 7273D 1   1.00000     0.00000
 Structure written by MMmdl.
 54 56  0  0  0  0  0  0  0  0  2 V2000
  149.9922  133.3126  153.7876 C   0  0  0  0  0  0  0  0  0  0  0  0
  148.8465  134.0543  154.4807 C   0  0  0  0  0  0  0  0  0  0  0  0
  147.7197  133.9749  153.9905 O   0  0  0  0  0  0  0  0  0  0  0  0
  149.1085  134.7734  155.5985 N   0  0  0  0  0  0  0  0  0  0  0  0
  148.0748  135.5563  156.2849 C   0  0  0  0  0  0  0  0  0  0  0  0
  148.0341  136.9914  155.7350 C   0  0  0  0  0  0  0  0  0  0  0  0
  149.3820  137.7410  155.7905 C   0  0  0  0  0  0  0  0  0  0  0  0
  150.4004  137.1961  154.8819 N   0  0  0  0  0  0  0  0  0  0  0  0
  151.2786  138.2318  154.3354 C   0  0  0  0  0  0  0  0  0  0  0  0
  152.4361  138.6571  155.2624 C   0  0  1  0  0  0  0  0  0  0  0  0
  153.1456  139.6961  154.6190 O   0  0  0  0  0  0  0  0  0  0  0  0
  151.9352  139.1460  156.6375 C   0  0  0  0  0  0  0  0  0  0  0  0
  151.3428  140.4895  156.5845 N   0  0  0  0  0  0  0  0  0  0  0  0
  150.5359  141.0428  155.6393 C   0  0  0  0  0  0  0  0  0  0  0  0
  150.2522  142.3147  156.0341 N   0  3  0  0  0  0  0  0  0  0  0  0
  150.8871  142.5776  157.2497 C   0  0  0  0  0  0  0  0  0  0  0  0
  150.8995  143.7201  158.0409 C   0  0  0  0  0  0  0  0  0  0  0  0
  151.6501  143.6679  159.2372 C   0  0  0  0  0  0  0  0  0  0  0  0
  151.6851  144.8999  160.1257 C   0  0  0  0  0  0  0  0  0  0  0  0
  152.3550  142.4928  159.6059 C   0  0  0  0  0  0  0  0  0  0  0  0
  153.1540  142.4454  160.8971 C   0  0  0  0  0  0  0  0  0  0  0  0
  152.3306  141.3417  158.7866 C   0  0  0  0  0  0  0  0  0  0  0  0
  151.5884  141.4101  157.6099 C   0  0  0  0  0  0  0  0  0  0  0  0
  151.2069  136.1434  155.5177 C   0  0  0  0  0  0  0  0  0  0  0  0
  150.4483  134.9634  156.1664 C   0  0  0  0  0  0  0  0  0  0  0  0
  150.7850  134.0020  153.4978 H   0  0  0  0  0  0  0  0  0  0  0  0
  149.6363  132.8189  152.8825 H   0  0  0  0  0  0  0  0  0  0  0  0
  150.4092  132.5463  154.4411 H   0  0  0  0  0  0  0  0  0  0  0  0
  147.0933  135.0919  156.1767 H   0  0  0  0  0  0  0  0  0  0  0  0
  148.2551  135.5787  157.3602 H   0  0  0  0  0  0  0  0  0  0  0  0
  147.6759  136.9776  154.7048 H   0  0  0  0  0  0  0  0  0  0  0  0
  147.2928  137.5573  156.2994 H   0  0  0  0  0  0  0  0  0  0  0  0
  149.1682  138.7780  155.5393 H   0  0  0  0  0  0  0  0  0  0  0  0
  149.7623  137.7724  156.8126 H   0  0  0  0  0  0  0  0  0  0  0  0
  151.6748  137.8977  153.3750 H   0  0  0  0  0  0  0  0  0  0  0  0
  150.6908  139.1253  154.1185 H   0  0  0  0  0  0  0  0  0  0  0  0
  153.1392  137.8378  155.4060 H   0  0  0  0  0  0  0  0  0  0  0  0
  152.9489  139.6662  153.6951 H   0  0  0  0  0  0  0  0  0  0  0  0
  151.2184  138.4490  157.0725 H   0  0  0  0  0  0  0  0  0  0  0  0
  152.7684  139.2005  157.3396 H   0  0  0  0  0  0  0  0  0  0  0  0
  150.1860  140.5601  154.7381 H   0  0  0  0  0  0  0  0  0  0  0  0
  150.3580  144.6099  157.7549 H   0  0  0  0  0  0  0  0  0  0  0  0
  151.2467  144.6811  161.0997 H   0  0  0  0  0  0  0  0  0  0  0  0
  151.1255  145.7258  159.6854 H   0  0  0  0  0  0  0  0  0  0  0  0
  152.7113  145.2363  160.2748 H   0  0  0  0  0  0  0  0  0  0  0  0
  153.6111  141.4666  161.0470 H   0  0  0  0  0  0  0  0  0  0  0  0
  152.5107  142.6465  161.7542 H   0  0  0  0  0  0  0  0  0  0  0  0
  153.9526  143.1872  160.8806 H   0  0  0  0  0  0  0  0  0  0  0  0
  152.8626  140.4458  159.0708 H   0  0  0  0  0  0  0  0  0  0  0  0
  151.8724  135.7259  154.7614 H   0  0  0  0  0  0  0  0  0  0  0  0
  151.8648  136.5854  156.2675 H   0  0  0  0  0  0  0  0  0  0  0  0
  150.3689  135.1539  157.2372 H   0  0  0  0  0  0  0  0  0  0  0  0
  151.0446  134.0528  156.1060 H   0  0  0  0  0  0  0  0  0  0  0  0
  149.6688  142.9541  155.5100 H   0  0  0  0  0  0  0  0  0  0  0  0
  1  2  1  0  0  0  0
  1 26  1  0  0  0  0
  1 27  1  0  0  0  0
  1 28  1  0  0  0  0
  2  3  2  0  0  0  0
  2  4  1  0  0  0  0
  4 25  1  0  0  0  0
  4  5  1  0  0  0  0
  5  6  1  0  0  0  0
  5 29  1  0  0  0  0
  5 30  1  0  0  0  0
  6  7  1  0  0  0  0
  6 31  1  0  0  0  0
  6 32  1  0  0  0  0
  7  8  1  0  0  0  0
  7 33  1  0  0  0  0
  7 34  1  0  0  0  0
  8  9  1  0  0  0  0
  8 24  1  0  0  0  0
  9 10  1  0  0  0  0
  9 35  1  0  0  0  0
  9 36  1  0  0  0  0
 10 11  1  0  0  0  0
 10 12  1  0  0  0  0
 10 37  1  0  0  0  0
 11 38  1  0  0  0  0
 12 13  1  0  0  0  0
 12 39  1  0  0  0  0
 12 40  1  0  0  0  0
 13 23  1  0  0  0  0
 13 14  1  0  0  0  0
 14 15  2  0  0  0  0
 14 41  1  0  0  0  0
 15 16  1  0  0  0  0
 15 54  1  0  0  0  0
 16 23  2  0  0  0  0
 16 17  1  0  0  0  0
 17 18  2  0  0  0  0
 17 42  1  0  0  0  0
 18 19  1  0  0  0  0
 18 20  1  0  0  0  0
 19 43  1  0  0  0  0
 19 44  1  0  0  0  0
 19 45  1  0  0  0  0
 20 21  1  0  0  0  0
 20 22  2  0  0  0  0
 21 46  1  0  0  0  0
 21 47  1  0  0  0  0
 21 48  1  0  0  0  0
 22 23  1  0  0  0  0
 22 49  1  0  0  0  0
 24 25  1  0  0  0  0
 24 50  1  0  0  0  0
 24 51  1  0  0  0  0
 25 52  1  0  0  0  0
 25 53  1  0  0  0  0
M  CHG  1  15   1
M  END
> <s_m_source_file>
AV-unprocessed.smi

> <i_m_source_file_index>
1643

> <i_lp_mmshare_version>
43012

> <i_f3d_flags>
0

> <s_epik_input>
W0NIM11DKD1PKU4xW0NIMl1bQ0gyXVtDSDJdTihbQ0gyXVtDSDJdMSlbQ0gyXVtDQEhdKFtPSF0pW0NIMl1uKFtjSF1uMiljKGMyMylbY0hdYyhbQ0gzXSljKFtjSF0zKVtDSDNd

> <s_epik_cmdline>
J2VwaWtfcHl0aG9uJywgJy1waCcsICc3LjAnLCAnLXRuJywgJzgnLCAnLW1hJywgJzIwMCcsICctbWV0YWxfYmluZGluZycsICctaW1hZScsICc8aW5maWxlLm1hZT4nLCAnLW9tYWUnLCAnPG91dGZpbGUubWFlPic=

> <r_epik_Ionization_Penalty>
2.25269

> <r_epik_Ionization_Penalty_Charging>
1.20735

> <r_epik_Ionization_Penalty_Neutral>
1.04533

> <r_epik_State_Penalty>
2.37869

> <r_epik_Charging_Adjusted_Penalty>
3.58604

> <i_epik_Tot_Q>
1

> <i_epik_Tot_abs_Q>
1

> <r_epik_Metal_State_Penalty>
6.40045

> <b_epik_Metal_Only>
0

> <s_lp_Force_Field>
OPLS_2005

> <r_lp_Energy>
51.5531

> <b_lp_Chiralities_Consistent>
1

> <s_lp_Variant>
AV-unprocessed.smi:1643-12

> <Gold.Version>
5.8.1

> <Gold.Id.Protein>
6NUR|6NUR_protein|mol2

> <Gold.PLP.Fitness>
56.6730

> <Gold.PLP.PLP>
-48.7559

> <Gold.PLP.part.hbond>
-3.0000

> <Gold.PLP.part.metal>
0.0000

> <Gold.PLP.part.buried>
-6.6590

> <Gold.PLP.part.nonpolar>
-39.9875

> <Gold.PLP.part.repulsive>
0.3527

> <Gold.PLP.ligand.clash>
0.0000

> <Gold.PLP.ligand.torsion>
0.5803

> <Gold.PLP.Chemscore.Hbond>
3.0000

> <Gold.PLP.Chemscore.CHOScore>
0.0000

> <Gold.PLP.Chemscore.Metal>
0.0000

> <Gold.Chemscore.Hbonds>
donor molecule, donor type, donor heavy atom, donor atom, acceptor molecule, acceptor atom, score
      L1  H    15    54       P1  8028  1.63
      P1  H  7997  8008       L1    11  1.00

> <Gold.PLP.Chemscore.Internal.Correction>
0.0777

> <Gold.Rescore>
     Score         DG    S(hbond)    S(metal)    S(lipo)     H(rot)  DE(clash)    DE(int)     intcor
     19.84     -20.57       1.94        0.00     119.89       2.12       0.15       0.58       ----

> <Gold.Chemscore.Fitness>
19.8392

> <Gold.Chemscore.DG>
-20.5656

> <Gold.Chemscore.ZeroCoef>
-5.4800

> <Gold.Chemscore.Hbond>
1.9432

> <Gold.Chemscore.Metal>
0.0000

> <Gold.Chemscore.Lipo>
119.8944

> <Gold.Chemscore.Internal_Hbond>
0.0000

> <Gold.Chemscore.DEClash>
0.1461

> <Gold.Chemscore.DEInternal>
0.5803

> <Gold.Chemscore.Rot>
2.1220

> <Gold.Chemscore.Internal.Correction>
   9.000000E+99

> <Gold.Chemscore.Hbonds>
donor molecule, donor type, donor heavy atom, donor atom, acceptor molecule, acceptor atom, score
      L1  H    15    54       P1  8028  0.81
      P1  H  7997  8008       L1    11  0.78

> <Gold.Chemscore.Hbond.Weighted>
-6.4902

> <Gold.Chemscore.Metal.Weighted>
-0.0000

> <Gold.Chemscore.Lipo.Weighted>
-14.0276

> <Gold.Chemscore.Internal_Hbond.Weighted>
0.0000

> <Gold.Chemscore.DEClash.Weighted>
0.1461

> <Gold.Chemscore.DEInternal.Weighted>
0.5803

> <Gold.Chemscore.Rot.Weighted>
5.4322

> <Gold.Chemscore.Internal.Correction.Weighted>
   9.000000E+99

> <Gold.Protein.RotatedTorsions>
[ 6907 6896 6895 6894 ] final  108.58 input  -60.11 | X-H torsion
[ 7974 7965 7964 7962 ] final   40.20 input  175.53 | X-H torsion
[ 8008 7997 7996 7995 ] final    1.47 input   59.86 | X-H torsion
[ 10167 10162 10161 10158 ] final  -76.42 input  -65.29 | X-H torsion
[ 10718 10713 10712 10709 ] final    5.34 input   66.30 | X-H torsion
[ 10763 10752 10751 10750 ] final -152.59 input  -60.55 | X-H torsion
[ 11005 11000 10999 10996 ] final   26.62 input  -57.11 | X-H torsion

> <Gold.Protein.ActiveResidues>
 VAL166  LYS551  ARG553  GLY616  TRP617  ASP618  TYR619  PRO620  LYS621  CYS622 
 ASP623  PHE694  ASN695  SER759  ASP760  ASP761  ALA762  ILE779  LEU786  VAL792 
 PHE793  MET794  SER795  GLU796  ALA797  LYS798  CYS799  TRP800  GLU811  SER814 

> <Gold.Protein.RotatedAtoms>
  152.5106  133.9068  159.7467 H   0  0  0  0  0  0  0  0  0  0  0  0  # atno 6907 bound_to 6896
  150.9471  133.6583  159.2786 H   0  0  0  0  0  0  0  0  0  0  0  0  # atno 6908 bound_to 6896
  151.3874  135.0955  159.9568 H   0  0  0  0  0  0  0  0  0  0  0  0  # atno 6909 bound_to 6896
  146.0924  139.5561  142.9467 H   0  0  0  0  0  0  0  0  0  0  0  0  # atno 7974 bound_to 7965
  154.6802  140.2631  155.6917 H   0  0  0  0  0  0  0  0  0  0  0  0  # atno 8008 bound_to 7997
  156.2693  140.2812  156.1265 H   0  0  0  0  0  0  0  0  0  0  0  0  # atno 8009 bound_to 7997
  155.1043  140.0375  157.2696 H   0  0  0  0  0  0  0  0  0  0  0  0  # atno 8010 bound_to 7997
  140.4858  143.2391  151.7986 H   0  0  0  0  0  0  0  0  0  0  0  0  # atno 10167 bound_to 10162
  156.9060  130.5739  149.5647 H   0  0  0  0  0  0  0  0  0  0  0  0  # atno 10718 bound_to 10713
  154.7984  135.3232  154.7610 H   0  0  0  0  0  0  0  0  0  0  0  0  # atno 10763 bound_to 10752
  153.8283  135.6881  153.4822 H   0  0  0  0  0  0  0  0  0  0  0  0  # atno 10764 bound_to 10752
  153.1688  135.4631  154.9816 H   0  0  0  0  0  0  0  0  0  0  0  0  # atno 10765 bound_to 10752
  140.3351  134.2395  155.7697 H   0  0  0  0  0  0  0  0  0  0  0  0  # atno 11005 bound_to 11000
  145.6014  141.0354  143.2016 LP  0  0  0  0  0  0  0  0  0  0  0  0  # atno 17320 bound_to 7965
  144.7370  139.7558  143.7325 LP  0  0  0  0  0  0  0  0  0  0  0  0  # atno 17321 bound_to 7965
  139.4842  144.4713  151.9421 LP  0  0  0  0  0  0  0  0  0  0  0  0  # atno 17342 bound_to 10162
  140.3799  144.2749  150.5910 LP  0  0  0  0  0  0  0  0  0  0  0  0  # atno 17343 bound_to 10162
  156.0559  130.5620  150.9090 LP  0  0  0  0  0  0  0  0  0  0  0  0  # atno 17370 bound_to 10713
  157.5997  131.0941  150.8981 LP  0  0  0  0  0  0  0  0  0  0  0  0  # atno 17371 bound_to 10713
  141.2053  133.7863  157.0238 LP  0  0  0  0  0  0  0  0  0  0  0  0  # atno 17394 bound_to 11000
  140.0828  134.9638  157.1652 LP  0  0  0  0  0  0  0  0  0  0  0  0  # atno 17395 bound_to 11000

$$$$
