AV-unprocessed.smi:1286|AV-procd|sdf|5375|dock5
  -GOLD-   22720 4523D 1   1.00000     0.00000
 Structure written by MMmdl.
 36 37  0  0  0  0  0  0  0  0  1 V2000
  147.8181  142.1658  154.6536 C   0  0  0  0  0  0  0  0  0  0  0  0
  149.1878  141.4737  154.6619 C   0  0  2  0  0  0  0  0  0  0  0  0
  149.0537  139.9539  154.4323 C   0  0  0  0  0  0  0  0  0  0  0  0
  150.3144  139.2476  154.5810 N   0  0  0  0  0  0  0  0  0  0  0  0
  150.5712  137.9061  154.3900 C   0  0  0  0  0  0  0  0  0  0  0  0
  151.8967  137.7052  154.6482 C   0  0  0  0  0  0  0  0  0  0  0  0
  152.3735  139.0008  154.9926 C   0  0  0  0  0  0  0  0  0  0  0  0
  151.4259  139.9229  154.9451 N   0  0  0  0  0  0  0  0  0  0  0  0
  149.8517  141.7369  155.9381 N   0  0  0  0  0  0  0  0  0  0  0  0
  149.4032  141.3691  157.1490 C   0  0  0  0  0  0  0  0  0  0  0  0
  148.3840  140.7009  157.3225 O   0  0  0  0  0  0  0  0  0  0  0  0
  150.2305  141.8444  158.3494 C   0  0  0  0  0  0  0  0  0  0  0  0
  151.5947  142.4622  157.9669 C   0  0  2  0  0  0  0  0  0  0  0  0
  152.5713  142.5400  159.1158 C   0  0  0  0  0  0  0  0  0  0  0  0
  153.0521  143.7667  159.3023 C   0  0  0  0  0  0  0  0  0  0  0  0
  152.4968  144.7578  158.3180 C   0  0  0  0  0  0  0  0  0  0  0  0
  151.4847  143.9337  157.4904 C   0  0  0  0  0  0  0  0  0  0  0  0
  147.3045  142.0055  153.7052 H   0  0  0  0  0  0  0  0  0  0  0  0
  147.9213  143.2423  154.7932 H   0  0  0  0  0  0  0  0  0  0  0  0
  147.1750  141.7858  155.4483 H   0  0  0  0  0  0  0  0  0  0  0  0
  149.7667  141.8958  153.8385 H   0  0  0  0  0  0  0  0  0  0  0  0
  148.3316  139.5259  155.1292 H   0  0  0  0  0  0  0  0  0  0  0  0
  148.6719  139.7569  153.4295 H   0  0  0  0  0  0  0  0  0  0  0  0
  149.7972  137.2134  154.0939 H   0  0  0  0  0  0  0  0  0  0  0  0
  152.4416  136.7741  154.6022 H   0  0  0  0  0  0  0  0  0  0  0  0
  153.3737  139.2974  155.2718 H   0  0  0  0  0  0  0  0  0  0  0  0
  150.7029  142.2785  155.8998 H   0  0  0  0  0  0  0  0  0  0  0  0
  149.6386  142.5765  158.8996 H   0  0  0  0  0  0  0  0  0  0  0  0
  150.3901  141.0044  159.0275 H   0  0  0  0  0  0  0  0  0  0  0  0
  152.0609  141.8651  157.1817 H   0  0  0  0  0  0  0  0  0  0  0  0
  152.8487  141.6726  159.6960 H   0  0  0  0  0  0  0  0  0  0  0  0
  153.7715  144.0456  160.0582 H   0  0  0  0  0  0  0  0  0  0  0  0
  152.0170  145.5873  158.8380 H   0  0  0  0  0  0  0  0  0  0  0  0
  153.3002  145.1531  157.6954 H   0  0  0  0  0  0  0  0  0  0  0  0
  151.6906  144.0159  156.4228 H   0  0  0  0  0  0  0  0  0  0  0  0
  150.4782  144.3227  157.6487 H   0  0  0  0  0  0  0  0  0  0  0  0
  1  2  1  0  0  0  0
  1 18  1  0  0  0  0
  1 19  1  0  0  0  0
  1 20  1  0  0  0  0
  2  3  1  0  0  0  0
  2  9  1  0  0  0  0
  2 21  1  0  0  0  0
  3  4  1  0  0  0  0
  3 22  1  0  0  0  0
  3 23  1  0  0  0  0
  4  8  1  0  0  0  0
  4  5  1  0  0  0  0
  5  6  2  0  0  0  0
  5 24  1  0  0  0  0
  6  7  1  0  0  0  0
  6 25  1  0  0  0  0
  7  8  2  0  0  0  0
  7 26  1  0  0  0  0
  9 10  1  0  0  0  0
  9 27  1  0  0  0  0
 10 11  2  0  0  0  0
 10 12  1  0  0  0  0
 12 13  1  0  0  0  0
 12 28  1  0  0  0  0
 12 29  1  0  0  0  0
 13 17  1  0  0  0  0
 13 14  1  0  0  0  0
 13 30  1  0  0  0  0
 14 15  2  0  0  0  0
 14 31  1  0  0  0  0
 15 16  1  0  0  0  0
 15 32  1  0  0  0  0
 16 17  1  0  0  0  0
 16 33  1  0  0  0  0
 16 34  1  0  0  0  0
 17 35  1  0  0  0  0
 17 36  1  0  0  0  0
M  END
> <s_m_source_file>
AV-unprocessed.smi

> <i_m_source_file_index>
1286

> <i_lp_mmshare_version>
43012

> <i_f3d_flags>
0

> <s_epik_input>
bjFbY0hdW2NIXVtjSF1uMVtDSDJdW0NAQEhdKFtDSDNdKVtOSF1DKD1PKVtDSDJdW0NAQEhdMltDSF09W0NIXVtDSDJdW0NIMl0y

> <s_epik_cmdline>
J2VwaWtfcHl0aG9uJywgJy1waCcsICc3LjAnLCAnLXRuJywgJzgnLCAnLW1hJywgJzIwMCcsICctbWV0YWxfYmluZGluZycsICctaW1hZScsICc8aW5maWxlLm1hZT4nLCAnLW9tYWUnLCAnPG91dGZpbGUubWFlPic=

> <r_lp_tautomer_probability>
1

> <r_epik_Ionization_Penalty>
0.000301761

> <r_epik_Ionization_Penalty_Charging>
0

> <r_epik_Ionization_Penalty_Neutral>
0.000301761

> <r_epik_State_Penalty>
-0

> <r_epik_Charging_Adjusted_Penalty>
0

> <i_epik_Tot_Q>
0

> <i_epik_Tot_abs_Q>
0

> <r_epik_Metal_State_Penalty>
-0

> <b_epik_Metal_Only>
0

> <s_lp_Force_Field>
OPLS_2005

> <r_lp_Energy>
16.2222

> <b_lp_Chiralities_Consistent>
1

> <s_lp_Variant>
AV-unprocessed.smi:1286-1

> <Gold.Version>
5.8.1

> <Gold.Id.Protein>
6NUR|6NUR_protein|mol2

> <Gold.PLP.Fitness>
47.0575

> <Gold.PLP.PLP>
-41.6298

> <Gold.PLP.part.hbond>
-1.6411

> <Gold.PLP.part.metal>
0.0000

> <Gold.PLP.part.buried>
-1.7756

> <Gold.PLP.part.nonpolar>
-39.8439

> <Gold.PLP.part.repulsive>
0.1951

> <Gold.PLP.ligand.clash>
0.0000

> <Gold.PLP.ligand.torsion>
0.3002

> <Gold.PLP.Chemscore.Hbond>
1.0000

> <Gold.PLP.Chemscore.CHOScore>
1.0000

> <Gold.PLP.Chemscore.Metal>
0.0000

> <Gold.Chemscore.Hbonds>
donor molecule, donor type, donor heavy atom, donor atom, acceptor molecule, acceptor atom, score
      P1  H  7989  7998       L1     8  0.95
      L1  C     5    24       P1  7948  0.95

> <Gold.PLP.Chemscore.Internal.Correction>
0.0282

> <Gold.Rescore>
     Score         DG    S(hbond)    S(metal)    S(lipo)     H(rot)  DE(clash)    DE(int)     intcor
     15.42     -16.55       0.74        0.00     109.25       1.64       0.06       1.07       ----

> <Gold.Chemscore.Fitness>
15.4235

> <Gold.Chemscore.DG>
-16.5532

> <Gold.Chemscore.ZeroCoef>
-5.4800

> <Gold.Chemscore.Hbond>
0.7449

> <Gold.Chemscore.Metal>
0.0000

> <Gold.Chemscore.Lipo>
109.2503

> <Gold.Chemscore.Internal_Hbond>
0.0000

> <Gold.Chemscore.DEClash>
0.0634

> <Gold.Chemscore.DEInternal>
1.0663

> <Gold.Chemscore.Rot>
1.6394

> <Gold.Chemscore.Internal.Correction>
   9.000000E+99

> <Gold.Chemscore.Hbonds>
donor molecule, donor type, donor heavy atom, donor atom, acceptor molecule, acceptor atom, score
      P1  H  7989  7998       L1     8  0.14

> <Gold.Chemscore.Hbond.Weighted>
-2.4879

> <Gold.Chemscore.Metal.Weighted>
-0.0000

> <Gold.Chemscore.Lipo.Weighted>
-12.7823

> <Gold.Chemscore.Internal_Hbond.Weighted>
0.0000

> <Gold.Chemscore.DEClash.Weighted>
0.0634

> <Gold.Chemscore.DEInternal.Weighted>
1.0663

> <Gold.Chemscore.Rot.Weighted>
4.1969

> <Gold.Chemscore.Internal.Correction.Weighted>
   9.000000E+99

> <Gold.Protein.RotatedTorsions>
[ 6907 6896 6895 6894 ] final  179.65 input  -60.11 | X-H torsion
[ 7974 7965 7964 7962 ] final  -85.03 input  175.53 | X-H torsion
[ 8008 7997 7996 7995 ] final  142.99 input   59.86 | X-H torsion
[ 10167 10162 10161 10158 ] final  -16.02 input  -65.29 | X-H torsion
[ 10718 10713 10712 10709 ] final   18.83 input   66.30 | X-H torsion
[ 10763 10752 10751 10750 ] final  -89.71 input  -60.55 | X-H torsion
[ 11005 11000 10999 10996 ] final   48.72 input  -57.11 | X-H torsion

> <Gold.Protein.ActiveResidues>
 VAL166  LYS551  ARG553  GLY616  TRP617  ASP618  TYR619  PRO620  LYS621  CYS622 
 ASP623  PHE694  ASN695  SER759  ASP760  ASP761  ALA762  ILE779  LEU786  VAL792 
 PHE793  MET794  SER795  GLU796  ALA797  LYS798  CYS799  TRP800  GLU811  SER814 

> <Gold.Protein.RotatedAtoms>
  151.6682  133.3314  159.3190 H   0  0  0  0  0  0  0  0  0  0  0  0  # atno 6907 bound_to 6896
  150.7880  134.6885  159.6493 H   0  0  0  0  0  0  0  0  0  0  0  0  # atno 6908 bound_to 6896
  152.3954  134.6377  160.0143 H   0  0  0  0  0  0  0  0  0  0  0  0  # atno 6909 bound_to 6896
  145.4987  140.9548  143.1771 H   0  0  0  0  0  0  0  0  0  0  0  0  # atno 7974 bound_to 7965
  156.2939  140.2274  156.4818 H   0  0  0  0  0  0  0  0  0  0  0  0  # atno 8008 bound_to 7997
  154.7846  140.0458  157.1175 H   0  0  0  0  0  0  0  0  0  0  0  0  # atno 8009 bound_to 7997
  154.9718  140.3067  155.4988 H   0  0  0  0  0  0  0  0  0  0  0  0  # atno 8010 bound_to 7997
  140.7227  143.5158  150.9693 H   0  0  0  0  0  0  0  0  0  0  0  0  # atno 10167 bound_to 10162
  157.1018  130.6471  149.5874 H   0  0  0  0  0  0  0  0  0  0  0  0  # atno 10718 bound_to 10713
  154.6581  135.5331  153.7984 H   0  0  0  0  0  0  0  0  0  0  0  0  # atno 10763 bound_to 10752
  153.0426  135.6499  154.0913 H   0  0  0  0  0  0  0  0  0  0  0  0  # atno 10764 bound_to 10752
  154.0825  135.2946  155.3267 H   0  0  0  0  0  0  0  0  0  0  0  0  # atno 10765 bound_to 10752
  140.1166  134.4884  155.8632 H   0  0  0  0  0  0  0  0  0  0  0  0  # atno 11005 bound_to 11000
  144.7792  139.6563  143.7161 LP  0  0  0  0  0  0  0  0  0  0  0  0  # atno 17320 bound_to 7965
  146.2239  139.5686  142.9600 LP  0  0  0  0  0  0  0  0  0  0  0  0  # atno 17321 bound_to 7965
  139.8874  143.6996  152.3149 LP  0  0  0  0  0  0  0  0  0  0  0  0  # atno 17342 bound_to 10162
  139.7300  144.7584  151.0818 LP  0  0  0  0  0  0  0  0  0  0  0  0  # atno 17343 bound_to 10162
  155.9872  130.4910  150.7113 LP  0  0  0  0  0  0  0  0  0  0  0  0  # atno 17370 bound_to 10713
  157.4634  131.0885  151.0721 LP  0  0  0  0  0  0  0  0  0  0  0  0  # atno 17371 bound_to 10713
  141.2142  133.6746  156.6808 LP  0  0  0  0  0  0  0  0  0  0  0  0  # atno 17394 bound_to 11000
  140.3020  134.8156  157.4105 LP  0  0  0  0  0  0  0  0  0  0  0  0  # atno 17395 bound_to 11000

$$$$
