AV-unprocessed.smi:2532|AV-procd|sdf|9969|dock7
  -GOLD-   2272014 13D 1   1.00000     0.00000
 Structure written by MMmdl.
 36 38  0  0  0  0  0  0  0  0  1 V2000
  149.5720  142.3609  156.6615 O   0  0  0  0  0  0  0  0  0  0  0  0
  150.6098  141.6308  157.2868 C   0  0  1  0  0  0  0  0  0  0  0  0
  151.2715  140.7246  156.2363 C   0  0  0  0  0  0  0  0  0  0  0  0
  150.4386  139.6019  155.9988 O   0  0  0  0  0  0  0  0  0  0  0  0
  150.0884  139.4598  154.6315 C   0  0  0  0  0  0  0  0  0  0  0  0
  148.8316  140.2357  154.3983 C   0  0  0  0  0  0  0  0  0  0  0  0
  148.7300  141.5125  153.9069 C   0  0  0  0  0  0  0  0  0  0  0  0
  147.3832  141.9633  153.7814 C   0  0  0  0  0  0  0  0  0  0  0  0
  146.4694  141.0210  154.1716 C   0  0  0  0  0  0  0  0  0  0  0  0
  147.2491  139.5554  154.7012 S   0  0  0  0  0  0  0  0  0  0  0  0
  151.6157  142.6211  157.9051 C   0  0  0  0  0  0  0  0  0  0  0  0
  152.3254  142.0605  159.0419 N   0  0  0  0  0  0  0  0  0  0  0  0
  152.9733  140.8807  159.0885 C   0  0  0  0  0  0  0  0  0  0  0  0
  153.5649  140.5548  160.2343 N   0  0  0  0  0  0  0  0  0  0  0  0
  153.2679  141.6523  161.0242 C   0  0  0  0  0  0  0  0  0  0  0  0
  153.6079  141.9351  162.3665 C   0  0  0  0  0  0  0  0  0  0  0  0
  153.1867  143.1372  162.9721 C   0  0  0  0  0  0  0  0  0  0  0  0
  152.4193  144.0723  162.2477 C   0  0  0  0  0  0  0  0  0  0  0  0
  152.0677  143.8125  160.9091 C   0  0  0  0  0  0  0  0  0  0  0  0
  152.4920  142.6130  160.3075 C   0  0  0  0  0  0  0  0  0  0  0  0
  149.9371  143.1585  156.3099 H   0  0  0  0  0  0  0  0  0  0  0  0
  150.1821  141.0176  158.0816 H   0  0  0  0  0  0  0  0  0  0  0  0
  151.4774  141.2731  155.3152 H   0  0  0  0  0  0  0  0  0  0  0  0
  152.2282  140.3612  156.6150 H   0  0  0  0  0  0  0  0  0  0  0  0
  150.8901  139.8356  153.9937 H   0  0  0  0  0  0  0  0  0  0  0  0
  149.9270  138.4096  154.3848 H   0  0  0  0  0  0  0  0  0  0  0  0
  149.5703  142.1348  153.6363 H   0  0  0  0  0  0  0  0  0  0  0  0
  147.1356  142.9479  153.4128 H   0  0  0  0  0  0  0  0  0  0  0  0
  145.3921  141.0959  154.1781 H   0  0  0  0  0  0  0  0  0  0  0  0
  152.3546  142.9201  157.1604 H   0  0  0  0  0  0  0  0  0  0  0  0
  151.1085  143.5334  158.2219 H   0  0  0  0  0  0  0  0  0  0  0  0
  153.0112  140.2230  158.2322 H   0  0  0  0  0  0  0  0  0  0  0  0
  154.1940  141.2254  162.9314 H   0  0  0  0  0  0  0  0  0  0  0  0
  153.4535  143.3427  163.9985 H   0  0  0  0  0  0  0  0  0  0  0  0
  152.1003  144.9898  162.7204 H   0  0  0  0  0  0  0  0  0  0  0  0
  151.4780  144.5257  160.3522 H   0  0  0  0  0  0  0  0  0  0  0  0
  1  2  1  0  0  0  0
  1 21  1  0  0  0  0
  2  3  1  0  0  0  0
  2 11  1  0  0  0  0
  2 22  1  0  0  0  0
  3  4  1  0  0  0  0
  3 23  1  0  0  0  0
  3 24  1  0  0  0  0
  4  5  1  0  0  0  0
  5  6  1  0  0  0  0
  5 25  1  0  0  0  0
  5 26  1  0  0  0  0
  6 10  1  0  0  0  0
  6  7  2  0  0  0  0
  7  8  1  0  0  0  0
  7 27  1  0  0  0  0
  8  9  2  0  0  0  0
  8 28  1  0  0  0  0
  9 10  1  0  0  0  0
  9 29  1  0  0  0  0
 11 12  1  0  0  0  0
 11 30  1  0  0  0  0
 11 31  1  0  0  0  0
 12 20  1  0  0  0  0
 12 13  1  0  0  0  0
 13 14  2  0  0  0  0
 13 32  1  0  0  0  0
 14 15  1  0  0  0  0
 15 20  2  0  0  0  0
 15 16  1  0  0  0  0
 16 17  2  0  0  0  0
 16 33  1  0  0  0  0
 17 18  1  0  0  0  0
 17 34  1  0  0  0  0
 18 19  2  0  0  0  0
 18 35  1  0  0  0  0
 19 20  1  0  0  0  0
 19 36  1  0  0  0  0
M  END
> <s_m_source_file>
AV-unprocessed.smi

> <i_m_source_file_index>
2532

> <i_lp_mmshare_version>
43012

> <i_f3d_flags>
0

> <s_epik_input>
W2NIXTFbY0hdW2NIXVtjSF1jKGMxMiluKFtjSF1uMilbQ0gyXVtDQEhdKFtPSF0pW0NIMl1PW0NIMl1jM1tjSF1bY0hdW2NIXXMz

> <s_epik_cmdline>
J2VwaWtfcHl0aG9uJywgJy1waCcsICc3LjAnLCAnLXRuJywgJzgnLCAnLW1hJywgJzIwMCcsICctbWV0YWxfYmluZGluZycsICctaW1hZScsICc8aW5maWxlLm1hZT4nLCAnLW9tYWUnLCAnPG91dGZpbGUubWFlPic=

> <r_epik_Ionization_Penalty>
0.0678455

> <r_epik_Ionization_Penalty_Charging>
0

> <r_epik_Ionization_Penalty_Neutral>
0.0678455

> <r_epik_State_Penalty>
0.0593261

> <r_epik_Charging_Adjusted_Penalty>
0.0593261

> <i_epik_Tot_Q>
0

> <i_epik_Tot_abs_Q>
0

> <r_epik_Metal_State_Penalty>
6.23947e-05

> <b_epik_Metal_Only>
0

> <s_lp_Force_Field>
OPLS_2005

> <r_lp_Energy>
10.0551

> <b_lp_Chiralities_Consistent>
1

> <s_lp_Variant>
AV-unprocessed.smi:2532-2

> <Gold.Version>
5.8.1

> <Gold.Id.Protein>
6NUR|6NUR_protein|mol2

> <Gold.PLP.Fitness>
49.8322

> <Gold.PLP.PLP>
-47.8167

> <Gold.PLP.part.hbond>
-1.0000

> <Gold.PLP.part.metal>
0.0000

> <Gold.PLP.part.buried>
-2.4773

> <Gold.PLP.part.nonpolar>
-43.4663

> <Gold.PLP.part.repulsive>
0.0076

> <Gold.PLP.ligand.clash>
0.0000

> <Gold.PLP.ligand.torsion>
1.4361

> <Gold.PLP.Chemscore.Hbond>
0.6720

> <Gold.PLP.Chemscore.CHOScore>
0.9318

> <Gold.PLP.Chemscore.Metal>
0.0000

> <Gold.Chemscore.Hbonds>
donor molecule, donor type, donor heavy atom, donor atom, acceptor molecule, acceptor atom, score
      L1  H     1    21       P1  8028  0.51
      L1  C     9    29       P1 10175  1.00

> <Gold.PLP.Chemscore.Internal.Correction>
0.0763

> <Gold.Rescore>
     Score         DG    S(hbond)    S(metal)    S(lipo)     H(rot)  DE(clash)    DE(int)     intcor
     15.18     -16.69       0.72        0.00     127.02       2.36       0.17       1.33       ----

> <Gold.Chemscore.Fitness>
15.1827

> <Gold.Chemscore.DG>
-16.6854

> <Gold.Chemscore.ZeroCoef>
-5.4800

> <Gold.Chemscore.Hbond>
0.7157

> <Gold.Chemscore.Metal>
0.0000

> <Gold.Chemscore.Lipo>
127.0221

> <Gold.Chemscore.Internal_Hbond>
0.0000

> <Gold.Chemscore.DEClash>
0.1681

> <Gold.Chemscore.DEInternal>
1.3345

> <Gold.Chemscore.Rot>
2.3620

> <Gold.Chemscore.Internal.Correction>
   9.000000E+99

> <Gold.Chemscore.Hbonds>
donor molecule, donor type, donor heavy atom, donor atom, acceptor molecule, acceptor atom, score
      L1  H     1    21       P1  8028  0.50

> <Gold.Chemscore.Hbond.Weighted>
-2.3905

> <Gold.Chemscore.Metal.Weighted>
-0.0000

> <Gold.Chemscore.Lipo.Weighted>
-14.8616

> <Gold.Chemscore.Internal_Hbond.Weighted>
0.0000

> <Gold.Chemscore.DEClash.Weighted>
0.1681

> <Gold.Chemscore.DEInternal.Weighted>
1.3345

> <Gold.Chemscore.Rot.Weighted>
6.0468

> <Gold.Chemscore.Internal.Correction.Weighted>
   9.000000E+99

> <Gold.Protein.RotatedTorsions>
[ 6907 6896 6895 6894 ] final  -14.30 input  -60.11 | X-H torsion
[ 7974 7965 7964 7962 ] final  153.79 input  175.53 | X-H torsion
[ 8008 7997 7996 7995 ] final  -34.24 input   59.86 | X-H torsion
[ 10167 10162 10161 10158 ] final -121.52 input  -65.29 | X-H torsion
[ 10718 10713 10712 10709 ] final -157.06 input   66.30 | X-H torsion
[ 10763 10752 10751 10750 ] final   90.23 input  -60.55 | X-H torsion
[ 11005 11000 10999 10996 ] final   33.25 input  -57.11 | X-H torsion

> <Gold.Protein.ActiveResidues>
 VAL166  LYS551  ARG553  GLY616  TRP617  ASP618  TYR619  PRO620  LYS621  CYS622 
 ASP623  PHE694  ASN695  SER759  ASP760  ASP761  ALA762  ILE779  LEU786  VAL792 
 PHE793  MET794  SER795  GLU796  ALA797  LYS798  CYS799  TRP800  GLU811  SER814 

> <Gold.Protein.RotatedAtoms>
  151.3416  135.0865  159.9372 H   0  0  0  0  0  0  0  0  0  0  0  0  # atno 6907 bound_to 6896
  152.5210  133.9442  159.7651 H   0  0  0  0  0  0  0  0  0  0  0  0  # atno 6908 bound_to 6896
  150.9800  133.6202  159.2754 H   0  0  0  0  0  0  0  0  0  0  0  0  # atno 6909 bound_to 6896
  144.8131  139.6848  143.6133 H   0  0  0  0  0  0  0  0  0  0  0  0  # atno 7974 bound_to 7965
  154.4126  140.1689  156.2017 H   0  0  0  0  0  0  0  0  0  0  0  0  # atno 8008 bound_to 7997
  155.9518  140.3400  155.6391 H   0  0  0  0  0  0  0  0  0  0  0  0  # atno 8009 bound_to 7997
  155.6860  140.0728  157.2457 H   0  0  0  0  0  0  0  0  0  0  0  0  # atno 8010 bound_to 7997
  140.0241  143.5314  152.2207 H   0  0  0  0  0  0  0  0  0  0  0  0  # atno 10167 bound_to 10162
  156.5350  130.8538  151.2729 H   0  0  0  0  0  0  0  0  0  0  0  0  # atno 10718 bound_to 10713
  153.1954  135.4441  155.0201 H   0  0  0  0  0  0  0  0  0  0  0  0  # atno 10763 bound_to 10752
  154.8115  135.3297  154.7293 H   0  0  0  0  0  0  0  0  0  0  0  0  # atno 10764 bound_to 10752
  153.7743  135.6982  153.4955 H   0  0  0  0  0  0  0  0  0  0  0  0  # atno 10765 bound_to 10752
  140.2650  134.3148  155.7845 H   0  0  0  0  0  0  0  0  0  0  0  0  # atno 11005 bound_to 11000
  146.2432  139.6043  142.9477 LP  0  0  0  0  0  0  0  0  0  0  0  0  # atno 17320 bound_to 7965
  145.5278  141.0428  143.2400 LP  0  0  0  0  0  0  0  0  0  0  0  0  # atno 17321 bound_to 7965
  139.6120  144.7611  151.2932 LP  0  0  0  0  0  0  0  0  0  0  0  0  # atno 17342 bound_to 10162
  140.7330  143.6808  150.8003 LP  0  0  0  0  0  0  0  0  0  0  0  0  # atno 17343 bound_to 10162
  157.7415  130.9871  150.2451 LP  0  0  0  0  0  0  0  0  0  0  0  0  # atno 17370 bound_to 10713
  156.3024  130.3760  149.7738 LP  0  0  0  0  0  0  0  0  0  0  0  0  # atno 17371 bound_to 10713
  141.2185  133.7432  156.9246 LP  0  0  0  0  0  0  0  0  0  0  0  0  # atno 17394 bound_to 11000
  140.1427  134.9282  157.2489 LP  0  0  0  0  0  0  0  0  0  0  0  0  # atno 17395 bound_to 11000

$$$$
