AV-unprocessed.smi:1324|AV-procd|sdf|5470|dock2
  -GOLD-   22720 5 43D 1   1.00000     0.00000
 Structure written by MMmdl.
 43 44  0  0  0  0  0  0  0  0  1 V2000
  150.5133  134.9777  154.7084 C   0  0  0  0  0  0  0  0  0  0  0  0
  150.7298  136.4524  154.9711 C   0  0  0  0  0  0  0  0  0  0  0  0
  149.6884  137.2542  154.5341 N   0  0  0  0  0  0  0  0  0  0  0  0
  149.7918  138.6185  154.7395 C   0  0  0  0  0  0  0  0  0  0  0  0
  148.6067  139.4240  154.2365 C   0  0  0  0  0  0  0  0  0  0  0  0
  150.8819  139.1577  155.3422 C   0  0  0  0  0  0  0  0  0  0  0  0
  151.0371  140.6588  155.5870 C   0  0  0  0  0  0  0  0  0  0  0  0
  151.1259  141.1045  157.0492 C   0  0  0  0  0  0  0  0  0  0  0  0
  151.0541  140.2827  157.9634 O   0  0  0  0  0  0  0  0  0  0  0  0
  151.2812  142.4221  157.2516 N   0  0  0  0  0  0  0  0  0  0  0  0
  151.3888  143.0761  158.5543 C   0  0  0  0  0  0  0  0  0  0  0  0
  151.3386  144.6089  158.3557 C   0  0  0  0  0  0  0  0  0  0  0  0
  151.8245  145.4865  159.5233 C   0  0  0  0  0  0  0  0  0  0  0  0
  151.4992  144.9659  160.9317 C   0  0  0  0  0  0  0  0  0  0  0  0
  152.5583  143.9823  161.4561 C   0  0  0  0  0  0  0  0  0  0  0  0
  152.5130  142.5880  160.8152 C   0  0  0  0  0  0  0  0  0  0  0  0
  152.6489  142.5634  159.2816 C   0  0  0  0  0  0  0  0  0  0  0  0
  151.9715  138.2504  155.7730 C   0  0  0  0  0  0  0  0  0  0  0  0
  152.9948  138.6801  156.3041 O   0  0  0  0  0  0  0  0  0  0  0  0
  151.8116  136.8724  155.5535 N   0  0  0  0  0  0  0  0  0  0  0  0
  148.8608  136.8950  154.0802 H   0  0  0  0  0  0  0  0  0  0  0  0
  151.2618  134.3758  155.2253 H   0  0  0  0  0  0  0  0  0  0  0  0
  150.5854  134.7696  153.6405 H   0  0  0  0  0  0  0  0  0  0  0  0
  149.5281  134.6669  155.0579 H   0  0  0  0  0  0  0  0  0  0  0  0
  148.1141  139.9342  155.0644 H   0  0  0  0  0  0  0  0  0  0  0  0
  147.8668  138.7888  153.7476 H   0  0  0  0  0  0  0  0  0  0  0  0
  148.9342  140.1721  153.5141 H   0  0  0  0  0  0  0  0  0  0  0  0
  150.2267  141.2056  155.1034 H   0  0  0  0  0  0  0  0  0  0  0  0
  151.9410  141.0010  155.0830 H   0  0  0  0  0  0  0  0  0  0  0  0
  151.3274  143.0209  156.4400 H   0  0  0  0  0  0  0  0  0  0  0  0
  150.5224  142.7749  159.1462 H   0  0  0  0  0  0  0  0  0  0  0  0
  151.9169  144.8851  157.4727 H   0  0  0  0  0  0  0  0  0  0  0  0
  150.3089  144.8841  158.1236 H   0  0  0  0  0  0  0  0  0  0  0  0
  152.9005  145.6421  159.4361 H   0  0  0  0  0  0  0  0  0  0  0  0
  151.3840  146.4766  159.4013 H   0  0  0  0  0  0  0  0  0  0  0  0
  151.4804  145.8204  161.6088 H   0  0  0  0  0  0  0  0  0  0  0  0
  150.4993  144.5320  160.9714 H   0  0  0  0  0  0  0  0  0  0  0  0
  153.5536  144.4111  161.3340 H   0  0  0  0  0  0  0  0  0  0  0  0
  152.4203  143.8648  162.5313 H   0  0  0  0  0  0  0  0  0  0  0  0
  153.3207  141.9938  161.2437 H   0  0  0  0  0  0  0  0  0  0  0  0
  151.5928  142.0815  161.1086 H   0  0  0  0  0  0  0  0  0  0  0  0
  152.8224  141.5242  158.9980 H   0  0  0  0  0  0  0  0  0  0  0  0
  153.5356  143.1099  158.9583 H   0  0  0  0  0  0  0  0  0  0  0  0
  1 22  1  0  0  0  0
  1 23  1  0  0  0  0
  1 24  1  0  0  0  0
  1  2  1  0  0  0  0
  2  3  1  0  0  0  0
  2 20  2  0  0  0  0
  3  4  1  0  0  0  0
  3 21  1  0  0  0  0
  4  6  2  0  0  0  0
  4  5  1  0  0  0  0
  5 25  1  0  0  0  0
  5 26  1  0  0  0  0
  5 27  1  0  0  0  0
  6 18  1  0  0  0  0
  6  7  1  0  0  0  0
  7  8  1  0  0  0  0
  7 28  1  0  0  0  0
  7 29  1  0  0  0  0
  8  9  2  0  0  0  0
  8 10  1  0  0  0  0
 10 11  1  0  0  0  0
 10 30  1  0  0  0  0
 11 17  1  0  0  0  0
 11 12  1  0  0  0  0
 11 31  1  0  0  0  0
 12 13  1  0  0  0  0
 12 32  1  0  0  0  0
 12 33  1  0  0  0  0
 13 14  1  0  0  0  0
 13 34  1  0  0  0  0
 13 35  1  0  0  0  0
 14 15  1  0  0  0  0
 14 36  1  0  0  0  0
 14 37  1  0  0  0  0
 15 16  1  0  0  0  0
 15 38  1  0  0  0  0
 15 39  1  0  0  0  0
 16 17  1  0  0  0  0
 16 40  1  0  0  0  0
 16 41  1  0  0  0  0
 17 42  1  0  0  0  0
 17 43  1  0  0  0  0
 18 19  2  0  0  0  0
 18 20  1  0  0  0  0
M  END
> <s_m_source_file>
AV-unprocessed.smi

> <i_m_source_file_index>
1324

> <i_lp_mmshare_version>
43012

> <i_f3d_flags>
0

> <s_epik_input>
W0NIM11jMW5jKFtDSDNdKWMoYyg9TylbbkhdMSlbQ0gyXUMoPU8pW05IXVtDSF0yW0NIMl1bQ0gyXVtDSDJdW0NIMl1bQ0gyXVtDSDJdMg==

> <s_epik_cmdline>
J2VwaWtfcHl0aG9uJywgJy1waCcsICc3LjAnLCAnLXRuJywgJzgnLCAnLW1hJywgJzIwMCcsICctbWV0YWxfYmluZGluZycsICctaW1hZScsICc8aW5maWxlLm1hZT4nLCAnLW9tYWUnLCAnPG91dGZpbGUubWFlPic=

> <r_lp_tautomer_probability>
0.156392

> <r_epik_Ionization_Penalty>
0.0140222

> <r_epik_Ionization_Penalty_Charging>
0.0138986

> <r_epik_Ionization_Penalty_Neutral>
0.000123575

> <r_epik_State_Penalty>
1.53084

> <r_epik_Charging_Adjusted_Penalty>
1.54474

> <i_epik_Tot_Q>
0

> <i_epik_Tot_abs_Q>
0

> <r_epik_Metal_State_Penalty>
1.70646

> <b_epik_Metal_Only>
0

> <s_lp_Force_Field>
OPLS_2005

> <r_lp_Energy>
20.3035

> <b_lp_Chiralities_Consistent>
1

> <s_lp_Variant>
AV-unprocessed.smi:1324-2

> <Gold.Version>
5.8.1

> <Gold.Id.Protein>
6NUR|6NUR_protein|mol2

> <Gold.PLP.Fitness>
48.6205

> <Gold.PLP.PLP>
-42.0881

> <Gold.PLP.part.hbond>
-3.0000

> <Gold.PLP.part.metal>
0.0000

> <Gold.PLP.part.buried>
-1.5034

> <Gold.PLP.part.nonpolar>
-37.8111

> <Gold.PLP.part.repulsive>
0.1240

> <Gold.PLP.ligand.clash>
0.0000

> <Gold.PLP.ligand.torsion>
0.0476

> <Gold.PLP.Chemscore.Hbond>
2.2028

> <Gold.PLP.Chemscore.CHOScore>
0.0000

> <Gold.PLP.Chemscore.Metal>
0.0000

> <Gold.Chemscore.Hbonds>
donor molecule, donor type, donor heavy atom, donor atom, acceptor molecule, acceptor atom, score
      L1  H     3    21       P1  7948  0.12
      P1  H  7997  8010       L1    19  1.00
      P1  H 10752 10765       L1    20  0.95

> <Gold.PLP.Chemscore.Internal.Correction>
0.0191

> <Gold.Rescore>
     Score         DG    S(hbond)    S(metal)    S(lipo)     H(rot)  DE(clash)    DE(int)     intcor
     18.89     -20.19       1.61        0.00     112.13       1.48       1.09       0.21       ----

> <Gold.Chemscore.Fitness>
18.8879

> <Gold.Chemscore.DG>
-20.1854

> <Gold.Chemscore.ZeroCoef>
-5.4800

> <Gold.Chemscore.Hbond>
1.6094

> <Gold.Chemscore.Metal>
0.0000

> <Gold.Chemscore.Lipo>
112.1301

> <Gold.Chemscore.Internal_Hbond>
0.0000

> <Gold.Chemscore.DEClash>
1.0886

> <Gold.Chemscore.DEInternal>
0.2089

> <Gold.Chemscore.Rot>
1.4801

> <Gold.Chemscore.Internal.Correction>
   9.000000E+99

> <Gold.Chemscore.Hbonds>
donor molecule, donor type, donor heavy atom, donor atom, acceptor molecule, acceptor atom, score
      L1  H     3    21       P1  7948  0.12
      P1  H  7997  8010       L1    19  0.97
      P1  H 10752 10765       L1    20  0.21

> <Gold.Chemscore.Hbond.Weighted>
-5.3753

> <Gold.Chemscore.Metal.Weighted>
-0.0000

> <Gold.Chemscore.Lipo.Weighted>
-13.1192

> <Gold.Chemscore.Internal_Hbond.Weighted>
0.0000

> <Gold.Chemscore.DEClash.Weighted>
1.0886

> <Gold.Chemscore.DEInternal.Weighted>
0.2089

> <Gold.Chemscore.Rot.Weighted>
3.7891

> <Gold.Chemscore.Internal.Correction.Weighted>
   9.000000E+99

> <Gold.Protein.RotatedTorsions>
[ 6907 6896 6895 6894 ] final  -56.19 input  -60.11 | X-H torsion
[ 7974 7965 7964 7962 ] final  -42.19 input  175.53 | X-H torsion
[ 8008 7997 7996 7995 ] final   68.24 input   59.86 | X-H torsion
[ 10167 10162 10161 10158 ] final -132.71 input  -65.29 | X-H torsion
[ 10718 10713 10712 10709 ] final   83.79 input   66.30 | X-H torsion
[ 10763 10752 10751 10750 ] final -161.64 input  -60.55 | X-H torsion
[ 11005 11000 10999 10996 ] final  166.54 input  -57.11 | X-H torsion

> <Gold.Protein.ActiveResidues>
 VAL166  LYS551  ARG553  GLY616  TRP617  ASP618  TYR619  PRO620  LYS621  CYS622 
 ASP623  PHE694  ASN695  SER759  ASP760  ASP761  ALA762  ILE779  LEU786  VAL792 
 PHE793  MET794  SER795  GLU796  ALA797  LYS798  CYS799  TRP800  GLU811  SER814 

> <Gold.Protein.RotatedAtoms>
  150.8188  134.7385  159.6753 H   0  0  0  0  0  0  0  0  0  0  0  0  # atno 6907 bound_to 6896
  152.4305  134.5783  159.9950 H   0  0  0  0  0  0  0  0  0  0  0  0  # atno 6908 bound_to 6896
  151.5973  133.3323  159.3076 H   0  0  0  0  0  0  0  0  0  0  0  0  # atno 6909 bound_to 6896
  146.0139  140.6931  142.9211 H   0  0  0  0  0  0  0  0  0  0  0  0  # atno 7974 bound_to 7965
  155.7053  140.3495  155.4950 H   0  0  0  0  0  0  0  0  0  0  0  0  # atno 8008 bound_to 7997
  155.9404  140.1100  157.1082 H   0  0  0  0  0  0  0  0  0  0  0  0  # atno 8009 bound_to 7997
  154.4101  140.1214  156.4906 H   0  0  0  0  0  0  0  0  0  0  0  0  # atno 8010 bound_to 7997
  139.9057  143.6553  152.2586 H   0  0  0  0  0  0  0  0  0  0  0  0  # atno 10167 bound_to 10162
  157.6886  131.0106  150.2576 H   0  0  0  0  0  0  0  0  0  0  0  0  # atno 10718 bound_to 10713
  154.7285  135.3041  154.8931 H   0  0  0  0  0  0  0  0  0  0  0  0  # atno 10763 bound_to 10752
  153.9781  135.6733  153.4753 H   0  0  0  0  0  0  0  0  0  0  0  0  # atno 10764 bound_to 10752
  153.0897  135.4966  154.8585 H   0  0  0  0  0  0  0  0  0  0  0  0  # atno 10765 bound_to 10752
  140.2675  134.7853  157.3646 H   0  0  0  0  0  0  0  0  0  0  0  0  # atno 11005 bound_to 11000
  144.6963  140.3447  143.7192 LP  0  0  0  0  0  0  0  0  0  0  0  0  # atno 17320 bound_to 7965
  145.7299  139.1733  143.2436 LP  0  0  0  0  0  0  0  0  0  0  0  0  # atno 17321 bound_to 7965
  139.6986  144.7638  151.1313 LP  0  0  0  0  0  0  0  0  0  0  0  0  # atno 17342 bound_to 10162
  140.7697  143.5489  150.9227 LP  0  0  0  0  0  0  0  0  0  0  0  0  # atno 17343 bound_to 10162
  156.3161  130.3779  149.7617 LP  0  0  0  0  0  0  0  0  0  0  0  0  # atno 17370 bound_to 10713
  156.5202  130.8211  151.3201 LP  0  0  0  0  0  0  0  0  0  0  0  0  # atno 17371 bound_to 10713
  140.1405  134.4978  155.8035 LP  0  0  0  0  0  0  0  0  0  0  0  0  # atno 17394 bound_to 11000
  141.2182  133.6823  156.7201 LP  0  0  0  0  0  0  0  0  0  0  0  0  # atno 17395 bound_to 11000

$$$$
