AV-unprocessed.smi:102|AV-procd|sdf|963|dock1
  -GOLD-   2262017503D 1   1.00000     0.00000
 Structure written by MMmdl.
 43 44  0  0  0  0  0  0  0  0  2 V2000
  146.5186  134.5188  162.3445 C   0  0  0  0  0  0  0  0  0  0  0  0
  147.2529  135.7979  161.9655 C   0  0  0  0  0  0  0  0  0  0  0  0
  147.3285  136.7514  162.7405 O   0  0  0  0  0  0  0  0  0  0  0  0
  147.7715  135.7404  160.7312 O   0  0  0  0  0  0  0  0  0  0  0  0
  148.4845  136.8510  160.2092 C   0  0  0  0  0  0  0  0  0  0  0  0
  148.9314  136.5877  158.7614 C   0  0  2  0  0  0  0  0  0  0  0  0
  150.3374  136.3471  158.7228 O   0  0  0  0  0  0  0  0  0  0  0  0
  150.9800  137.3072  157.9350 C   0  0  2  0  0  0  0  0  0  0  0  0
  152.2232  137.7895  158.6460 N   0  0  0  0  0  0  0  0  0  0  0  0
  152.4182  137.5280  159.9916 C   0  0  0  0  0  0  0  0  0  0  0  0
  153.5051  137.9871  160.6438 C   0  0  0  0  0  0  0  0  0  0  0  0
  153.6639  137.7178  161.9511 F   0  0  0  0  0  0  0  0  0  0  0  0
  154.5011  138.7767  159.9222 C   0  0  0  0  0  0  0  0  0  0  0  0
  155.4908  139.1933  160.5221 O   0  0  0  0  0  0  0  0  0  0  0  0
  154.2836  139.0193  158.5970 N   0  5  0  0  0  0  0  0  0  0  0  0
  153.1815  138.5609  157.9338 C   0  0  0  0  0  0  0  0  0  0  0  0
  152.9727  138.7879  156.7421 O   0  0  0  0  0  0  0  0  0  0  0  0
  149.9973  138.4609  157.7301 C   0  0  1  0  0  0  0  0  0  0  0  0
  150.2288  139.1265  156.4951 O   0  0  0  0  0  0  0  0  0  0  0  0
  149.6689  140.3227  156.2592 C   0  0  0  0  0  0  0  0  0  0  0  0
  150.0545  140.8832  154.8972 C   0  0  0  0  0  0  0  0  0  0  0  0
  148.9202  140.9360  157.0202 O   0  0  0  0  0  0  0  0  0  0  0  0
  148.6536  137.7489  157.7953 C   0  0  1  0  0  0  0  0  0  0  0  0
  148.2954  137.2322  156.5159 O   0  0  0  0  0  0  0  0  0  0  0  0
  147.1569  136.5354  156.3583 C   0  0  0  0  0  0  0  0  0  0  0  0
  146.9894  136.0144  154.9373 C   0  0  0  0  0  0  0  0  0  0  0  0
  146.3176  136.3097  157.2301 O   0  0  0  0  0  0  0  0  0  0  0  0
  145.8958  134.1777  161.5168 H   0  0  0  0  0  0  0  0  0  0  0  0
  145.8775  134.6897  163.2097 H   0  0  0  0  0  0  0  0  0  0  0  0
  147.2317  133.7317  162.5904 H   0  0  0  0  0  0  0  0  0  0  0  0
  147.8660  137.7492  160.2422 H   0  0  0  0  0  0  0  0  0  0  0  0
  149.3565  137.0348  160.8379 H   0  0  0  0  0  0  0  0  0  0  0  0
  148.4285  135.6806  158.4242 H   0  0  0  0  0  0  0  0  0  0  0  0
  151.2996  136.8271  157.0085 H   0  0  0  0  0  0  0  0  0  0  0  0
  151.6956  136.9470  160.5423 H   0  0  0  0  0  0  0  0  0  0  0  0
  150.0990  139.1425  158.5762 H   0  0  0  0  0  0  0  0  0  0  0  0
  151.1392  140.9541  154.8117 H   0  0  0  0  0  0  0  0  0  0  0  0
  149.6312  141.8781  154.7575 H   0  0  0  0  0  0  0  0  0  0  0  0
  149.6854  140.2344  154.1028 H   0  0  0  0  0  0  0  0  0  0  0  0
  147.8788  138.4231  158.1640 H   0  0  0  0  0  0  0  0  0  0  0  0
  147.0734  136.8327  154.2221 H   0  0  0  0  0  0  0  0  0  0  0  0
  146.0132  135.5451  154.8132 H   0  0  0  0  0  0  0  0  0  0  0  0
  147.7593  135.2763  154.7122 H   0  0  0  0  0  0  0  0  0  0  0  0
  1  2  1  0  0  0  0
  1 28  1  0  0  0  0
  1 29  1  0  0  0  0
  1 30  1  0  0  0  0
  2  3  2  0  0  0  0
  2  4  1  0  0  0  0
  4  5  1  0  0  0  0
  5  6  1  0  0  0  0
  5 31  1  0  0  0  0
  5 32  1  0  0  0  0
  6 23  1  0  0  0  0
  6  7  1  0  0  0  0
  6 33  1  0  0  0  0
  7  8  1  0  0  0  0
  8  9  1  0  0  0  0
  8 18  1  0  0  0  0
  8 34  1  0  0  0  0
  9 16  1  0  0  0  0
  9 10  1  0  0  0  0
 10 11  2  0  0  0  0
 10 35  1  0  0  0  0
 11 12  1  0  0  0  0
 11 13  1  0  0  0  0
 13 14  2  0  0  0  0
 13 15  1  0  0  0  0
 15 16  1  0  0  0  0
 16 17  2  0  0  0  0
 18 19  1  0  0  0  0
 18 23  1  0  0  0  0
 18 36  1  0  0  0  0
 19 20  1  0  0  0  0
 20 21  1  0  0  0  0
 20 22  2  0  0  0  0
 21 37  1  0  0  0  0
 21 38  1  0  0  0  0
 21 39  1  0  0  0  0
 23 24  1  0  0  0  0
 23 40  1  0  0  0  0
 24 25  1  0  0  0  0
 25 26  1  0  0  0  0
 25 27  2  0  0  0  0
 26 41  1  0  0  0  0
 26 42  1  0  0  0  0
 26 43  1  0  0  0  0
M  CHG  1  15  -1
M  END
> <s_m_source_file>
AV-unprocessed.smi

> <i_m_source_file_index>
102

> <i_lp_mmshare_version>
43012

> <i_f3d_flags>
0

> <s_epik_input>
W0NIM11DKD1PKU9bQ0gyXVtDQEBIXTFPW0NASF0oW0NAQEhdKE9DKD1PKVtDSDNdKVtDQEhdMU9DKD1PKVtDSDNdKW4yW2NIXWMoRiljKD1PKVtuSF1jMj1P

> <s_epik_cmdline>
J2VwaWtfcHl0aG9uJywgJy1waCcsICc3LjAnLCAnLXRuJywgJzgnLCAnLW1hJywgJzIwMCcsICctbWV0YWxfYmluZGluZycsICctaW1hZScsICc8aW5maWxlLm1hZT4nLCAnLW9tYWUnLCAnPG91dGZpbGUubWFlPic=

> <r_epik_Ionization_Penalty>
1.40304

> <r_epik_Ionization_Penalty_Charging>
1.43915e-08

> <r_epik_Ionization_Penalty_Neutral>
1.40304

> <r_epik_State_Penalty>
1.48536

> <r_epik_Charging_Adjusted_Penalty>
1.48536

> <i_epik_Tot_Q>
-1

> <i_epik_Tot_abs_Q>
1

> <r_epik_Metal_State_Penalty>
0.00663881

> <b_epik_Metal_Only>
0

> <s_epik_Chemistry_Notes>
This compound has an ester and may undergo hydrolysis at high or low pH. This compound contains an acetal/aminal-like group ( X-CH(R)-Y where X, Y are N, S, or O) that may be acid/base labile, releasing an aldehyde.

> <s_lp_Force_Field>
OPLS_2005

> <r_lp_Energy>
27.0192

> <b_lp_Chiralities_Consistent>
1

> <s_lp_Variant>
AV-unprocessed.smi:102-19

> <Gold.Version>
5.8.1

> <Gold.Id.Protein>
6NUR|6NUR_protein|mol2

> <Gold.PLP.Fitness>
39.0171

> <Gold.PLP.PLP>
-31.9548

> <Gold.PLP.part.hbond>
-3.0000

> <Gold.PLP.part.metal>
0.0000

> <Gold.PLP.part.buried>
-3.9867

> <Gold.PLP.part.nonpolar>
-24.1111

> <Gold.PLP.part.repulsive>
0.0576

> <Gold.PLP.ligand.clash>
0.0000

> <Gold.PLP.ligand.torsion>
1.1818

> <Gold.PLP.Chemscore.Hbond>
3.0000

> <Gold.PLP.Chemscore.CHOScore>
0.0000

> <Gold.PLP.Chemscore.Metal>
0.0000

> <Gold.Chemscore.Hbonds>
donor molecule, donor type, donor heavy atom, donor atom, acceptor molecule, acceptor atom, score
      P1  H  6896  6908       L1     7  1.00
      P1  H  6931  6943       L1     3  0.06
      P1  H  7997  8008       L1    15  1.60

> <Gold.PLP.Chemscore.Internal.Correction>
0.4260

> <Gold.Rescore>
     Score         DG    S(hbond)    S(metal)    S(lipo)     H(rot)  DE(clash)    DE(int)     intcor
      3.38      -6.19       1.86        0.00      40.39       4.00       0.02       2.79       ----

> <Gold.Chemscore.Fitness>
3.3839

> <Gold.Chemscore.DG>
-6.1901

> <Gold.Chemscore.ZeroCoef>
-5.4800

> <Gold.Chemscore.Hbond>
1.8600

> <Gold.Chemscore.Metal>
0.0000

> <Gold.Chemscore.Lipo>
40.3854

> <Gold.Chemscore.Internal_Hbond>
0.0000

> <Gold.Chemscore.DEClash>
0.0168

> <Gold.Chemscore.DEInternal>
2.7895

> <Gold.Chemscore.Rot>
3.9951

> <Gold.Chemscore.Internal.Correction>
   9.000000E+99

> <Gold.Chemscore.Hbonds>
donor molecule, donor type, donor heavy atom, donor atom, acceptor molecule, acceptor atom, score
      P1  H  6896  6908       L1     7  0.81
      P1  H  6931  6943       L1     3  0.07
      P1  H  7997  8008       L1    15  0.12

> <Gold.Chemscore.Hbond.Weighted>
-6.2124

> <Gold.Chemscore.Metal.Weighted>
-0.0000

> <Gold.Chemscore.Lipo.Weighted>
-4.7251

> <Gold.Chemscore.Internal_Hbond.Weighted>
0.0000

> <Gold.Chemscore.DEClash.Weighted>
0.0168

> <Gold.Chemscore.DEInternal.Weighted>
2.7895

> <Gold.Chemscore.Rot.Weighted>
10.2274

> <Gold.Chemscore.Internal.Correction.Weighted>
   9.000000E+99

> <Gold.Protein.RotatedTorsions>
[ 6907 6896 6895 6894 ] final -172.38 input  -60.11 | X-H torsion
[ 7974 7965 7964 7962 ] final   11.91 input  175.53 | X-H torsion
[ 8008 7997 7996 7995 ] final -108.78 input   59.86 | X-H torsion
[ 10167 10162 10161 10158 ] final  130.83 input  -65.29 | X-H torsion
[ 10718 10713 10712 10709 ] final   12.17 input   66.30 | X-H torsion
[ 10763 10752 10751 10750 ] final  113.77 input  -60.55 | X-H torsion
[ 11005 11000 10999 10996 ] final -173.87 input  -57.11 | X-H torsion

> <Gold.Protein.ActiveResidues>
 VAL166  LYS551  ARG553  GLY616  TRP617  ASP618  TYR619  PRO620  LYS621  CYS622 
 ASP623  PHE694  ASN695  SER759  ASP760  ASP761  ALA762  ILE779  LEU786  VAL792 
 PHE793  MET794  SER795  GLU796  ALA797  LYS798  CYS799  TRP800  GLU811  SER814 

> <Gold.Protein.RotatedAtoms>
  151.5390  133.3436  159.2931 H   0  0  0  0  0  0  0  0  0  0  0  0  # atno 6907 bound_to 6896
  150.8547  134.7885  159.7047 H   0  0  0  0  0  0  0  0  0  0  0  0  # atno 6908 bound_to 6896
  152.4584  134.5249  159.9845 H   0  0  0  0  0  0  0  0  0  0  0  0  # atno 6909 bound_to 6896
  146.2362  139.9416  142.8482 H   0  0  0  0  0  0  0  0  0  0  0  0  # atno 7974 bound_to 7965
  154.9494  140.0401  157.2136 H   0  0  0  0  0  0  0  0  0  0  0  0  # atno 8008 bound_to 7997
  154.7993  140.2849  155.5911 H   0  0  0  0  0  0  0  0  0  0  0  0  # atno 8009 bound_to 7997
  156.2959  140.2558  156.2858 H   0  0  0  0  0  0  0  0  0  0  0  0  # atno 8010 bound_to 7997
  139.5412  144.6732  151.4620 H   0  0  0  0  0  0  0  0  0  0  0  0  # atno 10167 bound_to 10162
  157.0062  130.6099  149.5702 H   0  0  0  0  0  0  0  0  0  0  0  0  # atno 10718 bound_to 10713
  153.4974  135.3645  155.2522 H   0  0  0  0  0  0  0  0  0  0  0  0  # atno 10763 bound_to 10752
  154.8749  135.3991  154.3518 H   0  0  0  0  0  0  0  0  0  0  0  0  # atno 10764 bound_to 10752
  153.4148  135.7079  153.6400 H   0  0  0  0  0  0  0  0  0  0  0  0  # atno 10765 bound_to 10752
  140.4809  134.6076  157.4919 H   0  0  0  0  0  0  0  0  0  0  0  0  # atno 11005 bound_to 11000
  145.1947  140.9828  143.4190 LP  0  0  0  0  0  0  0  0  0  0  0  0  # atno 17320 bound_to 7965
  144.9826  139.3768  143.6254 LP  0  0  0  0  0  0  0  0  0  0  0  0  # atno 17321 bound_to 7965
  140.6642  143.8434  150.6922 LP  0  0  0  0  0  0  0  0  0  0  0  0  # atno 17342 bound_to 10162
  140.1838  143.4093  152.1913 LP  0  0  0  0  0  0  0  0  0  0  0  0  # atno 17343 bound_to 10162
  156.0153  130.5246  150.8115 LP  0  0  0  0  0  0  0  0  0  0  0  0  # atno 17370 bound_to 10713
  157.5354  131.0938  150.9899 LP  0  0  0  0  0  0  0  0  0  0  0  0  # atno 17371 bound_to 10713
  139.9827  134.7111  155.9830 LP  0  0  0  0  0  0  0  0  0  0  0  0  # atno 17394 bound_to 11000
  141.1532  133.6546  156.4078 LP  0  0  0  0  0  0  0  0  0  0  0  0  # atno 17395 bound_to 11000

$$$$
