AV-unprocessed.smi:2774|AV-procd|sdf|10680|dock7
  -GOLD-   2272015123D 1   1.00000     0.00000
 Structure written by MMmdl.
 35 36  0  0  0  0  0  0  0  0  2 V2000
  150.0027  141.9820  154.7578 O   0  0  0  0  0  0  0  0  0  0  0  0
  149.4280  140.8390  155.3604 C   0  0  2  0  0  0  0  0  0  0  0  0
  149.0148  141.1953  156.7992 C   0  0  0  0  0  0  0  0  0  0  0  0
  149.4993  142.5386  157.1844 N   0  3  0  0  0  0  0  0  0  0  0  0
  150.8668  142.5788  157.7481 C   0  0  2  0  0  0  0  0  0  0  0  0
  150.9768  141.5530  158.8934 C   0  0  0  0  0  0  0  0  0  0  0  0
  152.3948  141.4632  159.4817 C   0  0  0  0  0  0  0  0  0  0  0  0
  152.8650  142.7942  160.0835 C   0  0  0  0  0  0  0  0  0  0  0  0
  152.9372  144.0917  158.8203 S   0  0  0  0  0  0  0  0  0  0  0  0
  151.2231  143.9986  158.2352 C   0  0  0  0  0  0  0  0  0  0  0  0
  150.3839  139.6569  155.3384 C   0  0  0  0  0  0  0  0  0  0  0  0
  150.0524  138.4654  154.6575 C   0  0  0  0  0  0  0  0  0  0  0  0
  150.9802  137.4047  154.6641 C   0  0  0  0  0  0  0  0  0  0  0  0
  152.1747  137.4694  155.2898 N   0  0  0  0  0  0  0  0  0  0  0  0
  152.4867  138.6109  155.9398 C   0  0  0  0  0  0  0  0  0  0  0  0
  151.6308  139.7295  155.9938 C   0  0  0  0  0  0  0  0  0  0  0  0
  149.5614  142.7496  155.0900 H   0  0  0  0  0  0  0  0  0  0  0  0
  148.5389  140.5777  154.7843 H   0  0  0  0  0  0  0  0  0  0  0  0
  147.9269  141.1846  156.8791 H   0  0  0  0  0  0  0  0  0  0  0  0
  149.3920  140.4441  157.4933 H   0  0  0  0  0  0  0  0  0  0  0  0
  149.4583  143.1474  156.3791 H   0  0  0  0  0  0  0  0  0  0  0  0
  151.5642  142.2830  156.9626 H   0  0  0  0  0  0  0  0  0  0  0  0
  150.2696  141.8023  159.6860 H   0  0  0  0  0  0  0  0  0  0  0  0
  150.6876  140.5672  158.5269 H   0  0  0  0  0  0  0  0  0  0  0  0
  152.4152  140.6939  160.2542 H   0  0  0  0  0  0  0  0  0  0  0  0
  153.0957  141.1396  158.7112 H   0  0  0  0  0  0  0  0  0  0  0  0
  152.1927  143.1109  160.8816 H   0  0  0  0  0  0  0  0  0  0  0  0
  153.8552  142.6807  160.5255 H   0  0  0  0  0  0  0  0  0  0  0  0
  151.1114  144.7310  157.4364 H   0  0  0  0  0  0  0  0  0  0  0  0
  150.5572  144.3059  159.0425 H   0  0  0  0  0  0  0  0  0  0  0  0
  149.1103  138.3625  154.1392 H   0  0  0  0  0  0  0  0  0  0  0  0
  150.7569  136.4803  154.1523 H   0  0  0  0  0  0  0  0  0  0  0  0
  153.4484  138.6346  156.4308 H   0  0  0  0  0  0  0  0  0  0  0  0
  151.9311  140.6189  156.5282 H   0  0  0  0  0  0  0  0  0  0  0  0
  148.8658  142.8950  157.8854 H   0  0  0  0  0  0  0  0  0  0  0  0
  1  2  1  0  0  0  0
  1 17  1  0  0  0  0
  2  3  1  0  0  0  0
  2 11  1  0  0  0  0
  2 18  1  0  0  0  0
  3  4  1  0  0  0  0
  3 19  1  0  0  0  0
  3 20  1  0  0  0  0
  4  5  1  0  0  0  0
  4 21  1  0  0  0  0
  4 35  1  0  0  0  0
  5 10  1  0  0  0  0
  5  6  1  0  0  0  0
  5 22  1  0  0  0  0
  6  7  1  0  0  0  0
  6 23  1  0  0  0  0
  6 24  1  0  0  0  0
  7  8  1  0  0  0  0
  7 25  1  0  0  0  0
  7 26  1  0  0  0  0
  8  9  1  0  0  0  0
  8 27  1  0  0  0  0
  8 28  1  0  0  0  0
  9 10  1  0  0  0  0
 10 29  1  0  0  0  0
 10 30  1  0  0  0  0
 11 16  1  0  0  0  0
 11 12  2  0  0  0  0
 12 13  1  0  0  0  0
 12 31  1  0  0  0  0
 13 14  2  0  0  0  0
 13 32  1  0  0  0  0
 14 15  1  0  0  0  0
 15 16  2  0  0  0  0
 15 33  1  0  0  0  0
 16 34  1  0  0  0  0
M  CHG  1   4   1
M  END
> <s_m_source_file>
AV-unprocessed.smi

> <i_m_source_file_index>
2774

> <i_lp_mmshare_version>
43012

> <i_f3d_flags>
0

> <s_epik_input>
W2NIXTFbY0hdbltjSF1bY0hdYzFbQ0BIXShbT0hdKVtDSDJdW05IXVtDQEBIXTJbQ0gyXVtDSDJdW0NIMl1TW0NIMl0y

> <s_epik_cmdline>
J2VwaWtfcHl0aG9uJywgJy1waCcsICc3LjAnLCAnLXRuJywgJzgnLCAnLW1hJywgJzIwMCcsICctbWV0YWxfYmluZGluZycsICctaW1hZScsICc8aW5maWxlLm1hZT4nLCAnLW9tYWUnLCAnPG91dGZpbGUubWFlPic=

> <r_epik_Ionization_Penalty>
0.0205977

> <r_epik_Ionization_Penalty_Charging>
0.0185619

> <r_epik_Ionization_Penalty_Neutral>
0.00203589

> <r_epik_State_Penalty>
0.0147768

> <r_epik_Charging_Adjusted_Penalty>
0.0333386

> <i_epik_Tot_Q>
1

> <i_epik_Tot_abs_Q>
1

> <r_epik_Metal_State_Penalty>
0.0152254

> <b_epik_Metal_Only>
0

> <s_lp_Force_Field>
OPLS_2005

> <r_lp_Energy>
9.96587

> <b_lp_Chiralities_Consistent>
1

> <s_lp_Variant>
AV-unprocessed.smi:2774-1

> <Gold.Version>
5.8.1

> <Gold.Id.Protein>
6NUR|6NUR_protein|mol2

> <Gold.PLP.Fitness>
49.1032

> <Gold.PLP.PLP>
-37.7085

> <Gold.PLP.part.hbond>
-5.0000

> <Gold.PLP.part.metal>
0.0000

> <Gold.PLP.part.buried>
0.7033

> <Gold.PLP.part.nonpolar>
-33.6368

> <Gold.PLP.part.repulsive>
0.0931

> <Gold.PLP.ligand.clash>
0.0000

> <Gold.PLP.ligand.torsion>
0.9148

> <Gold.PLP.Chemscore.Hbond>
3.4000

> <Gold.PLP.Chemscore.CHOScore>
1.0042

> <Gold.PLP.Chemscore.Metal>
0.0000

> <Gold.Chemscore.Hbonds>
donor molecule, donor type, donor heavy atom, donor atom, acceptor molecule, acceptor atom, score
      L1  H     1    17       P1  8028  0.70
      L1  H     4    21       P1  8028  1.92
      P1  H  7989  7998       L1     1  0.06
      P1  H 10752 10763       L1    14  0.31
      L1  C    13    32       P1  7948  0.06
      L1  C    13    32       P1  7949  0.35

> <Gold.PLP.Chemscore.Internal.Correction>
0.0118

> <Gold.Rescore>
     Score         DG    S(hbond)    S(metal)    S(lipo)     H(rot)  DE(clash)    DE(int)     intcor
     18.50     -20.12       2.29        0.00     102.71       1.97       0.46       1.16       ----

> <Gold.Chemscore.Fitness>
18.4992

> <Gold.Chemscore.DG>
-20.1185

> <Gold.Chemscore.ZeroCoef>
-5.4800

> <Gold.Chemscore.Hbond>
2.2937

> <Gold.Chemscore.Metal>
0.0000

> <Gold.Chemscore.Lipo>
102.7111

> <Gold.Chemscore.Internal_Hbond>
0.0000

> <Gold.Chemscore.DEClash>
0.4566

> <Gold.Chemscore.DEInternal>
1.1627

> <Gold.Chemscore.Rot>
1.9686

> <Gold.Chemscore.Internal.Correction>
   9.000000E+99

> <Gold.Chemscore.Hbonds>
donor molecule, donor type, donor heavy atom, donor atom, acceptor molecule, acceptor atom, score
      L1  H     1    17       P1  8028  0.69
      L1  H     4    21       P1  8028  0.92
      P1  H  7989  7998       L1     1  0.01
      P1  H 10752 10763       L1    14  0.04

> <Gold.Chemscore.Hbond.Weighted>
-7.6609

> <Gold.Chemscore.Metal.Weighted>
-0.0000

> <Gold.Chemscore.Lipo.Weighted>
-12.0172

> <Gold.Chemscore.Internal_Hbond.Weighted>
0.0000

> <Gold.Chemscore.DEClash.Weighted>
0.4566

> <Gold.Chemscore.DEInternal.Weighted>
1.1627

> <Gold.Chemscore.Rot.Weighted>
5.0396

> <Gold.Chemscore.Internal.Correction.Weighted>
   9.000000E+99

> <Gold.Protein.RotatedTorsions>
[ 6907 6896 6895 6894 ] final   92.64 input  -60.11 | X-H torsion
[ 7974 7965 7964 7962 ] final   37.27 input  175.53 | X-H torsion
[ 8008 7997 7996 7995 ] final   -1.20 input   59.86 | X-H torsion
[ 10167 10162 10161 10158 ] final  -47.42 input  -65.29 | X-H torsion
[ 10718 10713 10712 10709 ] final  162.20 input   66.30 | X-H torsion
[ 10763 10752 10751 10750 ] final   44.89 input  -60.55 | X-H torsion
[ 11005 11000 10999 10996 ] final  -81.03 input  -57.11 | X-H torsion

> <Gold.Protein.ActiveResidues>
 VAL166  LYS551  ARG553  GLY616  TRP617  ASP618  TYR619  PRO620  LYS621  CYS622 
 ASP623  PHE694  ASN695  SER759  ASP760  ASP761  ALA762  ILE779  LEU786  VAL792 
 PHE793  MET794  SER795  GLU796  ALA797  LYS798  CYS799  TRP800  GLU811  SER814 

> <Gold.Protein.RotatedAtoms>
  152.5453  134.1471  159.8502 H   0  0  0  0  0  0  0  0  0  0  0  0  # atno 6907 bound_to 6896
  151.1502  133.4905  159.2603 H   0  0  0  0  0  0  0  0  0  0  0  0  # atno 6908 bound_to 6896
  151.1480  135.0224  159.8710 H   0  0  0  0  0  0  0  0  0  0  0  0  # atno 6909 bound_to 6896
  146.1150  139.5915  142.9327 H   0  0  0  0  0  0  0  0  0  0  0  0  # atno 7974 bound_to 7965
  154.6494  140.2565  155.7231 H   0  0  0  0  0  0  0  0  0  0  0  0  # atno 8008 bound_to 7997
  156.2568  140.2871  156.0842 H   0  0  0  0  0  0  0  0  0  0  0  0  # atno 8009 bound_to 7997
  155.1474  140.0381  157.2803 H   0  0  0  0  0  0  0  0  0  0  0  0  # atno 8010 bound_to 7997
  140.6776  143.2785  151.3924 H   0  0  0  0  0  0  0  0  0  0  0  0  # atno 10167 bound_to 10162
  157.1259  131.0504  151.2394 H   0  0  0  0  0  0  0  0  0  0  0  0  # atno 10718 bound_to 10713
  152.9833  135.6056  154.3348 H   0  0  0  0  0  0  0  0  0  0  0  0  # atno 10763 bound_to 10752
  154.3048  135.2772  155.2595 H   0  0  0  0  0  0  0  0  0  0  0  0  # atno 10764 bound_to 10752
  154.4831  135.5912  153.6460 H   0  0  0  0  0  0  0  0  0  0  0  0  # atno 10765 bound_to 10752
  141.1667  133.7177  156.8361 H   0  0  0  0  0  0  0  0  0  0  0  0  # atno 11005 bound_to 11000
  145.5585  141.0406  143.2239 LP  0  0  0  0  0  0  0  0  0  0  0  0  # atno 17320 bound_to 7965
  144.7545  139.7109  143.7259 LP  0  0  0  0  0  0  0  0  0  0  0  0  # atno 17321 bound_to 7965
  139.6077  144.1162  152.2266 LP  0  0  0  0  0  0  0  0  0  0  0  0  # atno 17342 bound_to 10162
  140.0567  144.5889  150.7294 LP  0  0  0  0  0  0  0  0  0  0  0  0  # atno 17343 bound_to 10162
  157.4435  130.7558  149.7090 LP  0  0  0  0  0  0  0  0  0  0  0  0  # atno 17370 bound_to 10713
  155.9818  130.4015  150.3450 LP  0  0  0  0  0  0  0  0  0  0  0  0  # atno 17371 bound_to 10713
  140.2016  134.8892  157.3176 LP  0  0  0  0  0  0  0  0  0  0  0  0  # atno 17394 bound_to 11000
  140.2181  134.4057  155.7579 LP  0  0  0  0  0  0  0  0  0  0  0  0  # atno 17395 bound_to 11000

$$$$
