AV-unprocessed.smi:1433|AV-procd|sdf|5836|dock9
  -GOLD-   22720 5493D 1   1.00000     0.00000
 Structure written by MMmdl.
 44 45  0  0  0  0  0  0  0  0  1 V2000
  155.0868  140.4406  161.4661 C   0  0  0  0  0  0  0  0  0  0  0  0
  153.7276  140.5240  160.7636 C   0  0  1  0  0  0  0  0  0  0  0  0
  153.5717  141.8224  159.9493 C   0  0  0  0  0  0  0  0  0  0  0  0
  152.3062  141.8861  159.2100 N   0  0  0  0  0  0  0  0  0  0  0  0
  152.1735  143.1309  158.4174 C   0  0  2  0  0  0  0  0  0  0  0  0
  152.4642  144.4062  159.2512 C   0  0  0  0  0  0  0  0  0  0  0  0
  150.7843  143.2812  157.7379 C   0  0  0  0  0  0  0  0  0  0  0  0
  150.6708  142.4693  156.5328 N   0  0  0  0  0  0  0  0  0  0  0  0
  149.9304  141.3572  156.4189 C   0  0  0  0  0  0  0  0  0  0  0  0
  149.2948  140.8661  157.3512 O   0  0  0  0  0  0  0  0  0  0  0  0
  149.9016  140.6976  155.0389 C   0  0  0  0  0  0  0  0  0  0  0  0
  148.6371  140.9401  154.3653 N   0  0  0  0  0  0  0  0  0  0  0  0
  148.0476  142.1494  154.0607 C   0  0  0  0  0  0  0  0  0  0  0  0
  146.8752  141.8789  153.4153 C   0  0  0  0  0  0  0  0  0  0  0  0
  146.8342  140.4574  153.3699 C   0  0  0  0  0  0  0  0  0  0  0  0
  147.8894  139.8979  153.9394 N   0  0  0  0  0  0  0  0  0  0  0  0
  152.2032  140.6755  158.3881 C   0  0  0  0  0  0  0  0  0  0  0  0
  152.3633  139.3792  159.2054 C   0  0  1  0  0  0  0  0  0  0  0  0
  152.3314  138.1288  158.3202 C   0  0  0  0  0  0  0  0  0  0  0  0
  153.6094  139.4089  159.8894 O   0  0  0  0  0  0  0  0  0  0  0  0
  155.2219  141.2708  162.1600 H   0  0  0  0  0  0  0  0  0  0  0  0
  155.9058  140.4687  160.7469 H   0  0  0  0  0  0  0  0  0  0  0  0
  155.1745  139.5147  162.0350 H   0  0  0  0  0  0  0  0  0  0  0  0
  152.9410  140.4692  161.5183 H   0  0  0  0  0  0  0  0  0  0  0  0
  153.6445  142.6496  160.6530 H   0  0  0  0  0  0  0  0  0  0  0  0
  154.4085  141.9211  159.2559 H   0  0  0  0  0  0  0  0  0  0  0  0
  152.9154  143.0994  157.6176 H   0  0  0  0  0  0  0  0  0  0  0  0
  152.3161  145.3233  158.6818 H   0  0  0  0  0  0  0  0  0  0  0  0
  153.4979  144.4515  159.5910 H   0  0  0  0  0  0  0  0  0  0  0  0
  151.8178  144.4590  160.1279 H   0  0  0  0  0  0  0  0  0  0  0  0
  149.9776  142.9502  158.3898 H   0  0  0  0  0  0  0  0  0  0  0  0
  150.6002  144.3311  157.5035 H   0  0  0  0  0  0  0  0  0  0  0  0
  151.1602  142.7978  155.7125 H   0  0  0  0  0  0  0  0  0  0  0  0
  150.7217  141.0790  154.4282 H   0  0  0  0  0  0  0  0  0  0  0  0
  150.0457  139.6207  155.1348 H   0  0  0  0  0  0  0  0  0  0  0  0
  148.5086  143.0902  154.3241 H   0  0  0  0  0  0  0  0  0  0  0  0
  146.1570  142.5892  153.0331 H   0  0  0  0  0  0  0  0  0  0  0  0
  146.0743  139.8198  152.9428 H   0  0  0  0  0  0  0  0  0  0  0  0
  151.2307  140.6228  157.9033 H   0  0  0  0  0  0  0  0  0  0  0  0
  152.9526  140.7034  157.5957 H   0  0  0  0  0  0  0  0  0  0  0  0
  151.5577  139.3084  159.9384 H   0  0  0  0  0  0  0  0  0  0  0  0
  151.3874  138.0542  157.7799 H   0  0  0  0  0  0  0  0  0  0  0  0
  152.4433  137.2246  158.9191 H   0  0  0  0  0  0  0  0  0  0  0  0
  153.1376  138.1441  157.5862 H   0  0  0  0  0  0  0  0  0  0  0  0
  1  2  1  0  0  0  0
  1 21  1  0  0  0  0
  1 22  1  0  0  0  0
  1 23  1  0  0  0  0
  2 20  1  0  0  0  0
  2  3  1  0  0  0  0
  2 24  1  0  0  0  0
  3  4  1  0  0  0  0
  3 25  1  0  0  0  0
  3 26  1  0  0  0  0
  4  5  1  0  0  0  0
  4 17  1  0  0  0  0
  5  6  1  0  0  0  0
  5  7  1  0  0  0  0
  5 27  1  0  0  0  0
  6 28  1  0  0  0  0
  6 29  1  0  0  0  0
  6 30  1  0  0  0  0
  7  8  1  0  0  0  0
  7 31  1  0  0  0  0
  7 32  1  0  0  0  0
  8  9  1  0  0  0  0
  8 33  1  0  0  0  0
  9 10  2  0  0  0  0
  9 11  1  0  0  0  0
 11 12  1  0  0  0  0
 11 34  1  0  0  0  0
 11 35  1  0  0  0  0
 12 16  1  0  0  0  0
 12 13  1  0  0  0  0
 13 14  2  0  0  0  0
 13 36  1  0  0  0  0
 14 15  1  0  0  0  0
 14 37  1  0  0  0  0
 15 16  2  0  0  0  0
 15 38  1  0  0  0  0
 17 18  1  0  0  0  0
 17 39  1  0  0  0  0
 17 40  1  0  0  0  0
 18 19  1  0  0  0  0
 18 20  1  0  0  0  0
 18 41  1  0  0  0  0
 19 42  1  0  0  0  0
 19 43  1  0  0  0  0
 19 44  1  0  0  0  0
M  END
> <s_m_source_file>
AV-unprocessed.smi

> <i_m_source_file_index>
1433

> <i_lp_mmshare_version>
43012

> <i_f3d_flags>
0

> <s_epik_input>
W0NIM11bQ0BASF0xW0NIMl1OKFtDSDJdW0NASF0oTzEpW0NIM10pW0NASF0oW0NIM10pW0NIMl1bTkhdQyg9TylbQ0gyXW4yW2NIXVtjSF1bY0hdbjI=

> <s_epik_cmdline>
J2VwaWtfcHl0aG9uJywgJy1waCcsICc3LjAnLCAnLXRuJywgJzgnLCAnLW1hJywgJzIwMCcsICctbWV0YWxfYmluZGluZycsICctaW1hZScsICc8aW5maWxlLm1hZT4nLCAnLW9tYWUnLCAnPG91dGZpbGUubWFlPic=

> <r_lp_tautomer_probability>
1

> <r_epik_Ionization_Penalty>
0.196927

> <r_epik_Ionization_Penalty_Charging>
0

> <r_epik_Ionization_Penalty_Neutral>
0.196927

> <r_epik_State_Penalty>
0.186684

> <r_epik_Charging_Adjusted_Penalty>
0.186684

> <i_epik_Tot_Q>
0

> <i_epik_Tot_abs_Q>
0

> <r_epik_Metal_State_Penalty>
0.186682

> <b_epik_Metal_Only>
0

> <s_lp_Force_Field>
OPLS_2005

> <r_lp_Energy>
26.9477

> <b_lp_Chiralities_Consistent>
1

> <s_lp_Variant>
AV-unprocessed.smi:1433-2

> <Gold.Version>
5.8.1

> <Gold.Id.Protein>
6NUR|6NUR_protein|mol2

> <Gold.PLP.Fitness>
41.7517

> <Gold.PLP.PLP>
-37.2570

> <Gold.PLP.part.hbond>
-1.0000

> <Gold.PLP.part.metal>
0.0000

> <Gold.PLP.part.buried>
-1.1579

> <Gold.PLP.part.nonpolar>
-34.0517

> <Gold.PLP.part.repulsive>
0.2574

> <Gold.PLP.ligand.clash>
0.0000

> <Gold.PLP.ligand.torsion>
0.5268

> <Gold.PLP.Chemscore.Hbond>
0.0000

> <Gold.PLP.Chemscore.CHOScore>
1.8356

> <Gold.PLP.Chemscore.Metal>
0.0000

> <Gold.Chemscore.Hbonds>
donor molecule, donor type, donor heavy atom, donor atom, acceptor molecule, acceptor atom, score
      L1  C    13    36       P1  8028  1.00
      L1  C    15    38       P1 10175  0.92

> <Gold.PLP.Chemscore.Internal.Correction>
0.0417

> <Gold.Rescore>
     Score         DG    S(hbond)    S(metal)    S(lipo)     H(rot)  DE(clash)    DE(int)     intcor
     11.31     -13.03       0.00        0.00     104.01       1.80       0.11       1.61       ----

> <Gold.Chemscore.Fitness>
11.3149

> <Gold.Chemscore.DG>
-13.0311

> <Gold.Chemscore.ZeroCoef>
-5.4800

> <Gold.Chemscore.Hbond>
0.0000

> <Gold.Chemscore.Metal>
0.0000

> <Gold.Chemscore.Lipo>
104.0074

> <Gold.Chemscore.Internal_Hbond>
0.0000

> <Gold.Chemscore.DEClash>
0.1095

> <Gold.Chemscore.DEInternal>
1.6066

> <Gold.Chemscore.Rot>
1.8038

> <Gold.Chemscore.Internal.Correction>
   9.000000E+99

> <Gold.Chemscore.Hbond.Weighted>
-0.0000

> <Gold.Chemscore.Metal.Weighted>
-0.0000

> <Gold.Chemscore.Lipo.Weighted>
-12.1689

> <Gold.Chemscore.Internal_Hbond.Weighted>
0.0000

> <Gold.Chemscore.DEClash.Weighted>
0.1095

> <Gold.Chemscore.DEInternal.Weighted>
1.6066

> <Gold.Chemscore.Rot.Weighted>
4.6178

> <Gold.Chemscore.Internal.Correction.Weighted>
   9.000000E+99

> <Gold.Protein.RotatedTorsions>
[ 6907 6896 6895 6894 ] final    4.68 input  -60.11 | X-H torsion
[ 7974 7965 7964 7962 ] final  125.64 input  175.53 | X-H torsion
[ 8008 7997 7996 7995 ] final   67.59 input   59.86 | X-H torsion
[ 10167 10162 10161 10158 ] final -100.67 input  -65.29 | X-H torsion
[ 10718 10713 10712 10709 ] final  168.46 input   66.30 | X-H torsion
[ 10763 10752 10751 10750 ] final -124.08 input  -60.55 | X-H torsion
[ 11005 11000 10999 10996 ] final  117.09 input  -57.11 | X-H torsion

> <Gold.Protein.ActiveResidues>
 VAL166  LYS551  ARG553  GLY616  TRP617  ASP618  TYR619  PRO620  LYS621  CYS622 
 ASP623  PHE694  ASN695  SER759  ASP760  ASP761  ALA762  ILE779  LEU786  VAL792 
 PHE793  MET794  SER795  GLU796  ALA797  LYS798  CYS799  TRP800  GLU811  SER814 

> <Gold.Protein.RotatedAtoms>
  151.6452  135.1008  160.0149 H   0  0  0  0  0  0  0  0  0  0  0  0  # atno 6907 bound_to 6896
  152.4032  133.6845  159.6342 H   0  0  0  0  0  0  0  0  0  0  0  0  # atno 6908 bound_to 6896
  150.7929  133.8672  159.3289 H   0  0  0  0  0  0  0  0  0  0  0  0  # atno 6909 bound_to 6896
  145.0707  139.3732  143.4959 H   0  0  0  0  0  0  0  0  0  0  0  0  # atno 7974 bound_to 7965
  155.6952  140.3496  155.4910 H   0  0  0  0  0  0  0  0  0  0  0  0  # atno 8008 bound_to 7997
  155.9489  140.1115  157.1016 H   0  0  0  0  0  0  0  0  0  0  0  0  # atno 8009 bound_to 7997
  154.4118  140.1198  156.5012 H   0  0  0  0  0  0  0  0  0  0  0  0  # atno 8010 bound_to 7997
  140.2495  143.3482  152.0728 H   0  0  0  0  0  0  0  0  0  0  0  0  # atno 10167 bound_to 10162
  157.0367  131.0275  151.2727 H   0  0  0  0  0  0  0  0  0  0  0  0  # atno 10718 bound_to 10713
  154.8718  135.4076  154.3047 H   0  0  0  0  0  0  0  0  0  0  0  0  # atno 10763 bound_to 10752
  153.3901  135.7014  153.6507 H   0  0  0  0  0  0  0  0  0  0  0  0  # atno 10764 bound_to 10752
  153.5293  135.3671  155.2639 H   0  0  0  0  0  0  0  0  0  0  0  0  # atno 10765 bound_to 10752
  139.9063  134.9606  156.7298 H   0  0  0  0  0  0  0  0  0  0  0  0  # atno 11005 bound_to 11000
  146.3528  140.0451  142.8640 LP  0  0  0  0  0  0  0  0  0  0  0  0  # atno 17320 bound_to 7965
  145.1296  140.9510  143.4552 LP  0  0  0  0  0  0  0  0  0  0  0  0  # atno 17321 bound_to 7965
  139.5051  144.6788  151.6061 LP  0  0  0  0  0  0  0  0  0  0  0  0  # atno 17342 bound_to 10162
  140.6052  143.9538  150.6413 LP  0  0  0  0  0  0  0  0  0  0  0  0  # atno 17343 bound_to 10162
  157.5136  130.7954  149.7731 LP  0  0  0  0  0  0  0  0  0  0  0  0  # atno 17370 bound_to 10713
  156.0051  130.3859  150.2460 LP  0  0  0  0  0  0  0  0  0  0  0  0  # atno 17371 bound_to 10713
  140.6934  133.9370  155.7980 LP  0  0  0  0  0  0  0  0  0  0  0  0  # atno 17394 bound_to 11000
  141.0425  134.0601  157.3885 LP  0  0  0  0  0  0  0  0  0  0  0  0  # atno 17395 bound_to 11000

$$$$
