AV-unprocessed.smi:3304|AV-procd|sdf|12697|dock6
  -GOLD-   2272019 33D 1   1.00000     0.00000
 Structure written by MMmdl.
 46 47  0  0  0  0  0  0  0  0  2 V2000
  147.5714  142.1208  154.0977 C   0  0  0  0  0  0  0  0  0  0  0  0
  148.2031  140.7713  154.2156 C   0  0  0  0  0  0  0  0  0  0  0  0
  147.8885  139.5806  153.6174 C   0  0  0  0  0  0  0  0  0  0  0  0
  146.7860  139.2707  152.6421 C   0  0  0  0  0  0  0  0  0  0  0  0
  145.9470  138.0718  153.1037 C   0  0  0  0  0  0  0  0  0  0  0  0
  144.6005  138.1037  152.5015 N   0  3  0  0  0  0  0  0  0  0  0  0
  143.7479  136.9570  152.8739 C   0  0  0  0  0  0  0  0  0  0  0  0
  144.3920  135.6170  152.4729 C   0  0  2  0  0  0  0  0  0  0  0  0
  145.2291  135.7710  151.1876 C   0  0  0  0  0  0  0  0  0  0  0  0
  145.8834  134.4434  150.7714 C   0  0  0  0  0  0  0  0  0  0  0  0
  144.8367  133.3291  150.5869 C   0  0  1  0  0  0  0  0  0  0  0  0
  145.4936  132.0022  150.1812 C   0  0  0  0  0  0  0  0  0  0  0  0
  143.9928  133.1730  151.8655 C   0  0  0  0  0  0  0  0  0  0  0  0
  143.3413  134.5024  152.2802 C   0  0  0  0  0  0  0  0  0  0  0  0
  148.8574  138.6764  154.1373 C   0  0  0  0  0  0  0  0  0  0  0  0
  149.6943  139.2507  154.9826 N   0  0  0  0  0  0  0  0  0  0  0  0
  149.2940  140.5380  155.0317 N   0  0  0  0  0  0  0  0  0  0  0  0
  150.0059  141.4724  155.8818 C   0  0  0  0  0  0  0  0  0  0  0  0
  146.7361  142.1075  153.3977 H   0  0  0  0  0  0  0  0  0  0  0  0
  148.2930  142.8566  153.7423 H   0  0  0  0  0  0  0  0  0  0  0  0
  147.1925  142.4568  155.0631 H   0  0  0  0  0  0  0  0  0  0  0  0
  146.1382  140.1380  152.5091 H   0  0  0  0  0  0  0  0  0  0  0  0
  147.2008  139.0593  151.6558 H   0  0  0  0  0  0  0  0  0  0  0  0
  146.4423  137.1409  152.8246 H   0  0  0  0  0  0  0  0  0  0  0  0
  145.8532  138.0749  154.1906 H   0  0  0  0  0  0  0  0  0  0  0  0
  144.1382  138.9547  152.7887 H   0  0  0  0  0  0  0  0  0  0  0  0
  143.5529  136.9767  153.9472 H   0  0  0  0  0  0  0  0  0  0  0  0
  142.7851  137.0699  152.3732 H   0  0  0  0  0  0  0  0  0  0  0  0
  145.0702  135.3152  153.2733 H   0  0  0  0  0  0  0  0  0  0  0  0
  144.5978  136.1342  150.3756 H   0  0  0  0  0  0  0  0  0  0  0  0
  146.0039  136.5242  151.3344 H   0  0  0  0  0  0  0  0  0  0  0  0
  146.4419  134.5869  149.8458 H   0  0  0  0  0  0  0  0  0  0  0  0
  146.6116  134.1447  151.5268 H   0  0  0  0  0  0  0  0  0  0  0  0
  144.1683  133.6255  149.7769 H   0  0  0  0  0  0  0  0  0  0  0  0
  146.1788  131.6462  150.9512 H   0  0  0  0  0  0  0  0  0  0  0  0
  146.0602  132.1114  149.2560 H   0  0  0  0  0  0  0  0  0  0  0  0
  144.7446  131.2267  150.0185 H   0  0  0  0  0  0  0  0  0  0  0  0
  143.2188  132.4205  151.7108 H   0  0  0  0  0  0  0  0  0  0  0  0
  144.6199  132.8064  152.6795 H   0  0  0  0  0  0  0  0  0  0  0  0
  142.7752  134.3506  153.1995 H   0  0  0  0  0  0  0  0  0  0  0  0
  142.6184  134.8036  151.5206 H   0  0  0  0  0  0  0  0  0  0  0  0
  148.9746  137.6234  153.9276 H   0  0  0  0  0  0  0  0  0  0  0  0
  150.4081  142.2850  155.2767 H   0  0  0  0  0  0  0  0  0  0  0  0
  150.8295  140.9765  156.3971 H   0  0  0  0  0  0  0  0  0  0  0  0
  149.3231  141.8849  156.6246 H   0  0  0  0  0  0  0  0  0  0  0  0
  144.6997  138.1136  151.4964 H   0  0  0  0  0  0  0  0  0  0  0  0
  1  2  1  0  0  0  0
  1 19  1  0  0  0  0
  1 20  1  0  0  0  0
  1 21  1  0  0  0  0
  2 17  1  0  0  0  0
  2  3  2  0  0  0  0
  3  4  1  0  0  0  0
  3 15  1  0  0  0  0
  4  5  1  0  0  0  0
  4 22  1  0  0  0  0
  4 23  1  0  0  0  0
  5  6  1  0  0  0  0
  5 24  1  0  0  0  0
  5 25  1  0  0  0  0
  6  7  1  0  0  0  0
  6 26  1  0  0  0  0
  6 46  1  0  0  0  0
  7  8  1  0  0  0  0
  7 27  1  0  0  0  0
  7 28  1  0  0  0  0
  8 14  1  0  0  0  0
  8  9  1  0  0  0  0
  8 29  1  0  0  0  0
  9 10  1  0  0  0  0
  9 30  1  0  0  0  0
  9 31  1  0  0  0  0
 10 11  1  0  0  0  0
 10 32  1  0  0  0  0
 10 33  1  0  0  0  0
 11 12  1  0  0  0  0
 11 13  1  0  0  0  0
 11 34  1  0  0  0  0
 12 35  1  0  0  0  0
 12 36  1  0  0  0  0
 12 37  1  0  0  0  0
 13 14  1  0  0  0  0
 13 38  1  0  0  0  0
 13 39  1  0  0  0  0
 14 40  1  0  0  0  0
 14 41  1  0  0  0  0
 15 16  2  0  0  0  0
 15 42  1  0  0  0  0
 16 17  1  0  0  0  0
 17 18  1  0  0  0  0
 18 43  1  0  0  0  0
 18 44  1  0  0  0  0
 18 45  1  0  0  0  0
M  CHG  1   6   1
M  END
> <s_m_source_file>
AV-unprocessed.smi

> <i_m_source_file_index>
3304

> <i_lp_mmshare_version>
43012

> <i_f3d_flags>
0

> <s_epik_input>
W0NIM11uMW5bY0hdYyhjMVtDSDNdKVtDSDJdW0NIMl1bTkhdW0NIMl1bQ0BASF0yW0NIMl1bQ0gyXVtDQEBIXShbQ0gzXSlbQ0gyXVtDSDJdMg==

> <s_epik_cmdline>
J2VwaWtfcHl0aG9uJywgJy1waCcsICc3LjAnLCAnLXRuJywgJzgnLCAnLW1hJywgJzIwMCcsICctbWV0YWxfYmluZGluZycsICctaW1hZScsICc8aW5maWxlLm1hZT4nLCAnLW9tYWUnLCAnPG91dGZpbGUubWFlPic=

> <r_lp_tautomer_probability>
1

> <r_epik_Ionization_Penalty>
0.000505313

> <r_epik_Ionization_Penalty_Charging>
0.000421171

> <r_epik_Ionization_Penalty_Neutral>
8.41424e-05

> <r_epik_State_Penalty>
-0

> <r_epik_Charging_Adjusted_Penalty>
0.000421171

> <i_epik_Tot_Q>
1

> <i_epik_Tot_abs_Q>
1

> <r_epik_Metal_State_Penalty>
-0

> <b_epik_Metal_Only>
0

> <s_lp_Force_Field>
OPLS_2005

> <r_lp_Energy>
10.3881

> <b_lp_Chiralities_Consistent>
1

> <s_lp_Variant>
AV-unprocessed.smi:3304-1

> <Gold.Version>
5.8.1

> <Gold.Id.Protein>
6NUR|6NUR_protein|mol2

> <Gold.PLP.Fitness>
48.4685

> <Gold.PLP.PLP>
-37.6686

> <Gold.PLP.part.hbond>
-1.9774

> <Gold.PLP.part.metal>
0.0000

> <Gold.PLP.part.buried>
-3.4601

> <Gold.PLP.part.nonpolar>
-33.0827

> <Gold.PLP.part.repulsive>
0.1072

> <Gold.PLP.ligand.clash>
0.0000

> <Gold.PLP.ligand.torsion>
0.4808

> <Gold.PLP.Chemscore.Hbond>
2.9120

> <Gold.PLP.Chemscore.CHOScore>
1.0000

> <Gold.PLP.Chemscore.Metal>
0.0000

> <Gold.Chemscore.Hbonds>
donor molecule, donor type, donor heavy atom, donor atom, acceptor molecule, acceptor atom, score
      L1  H     6    26       P1 10175  1.98
      L1  H     6    46       P1 10171  0.91
      L1  C    15    42       P1  7948  1.00

> <Gold.PLP.Chemscore.Internal.Correction>
0.0255

> <Gold.Rescore>
     Score         DG    S(hbond)    S(metal)    S(lipo)     H(rot)  DE(clash)    DE(int)     intcor
     18.03     -18.69       1.78        0.00      93.63       1.43       0.16       0.51       ----

> <Gold.Chemscore.Fitness>
18.0281

> <Gold.Chemscore.DG>
-18.6945

> <Gold.Chemscore.ZeroCoef>
-5.4800

> <Gold.Chemscore.Hbond>
1.7751

> <Gold.Chemscore.Metal>
0.0000

> <Gold.Chemscore.Lipo>
93.6267

> <Gold.Chemscore.Internal_Hbond>
0.0000

> <Gold.Chemscore.DEClash>
0.1596

> <Gold.Chemscore.DEInternal>
0.5068

> <Gold.Chemscore.Rot>
1.4331

> <Gold.Chemscore.Internal.Correction>
   9.000000E+99

> <Gold.Chemscore.Hbonds>
donor molecule, donor type, donor heavy atom, donor atom, acceptor molecule, acceptor atom, score
      L1  H     6    26       P1 10175  0.93
      L1  H     6    46       P1 10171  0.88

> <Gold.Chemscore.Hbond.Weighted>
-5.9290

> <Gold.Chemscore.Metal.Weighted>
-0.0000

> <Gold.Chemscore.Lipo.Weighted>
-10.9543

> <Gold.Chemscore.Internal_Hbond.Weighted>
0.0000

> <Gold.Chemscore.DEClash.Weighted>
0.1596

> <Gold.Chemscore.DEInternal.Weighted>
0.5068

> <Gold.Chemscore.Rot.Weighted>
3.6688

> <Gold.Chemscore.Internal.Correction.Weighted>
   9.000000E+99

> <Gold.Protein.RotatedTorsions>
[ 6907 6896 6895 6894 ] final -139.82 input  -60.11 | X-H torsion
[ 7974 7965 7964 7962 ] final   58.40 input  175.53 | X-H torsion
[ 8008 7997 7996 7995 ] final  164.46 input   59.86 | X-H torsion
[ 10167 10162 10161 10158 ] final  169.60 input  -65.29 | X-H torsion
[ 10718 10713 10712 10709 ] final  111.57 input   66.30 | X-H torsion
[ 10763 10752 10751 10750 ] final    7.96 input  -60.55 | X-H torsion
[ 11005 11000 10999 10996 ] final  140.83 input  -57.11 | X-H torsion

> <Gold.Protein.ActiveResidues>
 VAL166  LYS551  ARG553  GLY616  TRP617  ASP618  TYR619  PRO620  LYS621  CYS622 
 ASP623  PHE694  ASN695  SER759  ASP760  ASP761  ALA762  ILE779  LEU786  VAL792 
 PHE793  MET794  SER795  GLU796  ALA797  LYS798  CYS799  TRP800  GLU811  SER814 

> <Gold.Protein.RotatedAtoms>
  151.0527  133.5610  159.2640 H   0  0  0  0  0  0  0  0  0  0  0  0  # atno 6907 bound_to 6896
  151.2615  135.0654  159.9110 H   0  0  0  0  0  0  0  0  0  0  0  0  # atno 6908 bound_to 6896
  152.5384  134.0272  159.8062 H   0  0  0  0  0  0  0  0  0  0  0  0  # atno 6909 bound_to 6896
  145.9186  139.3711  143.0492 H   0  0  0  0  0  0  0  0  0  0  0  0  # atno 7974 bound_to 7965
  156.1878  140.1696  156.8152 H   0  0  0  0  0  0  0  0  0  0  0  0  # atno 8008 bound_to 7997
  154.5434  140.0732  156.8581 H   0  0  0  0  0  0  0  0  0  0  0  0  # atno 8009 bound_to 7997
  155.3169  140.3371  155.4244 H   0  0  0  0  0  0  0  0  0  0  0  0  # atno 8010 bound_to 7997
  139.4996  144.3688  151.9747 H   0  0  0  0  0  0  0  0  0  0  0  0  # atno 10167 bound_to 10162
  157.6437  131.0953  150.6769 H   0  0  0  0  0  0  0  0  0  0  0  0  # atno 10718 bound_to 10713
  153.2303  135.6892  153.7897 H   0  0  0  0  0  0  0  0  0  0  0  0  # atno 10763 bound_to 10752
  153.7064  135.3289  155.3237 H   0  0  0  0  0  0  0  0  0  0  0  0  # atno 10764 bound_to 10752
  154.8311  135.4580  154.1186 H   0  0  0  0  0  0  0  0  0  0  0  0  # atno 10765 bound_to 10752
  140.0356  134.9330  157.0746 H   0  0  0  0  0  0  0  0  0  0  0  0  # atno 11005 bound_to 11000
  145.8579  140.9492  143.0715 LP  0  0  0  0  0  0  0  0  0  0  0  0  # atno 17320 bound_to 7965
  144.6750  140.0492  143.7479 LP  0  0  0  0  0  0  0  0  0  0  0  0  # atno 17321 bound_to 7965
  140.3124  144.3523  150.6030 LP  0  0  0  0  0  0  0  0  0  0  0  0  # atno 17342 bound_to 10162
  140.5788  143.2174  151.7466 LP  0  0  0  0  0  0  0  0  0  0  0  0  # atno 17343 bound_to 10162
  156.7089  130.4645  149.5552 LP  0  0  0  0  0  0  0  0  0  0  0  0  # atno 17370 bound_to 10713
  156.1744  130.6458  151.0876 LP  0  0  0  0  0  0  0  0  0  0  0  0  # atno 17371 bound_to 10713
  140.4153  134.1938  155.7163 LP  0  0  0  0  0  0  0  0  0  0  0  0  # atno 17394 bound_to 11000
  141.1855  133.8321  157.1101 LP  0  0  0  0  0  0  0  0  0  0  0  0  # atno 17395 bound_to 11000

$$$$
