AV-unprocessed.smi:1427|AV-procd|sdf|5811|dock1
  -GOLD-   22720 5463D 1   1.00000     0.00000
 Structure written by MMmdl.
 33 34  0  0  0  0  0  0  0  0  1 V2000
  146.3938  134.5982  152.9942 C   0  0  0  0  0  0  0  0  0  0  0  0
  145.6252  135.7099  152.2675 C   0  0  2  0  0  0  0  0  0  0  0  0
  145.2677  135.2961  150.8248 C   0  0  0  0  0  0  0  0  0  0  0  0
  145.1164  133.8589  150.6775 N   0  0  0  0  0  0  0  0  0  0  0  0
  143.9515  133.1233  150.6170 C   0  0  0  0  0  0  0  0  0  0  0  0
  144.3057  131.8137  150.4638 C   0  0  0  0  0  0  0  0  0  0  0  0
  145.7280  131.8484  150.4438 C   0  0  0  0  0  0  0  0  0  0  0  0
  146.2108  133.0735  150.5746 N   0  0  0  0  0  0  0  0  0  0  0  0
  146.4355  136.9268  152.2715 N   0  0  0  0  0  0  0  0  0  0  0  0
  146.1821  138.0441  152.9760 C   0  0  0  0  0  0  0  0  0  0  0  0
  145.2113  138.1562  153.7243 O   0  0  0  0  0  0  0  0  0  0  0  0
  147.1422  139.2369  152.8144 C   0  0  1  0  0  0  0  0  0  0  0  0
  146.7805  140.3962  153.7709 C   0  0  0  0  0  0  0  0  0  0  0  0
  148.0868  140.8211  154.4563 C   0  0  0  0  0  0  0  0  0  0  0  0
  149.0739  139.7491  154.0330 C   0  0  0  0  0  0  0  0  0  0  0  0
  150.2229  139.6783  154.4625 O   0  0  0  0  0  0  0  0  0  0  0  0
  148.5240  138.9205  153.1478 N   0  0  0  0  0  0  0  0  0  0  0  0
  145.8116  133.6768  153.0280 H   0  0  0  0  0  0  0  0  0  0  0  0
  146.6173  134.8828  154.0229 H   0  0  0  0  0  0  0  0  0  0  0  0
  147.3388  134.3766  152.4965 H   0  0  0  0  0  0  0  0  0  0  0  0
  144.6998  135.8755  152.8223 H   0  0  0  0  0  0  0  0  0  0  0  0
  144.3513  135.7911  150.4987 H   0  0  0  0  0  0  0  0  0  0  0  0
  146.0530  135.6167  150.1395 H   0  0  0  0  0  0  0  0  0  0  0  0
  142.9792  133.5893  150.6817 H   0  0  0  0  0  0  0  0  0  0  0  0
  143.6485  130.9609  150.3775 H   0  0  0  0  0  0  0  0  0  0  0  0
  146.4195  131.0253  150.3397 H   0  0  0  0  0  0  0  0  0  0  0  0
  147.2546  136.9249  151.6808 H   0  0  0  0  0  0  0  0  0  0  0  0
  147.1132  139.5776  151.7785 H   0  0  0  0  0  0  0  0  0  0  0  0
  146.3362  141.2281  153.2232 H   0  0  0  0  0  0  0  0  0  0  0  0
  146.0554  140.0921  154.5283 H   0  0  0  0  0  0  0  0  0  0  0  0
  148.4270  141.7948  154.1021 H   0  0  0  0  0  0  0  0  0  0  0  0
  147.9876  140.8566  155.5417 H   0  0  0  0  0  0  0  0  0  0  0  0
  149.0121  138.1411  152.7307 H   0  0  0  0  0  0  0  0  0  0  0  0
  1  2  1  0  0  0  0
  1 18  1  0  0  0  0
  1 19  1  0  0  0  0
  1 20  1  0  0  0  0
  2  3  1  0  0  0  0
  2  9  1  0  0  0  0
  2 21  1  0  0  0  0
  3  4  1  0  0  0  0
  3 22  1  0  0  0  0
  3 23  1  0  0  0  0
  4  8  1  0  0  0  0
  4  5  1  0  0  0  0
  5  6  2  0  0  0  0
  5 24  1  0  0  0  0
  6  7  1  0  0  0  0
  6 25  1  0  0  0  0
  7  8  2  0  0  0  0
  7 26  1  0  0  0  0
  9 10  1  0  0  0  0
  9 27  1  0  0  0  0
 10 11  2  0  0  0  0
 10 12  1  0  0  0  0
 12 17  1  0  0  0  0
 12 13  1  0  0  0  0
 12 28  1  0  0  0  0
 13 14  1  0  0  0  0
 13 29  1  0  0  0  0
 13 30  1  0  0  0  0
 14 15  1  0  0  0  0
 14 31  1  0  0  0  0
 14 32  1  0  0  0  0
 15 16  2  0  0  0  0
 15 17  1  0  0  0  0
 17 33  1  0  0  0  0
M  END
> <s_m_source_file>
AV-unprocessed.smi

> <i_m_source_file_index>
1427

> <i_lp_mmshare_version>
43012

> <i_f3d_flags>
0

> <s_epik_input>
bjFbY0hdW2NIXVtjSF1uMVtDSDJdW0NAQEhdKFtDSDNdKVtOSF1DKD1PKVtDQEBIXTJbQ0gyXVtDSDJdQyg9TylbTkhdMg==

> <s_epik_cmdline>
J2VwaWtfcHl0aG9uJywgJy1waCcsICc3LjAnLCAnLXRuJywgJzgnLCAnLW1hJywgJzIwMCcsICctbWV0YWxfYmluZGluZycsICctaW1hZScsICc8aW5maWxlLm1hZT4nLCAnLW9tYWUnLCAnPG91dGZpbGUubWFlPic=

> <r_lp_tautomer_probability>
1

> <r_epik_Ionization_Penalty>
0.000310707

> <r_epik_Ionization_Penalty_Charging>
0

> <r_epik_Ionization_Penalty_Neutral>
0.000310707

> <r_epik_State_Penalty>
-0

> <r_epik_Charging_Adjusted_Penalty>
0

> <i_epik_Tot_Q>
0

> <i_epik_Tot_abs_Q>
0

> <r_epik_Metal_State_Penalty>
-0

> <b_epik_Metal_Only>
0

> <s_lp_Force_Field>
OPLS_2005

> <r_lp_Energy>
14.9883

> <b_lp_Chiralities_Consistent>
1

> <s_lp_Variant>
AV-unprocessed.smi:1427-3

> <Gold.Version>
5.8.1

> <Gold.Id.Protein>
6NUR|6NUR_protein|mol2

> <Gold.PLP.Fitness>
43.2553

> <Gold.PLP.PLP>
-30.6283

> <Gold.PLP.part.hbond>
-3.9069

> <Gold.PLP.part.metal>
0.0000

> <Gold.PLP.part.buried>
-2.9325

> <Gold.PLP.part.nonpolar>
-25.1092

> <Gold.PLP.part.repulsive>
0.6172

> <Gold.PLP.ligand.clash>
0.0000

> <Gold.PLP.ligand.torsion>
0.7668

> <Gold.PLP.Chemscore.Hbond>
2.6880

> <Gold.PLP.Chemscore.CHOScore>
2.0000

> <Gold.PLP.Chemscore.Metal>
0.0000

> <Gold.Chemscore.Hbonds>
donor molecule, donor type, donor heavy atom, donor atom, acceptor molecule, acceptor atom, score
      L1  H     9    27       P1  7948  0.70
      L1  H    17    33       P1  7948  0.91
      P1  H  7989  7998       L1    16  0.88
      L1  C     5    24       P1 10186  1.00
      L1  C     7    26       P1 10747  0.95

> <Gold.PLP.Chemscore.Internal.Correction>
0.0967

> <Gold.Rescore>
     Score         DG    S(hbond)    S(metal)    S(lipo)     H(rot)  DE(clash)    DE(int)     intcor
     12.80     -16.51       2.61        0.00      60.78       1.88       1.84       1.87       ----

> <Gold.Chemscore.Fitness>
12.7960

> <Gold.Chemscore.DG>
-16.5066

> <Gold.Chemscore.ZeroCoef>
-5.4800

> <Gold.Chemscore.Hbond>
2.6149

> <Gold.Chemscore.Metal>
0.0000

> <Gold.Chemscore.Lipo>
60.7764

> <Gold.Chemscore.Internal_Hbond>
0.0000

> <Gold.Chemscore.DEClash>
1.8402

> <Gold.Chemscore.DEInternal>
1.8704

> <Gold.Chemscore.Rot>
1.8821

> <Gold.Chemscore.Internal.Correction>
   9.000000E+99

> <Gold.Chemscore.Hbonds>
donor molecule, donor type, donor heavy atom, donor atom, acceptor molecule, acceptor atom, score
      L1  H     9    27       P1  7948  0.70
      L1  H    17    33       P1  7948  0.84
      P1  H  7989  7998       L1    16  0.77

> <Gold.Chemscore.Hbond.Weighted>
-8.7338

> <Gold.Chemscore.Metal.Weighted>
-0.0000

> <Gold.Chemscore.Lipo.Weighted>
-7.1108

> <Gold.Chemscore.Internal_Hbond.Weighted>
0.0000

> <Gold.Chemscore.DEClash.Weighted>
1.8402

> <Gold.Chemscore.DEInternal.Weighted>
1.8704

> <Gold.Chemscore.Rot.Weighted>
4.8181

> <Gold.Chemscore.Internal.Correction.Weighted>
   9.000000E+99

> <Gold.Protein.RotatedTorsions>
[ 6907 6896 6895 6894 ] final    0.22 input  -60.11 | X-H torsion
[ 7974 7965 7964 7962 ] final  -73.86 input  175.53 | X-H torsion
[ 8008 7997 7996 7995 ] final  128.59 input   59.86 | X-H torsion
[ 10167 10162 10161 10158 ] final   83.93 input  -65.29 | X-H torsion
[ 10718 10713 10712 10709 ] final   11.53 input   66.30 | X-H torsion
[ 10763 10752 10751 10750 ] final   99.63 input  -60.55 | X-H torsion
[ 11005 11000 10999 10996 ] final -144.24 input  -57.11 | X-H torsion

> <Gold.Protein.ActiveResidues>
 VAL166  LYS551  ARG553  GLY616  TRP617  ASP618  TYR619  PRO620  LYS621  CYS622 
 ASP623  PHE694  ASN695  SER759  ASP760  ASP761  ALA762  ILE779  LEU786  VAL792 
 PHE793  MET794  SER795  GLU796  ALA797  LYS798  CYS799  TRP800  GLU811  SER814 

> <Gold.Protein.RotatedAtoms>
  151.5729  135.1062  159.9999 H   0  0  0  0  0  0  0  0  0  0  0  0  # atno 6907 bound_to 6896
  152.4392  133.7412  159.6653 H   0  0  0  0  0  0  0  0  0  0  0  0  # atno 6908 bound_to 6896
  150.8295  133.8046  159.3128 H   0  0  0  0  0  0  0  0  0  0  0  0  # atno 6909 bound_to 6896
  145.6466  140.9295  143.1007 H   0  0  0  0  0  0  0  0  0  0  0  0  # atno 7974 bound_to 7965
  156.2918  140.2641  156.2460 H   0  0  0  0  0  0  0  0  0  0  0  0  # atno 8008 bound_to 7997
  154.9930  140.0388  157.2346 H   0  0  0  0  0  0  0  0  0  0  0  0  # atno 8009 bound_to 7997
  154.7669  140.2771  155.6173 H   0  0  0  0  0  0  0  0  0  0  0  0  # atno 8010 bound_to 7997
  139.9132  144.6259  150.8515 H   0  0  0  0  0  0  0  0  0  0  0  0  # atno 10167 bound_to 10162
  156.9969  130.6064  149.5692 H   0  0  0  0  0  0  0  0  0  0  0  0  # atno 10718 bound_to 10713
  153.3038  135.4107  155.1276 H   0  0  0  0  0  0  0  0  0  0  0  0  # atno 10763 bound_to 10752
  154.8557  135.3548  154.5816 H   0  0  0  0  0  0  0  0  0  0  0  0  # atno 10764 bound_to 10752
  153.6242  135.7063  153.5357 H   0  0  0  0  0  0  0  0  0  0  0  0  # atno 10765 bound_to 10752
  140.8044  134.2818  157.4966 H   0  0  0  0  0  0  0  0  0  0  0  0  # atno 11005 bound_to 11000
  144.7137  139.8273  143.7406 LP  0  0  0  0  0  0  0  0  0  0  0  0  # atno 17320 bound_to 7965
  146.1237  139.4260  143.0212 LP  0  0  0  0  0  0  0  0  0  0  0  0  # atno 17321 bound_to 7965
  140.7680  143.3350  151.2328 LP  0  0  0  0  0  0  0  0  0  0  0  0  # atno 17342 bound_to 10162
  139.6924  143.9669  152.2866 LP  0  0  0  0  0  0  0  0  0  0  0  0  # atno 17343 bound_to 10162
  156.0185  130.5280  150.8207 LP  0  0  0  0  0  0  0  0  0  0  0  0  # atno 17370 bound_to 10713
  157.5418  131.0941  150.9817 LP  0  0  0  0  0  0  0  0  0  0  0  0  # atno 17371 bound_to 10713
  139.8719  134.9448  156.3891 LP  0  0  0  0  0  0  0  0  0  0  0  0  # atno 17394 bound_to 11000
  140.9262  133.7611  155.9967 LP  0  0  0  0  0  0  0  0  0  0  0  0  # atno 17395 bound_to 11000

$$$$
