AV-unprocessed.smi:2678|AV-procd|sdf|10369|dock3
  -GOLD-   2272014393D 1   1.00000     0.00000
 Structure written by MMmdl.
 46 47  0  0  0  0  0  0  0  0  1 V2000
  144.3046  145.1575  153.8631 C   0  0  0  0  0  0  0  0  0  0  0  0
  144.5495  143.7927  154.5200 C   0  0  0  0  0  0  0  0  0  0  0  0
  144.7864  143.9260  156.0328 C   0  0  0  0  0  0  0  0  0  0  0  0
  145.6889  143.1430  153.8786 N   0  0  0  0  0  0  0  0  0  0  0  0
  146.2678  142.0029  154.2882 C   0  0  0  0  0  0  0  0  0  0  0  0
  145.8859  141.3798  155.2787 O   0  0  0  0  0  0  0  0  0  0  0  0
  147.4527  141.4982  153.4429 C   0  0  1  0  0  0  0  0  0  0  0  0
  148.7680  141.4039  154.2511 C   0  0  0  0  0  0  0  0  0  0  0  0
  148.8398  140.1692  155.1680 C   0  0  0  0  0  0  0  0  0  0  0  0
  148.5761  138.8757  154.3828 C   0  0  0  0  0  0  0  0  0  0  0  0
  147.2170  138.9269  153.6637 C   0  0  2  0  0  0  0  0  0  0  0  0
  147.0176  137.6904  152.9048 N   0  0  0  0  0  0  0  0  0  0  0  0
  145.9024  136.9430  152.8093 C   0  0  0  0  0  0  0  0  0  0  0  0
  144.8782  137.2504  153.4149 O   0  0  0  0  0  0  0  0  0  0  0  0
  146.0355  135.8532  152.0278 N   0  0  0  0  0  0  0  0  0  0  0  0
  145.0774  134.8508  151.7203 C   0  0  0  0  0  0  0  0  0  0  0  0
  143.9599  134.5366  152.5309 C   0  0  0  0  0  0  0  0  0  0  0  0
  143.0722  133.5307  152.1024 C   0  0  0  0  0  0  0  0  0  0  0  0
  143.3298  132.8821  150.8790 C   0  0  0  0  0  0  0  0  0  0  0  0
  144.3836  133.1807  150.0903 N   0  0  0  0  0  0  0  0  0  0  0  0
  145.2295  134.1470  150.5068 C   0  0  0  0  0  0  0  0  0  0  0  0
  147.1441  140.1600  152.7313 C   0  0  0  0  0  0  0  0  0  0  0  0
  143.4386  145.6530  154.3032 H   0  0  0  0  0  0  0  0  0  0  0  0
  144.1151  145.0517  152.7943 H   0  0  0  0  0  0  0  0  0  0  0  0
  145.1634  145.8184  153.9862 H   0  0  0  0  0  0  0  0  0  0  0  0
  143.6582  143.1831  154.3597 H   0  0  0  0  0  0  0  0  0  0  0  0
  143.9381  144.4069  156.5203 H   0  0  0  0  0  0  0  0  0  0  0  0
  145.6740  144.5231  156.2445 H   0  0  0  0  0  0  0  0  0  0  0  0
  144.9219  142.9508  156.5016 H   0  0  0  0  0  0  0  0  0  0  0  0
  146.0632  143.5930  153.0558 H   0  0  0  0  0  0  0  0  0  0  0  0
  147.6145  142.2423  152.6609 H   0  0  0  0  0  0  0  0  0  0  0  0
  149.6050  141.3701  153.5527 H   0  0  0  0  0  0  0  0  0  0  0  0
  148.9137  142.3088  154.8432 H   0  0  0  0  0  0  0  0  0  0  0  0
  149.8214  140.1193  155.6397 H   0  0  0  0  0  0  0  0  0  0  0  0
  148.1197  140.2594  155.9814 H   0  0  0  0  0  0  0  0  0  0  0  0
  149.3760  138.7237  153.6566 H   0  0  0  0  0  0  0  0  0  0  0  0
  148.6085  138.0227  155.0618 H   0  0  0  0  0  0  0  0  0  0  0  0
  146.4449  138.9920  154.4307 H   0  0  0  0  0  0  0  0  0  0  0  0
  147.8264  137.3518  152.4039 H   0  0  0  0  0  0  0  0  0  0  0  0
  146.9601  135.6943  151.6539 H   0  0  0  0  0  0  0  0  0  0  0  0
  143.7575  135.0503  153.4573 H   0  0  0  0  0  0  0  0  0  0  0  0
  142.2107  133.2654  152.6970 H   0  0  0  0  0  0  0  0  0  0  0  0
  142.6682  132.1067  150.5219 H   0  0  0  0  0  0  0  0  0  0  0  0
  146.0602  134.3617  149.8497 H   0  0  0  0  0  0  0  0  0  0  0  0
  146.1639  140.2164  152.2559 H   0  0  0  0  0  0  0  0  0  0  0  0
  147.8576  140.0303  151.9162 H   0  0  0  0  0  0  0  0  0  0  0  0
  1  2  1  0  0  0  0
  1 23  1  0  0  0  0
  1 24  1  0  0  0  0
  1 25  1  0  0  0  0
  2  3  1  0  0  0  0
  2  4  1  0  0  0  0
  2 26  1  0  0  0  0
  3 27  1  0  0  0  0
  3 28  1  0  0  0  0
  3 29  1  0  0  0  0
  4  5  1  0  0  0  0
  4 30  1  0  0  0  0
  5  6  2  0  0  0  0
  5  7  1  0  0  0  0
  7 22  1  0  0  0  0
  7  8  1  0  0  0  0
  7 31  1  0  0  0  0
  8  9  1  0  0  0  0
  8 32  1  0  0  0  0
  8 33  1  0  0  0  0
  9 10  1  0  0  0  0
  9 34  1  0  0  0  0
  9 35  1  0  0  0  0
 10 11  1  0  0  0  0
 10 36  1  0  0  0  0
 10 37  1  0  0  0  0
 11 12  1  0  0  0  0
 11 22  1  0  0  0  0
 11 38  1  0  0  0  0
 12 13  1  0  0  0  0
 12 39  1  0  0  0  0
 13 14  2  0  0  0  0
 13 15  1  0  0  0  0
 15 16  1  0  0  0  0
 15 40  1  0  0  0  0
 16 21  1  0  0  0  0
 16 17  2  0  0  0  0
 17 18  1  0  0  0  0
 17 41  1  0  0  0  0
 18 19  2  0  0  0  0
 18 42  1  0  0  0  0
 19 20  1  0  0  0  0
 19 43  1  0  0  0  0
 20 21  2  0  0  0  0
 21 44  1  0  0  0  0
 22 45  1  0  0  0  0
 22 46  1  0  0  0  0
M  END
> <s_m_source_file>
AV-unprocessed.smi

> <i_m_source_file_index>
2678

> <i_lp_mmshare_version>
43012

> <i_f3d_flags>
0

> <s_epik_input>
W0NIM11bQ0hdKFtDSDNdKVtOSF1DKD1PKVtDQEBIXTFbQ0gyXVtDSDJdW0NIMl1bQ0BIXShbQ0gyXTEpW05IXUMoPU8pW05IXWMyW2NIXVtjSF1bY0hdbltjSF0y

> <s_epik_cmdline>
J2VwaWtfcHl0aG9uJywgJy1waCcsICc3LjAnLCAnLXRuJywgJzgnLCAnLW1hJywgJzIwMCcsICctbWV0YWxfYmluZGluZycsICctaW1hZScsICc8aW5maWxlLm1hZT4nLCAnLW9tYWUnLCAnPG91dGZpbGUubWFlPic=

> <r_epik_Ionization_Penalty>
0.00482944

> <r_epik_Ionization_Penalty_Charging>
0

> <r_epik_Ionization_Penalty_Neutral>
0.00482944

> <r_epik_State_Penalty>
0.00347168

> <r_epik_Charging_Adjusted_Penalty>
0.00347168

> <i_epik_Tot_Q>
0

> <i_epik_Tot_abs_Q>
0

> <r_epik_Metal_State_Penalty>
-0

> <b_epik_Metal_Only>
0

> <s_lp_Force_Field>
OPLS_2005

> <r_lp_Energy>
20.538

> <b_lp_Chiralities_Consistent>
1

> <s_lp_Variant>
AV-unprocessed.smi:2678-4

> <Gold.Version>
5.8.1

> <Gold.Id.Protein>
6NUR|6NUR_protein|mol2

> <Gold.PLP.Fitness>
43.0449

> <Gold.PLP.PLP>
-33.5791

> <Gold.PLP.part.hbond>
-2.0000

> <Gold.PLP.part.metal>
0.0000

> <Gold.PLP.part.buried>
-1.5219

> <Gold.PLP.part.nonpolar>
-31.4001

> <Gold.PLP.part.repulsive>
0.6229

> <Gold.PLP.ligand.clash>
0.0000

> <Gold.PLP.ligand.torsion>
0.4843

> <Gold.PLP.Chemscore.Hbond>
1.9040

> <Gold.PLP.Chemscore.CHOScore>
1.5547

> <Gold.PLP.Chemscore.Metal>
0.0000

> <Gold.Chemscore.Hbonds>
donor molecule, donor type, donor heavy atom, donor atom, acceptor molecule, acceptor atom, score
      L1  H    12    39       P1  7948  1.00
      L1  H    15    40       P1  7948  0.87
      L1  C    19    43       P1 10952  0.54
      L1  C    21    44       P1  7921  1.00

> <Gold.PLP.Chemscore.Internal.Correction>
0.0585

> <Gold.Rescore>
     Score         DG    S(hbond)    S(metal)    S(lipo)     H(rot)  DE(clash)    DE(int)     intcor
     14.63     -17.49       1.94        0.00      79.15       1.46       0.03       2.83       ----

> <Gold.Chemscore.Fitness>
14.6274

> <Gold.Chemscore.DG>
-17.4924

> <Gold.Chemscore.ZeroCoef>
-5.4800

> <Gold.Chemscore.Hbond>
1.9433

> <Gold.Chemscore.Metal>
0.0000

> <Gold.Chemscore.Lipo>
79.1476

> <Gold.Chemscore.Internal_Hbond>
0.0000

> <Gold.Chemscore.DEClash>
0.0328

> <Gold.Chemscore.DEInternal>
2.8322

> <Gold.Chemscore.Rot>
1.4603

> <Gold.Chemscore.Internal.Correction>
   9.000000E+99

> <Gold.Chemscore.Hbonds>
donor molecule, donor type, donor heavy atom, donor atom, acceptor molecule, acceptor atom, score
      L1  H    12    39       P1  7948  0.99
      L1  H    15    40       P1  7948  0.81

> <Gold.Chemscore.Hbond.Weighted>
-6.4905

> <Gold.Chemscore.Metal.Weighted>
-0.0000

> <Gold.Chemscore.Lipo.Weighted>
-9.2603

> <Gold.Chemscore.Internal_Hbond.Weighted>
0.0000

> <Gold.Chemscore.DEClash.Weighted>
0.0328

> <Gold.Chemscore.DEInternal.Weighted>
2.8322

> <Gold.Chemscore.Rot.Weighted>
3.7383

> <Gold.Chemscore.Internal.Correction.Weighted>
   9.000000E+99

> <Gold.Protein.RotatedTorsions>
[ 6907 6896 6895 6894 ] final   -8.80 input  -60.11 | X-H torsion
[ 7974 7965 7964 7962 ] final   36.49 input  175.53 | X-H torsion
[ 8008 7997 7996 7995 ] final  135.50 input   59.86 | X-H torsion
[ 10167 10162 10161 10158 ] final   28.07 input  -65.29 | X-H torsion
[ 10718 10713 10712 10709 ] final  -80.69 input   66.30 | X-H torsion
[ 10763 10752 10751 10750 ] final  -44.62 input  -60.55 | X-H torsion
[ 11005 11000 10999 10996 ] final  144.92 input  -57.11 | X-H torsion

> <Gold.Protein.ActiveResidues>
 VAL166  LYS551  ARG553  GLY616  TRP617  ASP618  TYR619  PRO620  LYS621  CYS622 
 ASP623  PHE694  ASN695  SER759  ASP760  ASP761  ALA762  ILE779  LEU786  VAL792 
 PHE793  MET794  SER795  GLU796  ALA797  LYS798  CYS799  TRP800  GLU811  SER814 

> <Gold.Protein.RotatedAtoms>
  151.4279  135.1006  159.9633 H   0  0  0  0  0  0  0  0  0  0  0  0  # atno 6907 bound_to 6896
  152.4966  133.8645  159.7277 H   0  0  0  0  0  0  0  0  0  0  0  0  # atno 6908 bound_to 6896
  150.9176  133.6862  159.2867 H   0  0  0  0  0  0  0  0  0  0  0  0  # atno 6909 bound_to 6896
  146.1208  139.6012  142.9291 H   0  0  0  0  0  0  0  0  0  0  0  0  # atno 7974 bound_to 7965
  156.3003  140.2469  156.3591 H   0  0  0  0  0  0  0  0  0  0  0  0  # atno 8008 bound_to 7997
  154.8894  140.0410  157.1849 H   0  0  0  0  0  0  0  0  0  0  0  0  # atno 8009 bound_to 7997
  154.8613  140.2921  155.5541 H   0  0  0  0  0  0  0  0  0  0  0  0  # atno 8010 bound_to 7997
  140.4884  144.0506  150.6288 H   0  0  0  0  0  0  0  0  0  0  0  0  # atno 10167 bound_to 10162
  156.0065  130.4582  150.3839 H   0  0  0  0  0  0  0  0  0  0  0  0  # atno 10718 bound_to 10713
  154.0151  135.6676  153.4768 H   0  0  0  0  0  0  0  0  0  0  0  0  # atno 10763 bound_to 10752
  153.0604  135.5031  154.8076 H   0  0  0  0  0  0  0  0  0  0  0  0  # atno 10764 bound_to 10752
  154.6972  135.3072  154.9359 H   0  0  0  0  0  0  0  0  0  0  0  0  # atno 10765 bound_to 10752
  140.0670  134.9173  157.1281 H   0  0  0  0  0  0  0  0  0  0  0  0  # atno 11005 bound_to 11000
  145.5471  141.0416  143.2299 LP  0  0  0  0  0  0  0  0  0  0  0  0  # atno 17320 bound_to 7965
  144.7595  139.6992  143.7240 LP  0  0  0  0  0  0  0  0  0  0  0  0  # atno 17321 bound_to 7965
  140.3768  143.2824  152.0216 LP  0  0  0  0  0  0  0  0  0  0  0  0  # atno 17342 bound_to 10162
  139.4846  144.6187  151.7297 LP  0  0  0  0  0  0  0  0  0  0  0  0  # atno 17343 bound_to 10162
  157.1917  131.0417  151.2696 LP  0  0  0  0  0  0  0  0  0  0  0  0  # atno 17370 bound_to 10713
  157.4055  130.7356  149.6799 LP  0  0  0  0  0  0  0  0  0  0  0  0  # atno 17371 bound_to 10713
  140.3684  134.2418  155.7180 LP  0  0  0  0  0  0  0  0  0  0  0  0  # atno 17394 bound_to 11000
  141.1997  133.8006  157.0525 LP  0  0  0  0  0  0  0  0  0  0  0  0  # atno 17395 bound_to 11000

$$$$
