AV-unprocessed.smi:213|AV-procd|sdf|1645|dock10
  -GOLD-   2262020 23D 1   1.00000     0.00000
 Structure written by MMmdl.
 58 61  0  0  0  0  0  0  0  0  1 V2000
  149.5401  141.6004  156.5208 C   0  0  0  0  0  0  0  0  0  0  0  0
  150.6318  140.8851  157.3355 C   0  0  2  0  0  0  0  0  0  0  0  0
  151.8534  141.7920  157.6058 C   0  0  0  0  0  0  0  0  0  0  0  0
  151.6293  142.8854  158.5520 N   0  0  0  0  0  0  0  0  0  0  0  0
  152.7518  143.0777  159.4685 C   0  0  0  0  0  0  0  0  0  0  0  0
  152.5096  144.2505  160.4351 C   0  0  0  0  0  0  0  0  0  0  0  0
  152.2456  145.4380  159.6952 O   0  0  0  0  0  0  0  0  0  0  0  0
  151.1276  145.3035  158.8238 C   0  0  0  0  0  0  0  0  0  0  0  0
  151.3731  144.1383  157.8499 C   0  0  0  0  0  0  0  0  0  0  0  0
  151.0412  139.6379  156.6822 N   0  0  0  0  0  0  0  0  0  0  0  0
  152.0225  139.6549  155.5989 C   0  0  0  0  0  0  0  0  0  0  0  0
  150.8662  138.4733  157.3590 C   0  0  0  0  0  0  0  0  0  0  0  0
  151.1126  138.4401  158.6961 N   0  0  0  0  0  0  0  0  0  0  0  0
  150.9555  137.3063  159.3858 C   0  0  0  0  0  0  0  0  0  0  0  0
  150.5759  136.1064  158.9434 N   0  0  0  0  0  0  0  0  0  0  0  0
  150.3384  136.1288  157.6010 C   0  0  0  0  0  0  0  0  0  0  0  0
  150.4544  137.2573  156.7404 C   0  0  0  0  0  0  0  0  0  0  0  0
  150.1456  136.8859  155.4358 N   0  0  0  0  0  0  0  0  0  0  0  0
  149.8565  135.6164  155.5223 C   0  0  0  0  0  0  0  0  0  0  0  0
  149.9568  135.0794  156.7852 N   0  0  0  0  0  0  0  0  0  0  0  0
  149.7192  133.6988  157.1678 C   0  0  0  0  0  0  0  0  0  0  0  0
  150.4030  132.7022  156.2104 C   0  0  2  0  0  0  0  0  0  0  0  0
  149.4439  131.7680  155.7519 O   0  0  0  0  0  0  0  0  0  0  0  0
  151.5605  131.9412  156.8828 C   0  0  1  0  0  0  0  0  0  0  0  0
  152.3952  131.0897  155.9236 C   0  0  0  0  0  0  0  0  0  0  0  0
  153.7112  130.9981  156.6597 C   0  0  0  0  0  0  0  0  0  0  0  0
  153.8310  132.3991  157.2506 C   0  0  0  0  0  0  0  0  0  0  0  0
  152.4958  132.8565  157.4514 O   0  0  0  0  0  0  0  0  0  0  0  0
  149.1623  142.4730  157.0538 H   0  0  0  0  0  0  0  0  0  0  0  0
  148.6926  140.9382  156.3414 H   0  0  0  0  0  0  0  0  0  0  0  0
  149.9086  141.9431  155.5542 H   0  0  0  0  0  0  0  0  0  0  0  0
  150.1948  140.6366  158.2993 H   0  0  0  0  0  0  0  0  0  0  0  0
  152.6859  141.1801  157.9572 H   0  0  0  0  0  0  0  0  0  0  0  0
  152.1771  142.2127  156.6528 H   0  0  0  0  0  0  0  0  0  0  0  0
  152.9239  142.1773  160.0565 H   0  0  0  0  0  0  0  0  0  0  0  0
  153.6659  143.2606  158.9011 H   0  0  0  0  0  0  0  0  0  0  0  0
  151.6719  144.0349  161.1002 H   0  0  0  0  0  0  0  0  0  0  0  0
  153.3852  144.4104  161.0645 H   0  0  0  0  0  0  0  0  0  0  0  0
  150.2206  145.1357  159.4066 H   0  0  0  0  0  0  0  0  0  0  0  0
  150.9885  146.2349  158.2747 H   0  0  0  0  0  0  0  0  0  0  0  0
  152.2184  144.3803  157.2038 H   0  0  0  0  0  0  0  0  0  0  0  0
  150.5054  144.0271  157.1986 H   0  0  0  0  0  0  0  0  0  0  0  0
  151.8962  138.7869  154.9506 H   0  0  0  0  0  0  0  0  0  0  0  0
  153.0372  139.6421  155.9981 H   0  0  0  0  0  0  0  0  0  0  0  0
  151.9157  140.5454  154.9809 H   0  0  0  0  0  0  0  0  0  0  0  0
  151.1675  137.3692  160.4430 H   0  0  0  0  0  0  0  0  0  0  0  0
  149.5736  135.0304  154.6596 H   0  0  0  0  0  0  0  0  0  0  0  0
  150.0856  133.5618  158.1857 H   0  0  0  0  0  0  0  0  0  0  0  0
  148.6429  133.5236  157.1971 H   0  0  0  0  0  0  0  0  0  0  0  0
  150.7864  133.2413  155.3430 H   0  0  0  0  0  0  0  0  0  0  0  0
  149.6537  131.5393  154.8593 H   0  0  0  0  0  0  0  0  0  0  0  0
  151.1833  131.3087  157.6885 H   0  0  0  0  0  0  0  0  0  0  0  0
  151.9498  130.1149  155.7224 H   0  0  0  0  0  0  0  0  0  0  0  0
  152.5362  131.6043  154.9719 H   0  0  0  0  0  0  0  0  0  0  0  0
  153.6437  130.2563  157.4568 H   0  0  0  0  0  0  0  0  0  0  0  0
  154.5485  130.7330  156.0133 H   0  0  0  0  0  0  0  0  0  0  0  0
  154.4004  132.4098  158.1803 H   0  0  0  0  0  0  0  0  0  0  0  0
  154.3219  133.0703  156.5449 H   0  0  0  0  0  0  0  0  0  0  0  0
  1  2  1  0  0  0  0
  1 29  1  0  0  0  0
  1 30  1  0  0  0  0
  1 31  1  0  0  0  0
  2  3  1  0  0  0  0
  2 10  1  0  0  0  0
  2 32  1  0  0  0  0
  3  4  1  0  0  0  0
  3 33  1  0  0  0  0
  3 34  1  0  0  0  0
  4  9  1  0  0  0  0
  4  5  1  0  0  0  0
  5  6  1  0  0  0  0
  5 35  1  0  0  0  0
  5 36  1  0  0  0  0
  6  7  1  0  0  0  0
  6 37  1  0  0  0  0
  6 38  1  0  0  0  0
  7  8  1  0  0  0  0
  8  9  1  0  0  0  0
  8 39  1  0  0  0  0
  8 40  1  0  0  0  0
  9 41  1  0  0  0  0
  9 42  1  0  0  0  0
 10 11  1  0  0  0  0
 10 12  1  0  0  0  0
 11 43  1  0  0  0  0
 11 44  1  0  0  0  0
 11 45  1  0  0  0  0
 12 17  1  0  0  0  0
 12 13  2  0  0  0  0
 13 14  1  0  0  0  0
 14 15  2  0  0  0  0
 14 46  1  0  0  0  0
 15 16  1  0  0  0  0
 16 20  1  0  0  0  0
 16 17  2  0  0  0  0
 17 18  1  0  0  0  0
 18 19  2  0  0  0  0
 19 20  1  0  0  0  0
 19 47  1  0  0  0  0
 20 21  1  0  0  0  0
 21 22  1  0  0  0  0
 21 48  1  0  0  0  0
 21 49  1  0  0  0  0
 22 23  1  0  0  0  0
 22 24  1  0  0  0  0
 22 50  1  0  0  0  0
 23 51  1  0  0  0  0
 24 28  1  0  0  0  0
 24 25  1  0  0  0  0
 24 52  1  0  0  0  0
 25 26  1  0  0  0  0
 25 53  1  0  0  0  0
 25 54  1  0  0  0  0
 26 27  1  0  0  0  0
 26 55  1  0  0  0  0
 26 56  1  0  0  0  0
 27 28  1  0  0  0  0
 27 57  1  0  0  0  0
 27 58  1  0  0  0  0
M  END
> <s_m_source_file>
AV-unprocessed.smi

> <i_m_source_file_index>
213

> <i_lp_mmshare_version>
43012

> <i_f3d_flags>
0

> <s_epik_input>
W0NIMl0xW0NIMl1PW0NIMl1bQ0gyXU4xW0NIMl1bQ0BASF0oW0NIM10pTihbQ0gzXSljKG5bY0hdbjIpYyhjMjMpbltjSF1uM1tDSDJdW0NASF0oW09IXSlbQ0BASF00W0NIMl1bQ0gyXVtDSDJdTzQ=

> <s_epik_cmdline>
J2VwaWtfcHl0aG9uJywgJy1waCcsICc3LjAnLCAnLXRuJywgJzgnLCAnLW1hJywgJzIwMCcsICctbWV0YWxfYmluZGluZycsICctaW1hZScsICc8aW5maWxlLm1hZT4nLCAnLW9tYWUnLCAnPG91dGZpbGUubWFlPic=

> <r_lp_tautomer_probability>
1

> <r_epik_Ionization_Penalty>
0.423322

> <r_epik_Ionization_Penalty_Charging>
0

> <r_epik_Ionization_Penalty_Neutral>
0.423322

> <r_epik_State_Penalty>
0.569486

> <r_epik_Charging_Adjusted_Penalty>
0.569486

> <i_epik_Tot_Q>
0

> <i_epik_Tot_abs_Q>
0

> <r_epik_Metal_State_Penalty>
0.568671

> <b_epik_Metal_Only>
0

> <s_lp_Force_Field>
OPLS_2005

> <r_lp_Energy>
51.3499

> <b_lp_Chiralities_Consistent>
1

> <s_lp_Variant>
AV-unprocessed.smi:213-13

> <Gold.Version>
5.8.1

> <Gold.Id.Protein>
6NUR|6NUR_protein|mol2

> <Gold.PLP.Fitness>
44.8407

> <Gold.PLP.PLP>
-40.4801

> <Gold.PLP.part.hbond>
-2.0000

> <Gold.PLP.part.metal>
0.0000

> <Gold.PLP.part.buried>
-5.1854

> <Gold.PLP.part.nonpolar>
-33.6823

> <Gold.PLP.part.repulsive>
0.2731

> <Gold.PLP.ligand.clash>
0.0000

> <Gold.PLP.ligand.torsion>
2.7115

> <Gold.PLP.Chemscore.Hbond>
1.9760

> <Gold.PLP.Chemscore.CHOScore>
0.9902

> <Gold.PLP.Chemscore.Metal>
0.0000

> <Gold.Chemscore.Hbonds>
donor molecule, donor type, donor heavy atom, donor atom, acceptor molecule, acceptor atom, score
      P1  H  6896  6907       L1    15  0.80
      P1  H  6896  6909       L1    28  0.71

> <Gold.PLP.Chemscore.Internal.Correction>
0.8850

> <Gold.Rescore>
     Score         DG    S(hbond)    S(metal)    S(lipo)     H(rot)  DE(clash)    DE(int)     intcor
     13.26     -16.09       1.70        0.00     102.06       2.74       0.04       2.79       ----

> <Gold.Chemscore.Fitness>
13.2555

> <Gold.Chemscore.DG>
-16.0863

> <Gold.Chemscore.ZeroCoef>
-5.4800

> <Gold.Chemscore.Hbond>
1.6986

> <Gold.Chemscore.Metal>
0.0000

> <Gold.Chemscore.Lipo>
102.0649

> <Gold.Chemscore.Internal_Hbond>
0.0000

> <Gold.Chemscore.DEClash>
0.0440

> <Gold.Chemscore.DEInternal>
2.7868

> <Gold.Chemscore.Rot>
2.7378

> <Gold.Chemscore.Internal.Correction>
   9.000000E+99

> <Gold.Chemscore.Hbonds>
donor molecule, donor type, donor heavy atom, donor atom, acceptor molecule, acceptor atom, score
      P1  H  6896  6907       L1    15  0.74
      P1  H  6896  6909       L1    28  0.23

> <Gold.Chemscore.Hbond.Weighted>
-5.6734

> <Gold.Chemscore.Metal.Weighted>
-0.0000

> <Gold.Chemscore.Lipo.Weighted>
-11.9416

> <Gold.Chemscore.Internal_Hbond.Weighted>
0.0000

> <Gold.Chemscore.DEClash.Weighted>
0.0440

> <Gold.Chemscore.DEInternal.Weighted>
2.7868

> <Gold.Chemscore.Rot.Weighted>
7.0087

> <Gold.Chemscore.Internal.Correction.Weighted>
   9.000000E+99

> <Gold.Protein.RotatedTorsions>
[ 6907 6896 6895 6894 ] final  -53.30 input  -60.11 | X-H torsion
[ 7974 7965 7964 7962 ] final -128.71 input  175.53 | X-H torsion
[ 8008 7997 7996 7995 ] final -108.66 input   59.86 | X-H torsion
[ 10167 10162 10161 10158 ] final  -91.08 input  -65.29 | X-H torsion
[ 10718 10713 10712 10709 ] final  143.73 input   66.30 | X-H torsion
[ 10763 10752 10751 10750 ] final  155.66 input  -60.55 | X-H torsion
[ 11005 11000 10999 10996 ] final  -28.45 input  -57.11 | X-H torsion

> <Gold.Protein.ActiveResidues>
 VAL166  LYS551  ARG553  GLY616  TRP617  ASP618  TYR619  PRO620  LYS621  CYS622 
 ASP623  PHE694  ASN695  SER759  ASP760  ASP761  ALA762  ILE779  LEU786  VAL792 
 PHE793  MET794  SER795  GLU796  ALA797  LYS798  CYS799  TRP800  GLU811  SER814 

> <Gold.Protein.RotatedAtoms>
  150.8439  134.7741  159.6954 H   0  0  0  0  0  0  0  0  0  0  0  0  # atno 6907 bound_to 6896
  152.4520  134.5370  159.9837 H   0  0  0  0  0  0  0  0  0  0  0  0  # atno 6908 bound_to 6896
  151.5504  133.3380  159.2988 H   0  0  0  0  0  0  0  0  0  0  0  0  # atno 6909 bound_to 6896
  144.9643  140.7480  143.4709 H   0  0  0  0  0  0  0  0  0  0  0  0  # atno 7974 bound_to 7965
  154.9476  140.0401  157.2128 H   0  0  0  0  0  0  0  0  0  0  0  0  # atno 8008 bound_to 7997
  154.8009  140.2851  155.5900 H   0  0  0  0  0  0  0  0  0  0  0  0  # atno 8009 bound_to 7997
  156.2961  140.2555  156.2878 H   0  0  0  0  0  0  0  0  0  0  0  0  # atno 8010 bound_to 7997
  140.3484  143.2904  151.9754 H   0  0  0  0  0  0  0  0  0  0  0  0  # atno 10167 bound_to 10162
  157.3656  131.0971  151.0876 H   0  0  0  0  0  0  0  0  0  0  0  0  # atno 10718 bound_to 10713
  154.1718  135.2804  155.3078 H   0  0  0  0  0  0  0  0  0  0  0  0  # atno 10763 bound_to 10752
  154.6069  135.5511  153.7435 H   0  0  0  0  0  0  0  0  0  0  0  0  # atno 10764 bound_to 10752
  153.0162  135.6405  154.1859 H   0  0  0  0  0  0  0  0  0  0  0  0  # atno 10765 bound_to 10752
  140.9210  133.7399  156.0801 H   0  0  0  0  0  0  0  0  0  0  0  0  # atno 11005 bound_to 11000
  145.2653  139.1976  143.4870 LP  0  0  0  0  0  0  0  0  0  0  0  0  # atno 17320 bound_to 7965
  146.3363  140.2590  142.8601 LP  0  0  0  0  0  0  0  0  0  0  0  0  # atno 17321 bound_to 7965
  139.4830  144.6097  151.7457 LP  0  0  0  0  0  0  0  0  0  0  0  0  # atno 17342 bound_to 10162
  140.5242  144.0831  150.6032 LP  0  0  0  0  0  0  0  0  0  0  0  0  # atno 17343 bound_to 10162
  157.1999  130.6390  149.5735 LP  0  0  0  0  0  0  0  0  0  0  0  0  # atno 17370 bound_to 10713
  155.9745  130.4694  150.6394 LP  0  0  0  0  0  0  0  0  0  0  0  0  # atno 17371 bound_to 10713
  140.7988  134.3532  157.5445 LP  0  0  0  0  0  0  0  0  0  0  0  0  # atno 17394 bound_to 11000
  139.8775  134.9185  156.3204 LP  0  0  0  0  0  0  0  0  0  0  0  0  # atno 17395 bound_to 11000

$$$$
