AV-unprocessed.smi:2656|AV-procd|sdf|10306|dock2
  -GOLD-   2272014323D 1   1.00000     0.00000
 Structure written by MMmdl.
 44 45  0  0  0  0  0  0  0  0  2 V2000
  145.3438  131.7163  151.5592 C   0  0  0  0  0  0  0  0  0  0  0  0
  144.9687  133.1295  151.4591 N   0  0  0  0  0  0  0  0  0  0  0  0
  144.6531  133.5567  150.0907 C   0  0  0  0  0  0  0  0  0  0  0  0
  144.9083  134.0354  152.4731 C   0  0  0  0  0  0  0  0  0  0  0  0
  145.2258  133.6935  153.6151 O   0  0  0  0  0  0  0  0  0  0  0  0
  144.4257  135.5123  152.2537 C   0  0  0  0  0  0  0  0  0  0  0  0
  145.2973  136.3042  151.2278 C   0  0  0  0  0  0  0  0  0  0  0  0
  146.3821  137.0678  151.8466 N   0  0  0  0  0  0  0  0  0  0  0  0
  146.2662  138.2835  152.3994 C   0  0  0  0  0  0  0  0  0  0  0  0
  145.2018  138.8958  152.4809 O   0  0  0  0  0  0  0  0  0  0  0  0
  147.4578  138.7412  152.8208 N   0  0  0  0  0  0  0  0  0  0  0  0
  147.7585  139.9940  153.4212 C   0  0  0  0  0  0  0  0  0  0  0  0
  146.9836  141.1091  153.0315 C   0  0  0  0  0  0  0  0  0  0  0  0
  147.2532  142.3737  153.5932 C   0  0  0  0  0  0  0  0  0  0  0  0
  148.2543  142.5123  154.4885 N   0  3  0  0  0  0  0  0  0  0  0  0
  149.0327  141.4801  154.8791 C   0  0  0  0  0  0  0  0  0  0  0  0
  148.8102  140.1915  154.3522 C   0  0  0  0  0  0  0  0  0  0  0  0
  142.9464  135.5461  151.7736 C   0  0  0  0  0  0  0  0  0  0  0  0
  142.0538  135.3966  153.0115 C   0  0  0  0  0  0  0  0  0  0  0  0
  142.9218  135.8203  154.1982 C   0  0  0  0  0  0  0  0  0  0  0  0
  144.2698  136.2494  153.6049 C   0  0  0  0  0  0  0  0  0  0  0  0
  145.0632  131.2530  152.5006 H   0  0  0  0  0  0  0  0  0  0  0  0
  146.4203  131.6061  151.4273 H   0  0  0  0  0  0  0  0  0  0  0  0
  144.8574  131.1197  150.7866 H   0  0  0  0  0  0  0  0  0  0  0  0
  143.5951  133.8084  150.0057 H   0  0  0  0  0  0  0  0  0  0  0  0
  144.8700  132.7893  149.3468 H   0  0  0  0  0  0  0  0  0  0  0  0
  145.2361  134.4360  149.8112 H   0  0  0  0  0  0  0  0  0  0  0  0
  145.7099  135.6251  150.4797 H   0  0  0  0  0  0  0  0  0  0  0  0
  144.6986  136.9919  150.6365 H   0  0  0  0  0  0  0  0  0  0  0  0
  147.2975  136.6427  151.8269 H   0  0  0  0  0  0  0  0  0  0  0  0
  148.2542  138.1566  152.6134 H   0  0  0  0  0  0  0  0  0  0  0  0
  146.1828  140.9981  152.3144 H   0  0  0  0  0  0  0  0  0  0  0  0
  146.7025  143.2720  153.3542 H   0  0  0  0  0  0  0  0  0  0  0  0
  149.8087  141.7146  155.5931 H   0  0  0  0  0  0  0  0  0  0  0  0
  149.4563  139.3848  154.6634 H   0  0  0  0  0  0  0  0  0  0  0  0
  142.7234  136.5131  151.3209 H   0  0  0  0  0  0  0  0  0  0  0  0
  142.7144  134.8024  151.0099 H   0  0  0  0  0  0  0  0  0  0  0  0
  141.1548  136.0079  152.9257 H   0  0  0  0  0  0  0  0  0  0  0  0
  141.7330  134.3614  153.1327 H   0  0  0  0  0  0  0  0  0  0  0  0
  142.4638  136.6244  154.7750 H   0  0  0  0  0  0  0  0  0  0  0  0
  143.0610  134.9738  154.8719 H   0  0  0  0  0  0  0  0  0  0  0  0
  145.0689  136.0575  154.3182 H   0  0  0  0  0  0  0  0  0  0  0  0
  144.2570  137.3268  153.4337 H   0  0  0  0  0  0  0  0  0  0  0  0
  148.4334  143.4363  154.8831 H   0  0  0  0  0  0  0  0  0  0  0  0
  1  2  1  0  0  0  0
  1 22  1  0  0  0  0
  1 23  1  0  0  0  0
  1 24  1  0  0  0  0
  2  3  1  0  0  0  0
  2  4  1  0  0  0  0
  3 25  1  0  0  0  0
  3 26  1  0  0  0  0
  3 27  1  0  0  0  0
  4  5  2  0  0  0  0
  4  6  1  0  0  0  0
  6 21  1  0  0  0  0
  6  7  1  0  0  0  0
  6 18  1  0  0  0  0
  7  8  1  0  0  0  0
  7 28  1  0  0  0  0
  7 29  1  0  0  0  0
  8  9  1  0  0  0  0
  8 30  1  0  0  0  0
  9 10  2  0  0  0  0
  9 11  1  0  0  0  0
 11 12  1  0  0  0  0
 11 31  1  0  0  0  0
 12 17  1  0  0  0  0
 12 13  2  0  0  0  0
 13 14  1  0  0  0  0
 13 32  1  0  0  0  0
 14 15  2  0  0  0  0
 14 33  1  0  0  0  0
 15 16  1  0  0  0  0
 15 44  1  0  0  0  0
 16 17  2  0  0  0  0
 16 34  1  0  0  0  0
 17 35  1  0  0  0  0
 18 19  1  0  0  0  0
 18 36  1  0  0  0  0
 18 37  1  0  0  0  0
 19 20  1  0  0  0  0
 19 38  1  0  0  0  0
 19 39  1  0  0  0  0
 20 21  1  0  0  0  0
 20 40  1  0  0  0  0
 20 41  1  0  0  0  0
 21 42  1  0  0  0  0
 21 43  1  0  0  0  0
M  CHG  1  15   1
M  END
> <s_m_source_file>
AV-unprocessed.smi

> <i_m_source_file_index>
2656

> <i_lp_mmshare_version>
43012

> <i_f3d_flags>
0

> <s_epik_input>
W0NIMl0xW0NIMl1bQ0gyXVtDSDJdQzEoQyg9TylOKFtDSDNdKVtDSDNdKVtDSDJdW05IXUMoPU8pW05IXWMyW2NIXVtjSF1uW2NIXVtjSF0y

> <s_epik_cmdline>
J2VwaWtfcHl0aG9uJywgJy1waCcsICc3LjAnLCAnLXRuJywgJzgnLCAnLW1hJywgJzIwMCcsICctbWV0YWxfYmluZGluZycsICctaW1hZScsICc8aW5maWxlLm1hZT4nLCAnLW9tYWUnLCAnPG91dGZpbGUubWFlPic=

> <r_epik_Ionization_Penalty>
1.05774

> <r_epik_Ionization_Penalty_Charging>
1.05772

> <r_epik_Ionization_Penalty_Neutral>
1.88023e-05

> <r_epik_State_Penalty>
1.11116

> <r_epik_Charging_Adjusted_Penalty>
2.16887

> <i_epik_Tot_Q>
1

> <i_epik_Tot_abs_Q>
1

> <r_epik_Metal_State_Penalty>
1.20442

> <b_epik_Metal_Only>
0

> <s_lp_Force_Field>
OPLS_2005

> <r_lp_Energy>
45.9804

> <b_lp_Chiralities_Consistent>
1

> <s_lp_Variant>
AV-unprocessed.smi:2656-2

> <Gold.Version>
5.8.1

> <Gold.Id.Protein>
6NUR|6NUR_protein|mol2

> <Gold.PLP.Fitness>
42.6006

> <Gold.PLP.PLP>
-32.6924

> <Gold.PLP.part.hbond>
-4.0000

> <Gold.PLP.part.metal>
0.0000

> <Gold.PLP.part.buried>
-4.2041

> <Gold.PLP.part.nonpolar>
-28.5333

> <Gold.PLP.part.repulsive>
4.0238

> <Gold.PLP.ligand.clash>
0.0000

> <Gold.PLP.ligand.torsion>
1.0476

> <Gold.PLP.Chemscore.Hbond>
3.9440

> <Gold.PLP.Chemscore.CHOScore>
0.0000

> <Gold.PLP.Chemscore.Metal>
0.0000

> <Gold.Chemscore.Hbonds>
donor molecule, donor type, donor heavy atom, donor atom, acceptor molecule, acceptor atom, score
      L1  H     8    30       P1  7948  1.00
      L1  H    11    31       P1  7948  0.64
      L1  H    15    44       P1  8028  2.00

> <Gold.PLP.Chemscore.Internal.Correction>
0.1714

> <Gold.Rescore>
     Score         DG    S(hbond)    S(metal)    S(lipo)     H(rot)  DE(clash)    DE(int)     intcor
     15.10     -20.22       2.95        0.00      75.59       1.54       1.83       3.30       ----

> <Gold.Chemscore.Fitness>
15.0971

> <Gold.Chemscore.DG>
-20.2241

> <Gold.Chemscore.ZeroCoef>
-5.4800

> <Gold.Chemscore.Hbond>
2.9472

> <Gold.Chemscore.Metal>
0.0000

> <Gold.Chemscore.Lipo>
75.5931

> <Gold.Chemscore.Internal_Hbond>
0.0000

> <Gold.Chemscore.DEClash>
1.8307

> <Gold.Chemscore.DEInternal>
3.2964

> <Gold.Chemscore.Rot>
1.5406

> <Gold.Chemscore.Internal.Correction>
   9.000000E+99

> <Gold.Chemscore.Hbonds>
donor molecule, donor type, donor heavy atom, donor atom, acceptor molecule, acceptor atom, score
      L1  H     8    30       P1  7948  1.00
      L1  H    11    31       P1  7948  0.63
      L1  H    15    44       P1  8028  0.93

> <Gold.Chemscore.Hbond.Weighted>
-9.8437

> <Gold.Chemscore.Metal.Weighted>
-0.0000

> <Gold.Chemscore.Lipo.Weighted>
-8.8444

> <Gold.Chemscore.Internal_Hbond.Weighted>
0.0000

> <Gold.Chemscore.DEClash.Weighted>
1.8307

> <Gold.Chemscore.DEInternal.Weighted>
3.2964

> <Gold.Chemscore.Rot.Weighted>
3.9440

> <Gold.Chemscore.Internal.Correction.Weighted>
   9.000000E+99

> <Gold.Protein.RotatedTorsions>
[ 6907 6896 6895 6894 ] final -133.56 input  -60.11 | X-H torsion
[ 7974 7965 7964 7962 ] final  -97.18 input  175.53 | X-H torsion
[ 8008 7997 7996 7995 ] final  -39.13 input   59.86 | X-H torsion
[ 10167 10162 10161 10158 ] final -162.84 input  -65.29 | X-H torsion
[ 10718 10713 10712 10709 ] final -178.53 input   66.30 | X-H torsion
[ 10763 10752 10751 10750 ] final  -43.32 input  -60.55 | X-H torsion
[ 11005 11000 10999 10996 ] final  -48.11 input  -57.11 | X-H torsion

> <Gold.Protein.ActiveResidues>
 VAL166  LYS551  ARG553  GLY616  TRP617  ASP618  TYR619  PRO620  LYS621  CYS622 
 ASP623  PHE694  ASN695  SER759  ASP760  ASP761  ALA762  ILE779  LEU786  VAL792 
 PHE793  MET794  SER795  GLU796  ALA797  LYS798  CYS799  TRP800  GLU811  SER814 

> <Gold.Protein.RotatedAtoms>
  150.9754  133.6300  159.2730 H   0  0  0  0  0  0  0  0  0  0  0  0  # atno 6907 bound_to 6896
  151.3574  135.0896  159.9433 H   0  0  0  0  0  0  0  0  0  0  0  0  # atno 6908 bound_to 6896
  152.5197  133.9335  159.7646 H   0  0  0  0  0  0  0  0  0  0  0  0  # atno 6909 bound_to 6896
  145.3371  140.9453  143.2629 H   0  0  0  0  0  0  0  0  0  0  0  0  # atno 7974 bound_to 7965
  154.4027  140.1559  156.2814 H   0  0  0  0  0  0  0  0  0  0  0  0  # atno 8008 bound_to 7997
  155.8866  140.3441  155.5904 H   0  0  0  0  0  0  0  0  0  0  0  0  # atno 8009 bound_to 7997
  155.7606  140.0817  157.2148 H   0  0  0  0  0  0  0  0  0  0  0  0  # atno 8010 bound_to 7997
  139.6363  144.0343  152.2057 H   0  0  0  0  0  0  0  0  0  0  0  0  # atno 10167 bound_to 10162
  156.8457  130.9701  151.3096 H   0  0  0  0  0  0  0  0  0  0  0  0  # atno 10718 bound_to 10713
  153.9937  135.6702  153.4755 H   0  0  0  0  0  0  0  0  0  0  0  0  # atno 10763 bound_to 10752
  153.0693  135.4983  154.8267 H   0  0  0  0  0  0  0  0  0  0  0  0  # atno 10764 bound_to 10752
  154.7094  135.3094  154.9183 H   0  0  0  0  0  0  0  0  0  0  0  0  # atno 10765 bound_to 10752
  141.0681  133.6687  156.3395 H   0  0  0  0  0  0  0  0  0  0  0  0  # atno 11005 bound_to 11000
  144.8819  139.4893  143.6719 LP  0  0  0  0  0  0  0  0  0  0  0  0  # atno 17320 bound_to 7965
  146.3022  139.7463  142.9083 LP  0  0  0  0  0  0  0  0  0  0  0  0  # atno 17321 bound_to 7965
  140.0022  144.6285  150.7720 LP  0  0  0  0  0  0  0  0  0  0  0  0  # atno 17342 bound_to 10162
  140.7467  143.2895  151.3370 LP  0  0  0  0  0  0  0  0  0  0  0  0  # atno 17343 bound_to 10162
  157.6331  130.8745  149.9310 LP  0  0  0  0  0  0  0  0  0  0  0  0  # atno 17370 bound_to 10713
  156.0856  130.3668  150.0494 LP  0  0  0  0  0  0  0  0  0  0  0  0  # atno 17371 bound_to 10713
  140.5730  134.5821  157.5462 LP  0  0  0  0  0  0  0  0  0  0  0  0  # atno 17394 bound_to 11000
  139.9496  134.7640  156.0479 LP  0  0  0  0  0  0  0  0  0  0  0  0  # atno 17395 bound_to 11000

$$$$
