AV-unprocessed.smi:1947|AV-procd|sdf|7867|dock1
  -GOLD-   2272010 13D 1   1.00000     0.00000
 Structure written by MMmdl.
 39 40  0  0  0  0  0  0  0  0  1 V2000
  143.8777  132.7726  148.8364 C   0  0  0  0  0  0  0  0  0  0  0  0
  144.9655  132.2013  149.7605 C   0  0  2  0  0  0  0  0  0  0  0  0
  144.3715  131.2845  150.8481 C   0  0  0  0  0  0  0  0  0  0  0  0
  145.4695  130.6975  151.7495 C   0  0  0  0  0  0  0  0  0  0  0  0
  146.3273  131.8057  152.3792 C   0  0  0  0  0  0  0  0  0  0  0  0
  146.9243  132.7304  151.3048 C   0  0  0  0  0  0  0  0  0  0  0  0
  145.8355  133.3145  150.3849 C   0  0  2  0  0  0  0  0  0  0  0  0
  144.9994  134.1689  151.1549 O   0  0  0  0  0  0  0  0  0  0  0  0
  145.4683  135.5032  151.2643 C   0  0  0  0  0  0  0  0  0  0  0  0
  144.4093  136.3424  151.9966 C   0  0  0  0  0  0  0  0  0  0  0  0
  144.8813  137.6972  152.2652 N   0  0  0  0  0  0  0  0  0  0  0  0
  145.8802  138.0218  153.0975 C   0  0  0  0  0  0  0  0  0  0  0  0
  146.4755  137.2027  153.7974 O   0  0  0  0  0  0  0  0  0  0  0  0
  146.1375  139.3385  153.0510 N   0  0  0  0  0  0  0  0  0  0  0  0
  147.1774  140.0466  153.7027 C   0  0  0  0  0  0  0  0  0  0  0  0
  148.2718  139.3653  154.0618 N   0  0  0  0  0  0  0  0  0  0  0  0
  149.2043  140.1761  154.6975 N   0  0  0  0  0  0  0  0  0  0  0  0
  148.7749  141.4380  154.7943 C   0  0  0  0  0  0  0  0  0  0  0  0
  147.1879  141.7626  154.1194 S   0  0  0  0  0  0  0  0  0  0  0  0
  143.1626  133.3827  149.3888 H   0  0  0  0  0  0  0  0  0  0  0  0
  143.3205  131.9740  148.3462 H   0  0  0  0  0  0  0  0  0  0  0  0
  144.3136  133.3974  148.0564 H   0  0  0  0  0  0  0  0  0  0  0  0
  145.6196  131.5880  149.1388 H   0  0  0  0  0  0  0  0  0  0  0  0
  143.6594  131.8437  151.4565 H   0  0  0  0  0  0  0  0  0  0  0  0
  143.8087  130.4735  150.3848 H   0  0  0  0  0  0  0  0  0  0  0  0
  145.0197  130.0862  152.5324 H   0  0  0  0  0  0  0  0  0  0  0  0
  146.1050  130.0317  151.1644 H   0  0  0  0  0  0  0  0  0  0  0  0
  145.7179  132.3908  153.0691 H   0  0  0  0  0  0  0  0  0  0  0  0
  147.1268  131.3640  152.9743 H   0  0  0  0  0  0  0  0  0  0  0  0
  147.4874  133.5355  151.7775 H   0  0  0  0  0  0  0  0  0  0  0  0
  147.6400  132.1680  150.7039 H   0  0  0  0  0  0  0  0  0  0  0  0
  146.3171  133.8669  149.5754 H   0  0  0  0  0  0  0  0  0  0  0  0
  146.4121  135.5254  151.8109 H   0  0  0  0  0  0  0  0  0  0  0  0
  145.6558  135.9164  150.2721 H   0  0  0  0  0  0  0  0  0  0  0  0
  143.5107  136.4149  151.3836 H   0  0  0  0  0  0  0  0  0  0  0  0
  144.1151  135.8569  152.9283 H   0  0  0  0  0  0  0  0  0  0  0  0
  144.4481  138.4379  151.7335 H   0  0  0  0  0  0  0  0  0  0  0  0
  145.5462  139.8931  152.4496 H   0  0  0  0  0  0  0  0  0  0  0  0
  149.3971  142.1827  155.2681 H   0  0  0  0  0  0  0  0  0  0  0  0
  1  2  1  0  0  0  0
  1 20  1  0  0  0  0
  1 21  1  0  0  0  0
  1 22  1  0  0  0  0
  2  7  1  0  0  0  0
  2  3  1  0  0  0  0
  2 23  1  0  0  0  0
  3  4  1  0  0  0  0
  3 24  1  0  0  0  0
  3 25  1  0  0  0  0
  4  5  1  0  0  0  0
  4 26  1  0  0  0  0
  4 27  1  0  0  0  0
  5  6  1  0  0  0  0
  5 28  1  0  0  0  0
  5 29  1  0  0  0  0
  6  7  1  0  0  0  0
  6 30  1  0  0  0  0
  6 31  1  0  0  0  0
  7  8  1  0  0  0  0
  7 32  1  0  0  0  0
  8  9  1  0  0  0  0
  9 10  1  0  0  0  0
  9 33  1  0  0  0  0
  9 34  1  0  0  0  0
 10 11  1  0  0  0  0
 10 35  1  0  0  0  0
 10 36  1  0  0  0  0
 11 12  1  0  0  0  0
 11 37  1  0  0  0  0
 12 13  2  0  0  0  0
 12 14  1  0  0  0  0
 14 15  1  0  0  0  0
 14 38  1  0  0  0  0
 15 19  1  0  0  0  0
 15 16  2  0  0  0  0
 16 17  1  0  0  0  0
 17 18  2  0  0  0  0
 18 19  1  0  0  0  0
 18 39  1  0  0  0  0
M  END
> <s_m_source_file>
AV-unprocessed.smi

> <i_m_source_file_index>
1947

> <i_lp_mmshare_version>
43012

> <i_f3d_flags>
0

> <s_epik_input>
W0NIM11bQ0BASF0xW0NIMl1bQ0gyXVtDSDJdW0NIMl1bQ0BIXTFPW0NIMl1bQ0gyXVtOSF1DKD1PKVtOSF1jMm5uW2NIXXMy

> <s_epik_cmdline>
J2VwaWtfcHl0aG9uJywgJy1waCcsICc3LjAnLCAnLXRuJywgJzgnLCAnLW1hJywgJzIwMCcsICctbWV0YWxfYmluZGluZycsICctaW1hZScsICc8aW5maWxlLm1hZT4nLCAnLW9tYWUnLCAnPG91dGZpbGUubWFlPic=

> <r_lp_tautomer_probability>
1

> <r_epik_Ionization_Penalty>
0.00220897

> <r_epik_Ionization_Penalty_Charging>
0

> <r_epik_Ionization_Penalty_Neutral>
0.00220897

> <r_epik_State_Penalty>
-0

> <r_epik_Charging_Adjusted_Penalty>
0

> <i_epik_Tot_Q>
0

> <i_epik_Tot_abs_Q>
0

> <r_epik_Metal_State_Penalty>
0.345002

> <b_epik_Metal_Only>
0

> <s_lp_Force_Field>
OPLS_2005

> <r_lp_Energy>
8.93842

> <b_lp_Chiralities_Consistent>
1

> <s_lp_Variant>
AV-unprocessed.smi:1947-3

> <Gold.Version>
5.8.1

> <Gold.Id.Protein>
6NUR|6NUR_protein|mol2

> <Gold.PLP.Fitness>
43.2080

> <Gold.PLP.PLP>
-36.9089

> <Gold.PLP.part.hbond>
-3.0000

> <Gold.PLP.part.metal>
0.0000

> <Gold.PLP.part.buried>
-3.4842

> <Gold.PLP.part.nonpolar>
-31.2108

> <Gold.PLP.part.repulsive>
1.3656

> <Gold.PLP.ligand.clash>
0.0000

> <Gold.PLP.ligand.torsion>
0.4759

> <Gold.PLP.Chemscore.Hbond>
1.3920

> <Gold.PLP.Chemscore.CHOScore>
1.0000

> <Gold.PLP.Chemscore.Metal>
0.0000

> <Gold.Chemscore.Hbonds>
donor molecule, donor type, donor heavy atom, donor atom, acceptor molecule, acceptor atom, score
      L1  H    11    37       P1 10171  0.67
      L1  H    14    38       P1 10175  0.74
      L1  C    18    39       P1  8028  0.76

> <Gold.PLP.Chemscore.Internal.Correction>
0.0748

> <Gold.Rescore>
     Score         DG    S(hbond)    S(metal)    S(lipo)     H(rot)  DE(clash)    DE(int)     intcor
     13.36     -15.54       1.38        0.00      89.14       1.94       0.26       1.92       ----

> <Gold.Chemscore.Fitness>
13.3591

> <Gold.Chemscore.DG>
-15.5399

> <Gold.Chemscore.ZeroCoef>
-5.4800

> <Gold.Chemscore.Hbond>
1.3752

> <Gold.Chemscore.Metal>
0.0000

> <Gold.Chemscore.Lipo>
89.1402

> <Gold.Chemscore.Internal_Hbond>
0.0000

> <Gold.Chemscore.DEClash>
0.2623

> <Gold.Chemscore.DEInternal>
1.9185

> <Gold.Chemscore.Rot>
1.9385

> <Gold.Chemscore.Internal.Correction>
   9.000000E+99

> <Gold.Chemscore.Hbonds>
donor molecule, donor type, donor heavy atom, donor atom, acceptor molecule, acceptor atom, score
      L1  H    11    37       P1 10171  0.65
      L1  H    14    38       P1 10175  0.70

> <Gold.Chemscore.Hbond.Weighted>
-4.5931

> <Gold.Chemscore.Metal.Weighted>
-0.0000

> <Gold.Chemscore.Lipo.Weighted>
-10.4294

> <Gold.Chemscore.Internal_Hbond.Weighted>
0.0000

> <Gold.Chemscore.DEClash.Weighted>
0.2623

> <Gold.Chemscore.DEInternal.Weighted>
1.9185

> <Gold.Chemscore.Rot.Weighted>
4.9625

> <Gold.Chemscore.Internal.Correction.Weighted>
   9.000000E+99

> <Gold.Protein.RotatedTorsions>
[ 6907 6896 6895 6894 ] final   64.81 input  -60.11 | X-H torsion
[ 7974 7965 7964 7962 ] final  135.99 input  175.53 | X-H torsion
[ 8008 7997 7996 7995 ] final -115.39 input   59.86 | X-H torsion
[ 10167 10162 10161 10158 ] final  -73.15 input  -65.29 | X-H torsion
[ 10718 10713 10712 10709 ] final  169.04 input   66.30 | X-H torsion
[ 10763 10752 10751 10750 ] final  -27.68 input  -60.55 | X-H torsion
[ 11005 11000 10999 10996 ] final -117.84 input  -57.11 | X-H torsion

> <Gold.Protein.ActiveResidues>
 VAL166  LYS551  ARG553  GLY616  TRP617  ASP618  TYR619  PRO620  LYS621  CYS622 
 ASP623  PHE694  ASN695  SER759  ASP760  ASP761  ALA762  ILE779  LEU786  VAL792 
 PHE793  MET794  SER795  GLU796  ALA797  LYS798  CYS799  TRP800  GLU811  SER814 

> <Gold.Protein.RotatedAtoms>
  152.4360  134.5686  159.9914 H   0  0  0  0  0  0  0  0  0  0  0  0  # atno 6907 bound_to 6896
  151.5796  133.3373  159.3013 H   0  0  0  0  0  0  0  0  0  0  0  0  # atno 6908 bound_to 6896
  150.8258  134.7523  159.6876 H   0  0  0  0  0  0  0  0  0  0  0  0  # atno 6909 bound_to 6896
  144.9609  139.4712  143.5480 H   0  0  0  0  0  0  0  0  0  0  0  0  # atno 7974 bound_to 7965
  155.0512  140.0393  157.2544 H   0  0  0  0  0  0  0  0  0  0  0  0  # atno 8008 bound_to 7997
  154.7136  140.2697  155.6582 H   0  0  0  0  0  0  0  0  0  0  0  0  # atno 8009 bound_to 7997
  156.2796  140.2717  156.1785 H   0  0  0  0  0  0  0  0  0  0  0  0  # atno 8010 bound_to 7997
  140.5133  143.2341  151.7555 H   0  0  0  0  0  0  0  0  0  0  0  0  # atno 10167 bound_to 10162
  157.0284  131.0252  151.2752 H   0  0  0  0  0  0  0  0  0  0  0  0  # atno 10718 bound_to 10713
  153.7360  135.6935  153.4978 H   0  0  0  0  0  0  0  0  0  0  0  0  # atno 10763 bound_to 10752
  153.2102  135.4405  155.0370 H   0  0  0  0  0  0  0  0  0  0  0  0  # atno 10764 bound_to 10752
  154.8237  135.3435  154.6888 H   0  0  0  0  0  0  0  0  0  0  0  0  # atno 10765 bound_to 10752
  141.0327  133.9956  157.3118 H   0  0  0  0  0  0  0  0  0  0  0  0  # atno 11005 bound_to 11000
  146.3352  139.8757  142.8832 LP  0  0  0  0  0  0  0  0  0  0  0  0  # atno 17320 bound_to 7965
  145.2702  141.0106  143.3776 LP  0  0  0  0  0  0  0  0  0  0  0  0  # atno 17321 bound_to 7965
  139.4902  144.4359  151.9820 LP  0  0  0  0  0  0  0  0  0  0  0  0  # atno 17342 bound_to 10162
  140.3452  144.3155  150.5959 LP  0  0  0  0  0  0  0  0  0  0  0  0  # atno 17343 bound_to 10162
  157.5196  130.7989  149.7794 LP  0  0  0  0  0  0  0  0  0  0  0  0  # atno 17370 bound_to 10713
  156.0078  130.3847  150.2370 LP  0  0  0  0  0  0  0  0  0  0  0  0  # atno 17371 bound_to 10713
  139.9219  135.0200  156.8095 LP  0  0  0  0  0  0  0  0  0  0  0  0  # atno 17394 bound_to 11000
  140.6377  133.9847  155.7692 LP  0  0  0  0  0  0  0  0  0  0  0  0  # atno 17395 bound_to 11000

$$$$
