AV-unprocessed.smi:2364|AV-procd|sdf|9417|dock2
  -GOLD-   2272013 53D 1   1.00000     0.00000
 Structure written by MMmdl.
 46 47  0  0  0  0  0  0  0  0  1 V2000
  152.0474  138.5644  155.3348 C   0  0  0  0  0  0  0  0  0  0  0  0
  150.9076  139.2163  154.5325 C   0  0  0  0  0  0  0  0  0  0  0  0
  149.9900  140.1901  155.3299 C   0  0  1  0  0  0  0  0  0  0  0  0
  150.8521  141.1685  156.1616 C   0  0  0  0  0  0  0  0  0  0  0  0
  149.0749  141.0041  154.3798 C   0  0  0  0  0  0  0  0  0  0  0  0
  148.3278  140.1824  153.5049 O   0  0  0  0  0  0  0  0  0  0  0  0
  149.0857  139.4544  156.2263 N   0  0  0  0  0  0  0  0  0  0  0  0
  149.3558  138.8891  157.4161 C   0  0  0  0  0  0  0  0  0  0  0  0
  150.4618  138.9134  157.9563 O   0  0  0  0  0  0  0  0  0  0  0  0
  148.2590  138.3044  157.9298 N   0  0  0  0  0  0  0  0  0  0  0  0
  148.1508  137.5365  159.1186 C   0  0  0  0  0  0  0  0  0  0  0  0
  148.9979  136.4866  159.3139 N   0  0  0  0  0  0  0  0  0  0  0  0
  148.5733  136.0940  160.5079 C   0  0  0  0  0  0  0  0  0  0  0  0
  147.5453  136.8033  160.9914 N   0  0  0  0  0  0  0  0  0  0  0  0
  146.8739  136.7415  162.2937 C   0  0  0  0  0  0  0  0  0  0  0  0
  147.3848  135.5630  163.1553 C   0  0  0  0  0  0  0  0  0  0  0  0
  146.9695  134.2006  162.5697 C   0  0  0  0  0  0  0  0  0  0  0  0
  145.4420  134.1080  162.4179 C   0  0  0  0  0  0  0  0  0  0  0  0
  144.8831  135.2826  161.5978 C   0  0  0  0  0  0  0  0  0  0  0  0
  145.3316  136.6344  162.1859 C   0  0  0  0  0  0  0  0  0  0  0  0
  147.2853  137.7934  160.1004 N   0  0  0  0  0  0  0  0  0  0  0  0
  152.6407  137.9141  154.6918 H   0  0  0  0  0  0  0  0  0  0  0  0
  151.6670  137.9514  156.1512 H   0  0  0  0  0  0  0  0  0  0  0  0
  152.7239  139.3079  155.7561 H   0  0  0  0  0  0  0  0  0  0  0  0
  151.3469  139.7376  153.6820 H   0  0  0  0  0  0  0  0  0  0  0  0
  150.3024  138.4262  154.0870 H   0  0  0  0  0  0  0  0  0  0  0  0
  151.4875  141.7820  155.5222 H   0  0  0  0  0  0  0  0  0  0  0  0
  151.5140  140.6472  156.8529 H   0  0  0  0  0  0  0  0  0  0  0  0
  150.2307  141.8446  156.7499 H   0  0  0  0  0  0  0  0  0  0  0  0
  148.3772  141.6233  154.9442 H   0  0  0  0  0  0  0  0  0  0  0  0
  149.6693  141.6896  153.7742 H   0  0  0  0  0  0  0  0  0  0  0  0
  148.7648  140.1599  152.6674 H   0  0  0  0  0  0  0  0  0  0  0  0
  148.1367  139.3649  155.8946 H   0  0  0  0  0  0  0  0  0  0  0  0
  147.4059  138.4022  157.3996 H   0  0  0  0  0  0  0  0  0  0  0  0
  149.0314  135.2735  161.0395 H   0  0  0  0  0  0  0  0  0  0  0  0
  147.1165  137.6724  162.8076 H   0  0  0  0  0  0  0  0  0  0  0  0
  148.4672  135.6072  163.2758 H   0  0  0  0  0  0  0  0  0  0  0  0
  146.9768  135.6546  164.1627 H   0  0  0  0  0  0  0  0  0  0  0  0
  147.4452  134.0492  161.6000 H   0  0  0  0  0  0  0  0  0  0  0  0
  147.3254  133.3969  163.2147 H   0  0  0  0  0  0  0  0  0  0  0  0
  145.1706  133.1627  161.9471 H   0  0  0  0  0  0  0  0  0  0  0  0
  144.9798  134.1043  163.4058 H   0  0  0  0  0  0  0  0  0  0  0  0
  145.2134  135.1959  160.5623 H   0  0  0  0  0  0  0  0  0  0  0  0
  143.7942  135.2322  161.5754 H   0  0  0  0  0  0  0  0  0  0  0  0
  144.8982  136.7469  163.1805 H   0  0  0  0  0  0  0  0  0  0  0  0
  144.9211  137.4561  161.5977 H   0  0  0  0  0  0  0  0  0  0  0  0
  1  2  1  0  0  0  0
  1 22  1  0  0  0  0
  1 23  1  0  0  0  0
  1 24  1  0  0  0  0
  2  3  1  0  0  0  0
  2 25  1  0  0  0  0
  2 26  1  0  0  0  0
  3  4  1  0  0  0  0
  3  5  1  0  0  0  0
  3  7  1  0  0  0  0
  4 27  1  0  0  0  0
  4 28  1  0  0  0  0
  4 29  1  0  0  0  0
  5  6  1  0  0  0  0
  5 30  1  0  0  0  0
  5 31  1  0  0  0  0
  6 32  1  0  0  0  0
  7  8  1  0  0  0  0
  7 33  1  0  0  0  0
  8  9  2  0  0  0  0
  8 10  1  0  0  0  0
 10 11  1  0  0  0  0
 10 34  1  0  0  0  0
 11 21  2  0  0  0  0
 11 12  1  0  0  0  0
 12 13  2  0  0  0  0
 13 14  1  0  0  0  0
 13 35  1  0  0  0  0
 14 15  1  0  0  0  0
 14 21  1  0  0  0  0
 15 20  1  0  0  0  0
 15 16  1  0  0  0  0
 15 36  1  0  0  0  0
 16 17  1  0  0  0  0
 16 37  1  0  0  0  0
 16 38  1  0  0  0  0
 17 18  1  0  0  0  0
 17 39  1  0  0  0  0
 17 40  1  0  0  0  0
 18 19  1  0  0  0  0
 18 41  1  0  0  0  0
 18 42  1  0  0  0  0
 19 20  1  0  0  0  0
 19 43  1  0  0  0  0
 19 44  1  0  0  0  0
 20 45  1  0  0  0  0
 20 46  1  0  0  0  0
M  END
> <s_m_source_file>
AV-unprocessed.smi

> <i_m_source_file_index>
2364

> <i_lp_mmshare_version>
43012

> <i_f3d_flags>
0

> <s_epik_input>
W0NIM11bQ0gyXVtDQEBdKFtDSDNdKShbQ0gyXVtPSF0pW05IXUMoPU8pW05IXWMxbltjSF1uKG4xKVtDSF0yW0NIMl1bQ0gyXVtDSDJdW0NIMl1bQ0gyXTI=

> <s_epik_cmdline>
J2VwaWtfcHl0aG9uJywgJy1waCcsICc3LjAnLCAnLXRuJywgJzgnLCAnLW1hJywgJzIwMCcsICctbWV0YWxfYmluZGluZycsICctaW1hZScsICc8aW5maWxlLm1hZT4nLCAnLW9tYWUnLCAnPG91dGZpbGUubWFlPic=

> <r_lp_tautomer_probability>
1

> <r_epik_Ionization_Penalty>
9.31261e-05

> <r_epik_Ionization_Penalty_Charging>
0

> <r_epik_Ionization_Penalty_Neutral>
9.31261e-05

> <r_epik_State_Penalty>
-0

> <r_epik_Charging_Adjusted_Penalty>
0

> <i_epik_Tot_Q>
0

> <i_epik_Tot_abs_Q>
0

> <r_epik_Metal_State_Penalty>
-0

> <b_epik_Metal_Only>
0

> <s_lp_Force_Field>
OPLS_2005

> <r_lp_Energy>
23.546

> <b_lp_Chiralities_Consistent>
1

> <s_lp_Variant>
AV-unprocessed.smi:2364-1

> <Gold.Version>
5.8.1

> <Gold.Id.Protein>
6NUR|6NUR_protein|mol2

> <Gold.PLP.Fitness>
43.8923

> <Gold.PLP.PLP>
-40.0107

> <Gold.PLP.part.hbond>
-2.4093

> <Gold.PLP.part.metal>
0.0000

> <Gold.PLP.part.buried>
-5.4606

> <Gold.PLP.part.nonpolar>
-33.9902

> <Gold.PLP.part.repulsive>
0.0977

> <Gold.PLP.ligand.clash>
0.0000

> <Gold.PLP.ligand.torsion>
1.0544

> <Gold.PLP.Chemscore.Hbond>
1.9440

> <Gold.PLP.Chemscore.CHOScore>
0.0000

> <Gold.PLP.Chemscore.Metal>
0.0000

> <Gold.Chemscore.Hbonds>
donor molecule, donor type, donor heavy atom, donor atom, acceptor molecule, acceptor atom, score
      L1  H     6    32       P1  7957  1.00
      P1  H  6934  6947       L1    21  0.81

> <Gold.PLP.Chemscore.Internal.Correction>
0.1584

> <Gold.Rescore>
     Score         DG    S(hbond)    S(metal)    S(lipo)     H(rot)  DE(clash)    DE(int)     intcor
     13.45     -15.80       1.85        0.00      86.42       2.34       0.01       2.34       ----

> <Gold.Chemscore.Fitness>
13.4532

> <Gold.Chemscore.DG>
-15.8001

> <Gold.Chemscore.ZeroCoef>
-5.4800

> <Gold.Chemscore.Hbond>
1.8527

> <Gold.Chemscore.Metal>
0.0000

> <Gold.Chemscore.Lipo>
86.4167

> <Gold.Chemscore.Internal_Hbond>
0.0000

> <Gold.Chemscore.DEClash>
0.0075

> <Gold.Chemscore.DEInternal>
2.3394

> <Gold.Chemscore.Rot>
2.3354

> <Gold.Chemscore.Internal.Correction>
   9.000000E+99

> <Gold.Chemscore.Hbonds>
donor molecule, donor type, donor heavy atom, donor atom, acceptor molecule, acceptor atom, score
      L1  H     6    32       P1  7957  1.00
      P1  H  6934  6947       L1    21  0.42

> <Gold.Chemscore.Hbond.Weighted>
-6.1881

> <Gold.Chemscore.Metal.Weighted>
-0.0000

> <Gold.Chemscore.Lipo.Weighted>
-10.1108

> <Gold.Chemscore.Internal_Hbond.Weighted>
0.0000

> <Gold.Chemscore.DEClash.Weighted>
0.0075

> <Gold.Chemscore.DEInternal.Weighted>
2.3394

> <Gold.Chemscore.Rot.Weighted>
5.9787

> <Gold.Chemscore.Internal.Correction.Weighted>
   9.000000E+99

> <Gold.Protein.RotatedTorsions>
[ 6907 6896 6895 6894 ] final   23.01 input  -60.11 | X-H torsion
[ 7974 7965 7964 7962 ] final -104.46 input  175.53 | X-H torsion
[ 8008 7997 7996 7995 ] final -135.37 input   59.86 | X-H torsion
[ 10167 10162 10161 10158 ] final  154.59 input  -65.29 | X-H torsion
[ 10718 10713 10712 10709 ] final  -12.98 input   66.30 | X-H torsion
[ 10763 10752 10751 10750 ] final   53.96 input  -60.55 | X-H torsion
[ 11005 11000 10999 10996 ] final   53.12 input  -57.11 | X-H torsion

> <Gold.Protein.ActiveResidues>
 VAL166  LYS551  ARG553  GLY616  TRP617  ASP618  TYR619  PRO620  LYS621  CYS622 
 ASP623  PHE694  ASN695  SER759  ASP760  ASP761  ALA762  ILE779  LEU786  VAL792 
 PHE793  MET794  SER795  GLU796  ALA797  LYS798  CYS799  TRP800  GLU811  SER814 

> <Gold.Protein.RotatedAtoms>
  151.9359  135.0235  160.0532 H   0  0  0  0  0  0  0  0  0  0  0  0  # atno 6907 bound_to 6896
  152.2078  133.4884  159.5102 H   0  0  0  0  0  0  0  0  0  0  0  0  # atno 6908 bound_to 6896
  150.6969  134.1423  159.4152 H   0  0  0  0  0  0  0  0  0  0  0  0  # atno 6909 bound_to 6896
  145.2429  140.9211  143.3140 H   0  0  0  0  0  0  0  0  0  0  0  0  # atno 7974 bound_to 7965
  155.3775  140.0492  157.3044 H   0  0  0  0  0  0  0  0  0  0  0  0  # atno 8008 bound_to 7997
  154.5099  140.2188  155.9140 H   0  0  0  0  0  0  0  0  0  0  0  0  # atno 8009 bound_to 7997
  156.1570  140.3124  155.8748 H   0  0  0  0  0  0  0  0  0  0  0  0  # atno 8010 bound_to 7997
  139.4823  144.5173  151.7931 H   0  0  0  0  0  0  0  0  0  0  0  0  # atno 10167 bound_to 10162
  156.6368  130.4917  149.6109 H   0  0  0  0  0  0  0  0  0  0  0  0  # atno 10718 bound_to 10713
  152.9800  135.5761  154.4826 H   0  0  0  0  0  0  0  0  0  0  0  0  # atno 10763 bound_to 10752
  154.4373  135.2775  155.1874 H   0  0  0  0  0  0  0  0  0  0  0  0  # atno 10764 bound_to 10752
  154.3557  135.6199  153.5719 H   0  0  0  0  0  0  0  0  0  0  0  0  # atno 10765 bound_to 10752
  140.0793  134.5361  155.8963 H   0  0  0  0  0  0  0  0  0  0  0  0  # atno 11005 bound_to 11000
  144.9573  139.4018  143.6373 LP  0  0  0  0  0  0  0  0  0  0  0  0  # atno 17320 bound_to 7965
  146.3324  139.8609  142.8856 LP  0  0  0  0  0  0  0  0  0  0  0  0  # atno 17321 bound_to 7965
  140.4683  144.1623  150.5914 LP  0  0  0  0  0  0  0  0  0  0  0  0  # atno 17342 bound_to 10162
  140.4410  143.2527  151.9473 LP  0  0  0  0  0  0  0  0  0  0  0  0  # atno 17343 bound_to 10162
  156.2191  130.6726  151.1349 LP  0  0  0  0  0  0  0  0  0  0  0  0  # atno 17370 bound_to 10713
  157.7183  131.0697  150.6239 LP  0  0  0  0  0  0  0  0  0  0  0  0  # atno 17371 bound_to 10713
  141.2041  133.6636  156.6100 LP  0  0  0  0  0  0  0  0  0  0  0  0  # atno 17394 bound_to 11000
  140.3511  134.7767  157.4468 LP  0  0  0  0  0  0  0  0  0  0  0  0  # atno 17395 bound_to 11000

$$$$
