AV-unprocessed.smi:1533|AV-procd|sdf|6163|dock9
  -GOLD-   22720 6313D 1   1.00000     0.00000
 Structure written by MMmdl.
 37 39  0  0  0  0  0  0  0  0  1 V2000
  143.7509  143.8653  162.8267 C   0  0  0  0  0  0  0  0  0  0  0  0
  144.5946  143.3734  161.7012 C   0  0  0  0  0  0  0  0  0  0  0  0
  145.2166  142.2030  161.7722 N   0  0  0  0  0  0  0  0  0  0  0  0
  145.8782  142.1138  160.5393 O   0  0  0  0  0  0  0  0  0  0  0  0
  145.5784  143.2566  159.8751 C   0  0  0  0  0  0  0  0  0  0  0  0
  146.0851  143.4381  158.4806 C   0  0  0  0  0  0  0  0  0  0  0  0
  147.2550  142.5058  158.1119 C   0  0  0  0  0  0  0  0  0  0  0  0
  148.5315  143.2122  158.0288 N   0  0  0  0  0  0  0  0  0  0  0  0
  149.1409  143.8461  159.0433 C   0  0  0  0  0  0  0  0  0  0  0  0
  148.6744  143.8930  160.1823 O   0  0  0  0  0  0  0  0  0  0  0  0
  150.4561  144.5650  158.6958 C   0  0  1  0  0  0  0  0  0  0  0  0
  151.1568  145.2435  159.8989 C   0  0  0  0  0  0  0  0  0  0  0  0
  152.5867  144.6744  159.8319 C   0  0  1  0  0  0  0  0  0  0  0  0
  152.5760  143.2021  160.2835 C   0  0  0  0  0  0  0  0  0  0  0  0
  151.9320  142.4838  159.0834 C   0  0  0  0  0  0  0  0  0  0  0  0
  151.5797  143.6523  158.1365 C   0  0  2  0  0  0  0  0  0  0  0  0
  152.8025  144.5446  158.3281 C   0  0  0  0  0  0  0  0  0  0  0  0
  144.7761  144.0763  160.5495 N   0  0  0  0  0  0  0  0  0  0  0  0
  144.3431  143.9391  163.7391 H   0  0  0  0  0  0  0  0  0  0  0  0
  142.9216  143.1802  163.0039 H   0  0  0  0  0  0  0  0  0  0  0  0
  143.3418  144.8505  162.6009 H   0  0  0  0  0  0  0  0  0  0  0  0
  145.2570  143.2756  157.7899 H   0  0  0  0  0  0  0  0  0  0  0  0
  146.3878  144.4783  158.3556 H   0  0  0  0  0  0  0  0  0  0  0  0
  147.3158  141.6813  158.8246 H   0  0  0  0  0  0  0  0  0  0  0  0
  147.0617  142.0507  157.1405 H   0  0  0  0  0  0  0  0  0  0  0  0
  148.9814  143.2317  157.1250 H   0  0  0  0  0  0  0  0  0  0  0  0
  150.2359  145.3358  157.9545 H   0  0  0  0  0  0  0  0  0  0  0  0
  151.1706  146.3257  159.7629 H   0  0  0  0  0  0  0  0  0  0  0  0
  150.6864  145.0482  160.8637 H   0  0  0  0  0  0  0  0  0  0  0  0
  153.3238  145.2854  160.3535 H   0  0  0  0  0  0  0  0  0  0  0  0
  153.5895  142.8358  160.4513 H   0  0  0  0  0  0  0  0  0  0  0  0
  152.0104  143.0587  161.2051 H   0  0  0  0  0  0  0  0  0  0  0  0
  152.6591  141.8234  158.6094 H   0  0  0  0  0  0  0  0  0  0  0  0
  151.0801  141.8658  159.3636 H   0  0  0  0  0  0  0  0  0  0  0  0
  151.4117  143.3419  157.1046 H   0  0  0  0  0  0  0  0  0  0  0  0
  152.7355  145.4958  157.7969 H   0  0  0  0  0  0  0  0  0  0  0  0
  153.7431  144.0560  158.0663 H   0  0  0  0  0  0  0  0  0  0  0  0
  1  2  1  0  0  0  0
  1 19  1  0  0  0  0
  1 20  1  0  0  0  0
  1 21  1  0  0  0  0
  2 18  1  0  0  0  0
  2  3  2  0  0  0  0
  3  4  1  0  0  0  0
  4  5  1  0  0  0  0
  5  6  1  0  0  0  0
  5 18  2  0  0  0  0
  6  7  1  0  0  0  0
  6 22  1  0  0  0  0
  6 23  1  0  0  0  0
  7  8  1  0  0  0  0
  7 24  1  0  0  0  0
  7 25  1  0  0  0  0
  8  9  1  0  0  0  0
  8 26  1  0  0  0  0
  9 10  2  0  0  0  0
  9 11  1  0  0  0  0
 11 16  1  0  0  0  0
 11 12  1  0  0  0  0
 11 27  1  0  0  0  0
 12 13  1  0  0  0  0
 12 28  1  0  0  0  0
 12 29  1  0  0  0  0
 13 17  1  0  0  0  0
 13 14  1  0  0  0  0
 13 30  1  0  0  0  0
 14 15  1  0  0  0  0
 14 31  1  0  0  0  0
 14 32  1  0  0  0  0
 15 16  1  0  0  0  0
 15 33  1  0  0  0  0
 15 34  1  0  0  0  0
 16 17  1  0  0  0  0
 16 35  1  0  0  0  0
 17 36  1  0  0  0  0
 17 37  1  0  0  0  0
M  END
> <s_m_source_file>
AV-unprocessed.smi

> <i_m_source_file_index>
1533

> <i_lp_mmshare_version>
43012

> <i_f3d_flags>
0

> <s_epik_input>
W0NIM11jMW5vYyhuMSlbQ0gyXVtDSDJdW05IXUMoPU8pW0NASF0oW0NIMl1bQ0BASF0yMylbQ0BASF0oW0NIMl0zKVtDSDJdW0NIMl0y

> <s_epik_cmdline>
J2VwaWtfcHl0aG9uJywgJy1waCcsICc3LjAnLCAnLXRuJywgJzgnLCAnLW1hJywgJzIwMCcsICctbWV0YWxfYmluZGluZycsICctaW1hZScsICc8aW5maWxlLm1hZT4nLCAnLW9tYWUnLCAnPG91dGZpbGUubWFlPic=

> <r_lp_tautomer_probability>
1

> <r_epik_Ionization_Penalty>
1.90116e-08

> <r_epik_Ionization_Penalty_Charging>
0

> <r_epik_Ionization_Penalty_Neutral>
1.90116e-08

> <r_epik_State_Penalty>
-0

> <r_epik_Charging_Adjusted_Penalty>
0

> <i_epik_Tot_Q>
0

> <i_epik_Tot_abs_Q>
0

> <r_epik_Metal_State_Penalty>
-0

> <b_epik_Metal_Only>
0

> <s_lp_Force_Field>
OPLS_2005

> <r_lp_Energy>
44.7071

> <b_lp_Chiralities_Consistent>
1

> <s_lp_Variant>
AV-unprocessed.smi:1533-2

> <Gold.Version>
5.8.1

> <Gold.Id.Protein>
6NUR|6NUR_protein|mol2

> <Gold.PLP.Fitness>
45.3237

> <Gold.PLP.PLP>
-39.2977

> <Gold.PLP.part.hbond>
-5.7333

> <Gold.PLP.part.metal>
0.0000

> <Gold.PLP.part.buried>
-2.4321

> <Gold.PLP.part.nonpolar>
-31.0960

> <Gold.PLP.part.repulsive>
0.2808

> <Gold.PLP.ligand.clash>
0.0000

> <Gold.PLP.ligand.torsion>
0.5611

> <Gold.PLP.Chemscore.Hbond>
2.3760

> <Gold.PLP.Chemscore.CHOScore>
0.0000

> <Gold.PLP.Chemscore.Metal>
0.0000

> <Gold.Chemscore.Hbonds>
donor molecule, donor type, donor heavy atom, donor atom, acceptor molecule, acceptor atom, score
      L1  H     8    26       P1  8028  0.48
      P1  H  6933  6944       L1    10  0.77
      P1  H  6934  6946       L1     4  1.00

> <Gold.PLP.Chemscore.Internal.Correction>
0.0202

> <Gold.Rescore>
     Score         DG    S(hbond)    S(metal)    S(lipo)     H(rot)  DE(clash)    DE(int)     intcor
     16.04     -16.98       1.58        0.00      93.61       1.85       0.30       0.65       ----

> <Gold.Chemscore.Fitness>
16.0379

> <Gold.Chemscore.DG>
-16.9814

> <Gold.Chemscore.ZeroCoef>
-5.4800

> <Gold.Chemscore.Hbond>
1.5815

> <Gold.Chemscore.Metal>
0.0000

> <Gold.Chemscore.Lipo>
93.6117

> <Gold.Chemscore.Internal_Hbond>
0.0000

> <Gold.Chemscore.DEClash>
0.2950

> <Gold.Chemscore.DEInternal>
0.6485

> <Gold.Chemscore.Rot>
1.8490

> <Gold.Chemscore.Internal.Correction>
   9.000000E+99

> <Gold.Chemscore.Hbonds>
donor molecule, donor type, donor heavy atom, donor atom, acceptor molecule, acceptor atom, score
      L1  H     8    26       P1  8028  0.32
      P1  H  6933  6944       L1    10  0.76
      P1  H  6934  6946       L1     4  0.45

> <Gold.Chemscore.Hbond.Weighted>
-5.2822

> <Gold.Chemscore.Metal.Weighted>
-0.0000

> <Gold.Chemscore.Lipo.Weighted>
-10.9526

> <Gold.Chemscore.Internal_Hbond.Weighted>
0.0000

> <Gold.Chemscore.DEClash.Weighted>
0.2950

> <Gold.Chemscore.DEInternal.Weighted>
0.6485

> <Gold.Chemscore.Rot.Weighted>
4.7334

> <Gold.Chemscore.Internal.Correction.Weighted>
   9.000000E+99

> <Gold.Protein.RotatedTorsions>
[ 6907 6896 6895 6894 ] final  -89.96 input  -60.11 | X-H torsion
[ 7974 7965 7964 7962 ] final   19.84 input  175.53 | X-H torsion
[ 8008 7997 7996 7995 ] final  -61.41 input   59.86 | X-H torsion
[ 10167 10162 10161 10158 ] final  101.68 input  -65.29 | X-H torsion
[ 10718 10713 10712 10709 ] final   31.50 input   66.30 | X-H torsion
[ 10763 10752 10751 10750 ] final -140.64 input  -60.55 | X-H torsion
[ 11005 11000 10999 10996 ] final -158.30 input  -57.11 | X-H torsion

> <Gold.Protein.ActiveResidues>
 VAL166  LYS551  ARG553  GLY616  TRP617  ASP618  TYR619  PRO620  LYS621  CYS622 
 ASP623  PHE694  ASN695  SER759  ASP760  ASP761  ALA762  ILE779  LEU786  VAL792 
 PHE793  MET794  SER795  GLU796  ALA797  LYS798  CYS799  TRP800  GLU811  SER814 

> <Gold.Protein.RotatedAtoms>
  150.6878  134.2506  159.4508 H   0  0  0  0  0  0  0  0  0  0  0  0  # atno 6907 bound_to 6896
  152.0443  134.9690  160.0583 H   0  0  0  0  0  0  0  0  0  0  0  0  # atno 6908 bound_to 6896
  152.1179  133.4302  159.4698 H   0  0  0  0  0  0  0  0  0  0  0  0  # atno 6909 bound_to 6896
  146.2134  139.8256  142.8671 H   0  0  0  0  0  0  0  0  0  0  0  0  # atno 7974 bound_to 7965
  154.4446  140.1018  156.6426 H   0  0  0  0  0  0  0  0  0  0  0  0  # atno 8008 bound_to 7997
  155.5485  140.3485  155.4444 H   0  0  0  0  0  0  0  0  0  0  0  0  # atno 8009 bound_to 7997
  156.0546  140.1312  157.0000 H   0  0  0  0  0  0  0  0  0  0  0  0  # atno 8010 bound_to 7997
  139.7416  144.7009  151.0566 H   0  0  0  0  0  0  0  0  0  0  0  0  # atno 10167 bound_to 10162
  157.2732  130.7218  149.6516 H   0  0  0  0  0  0  0  0  0  0  0  0  # atno 10718 bound_to 10713
  154.8572  135.3547  154.5739 H   0  0  0  0  0  0  0  0  0  0  0  0  # atno 10763 bound_to 10752
  153.6352  135.7000  153.5266 H   0  0  0  0  0  0  0  0  0  0  0  0  # atno 10764 bound_to 10752
  153.3017  135.4204  155.1217 H   0  0  0  0  0  0  0  0  0  0  0  0  # atno 10765 bound_to 10752
  140.6552  134.4408  157.5235 H   0  0  0  0  0  0  0  0  0  0  0  0  # atno 11005 bound_to 11000
  145.3051  141.0205  143.3586 LP  0  0  0  0  0  0  0  0  0  0  0  0  # atno 17320 bound_to 7965
  144.8977  139.4690  143.6647 LP  0  0  0  0  0  0  0  0  0  0  0  0  # atno 17321 bound_to 7965
  140.7786  143.4917  150.9885 LP  0  0  0  0  0  0  0  0  0  0  0  0  # atno 17342 bound_to 10162
  139.8605  143.7321  152.3173 LP  0  0  0  0  0  0  0  0  0  0  0  0  # atno 17343 bound_to 10162
  155.9663  130.4361  150.5119 LP  0  0  0  0  0  0  0  0  0  0  0  0  # atno 17370 bound_to 10713
  157.3048  131.0652  151.2043 LP  0  0  0  0  0  0  0  0  0  0  0  0  # atno 17371 bound_to 10713
  139.9032  134.8508  156.1811 LP  0  0  0  0  0  0  0  0  0  0  0  0  # atno 17394 bound_to 11000
  141.0507  133.6890  156.1766 LP  0  0  0  0  0  0  0  0  0  0  0  0  # atno 17395 bound_to 11000

$$$$
