AV-unprocessed.smi:104|AV-procd|sdf|1003|dock3
  -GOLD-   2262017593D 1   1.00000     0.00000
 Structure written by MMmdl.
 47 49  0  0  0  0  0  0  0  0  1 V2000
  147.1990  134.8973  163.0136 C   0  0  0  0  0  0  0  0  0  0  0  0
  147.3991  136.0167  162.0007 C   0  0  0  0  0  0  0  0  0  0  0  0
  147.8730  137.1023  162.3336 O   0  0  0  0  0  0  0  0  0  0  0  0
  147.0053  135.6654  160.7640 O   0  0  0  0  0  0  0  0  0  0  0  0
  147.1417  136.5653  159.6721 C   0  0  0  0  0  0  0  0  0  0  0  0
  148.6268  136.8339  159.3692 C   0  0  2  0  0  0  0  0  0  0  0  0
  148.9096  138.2223  159.3667 O   0  0  0  0  0  0  0  0  0  0  0  0
  150.1655  138.3884  158.7934 C   0  0  2  0  0  0  0  0  0  0  0  0
  150.2111  139.7266  158.1347 N   0  0  0  0  0  0  0  0  0  0  0  0
  149.4187  140.2340  157.1302 C   0  0  0  0  0  0  0  0  0  0  0  0
  148.0011  139.2346  156.3431 Br  0  0  0  0  0  0  0  0  0  0  0  0
  149.6671  141.4518  156.7356 N   0  0  0  0  0  0  0  0  0  0  0  0
  150.7324  141.8253  157.5462 C   0  0  0  0  0  0  0  0  0  0  0  0
  151.5077  143.0053  157.6746 C   0  0  0  0  0  0  0  0  0  0  0  0
  151.3052  144.0984  156.9263 N   0  0  0  0  0  0  0  0  0  0  0  0
  152.4984  143.0320  158.5969 N   0  0  0  0  0  0  0  0  0  0  0  0
  152.7208  141.9553  159.3575 C   0  0  0  0  0  0  0  0  0  0  0  0
  152.0818  140.7826  159.3523 N   0  0  0  0  0  0  0  0  0  0  0  0
  151.0826  140.7570  158.4222 C   0  0  0  0  0  0  0  0  0  0  0  0
  150.3502  137.2716  157.7531 C   0  0  1  0  0  0  0  0  0  0  0  0
  151.5690  136.5728  157.9661 O   0  0  0  0  0  0  0  0  0  0  0  0
  152.3184  136.1904  156.9175 C   0  0  0  0  0  0  0  0  0  0  0  0
  153.5871  135.4649  157.3444 C   0  0  0  0  0  0  0  0  0  0  0  0
  152.0589  136.3881  155.7302 O   0  0  0  0  0  0  0  0  0  0  0  0
  149.1641  136.3462  158.0176 C   0  0  2  0  0  0  0  0  0  0  0  0
  148.1941  136.4967  156.9872 O   0  0  0  0  0  0  0  0  0  0  0  0
  148.4132  135.9849  155.7639 C   0  0  0  0  0  0  0  0  0  0  0  0
  147.2361  136.2097  154.8247 C   0  0  0  0  0  0  0  0  0  0  0  0
  149.4310  135.3988  155.3952 O   0  0  0  0  0  0  0  0  0  0  0  0
  146.2000  134.9554  163.4456 H   0  0  0  0  0  0  0  0  0  0  0  0
  147.9295  134.9784  163.8185 H   0  0  0  0  0  0  0  0  0  0  0  0
  147.3162  133.9223  162.5398 H   0  0  0  0  0  0  0  0  0  0  0  0
  146.5948  136.2395  158.7864 H   0  0  0  0  0  0  0  0  0  0  0  0
  146.6768  137.5008  159.9833 H   0  0  0  0  0  0  0  0  0  0  0  0
  149.2330  136.3998  160.1669 H   0  0  0  0  0  0  0  0  0  0  0  0
  150.9329  138.4006  159.5674 H   0  0  0  0  0  0  0  0  0  0  0  0
  150.5714  144.1038  156.2324 H   0  0  0  0  0  0  0  0  0  0  0  0
  151.8837  144.9151  157.0596 H   0  0  0  0  0  0  0  0  0  0  0  0
  153.5251  142.0453  160.0727 H   0  0  0  0  0  0  0  0  0  0  0  0
  150.3032  137.6787  156.7414 H   0  0  0  0  0  0  0  0  0  0  0  0
  154.2618  136.1533  157.8533 H   0  0  0  0  0  0  0  0  0  0  0  0
  154.1033  135.0536  156.4767 H   0  0  0  0  0  0  0  0  0  0  0  0
  153.3473  134.6466  158.0235 H   0  0  0  0  0  0  0  0  0  0  0  0
  149.4635  135.2989  158.0880 H   0  0  0  0  0  0  0  0  0  0  0  0
  146.3606  135.6667  155.1810 H   0  0  0  0  0  0  0  0  0  0  0  0
  147.4751  135.8606  153.8199 H   0  0  0  0  0  0  0  0  0  0  0  0
  146.9901  137.2704  154.7732 H   0  0  0  0  0  0  0  0  0  0  0  0
  1  2  1  0  0  0  0
  1 30  1  0  0  0  0
  1 31  1  0  0  0  0
  1 32  1  0  0  0  0
  2  3  2  0  0  0  0
  2  4  1  0  0  0  0
  4  5  1  0  0  0  0
  5  6  1  0  0  0  0
  5 33  1  0  0  0  0
  5 34  1  0  0  0  0
  6 25  1  0  0  0  0
  6  7  1  0  0  0  0
  6 35  1  0  0  0  0
  7  8  1  0  0  0  0
  8  9  1  0  0  0  0
  8 20  1  0  0  0  0
  8 36  1  0  0  0  0
  9 19  1  0  0  0  0
  9 10  1  0  0  0  0
 10 11  1  0  0  0  0
 10 12  2  0  0  0  0
 12 13  1  0  0  0  0
 13 19  2  0  0  0  0
 13 14  1  0  0  0  0
 14 15  1  0  0  0  0
 14 16  2  0  0  0  0
 15 37  1  0  0  0  0
 15 38  1  0  0  0  0
 16 17  1  0  0  0  0
 17 18  2  0  0  0  0
 17 39  1  0  0  0  0
 18 19  1  0  0  0  0
 20 21  1  0  0  0  0
 20 25  1  0  0  0  0
 20 40  1  0  0  0  0
 21 22  1  0  0  0  0
 22 23  1  0  0  0  0
 22 24  2  0  0  0  0
 23 41  1  0  0  0  0
 23 42  1  0  0  0  0
 23 43  1  0  0  0  0
 25 26  1  0  0  0  0
 25 44  1  0  0  0  0
 26 27  1  0  0  0  0
 27 28  1  0  0  0  0
 27 29  2  0  0  0  0
 28 45  1  0  0  0  0
 28 46  1  0  0  0  0
 28 47  1  0  0  0  0
M  END
> <s_m_source_file>
AV-unprocessed.smi

> <i_m_source_file_index>
104

> <i_lp_mmshare_version>
43012

> <i_f3d_flags>
0

> <s_epik_input>
W0NIM11DKD1PKU9bQ0gyXVtDQEBIXTFPW0NASF0oW0NAQEhdKE9DKD1PKVtDSDNdKVtDQEhdMU9DKD1PKVtDSDNdKW4oYyhCciluMiljKGMyMyluW2NIXW5jM1tOSDJd

> <s_epik_cmdline>
J2VwaWtfcHl0aG9uJywgJy1waCcsICc3LjAnLCAnLXRuJywgJzgnLCAnLW1hJywgJzIwMCcsICctbWV0YWxfYmluZGluZycsICctaW1hZScsICc8aW5maWxlLm1hZT4nLCAnLW9tYWUnLCAnPG91dGZpbGUubWFlPic=

> <r_lp_tautomer_probability>
1

> <r_epik_Ionization_Penalty>
7.36622e-05

> <r_epik_Ionization_Penalty_Charging>
0

> <r_epik_Ionization_Penalty_Neutral>
7.36622e-05

> <r_epik_State_Penalty>
-0

> <r_epik_Charging_Adjusted_Penalty>
0

> <i_epik_Tot_Q>
0

> <i_epik_Tot_abs_Q>
0

> <r_epik_Metal_State_Penalty>
-0

> <b_epik_Metal_Only>
0

> <s_epik_Chemistry_Notes>
This compound has an ester and may undergo hydrolysis at high or low pH. This compound contains an acetal/aminal-like group ( X-CH(R)-Y where X, Y are N, S, or O) that may be acid/base labile, releasing an aldehyde.

> <s_lp_Force_Field>
OPLS_2005

> <r_lp_Energy>
15.0278

> <b_lp_Chiralities_Consistent>
1

> <s_lp_Variant>
AV-unprocessed.smi:104-11

> <Gold.Version>
5.8.1

> <Gold.Id.Protein>
6NUR|6NUR_protein|mol2

> <Gold.PLP.Fitness>
40.9419

> <Gold.PLP.PLP>
-34.9425

> <Gold.PLP.part.hbond>
-6.0132

> <Gold.PLP.part.metal>
0.0000

> <Gold.PLP.part.buried>
-4.3409

> <Gold.PLP.part.nonpolar>
-24.6705

> <Gold.PLP.part.repulsive>
0.2291

> <Gold.PLP.ligand.clash>
0.0000

> <Gold.PLP.ligand.torsion>
1.4207

> <Gold.PLP.Chemscore.Hbond>
2.9040

> <Gold.PLP.Chemscore.CHOScore>
0.0000

> <Gold.PLP.Chemscore.Metal>
0.0000

> <Gold.Chemscore.Hbonds>
donor molecule, donor type, donor heavy atom, donor atom, acceptor molecule, acceptor atom, score
      L1  H    15    37       P1  8028  0.98
      P1  H  6931  6943       L1     3  1.00
      P1  H 10752 10763       L1    24  1.00

> <Gold.PLP.Chemscore.Internal.Correction>
0.1288

> <Gold.Rescore>
     Score         DG    S(hbond)    S(metal)    S(lipo)     H(rot)  DE(clash)    DE(int)     intcor
      3.17      -8.83       3.05        0.00      35.90       4.31       1.39       4.27       ----

> <Gold.Chemscore.Fitness>
3.1672

> <Gold.Chemscore.DG>
-8.8301

> <Gold.Chemscore.ZeroCoef>
-5.4800

> <Gold.Chemscore.Hbond>
3.0466

> <Gold.Chemscore.Metal>
0.0000

> <Gold.Chemscore.Lipo>
35.8993

> <Gold.Chemscore.Internal_Hbond>
0.0000

> <Gold.Chemscore.DEClash>
1.3931

> <Gold.Chemscore.DEInternal>
4.2698

> <Gold.Chemscore.Rot>
4.3070

> <Gold.Chemscore.Internal.Correction>
   9.000000E+99

> <Gold.Chemscore.Hbonds>
donor molecule, donor type, donor heavy atom, donor atom, acceptor molecule, acceptor atom, score
      L1  H    15    37       P1  8028  0.93
      P1  H  6931  6943       L1     3  0.94
      P1  H  6934  6947       L1     3  0.02
      P1  H 10752 10763       L1    24  0.33

> <Gold.Chemscore.Hbond.Weighted>
-10.1758

> <Gold.Chemscore.Metal.Weighted>
-0.0000

> <Gold.Chemscore.Lipo.Weighted>
-4.2002

> <Gold.Chemscore.Internal_Hbond.Weighted>
0.0000

> <Gold.Chemscore.DEClash.Weighted>
1.3931

> <Gold.Chemscore.DEInternal.Weighted>
4.2698

> <Gold.Chemscore.Rot.Weighted>
11.0259

> <Gold.Chemscore.Internal.Correction.Weighted>
   9.000000E+99

> <Gold.Protein.RotatedTorsions>
[ 6907 6896 6895 6894 ] final -111.14 input  -60.11 | X-H torsion
[ 7974 7965 7964 7962 ] final  -50.59 input  175.53 | X-H torsion
[ 8008 7997 7996 7995 ] final   40.15 input   59.86 | X-H torsion
[ 10167 10162 10161 10158 ] final  122.26 input  -65.29 | X-H torsion
[ 10718 10713 10712 10709 ] final  -17.03 input   66.30 | X-H torsion
[ 10763 10752 10751 10750 ] final   87.80 input  -60.55 | X-H torsion
[ 11005 11000 10999 10996 ] final  113.85 input  -57.11 | X-H torsion

> <Gold.Protein.ActiveResidues>
 VAL166  LYS551  ARG553  GLY616  TRP617  ASP618  TYR619  PRO620  LYS621  CYS622 
 ASP623  PHE694  ASN695  SER759  ASP760  ASP761  ALA762  ILE779  LEU786  VAL792 
 PHE793  MET794  SER795  GLU796  ALA797  LYS798  CYS799  TRP800  GLU811  SER814 

> <Gold.Protein.RotatedAtoms>
  150.7671  133.9279  159.3417 H   0  0  0  0  0  0  0  0  0  0  0  0  # atno 6907 bound_to 6896
  151.7174  135.0899  160.0287 H   0  0  0  0  0  0  0  0  0  0  0  0  # atno 6908 bound_to 6896
  152.3671  133.6333  159.6095 H   0  0  0  0  0  0  0  0  0  0  0  0  # atno 6909 bound_to 6896
  145.9282  140.7773  142.9613 H   0  0  0  0  0  0  0  0  0  0  0  0  # atno 7974 bound_to 7965
  155.2483  140.3350  155.4285 H   0  0  0  0  0  0  0  0  0  0  0  0  # atno 8008 bound_to 7997
  156.2226  140.1815  156.7483 H   0  0  0  0  0  0  0  0  0  0  0  0  # atno 8009 bound_to 7997
  154.5849  140.0647  156.9142 H   0  0  0  0  0  0  0  0  0  0  0  0  # atno 8010 bound_to 7997
  139.5869  144.7010  151.3386 H   0  0  0  0  0  0  0  0  0  0  0  0  # atno 10167 bound_to 10162
  156.5792  130.4770  149.6328 H   0  0  0  0  0  0  0  0  0  0  0  0  # atno 10718 bound_to 10713
  153.1704  135.4530  154.9895 H   0  0  0  0  0  0  0  0  0  0  0  0  # atno 10763 bound_to 10752
  154.7962  135.3238  154.7664 H   0  0  0  0  0  0  0  0  0  0  0  0  # atno 10764 bound_to 10752
  153.8141  135.6952  153.4891 H   0  0  0  0  0  0  0  0  0  0  0  0  # atno 10765 bound_to 10752
  139.8964  134.9557  156.6802 H   0  0  0  0  0  0  0  0  0  0  0  0  # atno 11005 bound_to 11000
  144.6761  140.2084  143.7379 LP  0  0  0  0  0  0  0  0  0  0  0  0  # atno 17320 bound_to 7965
  145.8461  139.2153  143.1799 LP  0  0  0  0  0  0  0  0  0  0  0  0  # atno 17321 bound_to 7965
  140.7139  143.7317  150.7618 LP  0  0  0  0  0  0  0  0  0  0  0  0  # atno 17342 bound_to 10162
  140.0864  143.4919  152.2502 LP  0  0  0  0  0  0  0  0  0  0  0  0  # atno 17343 bound_to 10162
  156.2646  130.6982  151.1761 LP  0  0  0  0  0  0  0  0  0  0  0  0  # atno 17370 bound_to 10713
  157.7330  131.0594  150.5597 LP  0  0  0  0  0  0  0  0  0  0  0  0  # atno 17371 bound_to 10713
  140.7305  133.9063  155.8208 LP  0  0  0  0  0  0  0  0  0  0  0  0  # atno 17394 bound_to 11000
  141.0157  134.0959  157.4175 LP  0  0  0  0  0  0  0  0  0  0  0  0  # atno 17395 bound_to 11000

$$$$
