AV-unprocessed.smi:2154|AV-procd|sdf|8771|dock6
  -GOLD-   2272011553D 1   1.00000     0.00000
 Structure written by MMmdl.
 32 33  0  0  0  0  0  0  0  0  1 V2000
  151.9624  144.3500  161.2305 C   0  0  0  0  0  0  0  0  0  0  0  0
  151.5134  145.1499  160.0238 C   0  0  1  0  0  0  0  0  0  0  0  0
  152.2851  145.0863  158.7271 C   0  0  0  0  0  0  0  0  0  0  0  0
  150.8941  144.4988  158.8025 C   0  0  1  0  0  0  0  0  0  0  0  0
  150.6719  142.9982  158.7166 C   0  0  0  0  0  0  0  0  0  0  0  0
  150.9743  142.4083  157.4196 N   0  0  0  0  0  0  0  0  0  0  0  0
  150.4817  141.2435  156.9720 C   0  0  0  0  0  0  0  0  0  0  0  0
  149.6891  140.5551  157.6166 O   0  0  0  0  0  0  0  0  0  0  0  0
  150.9429  140.8078  155.5738 C   0  0  0  0  0  0  0  0  0  0  0  0
  149.8255  140.4920  154.6720 N   0  0  0  0  0  0  0  0  0  0  0  0
  148.8300  141.4294  154.4347 C   0  0  0  0  0  0  0  0  0  0  0  0
  147.7703  141.2026  153.6225 C   0  0  0  0  0  0  0  0  0  0  0  0
  147.6237  139.9214  152.9401 C   0  0  0  0  0  0  0  0  0  0  0  0
  146.7021  139.6217  152.1843 O   0  0  0  0  0  0  0  0  0  0  0  0
  148.6432  139.0036  153.2068 N   0  0  0  0  0  0  0  0  0  0  0  0
  149.7370  139.2305  154.0438 C   0  0  0  0  0  0  0  0  0  0  0  0
  150.5794  138.3495  154.2128 O   0  0  0  0  0  0  0  0  0  0  0  0
  148.5827  138.1010  152.7584 H   0  0  0  0  0  0  0  0  0  0  0  0
  152.4767  143.4368  160.9318 H   0  0  0  0  0  0  0  0  0  0  0  0
  151.1017  144.0827  161.8437 H   0  0  0  0  0  0  0  0  0  0  0  0
  152.6479  144.9441  161.8352 H   0  0  0  0  0  0  0  0  0  0  0  0
  151.1024  146.1230  160.2863 H   0  0  0  0  0  0  0  0  0  0  0  0
  152.4076  146.0115  158.1680 H   0  0  0  0  0  0  0  0  0  0  0  0
  153.1230  144.3944  158.6674 H   0  0  0  0  0  0  0  0  0  0  0  0
  150.1003  145.0776  158.3336 H   0  0  0  0  0  0  0  0  0  0  0  0
  151.2469  142.4889  159.4912 H   0  0  0  0  0  0  0  0  0  0  0  0
  149.6220  142.7981  158.9311 H   0  0  0  0  0  0  0  0  0  0  0  0
  151.6137  142.9149  156.8245 H   0  0  0  0  0  0  0  0  0  0  0  0
  151.5531  141.6090  155.1545 H   0  0  0  0  0  0  0  0  0  0  0  0
  151.6124  139.9487  155.6550 H   0  0  0  0  0  0  0  0  0  0  0  0
  148.8948  142.3915  154.9227 H   0  0  0  0  0  0  0  0  0  0  0  0
  147.0265  141.9727  153.4776 H   0  0  0  0  0  0  0  0  0  0  0  0
  1  2  1  0  0  0  0
  1 19  1  0  0  0  0
  1 20  1  0  0  0  0
  1 21  1  0  0  0  0
  2  4  1  0  0  0  0
  2  3  1  0  0  0  0
  2 22  1  0  0  0  0
  3  4  1  0  0  0  0
  3 23  1  0  0  0  0
  3 24  1  0  0  0  0
  4  5  1  0  0  0  0
  4 25  1  0  0  0  0
  5  6  1  0  0  0  0
  5 26  1  0  0  0  0
  5 27  1  0  0  0  0
  6  7  1  0  0  0  0
  6 28  1  0  0  0  0
  7  8  2  0  0  0  0
  7  9  1  0  0  0  0
  9 10  1  0  0  0  0
  9 29  1  0  0  0  0
  9 30  1  0  0  0  0
 10 16  1  0  0  0  0
 10 11  1  0  0  0  0
 11 12  2  0  0  0  0
 11 31  1  0  0  0  0
 12 13  1  0  0  0  0
 12 32  1  0  0  0  0
 13 14  2  0  0  0  0
 13 15  1  0  0  0  0
 15 18  1  0  0  0  0
 15 16  1  0  0  0  0
 16 17  2  0  0  0  0
M  END
> <s_m_source_file>
AV-unprocessed.smi

> <i_m_source_file_index>
2154

> <i_lp_mmshare_version>
43012

> <i_f3d_flags>
0

> <s_epik_input>
W0NIM11bQ0BASF0xW0NIMl1bQ0BIXTFbQ0gyXVtOSF1DKD1PKVtDSDJdbjJbY0hdW2NIXWMoPU8pW25IXWMyPU8=

> <s_epik_cmdline>
J2VwaWtfcHl0aG9uJywgJy1waCcsICc3LjAnLCAnLXRuJywgJzgnLCAnLW1hJywgJzIwMCcsICctbWV0YWxfYmluZGluZycsICctaW1hZScsICc8aW5maWxlLm1hZT4nLCAnLW9tYWUnLCAnPG91dGZpbGUubWFlPic=

> <r_lp_tautomer_probability>
0.999537

> <r_epik_Ionization_Penalty>
0.00305319

> <r_epik_Ionization_Penalty_Charging>
0.00305317

> <r_epik_Ionization_Penalty_Neutral>
2.06703e-08

> <r_epik_State_Penalty>
0.00214626

> <r_epik_Charging_Adjusted_Penalty>
0.00519944

> <i_epik_Tot_Q>
0

> <i_epik_Tot_abs_Q>
0

> <r_epik_Metal_State_Penalty>
0.361976

> <b_epik_Metal_Only>
0

> <s_lp_Force_Field>
OPLS_2005

> <r_lp_Energy>
15.5744

> <b_lp_Chiralities_Consistent>
1

> <s_lp_Variant>
AV-unprocessed.smi:2154-2

> <Gold.Version>
5.8.1

> <Gold.Id.Protein>
6NUR|6NUR_protein|mol2

> <Gold.PLP.Fitness>
43.0781

> <Gold.PLP.PLP>
-37.6414

> <Gold.PLP.part.hbond>
-2.0000

> <Gold.PLP.part.metal>
0.0000

> <Gold.PLP.part.buried>
-0.7036

> <Gold.PLP.part.nonpolar>
-34.4919

> <Gold.PLP.part.repulsive>
0.6379

> <Gold.PLP.ligand.clash>
0.0000

> <Gold.PLP.ligand.torsion>
0.5349

> <Gold.PLP.Chemscore.Hbond>
0.9913

> <Gold.PLP.Chemscore.CHOScore>
1.0000

> <Gold.PLP.Chemscore.Metal>
0.0000

> <Gold.Chemscore.Hbonds>
donor molecule, donor type, donor heavy atom, donor atom, acceptor molecule, acceptor atom, score
      L1  H    15    18       P1  7948  0.88
      L1  C    11    31       P1  8028  1.00

> <Gold.PLP.Chemscore.Internal.Correction>
0.5327

> <Gold.Rescore>
     Score         DG    S(hbond)    S(metal)    S(lipo)     H(rot)  DE(clash)    DE(int)     intcor
     12.33     -13.10       0.92        0.00      82.73       2.01       0.12       0.65       ----

> <Gold.Chemscore.Fitness>
12.3333

> <Gold.Chemscore.DG>
-13.1025

> <Gold.Chemscore.ZeroCoef>
-5.4800

> <Gold.Chemscore.Hbond>
0.9219

> <Gold.Chemscore.Metal>
0.0000

> <Gold.Chemscore.Lipo>
82.7342

> <Gold.Chemscore.Internal_Hbond>
0.0000

> <Gold.Chemscore.DEClash>
0.1230

> <Gold.Chemscore.DEInternal>
0.6462

> <Gold.Chemscore.Rot>
2.0065

> <Gold.Chemscore.Internal.Correction>
   9.000000E+99

> <Gold.Chemscore.Hbonds>
donor molecule, donor type, donor heavy atom, donor atom, acceptor molecule, acceptor atom, score
      L1  H    15    18       P1  7948  0.86

> <Gold.Chemscore.Hbond.Weighted>
-3.0792

> <Gold.Chemscore.Metal.Weighted>
-0.0000

> <Gold.Chemscore.Lipo.Weighted>
-9.6799

> <Gold.Chemscore.Internal_Hbond.Weighted>
0.0000

> <Gold.Chemscore.DEClash.Weighted>
0.1230

> <Gold.Chemscore.DEInternal.Weighted>
0.6462

> <Gold.Chemscore.Rot.Weighted>
5.1366

> <Gold.Chemscore.Internal.Correction.Weighted>
   9.000000E+99

> <Gold.Protein.RotatedTorsions>
[ 6907 6896 6895 6894 ] final  147.07 input  -60.11 | X-H torsion
[ 7974 7965 7964 7962 ] final -148.91 input  175.53 | X-H torsion
[ 8008 7997 7996 7995 ] final   91.94 input   59.86 | X-H torsion
[ 10167 10162 10161 10158 ] final -108.91 input  -65.29 | X-H torsion
[ 10718 10713 10712 10709 ] final  -91.38 input   66.30 | X-H torsion
[ 10763 10752 10751 10750 ] final  150.66 input  -60.55 | X-H torsion
[ 11005 11000 10999 10996 ] final -141.62 input  -57.11 | X-H torsion

> <Gold.Protein.ActiveResidues>
 VAL166  LYS551  ARG553  GLY616  TRP617  ASP618  TYR619  PRO620  LYS621  CYS622 
 ASP623  PHE694  ASN695  SER759  ASP760  ASP761  ALA762  ILE779  LEU786  VAL792 
 PHE793  MET794  SER795  GLU796  ALA797  LYS798  CYS799  TRP800  GLU811  SER814 

> <Gold.Protein.RotatedAtoms>
  152.1596  133.4573  159.4854 H   0  0  0  0  0  0  0  0  0  0  0  0  # atno 6907 bound_to 6896
  150.6905  134.2087  159.4360 H   0  0  0  0  0  0  0  0  0  0  0  0  # atno 6908 bound_to 6896
  151.9989  134.9939  160.0615 H   0  0  0  0  0  0  0  0  0  0  0  0  # atno 6909 bound_to 6896
  144.8000  140.5134  143.5714 H   0  0  0  0  0  0  0  0  0  0  0  0  # atno 7974 bound_to 7965
  156.0296  140.3331  155.7125 H   0  0  0  0  0  0  0  0  0  0  0  0  # atno 8008 bound_to 7997
  155.5904  140.0645  157.2778 H   0  0  0  0  0  0  0  0  0  0  0  0  # atno 8009 bound_to 7997
  154.4348  140.1828  156.1056 H   0  0  0  0  0  0  0  0  0  0  0  0  # atno 8010 bound_to 7997
  140.1611  143.4120  152.1425 H   0  0  0  0  0  0  0  0  0  0  0  0  # atno 10167 bound_to 10162
  155.9993  130.4946  150.5466 H   0  0  0  0  0  0  0  0  0  0  0  0  # atno 10718 bound_to 10713
  154.0911  135.2852  155.3271 H   0  0  0  0  0  0  0  0  0  0  0  0  # atno 10763 bound_to 10752
  154.6619  135.5331  153.8032 H   0  0  0  0  0  0  0  0  0  0  0  0  # atno 10764 bound_to 10752
  153.0413  135.6536  154.1080 H   0  0  0  0  0  0  0  0  0  0  0  0  # atno 10765 bound_to 10752
  140.8306  134.2521  157.4858 H   0  0  0  0  0  0  0  0  0  0  0  0  # atno 11005 bound_to 11000
  145.5577  139.1478  143.3359 LP  0  0  0  0  0  0  0  0  0  0  0  0  # atno 17320 bound_to 7965
  146.2279  140.5714  142.8988 LP  0  0  0  0  0  0  0  0  0  0  0  0  # atno 17321 bound_to 7965
  139.5381  144.7229  151.4826 LP  0  0  0  0  0  0  0  0  0  0  0  0  # atno 17342 bound_to 10162
  140.6642  143.8433  150.6923 LP  0  0  0  0  0  0  0  0  0  0  0  0  # atno 17343 bound_to 10162
  157.3395  131.0714  151.1799 LP  0  0  0  0  0  0  0  0  0  0  0  0  # atno 17370 bound_to 10713
  157.2652  130.6678  149.5993 LP  0  0  0  0  0  0  0  0  0  0  0  0  # atno 17371 bound_to 10713
  139.8705  134.9584  156.4299 LP  0  0  0  0  0  0  0  0  0  0  0  0  # atno 17394 bound_to 11000
  140.9002  133.7785  155.9671 LP  0  0  0  0  0  0  0  0  0  0  0  0  # atno 17395 bound_to 11000

$$$$
