AV-unprocessed.smi:171|AV-procd|sdf|1416|dock5
  -GOLD-   2262019183D 1   1.00000     0.00000
 Structure written by MMmdl.
 56 59  0  0  0  0  0  0  0  0  1 V2000
  151.6462  143.5377  158.0285 C   0  0  0  0  0  0  0  0  0  0  0  0
  150.8641  142.2277  157.8457 C   0  0  0  0  0  0  0  0  0  0  0  0
  151.5873  141.0739  158.5590 C   0  0  0  0  0  0  0  0  0  0  0  0
  150.6076  141.9557  156.3459 C   0  0  0  0  0  0  0  0  0  0  0  0
  149.7142  140.7207  156.0389 C   0  0  2  0  0  0  0  0  0  0  0  0
  149.9274  140.2250  154.5862 C   0  0  0  0  0  0  0  0  0  0  0  0
  150.9517  139.6141  154.2914 O   0  0  0  0  0  0  0  0  0  0  0  0
  148.9760  140.4662  153.6660 N   0  0  0  0  0  0  0  0  0  0  0  0
  147.7058  141.1523  153.9014 C   0  0  0  0  0  0  0  0  0  0  0  0
  147.6579  141.8792  155.2569 C   0  0  0  0  0  0  0  0  0  0  0  0
  148.3057  141.0712  156.2878 N   0  0  0  0  0  0  0  0  0  0  0  0
  147.4920  140.1505  156.8693 C   0  0  0  0  0  0  0  0  0  0  0  0
  146.1416  140.3067  156.8296 N   0  0  0  0  0  0  0  0  0  0  0  0
  145.3406  139.4141  157.4186 C   0  0  0  0  0  0  0  0  0  0  0  0
  145.6733  138.3116  158.0920 N   0  0  0  0  0  0  0  0  0  0  0  0
  147.0265  138.1491  158.1366 C   0  0  0  0  0  0  0  0  0  0  0  0
  147.9984  139.0116  157.5554 C   0  0  0  0  0  0  0  0  0  0  0  0
  149.2748  138.5168  157.7957 N   0  0  0  0  0  0  0  0  0  0  0  0
  149.0693  137.4286  158.4861 C   0  0  0  0  0  0  0  0  0  0  0  0
  147.7489  137.1372  158.7443 N   0  0  0  0  0  0  0  0  0  0  0  0
  147.2372  135.9993  159.4921 C   0  0  0  0  0  0  0  0  0  0  0  0
  147.1519  136.2542  161.0157 C   0  0  2  0  0  0  0  0  0  0  0  0
  146.5105  137.5008  161.2334 O   0  0  0  0  0  0  0  0  0  0  0  0
  148.5017  136.2759  161.7176 C   0  0  0  0  0  0  0  0  0  0  0  0
  148.1323  135.9350  163.1560 C   0  0  0  0  0  0  0  0  0  0  0  0
  147.0596  135.0078  163.0496 O   0  0  0  0  0  0  0  0  0  0  0  0
  146.4236  135.1254  161.7775 C   0  0  1  0  0  0  0  0  0  0  0  0
  144.9011  135.2711  161.9333 C   0  0  0  0  0  0  0  0  0  0  0  0
  152.6306  143.4787  157.5630 H   0  0  0  0  0  0  0  0  0  0  0  0
  151.7907  143.7668  159.0845 H   0  0  0  0  0  0  0  0  0  0  0  0
  151.1165  144.3798  157.5822 H   0  0  0  0  0  0  0  0  0  0  0  0
  149.8971  142.3629  158.3317 H   0  0  0  0  0  0  0  0  0  0  0  0
  152.5259  140.8254  158.0629 H   0  0  0  0  0  0  0  0  0  0  0  0
  150.9721  140.1754  158.5891 H   0  0  0  0  0  0  0  0  0  0  0  0
  151.8168  141.3340  159.5925 H   0  0  0  0  0  0  0  0  0  0  0  0
  150.1312  142.8495  155.9394 H   0  0  0  0  0  0  0  0  0  0  0  0
  151.5604  141.8883  155.8173 H   0  0  0  0  0  0  0  0  0  0  0  0
  150.0095  139.9157  156.7141 H   0  0  0  0  0  0  0  0  0  0  0  0
  149.1410  140.1307  152.7279 H   0  0  0  0  0  0  0  0  0  0  0  0
  147.5088  141.8493  153.0868 H   0  0  0  0  0  0  0  0  0  0  0  0
  146.9190  140.3981  153.8663 H   0  0  0  0  0  0  0  0  0  0  0  0
  148.1892  142.8283  155.1801 H   0  0  0  0  0  0  0  0  0  0  0  0
  146.6287  142.1349  155.5099 H   0  0  0  0  0  0  0  0  0  0  0  0
  144.2819  139.6130  157.3408 H   0  0  0  0  0  0  0  0  0  0  0  0
  149.8817  136.8064  158.8323 H   0  0  0  0  0  0  0  0  0  0  0  0
  146.2549  135.7374  159.0966 H   0  0  0  0  0  0  0  0  0  0  0  0
  147.8849  135.1459  159.2880 H   0  0  0  0  0  0  0  0  0  0  0  0
  145.5759  137.3668  161.1941 H   0  0  0  0  0  0  0  0  0  0  0  0
  149.1457  135.4916  161.3174 H   0  0  0  0  0  0  0  0  0  0  0  0
  149.0320  137.2248  161.6246 H   0  0  0  0  0  0  0  0  0  0  0  0
  148.9686  135.5178  163.7175 H   0  0  0  0  0  0  0  0  0  0  0  0
  147.7799  136.8232  163.6818 H   0  0  0  0  0  0  0  0  0  0  0  0
  146.6222  134.1808  161.2691 H   0  0  0  0  0  0  0  0  0  0  0  0
  144.4159  135.3683  160.9619 H   0  0  0  0  0  0  0  0  0  0  0  0
  144.6371  136.1430  162.5319 H   0  0  0  0  0  0  0  0  0  0  0  0
  144.4793  134.3963  162.4282 H   0  0  0  0  0  0  0  0  0  0  0  0
  1  2  1  0  0  0  0
  1 29  1  0  0  0  0
  1 30  1  0  0  0  0
  1 31  1  0  0  0  0
  2  3  1  0  0  0  0
  2  4  1  0  0  0  0
  2 32  1  0  0  0  0
  3 33  1  0  0  0  0
  3 34  1  0  0  0  0
  3 35  1  0  0  0  0
  4  5  1  0  0  0  0
  4 36  1  0  0  0  0
  4 37  1  0  0  0  0
  5 11  1  0  0  0  0
  5  6  1  0  0  0  0
  5 38  1  0  0  0  0
  6  7  2  0  0  0  0
  6  8  1  0  0  0  0
  8  9  1  0  0  0  0
  8 39  1  0  0  0  0
  9 10  1  0  0  0  0
  9 40  1  0  0  0  0
  9 41  1  0  0  0  0
 10 11  1  0  0  0  0
 10 42  1  0  0  0  0
 10 43  1  0  0  0  0
 11 12  1  0  0  0  0
 12 17  1  0  0  0  0
 12 13  2  0  0  0  0
 13 14  1  0  0  0  0
 14 15  2  0  0  0  0
 14 44  1  0  0  0  0
 15 16  1  0  0  0  0
 16 20  1  0  0  0  0
 16 17  2  0  0  0  0
 17 18  1  0  0  0  0
 18 19  2  0  0  0  0
 19 20  1  0  0  0  0
 19 45  1  0  0  0  0
 20 21  1  0  0  0  0
 21 22  1  0  0  0  0
 21 46  1  0  0  0  0
 21 47  1  0  0  0  0
 22 27  1  0  0  0  0
 22 23  1  0  0  0  0
 22 24  1  0  0  0  0
 23 48  1  0  0  0  0
 24 25  1  0  0  0  0
 24 49  1  0  0  0  0
 24 50  1  0  0  0  0
 25 26  1  0  0  0  0
 25 51  1  0  0  0  0
 25 52  1  0  0  0  0
 26 27  1  0  0  0  0
 27 28  1  0  0  0  0
 27 53  1  0  0  0  0
 28 54  1  0  0  0  0
 28 55  1  0  0  0  0
 28 56  1  0  0  0  0
M  END
> <s_m_source_file>
AV-unprocessed.smi

> <i_m_source_file_index>
171

> <i_lp_mmshare_version>
43012

> <i_f3d_flags>
0

> <s_epik_input>
W0NIM11bQ0hdKFtDSDNdKVtDSDJdW0NAQEhdMUMoPU8pW05IXVtDSDJdW0NIMl1OMWMobltjSF1uMiljKGMyMyluW2NIXW4zW0NIMl1bQ0BAXTQoW09IXSlbQ0gyXVtDSDJdT1tDQEhdNFtDSDNd

> <s_epik_cmdline>
J2VwaWtfcHl0aG9uJywgJy1waCcsICc3LjAnLCAnLXRuJywgJzgnLCAnLW1hJywgJzIwMCcsICctbWV0YWxfYmluZGluZycsICctaW1hZScsICc8aW5maWxlLm1hZT4nLCAnLW9tYWUnLCAnPG91dGZpbGUubWFlPic=

> <r_lp_tautomer_probability>
1

> <r_epik_Ionization_Penalty>
0.000670584

> <r_epik_Ionization_Penalty_Charging>
0

> <r_epik_Ionization_Penalty_Neutral>
0.000670584

> <r_epik_State_Penalty>
0.000304767

> <r_epik_Charging_Adjusted_Penalty>
0.000304767

> <i_epik_Tot_Q>
0

> <i_epik_Tot_abs_Q>
0

> <r_epik_Metal_State_Penalty>
-0

> <b_epik_Metal_Only>
0

> <s_lp_Force_Field>
OPLS_2005

> <r_lp_Energy>
45.8078

> <b_lp_Chiralities_Consistent>
1

> <s_lp_Variant>
AV-unprocessed.smi:171-3

> <Gold.Version>
5.8.1

> <Gold.Id.Protein>
6NUR|6NUR_protein|mol2

> <Gold.PLP.Fitness>
44.2071

> <Gold.PLP.PLP>
-36.9883

> <Gold.PLP.part.hbond>
-3.0000

> <Gold.PLP.part.metal>
0.0000

> <Gold.PLP.part.buried>
-4.1980

> <Gold.PLP.part.nonpolar>
-29.4736

> <Gold.PLP.part.repulsive>
0.3741

> <Gold.PLP.ligand.clash>
0.0000

> <Gold.PLP.ligand.torsion>
1.1467

> <Gold.PLP.Chemscore.Hbond>
3.0000

> <Gold.PLP.Chemscore.CHOScore>
0.0000

> <Gold.PLP.Chemscore.Metal>
0.0000

> <Gold.Chemscore.Hbonds>
donor molecule, donor type, donor heavy atom, donor atom, acceptor molecule, acceptor atom, score
      L1  H     8    39       P1  7957  1.00
      P1  H  6934  6947       L1    23  1.00
      P1  H  7989  7998       L1     7  0.75

> <Gold.PLP.Chemscore.Internal.Correction>
0.5121

> <Gold.Rescore>
     Score         DG    S(hbond)    S(metal)    S(lipo)     H(rot)  DE(clash)    DE(int)     intcor
     15.56     -18.22       2.81        0.00      85.62       2.61       0.15       2.51       ----

> <Gold.Chemscore.Fitness>
15.5606

> <Gold.Chemscore.DG>
-18.2203

> <Gold.Chemscore.ZeroCoef>
-5.4800

> <Gold.Chemscore.Hbond>
2.8137

> <Gold.Chemscore.Metal>
0.0000

> <Gold.Chemscore.Lipo>
85.6173

> <Gold.Chemscore.Internal_Hbond>
0.0000

> <Gold.Chemscore.DEClash>
0.1534

> <Gold.Chemscore.DEInternal>
2.5063

> <Gold.Chemscore.Rot>
2.6074

> <Gold.Chemscore.Internal.Correction>
   9.000000E+99

> <Gold.Chemscore.Hbonds>
donor molecule, donor type, donor heavy atom, donor atom, acceptor molecule, acceptor atom, score
      L1  H     8    39       P1  7957  0.99
      P1  H  6934  6947       L1    23  0.97
      P1  H  7989  7998       L1     7  0.09

> <Gold.Chemscore.Hbond.Weighted>
-9.3979

> <Gold.Chemscore.Metal.Weighted>
-0.0000

> <Gold.Chemscore.Lipo.Weighted>
-10.0172

> <Gold.Chemscore.Internal_Hbond.Weighted>
0.0000

> <Gold.Chemscore.DEClash.Weighted>
0.1534

> <Gold.Chemscore.DEInternal.Weighted>
2.5063

> <Gold.Chemscore.Rot.Weighted>
6.6748

> <Gold.Chemscore.Internal.Correction.Weighted>
   9.000000E+99

> <Gold.Protein.RotatedTorsions>
[ 6907 6896 6895 6894 ] final -105.61 input  -60.11 | X-H torsion
[ 7974 7965 7964 7962 ] final   75.30 input  175.53 | X-H torsion
[ 8008 7997 7996 7995 ] final -129.48 input   59.86 | X-H torsion
[ 10167 10162 10161 10158 ] final   -0.54 input  -65.29 | X-H torsion
[ 10718 10713 10712 10709 ] final  -62.52 input   66.30 | X-H torsion
[ 10763 10752 10751 10750 ] final   84.11 input  -60.55 | X-H torsion
[ 11005 11000 10999 10996 ] final  -78.30 input  -57.11 | X-H torsion

> <Gold.Protein.ActiveResidues>
 VAL166  LYS551  ARG553  GLY616  TRP617  ASP618  TYR619  PRO620  LYS621  CYS622 
 ASP623  PHE694  ASN695  SER759  ASP760  ASP761  ALA762  ILE779  LEU786  VAL792 
 PHE793  MET794  SER795  GLU796  ALA797  LYS798  CYS799  TRP800  GLU811  SER814 

> <Gold.Protein.RotatedAtoms>
  150.7346  134.0100  159.3666 H   0  0  0  0  0  0  0  0  0  0  0  0  # atno 6907 bound_to 6896
  151.8059  135.0693  160.0416 H   0  0  0  0  0  0  0  0  0  0  0  0  # atno 6908 bound_to 6896
  152.3107  133.5714  159.5715 H   0  0  0  0  0  0  0  0  0  0  0  0  # atno 6909 bound_to 6896
  145.7174  139.2636  143.1616 H   0  0  0  0  0  0  0  0  0  0  0  0  # atno 7974 bound_to 7965
  155.2799  140.0443  157.3014 H   0  0  0  0  0  0  0  0  0  0  0  0  # atno 8008 bound_to 7997
  154.5603  140.2344  155.8314 H   0  0  0  0  0  0  0  0  0  0  0  0  # atno 8009 bound_to 7997
  156.2041  140.3017  155.9597 H   0  0  0  0  0  0  0  0  0  0  0  0  # atno 8010 bound_to 7997
  140.6772  143.6882  150.8049 H   0  0  0  0  0  0  0  0  0  0  0  0  # atno 10167 bound_to 10162
  156.0850  130.4210  150.1147 H   0  0  0  0  0  0  0  0  0  0  0  0  # atno 10718 bound_to 10713
  153.1352  135.4666  154.9410 H   0  0  0  0  0  0  0  0  0  0  0  0  # atno 10763 bound_to 10752
  154.7699  135.3156  154.8213 H   0  0  0  0  0  0  0  0  0  0  0  0  # atno 10764 bound_to 10752
  153.8747  135.6900  153.4825 H   0  0  0  0  0  0  0  0  0  0  0  0  # atno 10765 bound_to 10752
  141.1664  133.7057  156.7951 H   0  0  0  0  0  0  0  0  0  0  0  0  # atno 11005 bound_to 11000
  146.0657  140.7923  142.9713 LP  0  0  0  0  0  0  0  0  0  0  0  0  # atno 17320 bound_to 7965
  144.6926  140.3265  143.7223 LP  0  0  0  0  0  0  0  0  0  0  0  0  # atno 17321 bound_to 7965
  140.0577  143.5186  152.2643 LP  0  0  0  0  0  0  0  0  0  0  0  0  # atno 17342 bound_to 10162
  139.6071  144.7599  151.3036 LP  0  0  0  0  0  0  0  0  0  0  0  0  # atno 17343 bound_to 10162
  156.9170  130.9670  151.3554 LP  0  0  0  0  0  0  0  0  0  0  0  0  # atno 17370 bound_to 10713
  157.5981  130.8492  149.8760 LP  0  0  0  0  0  0  0  0  0  0  0  0  # atno 17371 bound_to 10713
  140.2297  134.8695  157.3464 LP  0  0  0  0  0  0  0  0  0  0  0  0  # atno 17394 bound_to 11000
  140.1903  134.4379  155.7719 LP  0  0  0  0  0  0  0  0  0  0  0  0  # atno 17395 bound_to 11000

$$$$
