AV-unprocessed.smi:1419|AV-procd|sdf|5782|dock4
  -GOLD-   22720 5423D 1   1.00000     0.00000
 Structure written by MMmdl.
 41 42  0  0  0  0  0  0  0  0  1 V2000
  150.8166  133.6046  155.4350 C   0  0  0  0  0  0  0  0  0  0  0  0
  149.6129  134.4968  155.1039 C   0  0  2  0  0  0  0  0  0  0  0  0
  148.6739  133.8247  154.0814 C   0  0  0  0  0  0  0  0  0  0  0  0
  148.4612  132.4156  154.3622 N   0  0  0  0  0  0  0  0  0  0  0  0
  148.9465  131.3324  153.6415 C   0  0  0  0  0  0  0  0  0  0  0  0
  148.4993  130.2004  154.2848 C   0  0  0  0  0  0  0  0  0  0  0  0
  147.7357  130.5610  155.3926 N   0  0  0  0  0  0  0  0  0  0  0  0
  147.7564  131.8872  155.3723 C   0  0  0  0  0  0  0  0  0  0  0  0
  150.0916  135.7764  154.5836 N   0  0  0  0  0  0  0  0  0  0  0  0
  151.0259  136.5603  155.1494 C   0  0  0  0  0  0  0  0  0  0  0  0
  151.6772  136.2074  156.1335 O   0  0  0  0  0  0  0  0  0  0  0  0
  151.1983  137.7584  154.5392 N   0  0  0  0  0  0  0  0  0  0  0  0
  150.1590  138.5632  153.8841 C   0  0  0  0  0  0  0  0  0  0  0  0
  149.8096  139.7409  154.8150 C   0  0  2  0  0  0  0  0  0  0  0  0
  148.7669  140.6769  154.1948 C   0  0  0  0  0  0  0  0  0  0  0  0
  150.9897  140.5049  155.0765 O   0  0  0  0  0  0  0  0  0  0  0  0
  152.0976  139.7740  155.6136 C   0  0  1  0  0  0  0  0  0  0  0  0
  151.8666  139.4125  157.0924 C   0  0  0  0  0  0  0  0  0  0  0  0
  152.4117  138.5613  154.7104 C   0  0  0  0  0  0  0  0  0  0  0  0
  150.4928  132.6449  155.8386 H   0  0  0  0  0  0  0  0  0  0  0  0
  151.4603  134.0740  156.1799 H   0  0  0  0  0  0  0  0  0  0  0  0
  151.4210  133.4058  154.5491 H   0  0  0  0  0  0  0  0  0  0  0  0
  149.0577  134.6485  156.0312 H   0  0  0  0  0  0  0  0  0  0  0  0
  147.7060  134.3283  154.0625 H   0  0  0  0  0  0  0  0  0  0  0  0
  149.0895  133.9089  153.0766 H   0  0  0  0  0  0  0  0  0  0  0  0
  149.5586  131.4537  152.7598 H   0  0  0  0  0  0  0  0  0  0  0  0
  148.6671  129.1626  154.0375 H   0  0  0  0  0  0  0  0  0  0  0  0
  147.2538  132.4885  156.1157 H   0  0  0  0  0  0  0  0  0  0  0  0
  149.6253  136.1304  153.7612 H   0  0  0  0  0  0  0  0  0  0  0  0
  150.5397  138.9358  152.9319 H   0  0  0  0  0  0  0  0  0  0  0  0
  149.2570  138.0033  153.6375 H   0  0  0  0  0  0  0  0  0  0  0  0
  149.4067  139.3593  155.7536 H   0  0  0  0  0  0  0  0  0  0  0  0
  147.8352  140.1478  153.9933 H   0  0  0  0  0  0  0  0  0  0  0  0
  149.1240  141.0978  153.2544 H   0  0  0  0  0  0  0  0  0  0  0  0
  148.5397  141.5057  154.8660 H   0  0  0  0  0  0  0  0  0  0  0  0
  152.9544  140.4473  155.5796 H   0  0  0  0  0  0  0  0  0  0  0  0
  152.7506  138.9354  157.5160 H   0  0  0  0  0  0  0  0  0  0  0  0
  151.0330  138.7252  157.2269 H   0  0  0  0  0  0  0  0  0  0  0  0
  151.6579  140.3050  157.6824 H   0  0  0  0  0  0  0  0  0  0  0  0
  153.2448  137.9881  155.1202 H   0  0  0  0  0  0  0  0  0  0  0  0
  152.7479  138.9071  153.7318 H   0  0  0  0  0  0  0  0  0  0  0  0
  1  2  1  0  0  0  0
  1 20  1  0  0  0  0
  1 21  1  0  0  0  0
  1 22  1  0  0  0  0
  2  3  1  0  0  0  0
  2  9  1  0  0  0  0
  2 23  1  0  0  0  0
  3  4  1  0  0  0  0
  3 24  1  0  0  0  0
  3 25  1  0  0  0  0
  4  8  1  0  0  0  0
  4  5  1  0  0  0  0
  5  6  2  0  0  0  0
  5 26  1  0  0  0  0
  6  7  1  0  0  0  0
  6 27  1  0  0  0  0
  7  8  2  0  0  0  0
  8 28  1  0  0  0  0
  9 10  1  0  0  0  0
  9 29  1  0  0  0  0
 10 11  2  0  0  0  0
 10 12  1  0  0  0  0
 12 19  1  0  0  0  0
 12 13  1  0  0  0  0
 13 14  1  0  0  0  0
 13 30  1  0  0  0  0
 13 31  1  0  0  0  0
 14 15  1  0  0  0  0
 14 16  1  0  0  0  0
 14 32  1  0  0  0  0
 15 33  1  0  0  0  0
 15 34  1  0  0  0  0
 15 35  1  0  0  0  0
 16 17  1  0  0  0  0
 17 18  1  0  0  0  0
 17 19  1  0  0  0  0
 17 36  1  0  0  0  0
 18 37  1  0  0  0  0
 18 38  1  0  0  0  0
 18 39  1  0  0  0  0
 19 40  1  0  0  0  0
 19 41  1  0  0  0  0
M  END
> <s_m_source_file>
AV-unprocessed.smi

> <i_m_source_file_index>
1419

> <i_lp_mmshare_version>
43012

> <i_f3d_flags>
0

> <s_epik_input>
W2NIXTFuW2NIXVtjSF1uMVtDSDJdW0NAQEhdKFtDSDNdKVtOSF1DKD1PKU4yW0NIMl1bQ0BASF0oW0NIM10pT1tDQEBIXShbQ0gzXSlbQ0gyXTI=

> <s_epik_cmdline>
J2VwaWtfcHl0aG9uJywgJy1waCcsICc3LjAnLCAnLXRuJywgJzgnLCAnLW1hJywgJzIwMCcsICctbWV0YWxfYmluZGluZycsICctaW1hZScsICc8aW5maWxlLm1hZT4nLCAnLW9tYWUnLCAnPG91dGZpbGUubWFlPic=

> <r_lp_tautomer_probability>
1

> <r_epik_Ionization_Penalty>
0.625124

> <r_epik_Ionization_Penalty_Charging>
0.625093

> <r_epik_Ionization_Penalty_Neutral>
3.17415e-05

> <r_epik_State_Penalty>
0.641455

> <r_epik_Charging_Adjusted_Penalty>
1.26655

> <i_epik_Tot_Q>
0

> <i_epik_Tot_abs_Q>
0

> <r_epik_Metal_State_Penalty>
0.307717

> <b_epik_Metal_Only>
0

> <s_lp_Force_Field>
OPLS_2005

> <r_lp_Energy>
29.9288

> <b_lp_Chiralities_Consistent>
1

> <s_lp_Variant>
AV-unprocessed.smi:1419-9

> <Gold.Version>
5.8.1

> <Gold.Id.Protein>
6NUR|6NUR_protein|mol2

> <Gold.PLP.Fitness>
44.2946

> <Gold.PLP.PLP>
-33.5182

> <Gold.PLP.part.hbond>
-3.3077

> <Gold.PLP.part.metal>
0.0000

> <Gold.PLP.part.buried>
-0.6059

> <Gold.PLP.part.nonpolar>
-28.5491

> <Gold.PLP.part.repulsive>
0.1558

> <Gold.PLP.ligand.clash>
0.0000

> <Gold.PLP.ligand.torsion>
0.6294

> <Gold.PLP.Chemscore.Hbond>
2.9920

> <Gold.PLP.Chemscore.CHOScore>
1.0000

> <Gold.PLP.Chemscore.Metal>
0.0000

> <Gold.Chemscore.Hbonds>
donor molecule, donor type, donor heavy atom, donor atom, acceptor molecule, acceptor atom, score
      L1  H     9    29       P1  7948  1.00
      P1  H  7989  7998       L1    16  0.95
      P1  H 10752 10765       L1    11  0.85
      L1  C     5    26       P1 10747  0.69

> <Gold.PLP.Chemscore.Internal.Correction>
0.0591

> <Gold.Rescore>
     Score         DG    S(hbond)    S(metal)    S(lipo)     H(rot)  DE(clash)    DE(int)     intcor
     12.89     -15.12       1.71        0.00      68.14       1.58       0.56       1.68       ----

> <Gold.Chemscore.Fitness>
12.8850

> <Gold.Chemscore.DG>
-15.1221

> <Gold.Chemscore.ZeroCoef>
-5.4800

> <Gold.Chemscore.Hbond>
1.7084

> <Gold.Chemscore.Metal>
0.0000

> <Gold.Chemscore.Lipo>
68.1439

> <Gold.Chemscore.Internal_Hbond>
0.0000

> <Gold.Chemscore.DEClash>
0.5582

> <Gold.Chemscore.DEInternal>
1.6789

> <Gold.Chemscore.Rot>
1.5769

> <Gold.Chemscore.Internal.Correction>
   9.000000E+99

> <Gold.Chemscore.Hbonds>
donor molecule, donor type, donor heavy atom, donor atom, acceptor molecule, acceptor atom, score
      L1  H     9    29       P1  7948  0.43
      P1  H  7989  7998       L1    16  0.10
      P1  H 10752 10765       L1    11  0.14

> <Gold.Chemscore.Hbond.Weighted>
-5.7061

> <Gold.Chemscore.Metal.Weighted>
-0.0000

> <Gold.Chemscore.Lipo.Weighted>
-7.9728

> <Gold.Chemscore.Internal_Hbond.Weighted>
0.0000

> <Gold.Chemscore.DEClash.Weighted>
0.5582

> <Gold.Chemscore.DEInternal.Weighted>
1.6789

> <Gold.Chemscore.Rot.Weighted>
4.0369

> <Gold.Chemscore.Internal.Correction.Weighted>
   9.000000E+99

> <Gold.Protein.RotatedTorsions>
[ 6907 6896 6895 6894 ] final   50.34 input  -60.11 | X-H torsion
[ 7974 7965 7964 7962 ] final -145.49 input  175.53 | X-H torsion
[ 8008 7997 7996 7995 ] final  -23.74 input   59.86 | X-H torsion
[ 10167 10162 10161 10158 ] final    6.33 input  -65.29 | X-H torsion
[ 10718 10713 10712 10709 ] final  177.52 input   66.30 | X-H torsion
[ 10763 10752 10751 10750 ] final -142.17 input  -60.55 | X-H torsion
[ 11005 11000 10999 10996 ] final -165.11 input  -57.11 | X-H torsion

> <Gold.Protein.ActiveResidues>
 VAL166  LYS551  ARG553  GLY616  TRP617  ASP618  TYR619  PRO620  LYS621  CYS622 
 ASP623  PHE694  ASN695  SER759  ASP760  ASP761  ALA762  ILE779  LEU786  VAL792 
 PHE793  MET794  SER795  GLU796  ALA797  LYS798  CYS799  TRP800  GLU811  SER814 

> <Gold.Protein.RotatedAtoms>
  152.3007  134.7614  160.0358 H   0  0  0  0  0  0  0  0  0  0  0  0  # atno 6907 bound_to 6896
  151.8129  133.3379  159.3569 H   0  0  0  0  0  0  0  0  0  0  0  0  # atno 6908 bound_to 6896
  150.7272  134.5577  159.5870 H   0  0  0  0  0  0  0  0  0  0  0  0  # atno 6909 bound_to 6896
  144.8224  140.5577  143.5569 H   0  0  0  0  0  0  0  0  0  0  0  0  # atno 7974 bound_to 7965
  154.4568  140.1972  156.0357 H   0  0  0  0  0  0  0  0  0  0  0  0  # atno 8008 bound_to 7997
  156.0762  140.3278  155.7608 H   0  0  0  0  0  0  0  0  0  0  0  0  # atno 8009 bound_to 7997
  155.5185  140.0568  157.2902 H   0  0  0  0  0  0  0  0  0  0  0  0  # atno 8010 bound_to 7997
  140.6433  143.7721  150.7461 H   0  0  0  0  0  0  0  0  0  0  0  0  # atno 10167 bound_to 10162
  156.9041  130.9888  151.3031 H   0  0  0  0  0  0  0  0  0  0  0  0  # atno 10718 bound_to 10713
  154.8519  135.3503  154.5986 H   0  0  0  0  0  0  0  0  0  0  0  0  # atno 10763 bound_to 10752
  153.6595  135.6990  153.5187 H   0  0  0  0  0  0  0  0  0  0  0  0  # atno 10764 bound_to 10752
  153.2829  135.4258  155.1053 H   0  0  0  0  0  0  0  0  0  0  0  0  # atno 10765 bound_to 10752
  140.5793  134.5158  157.5175 H   0  0  0  0  0  0  0  0  0  0  0  0  # atno 11005 bound_to 11000
  145.5076  139.1480  143.3623 LP  0  0  0  0  0  0  0  0  0  0  0  0  # atno 17320 bound_to 7965
  146.2529  140.5216  142.8885 LP  0  0  0  0  0  0  0  0  0  0  0  0  # atno 17321 bound_to 7965
  140.1357  143.4486  152.2226 LP  0  0  0  0  0  0  0  0  0  0  0  0  # atno 17342 bound_to 10162
  139.5643  144.7425  151.4066 LP  0  0  0  0  0  0  0  0  0  0  0  0  # atno 17343 bound_to 10162
  157.6008  130.8511  149.8799 LP  0  0  0  0  0  0  0  0  0  0  0  0  # atno 17370 bound_to 10713
  156.0568  130.3707  150.1073 LP  0  0  0  0  0  0  0  0  0  0  0  0  # atno 17371 bound_to 10713
  139.9325  134.7937  156.0893 LP  0  0  0  0  0  0  0  0  0  0  0  0  # atno 17394 bound_to 11000
  141.1006  133.6678  156.2746 LP  0  0  0  0  0  0  0  0  0  0  0  0  # atno 17395 bound_to 11000

$$$$
