AV-unprocessed.smi:2061|AV-procd|sdf|8382|dock4
  -GOLD-   2272011 63D 1   1.00000     0.00000
 Structure written by MMmdl.
 45 46  0  0  0  0  0  0  0  0  3 V2000
  153.1563  142.5121  161.5958 C   0  0  0  0  0  0  0  0  0  0  0  0
  152.8448  141.8160  160.3153 C   0  0  0  0  0  0  0  0  0  0  0  0
  153.5182  140.8832  159.5789 C   0  0  0  0  0  0  0  0  0  0  0  0
  152.6484  140.6481  158.4792 C   0  0  0  0  0  0  0  0  0  0  0  0
  152.8772  139.8075  157.4586 N   0  5  0  0  0  0  0  0  0  0  0  0
  151.9555  139.6558  156.4807 C   0  0  0  0  0  0  0  0  0  0  0  0
  150.9577  140.3571  156.2975 O   0  0  0  0  0  0  0  0  0  0  0  0
  152.2015  138.6201  155.6661 N   0  0  0  0  0  0  0  0  0  0  0  0
  151.3683  138.2057  154.5415 C   0  0  0  0  0  0  0  0  0  0  0  0
  150.1084  137.4123  154.9785 C   0  0  2  0  0  0  0  0  0  0  0  0
  150.3079  135.9015  154.7047 C   0  0  0  0  0  0  0  0  0  0  0  0
  148.8893  137.9874  154.3228 N   0  3  1  0  0  0  0  0  0  0  0  0
  147.5806  137.4950  154.8337 C   0  0  0  0  0  0  0  0  0  0  0  0
  146.3990  138.1038  154.0509 C   0  0  2  0  0  0  0  0  0  0  0  0
  146.2229  137.5057  152.6434 C   0  0  0  0  0  0  0  0  0  0  0  0
  146.4942  139.5262  154.0222 O   0  0  0  0  0  0  0  0  0  0  0  0
  147.7188  140.0258  153.4965 C   0  0  1  0  0  0  0  0  0  0  0  0
  147.6570  141.5568  153.5350 C   0  0  0  0  0  0  0  0  0  0  0  0
  148.8889  139.4740  154.3286 C   0  0  0  0  0  0  0  0  0  0  0  0
  151.5525  141.3862  158.5342 N   0  0  0  0  0  0  0  0  0  0  0  0
  151.6674  142.1331  159.7126 O   0  0  0  0  0  0  0  0  0  0  0  0
  154.1794  142.8880  161.5916 H   0  0  0  0  0  0  0  0  0  0  0  0
  153.0491  141.8309  162.4398 H   0  0  0  0  0  0  0  0  0  0  0  0
  152.4872  143.3575  161.7567 H   0  0  0  0  0  0  0  0  0  0  0  0
  154.4776  140.4369  159.7933 H   0  0  0  0  0  0  0  0  0  0  0  0
  153.0317  138.0754  155.8482 H   0  0  0  0  0  0  0  0  0  0  0  0
  151.1154  139.0940  153.9639 H   0  0  0  0  0  0  0  0  0  0  0  0
  151.9815  137.5874  153.8854 H   0  0  0  0  0  0  0  0  0  0  0  0
  149.9784  137.5177  156.0568 H   0  0  0  0  0  0  0  0  0  0  0  0
  151.2154  135.5233  155.1750 H   0  0  0  0  0  0  0  0  0  0  0  0
  150.3855  135.6962  153.6366 H   0  0  0  0  0  0  0  0  0  0  0  0
  149.4950  135.3008  155.1125 H   0  0  0  0  0  0  0  0  0  0  0  0
  147.5056  136.4108  154.7565 H   0  0  0  0  0  0  0  0  0  0  0  0
  147.4938  137.7501  155.8911 H   0  0  0  0  0  0  0  0  0  0  0  0
  145.4861  137.8772  154.6026 H   0  0  0  0  0  0  0  0  0  0  0  0
  145.9979  136.4403  152.7013 H   0  0  0  0  0  0  0  0  0  0  0  0
  147.1187  137.6133  152.0324 H   0  0  0  0  0  0  0  0  0  0  0  0
  145.3981  137.9866  152.1171 H   0  0  0  0  0  0  0  0  0  0  0  0
  147.8307  139.7193  152.4563 H   0  0  0  0  0  0  0  0  0  0  0  0
  148.5720  141.9972  153.1381 H   0  0  0  0  0  0  0  0  0  0  0  0
  147.5243  141.9218  154.5539 H   0  0  0  0  0  0  0  0  0  0  0  0
  146.8241  141.9286  152.9376 H   0  0  0  0  0  0  0  0  0  0  0  0
  148.8193  139.8321  155.3574 H   0  0  0  0  0  0  0  0  0  0  0  0
  149.8199  139.8682  153.9252 H   0  0  0  0  0  0  0  0  0  0  0  0
  148.9329  137.6967  153.3566 H   0  0  0  0  0  0  0  0  0  0  0  0
  1  2  1  0  0  0  0
  1 22  1  0  0  0  0
  1 23  1  0  0  0  0
  1 24  1  0  0  0  0
  2 21  1  0  0  0  0
  2  3  2  0  0  0  0
  3  4  1  0  0  0  0
  3 25  1  0  0  0  0
  4  5  1  0  0  0  0
  4 20  2  0  0  0  0
  5  6  1  0  0  0  0
  6  7  2  0  0  0  0
  6  8  1  0  0  0  0
  8  9  1  0  0  0  0
  8 26  1  0  0  0  0
  9 10  1  0  0  0  0
  9 27  1  0  0  0  0
  9 28  1  0  0  0  0
 10 11  1  0  0  0  0
 10 12  1  0  0  0  0
 10 29  1  0  0  0  0
 11 30  1  0  0  0  0
 11 31  1  0  0  0  0
 11 32  1  0  0  0  0
 12 19  1  0  0  0  0
 12 13  1  0  0  0  0
 12 45  1  0  0  0  0
 13 14  1  0  0  0  0
 13 33  1  0  0  0  0
 13 34  1  0  0  0  0
 14 15  1  0  0  0  0
 14 16  1  0  0  0  0
 14 35  1  0  0  0  0
 15 36  1  0  0  0  0
 15 37  1  0  0  0  0
 15 38  1  0  0  0  0
 16 17  1  0  0  0  0
 17 18  1  0  0  0  0
 17 19  1  0  0  0  0
 17 39  1  0  0  0  0
 18 40  1  0  0  0  0
 18 41  1  0  0  0  0
 18 42  1  0  0  0  0
 19 43  1  0  0  0  0
 19 44  1  0  0  0  0
 20 21  1  0  0  0  0
M  CHG  1   5  -1
M  CHG  1  12   1
M  END
> <s_m_source_file>
AV-unprocessed.smi

> <i_m_source_file_index>
2061

> <i_lp_mmshare_version>
43012

> <i_f3d_flags>
0

> <s_epik_input>
W0NIM11jMVtjSF1jKG5vMSlbTkhdQyg9TylbTkhdW0NIMl1bQ0BIXShbQ0gzXSlOMltDSDJdW0NAQEhdKFtDSDNdKU9bQ0BASF0oW0NIM10pW0NIMl0y

> <s_epik_cmdline>
J2VwaWtfcHl0aG9uJywgJy1waCcsICc3LjAnLCAnLXRuJywgJzgnLCAnLW1hJywgJzIwMCcsICctbWV0YWxfYmluZGluZycsICctaW1hZScsICc8aW5maWxlLm1hZT4nLCAnLW9tYWUnLCAnPG91dGZpbGUubWFlPic=

> <r_epik_Ionization_Penalty>
6.73511

> <r_epik_Ionization_Penalty_Charging>
6.73502

> <r_epik_Ionization_Penalty_Neutral>
9.50841e-05

> <r_epik_State_Penalty>
6.93549

> <r_epik_Charging_Adjusted_Penalty>
13.6705

> <i_epik_Tot_Q>
0

> <i_epik_Tot_abs_Q>
2

> <r_epik_Metal_State_Penalty>
2.87211

> <b_epik_Metal_Only>
1

> <s_lp_Force_Field>
OPLS_2005

> <r_lp_Energy>
12.0901

> <b_lp_Chiralities_Consistent>
1

> <s_lp_Variant>
AV-unprocessed.smi:2061-23

> <Gold.Version>
5.8.1

> <Gold.Id.Protein>
6NUR|6NUR_protein|mol2

> <Gold.PLP.Fitness>
42.0178

> <Gold.PLP.PLP>
-31.8987

> <Gold.PLP.part.hbond>
-2.5424

> <Gold.PLP.part.metal>
0.0000

> <Gold.PLP.part.buried>
-2.8367

> <Gold.PLP.part.nonpolar>
-26.0133

> <Gold.PLP.part.repulsive>
0.3113

> <Gold.PLP.ligand.clash>
0.0000

> <Gold.PLP.ligand.torsion>
0.9716

> <Gold.PLP.Chemscore.Hbond>
4.0000

> <Gold.PLP.Chemscore.CHOScore>
0.0000

> <Gold.PLP.Chemscore.Metal>
0.0000

> <Gold.Chemscore.Hbonds>
donor molecule, donor type, donor heavy atom, donor atom, acceptor molecule, acceptor atom, score
      L1  H    12    45       P1  7948  1.79
      P1  H  7997  8008       L1     5  2.00

> <Gold.PLP.Chemscore.Internal.Correction>
0.0624

> <Gold.Rescore>
     Score         DG    S(hbond)    S(metal)    S(lipo)     H(rot)  DE(clash)    DE(int)     intcor
     12.93     -16.11       1.85        0.00      72.07       1.56       0.52       2.67       ----

> <Gold.Chemscore.Fitness>
12.9269

> <Gold.Chemscore.DG>
-16.1139

> <Gold.Chemscore.ZeroCoef>
-5.4800

> <Gold.Chemscore.Hbond>
1.8511

> <Gold.Chemscore.Metal>
0.0000

> <Gold.Chemscore.Lipo>
72.0688

> <Gold.Chemscore.Internal_Hbond>
0.0000

> <Gold.Chemscore.DEClash>
0.5182

> <Gold.Chemscore.DEInternal>
2.6688

> <Gold.Chemscore.Rot>
1.5550

> <Gold.Chemscore.Internal.Correction>
   9.000000E+99

> <Gold.Chemscore.Hbonds>
donor molecule, donor type, donor heavy atom, donor atom, acceptor molecule, acceptor atom, score
      L1  H    12    45       P1  7948  0.84
      P1  H  7997  8008       L1     5  0.56

> <Gold.Chemscore.Hbond.Weighted>
-6.1827

> <Gold.Chemscore.Metal.Weighted>
-0.0000

> <Gold.Chemscore.Lipo.Weighted>
-8.4321

> <Gold.Chemscore.Internal_Hbond.Weighted>
0.0000

> <Gold.Chemscore.DEClash.Weighted>
0.5182

> <Gold.Chemscore.DEInternal.Weighted>
2.6688

> <Gold.Chemscore.Rot.Weighted>
3.9809

> <Gold.Chemscore.Internal.Correction.Weighted>
   9.000000E+99

> <Gold.Protein.RotatedTorsions>
[ 6907 6896 6895 6894 ] final    8.89 input  -60.11 | X-H torsion
[ 7974 7965 7964 7962 ] final  -67.10 input  175.53 | X-H torsion
[ 8008 7997 7996 7995 ] final  -80.75 input   59.86 | X-H torsion
[ 10167 10162 10161 10158 ] final   55.31 input  -65.29 | X-H torsion
[ 10718 10713 10712 10709 ] final  -96.13 input   66.30 | X-H torsion
[ 10763 10752 10751 10750 ] final -126.45 input  -60.55 | X-H torsion
[ 11005 11000 10999 10996 ] final   10.64 input  -57.11 | X-H torsion

> <Gold.Protein.ActiveResidues>
 VAL166  LYS551  ARG553  GLY616  TRP617  ASP618  TYR619  PRO620  LYS621  CYS622 
 ASP623  PHE694  ASN695  SER759  ASP760  ASP761  ALA762  ILE779  LEU786  VAL792 
 PHE793  MET794  SER795  GLU796  ALA797  LYS798  CYS799  TRP800  GLU811  SER814 

> <Gold.Protein.RotatedAtoms>
  151.7133  135.0908  160.0271 H   0  0  0  0  0  0  0  0  0  0  0  0  # atno 6907 bound_to 6896
  152.3648  133.6338  159.6050 H   0  0  0  0  0  0  0  0  0  0  0  0  # atno 6908 bound_to 6896
  150.7630  133.9282  159.3460 H   0  0  0  0  0  0  0  0  0  0  0  0  # atno 6909 bound_to 6896
  145.7334  140.8986  143.0568 H   0  0  0  0  0  0  0  0  0  0  0  0  # atno 7974 bound_to 7965
  154.5914  140.0658  156.9244 H   0  0  0  0  0  0  0  0  0  0  0  0  # atno 8008 bound_to 7997
  155.2289  140.3336  155.4287 H   0  0  0  0  0  0  0  0  0  0  0  0  # atno 8009 bound_to 7997
  156.2258  140.1819  156.7350 H   0  0  0  0  0  0  0  0  0  0  0  0  # atno 8010 bound_to 7997
  140.2208  144.3790  150.6451 H   0  0  0  0  0  0  0  0  0  0  0  0  # atno 10167 bound_to 10162
  156.0056  130.5138  150.6180 H   0  0  0  0  0  0  0  0  0  0  0  0  # atno 10718 bound_to 10713
  154.8745  135.3995  154.3433 H   0  0  0  0  0  0  0  0  0  0  0  0  # atno 10763 bound_to 10752
  153.4229  135.7023  153.6287 H   0  0  0  0  0  0  0  0  0  0  0  0  # atno 10764 bound_to 10752
  153.4942  135.3741  155.2477 H   0  0  0  0  0  0  0  0  0  0  0  0  # atno 10765 bound_to 10752
  140.5122  134.0641  155.7821 H   0  0  0  0  0  0  0  0  0  0  0  0  # atno 11005 bound_to 11000
  144.6887  139.9362  143.7473 LP  0  0  0  0  0  0  0  0  0  0  0  0  # atno 17320 bound_to 7965
  146.0516  139.3516  143.0636 LP  0  0  0  0  0  0  0  0  0  0  0  0  # atno 17321 bound_to 7965
  140.6256  143.2181  151.6603 LP  0  0  0  0  0  0  0  0  0  0  0  0  # atno 17342 bound_to 10162
  139.5145  144.3409  152.0741 LP  0  0  0  0  0  0  0  0  0  0  0  0  # atno 17343 bound_to 10162
  157.4001  131.0808  151.1316 LP  0  0  0  0  0  0  0  0  0  0  0  0  # atno 17370 bound_to 10713
  157.1981  130.6382  149.5728 LP  0  0  0  0  0  0  0  0  0  0  0  0  # atno 17371 bound_to 10713
  141.1379  133.9189  157.2392 LP  0  0  0  0  0  0  0  0  0  0  0  0  # atno 17394 bound_to 11000
  139.9652  135.0144  156.9368 LP  0  0  0  0  0  0  0  0  0  0  0  0  # atno 17395 bound_to 11000

$$$$
