AV-unprocessed.smi:2083|AV-procd|sdf|8494|dock1
  -GOLD-   2272011203D 1   1.00000     0.00000
 Structure written by MMmdl.
 45 46  0  0  0  0  0  0  0  0  2 V2000
  151.3405  141.2852  156.1986 C   0  0  0  0  0  0  0  0  0  0  0  0
  151.4902  139.9029  155.6620 C   0  0  0  0  0  0  0  0  0  0  0  0
  150.6263  139.0500  155.0340 C   0  0  0  0  0  0  0  0  0  0  0  0
  151.4274  137.9019  154.7955 C   0  0  0  0  0  0  0  0  0  0  0  0
  150.8929  136.7630  154.1401 N   0  0  0  0  0  0  0  0  0  0  0  0
  150.2650  135.7167  154.7033 C   0  0  0  0  0  0  0  0  0  0  0  0
  150.0312  135.5914  155.9059 O   0  0  0  0  0  0  0  0  0  0  0  0
  149.9178  134.7999  153.7883 N   0  0  0  0  0  0  0  0  0  0  0  0
  149.2326  133.5476  154.0942 C   0  0  0  0  0  0  0  0  0  0  0  0
  147.7038  133.7250  154.2856 C   0  0  2  0  0  0  0  0  0  0  0  0
  147.1034  132.4751  154.9733 C   0  0  0  0  0  0  0  0  0  0  0  0
  147.0694  134.0723  152.9722 N   0  3  1  0  0  0  0  0  0  0  0  0
  147.0142  132.9814  151.9562 C   0  0  0  0  0  0  0  0  0  0  0  0
  146.4855  133.4951  150.6065 C   0  0  0  0  0  0  0  0  0  0  0  0
  145.1168  134.1693  150.7581 C   0  0  0  0  0  0  0  0  0  0  0  0
  145.1561  135.2599  151.8412 C   0  0  2  0  0  0  0  0  0  0  0  0
  145.8984  136.5294  151.3885 C   0  0  0  0  0  0  0  0  0  0  0  0
  145.7231  134.6888  153.1558 C   0  0  0  0  0  0  0  0  0  0  0  0
  152.6674  138.0400  155.2401 N   0  0  0  0  0  0  0  0  0  0  0  0
  152.7137  139.3230  155.7981 O   0  0  0  0  0  0  0  0  0  0  0  0
  150.4274  141.7504  155.8269 H   0  0  0  0  0  0  0  0  0  0  0  0
  152.1825  141.9104  155.9005 H   0  0  0  0  0  0  0  0  0  0  0  0
  151.2955  141.2732  157.2876 H   0  0  0  0  0  0  0  0  0  0  0  0
  149.5898  139.2242  154.7853 H   0  0  0  0  0  0  0  0  0  0  0  0
  151.0119  136.7389  153.1381 H   0  0  0  0  0  0  0  0  0  0  0  0
  150.1432  134.9767  152.8199 H   0  0  0  0  0  0  0  0  0  0  0  0
  149.4634  132.8287  153.3083 H   0  0  0  0  0  0  0  0  0  0  0  0
  149.6710  133.1406  155.0060 H   0  0  0  0  0  0  0  0  0  0  0  0
  147.5247  134.5614  154.9635 H   0  0  0  0  0  0  0  0  0  0  0  0
  147.6013  132.2615  155.9190 H   0  0  0  0  0  0  0  0  0  0  0  0
  147.2015  131.5871  154.3482 H   0  0  0  0  0  0  0  0  0  0  0  0
  146.0497  132.6100  155.2179 H   0  0  0  0  0  0  0  0  0  0  0  0
  148.0056  132.5700  151.7701 H   0  0  0  0  0  0  0  0  0  0  0  0
  146.3878  132.1676  152.3249 H   0  0  0  0  0  0  0  0  0  0  0  0
  147.1998  134.1981  150.1767 H   0  0  0  0  0  0  0  0  0  0  0  0
  146.4123  132.6682  149.8995 H   0  0  0  0  0  0  0  0  0  0  0  0
  144.7905  134.5860  149.8046 H   0  0  0  0  0  0  0  0  0  0  0  0
  144.3764  133.4163  151.0318 H   0  0  0  0  0  0  0  0  0  0  0  0
  144.1253  135.5604  152.0341 H   0  0  0  0  0  0  0  0  0  0  0  0
  146.9531  136.3379  151.1908 H   0  0  0  0  0  0  0  0  0  0  0  0
  145.8433  137.3064  152.1514 H   0  0  0  0  0  0  0  0  0  0  0  0
  145.4583  136.9351  150.4772 H   0  0  0  0  0  0  0  0  0  0  0  0
  145.0410  133.9319  153.5471 H   0  0  0  0  0  0  0  0  0  0  0  0
  145.7519  135.4811  153.9027 H   0  0  0  0  0  0  0  0  0  0  0  0
  147.6598  134.7841  152.5662 H   0  0  0  0  0  0  0  0  0  0  0  0
  1  2  1  0  0  0  0
  1 21  1  0  0  0  0
  1 22  1  0  0  0  0
  1 23  1  0  0  0  0
  2 20  1  0  0  0  0
  2  3  2  0  0  0  0
  3  4  1  0  0  0  0
  3 24  1  0  0  0  0
  4  5  1  0  0  0  0
  4 19  2  0  0  0  0
  5  6  1  0  0  0  0
  5 25  1  0  0  0  0
  6  7  2  0  0  0  0
  6  8  1  0  0  0  0
  8  9  1  0  0  0  0
  8 26  1  0  0  0  0
  9 10  1  0  0  0  0
  9 27  1  0  0  0  0
  9 28  1  0  0  0  0
 10 11  1  0  0  0  0
 10 12  1  0  0  0  0
 10 29  1  0  0  0  0
 11 30  1  0  0  0  0
 11 31  1  0  0  0  0
 11 32  1  0  0  0  0
 12 18  1  0  0  0  0
 12 13  1  0  0  0  0
 12 45  1  0  0  0  0
 13 14  1  0  0  0  0
 13 33  1  0  0  0  0
 13 34  1  0  0  0  0
 14 15  1  0  0  0  0
 14 35  1  0  0  0  0
 14 36  1  0  0  0  0
 15 16  1  0  0  0  0
 15 37  1  0  0  0  0
 15 38  1  0  0  0  0
 16 17  1  0  0  0  0
 16 18  1  0  0  0  0
 16 39  1  0  0  0  0
 17 40  1  0  0  0  0
 17 41  1  0  0  0  0
 17 42  1  0  0  0  0
 18 43  1  0  0  0  0
 18 44  1  0  0  0  0
 19 20  1  0  0  0  0
M  CHG  1  12   1
M  END
> <s_m_source_file>
AV-unprocessed.smi

> <i_m_source_file_index>
2083

> <i_lp_mmshare_version>
43012

> <i_f3d_flags>
0

> <s_epik_input>
W0NIM11jMVtjSF1jKG5vMSlbTkhdQyg9TylbTkhdW0NIMl1bQ0BIXShbQ0gzXSlOMltDSDJdW0NIMl1bQ0gyXVtDQEBIXShbQ0gzXSlbQ0gyXTI=

> <s_epik_cmdline>
J2VwaWtfcHl0aG9uJywgJy1waCcsICc3LjAnLCAnLXRuJywgJzgnLCAnLW1hJywgJzIwMCcsICctbWV0YWxfYmluZGluZycsICctaW1hZScsICc8aW5maWxlLm1hZT4nLCAnLW9tYWUnLCAnPG91dGZpbGUubWFlPic=

> <r_epik_Ionization_Penalty>
0.00216453

> <r_epik_Ionization_Penalty_Charging>
0.00212879

> <r_epik_Ionization_Penalty_Neutral>
3.57418e-05

> <r_epik_State_Penalty>
0.00146033

> <r_epik_Charging_Adjusted_Penalty>
0.00358912

> <i_epik_Tot_Q>
1

> <i_epik_Tot_abs_Q>
1

> <r_epik_Metal_State_Penalty>
0.0215827

> <b_epik_Metal_Only>
0

> <s_lp_Force_Field>
OPLS_2005

> <r_lp_Energy>
21.862

> <b_lp_Chiralities_Consistent>
1

> <s_lp_Variant>
AV-unprocessed.smi:2083-5

> <Gold.Version>
5.8.1

> <Gold.Id.Protein>
6NUR|6NUR_protein|mol2

> <Gold.PLP.Fitness>
41.0953

> <Gold.PLP.PLP>
-31.3102

> <Gold.PLP.part.hbond>
-6.4660

> <Gold.PLP.part.metal>
0.0000

> <Gold.PLP.part.buried>
1.2248

> <Gold.PLP.part.nonpolar>
-25.0918

> <Gold.PLP.part.repulsive>
0.2259

> <Gold.PLP.ligand.clash>
0.0000

> <Gold.PLP.ligand.torsion>
1.1459

> <Gold.PLP.Chemscore.Hbond>
4.0000

> <Gold.PLP.Chemscore.CHOScore>
0.0000

> <Gold.PLP.Chemscore.Metal>
0.0000

> <Gold.Chemscore.Hbonds>
donor molecule, donor type, donor heavy atom, donor atom, acceptor molecule, acceptor atom, score
      L1  H     5    25       P1  7949  1.00
      L1  H    12    45       P1  7948  2.00
      P1  H  7997  8008       L1    20  1.00

> <Gold.PLP.Chemscore.Internal.Correction>
0.0769

> <Gold.Rescore>
     Score         DG    S(hbond)    S(metal)    S(lipo)     H(rot)  DE(clash)    DE(int)     intcor
     13.88     -16.58       2.18        0.00      66.63       1.55       1.56       1.15       ----

> <Gold.Chemscore.Fitness>
13.8787

> <Gold.Chemscore.DG>
-16.5809

> <Gold.Chemscore.ZeroCoef>
-5.4800

> <Gold.Chemscore.Hbond>
2.1754

> <Gold.Chemscore.Metal>
0.0000

> <Gold.Chemscore.Lipo>
66.6341

> <Gold.Chemscore.Internal_Hbond>
0.0000

> <Gold.Chemscore.DEClash>
1.5571

> <Gold.Chemscore.DEInternal>
1.1452

> <Gold.Chemscore.Rot>
1.5474

> <Gold.Chemscore.Internal.Correction>
   9.000000E+99

> <Gold.Chemscore.Hbonds>
donor molecule, donor type, donor heavy atom, donor atom, acceptor molecule, acceptor atom, score
      L1  H     5    25       P1  7949  0.25
      L1  H    12    45       P1  7948  0.87
      P1  H  7997  8008       L1    20  0.98

> <Gold.Chemscore.Hbond.Weighted>
-7.2660

> <Gold.Chemscore.Metal.Weighted>
-0.0000

> <Gold.Chemscore.Lipo.Weighted>
-7.7962

> <Gold.Chemscore.Internal_Hbond.Weighted>
0.0000

> <Gold.Chemscore.DEClash.Weighted>
1.5571

> <Gold.Chemscore.DEInternal.Weighted>
1.1452

> <Gold.Chemscore.Rot.Weighted>
3.9612

> <Gold.Chemscore.Internal.Correction.Weighted>
   9.000000E+99

> <Gold.Protein.RotatedTorsions>
[ 6907 6896 6895 6894 ] final   84.80 input  -60.11 | X-H torsion
[ 7974 7965 7964 7962 ] final  -13.26 input  175.53 | X-H torsion
[ 8008 7997 7996 7995 ] final  -29.15 input   59.86 | X-H torsion
[ 10167 10162 10161 10158 ] final  155.21 input  -65.29 | X-H torsion
[ 10718 10713 10712 10709 ] final   62.26 input   66.30 | X-H torsion
[ 10763 10752 10751 10750 ] final  -43.56 input  -60.55 | X-H torsion
[ 11005 11000 10999 10996 ] final  -72.09 input  -57.11 | X-H torsion

> <Gold.Protein.ActiveResidues>
 VAL166  LYS551  ARG553  GLY616  TRP617  ASP618  TYR619  PRO620  LYS621  CYS622 
 ASP623  PHE694  ASN695  SER759  ASP760  ASP761  ALA762  ILE779  LEU786  VAL792 
 PHE793  MET794  SER795  GLU796  ALA797  LYS798  CYS799  TRP800  GLU811  SER814 

> <Gold.Protein.RotatedAtoms>
  152.5360  134.2685  159.8962 H   0  0  0  0  0  0  0  0  0  0  0  0  # atno 6907 bound_to 6896
  151.2643  133.4280  159.2625 H   0  0  0  0  0  0  0  0  0  0  0  0  # atno 6908 bound_to 6896
  151.0425  134.9631  159.8225 H   0  0  0  0  0  0  0  0  0  0  0  0  # atno 6909 bound_to 6896
  146.2121  140.3177  142.8388 H   0  0  0  0  0  0  0  0  0  0  0  0  # atno 7974 bound_to 7965
  154.4302  140.1826  156.1202 H   0  0  0  0  0  0  0  0  0  0  0  0  # atno 8008 bound_to 7997
  156.0149  140.3347  155.6953 H   0  0  0  0  0  0  0  0  0  0  0  0  # atno 8009 bound_to 7997
  155.6059  140.0645  157.2711 H   0  0  0  0  0  0  0  0  0  0  0  0  # atno 8010 bound_to 7997
  139.4821  144.5119  151.8011 H   0  0  0  0  0  0  0  0  0  0  0  0  # atno 10167 bound_to 10162
  157.5888  130.9040  149.9565 H   0  0  0  0  0  0  0  0  0  0  0  0  # atno 10718 bound_to 10713
  153.9976  135.6697  153.4757 H   0  0  0  0  0  0  0  0  0  0  0  0  # atno 10763 bound_to 10752
  153.0677  135.4992  154.8232 H   0  0  0  0  0  0  0  0  0  0  0  0  # atno 10764 bound_to 10752
  154.7072  135.3090  154.9215 H   0  0  0  0  0  0  0  0  0  0  0  0  # atno 10765 bound_to 10752
  141.1603  133.6836  156.7006 H   0  0  0  0  0  0  0  0  0  0  0  0  # atno 11005 bound_to 11000
  144.8942  140.7562  143.5907 LP  0  0  0  0  0  0  0  0  0  0  0  0  # atno 17320 bound_to 7965
  145.3100  139.1822  143.4643 LP  0  0  0  0  0  0  0  0  0  0  0  0  # atno 17321 bound_to 7965
  140.4623  144.1705  150.5907 LP  0  0  0  0  0  0  0  0  0  0  0  0  # atno 17342 bound_to 10162
  140.4471  143.2502  151.9396 LP  0  0  0  0  0  0  0  0  0  0  0  0  # atno 17343 bound_to 10162
  156.0940  130.3661  150.0342 LP  0  0  0  0  0  0  0  0  0  0  0  0  # atno 17370 bound_to 10713
  156.8468  130.9445  151.3628 LP  0  0  0  0  0  0  0  0  0  0  0  0  # atno 17371 bound_to 10713
  140.2962  134.8201  157.4058 LP  0  0  0  0  0  0  0  0  0  0  0  0  # atno 17394 bound_to 11000
  140.1303  134.5104  155.8111 LP  0  0  0  0  0  0  0  0  0  0  0  0  # atno 17395 bound_to 11000

$$$$
