AV-unprocessed.smi:157|AV-procd|sdf|1309|dock10
  -GOLD-   2262019 03D 1   1.00000     0.00000
 Structure written by MMmdl.
 36 38  0  0  0  0  0  0  0  0  2 V2000
  149.6988  138.6014  153.4204 O   0  0  0  0  0  0  0  0  0  0  0  0
  150.9177  138.0692  153.8924 C   0  0  0  0  0  0  0  0  0  0  0  0
  151.5354  139.0203  154.9277 C   0  0  1  0  0  0  0  0  0  0  0  0
  150.5822  139.3103  155.9465 O   0  0  0  0  0  0  0  0  0  0  0  0
  151.2346  139.6258  157.1415 C   0  0  2  0  0  0  0  0  0  0  0  0
  151.0692  141.0885  157.4102 N   0  0  0  0  0  0  0  0  0  0  0  0
  150.4015  141.9827  156.6495 C   0  0  0  0  0  0  0  0  0  0  0  0
  150.4189  143.2184  157.1196 N   0  3  0  0  0  0  0  0  0  0  0  0
  151.1488  143.1818  158.2888 C   0  0  0  0  0  0  0  0  0  0  0  0
  151.5525  141.8536  158.4462 C   0  0  0  0  0  0  0  0  0  0  0  0
  152.3265  141.2618  159.4562 N   0  0  0  0  0  0  0  0  0  0  0  0
  153.0362  141.9466  160.2933 C   0  0  0  0  0  0  0  0  0  0  0  0
  153.1261  143.3204  160.4445 N   0  0  0  0  0  0  0  0  0  0  0  0
  151.9676  144.1957  160.4714 C   0  0  0  0  0  0  0  0  0  0  0  0
  151.3418  144.4306  159.0906 C   0  0  1  0  0  0  0  0  0  0  0  0
  152.1075  145.4014  158.4073 O   0  0  0  0  0  0  0  0  0  0  0  0
  152.7181  139.2934  156.9526 C   0  0  0  0  0  0  0  0  0  0  0  0
  152.6826  138.4015  155.7279 C   0  0  2  0  0  0  0  0  0  0  0  0
  153.9121  138.4441  155.0333 O   0  0  0  0  0  0  0  0  0  0  0  0
  151.8695  139.9504  154.4632 H   0  0  0  0  0  0  0  0  0  0  0  0
  150.7624  139.1182  157.9835 H   0  0  0  0  0  0  0  0  0  0  0  0
  150.3594  144.8781  159.2455 H   0  0  0  0  0  0  0  0  0  0  0  0
  152.4456  137.3758  156.0150 H   0  0  0  0  0  0  0  0  0  0  0  0
  149.3639  138.0312  152.7451 H   0  0  0  0  0  0  0  0  0  0  0  0
  150.7634  137.0734  154.3088 H   0  0  0  0  0  0  0  0  0  0  0  0
  151.5830  137.9628  153.0350 H   0  0  0  0  0  0  0  0  0  0  0  0
  149.8962  141.7112  155.7401 H   0  0  0  0  0  0  0  0  0  0  0  0
  153.6661  141.4152  161.0081 H   0  0  0  0  0  0  0  0  0  0  0  0
  153.8869  143.6980  160.9915 H   0  0  0  0  0  0  0  0  0  0  0  0
  151.2243  143.7342  161.1234 H   0  0  0  0  0  0  0  0  0  0  0  0
  152.2352  145.1430  160.9408 H   0  0  0  0  0  0  0  0  0  0  0  0
  151.6227  145.6938  157.6509 H   0  0  0  0  0  0  0  0  0  0  0  0
  153.2823  140.2074  156.7556 H   0  0  0  0  0  0  0  0  0  0  0  0
  153.1298  138.8070  157.8374 H   0  0  0  0  0  0  0  0  0  0  0  0
  154.1962  137.5588  154.8639 H   0  0  0  0  0  0  0  0  0  0  0  0
  149.9745  144.0263  156.7024 H   0  0  0  0  0  0  0  0  0  0  0  0
  1  2  1  0  0  0  0
  1 24  1  0  0  0  0
  2  3  1  0  0  0  0
  2 25  1  0  0  0  0
  2 26  1  0  0  0  0
  3 20  1  0  0  0  0
  3 18  1  0  0  0  0
  3  4  1  0  0  0  0
  4  5  1  0  0  0  0
  5 21  1  0  0  0  0
  5  6  1  0  0  0  0
  5 17  1  0  0  0  0
  6 10  1  0  0  0  0
  6  7  1  0  0  0  0
  7  8  2  0  0  0  0
  7 27  1  0  0  0  0
  8  9  1  0  0  0  0
  8 36  1  0  0  0  0
  9 15  1  0  0  0  0
  9 10  2  0  0  0  0
 10 11  1  0  0  0  0
 11 12  2  0  0  0  0
 12 13  1  0  0  0  0
 12 28  1  0  0  0  0
 13 14  1  0  0  0  0
 13 29  1  0  0  0  0
 14 15  1  0  0  0  0
 14 30  1  0  0  0  0
 14 31  1  0  0  0  0
 15 22  1  0  0  0  0
 15 16  1  0  0  0  0
 16 32  1  0  0  0  0
 17 18  1  0  0  0  0
 17 33  1  0  0  0  0
 17 34  1  0  0  0  0
 18 23  1  0  0  0  0
 18 19  1  0  0  0  0
 19 35  1  0  0  0  0
M  CHG  1   8   1
M  END
> <s_m_source_file>
AV-unprocessed.smi

> <i_m_source_file_index>
157

> <i_lp_mmshare_version>
43012

> <i_f3d_flags>
0

> <s_epik_input>
W09IXVtDSDJdW0NASF0xT1tDQEhdKFtDSDJdW0NAQEhdMVtPSF0pbihbY0hdbjIpYyhjMjMpTj1bQ0hdW05IXVtDSDJdW0NASF0zW09IXQ==

> <s_epik_cmdline>
J2VwaWtfcHl0aG9uJywgJy1waCcsICc3LjAnLCAnLXRuJywgJzgnLCAnLW1hJywgJzIwMCcsICctbWV0YWxfYmluZGluZycsICctaW1hZScsICc8aW5maWxlLm1hZT4nLCAnLW9tYWUnLCAnPG91dGZpbGUubWFlPic=

> <r_epik_Ionization_Penalty>
1.68594

> <r_epik_Ionization_Penalty_Charging>
0

> <r_epik_Ionization_Penalty_Neutral>
1.68594

> <r_epik_State_Penalty>
1.79006

> <r_epik_Charging_Adjusted_Penalty>
1.79006

> <i_epik_Tot_Q>
1

> <i_epik_Tot_abs_Q>
1

> <r_epik_Metal_State_Penalty>
5.85324

> <b_epik_Metal_Only>
0

> <s_epik_Chemistry_Notes>
This compound has an imine and may undergo hydrolysis. This compound contains an acetal/aminal-like group ( X-CH(R)-Y where X, Y are N, S, or O) that may be acid/base labile, releasing an aldehyde.

> <s_lp_Force_Field>
OPLS_2005

> <r_lp_Energy>
51.4634

> <b_lp_Chiralities_Consistent>
1

> <s_lp_Variant>
AV-unprocessed.smi:157-19

> <Gold.Version>
5.8.1

> <Gold.Id.Protein>
6NUR|6NUR_protein|mol2

> <Gold.PLP.Fitness>
45.6940

> <Gold.PLP.PLP>
-35.4107

> <Gold.PLP.part.hbond>
-4.5857

> <Gold.PLP.part.metal>
0.0000

> <Gold.PLP.part.buried>
-4.6425

> <Gold.PLP.part.nonpolar>
-26.4700

> <Gold.PLP.part.repulsive>
0.0435

> <Gold.PLP.ligand.clash>
0.0000

> <Gold.PLP.ligand.torsion>
0.0588

> <Gold.PLP.Chemscore.Hbond>
3.4608

> <Gold.PLP.Chemscore.CHOScore>
0.0000

> <Gold.PLP.Chemscore.Metal>
0.0000

> <Gold.Chemscore.Hbonds>
donor molecule, donor type, donor heavy atom, donor atom, acceptor molecule, acceptor atom, score
      L1  H     1    24       P1  7948  1.00
      L1  H     8    36       P1  8028  2.00
      P1  H  7997  8008       L1    19  0.26

> <Gold.PLP.Chemscore.Internal.Correction>
0.0185

> <Gold.Rescore>
     Score         DG    S(hbond)    S(metal)    S(lipo)     H(rot)  DE(clash)    DE(int)     intcor
      9.27      -9.41       1.97        0.00      57.48       3.67       0.03       0.10       ----

> <Gold.Chemscore.Fitness>
9.2734

> <Gold.Chemscore.DG>
-9.4079

> <Gold.Chemscore.ZeroCoef>
-5.4800

> <Gold.Chemscore.Hbond>
1.9723

> <Gold.Chemscore.Metal>
0.0000

> <Gold.Chemscore.Lipo>
57.4819

> <Gold.Chemscore.Internal_Hbond>
0.0000

> <Gold.Chemscore.DEClash>
0.0299

> <Gold.Chemscore.DEInternal>
0.1046

> <Gold.Chemscore.Rot>
3.6659

> <Gold.Chemscore.Internal.Correction>
   9.000000E+99

> <Gold.Chemscore.Hbonds>
donor molecule, donor type, donor heavy atom, donor atom, acceptor molecule, acceptor atom, score
      L1  H     1    24       P1  7948  0.86
      L1  H     8    36       P1  8028  0.96
      P1  H  7997  8008       L1    19  0.01

> <Gold.Chemscore.Hbond.Weighted>
-6.5874

> <Gold.Chemscore.Metal.Weighted>
-0.0000

> <Gold.Chemscore.Lipo.Weighted>
-6.7254

> <Gold.Chemscore.Internal_Hbond.Weighted>
0.0000

> <Gold.Chemscore.DEClash.Weighted>
0.0299

> <Gold.Chemscore.DEInternal.Weighted>
0.1046

> <Gold.Chemscore.Rot.Weighted>
9.3848

> <Gold.Chemscore.Internal.Correction.Weighted>
   9.000000E+99

> <Gold.Protein.RotatedTorsions>
[ 6907 6896 6895 6894 ] final -124.06 input  -60.11 | X-H torsion
[ 7974 7965 7964 7962 ] final  125.52 input  175.53 | X-H torsion
[ 8008 7997 7996 7995 ] final  -29.10 input   59.86 | X-H torsion
[ 10167 10162 10161 10158 ] final  -71.05 input  -65.29 | X-H torsion
[ 10718 10713 10712 10709 ] final  -64.00 input   66.30 | X-H torsion
[ 10763 10752 10751 10750 ] final   36.96 input  -60.55 | X-H torsion
[ 11005 11000 10999 10996 ] final -155.87 input  -57.11 | X-H torsion

> <Gold.Protein.ActiveResidues>
 VAL166  LYS551  ARG553  GLY616  TRP617  ASP618  TYR619  PRO620  LYS621  CYS622 
 ASP623  PHE694  ASN695  SER759  ASP760  ASP761  ALA762  ILE779  LEU786  VAL792 
 PHE793  MET794  SER795  GLU796  ALA797  LYS798  CYS799  TRP800  GLU811  SER814 

> <Gold.Protein.RotatedAtoms>
  150.8731  133.7477  159.2954 H   0  0  0  0  0  0  0  0  0  0  0  0  # atno 6907 bound_to 6896
  151.5082  135.1062  159.9856 H   0  0  0  0  0  0  0  0  0  0  0  0  # atno 6908 bound_to 6896
  152.4709  133.7982  159.6994 H   0  0  0  0  0  0  0  0  0  0  0  0  # atno 6909 bound_to 6896
  145.0720  139.3722  143.4952 H   0  0  0  0  0  0  0  0  0  0  0  0  # atno 7974 bound_to 7965
  154.4304  140.1827  156.1194 H   0  0  0  0  0  0  0  0  0  0  0  0  # atno 8008 bound_to 7997
  156.0155  140.3346  155.6959 H   0  0  0  0  0  0  0  0  0  0  0  0  # atno 8009 bound_to 7997
  155.6050  140.0644  157.2713 H   0  0  0  0  0  0  0  0  0  0  0  0  # atno 8010 bound_to 7997
  140.5304  143.2322  151.7272 H   0  0  0  0  0  0  0  0  0  0  0  0  # atno 10167 bound_to 10162
  156.0756  130.4228  150.1357 H   0  0  0  0  0  0  0  0  0  0  0  0  # atno 10718 bound_to 10713
  153.0056  135.6291  154.2069 H   0  0  0  0  0  0  0  0  0  0  0  0  # atno 10763 bound_to 10752
  154.1812  135.2813  155.3053 H   0  0  0  0  0  0  0  0  0  0  0  0  # atno 10764 bound_to 10752
  154.5833  135.5640  153.7266 H   0  0  0  0  0  0  0  0  0  0  0  0  # atno 10765 bound_to 10752
  140.6817  134.4137  157.5226 H   0  0  0  0  0  0  0  0  0  0  0  0  # atno 11005 bound_to 11000
  146.3529  140.0470  142.8638 LP  0  0  0  0  0  0  0  0  0  0  0  0  # atno 17320 bound_to 7965
  145.1281  140.9501  143.4561 LP  0  0  0  0  0  0  0  0  0  0  0  0  # atno 17321 bound_to 7965
  139.4952  144.4122  152.0068 LP  0  0  0  0  0  0  0  0  0  0  0  0  # atno 17342 bound_to 10162
  140.3224  144.3412  150.6006 LP  0  0  0  0  0  0  0  0  0  0  0  0  # atno 17343 bound_to 10162
  156.9399  130.9741  151.3518 LP  0  0  0  0  0  0  0  0  0  0  0  0  # atno 17370 bound_to 10713
  157.5849  130.8403  149.8576 LP  0  0  0  0  0  0  0  0  0  0  0  0  # atno 17371 bound_to 10713
  139.8949  134.8694  156.2153 LP  0  0  0  0  0  0  0  0  0  0  0  0  # atno 17394 bound_to 11000
  141.0312  133.6988  156.1433 LP  0  0  0  0  0  0  0  0  0  0  0  0  # atno 17395 bound_to 11000

$$$$
