AV-unprocessed.smi:2697|AV-procd|sdf|10415|dock5
  -GOLD-   2272014453D 1   1.00000     0.00000
 Structure written by MMmdl.
 32 33  0  0  0  0  0  0  0  0  2 V2000
  144.6342  132.5483  150.1914 C   0  0  0  0  0  0  0  0  0  0  0  0
  144.2513  133.6251  151.0791 N   0  0  0  0  0  0  0  0  0  0  0  0
  143.2841  133.6227  152.0616 C   0  0  0  0  0  0  0  0  0  0  0  0
  143.3175  134.8695  152.6146 C   0  0  0  0  0  0  0  0  0  0  0  0
  142.4889  135.3441  153.7709 C   0  0  0  0  0  0  0  0  0  0  0  0
  141.8809  134.3866  154.4763 N   0  0  0  0  0  0  0  0  0  0  0  0
  142.3553  136.5399  154.0215 O   0  0  0  0  0  0  0  0  0  0  0  0
  144.3378  135.5880  151.9233 C   0  0  0  0  0  0  0  0  0  0  0  0
  144.8360  137.0037  152.1080 C   0  0  2  0  0  0  0  0  0  0  0  0
  146.0520  137.3147  151.2132 C   0  0  0  0  0  0  0  0  0  0  0  0
  146.5268  138.7587  151.4394 C   0  0  0  0  0  0  0  0  0  0  0  0
  146.8026  139.0206  152.9298 C   0  0  0  0  0  0  0  0  0  0  0  0
  145.6100  138.7077  153.7474 N   0  3  0  0  0  0  0  0  0  0  0  0
  145.1473  137.3117  153.5863 C   0  0  0  0  0  0  0  0  0  0  0  0
  144.8951  134.8137  150.9980 N   0  0  0  0  0  0  0  0  0  0  0  0
  143.9187  131.7289  150.2665 H   0  0  0  0  0  0  0  0  0  0  0  0
  145.6236  132.1812  150.4650 H   0  0  0  0  0  0  0  0  0  0  0  0
  144.6560  132.9050  149.1610 H   0  0  0  0  0  0  0  0  0  0  0  0
  142.6806  132.7541  152.2812 H   0  0  0  0  0  0  0  0  0  0  0  0
  141.3073  134.6308  155.2703 H   0  0  0  0  0  0  0  0  0  0  0  0
  141.9989  133.4188  154.2129 H   0  0  0  0  0  0  0  0  0  0  0  0
  144.0518  137.6931  151.7991 H   0  0  0  0  0  0  0  0  0  0  0  0
  146.8698  136.6278  151.4355 H   0  0  0  0  0  0  0  0  0  0  0  0
  145.7963  137.1669  150.1634 H   0  0  0  0  0  0  0  0  0  0  0  0
  147.4263  138.9514  150.8537 H   0  0  0  0  0  0  0  0  0  0  0  0
  145.7681  139.4546  151.0788 H   0  0  0  0  0  0  0  0  0  0  0  0
  147.6423  138.4153  153.2736 H   0  0  0  0  0  0  0  0  0  0  0  0
  147.0761  140.0643  153.0859 H   0  0  0  0  0  0  0  0  0  0  0  0
  145.8257  138.8709  154.7205 H   0  0  0  0  0  0  0  0  0  0  0  0
  144.2582  137.1635  154.1998 H   0  0  0  0  0  0  0  0  0  0  0  0
  145.9153  136.6375  153.9684 H   0  0  0  0  0  0  0  0  0  0  0  0
  144.8605  139.3264  153.4714 H   0  0  0  0  0  0  0  0  0  0  0  0
  1  2  1  0  0  0  0
  1 16  1  0  0  0  0
  1 17  1  0  0  0  0
  1 18  1  0  0  0  0
  2 15  1  0  0  0  0
  2  3  1  0  0  0  0
  3  4  2  0  0  0  0
  3 19  1  0  0  0  0
  4  5  1  0  0  0  0
  4  8  1  0  0  0  0
  5  6  1  0  0  0  0
  5  7  2  0  0  0  0
  6 20  1  0  0  0  0
  6 21  1  0  0  0  0
  8  9  1  0  0  0  0
  8 15  2  0  0  0  0
  9 14  1  0  0  0  0
  9 10  1  0  0  0  0
  9 22  1  0  0  0  0
 10 11  1  0  0  0  0
 10 23  1  0  0  0  0
 10 24  1  0  0  0  0
 11 12  1  0  0  0  0
 11 25  1  0  0  0  0
 11 26  1  0  0  0  0
 12 13  1  0  0  0  0
 12 27  1  0  0  0  0
 12 28  1  0  0  0  0
 13 14  1  0  0  0  0
 13 29  1  0  0  0  0
 13 32  1  0  0  0  0
 14 30  1  0  0  0  0
 14 31  1  0  0  0  0
M  CHG  1  13   1
M  END
> <s_m_source_file>
AV-unprocessed.smi

> <i_m_source_file_index>
2697

> <i_lp_mmshare_version>
43012

> <i_f3d_flags>
0

> <s_epik_input>
W0NIM11uMVtjSF1jKEMoPU8pW05IMl0pYyhuMSlbQ0BASF0yW0NIMl1bQ0gyXVtDSDJdW05IXVtDSDJdMg==

> <s_epik_cmdline>
J2VwaWtfcHl0aG9uJywgJy1waCcsICc3LjAnLCAnLXRuJywgJzgnLCAnLW1hJywgJzIwMCcsICctbWV0YWxfYmluZGluZycsICctaW1hZScsICc8aW5maWxlLm1hZT4nLCAnLW9tYWUnLCAnPG91dGZpbGUubWFlPic=

> <r_lp_tautomer_probability>
1

> <r_epik_Ionization_Penalty>
0.000158942

> <r_epik_Ionization_Penalty_Charging>
0.000157527

> <r_epik_Ionization_Penalty_Neutral>
1.41498e-06

> <r_epik_State_Penalty>
-0

> <r_epik_Charging_Adjusted_Penalty>
0.000157527

> <i_epik_Tot_Q>
1

> <i_epik_Tot_abs_Q>
1

> <r_epik_Metal_State_Penalty>
-0

> <b_epik_Metal_Only>
0

> <s_lp_Force_Field>
OPLS_2005

> <r_lp_Energy>
9.94433

> <b_lp_Chiralities_Consistent>
1

> <s_lp_Variant>
AV-unprocessed.smi:2697-1

> <Gold.Version>
5.8.1

> <Gold.Id.Protein>
6NUR|6NUR_protein|mol2

> <Gold.PLP.Fitness>
37.7504

> <Gold.PLP.PLP>
-24.9587

> <Gold.PLP.part.hbond>
-3.0000

> <Gold.PLP.part.metal>
0.0000

> <Gold.PLP.part.buried>
1.8447

> <Gold.PLP.part.nonpolar>
-25.4634

> <Gold.PLP.part.repulsive>
0.3071

> <Gold.PLP.ligand.clash>
0.0000

> <Gold.PLP.ligand.torsion>
0.2549

> <Gold.PLP.Chemscore.Hbond>
3.9600

> <Gold.PLP.Chemscore.CHOScore>
0.4625

> <Gold.PLP.Chemscore.Metal>
0.0000

> <Gold.Chemscore.Hbonds>
donor molecule, donor type, donor heavy atom, donor atom, acceptor molecule, acceptor atom, score
      L1  H     6    20       P1 11000  0.99
      L1  H     6    21       P1 10957  0.90
      L1  H    13    32       P1 10175  2.00
      L1  C     3    19       P1 10957  0.33

> <Gold.PLP.Chemscore.Internal.Correction>
0.0341

> <Gold.Rescore>
     Score         DG    S(hbond)    S(metal)    S(lipo)     H(rot)  DE(clash)    DE(int)     intcor
     17.37     -19.07       2.78        0.00      58.80       1.00       1.29       0.41       ----

> <Gold.Chemscore.Fitness>
17.3703

> <Gold.Chemscore.DG>
-19.0711

> <Gold.Chemscore.ZeroCoef>
-5.4800

> <Gold.Chemscore.Hbond>
2.7758

> <Gold.Chemscore.Metal>
0.0000

> <Gold.Chemscore.Lipo>
58.8032

> <Gold.Chemscore.Internal_Hbond>
0.0000

> <Gold.Chemscore.DEClash>
1.2893

> <Gold.Chemscore.DEInternal>
0.4115

> <Gold.Chemscore.Rot>
1.0000

> <Gold.Chemscore.Internal.Correction>
   9.000000E+99

> <Gold.Chemscore.Hbonds>
donor molecule, donor type, donor heavy atom, donor atom, acceptor molecule, acceptor atom, score
      L1  H     6    20       P1 11000  0.61
      L1  H     6    21       P1 10957  0.86
      L1  H    13    32       P1 10175  0.99

> <Gold.Chemscore.Hbond.Weighted>
-9.2711

> <Gold.Chemscore.Metal.Weighted>
-0.0000

> <Gold.Chemscore.Lipo.Weighted>
-6.8800

> <Gold.Chemscore.Internal_Hbond.Weighted>
0.0000

> <Gold.Chemscore.DEClash.Weighted>
1.2893

> <Gold.Chemscore.DEInternal.Weighted>
0.4115

> <Gold.Chemscore.Rot.Weighted>
2.5600

> <Gold.Chemscore.Internal.Correction.Weighted>
   9.000000E+99

> <Gold.Protein.RotatedTorsions>
[ 6907 6896 6895 6894 ] final   61.27 input  -60.11 | X-H torsion
[ 7974 7965 7964 7962 ] final  -47.45 input  175.53 | X-H torsion
[ 8008 7997 7996 7995 ] final  -19.46 input   59.86 | X-H torsion
[ 10167 10162 10161 10158 ] final  -85.69 input  -65.29 | X-H torsion
[ 10718 10713 10712 10709 ] final -135.22 input   66.30 | X-H torsion
[ 10763 10752 10751 10750 ] final -132.91 input  -60.55 | X-H torsion
[ 11005 11000 10999 10996 ] final  155.76 input  -57.11 | X-H torsion

> <Gold.Protein.ActiveResidues>
 VAL166  LYS551  ARG553  GLY616  TRP617  ASP618  TYR619  PRO620  LYS621  CYS622 
 ASP623  PHE694  ASN695  SER759  ASP760  ASP761  ALA762  ILE779  LEU786  VAL792 
 PHE793  MET794  SER795  GLU796  ALA797  LYS798  CYS799  TRP800  GLU811  SER814 

> <Gold.Protein.RotatedAtoms>
  152.4074  134.6183  160.0043 H   0  0  0  0  0  0  0  0  0  0  0  0  # atno 6907 bound_to 6896
  151.6370  133.3322  159.3129 H   0  0  0  0  0  0  0  0  0  0  0  0  # atno 6908 bound_to 6896
  150.7968  134.7074  159.6629 H   0  0  0  0  0  0  0  0  0  0  0  0  # atno 6909 bound_to 6896
  145.9615  140.7475  142.9455 H   0  0  0  0  0  0  0  0  0  0  0  0  # atno 7974 bound_to 7965
  154.4835  140.2088  155.9709 H   0  0  0  0  0  0  0  0  0  0  0  0  # atno 8008 bound_to 7997
  156.1201  140.3215  155.8165 H   0  0  0  0  0  0  0  0  0  0  0  0  # atno 8009 bound_to 7997
  155.4483  140.0515  157.2994 H   0  0  0  0  0  0  0  0  0  0  0  0  # atno 8010 bound_to 7997
  140.4013  143.2661  151.9139 H   0  0  0  0  0  0  0  0  0  0  0  0  # atno 10167 bound_to 10162
  156.2639  130.7226  151.1169 H   0  0  0  0  0  0  0  0  0  0  0  0  # atno 10718 bound_to 10713
  154.8738  135.3782  154.4487 H   0  0  0  0  0  0  0  0  0  0  0  0  # atno 10763 bound_to 10752
  153.5165  135.7029  153.5758 H   0  0  0  0  0  0  0  0  0  0  0  0  # atno 10764 bound_to 10752
  153.4024  135.3945  155.1962 H   0  0  0  0  0  0  0  0  0  0  0  0  # atno 10765 bound_to 10752
  140.1611  134.8609  157.2575 H   0  0  0  0  0  0  0  0  0  0  0  0  # atno 11005 bound_to 11000
  144.6816  140.2598  143.7320 LP  0  0  0  0  0  0  0  0  0  0  0  0  # atno 17320 bound_to 7965
  145.8033  139.1973  143.2035 LP  0  0  0  0  0  0  0  0  0  0  0  0  # atno 17321 bound_to 7965
  139.4784  144.5631  151.8208 LP  0  0  0  0  0  0  0  0  0  0  0  0  # atno 17342 bound_to 10162
  140.4737  144.1550  150.5921 LP  0  0  0  0  0  0  0  0  0  0  0  0  # atno 17343 bound_to 10162
  157.7260  131.0649  150.5927 LP  0  0  0  0  0  0  0  0  0  0  0  0  # atno 17370 bound_to 10713
  156.6017  130.4356  149.5894 LP  0  0  0  0  0  0  0  0  0  0  0  0  # atno 17371 bound_to 10713
  140.2489  134.3707  155.7450 LP  0  0  0  0  0  0  0  0  0  0  0  0  # atno 17394 bound_to 11000
  141.2209  133.7305  156.8904 LP  0  0  0  0  0  0  0  0  0  0  0  0  # atno 17395 bound_to 11000

$$$$
