AV-unprocessed.smi:1106|AV-procd|sdf|4778|dock4
  -GOLD-   22720 3313D 1   1.00000     0.00000
 Structure written by MMmdl.
 48 49  0  0  0  0  0  0  0  0  2 V2000
  152.3956  141.9041  159.3472 C   0  0  0  0  0  0  0  0  0  0  0  0
  151.9695  141.4907  157.9307 C   0  0  0  0  0  0  0  0  0  0  0  0
  152.1284  140.0809  157.6858 N   0  0  0  0  0  0  0  0  0  0  0  0
  152.6655  139.2354  158.6370 C   0  0  0  0  0  0  0  0  0  0  0  0
  152.8290  137.9107  158.4311 C   0  0  0  0  0  0  0  0  0  0  0  0
  153.3785  137.0583  159.4328 C   0  0  0  0  0  0  0  0  0  0  0  0
  153.8064  136.3511  160.2426 N   0  0  0  0  0  0  0  0  0  0  0  0
  152.4438  137.2896  157.1658 C   0  0  0  0  0  0  0  0  0  0  0  0
  152.5446  136.0822  156.9369 O   0  0  0  0  0  0  0  0  0  0  0  0
  151.9186  138.1899  156.2044 N   0  0  0  0  0  0  0  0  0  0  0  0
  151.5008  137.6403  154.9245 C   0  0  0  0  0  0  0  0  0  0  0  0
  150.1821  136.8407  155.0076 C   0  0  1  0  0  0  0  0  0  0  0  0
  149.2990  137.3262  154.0154 O   0  0  0  0  0  0  0  0  0  0  0  0
  150.4097  135.3442  154.7168 C   0  0  0  0  0  0  0  0  0  0  0  0
  149.1846  134.6840  154.1989 N   0  3  2  0  0  0  0  0  0  0  0  0
  148.0116  134.8406  155.0988 C   0  0  0  0  0  0  0  0  0  0  0  0
  146.7380  134.2717  154.4518 C   0  0  0  0  0  0  0  0  0  0  0  0
  146.9222  132.7959  154.0582 C   0  0  1  0  0  0  0  0  0  0  0  0
  145.6667  132.2280  153.3816 C   0  0  0  0  0  0  0  0  0  0  0  0
  148.1652  132.6609  153.1621 C   0  0  0  0  0  0  0  0  0  0  0  0
  149.4094  133.2614  153.8380 C   0  0  0  0  0  0  0  0  0  0  0  0
  151.7328  139.5758  156.4252 C   0  0  0  0  0  0  0  0  0  0  0  0
  151.2419  140.3113  155.5645 O   0  0  0  0  0  0  0  0  0  0  0  0
  152.2234  142.9686  159.5047 H   0  0  0  0  0  0  0  0  0  0  0  0
  153.4547  141.7129  159.5211 H   0  0  0  0  0  0  0  0  0  0  0  0
  151.8283  141.3602  160.1030 H   0  0  0  0  0  0  0  0  0  0  0  0
  150.9122  141.7057  157.7696 H   0  0  0  0  0  0  0  0  0  0  0  0
  152.5185  142.0251  157.1533 H   0  0  0  0  0  0  0  0  0  0  0  0
  152.9660  139.6505  159.5888 H   0  0  0  0  0  0  0  0  0  0  0  0
  151.4616  138.4425  154.1854 H   0  0  0  0  0  0  0  0  0  0  0  0
  152.3236  137.0093  154.5838 H   0  0  0  0  0  0  0  0  0  0  0  0
  149.7257  136.9707  155.9885 H   0  0  0  0  0  0  0  0  0  0  0  0
  149.0609  136.6099  153.4456 H   0  0  0  0  0  0  0  0  0  0  0  0
  151.2240  135.2500  153.9962 H   0  0  0  0  0  0  0  0  0  0  0  0
  150.7424  134.8224  155.6156 H   0  0  0  0  0  0  0  0  0  0  0  0
  148.2075  134.3339  156.0450 H   0  0  0  0  0  0  0  0  0  0  0  0
  147.8516  135.8923  155.3341 H   0  0  0  0  0  0  0  0  0  0  0  0
  145.9007  134.3718  155.1431 H   0  0  0  0  0  0  0  0  0  0  0  0
  146.4833  134.8626  153.5707 H   0  0  0  0  0  0  0  0  0  0  0  0
  147.0966  132.2202  154.9683 H   0  0  0  0  0  0  0  0  0  0  0  0
  145.4327  132.7655  152.4622 H   0  0  0  0  0  0  0  0  0  0  0  0
  144.8000  132.3009  154.0393 H   0  0  0  0  0  0  0  0  0  0  0  0
  145.7985  131.1757  153.1275 H   0  0  0  0  0  0  0  0  0  0  0  0
  148.3466  131.6113  152.9280 H   0  0  0  0  0  0  0  0  0  0  0  0
  147.9914  133.1635  152.2094 H   0  0  0  0  0  0  0  0  0  0  0  0
  150.2567  133.1831  153.1556 H   0  0  0  0  0  0  0  0  0  0  0  0
  149.6672  132.6927  154.7329 H   0  0  0  0  0  0  0  0  0  0  0  0
  148.9611  135.1567  153.3342 H   0  0  0  0  0  0  0  0  0  0  0  0
  1  2  1  0  0  0  0
  1 24  1  0  0  0  0
  1 25  1  0  0  0  0
  1 26  1  0  0  0  0
  2  3  1  0  0  0  0
  2 27  1  0  0  0  0
  2 28  1  0  0  0  0
  3 22  1  0  0  0  0
  3  4  1  0  0  0  0
  4  5  2  0  0  0  0
  4 29  1  0  0  0  0
  5  6  1  0  0  0  0
  5  8  1  0  0  0  0
  6  7  3  0  0  0  0
  8  9  2  0  0  0  0
  8 10  1  0  0  0  0
 10 11  1  0  0  0  0
 10 22  1  0  0  0  0
 11 12  1  0  0  0  0
 11 30  1  0  0  0  0
 11 31  1  0  0  0  0
 12 13  1  0  0  0  0
 12 14  1  0  0  0  0
 12 32  1  0  0  0  0
 13 33  1  0  0  0  0
 14 15  1  0  0  0  0
 14 34  1  0  0  0  0
 14 35  1  0  0  0  0
 15 21  1  0  0  0  0
 15 16  1  0  0  0  0
 15 48  1  0  0  0  0
 16 17  1  0  0  0  0
 16 36  1  0  0  0  0
 16 37  1  0  0  0  0
 17 18  1  0  0  0  0
 17 38  1  0  0  0  0
 17 39  1  0  0  0  0
 18 19  1  0  0  0  0
 18 20  1  0  0  0  0
 18 40  1  0  0  0  0
 19 41  1  0  0  0  0
 19 42  1  0  0  0  0
 19 43  1  0  0  0  0
 20 21  1  0  0  0  0
 20 44  1  0  0  0  0
 20 45  1  0  0  0  0
 21 46  1  0  0  0  0
 21 47  1  0  0  0  0
 22 23  2  0  0  0  0
M  CHG  1  15   1
M  END
> <s_m_source_file>
AV-unprocessed.smi

> <i_m_source_file_index>
1106

> <i_lp_mmshare_version>
43012

> <i_f3d_flags>
0

> <s_epik_input>
W0NIM11bQ0gyXW4xW2NIXWMoQyNOKWMoPU8pbihjMT1PKVtDSDJdW0NASF0oW09IXSlbQ0gyXU4yW0NIMl1bQ0gyXVtDSF0oW0NIM10pW0NIMl1bQ0gyXTI=

> <s_epik_cmdline>
J2VwaWtfcHl0aG9uJywgJy1waCcsICc3LjAnLCAnLXRuJywgJzgnLCAnLW1hJywgJzIwMCcsICctbWV0YWxfYmluZGluZycsICctaW1hZScsICc8aW5maWxlLm1hZT4nLCAnLW9tYWUnLCAnPG91dGZpbGUubWFlPic=

> <r_epik_Ionization_Penalty>
0.00136816

> <r_epik_Ionization_Penalty_Charging>
0.00136813

> <r_epik_Ionization_Penalty_Neutral>
3.19882e-08

> <r_epik_State_Penalty>
0.000910892

> <r_epik_Charging_Adjusted_Penalty>
0.00227902

> <i_epik_Tot_Q>
1

> <i_epik_Tot_abs_Q>
1

> <r_epik_Metal_State_Penalty>
-0

> <b_epik_Metal_Only>
0

> <s_lp_Force_Field>
OPLS_2005

> <r_lp_Energy>
28.6797

> <b_lp_Chiralities_Consistent>
1

> <s_lp_Variant>
AV-unprocessed.smi:1106-2

> <Gold.Version>
5.8.1

> <Gold.Id.Protein>
6NUR|6NUR_protein|mol2

> <Gold.PLP.Fitness>
45.6606

> <Gold.PLP.PLP>
-31.4972

> <Gold.PLP.part.hbond>
-4.2025

> <Gold.PLP.part.metal>
0.0000

> <Gold.PLP.part.buried>
-3.5251

> <Gold.PLP.part.nonpolar>
-23.9301

> <Gold.PLP.part.repulsive>
0.0348

> <Gold.PLP.ligand.clash>
0.0000

> <Gold.PLP.ligand.torsion>
1.1876

> <Gold.PLP.Chemscore.Hbond>
5.4867

> <Gold.PLP.Chemscore.CHOScore>
0.0000

> <Gold.PLP.Chemscore.Metal>
0.0000

> <Gold.Chemscore.Hbonds>
donor molecule, donor type, donor heavy atom, donor atom, acceptor molecule, acceptor atom, score
      L1  H    13    33       P1  7948  0.82
      L1  H    15    48       P1  7948  2.00
      P1  H  6896  6909       L1     7  0.57
      P1  H  7989  7998       L1    23  0.62
      P1  H 10752 10765       L1     9  1.00

> <Gold.PLP.Chemscore.Internal.Correction>
0.0785

> <Gold.Rescore>
     Score         DG    S(hbond)    S(metal)    S(lipo)     H(rot)  DE(clash)    DE(int)     intcor
     18.16     -19.38       3.65        0.00      68.84       2.48       0.07       1.16       ----

> <Gold.Chemscore.Fitness>
18.1577

> <Gold.Chemscore.DG>
-19.3824

> <Gold.Chemscore.ZeroCoef>
-5.4800

> <Gold.Chemscore.Hbond>
3.6547

> <Gold.Chemscore.Metal>
0.0000

> <Gold.Chemscore.Lipo>
68.8390

> <Gold.Chemscore.Internal_Hbond>
0.0000

> <Gold.Chemscore.DEClash>
0.0693

> <Gold.Chemscore.DEInternal>
1.1554

> <Gold.Chemscore.Rot>
2.4838

> <Gold.Chemscore.Internal.Correction>
   9.000000E+99

> <Gold.Chemscore.Hbonds>
donor molecule, donor type, donor heavy atom, donor atom, acceptor molecule, acceptor atom, score
      L1  H    13    33       P1  7948  0.80
      L1  H    15    48       P1  7948  0.40
      P1  H  6896  6909       L1     7  0.07
      P1  H  7989  7998       L1    23  0.60
      P1  H 10752 10765       L1     9  0.95

> <Gold.Chemscore.Hbond.Weighted>
-12.2067

> <Gold.Chemscore.Metal.Weighted>
-0.0000

> <Gold.Chemscore.Lipo.Weighted>
-8.0542

> <Gold.Chemscore.Internal_Hbond.Weighted>
0.0000

> <Gold.Chemscore.DEClash.Weighted>
0.0693

> <Gold.Chemscore.DEInternal.Weighted>
1.1554

> <Gold.Chemscore.Rot.Weighted>
6.3585

> <Gold.Chemscore.Internal.Correction.Weighted>
   9.000000E+99

> <Gold.Protein.RotatedTorsions>
[ 6907 6896 6895 6894 ] final  163.32 input  -60.11 | X-H torsion
[ 7974 7965 7964 7962 ] final   85.36 input  175.53 | X-H torsion
[ 8008 7997 7996 7995 ] final  -84.97 input   59.86 | X-H torsion
[ 10167 10162 10161 10158 ] final   54.87 input  -65.29 | X-H torsion
[ 10718 10713 10712 10709 ] final -111.61 input   66.30 | X-H torsion
[ 10763 10752 10751 10750 ] final -129.77 input  -60.55 | X-H torsion
[ 11005 11000 10999 10996 ] final -140.64 input  -57.11 | X-H torsion

> <Gold.Protein.ActiveResidues>
 VAL166  LYS551  ARG553  GLY616  TRP617  ASP618  TYR619  PRO620  LYS621  CYS622 
 ASP623  PHE694  ASN695  SER759  ASP760  ASP761  ALA762  ILE779  LEU786  VAL792 
 PHE793  MET794  SER795  GLU796  ALA797  LYS798  CYS799  TRP800  GLU811  SER814 

> <Gold.Protein.RotatedAtoms>
  151.9269  133.3600  159.3916 H   0  0  0  0  0  0  0  0  0  0  0  0  # atno 6907 bound_to 6896
  150.7025  134.4577  159.5375 H   0  0  0  0  0  0  0  0  0  0  0  0  # atno 6908 bound_to 6896
  152.2211  134.8412  160.0536 H   0  0  0  0  0  0  0  0  0  0  0  0  # atno 6909 bound_to 6896
  145.5865  139.2332  143.2323 H   0  0  0  0  0  0  0  0  0  0  0  0  # atno 7974 bound_to 7965
  154.6356  140.0598  156.9784 H   0  0  0  0  0  0  0  0  0  0  0  0  # atno 8008 bound_to 7997
  155.1597  140.3281  155.4395 H   0  0  0  0  0  0  0  0  0  0  0  0  # atno 8009 bound_to 7997
  156.2505  140.1933  156.6705 H   0  0  0  0  0  0  0  0  0  0  0  0  # atno 8010 bound_to 7997
  140.2255  144.3743  150.6434 H   0  0  0  0  0  0  0  0  0  0  0  0  # atno 10167 bound_to 10162
  156.0657  130.5876  150.8397 H   0  0  0  0  0  0  0  0  0  0  0  0  # atno 10718 bound_to 10713
  154.8757  135.3884  154.3974 H   0  0  0  0  0  0  0  0  0  0  0  0  # atno 10763 bound_to 10752
  153.4703  135.7030  153.6003 H   0  0  0  0  0  0  0  0  0  0  0  0  # atno 10764 bound_to 10752
  153.4463  135.3844  155.2225 H   0  0  0  0  0  0  0  0  0  0  0  0  # atno 10765 bound_to 10752
  140.8403  134.2410  157.4813 H   0  0  0  0  0  0  0  0  0  0  0  0  # atno 11005 bound_to 11000
  146.1678  140.6691  142.9247 LP  0  0  0  0  0  0  0  0  0  0  0  0  # atno 17320 bound_to 7965
  144.7370  140.4837  143.6896 LP  0  0  0  0  0  0  0  0  0  0  0  0  # atno 17321 bound_to 7965
  140.6224  143.2177  151.6667 LP  0  0  0  0  0  0  0  0  0  0  0  0  # atno 17342 bound_to 10162
  139.5129  144.3462  152.0695 LP  0  0  0  0  0  0  0  0  0  0  0  0  # atno 17343 bound_to 10162
  157.5697  131.0946  150.9437 LP  0  0  0  0  0  0  0  0  0  0  0  0  # atno 17370 bound_to 10713
  156.9656  130.5471  149.5288 LP  0  0  0  0  0  0  0  0  0  0  0  0  # atno 17371 bound_to 10713
  139.8703  134.9632  156.4453 LP  0  0  0  0  0  0  0  0  0  0  0  0  # atno 17394 bound_to 11000
  140.8902  133.7853  155.9564 LP  0  0  0  0  0  0  0  0  0  0  0  0  # atno 17395 bound_to 11000

$$$$
