AV-unprocessed.smi:1033|AV-procd|sdf|4511|dock9
  -GOLD-   22720 2523D 1   1.00000     0.00000
 Structure written by MMmdl.
 57 59  0  0  0  0  0  0  0  0  3 V2000
  153.1941  142.9756  162.8785 C   0  0  0  0  0  0  0  0  0  0  0  0
  152.8957  142.3947  161.5073 C   0  0  0  0  0  0  0  0  0  0  0  0
  153.3201  141.0799  161.2109 C   0  0  0  0  0  0  0  0  0  0  0  0
  153.0615  140.5024  159.9489 C   0  0  0  0  0  0  0  0  0  0  0  0
  153.3843  139.2526  159.4486 N   0  0  0  0  0  0  0  0  0  0  0  0
  152.8780  139.3152  158.2210 C   0  0  0  0  0  0  0  0  0  0  0  0
  152.2741  140.4642  157.8613 N   0  0  0  0  0  0  0  0  0  0  0  0
  151.6687  140.7646  156.5770 C   0  0  0  0  0  0  0  0  0  0  0  0
  150.5008  141.7637  156.6954 C   0  0  1  0  0  0  0  0  0  0  0  0
  151.0093  143.0553  156.4305 O   0  0  0  0  0  0  0  0  0  0  0  0
  149.3388  141.4757  155.7183 C   0  0  0  0  0  0  0  0  0  0  0  0
  148.0858  142.1804  156.0932 N   0  3  2  0  0  0  0  0  0  0  0  0
  147.5861  141.8230  157.4468 C   0  0  0  0  0  0  0  0  0  0  0  0
  146.3179  142.6237  157.8093 C   0  0  0  0  0  0  0  0  0  0  0  0
  145.2553  142.4982  156.7767 N   0  3  2  0  0  0  0  0  0  0  0  0
  144.5024  141.2148  156.8090 C   0  0  0  0  0  0  0  0  0  0  0  0
  143.5024  141.0919  155.6428 C   0  0  2  0  0  0  0  0  0  0  0  0
  142.1089  140.6624  156.1193 C   0  0  0  0  0  0  0  0  0  0  0  0
  143.9752  140.1232  154.7292 O   0  0  0  0  0  0  0  0  0  0  0  0
  145.7758  142.8481  155.4315 C   0  0  0  0  0  0  0  0  0  0  0  0
  147.0239  142.0217  155.0688 C   0  0  0  0  0  0  0  0  0  0  0  0
  152.3629  141.2835  158.9823 C   0  0  0  0  0  0  0  0  0  0  0  0
  151.9349  142.5930  159.2652 C   0  0  0  0  0  0  0  0  0  0  0  0
  152.2001  143.1539  160.5321 C   0  0  0  0  0  0  0  0  0  0  0  0
  151.7301  144.5667  160.8304 C   0  0  0  0  0  0  0  0  0  0  0  0
  153.7199  142.2580  163.5093 H   0  0  0  0  0  0  0  0  0  0  0  0
  152.2701  143.2526  163.3862 H   0  0  0  0  0  0  0  0  0  0  0  0
  153.8204  143.8636  162.7894 H   0  0  0  0  0  0  0  0  0  0  0  0
  153.8495  140.5013  161.9541 H   0  0  0  0  0  0  0  0  0  0  0  0
  152.9570  138.4804  157.5397 H   0  0  0  0  0  0  0  0  0  0  0  0
  152.4439  141.1643  155.9213 H   0  0  0  0  0  0  0  0  0  0  0  0
  151.3312  139.8311  156.1248 H   0  0  0  0  0  0  0  0  0  0  0  0
  150.1427  141.7499  157.7244 H   0  0  0  0  0  0  0  0  0  0  0  0
  150.2920  143.6715  156.4348 H   0  0  0  0  0  0  0  0  0  0  0  0
  149.6492  141.7812  154.7178 H   0  0  0  0  0  0  0  0  0  0  0  0
  149.1305  140.4071  155.6570 H   0  0  0  0  0  0  0  0  0  0  0  0
  147.3867  140.7516  157.4916 H   0  0  0  0  0  0  0  0  0  0  0  0
  148.3507  142.0238  158.1960 H   0  0  0  0  0  0  0  0  0  0  0  0
  145.9487  142.3242  158.7895 H   0  0  0  0  0  0  0  0  0  0  0  0
  146.5767  143.6798  157.8979 H   0  0  0  0  0  0  0  0  0  0  0  0
  145.1998  140.3773  156.7519 H   0  0  0  0  0  0  0  0  0  0  0  0
  143.9867  141.1083  157.7634 H   0  0  0  0  0  0  0  0  0  0  0  0
  143.4073  142.0403  155.1151 H   0  0  0  0  0  0  0  0  0  0  0  0
  141.6900  141.3931  156.8118 H   0  0  0  0  0  0  0  0  0  0  0  0
  142.1401  139.6999  156.6312 H   0  0  0  0  0  0  0  0  0  0  0  0
  141.4169  140.5713  155.2813 H   0  0  0  0  0  0  0  0  0  0  0  0
  143.9735  140.4963  153.8604 H   0  0  0  0  0  0  0  0  0  0  0  0
  144.9982  142.7247  154.6768 H   0  0  0  0  0  0  0  0  0  0  0  0
  146.0316  143.9085  155.4291 H   0  0  0  0  0  0  0  0  0  0  0  0
  147.3988  142.3501  154.0987 H   0  0  0  0  0  0  0  0  0  0  0  0
  146.7673  140.9660  154.9667 H   0  0  0  0  0  0  0  0  0  0  0  0
  151.4052  143.1612  158.5151 H   0  0  0  0  0  0  0  0  0  0  0  0
  151.2415  145.0153  159.9650 H   0  0  0  0  0  0  0  0  0  0  0  0
  152.5729  145.2014  161.1048 H   0  0  0  0  0  0  0  0  0  0  0  0
  151.0155  144.5642  161.6538 H   0  0  0  0  0  0  0  0  0  0  0  0
  144.5622  143.2024  156.9916 H   0  0  0  0  0  0  0  0  0  0  0  0
  148.3149  143.1646  156.1121 H   0  0  0  0  0  0  0  0  0  0  0  0
  1  2  1  0  0  0  0
  1 26  1  0  0  0  0
  1 27  1  0  0  0  0
  1 28  1  0  0  0  0
  2 24  1  0  0  0  0
  2  3  2  0  0  0  0
  3  4  1  0  0  0  0
  3 29  1  0  0  0  0
  4 22  2  0  0  0  0
  4  5  1  0  0  0  0
  5  6  2  0  0  0  0
  6  7  1  0  0  0  0
  6 30  1  0  0  0  0
  7  8  1  0  0  0  0
  7 22  1  0  0  0  0
  8  9  1  0  0  0  0
  8 31  1  0  0  0  0
  8 32  1  0  0  0  0
  9 10  1  0  0  0  0
  9 11  1  0  0  0  0
  9 33  1  0  0  0  0
 10 34  1  0  0  0  0
 11 12  1  0  0  0  0
 11 35  1  0  0  0  0
 11 36  1  0  0  0  0
 12 21  1  0  0  0  0
 12 13  1  0  0  0  0
 12 57  1  0  0  0  0
 13 14  1  0  0  0  0
 13 37  1  0  0  0  0
 13 38  1  0  0  0  0
 14 15  1  0  0  0  0
 14 39  1  0  0  0  0
 14 40  1  0  0  0  0
 15 16  1  0  0  0  0
 15 20  1  0  0  0  0
 15 56  1  0  0  0  0
 16 17  1  0  0  0  0
 16 41  1  0  0  0  0
 16 42  1  0  0  0  0
 17 18  1  0  0  0  0
 17 19  1  0  0  0  0
 17 43  1  0  0  0  0
 18 44  1  0  0  0  0
 18 45  1  0  0  0  0
 18 46  1  0  0  0  0
 19 47  1  0  0  0  0
 20 21  1  0  0  0  0
 20 48  1  0  0  0  0
 20 49  1  0  0  0  0
 21 50  1  0  0  0  0
 21 51  1  0  0  0  0
 22 23  1  0  0  0  0
 23 24  2  0  0  0  0
 23 52  1  0  0  0  0
 24 25  1  0  0  0  0
 25 53  1  0  0  0  0
 25 54  1  0  0  0  0
 25 55  1  0  0  0  0
M  CHG  1  12   1
M  CHG  1  15   1
M  END
> <s_m_source_file>
AV-unprocessed.smi

> <i_m_source_file_index>
1033

> <i_lp_mmshare_version>
43012

> <i_f3d_flags>
0

> <s_epik_input>
W0NIM11jKFtjSF0xKWMoW0NIM10pW2NIXWMoYzEyKW4oW2NIXW4yKVtDSDJdW0NASF0oW09IXSlbQ0gyXU4zW0NIMl1bQ0gyXU4oW0NIMl1bQ0gyXTMpW0NIMl1bQ0BIXShbQ0gzXSlbT0hd

> <s_epik_cmdline>
J2VwaWtfcHl0aG9uJywgJy1waCcsICc3LjAnLCAnLXRuJywgJzgnLCAnLW1hJywgJzIwMCcsICctbWV0YWxfYmluZGluZycsICctaW1hZScsICc8aW5maWxlLm1hZT4nLCAnLW9tYWUnLCAnPG91dGZpbGUubWFlPic=

> <r_epik_Ionization_Penalty>
3.16016

> <r_epik_Ionization_Penalty_Charging>
3.07679

> <r_epik_Ionization_Penalty_Neutral>
0.083365

> <r_epik_State_Penalty>
2.09701

> <r_epik_Charging_Adjusted_Penalty>
5.1738

> <i_epik_Tot_Q>
2

> <i_epik_Tot_abs_Q>
2

> <r_epik_Metal_State_Penalty>
2.02534

> <b_epik_Metal_Only>
0

> <s_lp_Force_Field>
OPLS_2005

> <r_lp_Energy>
29.7714

> <b_lp_Chiralities_Consistent>
1

> <s_lp_Variant>
AV-unprocessed.smi:1033-22

> <Gold.Version>
5.8.1

> <Gold.Id.Protein>
6NUR|6NUR_protein|mol2

> <Gold.PLP.Fitness>
53.8245

> <Gold.PLP.PLP>
-45.1587

> <Gold.PLP.part.hbond>
-2.9916

> <Gold.PLP.part.metal>
0.0000

> <Gold.PLP.part.buried>
-5.8364

> <Gold.PLP.part.nonpolar>
-35.4477

> <Gold.PLP.part.repulsive>
0.0329

> <Gold.PLP.ligand.clash>
0.0000

> <Gold.PLP.ligand.torsion>
1.7497

> <Gold.PLP.Chemscore.Hbond>
4.0000

> <Gold.PLP.Chemscore.CHOScore>
0.0000

> <Gold.PLP.Chemscore.Metal>
0.0000

> <Gold.Chemscore.Hbonds>
donor molecule, donor type, donor heavy atom, donor atom, acceptor molecule, acceptor atom, score
      L1  H    10    34       P1  8028  1.00
      L1  H    12    57       P1  8028  2.00
      L1  H    19    47       P1 10175  0.65

> <Gold.PLP.Chemscore.Internal.Correction>
0.1651

> <Gold.Rescore>
     Score         DG    S(hbond)    S(metal)    S(lipo)     H(rot)  DE(clash)    DE(int)     intcor
     17.22     -19.84       2.78        0.00     112.11       3.14       0.05       2.58       ----

> <Gold.Chemscore.Fitness>
17.2163

> <Gold.Chemscore.DG>
-19.8444

> <Gold.Chemscore.ZeroCoef>
-5.4800

> <Gold.Chemscore.Hbond>
2.7785

> <Gold.Chemscore.Metal>
0.0000

> <Gold.Chemscore.Lipo>
112.1143

> <Gold.Chemscore.Internal_Hbond>
0.0000

> <Gold.Chemscore.DEClash>
0.0516

> <Gold.Chemscore.DEInternal>
2.5765

> <Gold.Chemscore.Rot>
3.1380

> <Gold.Chemscore.Internal.Correction>
   9.000000E+99

> <Gold.Chemscore.Hbonds>
donor molecule, donor type, donor heavy atom, donor atom, acceptor molecule, acceptor atom, score
      L1  H    10    34       P1  8028  0.98
      L1  H    12    57       P1  8028  0.78
      L1  H    19    47       P1 10175  0.63

> <Gold.Chemscore.Hbond.Weighted>
-9.2802

> <Gold.Chemscore.Metal.Weighted>
-0.0000

> <Gold.Chemscore.Lipo.Weighted>
-13.1174

> <Gold.Chemscore.Internal_Hbond.Weighted>
0.0000

> <Gold.Chemscore.DEClash.Weighted>
0.0516

> <Gold.Chemscore.DEInternal.Weighted>
2.5765

> <Gold.Chemscore.Rot.Weighted>
8.0332

> <Gold.Chemscore.Internal.Correction.Weighted>
   9.000000E+99

> <Gold.Protein.RotatedTorsions>
[ 6907 6896 6895 6894 ] final   62.94 input  -60.11 | X-H torsion
[ 7974 7965 7964 7962 ] final  -51.61 input  175.53 | X-H torsion
[ 8008 7997 7996 7995 ] final  176.28 input   59.86 | X-H torsion
[ 10167 10162 10161 10158 ] final  -71.45 input  -65.29 | X-H torsion
[ 10718 10713 10712 10709 ] final  -72.52 input   66.30 | X-H torsion
[ 10763 10752 10751 10750 ] final  173.84 input  -60.55 | X-H torsion
[ 11005 11000 10999 10996 ] final  104.55 input  -57.11 | X-H torsion

> <Gold.Protein.ActiveResidues>
 VAL166  LYS551  ARG553  GLY616  TRP617  ASP618  TYR619  PRO620  LYS621  CYS622 
 ASP623  PHE694  ASN695  SER759  ASP760  ASP761  ALA762  ILE779  LEU786  VAL792 
 PHE793  MET794  SER795  GLU796  ALA797  LYS798  CYS799  TRP800  GLU811  SER814 

> <Gold.Protein.RotatedAtoms>
  152.4213  134.5949  159.9984 H   0  0  0  0  0  0  0  0  0  0  0  0  # atno 6907 bound_to 6896
  151.6098  133.3342  159.3073 H   0  0  0  0  0  0  0  0  0  0  0  0  # atno 6908 bound_to 6896
  150.8101  134.7289  159.6746 H   0  0  0  0  0  0  0  0  0  0  0  0  # atno 6909 bound_to 6896
  145.9170  140.7866  142.9666 H   0  0  0  0  0  0  0  0  0  0  0  0  # atno 7974 bound_to 7965
  156.0781  140.1387  156.9746 H   0  0  0  0  0  0  0  0  0  0  0  0  # atno 8008 bound_to 7997
  154.4569  140.0958  156.6833 H   0  0  0  0  0  0  0  0  0  0  0  0  # atno 8009 bound_to 7997
  155.5120  140.3454  155.4392 H   0  0  0  0  0  0  0  0  0  0  0  0  # atno 8010 bound_to 7997
  140.5272  143.2325  151.7327 H   0  0  0  0  0  0  0  0  0  0  0  0  # atno 10167 bound_to 10162
  156.0317  130.4374  150.2606 H   0  0  0  0  0  0  0  0  0  0  0  0  # atno 10718 bound_to 10713
  154.4456  135.2763  155.1817 H   0  0  0  0  0  0  0  0  0  0  0  0  # atno 10763 bound_to 10752
  154.3665  135.6118  153.5721 H   0  0  0  0  0  0  0  0  0  0  0  0  # atno 10764 bound_to 10752
  152.9843  135.5847  154.4791 H   0  0  0  0  0  0  0  0  0  0  0  0  # atno 10765 bound_to 10752
  139.8793  134.9304  156.5379 H   0  0  0  0  0  0  0  0  0  0  0  0  # atno 11005 bound_to 11000
  144.6749  140.1916  143.7396 LP  0  0  0  0  0  0  0  0  0  0  0  0  # atno 17320 bound_to 7965
  145.8598  139.2217  143.1723 LP  0  0  0  0  0  0  0  0  0  0  0  0  # atno 17321 bound_to 7965
  139.4942  144.4168  152.0021 LP  0  0  0  0  0  0  0  0  0  0  0  0  # atno 17342 bound_to 10162
  140.3268  144.3363  150.5996 LP  0  0  0  0  0  0  0  0  0  0  0  0  # atno 17343 bound_to 10162
  157.0707  131.0116  151.3191 LP  0  0  0  0  0  0  0  0  0  0  0  0  # atno 17370 bound_to 10713
  157.5001  130.7875  149.7596 LP  0  0  0  0  0  0  0  0  0  0  0  0  # atno 17371 bound_to 10713
  140.8332  133.8262  155.9004 LP  0  0  0  0  0  0  0  0  0  0  0  0  # atno 17394 bound_to 11000
  140.9308  134.2024  157.4865 LP  0  0  0  0  0  0  0  0  0  0  0  0  # atno 17395 bound_to 11000

$$$$
