AV-unprocessed.smi:49|AV-procd|sdf|483|dock7
  -GOLD-   2262016343D 1   1.00000     0.00000
 Structure written by MMmdl.
 27 28  0  0  0  0  0  0  0  0  3 V2000
  153.1008  142.4567  161.1446 C   0  0  0  0  0  0  0  0  0  0  0  0
  153.5516  141.2711  160.2855 C   0  0  0  0  0  0  0  0  0  0  0  0
  152.6321  141.0388  159.1066 C   0  0  0  0  0  0  0  0  0  0  0  0
  151.5357  141.7356  158.8246 N   0  0  0  0  0  0  0  0  0  0  0  0
  151.0616  141.2251  157.6805 C   0  0  0  0  0  0  0  0  0  0  0  0
  149.7890  141.6939  157.0017 C   0  0  2  0  0  0  0  0  0  0  0  0
  148.7513  140.5695  156.8703 C   0  0  0  0  0  0  0  0  0  0  0  0
  148.9391  140.0677  155.4416 C   0  0  1  0  0  0  0  0  0  0  0  0
  147.7760  139.4454  154.9381 O   0  0  0  0  0  0  0  0  0  0  0  0
  149.2877  141.3465  154.6814 C   0  0  0  0  0  0  0  0  0  0  0  0
  150.0755  142.1582  155.6271 N   0  3  0  0  0  0  0  0  0  0  0  0
  151.8394  140.2174  157.2525 N   0  0  0  0  0  0  0  0  0  0  0  0
  152.8111  140.1258  158.1357 N   0  5  0  0  0  0  0  0  0  0  0  0
  149.3760  142.5208  157.5806 H   0  0  0  0  0  0  0  0  0  0  0  0
  149.7765  139.3695  155.4006 H   0  0  0  0  0  0  0  0  0  0  0  0
  153.7758  142.6053  161.9875 H   0  0  0  0  0  0  0  0  0  0  0  0
  152.0992  142.2937  161.5431 H   0  0  0  0  0  0  0  0  0  0  0  0
  153.0845  143.3787  160.5627 H   0  0  0  0  0  0  0  0  0  0  0  0
  154.5629  141.4422  159.9150 H   0  0  0  0  0  0  0  0  0  0  0  0
  153.5870  140.3644  160.8900 H   0  0  0  0  0  0  0  0  0  0  0  0
  148.8536  139.7885  157.6252 H   0  0  0  0  0  0  0  0  0  0  0  0
  147.7526  140.9971  156.9747 H   0  0  0  0  0  0  0  0  0  0  0  0
  147.8750  138.5090  155.0230 H   0  0  0  0  0  0  0  0  0  0  0  0
  149.8344  141.1559  153.7577 H   0  0  0  0  0  0  0  0  0  0  0  0
  148.3825  141.9022  154.4317 H   0  0  0  0  0  0  0  0  0  0  0  0
  149.8611  143.1394  155.5242 H   0  0  0  0  0  0  0  0  0  0  0  0
  151.0589  142.0045  155.4531 H   0  0  0  0  0  0  0  0  0  0  0  0
  1  2  1  0  0  0  0
  1 16  1  0  0  0  0
  1 17  1  0  0  0  0
  1 18  1  0  0  0  0
  2  3  1  0  0  0  0
  2 19  1  0  0  0  0
  2 20  1  0  0  0  0
  3 13  1  0  0  0  0
  3  4  2  0  0  0  0
  4  5  1  0  0  0  0
  5  6  1  0  0  0  0
  5 12  2  0  0  0  0
  6 14  1  0  0  0  0
  6 11  1  0  0  0  0
  6  7  1  0  0  0  0
  7  8  1  0  0  0  0
  7 21  1  0  0  0  0
  7 22  1  0  0  0  0
  8 15  1  0  0  0  0
  8  9  1  0  0  0  0
  8 10  1  0  0  0  0
  9 23  1  0  0  0  0
 10 11  1  0  0  0  0
 10 24  1  0  0  0  0
 10 25  1  0  0  0  0
 11 26  1  0  0  0  0
 11 27  1  0  0  0  0
 12 13  1  0  0  0  0
M  CHG  1  11   1
M  CHG  1  13  -1
M  END
> <s_m_source_file>
AV-unprocessed.smi

> <i_m_source_file_index>
49

> <i_lp_mmshare_version>
43012

> <i_f3d_flags>
0

> <s_epik_input>
W0NIM11bQ0gyXWMxbmMobltuSF0xKVtDQEBIXTJbQ0gyXVtDQEBIXShbT0hdKVtDSDJdW05IXTI=

> <s_epik_cmdline>
J2VwaWtfcHl0aG9uJywgJy1waCcsICc3LjAnLCAnLXRuJywgJzgnLCAnLW1hJywgJzIwMCcsICctbWV0YWxfYmluZGluZycsICctaW1hZScsICc8aW5maWxlLm1hZT4nLCAnLW9tYWUnLCAnPG91dGZpbGUubWFlPic=

> <r_lp_tautomer_probability>
0.948284

> <r_epik_Ionization_Penalty>
3.22013

> <r_epik_Ionization_Penalty_Charging>
3.22013

> <r_epik_Ionization_Penalty_Neutral>
3.9133e-08

> <r_epik_State_Penalty>
2.79459

> <r_epik_Charging_Adjusted_Penalty>
6.01472

> <i_epik_Tot_Q>
0

> <i_epik_Tot_abs_Q>
2

> <r_epik_Metal_State_Penalty>
0.589377

> <b_epik_Metal_Only>
1

> <s_lp_Force_Field>
OPLS_2005

> <r_lp_Energy>
10.361

> <b_lp_Chiralities_Consistent>
1

> <s_lp_Variant>
AV-unprocessed.smi:49-21

> <Gold.Version>
5.8.1

> <Gold.Id.Protein>
6NUR|6NUR_protein|mol2

> <Gold.PLP.Fitness>
33.0261

> <Gold.PLP.PLP>
-21.0413

> <Gold.PLP.part.hbond>
-2.0000

> <Gold.PLP.part.metal>
0.0000

> <Gold.PLP.part.buried>
-3.1167

> <Gold.PLP.part.nonpolar>
-16.0165

> <Gold.PLP.part.repulsive>
0.1740

> <Gold.PLP.ligand.clash>
0.0000

> <Gold.PLP.ligand.torsion>
0.0140

> <Gold.PLP.Chemscore.Hbond>
4.0000

> <Gold.PLP.Chemscore.CHOScore>
0.0000

> <Gold.PLP.Chemscore.Metal>
0.0000

> <Gold.Chemscore.Hbonds>
donor molecule, donor type, donor heavy atom, donor atom, acceptor molecule, acceptor atom, score
      L1  H    11    26       P1  8028  2.00
      P1  H  7997  8009       L1    13  1.72

> <Gold.PLP.Chemscore.Internal.Correction>
0.0130

> <Gold.Rescore>
     Score         DG    S(hbond)    S(metal)    S(lipo)     H(rot)  DE(clash)    DE(int)     intcor
     11.70     -11.77       1.86        0.00      41.40       1.86       0.04       0.04       ----

> <Gold.Chemscore.Fitness>
11.6977

> <Gold.Chemscore.DG>
-11.7702

> <Gold.Chemscore.ZeroCoef>
-5.4800

> <Gold.Chemscore.Hbond>
1.8561

> <Gold.Chemscore.Metal>
0.0000

> <Gold.Chemscore.Lipo>
41.4013

> <Gold.Chemscore.Internal_Hbond>
0.0000

> <Gold.Chemscore.DEClash>
0.0373

> <Gold.Chemscore.DEInternal>
0.0352

> <Gold.Chemscore.Rot>
1.8567

> <Gold.Chemscore.Internal.Correction>
   9.000000E+99

> <Gold.Chemscore.Hbonds>
donor molecule, donor type, donor heavy atom, donor atom, acceptor molecule, acceptor atom, score
      L1  H    11    26       P1  8028  0.99
      P1  H  7997  8009       L1    13  0.24

> <Gold.Chemscore.Hbond.Weighted>
-6.1994

> <Gold.Chemscore.Metal.Weighted>
-0.0000

> <Gold.Chemscore.Lipo.Weighted>
-4.8440

> <Gold.Chemscore.Internal_Hbond.Weighted>
0.0000

> <Gold.Chemscore.DEClash.Weighted>
0.0373

> <Gold.Chemscore.DEInternal.Weighted>
0.0352

> <Gold.Chemscore.Rot.Weighted>
4.7531

> <Gold.Chemscore.Internal.Correction.Weighted>
   9.000000E+99

> <Gold.Protein.RotatedTorsions>
[ 6907 6896 6895 6894 ] final  105.27 input  -60.11 | X-H torsion
[ 7974 7965 7964 7962 ] final   76.56 input  175.53 | X-H torsion
[ 8008 7997 7996 7995 ] final  166.02 input   59.86 | X-H torsion
[ 10167 10162 10161 10158 ] final  -54.32 input  -65.29 | X-H torsion
[ 10718 10713 10712 10709 ] final  148.69 input   66.30 | X-H torsion
[ 10763 10752 10751 10750 ] final   40.08 input  -60.55 | X-H torsion
[ 11005 11000 10999 10996 ] final  -95.84 input  -57.11 | X-H torsion

> <Gold.Protein.ActiveResidues>
 VAL166  LYS551  ARG553  GLY616  TRP617  ASP618  TYR619  PRO620  LYS621  CYS622 
 ASP623  PHE694  ASN695  SER759  ASP760  ASP761  ALA762  ILE779  LEU786  VAL792 
 PHE793  MET794  SER795  GLU796  ALA797  LYS798  CYS799  TRP800  GLU811  SER814 

> <Gold.Protein.RotatedAtoms>
  152.5236  133.9553  159.7690 H   0  0  0  0  0  0  0  0  0  0  0  0  # atno 6907 bound_to 6896
  150.9854  133.6194  159.2723 H   0  0  0  0  0  0  0  0  0  0  0  0  # atno 6908 bound_to 6896
  151.3357  135.0858  159.9407 H   0  0  0  0  0  0  0  0  0  0  0  0  # atno 6909 bound_to 6896
  145.7012  139.2583  143.1704 H   0  0  0  0  0  0  0  0  0  0  0  0  # atno 7974 bound_to 7965
  156.1753  140.1654  156.8374 H   0  0  0  0  0  0  0  0  0  0  0  0  # atno 8008 bound_to 7997
  154.5300  140.0759  156.8361 H   0  0  0  0  0  0  0  0  0  0  0  0  # atno 8009 bound_to 7997
  155.3427  140.3385  155.4241 H   0  0  0  0  0  0  0  0  0  0  0  0  # atno 8010 bound_to 7997
  140.6437  143.2522  151.4919 H   0  0  0  0  0  0  0  0  0  0  0  0  # atno 10167 bound_to 10162
  157.3055  131.0878  151.1357 H   0  0  0  0  0  0  0  0  0  0  0  0  # atno 10718 bound_to 10713
  152.9947  135.6202  154.2569 H   0  0  0  0  0  0  0  0  0  0  0  0  # atno 10763 bound_to 10752
  154.2306  135.2792  155.2893 H   0  0  0  0  0  0  0  0  0  0  0  0  # atno 10764 bound_to 10752
  154.5453  135.5749  153.6932 H   0  0  0  0  0  0  0  0  0  0  0  0  # atno 10765 bound_to 10752
  141.1430  133.8055  157.0490 H   0  0  0  0  0  0  0  0  0  0  0  0  # atno 11005 bound_to 11000
  146.0796  140.7779  142.9648 LP  0  0  0  0  0  0  0  0  0  0  0  0  # atno 17320 bound_to 7965
  144.6968  140.3468  143.7189 LP  0  0  0  0  0  0  0  0  0  0  0  0  # atno 17321 bound_to 7965
  139.5647  144.2072  152.1746 LP  0  0  0  0  0  0  0  0  0  0  0  0  # atno 17342 bound_to 10162
  140.1350  144.5254  150.6779 LP  0  0  0  0  0  0  0  0  0  0  0  0  # atno 17343 bound_to 10162
  157.2700  130.6699  149.6015 LP  0  0  0  0  0  0  0  0  0  0  0  0  # atno 17370 bound_to 10713
  155.9674  130.4482  150.5610 LP  0  0  0  0  0  0  0  0  0  0  0  0  # atno 17371 bound_to 10713
  140.0644  134.9737  157.1360 LP  0  0  0  0  0  0  0  0  0  0  0  0  # atno 17394 bound_to 11000
  140.3801  134.2296  155.7171 LP  0  0  0  0  0  0  0  0  0  0  0  0  # atno 17395 bound_to 11000

$$$$
