AV-unprocessed.smi:2104|AV-procd|sdf|8587|dock5
  -GOLD-   2272011323D 1   1.00000     0.00000
 Structure written by MMmdl.
 42 43  0  0  0  0  0  0  0  0  2 V2000
  145.4248  145.1817  162.3496 C   0  0  0  0  0  0  0  0  0  0  0  0
  145.8537  144.4409  161.1296 C   0  0  0  0  0  0  0  0  0  0  0  0
  146.4702  144.8330  159.9758 C   0  0  0  0  0  0  0  0  0  0  0  0
  146.5919  143.6205  159.2439 C   0  0  0  0  0  0  0  0  0  0  0  0
  147.1313  143.4916  158.0221 N   0  5  0  0  0  0  0  0  0  0  0  0
  147.8324  142.3798  157.7003 C   0  0  0  0  0  0  0  0  0  0  0  0
  147.9301  141.3546  158.3786 O   0  0  0  0  0  0  0  0  0  0  0  0
  148.4640  142.4632  156.5224 N   0  0  0  0  0  0  0  0  0  0  0  0
  149.3177  141.4329  155.9433 C   0  0  0  0  0  0  0  0  0  0  0  0
  150.5287  141.1747  156.8457 C   0  0  0  0  0  0  0  0  0  0  0  0
  150.8212  142.3682  157.5573 O   0  0  0  0  0  0  0  0  0  0  0  0
  151.9958  142.3155  158.3554 C   0  0  2  0  0  0  0  0  0  0  0  0
  151.9515  141.0658  159.2594 C   0  0  0  0  0  0  0  0  0  0  0  0
  153.1246  141.0432  160.2503 C   0  0  0  0  0  0  0  0  0  0  0  0
  153.1607  142.3273  161.0907 C   0  0  0  0  0  0  0  0  0  0  0  0
  153.2194  143.5720  160.1924 C   0  0  0  0  0  0  0  0  0  0  0  0
  152.0448  143.6122  159.1946 C   0  0  1  0  0  0  0  0  0  0  0  0
  152.1304  144.8622  158.3027 C   0  0  0  0  0  0  0  0  0  0  0  0
  146.0771  142.5867  159.8886 N   0  0  0  0  0  0  0  0  0  0  0  0
  145.6086  143.1033  161.1028 O   0  0  0  0  0  0  0  0  0  0  0  0
  145.0299  146.1632  162.0866 H   0  0  0  0  0  0  0  0  0  0  0  0
  146.2662  145.3257  163.0272 H   0  0  0  0  0  0  0  0  0  0  0  0
  144.6467  144.6380  162.8855 H   0  0  0  0  0  0  0  0  0  0  0  0
  146.7891  145.8266  159.6994 H   0  0  0  0  0  0  0  0  0  0  0  0
  148.3630  143.3207  155.9997 H   0  0  0  0  0  0  0  0  0  0  0  0
  148.7589  140.5065  155.8015 H   0  0  0  0  0  0  0  0  0  0  0  0
  149.6490  141.7649  154.9588 H   0  0  0  0  0  0  0  0  0  0  0  0
  150.3058  140.3653  157.5411 H   0  0  0  0  0  0  0  0  0  0  0  0
  151.3837  140.8643  156.2430 H   0  0  0  0  0  0  0  0  0  0  0  0
  152.8850  142.2805  157.7226 H   0  0  0  0  0  0  0  0  0  0  0  0
  151.0110  141.0485  159.8115 H   0  0  0  0  0  0  0  0  0  0  0  0
  151.9718  140.1578  158.6570 H   0  0  0  0  0  0  0  0  0  0  0  0
  153.0437  140.1736  160.9032 H   0  0  0  0  0  0  0  0  0  0  0  0
  154.0629  140.9353  159.7049 H   0  0  0  0  0  0  0  0  0  0  0  0
  152.2755  142.3753  161.7263 H   0  0  0  0  0  0  0  0  0  0  0  0
  154.0216  142.3103  161.7595 H   0  0  0  0  0  0  0  0  0  0  0  0
  153.2121  144.4690  160.8128 H   0  0  0  0  0  0  0  0  0  0  0  0
  154.1653  143.5814  159.6489 H   0  0  0  0  0  0  0  0  0  0  0  0
  151.1199  143.6790  159.7696 H   0  0  0  0  0  0  0  0  0  0  0  0
  153.0279  144.8469  157.6838 H   0  0  0  0  0  0  0  0  0  0  0  0
  152.1544  145.7720  158.9026 H   0  0  0  0  0  0  0  0  0  0  0  0
  151.2701  144.9353  157.6364 H   0  0  0  0  0  0  0  0  0  0  0  0
  1  2  1  0  0  0  0
  1 21  1  0  0  0  0
  1 22  1  0  0  0  0
  1 23  1  0  0  0  0
  2 20  1  0  0  0  0
  2  3  2  0  0  0  0
  3  4  1  0  0  0  0
  3 24  1  0  0  0  0
  4  5  1  0  0  0  0
  4 19  2  0  0  0  0
  5  6  1  0  0  0  0
  6  7  2  0  0  0  0
  6  8  1  0  0  0  0
  8  9  1  0  0  0  0
  8 25  1  0  0  0  0
  9 10  1  0  0  0  0
  9 26  1  0  0  0  0
  9 27  1  0  0  0  0
 10 11  1  0  0  0  0
 10 28  1  0  0  0  0
 10 29  1  0  0  0  0
 11 12  1  0  0  0  0
 12 17  1  0  0  0  0
 12 13  1  0  0  0  0
 12 30  1  0  0  0  0
 13 14  1  0  0  0  0
 13 31  1  0  0  0  0
 13 32  1  0  0  0  0
 14 15  1  0  0  0  0
 14 33  1  0  0  0  0
 14 34  1  0  0  0  0
 15 16  1  0  0  0  0
 15 35  1  0  0  0  0
 15 36  1  0  0  0  0
 16 17  1  0  0  0  0
 16 37  1  0  0  0  0
 16 38  1  0  0  0  0
 17 18  1  0  0  0  0
 17 39  1  0  0  0  0
 18 40  1  0  0  0  0
 18 41  1  0  0  0  0
 18 42  1  0  0  0  0
 19 20  1  0  0  0  0
M  CHG  1   5  -1
M  END
> <s_m_source_file>
AV-unprocessed.smi

> <i_m_source_file_index>
2104

> <i_lp_mmshare_version>
43012

> <i_f3d_flags>
0

> <s_epik_input>
W0NIM11jMVtjSF1jKG5vMSlbTkhdQyg9TylbTkhdW0NIMl1bQ0gyXU9bQ0BASF0yW0NIMl1bQ0gyXVtDSDJdW0NIMl1bQ0BIXTJbQ0gzXQ==

> <s_epik_cmdline>
J2VwaWtfcHl0aG9uJywgJy1waCcsICc3LjAnLCAnLXRuJywgJzgnLCAnLW1hJywgJzIwMCcsICctbWV0YWxfYmluZGluZycsICctaW1hZScsICc8aW5maWxlLm1hZT4nLCAnLW9tYWUnLCAnPG91dGZpbGUubWFlPic=

> <r_lp_tautomer_probability>
1

> <r_epik_Ionization_Penalty>
6.47137

> <r_epik_Ionization_Penalty_Charging>
6.47125

> <r_epik_Ionization_Penalty_Neutral>
0.000118933

> <r_epik_State_Penalty>
6.47124

> <r_epik_Charging_Adjusted_Penalty>
12.9425

> <i_epik_Tot_Q>
-1

> <i_epik_Tot_abs_Q>
1

> <r_epik_Metal_State_Penalty>
2.3995

> <b_epik_Metal_Only>
1

> <s_lp_Force_Field>
OPLS_2005

> <r_lp_Energy>
5.464

> <b_lp_Chiralities_Consistent>
1

> <s_lp_Variant>
AV-unprocessed.smi:2104-5

> <Gold.Version>
5.8.1

> <Gold.Id.Protein>
6NUR|6NUR_protein|mol2

> <Gold.PLP.Fitness>
43.3000

> <Gold.PLP.PLP>
-41.2095

> <Gold.PLP.part.hbond>
-3.3778

> <Gold.PLP.part.metal>
0.0000

> <Gold.PLP.part.buried>
-7.0913

> <Gold.PLP.part.nonpolar>
-31.0421

> <Gold.PLP.part.repulsive>
0.3346

> <Gold.PLP.ligand.clash>
0.0000

> <Gold.PLP.ligand.torsion>
0.5192

> <Gold.PLP.Chemscore.Hbond>
1.0000

> <Gold.PLP.Chemscore.CHOScore>
0.0000

> <Gold.PLP.Chemscore.Metal>
0.0000

> <Gold.Chemscore.Hbonds>
donor molecule, donor type, donor heavy atom, donor atom, acceptor molecule, acceptor atom, score
      L1  H     8    25       P1  8028  0.98
      P1  H  6934  6946       L1    19  0.65

> <Gold.PLP.Chemscore.Internal.Correction>
0.1288

> <Gold.Rescore>
     Score         DG    S(hbond)    S(metal)    S(lipo)     H(rot)  DE(clash)    DE(int)     intcor
     14.45     -16.51       0.99        0.00     103.55       1.71       0.00       2.06       ----

> <Gold.Chemscore.Fitness>
14.4478

> <Gold.Chemscore.DG>
-16.5100

> <Gold.Chemscore.ZeroCoef>
-5.4800

> <Gold.Chemscore.Hbond>
0.9861

> <Gold.Chemscore.Metal>
0.0000

> <Gold.Chemscore.Lipo>
103.5463

> <Gold.Chemscore.Internal_Hbond>
0.0000

> <Gold.Chemscore.DEClash>
0.0015

> <Gold.Chemscore.DEInternal>
2.0608

> <Gold.Chemscore.Rot>
1.7103

> <Gold.Chemscore.Internal.Correction>
   9.000000E+99

> <Gold.Chemscore.Hbonds>
donor molecule, donor type, donor heavy atom, donor atom, acceptor molecule, acceptor atom, score
      L1  H     8    25       P1  8028  0.71
      P1  H  6934  6946       L1    19  0.08

> <Gold.Chemscore.Hbond.Weighted>
-3.2935

> <Gold.Chemscore.Metal.Weighted>
-0.0000

> <Gold.Chemscore.Lipo.Weighted>
-12.1149

> <Gold.Chemscore.Internal_Hbond.Weighted>
0.0000

> <Gold.Chemscore.DEClash.Weighted>
0.0015

> <Gold.Chemscore.DEInternal.Weighted>
2.0608

> <Gold.Chemscore.Rot.Weighted>
4.3784

> <Gold.Chemscore.Internal.Correction.Weighted>
   9.000000E+99

> <Gold.Protein.RotatedTorsions>
[ 6907 6896 6895 6894 ] final   34.29 input  -60.11 | X-H torsion
[ 7974 7965 7964 7962 ] final  157.58 input  175.53 | X-H torsion
[ 8008 7997 7996 7995 ] final -120.11 input   59.86 | X-H torsion
[ 10167 10162 10161 10158 ] final  149.88 input  -65.29 | X-H torsion
[ 10718 10713 10712 10709 ] final  101.24 input   66.30 | X-H torsion
[ 10763 10752 10751 10750 ] final  120.92 input  -60.55 | X-H torsion
[ 11005 11000 10999 10996 ] final  -80.76 input  -57.11 | X-H torsion

> <Gold.Protein.ActiveResidues>
 VAL166  LYS551  ARG553  GLY616  TRP617  ASP618  TYR619  PRO620  LYS621  CYS622 
 ASP623  PHE694  ASN695  SER759  ASP760  ASP761  ALA762  ILE779  LEU786  VAL792 
 PHE793  MET794  SER795  GLU796  ALA797  LYS798  CYS799  TRP800  GLU811  SER814 

> <Gold.Protein.RotatedAtoms>
  152.1004  134.9346  160.0569 H   0  0  0  0  0  0  0  0  0  0  0  0  # atno 6907 bound_to 6896
  152.0562  133.4036  159.4406 H   0  0  0  0  0  0  0  0  0  0  0  0  # atno 6908 bound_to 6896
  150.6839  134.3172  159.4815 H   0  0  0  0  0  0  0  0  0  0  0  0  # atno 6909 bound_to 6896
  144.7895  139.7360  143.6227 H   0  0  0  0  0  0  0  0  0  0  0  0  # atno 7974 bound_to 7965
  155.1265  140.0399  157.2764 H   0  0  0  0  0  0  0  0  0  0  0  0  # atno 8008 bound_to 7997
  154.6574  140.2583  155.7120 H   0  0  0  0  0  0  0  0  0  0  0  0  # atno 8009 bound_to 7997
  156.2604  140.2824  156.1033 H   0  0  0  0  0  0  0  0  0  0  0  0  # atno 8010 bound_to 7997
  139.4856  144.5566  151.7306 H   0  0  0  0  0  0  0  0  0  0  0  0  # atno 10167 bound_to 10162
  157.6834  131.0720  150.5222 H   0  0  0  0  0  0  0  0  0  0  0  0  # atno 10718 bound_to 10713
  153.6061  135.3439  155.2962 H   0  0  0  0  0  0  0  0  0  0  0  0  # atno 10763 bound_to 10752
  154.8627  135.4239  154.2360 H   0  0  0  0  0  0  0  0  0  0  0  0  # atno 10764 bound_to 10752
  153.3200  135.7037  153.7111 H   0  0  0  0  0  0  0  0  0  0  0  0  # atno 10765 bound_to 10752
  141.1667  133.7165  156.8321 H   0  0  0  0  0  0  0  0  0  0  0  0  # atno 11005 bound_to 11000
  146.2141  139.5518  142.9661 LP  0  0  0  0  0  0  0  0  0  0  0  0  # atno 17320 bound_to 7965
  145.5832  141.0380  143.2111 LP  0  0  0  0  0  0  0  0  0  0  0  0  # atno 17321 bound_to 7965
  140.5129  144.0998  150.6000 LP  0  0  0  0  0  0  0  0  0  0  0  0  # atno 17342 bound_to 10162
  140.3929  143.2743  152.0038 LP  0  0  0  0  0  0  0  0  0  0  0  0  # atno 17343 bound_to 10162
  156.5535  130.4237  149.6096 LP  0  0  0  0  0  0  0  0  0  0  0  0  # atno 17370 bound_to 10713
  156.2882  130.7109  151.1951 LP  0  0  0  0  0  0  0  0  0  0  0  0  # atno 17371 bound_to 10713
  140.2043  134.8874  157.3204 LP  0  0  0  0  0  0  0  0  0  0  0  0  # atno 17394 bound_to 11000
  140.2153  134.4088  155.7592 LP  0  0  0  0  0  0  0  0  0  0  0  0  # atno 17395 bound_to 11000

$$$$
