AV-unprocessed.smi:686|AV-procd|sdf|3352|dock1
  -GOLD-   22720 0323D 1   1.00000     0.00000
 Structure written by MMmdl.
 40 41  0  0  0  0  0  0  0  0  3 V2000
  150.9419  139.8911  155.4196 C   0  0  0  0  0  0  0  0  0  0  0  0
  150.9826  140.7283  156.7131 C   0  0  1  0  0  0  0  0  0  0  0  0
  151.3282  142.2080  156.4707 C   0  0  0  0  0  0  0  0  0  0  0  0
  150.5043  143.0138  157.4081 N   0  3  2  0  0  0  0  0  0  0  0  0
  151.2083  144.1533  158.0620 C   0  0  0  0  0  0  0  0  0  0  0  0
  152.5804  143.7296  158.6207 C   0  0  0  0  0  0  0  0  0  0  0  0
  150.3561  144.7559  159.1949 C   0  0  0  0  0  0  0  0  0  0  0  0
  149.8425  142.0613  158.3251 C   0  0  0  0  0  0  0  0  0  0  0  0
  149.6702  140.7797  157.5091 C   0  0  2  0  0  0  0  0  0  0  0  0
  149.5176  139.6062  158.3561 N   0  5  0  0  0  0  0  0  0  0  0  0
  148.4449  138.4541  157.9607 S   0  0  0  0  0  0  0  0  0  0  0  0
  147.1613  138.6128  158.6644 O   0  0  0  0  0  0  0  0  0  0  0  0
  148.3898  138.2268  156.5078 O   0  0  0  0  0  0  0  0  0  0  0  0
  149.2586  136.9594  158.6770 C   0  0  0  0  0  0  0  0  0  0  0  0
  148.4001  136.3562  159.7557 C   0  0  0  0  0  0  0  0  0  0  0  0
  147.9278  135.0185  159.8645 C   0  0  0  0  0  0  0  0  0  0  0  0
  147.2034  135.0279  161.0211 C   0  0  0  0  0  0  0  0  0  0  0  0
  147.2166  136.2642  161.5795 O   0  0  0  0  0  0  0  0  0  0  0  0
  147.9795  137.1065  160.7626 N   0  0  0  0  0  0  0  0  0  0  0  0
  150.2028  140.2648  154.7084 H   0  0  0  0  0  0  0  0  0  0  0  0
  150.7119  138.8433  155.6208 H   0  0  0  0  0  0  0  0  0  0  0  0
  151.9109  139.9146  154.9205 H   0  0  0  0  0  0  0  0  0  0  0  0
  151.7623  140.3180  157.3585 H   0  0  0  0  0  0  0  0  0  0  0  0
  152.3968  142.3636  156.6279 H   0  0  0  0  0  0  0  0  0  0  0  0
  151.1004  142.5213  155.4503 H   0  0  0  0  0  0  0  0  0  0  0  0
  151.3746  144.9252  157.3088 H   0  0  0  0  0  0  0  0  0  0  0  0
  153.0630  144.5576  159.1407 H   0  0  0  0  0  0  0  0  0  0  0  0
  153.2637  143.4133  157.8324 H   0  0  0  0  0  0  0  0  0  0  0  0
  152.4830  142.9067  159.3300 H   0  0  0  0  0  0  0  0  0  0  0  0
  150.8843  145.5726  159.6879 H   0  0  0  0  0  0  0  0  0  0  0  0
  150.1224  144.0086  159.9540 H   0  0  0  0  0  0  0  0  0  0  0  0
  149.4141  145.1645  158.8295 H   0  0  0  0  0  0  0  0  0  0  0  0
  150.4845  141.8817  159.1902 H   0  0  0  0  0  0  0  0  0  0  0  0
  148.8886  142.4511  158.6815 H   0  0  0  0  0  0  0  0  0  0  0  0
  148.8371  140.9087  156.8164 H   0  0  0  0  0  0  0  0  0  0  0  0
  149.4143  136.2486  157.8653 H   0  0  0  0  0  0  0  0  0  0  0  0
  150.2409  137.2417  159.0549 H   0  0  0  0  0  0  0  0  0  0  0  0
  148.1007  134.1843  159.2007 H   0  0  0  0  0  0  0  0  0  0  0  0
  146.6444  134.2722  161.5532 H   0  0  0  0  0  0  0  0  0  0  0  0
  149.7601  143.4067  156.8498 H   0  0  0  0  0  0  0  0  0  0  0  0
  1  2  1  0  0  0  0
  1 20  1  0  0  0  0
  1 21  1  0  0  0  0
  1 22  1  0  0  0  0
  2  9  1  0  0  0  0
  2  3  1  0  0  0  0
  2 23  1  0  0  0  0
  3  4  1  0  0  0  0
  3 24  1  0  0  0  0
  3 25  1  0  0  0  0
  4  5  1  0  0  0  0
  4  8  1  0  0  0  0
  4 40  1  0  0  0  0
  5  6  1  0  0  0  0
  5  7  1  0  0  0  0
  5 26  1  0  0  0  0
  6 27  1  0  0  0  0
  6 28  1  0  0  0  0
  6 29  1  0  0  0  0
  7 30  1  0  0  0  0
  7 31  1  0  0  0  0
  7 32  1  0  0  0  0
  8  9  1  0  0  0  0
  8 33  1  0  0  0  0
  8 34  1  0  0  0  0
  9 10  1  0  0  0  0
  9 35  1  0  0  0  0
 10 11  1  0  0  0  0
 11 12  2  0  0  0  0
 11 13  2  0  0  0  0
 11 14  1  0  0  0  0
 14 15  1  0  0  0  0
 14 36  1  0  0  0  0
 14 37  1  0  0  0  0
 15 19  2  0  0  0  0
 15 16  1  0  0  0  0
 16 17  2  0  0  0  0
 16 38  1  0  0  0  0
 17 18  1  0  0  0  0
 17 39  1  0  0  0  0
 18 19  1  0  0  0  0
M  CHG  1   4   1
M  CHG  1  10  -1
M  END
> <s_m_source_file>
AV-unprocessed.smi

> <i_m_source_file_index>
686

> <i_lp_mmshare_version>
43012

> <i_f3d_flags>
0

> <s_epik_input>
W0NIM11bQ0BASF0xW0NIMl1OKFtDSF0oW0NIM10pW0NIM10pW0NIMl1bQ0BIXTFbTkhdUyg9TykoPU8pW0NIMl1jMltjSF1bY0hdb24y

> <s_epik_cmdline>
J2VwaWtfcHl0aG9uJywgJy1waCcsICc3LjAnLCAnLXRuJywgJzgnLCAnLW1hJywgJzIwMCcsICctbWV0YWxfYmluZGluZycsICctaW1hZScsICc8aW5maWxlLm1hZT4nLCAnLW9tYWUnLCAnPG91dGZpbGUubWFlPic=

> <r_epik_Ionization_Penalty>
3.62478

> <r_epik_Ionization_Penalty_Charging>
3.62478

> <r_epik_Ionization_Penalty_Neutral>
2.03645e-10

> <r_epik_State_Penalty>
3.6247

> <r_epik_Charging_Adjusted_Penalty>
7.24949

> <i_epik_Tot_Q>
0

> <i_epik_Tot_abs_Q>
2

> <r_epik_Metal_State_Penalty>
0.530836

> <b_epik_Metal_Only>
1

> <s_lp_Force_Field>
OPLS_2005

> <r_lp_Energy>
17.1192

> <b_lp_Chiralities_Consistent>
1

> <s_lp_Variant>
AV-unprocessed.smi:686-16

> <Gold.Version>
5.8.1

> <Gold.Id.Protein>
6NUR|6NUR_protein|mol2

> <Gold.PLP.Fitness>
40.4325

> <Gold.PLP.PLP>
-30.5319

> <Gold.PLP.part.hbond>
-4.1139

> <Gold.PLP.part.metal>
0.0000

> <Gold.PLP.part.buried>
-4.9307

> <Gold.PLP.part.nonpolar>
-21.5342

> <Gold.PLP.part.repulsive>
0.0086

> <Gold.PLP.ligand.clash>
0.0000

> <Gold.PLP.ligand.torsion>
1.0900

> <Gold.PLP.Chemscore.Hbond>
3.6640

> <Gold.PLP.Chemscore.CHOScore>
0.0000

> <Gold.PLP.Chemscore.Metal>
0.0000

> <Gold.Chemscore.Hbonds>
donor molecule, donor type, donor heavy atom, donor atom, acceptor molecule, acceptor atom, score
      L1  H     4    40       P1  8028  2.00
      P1  H  6931  6943       L1    19  0.90
      P1  H  6934  6947       L1    19  0.69

> <Gold.PLP.Chemscore.Internal.Correction>
1.0886

> <Gold.Rescore>
     Score         DG    S(hbond)    S(metal)    S(lipo)     H(rot)  DE(clash)    DE(int)     intcor
     16.83     -19.44       2.57        0.00      81.33       1.61       0.34       2.27       ----

> <Gold.Chemscore.Fitness>
16.8299

> <Gold.Chemscore.DG>
-19.4415

> <Gold.Chemscore.ZeroCoef>
-5.4800

> <Gold.Chemscore.Hbond>
2.5688

> <Gold.Chemscore.Metal>
0.0000

> <Gold.Chemscore.Lipo>
81.3327

> <Gold.Chemscore.Internal_Hbond>
0.0000

> <Gold.Chemscore.DEClash>
0.3444

> <Gold.Chemscore.DEInternal>
2.2672

> <Gold.Chemscore.Rot>
1.6149

> <Gold.Chemscore.Internal.Correction>
   9.000000E+99

> <Gold.Chemscore.Hbonds>
donor molecule, donor type, donor heavy atom, donor atom, acceptor molecule, acceptor atom, score
      L1  H     4    40       P1  8028  0.97
      P1  H  6931  6943       L1    19  0.60
      P1  H  6934  6947       L1    19  0.43

> <Gold.Chemscore.Hbond.Weighted>
-8.5797

> <Gold.Chemscore.Metal.Weighted>
-0.0000

> <Gold.Chemscore.Lipo.Weighted>
-9.5159

> <Gold.Chemscore.Internal_Hbond.Weighted>
0.0000

> <Gold.Chemscore.DEClash.Weighted>
0.3444

> <Gold.Chemscore.DEInternal.Weighted>
2.2672

> <Gold.Chemscore.Rot.Weighted>
4.1341

> <Gold.Chemscore.Internal.Correction.Weighted>
   9.000000E+99

> <Gold.Protein.RotatedTorsions>
[ 6907 6896 6895 6894 ] final -131.97 input  -60.11 | X-H torsion
[ 7974 7965 7964 7962 ] final   16.17 input  175.53 | X-H torsion
[ 8008 7997 7996 7995 ] final -148.57 input   59.86 | X-H torsion
[ 10167 10162 10161 10158 ] final -130.70 input  -65.29 | X-H torsion
[ 10718 10713 10712 10709 ] final   53.63 input   66.30 | X-H torsion
[ 10763 10752 10751 10750 ] final  107.33 input  -60.55 | X-H torsion
[ 11005 11000 10999 10996 ] final -116.31 input  -57.11 | X-H torsion

> <Gold.Protein.ActiveResidues>
 VAL166  LYS551  ARG553  GLY616  TRP617  ASP618  TYR619  PRO620  LYS621  CYS622 
 ASP623  PHE694  ASN695  SER759  ASP760  ASP761  ALA762  ILE779  LEU786  VAL792 
 PHE793  MET794  SER795  GLU796  ALA797  LYS798  CYS799  TRP800  GLU811  SER814 

> <Gold.Protein.RotatedAtoms>
  150.9571  133.6486  159.2760 H   0  0  0  0  0  0  0  0  0  0  0  0  # atno 6907 bound_to 6896
  151.3822  135.0940  159.9509 H   0  0  0  0  0  0  0  0  0  0  0  0  # atno 6908 bound_to 6896
  152.5133  133.9103  159.7539 H   0  0  0  0  0  0  0  0  0  0  0  0  # atno 6909 bound_to 6896
  146.2257  139.8787  142.8574 H   0  0  0  0  0  0  0  0  0  0  0  0  # atno 7974 bound_to 7965
  155.5938  140.0655  157.2751 H   0  0  0  0  0  0  0  0  0  0  0  0  # atno 8008 bound_to 7997
  154.4298  140.1830  156.1149 H   0  0  0  0  0  0  0  0  0  0  0  0  # atno 8009 bound_to 7997
  156.0212  140.3316  155.7044 H   0  0  0  0  0  0  0  0  0  0  0  0  # atno 8010 bound_to 7997
  139.9266  143.6320  152.2540 H   0  0  0  0  0  0  0  0  0  0  0  0  # atno 10167 bound_to 10162
  157.5185  130.8548  149.8527 H   0  0  0  0  0  0  0  0  0  0  0  0  # atno 10718 bound_to 10713
  153.4052  135.3848  155.2014 H   0  0  0  0  0  0  0  0  0  0  0  0  # atno 10763 bound_to 10752
  154.8733  135.3781  154.4569 H   0  0  0  0  0  0  0  0  0  0  0  0  # atno 10764 bound_to 10752
  153.5071  135.7087  153.5863 H   0  0  0  0  0  0  0  0  0  0  0  0  # atno 10765 bound_to 10752
  141.0430  133.9806  157.2963 H   0  0  0  0  0  0  0  0  0  0  0  0  # atno 11005 bound_to 11000
  145.2535  141.0052  143.3867 LP  0  0  0  0  0  0  0  0  0  0  0  0  # atno 17320 bound_to 7965
  144.9356  139.4248  143.6474 LP  0  0  0  0  0  0  0  0  0  0  0  0  # atno 17321 bound_to 7965
  139.6817  144.7655  151.1597 LP  0  0  0  0  0  0  0  0  0  0  0  0  # atno 17342 bound_to 10162
  140.7648  143.5716  150.8990 LP  0  0  0  0  0  0  0  0  0  0  0  0  # atno 17343 bound_to 10162
  156.0337  130.3757  150.1619 LP  0  0  0  0  0  0  0  0  0  0  0  0  # atno 17370 bound_to 10713
  156.9807  130.9863  151.3438 LP  0  0  0  0  0  0  0  0  0  0  0  0  # atno 17371 bound_to 10713
  139.9290  135.0200  156.8335 LP  0  0  0  0  0  0  0  0  0  0  0  0  # atno 17394 bound_to 11000
  140.6199  134.0004  155.7613 LP  0  0  0  0  0  0  0  0  0  0  0  0  # atno 17395 bound_to 11000

$$$$
