AV-unprocessed.smi:438|AV-procd|sdf|2566|dock5
  -GOLD-   2262022543D 1   1.00000     0.00000
 Structure written by MMmdl.
 48 49  0  0  0  0  0  0  0  0  1 V2000
  147.9416  133.5303  158.3624 C   0  0  0  0  0  0  0  0  0  0  0  0
  148.8045  134.0285  157.2163 C   0  0  0  0  0  0  0  0  0  0  0  0
  149.8004  134.9462  157.5694 N   0  0  0  0  0  0  0  0  0  0  0  0
  150.6104  135.4095  156.6721 C   0  0  0  0  0  0  0  0  0  0  0  0
  152.0001  136.5710  156.8557 S   0  0  0  0  0  0  0  0  0  0  0  0
  151.2442  137.9428  157.7819 C   0  0  0  0  0  0  0  0  0  0  0  0
  151.9701  139.2733  157.5805 C   0  0  0  0  0  0  0  0  0  0  0  0
  152.9801  139.3214  156.8794 O   0  0  0  0  0  0  0  0  0  0  0  0
  151.4566  140.3305  158.2328 N   0  0  0  0  0  0  0  0  0  0  0  0
  152.0222  141.6768  158.3390 C   0  0  1  0  0  0  0  0  0  0  0  0
  151.0981  142.7276  157.6859 C   0  0  0  0  0  0  0  0  0  0  0  0
  151.7448  144.1197  157.7018 C   0  0  0  0  0  0  0  0  0  0  0  0
  152.1329  144.5297  159.1305 C   0  0  0  0  0  0  0  0  0  0  0  0
  153.0553  143.4859  159.7812 C   0  0  0  0  0  0  0  0  0  0  0  0
  152.4217  142.0795  159.7840 C   0  0  2  0  0  0  0  0  0  0  0  0
  153.3669  141.0612  160.4457 C   0  0  0  0  0  0  0  0  0  0  0  0
  150.4859  135.0143  155.3400 N   0  0  0  0  0  0  0  0  0  0  0  0
  149.5535  134.1431  154.8943 C   0  0  0  0  0  0  0  0  0  0  0  0
  149.5059  133.8371  153.7038 O   0  0  0  0  0  0  0  0  0  0  0  0
  148.6440  133.6178  155.9267 C   0  0  0  0  0  0  0  0  0  0  0  0
  147.5838  132.6066  155.4908 C   0  0  0  0  0  0  0  0  0  0  0  0
  146.2037  133.2404  155.2429 C   0  0  0  0  0  0  0  0  0  0  0  0
  145.6030  132.7011  154.0843 O   0  0  0  0  0  0  0  0  0  0  0  0
  146.8846  133.6867  158.1478 H   0  0  0  0  0  0  0  0  0  0  0  0
  148.1747  134.0537  159.2906 H   0  0  0  0  0  0  0  0  0  0  0  0
  148.1101  132.4663  158.5294 H   0  0  0  0  0  0  0  0  0  0  0  0
  151.1990  137.6802  158.8399 H   0  0  0  0  0  0  0  0  0  0  0  0
  150.2143  138.0584  157.4439 H   0  0  0  0  0  0  0  0  0  0  0  0
  150.6192  140.1668  158.7732 H   0  0  0  0  0  0  0  0  0  0  0  0
  152.9370  141.6408  157.7458 H   0  0  0  0  0  0  0  0  0  0  0  0
  150.8736  142.4420  156.6573 H   0  0  0  0  0  0  0  0  0  0  0  0
  150.1423  142.7728  158.2087 H   0  0  0  0  0  0  0  0  0  0  0  0
  152.6312  144.1193  157.0662 H   0  0  0  0  0  0  0  0  0  0  0  0
  151.0584  144.8529  157.2769 H   0  0  0  0  0  0  0  0  0  0  0  0
  152.6261  145.5020  159.1155 H   0  0  0  0  0  0  0  0  0  0  0  0
  151.2326  144.6490  159.7347 H   0  0  0  0  0  0  0  0  0  0  0  0
  154.0062  143.4606  159.2472 H   0  0  0  0  0  0  0  0  0  0  0  0
  153.2848  143.7931  160.8021 H   0  0  0  0  0  0  0  0  0  0  0  0
  151.5203  142.1341  160.3953 H   0  0  0  0  0  0  0  0  0  0  0  0
  154.2840  140.9392  159.8688 H   0  0  0  0  0  0  0  0  0  0  0  0
  152.8992  140.0811  160.5415 H   0  0  0  0  0  0  0  0  0  0  0  0
  153.6459  141.3826  161.4494 H   0  0  0  0  0  0  0  0  0  0  0  0
  151.1313  135.3950  154.6634 H   0  0  0  0  0  0  0  0  0  0  0  0
  147.4876  131.8033  156.2204 H   0  0  0  0  0  0  0  0  0  0  0  0
  147.9258  132.1176  154.5777 H   0  0  0  0  0  0  0  0  0  0  0  0
  145.5409  133.0876  156.0949 H   0  0  0  0  0  0  0  0  0  0  0  0
  146.3067  134.3175  155.1096 H   0  0  0  0  0  0  0  0  0  0  0  0
  144.6900  132.5380  154.2676 H   0  0  0  0  0  0  0  0  0  0  0  0
  1 24  1  0  0  0  0
  1 25  1  0  0  0  0
  1 26  1  0  0  0  0
  1  2  1  0  0  0  0
  2 20  2  0  0  0  0
  2  3  1  0  0  0  0
  3  4  2  0  0  0  0
  4  5  1  0  0  0  0
  4 17  1  0  0  0  0
  5  6  1  0  0  0  0
  6  7  1  0  0  0  0
  6 27  1  0  0  0  0
  6 28  1  0  0  0  0
  7  8  2  0  0  0  0
  7  9  1  0  0  0  0
  9 10  1  0  0  0  0
  9 29  1  0  0  0  0
 10 15  1  0  0  0  0
 10 11  1  0  0  0  0
 10 30  1  0  0  0  0
 11 12  1  0  0  0  0
 11 31  1  0  0  0  0
 11 32  1  0  0  0  0
 12 13  1  0  0  0  0
 12 33  1  0  0  0  0
 12 34  1  0  0  0  0
 13 14  1  0  0  0  0
 13 35  1  0  0  0  0
 13 36  1  0  0  0  0
 14 15  1  0  0  0  0
 14 37  1  0  0  0  0
 14 38  1  0  0  0  0
 15 16  1  0  0  0  0
 15 39  1  0  0  0  0
 16 40  1  0  0  0  0
 16 41  1  0  0  0  0
 16 42  1  0  0  0  0
 17 43  1  0  0  0  0
 17 18  1  0  0  0  0
 18 19  2  0  0  0  0
 18 20  1  0  0  0  0
 20 21  1  0  0  0  0
 21 22  1  0  0  0  0
 21 44  1  0  0  0  0
 21 45  1  0  0  0  0
 22 23  1  0  0  0  0
 22 46  1  0  0  0  0
 22 47  1  0  0  0  0
 23 48  1  0  0  0  0
M  END
> <s_m_source_file>
AV-unprocessed.smi

> <i_m_source_file_index>
438

> <i_lp_mmshare_version>
43012

> <i_f3d_flags>
0

> <s_epik_input>
W09IXVtDSDJdW0NIMl1jMWMoW09IXSluYyhuYzFbQ0gzXSlTW0NIMl1DKD1PKVtOSF1bQ0BASF0yW0NIMl1bQ0gyXVtDSDJdW0NIMl1bQ0BIXTJbQ0gzXQ==

> <s_epik_cmdline>
J2VwaWtfcHl0aG9uJywgJy1waCcsICc3LjAnLCAnLXRuJywgJzgnLCAnLW1hJywgJzIwMCcsICctbWV0YWxfYmluZGluZycsICctaW1hZScsICc8aW5maWxlLm1hZT4nLCAnLW9tYWUnLCAnPG91dGZpbGUubWFlPic=

> <r_lp_tautomer_probability>
0.660323

> <r_epik_Ionization_Penalty>
0.00860626

> <r_epik_Ionization_Penalty_Charging>
0.00860522

> <r_epik_Ionization_Penalty_Neutral>
1.04215e-06

> <r_epik_State_Penalty>
0.156825

> <r_epik_Charging_Adjusted_Penalty>
0.16543

> <i_epik_Tot_Q>
0

> <i_epik_Tot_abs_Q>
0

> <r_epik_Metal_State_Penalty>
0.752038

> <b_epik_Metal_Only>
0

> <s_lp_Force_Field>
OPLS_2005

> <r_lp_Energy>
14.076

> <b_lp_Chiralities_Consistent>
1

> <s_lp_Variant>
AV-unprocessed.smi:438-4

> <Gold.Version>
5.8.1

> <Gold.Id.Protein>
6NUR|6NUR_protein|mol2

> <Gold.PLP.Fitness>
43.5676

> <Gold.PLP.PLP>
-36.3880

> <Gold.PLP.part.hbond>
-3.0000

> <Gold.PLP.part.metal>
0.0000

> <Gold.PLP.part.buried>
-6.0211

> <Gold.PLP.part.nonpolar>
-28.5410

> <Gold.PLP.part.repulsive>
0.4213

> <Gold.PLP.ligand.clash>
0.0000

> <Gold.PLP.ligand.torsion>
0.8593

> <Gold.PLP.Chemscore.Hbond>
2.9280

> <Gold.PLP.Chemscore.CHOScore>
0.0000

> <Gold.PLP.Chemscore.Metal>
0.0000

> <Gold.Chemscore.Hbonds>
donor molecule, donor type, donor heavy atom, donor atom, acceptor molecule, acceptor atom, score
      L1  H    23    48       P1 10957  0.55
      P1  H  6896  6908       L1     3  0.67
      P1  H  7997  8010       L1     8  1.00

> <Gold.PLP.Chemscore.Internal.Correction>
0.1143

> <Gold.Rescore>
     Score         DG    S(hbond)    S(metal)    S(lipo)     H(rot)  DE(clash)    DE(int)     intcor
     16.94     -17.88       2.72        0.00      90.96       2.86       0.05       0.88       ----

> <Gold.Chemscore.Fitness>
16.9435

> <Gold.Chemscore.DG>
-17.8774

> <Gold.Chemscore.ZeroCoef>
-5.4800

> <Gold.Chemscore.Hbond>
2.7209

> <Gold.Chemscore.Metal>
0.0000

> <Gold.Chemscore.Lipo>
90.9639

> <Gold.Chemscore.Internal_Hbond>
0.0000

> <Gold.Chemscore.DEClash>
0.0539

> <Gold.Chemscore.DEInternal>
0.8800

> <Gold.Chemscore.Rot>
2.8645

> <Gold.Chemscore.Internal.Correction>
   9.000000E+99

> <Gold.Chemscore.Hbonds>
donor molecule, donor type, donor heavy atom, donor atom, acceptor molecule, acceptor atom, score
      L1  H    23    48       P1 10957  0.38
      P1  H  6896  6908       L1     3  0.31
      P1  H  7997  8010       L1     8  0.99

> <Gold.Chemscore.Hbond.Weighted>
-9.0878

> <Gold.Chemscore.Metal.Weighted>
-0.0000

> <Gold.Chemscore.Lipo.Weighted>
-10.6428

> <Gold.Chemscore.Internal_Hbond.Weighted>
0.0000

> <Gold.Chemscore.DEClash.Weighted>
0.0539

> <Gold.Chemscore.DEInternal.Weighted>
0.8800

> <Gold.Chemscore.Rot.Weighted>
7.3331

> <Gold.Chemscore.Internal.Correction.Weighted>
   9.000000E+99

> <Gold.Protein.RotatedTorsions>
[ 6907 6896 6895 6894 ] final  142.71 input  -60.11 | X-H torsion
[ 7974 7965 7964 7962 ] final -179.71 input  175.53 | X-H torsion
[ 8008 7997 7996 7995 ] final   61.93 input   59.86 | X-H torsion
[ 10167 10162 10161 10158 ] final  118.94 input  -65.29 | X-H torsion
[ 10718 10713 10712 10709 ] final -177.86 input   66.30 | X-H torsion
[ 10763 10752 10751 10750 ] final -120.65 input  -60.55 | X-H torsion
[ 11005 11000 10999 10996 ] final  -18.39 input  -57.11 | X-H torsion

> <Gold.Protein.ActiveResidues>
 VAL166  LYS551  ARG553  GLY616  TRP617  ASP618  TYR619  PRO620  LYS621  CYS622 
 ASP623  PHE694  ASN695  SER759  ASP760  ASP761  ALA762  ILE779  LEU786  VAL792 
 PHE793  MET794  SER795  GLU796  ALA797  LYS798  CYS799  TRP800  GLU811  SER814 

> <Gold.Protein.RotatedAtoms>
  152.2153  133.4942  159.5132 H   0  0  0  0  0  0  0  0  0  0  0  0  # atno 6907 bound_to 6896
  150.7000  134.1413  159.4115 H   0  0  0  0  0  0  0  0  0  0  0  0  # atno 6908 bound_to 6896
  151.9333  135.0246  160.0581 H   0  0  0  0  0  0  0  0  0  0  0  0  # atno 6909 bound_to 6896
  144.7138  140.0677  143.6430 H   0  0  0  0  0  0  0  0  0  0  0  0  # atno 7974 bound_to 7965
  155.6062  140.3494  155.4608 H   0  0  0  0  0  0  0  0  0  0  0  0  # atno 8008 bound_to 7997
  156.0190  140.1249  157.0401 H   0  0  0  0  0  0  0  0  0  0  0  0  # atno 8009 bound_to 7997
  154.4308  140.1066  156.5922 H   0  0  0  0  0  0  0  0  0  0  0  0  # atno 8010 bound_to 7997
  139.6079  144.7074  151.2912 H   0  0  0  0  0  0  0  0  0  0  0  0  # atno 10167 bound_to 10162
  156.8357  130.9669  151.3103 H   0  0  0  0  0  0  0  0  0  0  0  0  # atno 10718 bound_to 10713
  154.8649  135.4195  154.2494 H   0  0  0  0  0  0  0  0  0  0  0  0  # atno 10763 bound_to 10752
  153.3443  135.6995  153.6846 H   0  0  0  0  0  0  0  0  0  0  0  0  # atno 10764 bound_to 10752
  153.5812  135.3572  155.2848 H   0  0  0  0  0  0  0  0  0  0  0  0  # atno 10765 bound_to 10752
  140.8263  133.8030  155.9712 H   0  0  0  0  0  0  0  0  0  0  0  0  # atno 11005 bound_to 11000
  145.9810  139.2941  143.1042 LP  0  0  0  0  0  0  0  0  0  0  0  0  # atno 17320 bound_to 7965
  145.9010  140.9242  143.0503 LP  0  0  0  0  0  0  0  0  0  0  0  0  # atno 17321 bound_to 7965
  140.7298  143.6898  150.7931 LP  0  0  0  0  0  0  0  0  0  0  0  0  # atno 17342 bound_to 10162
  140.0487  143.5272  152.2684 LP  0  0  0  0  0  0  0  0  0  0  0  0  # atno 17343 bound_to 10162
  157.6383  130.8784  149.9400 LP  0  0  0  0  0  0  0  0  0  0  0  0  # atno 17370 bound_to 10713
  156.0909  130.3663  150.0397 LP  0  0  0  0  0  0  0  0  0  0  0  0  # atno 17371 bound_to 10713
  140.9046  134.2336  157.5022 LP  0  0  0  0  0  0  0  0  0  0  0  0  # atno 17394 bound_to 11000
  139.8706  134.9722  156.4764 LP  0  0  0  0  0  0  0  0  0  0  0  0  # atno 17395 bound_to 11000

$$$$
