AV-unprocessed.smi:21|AV-procd|sdf|125|dock7
  -GOLD-   2262015303D 1   1.00000     0.00000
 Structure written by MMmdl.
 62 65  0  0  0  0  0  0  0  0  2 V2000
  144.0976  133.1312  149.8350 C   0  0  0  0  0  0  0  0  0  0  0  0
  144.1984  134.4713  150.2892 O   0  0  0  0  0  0  0  0  0  0  0  0
  145.0158  134.6187  151.4408 C   0  0  1  0  0  0  0  0  0  0  0  0
  145.5470  136.0421  151.5408 C   0  0  0  0  0  0  0  0  0  0  0  0
  145.8855  136.1802  153.0278 C   0  0  1  0  0  0  0  0  0  0  0  0
  145.8996  137.6436  153.5181 C   0  0  0  0  0  0  0  0  0  0  0  0
  146.9189  138.4675  152.8709 N   0  0  0  0  0  0  0  0  0  0  0  0
  146.6070  138.9189  151.5226 C   0  0  0  0  0  0  0  0  0  0  0  0
  147.4156  139.4706  153.6274 C   0  0  0  0  0  0  0  0  0  0  0  0
  146.5958  140.5200  153.8786 N   0  0  0  0  0  0  0  0  0  0  0  0
  147.0323  141.5458  154.6162 C   0  0  0  0  0  0  0  0  0  0  0  0
  148.2276  141.7156  155.1865 N   0  0  0  0  0  0  0  0  0  0  0  0
  149.0510  140.6569  154.9391 C   0  0  0  0  0  0  0  0  0  0  0  0
  148.7304  139.5020  154.1723 C   0  0  0  0  0  0  0  0  0  0  0  0
  149.8196  138.6397  154.1346 N   0  0  0  0  0  0  0  0  0  0  0  0
  150.7316  139.2484  154.8430 C   0  0  0  0  0  0  0  0  0  0  0  0
  150.3512  140.4622  155.3699 N   0  0  0  0  0  0  0  0  0  0  0  0
  151.1587  141.3465  156.1927 C   0  0  0  0  0  0  0  0  0  0  0  0
  150.9480  141.1297  157.7152 C   0  0  1  0  0  0  0  0  0  0  0  0
  151.6129  139.8232  158.2137 C   0  0  0  0  0  0  0  0  0  0  0  0
  152.9454  139.7172  157.7572 O   0  0  0  0  0  0  0  0  0  0  0  0
  151.3643  142.3504  158.5842 C   0  0  2  0  0  0  0  0  0  0  0  0
  151.0848  143.7267  158.0080 C   0  0  0  0  0  0  0  0  0  0  0  0
  151.9078  144.6101  158.9393 C   0  0  0  0  0  0  0  0  0  0  0  0
  153.0647  143.8439  159.2615 O   0  0  0  0  0  0  0  0  0  0  0  0
  152.8474  142.4689  158.9517 C   0  0  0  0  0  0  0  0  0  0  0  0
  144.8535  135.3837  153.7326 N   0  3  2  0  0  0  0  0  0  0  0  0
  145.3358  134.7299  154.9689 C   0  0  0  0  0  0  0  0  0  0  0  0
  144.2458  134.4478  152.7569 C   0  0  0  0  0  0  0  0  0  0  0  0
  145.8626  133.9303  151.4087 H   0  0  0  0  0  0  0  0  0  0  0  0
  146.8533  135.7058  153.2022 H   0  0  0  0  0  0  0  0  0  0  0  0
  143.4724  133.0947  148.9430 H   0  0  0  0  0  0  0  0  0  0  0  0
  143.6433  132.4853  150.5868 H   0  0  0  0  0  0  0  0  0  0  0  0
  145.0770  132.7289  149.5737 H   0  0  0  0  0  0  0  0  0  0  0  0
  146.4048  136.2198  150.8912 H   0  0  0  0  0  0  0  0  0  0  0  0
  144.7645  136.7508  151.2646 H   0  0  0  0  0  0  0  0  0  0  0  0
  144.9236  138.0947  153.3349 H   0  0  0  0  0  0  0  0  0  0  0  0
  146.0443  137.6748  154.5978 H   0  0  0  0  0  0  0  0  0  0  0  0
  147.4342  139.4901  151.0983 H   0  0  0  0  0  0  0  0  0  0  0  0
  145.7155  139.5475  151.5166 H   0  0  0  0  0  0  0  0  0  0  0  0
  146.4252  138.0635  150.8713 H   0  0  0  0  0  0  0  0  0  0  0  0
  146.3219  142.3441  154.7736 H   0  0  0  0  0  0  0  0  0  0  0  0
  151.7108  138.8226  155.0078 H   0  0  0  0  0  0  0  0  0  0  0  0
  152.2031  141.1951  155.9217 H   0  0  0  0  0  0  0  0  0  0  0  0
  150.9066  142.3659  155.9042 H   0  0  0  0  0  0  0  0  0  0  0  0
  149.8737  141.0054  157.8606 H   0  0  0  0  0  0  0  0  0  0  0  0
  151.6514  139.7880  159.3019 H   0  0  0  0  0  0  0  0  0  0  0  0
  151.0481  138.9492  157.8886 H   0  0  0  0  0  0  0  0  0  0  0  0
  153.3606  138.9962  158.2055 H   0  0  0  0  0  0  0  0  0  0  0  0
  150.8062  142.2999  159.5206 H   0  0  0  0  0  0  0  0  0  0  0  0
  151.4671  143.8274  156.9933 H   0  0  0  0  0  0  0  0  0  0  0  0
  150.0253  143.9840  158.0038 H   0  0  0  0  0  0  0  0  0  0  0  0
  152.1737  145.5652  158.4857 H   0  0  0  0  0  0  0  0  0  0  0  0
  151.3559  144.8126  159.8583 H   0  0  0  0  0  0  0  0  0  0  0  0
  153.1144  141.8311  159.7947 H   0  0  0  0  0  0  0  0  0  0  0  0
  153.4968  142.2096  158.1169 H   0  0  0  0  0  0  0  0  0  0  0  0
  146.1184  134.0019  154.7500 H   0  0  0  0  0  0  0  0  0  0  0  0
  144.5171  134.2124  155.4696 H   0  0  0  0  0  0  0  0  0  0  0  0
  145.7389  135.4689  155.6622 H   0  0  0  0  0  0  0  0  0  0  0  0
  143.2028  134.7398  152.6270 H   0  0  0  0  0  0  0  0  0  0  0  0
  144.2553  133.4109  153.0962 H   0  0  0  0  0  0  0  0  0  0  0  0
  144.1207  136.0258  153.9990 H   0  0  0  0  0  0  0  0  0  0  0  0
  1  2  1  0  0  0  0
  1 32  1  0  0  0  0
  1 33  1  0  0  0  0
  1 34  1  0  0  0  0
  2  3  1  0  0  0  0
  3 30  1  0  0  0  0
  3 29  1  0  0  0  0
  3  4  1  0  0  0  0
  4  5  1  0  0  0  0
  4 35  1  0  0  0  0
  4 36  1  0  0  0  0
  5 31  1  0  0  0  0
  5  6  1  0  0  0  0
  5 27  1  0  0  0  0
  6  7  1  0  0  0  0
  6 37  1  0  0  0  0
  6 38  1  0  0  0  0
  7  8  1  0  0  0  0
  7  9  1  0  0  0  0
  8 39  1  0  0  0  0
  8 40  1  0  0  0  0
  8 41  1  0  0  0  0
  9 14  1  0  0  0  0
  9 10  2  0  0  0  0
 10 11  1  0  0  0  0
 11 12  2  0  0  0  0
 11 42  1  0  0  0  0
 12 13  1  0  0  0  0
 13 17  1  0  0  0  0
 13 14  2  0  0  0  0
 14 15  1  0  0  0  0
 15 16  2  0  0  0  0
 16 17  1  0  0  0  0
 16 43  1  0  0  0  0
 17 18  1  0  0  0  0
 18 19  1  0  0  0  0
 18 44  1  0  0  0  0
 18 45  1  0  0  0  0
 19 20  1  0  0  0  0
 19 22  1  0  0  0  0
 19 46  1  0  0  0  0
 20 21  1  0  0  0  0
 20 47  1  0  0  0  0
 20 48  1  0  0  0  0
 21 49  1  0  0  0  0
 22 26  1  0  0  0  0
 22 23  1  0  0  0  0
 22 50  1  0  0  0  0
 23 24  1  0  0  0  0
 23 51  1  0  0  0  0
 23 52  1  0  0  0  0
 24 25  1  0  0  0  0
 24 53  1  0  0  0  0
 24 54  1  0  0  0  0
 25 26  1  0  0  0  0
 26 55  1  0  0  0  0
 26 56  1  0  0  0  0
 27 28  1  0  0  0  0
 27 29  1  0  0  0  0
 27 62  1  0  0  0  0
 28 57  1  0  0  0  0
 28 58  1  0  0  0  0
 28 59  1  0  0  0  0
 29 60  1  0  0  0  0
 29 61  1  0  0  0  0
M  CHG  1  27   1
M  END
> <s_m_source_file>
AV-unprocessed.smi

> <i_m_source_file_index>
21

> <i_lp_mmshare_version>
43012

> <i_f3d_flags>
0

> <s_epik_input>
W0NIM11PW0NASF0xW0NIMl1bQ0BIXShOKFtDSDNdKVtDSDJdMSlbQ0gyXU4oW0NIM10pYyhuW2NIXW4yKWMoYzIzKW5bY0hdbjNbQ0gyXVtDQEhdKFtDSDJdW09IXSlbQ0BASF00W0NIMl1bQ0gyXU9bQ0gyXTQ=

> <s_epik_cmdline>
J2VwaWtfcHl0aG9uJywgJy1waCcsICc3LjAnLCAnLXRuJywgJzgnLCAnLW1hJywgJzIwMCcsICctbWV0YWxfYmluZGluZycsICctaW1hZScsICc8aW5maWxlLm1hZT4nLCAnLW9tYWUnLCAnPG91dGZpbGUubWFlPic=

> <r_lp_tautomer_probability>
1

> <r_epik_Ionization_Penalty>
0.0157465

> <r_epik_Ionization_Penalty_Charging>
0.015354

> <r_epik_Ionization_Penalty_Neutral>
0.000392529

> <r_epik_State_Penalty>
0.0120612

> <r_epik_Charging_Adjusted_Penalty>
0.0274152

> <i_epik_Tot_Q>
1

> <i_epik_Tot_abs_Q>
1

> <r_epik_Metal_State_Penalty>
0.0121253

> <b_epik_Metal_Only>
0

> <s_lp_Force_Field>
OPLS_2005

> <r_lp_Energy>
61.1599

> <b_lp_Chiralities_Consistent>
1

> <s_lp_Variant>
AV-unprocessed.smi:21-5

> <Gold.Version>
5.8.1

> <Gold.Id.Protein>
6NUR|6NUR_protein|mol2

> <Gold.PLP.Fitness>
50.5689

> <Gold.PLP.PLP>
-49.8900

> <Gold.PLP.part.hbond>
-1.0000

> <Gold.PLP.part.metal>
0.0000

> <Gold.PLP.part.buried>
-4.6596

> <Gold.PLP.part.nonpolar>
-45.8752

> <Gold.PLP.part.repulsive>
1.6913

> <Gold.PLP.ligand.clash>
0.0000

> <Gold.PLP.ligand.torsion>
1.6940

> <Gold.PLP.Chemscore.Hbond>
1.0000

> <Gold.PLP.Chemscore.CHOScore>
0.0000

> <Gold.PLP.Chemscore.Metal>
0.0000

> <Gold.Chemscore.Hbonds>
donor molecule, donor type, donor heavy atom, donor atom, acceptor molecule, acceptor atom, score
      P1  H  7997  8010       L1    21  0.75

> <Gold.PLP.Chemscore.Internal.Correction>
1.0670

> <Gold.Rescore>
     Score         DG    S(hbond)    S(metal)    S(lipo)     H(rot)  DE(clash)    DE(int)     intcor
      9.61     -11.53       0.63        0.00     106.86       3.35       0.29       1.63       ----

> <Gold.Chemscore.Fitness>
9.6098

> <Gold.Chemscore.DG>
-11.5348

> <Gold.Chemscore.ZeroCoef>
-5.4800

> <Gold.Chemscore.Hbond>
0.6334

> <Gold.Chemscore.Metal>
0.0000

> <Gold.Chemscore.Lipo>
106.8615

> <Gold.Chemscore.Internal_Hbond>
0.0000

> <Gold.Chemscore.DEClash>
0.2935

> <Gold.Chemscore.DEInternal>
1.6315

> <Gold.Chemscore.Rot>
3.3452

> <Gold.Chemscore.Internal.Correction>
   9.000000E+99

> <Gold.Chemscore.Hbonds>
donor molecule, donor type, donor heavy atom, donor atom, acceptor molecule, acceptor atom, score
      P1  H  7997  8010       L1    21  0.09

> <Gold.Chemscore.Hbond.Weighted>
-2.1157

> <Gold.Chemscore.Metal.Weighted>
-0.0000

> <Gold.Chemscore.Lipo.Weighted>
-12.5028

> <Gold.Chemscore.Internal_Hbond.Weighted>
0.0000

> <Gold.Chemscore.DEClash.Weighted>
0.2935

> <Gold.Chemscore.DEInternal.Weighted>
1.6315

> <Gold.Chemscore.Rot.Weighted>
8.5636

> <Gold.Chemscore.Internal.Correction.Weighted>
   9.000000E+99

> <Gold.Protein.RotatedTorsions>
[ 6907 6896 6895 6894 ] final  179.54 input  -60.11 | X-H torsion
[ 7974 7965 7964 7962 ] final  119.83 input  175.53 | X-H torsion
[ 8008 7997 7996 7995 ] final   57.77 input   59.86 | X-H torsion
[ 10167 10162 10161 10158 ] final   95.66 input  -65.29 | X-H torsion
[ 10718 10713 10712 10709 ] final -111.72 input   66.30 | X-H torsion
[ 10763 10752 10751 10750 ] final -171.73 input  -60.55 | X-H torsion
[ 11005 11000 10999 10996 ] final  119.38 input  -57.11 | X-H torsion

> <Gold.Protein.ActiveResidues>
 VAL166  LYS551  ARG553  GLY616  TRP617  ASP618  TYR619  PRO620  LYS621  CYS622 
 ASP623  PHE694  ASN695  SER759  ASP760  ASP761  ALA762  ILE779  LEU786  VAL792 
 PHE793  MET794  SER795  GLU796  ALA797  LYS798  CYS799  TRP800  GLU811  SER814 

> <Gold.Protein.RotatedAtoms>
  151.6699  133.3314  159.3193 H   0  0  0  0  0  0  0  0  0  0  0  0  # atno 6907 bound_to 6896
  150.7872  134.6871  159.6485 H   0  0  0  0  0  0  0  0  0  0  0  0  # atno 6908 bound_to 6896
  152.3945  134.6392  160.0147 H   0  0  0  0  0  0  0  0  0  0  0  0  # atno 6909 bound_to 6896
  145.1385  139.3283  143.4628 H   0  0  0  0  0  0  0  0  0  0  0  0  # atno 7974 bound_to 7965
  155.5392  140.3484  155.4443 H   0  0  0  0  0  0  0  0  0  0  0  0  # atno 8008 bound_to 7997
  156.0663  140.1352  156.9908 H   0  0  0  0  0  0  0  0  0  0  0  0  # atno 8009 bound_to 7997
  154.4505  140.0975  156.6577 H   0  0  0  0  0  0  0  0  0  0  0  0  # atno 8010 bound_to 7997
  139.7967  144.6830  150.9819 H   0  0  0  0  0  0  0  0  0  0  0  0  # atno 10167 bound_to 10162
  156.0663  130.5882  150.8411 H   0  0  0  0  0  0  0  0  0  0  0  0  # atno 10718 bound_to 10713
  154.6273  135.2882  155.0258 H   0  0  0  0  0  0  0  0  0  0  0  0  # atno 10763 bound_to 10752
  154.1431  135.6515  153.4950 H   0  0  0  0  0  0  0  0  0  0  0  0  # atno 10764 bound_to 10752
  153.0263  135.5337  154.7086 H   0  0  0  0  0  0  0  0  0  0  0  0  # atno 10765 bound_to 10752
  139.9144  134.9628  156.7646 H   0  0  0  0  0  0  0  0  0  0  0  0  # atno 11005 bound_to 11000
  146.3507  140.1412  142.8594 LP  0  0  0  0  0  0  0  0  0  0  0  0  # atno 17320 bound_to 7965
  145.0558  140.9051  143.4968 LP  0  0  0  0  0  0  0  0  0  0  0  0  # atno 17321 bound_to 7965
  140.7820  143.4324  151.0674 LP  0  0  0  0  0  0  0  0  0  0  0  0  # atno 17342 bound_to 10162
  139.7998  143.8100  152.3161 LP  0  0  0  0  0  0  0  0  0  0  0  0  # atno 17343 bound_to 10162
  157.5707  131.0946  150.9422 LP  0  0  0  0  0  0  0  0  0  0  0  0  # atno 17370 bound_to 10713
  156.9639  130.5465  149.5287 LP  0  0  0  0  0  0  0  0  0  0  0  0  # atno 17371 bound_to 10713
  140.6669  133.9594  155.7835 LP  0  0  0  0  0  0  0  0  0  0  0  0  # atno 17394 bound_to 11000
  141.0604  134.0354  157.3666 LP  0  0  0  0  0  0  0  0  0  0  0  0  # atno 17395 bound_to 11000

$$$$
