AV-unprocessed.smi:2825|AV-procd|sdf|10890|dock7
  -GOLD-   2272015333D 1   1.00000     0.00000
 Structure written by MMmdl.
 49 50  0  0  0  0  0  0  0  0  2 V2000
  148.8019  132.4332  153.7245 C   0  0  0  0  0  0  0  0  0  0  0  0
  149.3132  132.9221  155.0833 C   0  0  0  0  0  0  0  0  0  0  0  0
  150.3177  134.0766  154.9528 C   0  0  0  0  0  0  0  0  0  0  0  0
  150.6364  134.8989  156.5763 S   0  0  0  0  0  0  0  0  0  0  0  0
  149.6799  134.3598  157.5551 O   0  0  0  0  0  0  0  0  0  0  0  0
  152.0791  134.8643  156.8642 O   0  0  0  0  0  0  0  0  0  0  0  0
  150.1933  136.5545  156.2841 N   0  0  0  0  0  0  0  0  0  0  0  0
  148.7707  136.9236  156.2950 C   0  0  0  0  0  0  0  0  0  0  0  0
  151.1222  137.4534  155.5638 C   0  0  0  0  0  0  0  0  0  0  0  0
  150.7655  138.9575  155.6462 C   0  0  2  0  0  0  0  0  0  0  0  0
  150.5964  139.4817  154.3453 O   0  0  0  0  0  0  0  0  0  0  0  0
  151.8911  139.7564  156.3334 C   0  0  0  0  0  0  0  0  0  0  0  0
  151.4609  141.0942  156.7618 N   0  0  0  0  0  0  0  0  0  0  0  0
  150.7005  142.0206  156.1172 C   0  0  0  0  0  0  0  0  0  0  0  0
  150.5844  143.0998  156.9399 N   0  3  0  0  0  0  0  0  0  0  0  0
  151.2809  142.8589  158.1262 C   0  0  0  0  0  0  0  0  0  0  0  0
  151.4558  143.6474  159.2574 C   0  0  0  0  0  0  0  0  0  0  0  0
  152.2299  143.1052  160.3083 C   0  0  0  0  0  0  0  0  0  0  0  0
  152.4417  143.9415  161.5589 C   0  0  0  0  0  0  0  0  0  0  0  0
  152.8002  141.8099  160.2022 C   0  0  0  0  0  0  0  0  0  0  0  0
  153.6315  141.2367  161.3374 C   0  0  0  0  0  0  0  0  0  0  0  0
  152.6094  141.0230  159.0440 C   0  0  0  0  0  0  0  0  0  0  0  0
  151.8452  141.5731  158.0182 C   0  0  0  0  0  0  0  0  0  0  0  0
  148.0940  131.6131  153.8483 H   0  0  0  0  0  0  0  0  0  0  0  0
  149.6215  132.0746  153.1010 H   0  0  0  0  0  0  0  0  0  0  0  0
  148.2938  133.2329  153.1848 H   0  0  0  0  0  0  0  0  0  0  0  0
  148.4667  133.2411  155.6922 H   0  0  0  0  0  0  0  0  0  0  0  0
  149.7737  132.0885  155.6132 H   0  0  0  0  0  0  0  0  0  0  0  0
  151.2678  133.7472  154.5340 H   0  0  0  0  0  0  0  0  0  0  0  0
  149.9173  134.8317  154.2761 H   0  0  0  0  0  0  0  0  0  0  0  0
  148.2796  136.5753  155.3864 H   0  0  0  0  0  0  0  0  0  0  0  0
  148.6527  138.0046  156.3738 H   0  0  0  0  0  0  0  0  0  0  0  0
  148.2663  136.4759  157.1510 H   0  0  0  0  0  0  0  0  0  0  0  0
  152.1071  137.3046  156.0078 H   0  0  0  0  0  0  0  0  0  0  0  0
  151.2209  137.1431  154.5235 H   0  0  0  0  0  0  0  0  0  0  0  0
  149.8463  139.1203  156.2070 H   0  0  0  0  0  0  0  0  0  0  0  0
  150.0303  138.9017  153.8594 H   0  0  0  0  0  0  0  0  0  0  0  0
  152.2720  139.2250  157.2065 H   0  0  0  0  0  0  0  0  0  0  0  0
  152.7379  139.8828  155.6569 H   0  0  0  0  0  0  0  0  0  0  0  0
  150.2653  141.9171  155.1336 H   0  0  0  0  0  0  0  0  0  0  0  0
  151.0189  144.6327  159.3313 H   0  0  0  0  0  0  0  0  0  0  0  0
  153.4976  144.1833  161.6809 H   0  0  0  0  0  0  0  0  0  0  0  0
  152.1049  143.4023  162.4443 H   0  0  0  0  0  0  0  0  0  0  0  0
  151.8873  144.8793  161.5108 H   0  0  0  0  0  0  0  0  0  0  0  0
  154.0400  140.2595  161.0782 H   0  0  0  0  0  0  0  0  0  0  0  0
  153.0223  141.1167  162.2336 H   0  0  0  0  0  0  0  0  0  0  0  0
  154.4687  141.8947  161.5717 H   0  0  0  0  0  0  0  0  0  0  0  0
  153.0407  140.0360  158.9637 H   0  0  0  0  0  0  0  0  0  0  0  0
  150.0664  143.9374  156.7067 H   0  0  0  0  0  0  0  0  0  0  0  0
  1  2  1  0  0  0  0
  1 24  1  0  0  0  0
  1 25  1  0  0  0  0
  1 26  1  0  0  0  0
  2  3  1  0  0  0  0
  2 27  1  0  0  0  0
  2 28  1  0  0  0  0
  3  4  1  0  0  0  0
  3 29  1  0  0  0  0
  3 30  1  0  0  0  0
  4  5  2  0  0  0  0
  4  6  2  0  0  0  0
  4  7  1  0  0  0  0
  7  8  1  0  0  0  0
  7  9  1  0  0  0  0
  8 31  1  0  0  0  0
  8 32  1  0  0  0  0
  8 33  1  0  0  0  0
  9 10  1  0  0  0  0
  9 34  1  0  0  0  0
  9 35  1  0  0  0  0
 10 11  1  0  0  0  0
 10 12  1  0  0  0  0
 10 36  1  0  0  0  0
 11 37  1  0  0  0  0
 12 13  1  0  0  0  0
 12 38  1  0  0  0  0
 12 39  1  0  0  0  0
 13 23  1  0  0  0  0
 13 14  1  0  0  0  0
 14 15  2  0  0  0  0
 14 40  1  0  0  0  0
 15 16  1  0  0  0  0
 15 49  1  0  0  0  0
 16 23  2  0  0  0  0
 16 17  1  0  0  0  0
 17 18  2  0  0  0  0
 17 41  1  0  0  0  0
 18 19  1  0  0  0  0
 18 20  1  0  0  0  0
 19 42  1  0  0  0  0
 19 43  1  0  0  0  0
 19 44  1  0  0  0  0
 20 21  1  0  0  0  0
 20 22  2  0  0  0  0
 21 45  1  0  0  0  0
 21 46  1  0  0  0  0
 21 47  1  0  0  0  0
 22 23  1  0  0  0  0
 22 48  1  0  0  0  0
M  CHG  1  15   1
M  END
> <s_m_source_file>
AV-unprocessed.smi

> <i_m_source_file_index>
2825

> <i_lp_mmshare_version>
43012

> <i_f3d_flags>
0

> <s_epik_input>
W0NIM11bQ0gyXVtDSDJdUyg9TykoPU8pTihbQ0gzXSlbQ0gyXVtDQEhdKFtPSF0pW0NIMl1uKFtjSF1uMSljKGMxMilbY0hdYyhbQ0gzXSljKFtjSF0yKVtDSDNd

> <s_epik_cmdline>
J2VwaWtfcHl0aG9uJywgJy1waCcsICc3LjAnLCAnLXRuJywgJzgnLCAnLW1hJywgJzIwMCcsICctbWV0YWxfYmluZGluZycsICctaW1hZScsICc8aW5maWxlLm1hZT4nLCAnLW9tYWUnLCAnPG91dGZpbGUubWFlPic=

> <r_epik_Ionization_Penalty>
1.0773

> <r_epik_Ionization_Penalty_Charging>
1.0773

> <r_epik_Ionization_Penalty_Neutral>
1.44651e-06

> <r_epik_State_Penalty>
1.13242

> <r_epik_Charging_Adjusted_Penalty>
2.20972

> <i_epik_Tot_Q>
1

> <i_epik_Tot_abs_Q>
1

> <r_epik_Metal_State_Penalty>
5.13045

> <b_epik_Metal_Only>
0

> <s_lp_Force_Field>
OPLS_2005

> <r_lp_Energy>
13.8299

> <b_lp_Chiralities_Consistent>
1

> <s_lp_Variant>
AV-unprocessed.smi:2825-3

> <Gold.Version>
5.8.1

> <Gold.Id.Protein>
6NUR|6NUR_protein|mol2

> <Gold.PLP.Fitness>
59.7603

> <Gold.PLP.PLP>
-47.3383

> <Gold.PLP.part.hbond>
-4.2647

> <Gold.PLP.part.metal>
0.0000

> <Gold.PLP.part.buried>
-7.2221

> <Gold.PLP.part.nonpolar>
-34.9835

> <Gold.PLP.part.repulsive>
0.0185

> <Gold.PLP.ligand.clash>
0.0000

> <Gold.PLP.ligand.torsion>
2.4490

> <Gold.PLP.Chemscore.Hbond>
4.9520

> <Gold.PLP.Chemscore.CHOScore>
0.0000

> <Gold.PLP.Chemscore.Metal>
0.0000

> <Gold.Chemscore.Hbonds>
donor molecule, donor type, donor heavy atom, donor atom, acceptor molecule, acceptor atom, score
      L1  H    15    49       P1  8028  1.98
      P1  H  6896  6907       L1     5  0.93
      P1  H  7989  7998       L1    11  1.00
      P1  H 10752 10765       L1     6  0.76

> <Gold.PLP.Chemscore.Internal.Correction>
2.4640

> <Gold.Rescore>
     Score         DG    S(hbond)    S(metal)    S(lipo)     H(rot)  DE(clash)    DE(int)     intcor
     22.15     -24.57       3.71        0.00     112.22       2.51       0.03       2.40       ----

> <Gold.Chemscore.Fitness>
22.1507

> <Gold.Chemscore.DG>
-24.5737

> <Gold.Chemscore.ZeroCoef>
-5.4800

> <Gold.Chemscore.Hbond>
3.7097

> <Gold.Chemscore.Metal>
0.0000

> <Gold.Chemscore.Lipo>
112.2241

> <Gold.Chemscore.Internal_Hbond>
0.0000

> <Gold.Chemscore.DEClash>
0.0270

> <Gold.Chemscore.DEInternal>
2.3960

> <Gold.Chemscore.Rot>
2.5106

> <Gold.Chemscore.Internal.Correction>
   9.000000E+99

> <Gold.Chemscore.Hbonds>
donor molecule, donor type, donor heavy atom, donor atom, acceptor molecule, acceptor atom, score
      L1  H    15    49       P1  8028  0.93
      P1  H  6896  6907       L1     5  0.56
      P1  H  7989  7998       L1    11  0.98
      P1  H 10752 10765       L1     6  0.63

> <Gold.Chemscore.Hbond.Weighted>
-12.3905

> <Gold.Chemscore.Metal.Weighted>
-0.0000

> <Gold.Chemscore.Lipo.Weighted>
-13.1302

> <Gold.Chemscore.Internal_Hbond.Weighted>
0.0000

> <Gold.Chemscore.DEClash.Weighted>
0.0270

> <Gold.Chemscore.DEInternal.Weighted>
2.3960

> <Gold.Chemscore.Rot.Weighted>
6.4271

> <Gold.Chemscore.Internal.Correction.Weighted>
   9.000000E+99

> <Gold.Protein.RotatedTorsions>
[ 6907 6896 6895 6894 ] final -106.96 input  -60.11 | X-H torsion
[ 7974 7965 7964 7962 ] final   48.43 input  175.53 | X-H torsion
[ 8008 7997 7996 7995 ] final  140.81 input   59.86 | X-H torsion
[ 10167 10162 10161 10158 ] final -142.54 input  -65.29 | X-H torsion
[ 10718 10713 10712 10709 ] final  117.75 input   66.30 | X-H torsion
[ 10763 10752 10751 10750 ] final -138.35 input  -60.55 | X-H torsion
[ 11005 11000 10999 10996 ] final  131.67 input  -57.11 | X-H torsion

> <Gold.Protein.ActiveResidues>
 VAL166  LYS551  ARG553  GLY616  TRP617  ASP618  TYR619  PRO620  LYS621  CYS622 
 ASP623  PHE694  ASN695  SER759  ASP760  ASP761  ALA762  ILE779  LEU786  VAL792 
 PHE793  MET794  SER795  GLU796  ALA797  LYS798  CYS799  TRP800  GLU811  SER814 

> <Gold.Protein.RotatedAtoms>
  150.7417  133.9899  159.3603 H   0  0  0  0  0  0  0  0  0  0  0  0  # atno 6907 bound_to 6896
  151.7846  135.0750  160.0388 H   0  0  0  0  0  0  0  0  0  0  0  0  # atno 6908 bound_to 6896
  152.3250  133.5859  159.5807 H   0  0  0  0  0  0  0  0  0  0  0  0  # atno 6909 bound_to 6896
  146.0205  139.4646  142.9900 H   0  0  0  0  0  0  0  0  0  0  0  0  # atno 7974 bound_to 7965
  156.2974  140.2331  156.4462 H   0  0  0  0  0  0  0  0  0  0  0  0  # atno 8008 bound_to 7997
  154.8142  140.0441  157.1385 H   0  0  0  0  0  0  0  0  0  0  0  0  # atno 8009 bound_to 7997
  154.9388  140.3026  155.5134 H   0  0  0  0  0  0  0  0  0  0  0  0  # atno 8010 bound_to 7997
  139.8079  143.7743  152.2662 H   0  0  0  0  0  0  0  0  0  0  0  0  # atno 10167 bound_to 10162
  157.6076  131.1040  150.7659 H   0  0  0  0  0  0  0  0  0  0  0  0  # atno 10718 bound_to 10713
  154.8639  135.3615  154.5371 H   0  0  0  0  0  0  0  0  0  0  0  0  # atno 10763 bound_to 10752
  153.5994  135.7013  153.5395 H   0  0  0  0  0  0  0  0  0  0  0  0  # atno 10764 bound_to 10752
  153.3304  135.4126  155.1452 H   0  0  0  0  0  0  0  0  0  0  0  0  # atno 10765 bound_to 10752
  139.9744  134.9568  156.9471 H   0  0  0  0  0  0  0  0  0  0  0  0  # atno 11005 bound_to 11000
  145.7200  141.0078  143.1407 LP  0  0  0  0  0  0  0  0  0  0  0  0  # atno 17320 bound_to 7965
  144.6988  139.8859  143.7450 LP  0  0  0  0  0  0  0  0  0  0  0  0  # atno 17321 bound_to 7965
  139.7883  144.7419  150.9990 LP  0  0  0  0  0  0  0  0  0  0  0  0  # atno 17342 bound_to 10162
  140.7819  143.4469  151.0470 LP  0  0  0  0  0  0  0  0  0  0  0  0  # atno 17343 bound_to 10162
  156.8043  130.4931  149.5365 LP  0  0  0  0  0  0  0  0  0  0  0  0  # atno 17370 bound_to 10713
  156.1167  130.6080  151.0132 LP  0  0  0  0  0  0  0  0  0  0  0  0  # atno 17371 bound_to 10713
  140.5226  134.0893  155.7295 LP  0  0  0  0  0  0  0  0  0  0  0  0  # atno 17394 bound_to 11000
  141.1422  133.9118  157.2300 LP  0  0  0  0  0  0  0  0  0  0  0  0  # atno 17395 bound_to 11000

$$$$
