AV-unprocessed.smi:1412|AV-procd|sdf|5740|dock3
  -GOLD-   22720 5373D 1   1.00000     0.00000
 Structure written by MMmdl.
 41 42  0  0  0  0  0  0  0  0  1 V2000
  151.4635  138.0294  154.3792 C   0  0  0  0  0  0  0  0  0  0  0  0
  150.3881  139.0606  153.9861 C   0  0  0  0  0  0  0  0  0  0  0  0
  149.2376  139.3447  155.0111 C   0  0  1  0  0  0  0  0  0  0  0  0
  148.0916  140.0747  154.2650 C   0  0  0  0  0  0  0  0  0  0  0  0
  148.6701  137.9784  155.5032 C   0  0  0  0  0  0  0  0  0  0  0  0
  148.1078  137.1958  154.4052 N   0  0  0  0  0  0  0  0  0  0  0  0
  146.8997  136.6177  154.4043 C   0  0  0  0  0  0  0  0  0  0  0  0
  146.1262  136.6566  155.3610 O   0  0  0  0  0  0  0  0  0  0  0  0
  146.6580  136.0059  153.2337 N   0  0  0  0  0  0  0  0  0  0  0  0
  145.4831  135.3210  152.8343 C   0  0  0  0  0  0  0  0  0  0  0  0
  144.5432  135.0935  153.7592 N   0  0  0  0  0  0  0  0  0  0  0  0
  143.4512  134.4122  153.2353 N   0  0  0  0  0  0  0  0  0  0  0  0
  143.6112  134.1514  151.9344 C   0  0  0  0  0  0  0  0  0  0  0  0
  145.1115  134.7128  151.2183 S   0  0  0  0  0  0  0  0  0  0  0  0
  149.7640  140.1467  156.1591 N   0  0  0  0  0  0  0  0  0  0  0  0
  150.8193  139.4918  156.9443 C   0  0  0  0  0  0  0  0  0  0  0  0
  151.2257  140.3147  158.1788 C   0  0  0  0  0  0  0  0  0  0  0  0
  151.6403  141.6132  157.7760 O   0  0  0  0  0  0  0  0  0  0  0  0
  150.6206  142.3088  157.0713 C   0  0  0  0  0  0  0  0  0  0  0  0
  150.2125  141.5060  155.8245 C   0  0  0  0  0  0  0  0  0  0  0  0
  152.1447  137.8615  153.5450 H   0  0  0  0  0  0  0  0  0  0  0  0
  151.0321  137.0639  154.6402 H   0  0  0  0  0  0  0  0  0  0  0  0
  152.0740  138.3696  155.2152 H   0  0  0  0  0  0  0  0  0  0  0  0
  150.8958  139.9952  153.7432 H   0  0  0  0  0  0  0  0  0  0  0  0
  149.9623  138.7046  153.0484 H   0  0  0  0  0  0  0  0  0  0  0  0
  147.6839  139.4646  153.4595 H   0  0  0  0  0  0  0  0  0  0  0  0
  148.4244  141.0089  153.8134 H   0  0  0  0  0  0  0  0  0  0  0  0
  147.2544  140.3055  154.9227 H   0  0  0  0  0  0  0  0  0  0  0  0
  149.4321  137.3807  156.0017 H   0  0  0  0  0  0  0  0  0  0  0  0
  147.9222  138.1373  156.2806 H   0  0  0  0  0  0  0  0  0  0  0  0
  148.6793  137.1101  153.5772 H   0  0  0  0  0  0  0  0  0  0  0  0
  147.3917  136.0478  152.5419 H   0  0  0  0  0  0  0  0  0  0  0  0
  142.8397  133.6244  151.3927 H   0  0  0  0  0  0  0  0  0  0  0  0
  150.4959  138.5168  157.3023 H   0  0  0  0  0  0  0  0  0  0  0  0
  151.7019  139.3275  156.3262 H   0  0  0  0  0  0  0  0  0  0  0  0
  150.3949  140.3913  158.8820 H   0  0  0  0  0  0  0  0  0  0  0  0
  152.0461  139.8267  158.7050 H   0  0  0  0  0  0  0  0  0  0  0  0
  149.7615  142.4718  157.7240 H   0  0  0  0  0  0  0  0  0  0  0  0
  150.9945  143.2910  156.7827 H   0  0  0  0  0  0  0  0  0  0  0  0
  151.0608  141.4679  155.1415 H   0  0  0  0  0  0  0  0  0  0  0  0
  149.4269  142.0686  155.3255 H   0  0  0  0  0  0  0  0  0  0  0  0
  1  2  1  0  0  0  0
  1 21  1  0  0  0  0
  1 22  1  0  0  0  0
  1 23  1  0  0  0  0
  2  3  1  0  0  0  0
  2 24  1  0  0  0  0
  2 25  1  0  0  0  0
  3  4  1  0  0  0  0
  3  5  1  0  0  0  0
  3 15  1  0  0  0  0
  4 26  1  0  0  0  0
  4 27  1  0  0  0  0
  4 28  1  0  0  0  0
  5  6  1  0  0  0  0
  5 29  1  0  0  0  0
  5 30  1  0  0  0  0
  6  7  1  0  0  0  0
  6 31  1  0  0  0  0
  7  8  2  0  0  0  0
  7  9  1  0  0  0  0
  9 10  1  0  0  0  0
  9 32  1  0  0  0  0
 10 14  1  0  0  0  0
 10 11  2  0  0  0  0
 11 12  1  0  0  0  0
 12 13  2  0  0  0  0
 13 14  1  0  0  0  0
 13 33  1  0  0  0  0
 15 20  1  0  0  0  0
 15 16  1  0  0  0  0
 16 17  1  0  0  0  0
 16 34  1  0  0  0  0
 16 35  1  0  0  0  0
 17 18  1  0  0  0  0
 17 36  1  0  0  0  0
 17 37  1  0  0  0  0
 18 19  1  0  0  0  0
 19 20  1  0  0  0  0
 19 38  1  0  0  0  0
 19 39  1  0  0  0  0
 20 40  1  0  0  0  0
 20 41  1  0  0  0  0
M  END
> <s_m_source_file>
AV-unprocessed.smi

> <i_m_source_file_index>
1412

> <i_lp_mmshare_version>
43012

> <i_f3d_flags>
0

> <s_epik_input>
W0NIMl0xW0NIMl1PW0NIMl1bQ0gyXU4xW0NAQF0oW0NIM10pKFtDSDJdW0NIM10pW0NIMl1bTkhdQyg9TylbTkhdYzJubltjSF1zMg==

> <s_epik_cmdline>
J2VwaWtfcHl0aG9uJywgJy1waCcsICc3LjAnLCAnLXRuJywgJzgnLCAnLW1hJywgJzIwMCcsICctbWV0YWxfYmluZGluZycsICctaW1hZScsICc8aW5maWxlLm1hZT4nLCAnLW9tYWUnLCAnPG91dGZpbGUubWFlPic=

> <r_lp_tautomer_probability>
1

> <r_epik_Ionization_Penalty>
0.295854

> <r_epik_Ionization_Penalty_Charging>
0

> <r_epik_Ionization_Penalty_Neutral>
0.295854

> <r_epik_State_Penalty>
0.288723

> <r_epik_Charging_Adjusted_Penalty>
0.288723

> <i_epik_Tot_Q>
0

> <i_epik_Tot_abs_Q>
0

> <r_epik_Metal_State_Penalty>
0.510549

> <b_epik_Metal_Only>
0

> <s_lp_Force_Field>
OPLS_2005

> <r_lp_Energy>
43.1066

> <b_lp_Chiralities_Consistent>
1

> <s_lp_Variant>
AV-unprocessed.smi:1412-1

> <Gold.Version>
5.8.1

> <Gold.Id.Protein>
6NUR|6NUR_protein|mol2

> <Gold.PLP.Fitness>
34.3385

> <Gold.PLP.PLP>
-25.8164

> <Gold.PLP.part.hbond>
-2.0000

> <Gold.PLP.part.metal>
0.0000

> <Gold.PLP.part.buried>
-4.5508

> <Gold.PLP.part.nonpolar>
-20.4597

> <Gold.PLP.part.repulsive>
0.2227

> <Gold.PLP.ligand.clash>
0.0000

> <Gold.PLP.ligand.torsion>
0.2410

> <Gold.PLP.Chemscore.Hbond>
1.9760

> <Gold.PLP.Chemscore.CHOScore>
1.0000

> <Gold.PLP.Chemscore.Metal>
0.0000

> <Gold.Chemscore.Hbonds>
donor molecule, donor type, donor heavy atom, donor atom, acceptor molecule, acceptor atom, score
      L1  H     6    31       P1  7948  0.96
      L1  H     9    32       P1  7948  1.00
      L1  C    13    33       P1 10186  0.56

> <Gold.PLP.Chemscore.Internal.Correction>
0.0761

> <Gold.Rescore>
     Score         DG    S(hbond)    S(metal)    S(lipo)     H(rot)  DE(clash)    DE(int)     intcor
     12.76     -14.63       1.97        0.00      62.75       1.86       0.00       1.87       ----

> <Gold.Chemscore.Fitness>
12.7609

> <Gold.Chemscore.DG>
-14.6317

> <Gold.Chemscore.ZeroCoef>
-5.4800

> <Gold.Chemscore.Hbond>
1.9681

> <Gold.Chemscore.Metal>
0.0000

> <Gold.Chemscore.Lipo>
62.7514

> <Gold.Chemscore.Internal_Hbond>
0.0000

> <Gold.Chemscore.DEClash>
0.0038

> <Gold.Chemscore.DEInternal>
1.8669

> <Gold.Chemscore.Rot>
1.8609

> <Gold.Chemscore.Internal.Correction>
   9.000000E+99

> <Gold.Chemscore.Hbonds>
donor molecule, donor type, donor heavy atom, donor atom, acceptor molecule, acceptor atom, score
      L1  H     6    31       P1  7948  0.92
      L1  H     9    32       P1  7948  1.00

> <Gold.Chemscore.Hbond.Weighted>
-6.5735

> <Gold.Chemscore.Metal.Weighted>
-0.0000

> <Gold.Chemscore.Lipo.Weighted>
-7.3419

> <Gold.Chemscore.Internal_Hbond.Weighted>
0.0000

> <Gold.Chemscore.DEClash.Weighted>
0.0038

> <Gold.Chemscore.DEInternal.Weighted>
1.8669

> <Gold.Chemscore.Rot.Weighted>
4.7638

> <Gold.Chemscore.Internal.Correction.Weighted>
   9.000000E+99

> <Gold.Protein.RotatedTorsions>
[ 6907 6896 6895 6894 ] final  -51.02 input  -60.11 | X-H torsion
[ 7974 7965 7964 7962 ] final   15.75 input  175.53 | X-H torsion
[ 8008 7997 7996 7995 ] final  -26.01 input   59.86 | X-H torsion
[ 10167 10162 10161 10158 ] final   14.20 input  -65.29 | X-H torsion
[ 10718 10713 10712 10709 ] final  -39.38 input   66.30 | X-H torsion
[ 10763 10752 10751 10750 ] final -176.43 input  -60.55 | X-H torsion
[ 11005 11000 10999 10996 ] final   57.57 input  -57.11 | X-H torsion

> <Gold.Protein.ActiveResidues>
 VAL166  LYS551  ARG553  GLY616  TRP617  ASP618  TYR619  PRO620  LYS621  CYS622 
 ASP623  PHE694  ASN695  SER759  ASP760  ASP761  ALA762  ILE779  LEU786  VAL792 
 PHE793  MET794  SER795  GLU796  ALA797  LYS798  CYS799  TRP800  GLU811  SER814 

> <Gold.Protein.RotatedAtoms>
  150.8651  134.8013  159.7112 H   0  0  0  0  0  0  0  0  0  0  0  0  # atno 6907 bound_to 6896
  152.4675  134.5036  159.9742 H   0  0  0  0  0  0  0  0  0  0  0  0  # atno 6908 bound_to 6896
  151.5134  133.3442  159.2924 H   0  0  0  0  0  0  0  0  0  0  0  0  # atno 6909 bound_to 6896
  146.2269  139.8849  142.8564 H   0  0  0  0  0  0  0  0  0  0  0  0  # atno 7974 bound_to 7965
  154.4447  140.1911  156.0708 H   0  0  0  0  0  0  0  0  0  0  0  0  # atno 8008 bound_to 7997
  156.0512  140.3308  155.7327 H   0  0  0  0  0  0  0  0  0  0  0  0  # atno 8009 bound_to 7997
  155.5553  140.0598  157.2831 H   0  0  0  0  0  0  0  0  0  0  0  0  # atno 8010 bound_to 7997
  140.5951  143.8717  150.6911 H   0  0  0  0  0  0  0  0  0  0  0  0  # atno 10167 bound_to 10162
  156.2931  130.4231  149.8218 H   0  0  0  0  0  0  0  0  0  0  0  0  # atno 10718 bound_to 10713
  154.5725  135.2829  155.0813 H   0  0  0  0  0  0  0  0  0  0  0  0  # atno 10763 bound_to 10752
  154.2181  135.6396  153.5140 H   0  0  0  0  0  0  0  0  0  0  0  0  # atno 10764 bound_to 10752
  153.0062  135.5508  154.6352 H   0  0  0  0  0  0  0  0  0  0  0  0  # atno 10765 bound_to 10752
  140.0443  134.5829  155.9343 H   0  0  0  0  0  0  0  0  0  0  0  0  # atno 11005 bound_to 11000
  145.2476  141.0032  143.3900 LP  0  0  0  0  0  0  0  0  0  0  0  0  # atno 17320 bound_to 7965
  144.9401  139.4199  143.6453 LP  0  0  0  0  0  0  0  0  0  0  0  0  # atno 17321 bound_to 7965
  140.2249  143.3780  152.1613 LP  0  0  0  0  0  0  0  0  0  0  0  0  # atno 17342 bound_to 10162
  139.5253  144.7094  151.5253 LP  0  0  0  0  0  0  0  0  0  0  0  0  # atno 17343 bound_to 10162
  156.5624  130.8389  151.3332 LP  0  0  0  0  0  0  0  0  0  0  0  0  # atno 17370 bound_to 10713
  157.7348  130.9752  150.2047 LP  0  0  0  0  0  0  0  0  0  0  0  0  # atno 17371 bound_to 10713
  141.1899  133.6566  156.5387 LP  0  0  0  0  0  0  0  0  0  0  0  0  # atno 17394 bound_to 11000
  140.4019  134.7349  157.4785 LP  0  0  0  0  0  0  0  0  0  0  0  0  # atno 17395 bound_to 11000

$$$$
