AV-unprocessed.smi:2254|AV-procd|sdf|9123|dock8
  -GOLD-   2272012323D 1   1.00000     0.00000
 Structure written by MMmdl.
 41 42  0  0  0  0  0  0  0  0  1 V2000
  148.6272  134.1959  157.7040 C   0  0  0  0  0  0  0  0  0  0  0  0
  149.3950  135.4727  157.4103 C   0  0  0  0  0  0  0  0  0  0  0  0
  149.2066  136.5144  158.3234 N   0  0  0  0  0  0  0  0  0  0  0  0
  149.8102  137.6441  158.1463 C   0  0  0  0  0  0  0  0  0  0  0  0
  150.6601  137.8617  157.0503 N   0  0  0  0  0  0  0  0  0  0  0  0
  151.2807  139.1927  156.9607 C   0  0  0  0  0  0  0  0  0  0  0  0
  150.5381  140.1120  155.9631 C   0  0  2  0  0  0  0  0  0  0  0  0
  150.9959  139.8335  154.6552 O   0  0  0  0  0  0  0  0  0  0  0  0
  150.8038  141.6002  156.2349 C   0  0  0  0  0  0  0  0  0  0  0  0
  151.0388  141.7641  157.6232 O   0  0  0  0  0  0  0  0  0  0  0  0
  151.6883  142.9831  157.9420 C   0  0  0  0  0  0  0  0  0  0  0  0
  152.1662  143.0175  159.3822 C   0  0  0  0  0  0  0  0  0  0  0  0
  153.0311  142.0177  159.8789 C   0  0  0  0  0  0  0  0  0  0  0  0
  153.4559  142.0509  161.2213 C   0  0  0  0  0  0  0  0  0  0  0  0
  153.0134  143.0793  162.0758 C   0  0  0  0  0  0  0  0  0  0  0  0
  153.5328  143.1189  163.7208 Cl  0  0  0  0  0  0  0  0  0  0  0  0
  152.1437  144.0736  161.5872 C   0  0  0  0  0  0  0  0  0  0  0  0
  151.7191  144.0408  160.2444 C   0  0  0  0  0  0  0  0  0  0  0  0
  150.9174  136.8924  156.1248 C   0  0  0  0  0  0  0  0  0  0  0  0
  151.6878  137.0858  155.1820 O   0  0  0  0  0  0  0  0  0  0  0  0
  150.2170  135.6150  156.3346 C   0  0  0  0  0  0  0  0  0  0  0  0
  150.4585  134.5169  155.3064 C   0  0  0  0  0  0  0  0  0  0  0  0
  149.3147  133.3646  157.8615 H   0  0  0  0  0  0  0  0  0  0  0  0
  147.9645  133.9491  156.8741 H   0  0  0  0  0  0  0  0  0  0  0  0
  148.0146  134.2980  158.6006 H   0  0  0  0  0  0  0  0  0  0  0  0
  149.7006  138.4871  158.8308 H   0  0  0  0  0  0  0  0  0  0  0  0
  151.2657  139.6394  157.9567 H   0  0  0  0  0  0  0  0  0  0  0  0
  152.3450  139.1376  156.7210 H   0  0  0  0  0  0  0  0  0  0  0  0
  149.4611  139.9406  155.9923 H   0  0  0  0  0  0  0  0  0  0  0  0
  150.2888  139.4413  154.1661 H   0  0  0  0  0  0  0  0  0  0  0  0
  151.6576  141.9538  155.6543 H   0  0  0  0  0  0  0  0  0  0  0  0
  149.9368  142.1965  155.9451 H   0  0  0  0  0  0  0  0  0  0  0  0
  152.5427  143.1256  157.2780 H   0  0  0  0  0  0  0  0  0  0  0  0
  151.0074  143.8208  157.7844 H   0  0  0  0  0  0  0  0  0  0  0  0
  153.3741  141.2209  159.2352 H   0  0  0  0  0  0  0  0  0  0  0  0
  154.1199  141.2849  161.5940 H   0  0  0  0  0  0  0  0  0  0  0  0
  151.8002  144.8614  162.2414 H   0  0  0  0  0  0  0  0  0  0  0  0
  151.0493  144.8051  159.8781 H   0  0  0  0  0  0  0  0  0  0  0  0
  150.1155  134.8419  154.3236 H   0  0  0  0  0  0  0  0  0  0  0  0
  149.9466  133.5857  155.5429 H   0  0  0  0  0  0  0  0  0  0  0  0
  151.5238  134.2949  155.2358 H   0  0  0  0  0  0  0  0  0  0  0  0
  1  2  1  0  0  0  0
  1 23  1  0  0  0  0
  1 24  1  0  0  0  0
  1 25  1  0  0  0  0
  2 21  2  0  0  0  0
  2  3  1  0  0  0  0
  3  4  2  0  0  0  0
  4  5  1  0  0  0  0
  4 26  1  0  0  0  0
  5  6  1  0  0  0  0
  5 19  1  0  0  0  0
  6  7  1  0  0  0  0
  6 27  1  0  0  0  0
  6 28  1  0  0  0  0
  7  8  1  0  0  0  0
  7  9  1  0  0  0  0
  7 29  1  0  0  0  0
  8 30  1  0  0  0  0
  9 10  1  0  0  0  0
  9 31  1  0  0  0  0
  9 32  1  0  0  0  0
 10 11  1  0  0  0  0
 11 12  1  0  0  0  0
 11 33  1  0  0  0  0
 11 34  1  0  0  0  0
 12 18  1  0  0  0  0
 12 13  2  0  0  0  0
 13 14  1  0  0  0  0
 13 35  1  0  0  0  0
 14 15  2  0  0  0  0
 14 36  1  0  0  0  0
 15 16  1  0  0  0  0
 15 17  1  0  0  0  0
 17 18  2  0  0  0  0
 17 37  1  0  0  0  0
 18 38  1  0  0  0  0
 19 20  2  0  0  0  0
 19 21  1  0  0  0  0
 21 22  1  0  0  0  0
 22 39  1  0  0  0  0
 22 40  1  0  0  0  0
 22 41  1  0  0  0  0
M  END
> <s_m_source_file>
AV-unprocessed.smi

> <i_m_source_file_index>
2254

> <i_lp_mmshare_version>
43012

> <i_f3d_flags>
0

> <s_epik_input>
W0NIM11jMW5bY0hdbihjKD1PKWMxW0NIM10pW0NIMl1bQ0BIXShbT0hdKVtDSDJdT1tDSDJdYzJbY0hdW2NIXWMoQ2wpW2NIXVtjSF0y

> <s_epik_cmdline>
J2VwaWtfcHl0aG9uJywgJy1waCcsICc3LjAnLCAnLXRuJywgJzgnLCAnLW1hJywgJzIwMCcsICctbWV0YWxfYmluZGluZycsICctaW1hZScsICc8aW5maWxlLm1hZT4nLCAnLW9tYWUnLCAnPG91dGZpbGUubWFlPic=

> <r_lp_tautomer_probability>
1

> <r_epik_Ionization_Penalty>
5.36e-05

> <r_epik_Ionization_Penalty_Charging>
1.17753e-07

> <r_epik_Ionization_Penalty_Neutral>
5.34822e-05

> <r_epik_State_Penalty>
-0

> <r_epik_Charging_Adjusted_Penalty>
1.17753e-07

> <i_epik_Tot_Q>
0

> <i_epik_Tot_abs_Q>
0

> <r_epik_Metal_State_Penalty>
-0

> <b_epik_Metal_Only>
0

> <s_lp_Force_Field>
OPLS_2005

> <r_lp_Energy>
20.9698

> <b_lp_Chiralities_Consistent>
1

> <s_lp_Variant>
AV-unprocessed.smi:2254-1

> <Gold.Version>
5.8.1

> <Gold.Id.Protein>
6NUR|6NUR_protein|mol2

> <Gold.PLP.Fitness>
48.5131

> <Gold.PLP.PLP>
-44.4866

> <Gold.PLP.part.hbond>
-2.0000

> <Gold.PLP.part.metal>
0.0000

> <Gold.PLP.part.buried>
-7.5833

> <Gold.PLP.part.nonpolar>
-34.4322

> <Gold.PLP.part.repulsive>
0.1358

> <Gold.PLP.ligand.clash>
0.0000

> <Gold.PLP.ligand.torsion>
1.0231

> <Gold.PLP.Chemscore.Hbond>
2.0000

> <Gold.PLP.Chemscore.CHOScore>
0.0000

> <Gold.PLP.Chemscore.Metal>
0.0000

> <Gold.Chemscore.Hbonds>
donor molecule, donor type, donor heavy atom, donor atom, acceptor molecule, acceptor atom, score
      P1  H  7989  7998       L1     8  1.00
      P1  H 10752 10763       L1    20  0.96

> <Gold.PLP.Chemscore.Internal.Correction>
0.0726

> <Gold.Rescore>
     Score         DG    S(hbond)    S(metal)    S(lipo)     H(rot)  DE(clash)    DE(int)     intcor
     18.80     -19.87       1.91        0.00     123.63       2.52       0.04       1.02       ----

> <Gold.Chemscore.Fitness>
18.7988

> <Gold.Chemscore.DG>
-19.8675

> <Gold.Chemscore.ZeroCoef>
-5.4800

> <Gold.Chemscore.Hbond>
1.9056

> <Gold.Chemscore.Metal>
0.0000

> <Gold.Chemscore.Lipo>
123.6253

> <Gold.Chemscore.Internal_Hbond>
0.0000

> <Gold.Chemscore.DEClash>
0.0437

> <Gold.Chemscore.DEInternal>
1.0250

> <Gold.Chemscore.Rot>
2.5162

> <Gold.Chemscore.Internal.Correction>
   9.000000E+99

> <Gold.Chemscore.Hbonds>
donor molecule, donor type, donor heavy atom, donor atom, acceptor molecule, acceptor atom, score
      P1  H  7989  7998       L1     8  0.30
      P1  H 10752 10763       L1    20  0.81

> <Gold.Chemscore.Hbond.Weighted>
-6.3648

> <Gold.Chemscore.Metal.Weighted>
-0.0000

> <Gold.Chemscore.Lipo.Weighted>
-14.4642

> <Gold.Chemscore.Internal_Hbond.Weighted>
0.0000

> <Gold.Chemscore.DEClash.Weighted>
0.0437

> <Gold.Chemscore.DEInternal.Weighted>
1.0250

> <Gold.Chemscore.Rot.Weighted>
6.4414

> <Gold.Chemscore.Internal.Correction.Weighted>
   9.000000E+99

> <Gold.Protein.RotatedTorsions>
[ 6907 6896 6895 6894 ] final -146.40 input  -60.11 | X-H torsion
[ 7974 7965 7964 7962 ] final  -16.20 input  175.53 | X-H torsion
[ 8008 7997 7996 7995 ] final   38.45 input   59.86 | X-H torsion
[ 10167 10162 10161 10158 ] final   79.48 input  -65.29 | X-H torsion
[ 10718 10713 10712 10709 ] final   84.57 input   66.30 | X-H torsion
[ 10763 10752 10751 10750 ] final   71.75 input  -60.55 | X-H torsion
[ 11005 11000 10999 10996 ] final  143.80 input  -57.11 | X-H torsion

> <Gold.Protein.ActiveResidues>
 VAL166  LYS551  ARG553  GLY616  TRP617  ASP618  TYR619  PRO620  LYS621  CYS622 
 ASP623  PHE694  ASN695  SER759  ASP760  ASP761  ALA762  ILE779  LEU786  VAL792 
 PHE793  MET794  SER795  GLU796  ALA797  LYS798  CYS799  TRP800  GLU811  SER814 

> <Gold.Protein.RotatedAtoms>
  151.1411  133.4971  159.2596 H   0  0  0  0  0  0  0  0  0  0  0  0  # atno 6907 bound_to 6896
  151.1654  135.0293  159.8738 H   0  0  0  0  0  0  0  0  0  0  0  0  # atno 6908 bound_to 6896
  152.5462  134.1280  159.8480 H   0  0  0  0  0  0  0  0  0  0  0  0  # atno 6909 bound_to 6896
  146.1998  140.3602  142.8427 H   0  0  0  0  0  0  0  0  0  0  0  0  # atno 7974 bound_to 7965
  155.2204  140.3330  155.4316 H   0  0  0  0  0  0  0  0  0  0  0  0  # atno 8008 bound_to 7997
  156.2335  140.1861  156.7227 H   0  0  0  0  0  0  0  0  0  0  0  0  # atno 8009 bound_to 7997
  154.6019  140.0622  156.9365 H   0  0  0  0  0  0  0  0  0  0  0  0  # atno 8010 bound_to 7997
  139.9598  144.5968  150.8082 H   0  0  0  0  0  0  0  0  0  0  0  0  # atno 10167 bound_to 10162
  157.6900  131.0139  150.2692 H   0  0  0  0  0  0  0  0  0  0  0  0  # atno 10718 bound_to 10713
  153.0417  135.5125  154.7640 H   0  0  0  0  0  0  0  0  0  0  0  0  # atno 10763 bound_to 10752
  154.6572  135.2933  154.9915 H   0  0  0  0  0  0  0  0  0  0  0  0  # atno 10764 bound_to 10752
  154.0779  135.6668  153.4886 H   0  0  0  0  0  0  0  0  0  0  0  0  # atno 10765 bound_to 10752
  140.0582  134.9219  157.1138 H   0  0  0  0  0  0  0  0  0  0  0  0  # atno 11005 bound_to 11000
  144.8658  140.7204  143.6078 LP  0  0  0  0  0  0  0  0  0  0  0  0  # atno 17320 bound_to 7965
  145.3522  139.1703  143.4428 LP  0  0  0  0  0  0  0  0  0  0  0  0  # atno 17321 bound_to 7965
  140.7556  143.3050  151.2984 LP  0  0  0  0  0  0  0  0  0  0  0  0  # atno 17342 bound_to 10162
  139.6562  144.0271  152.2661 LP  0  0  0  0  0  0  0  0  0  0  0  0  # atno 17343 bound_to 10162
  156.3258  130.3793  149.7534 LP  0  0  0  0  0  0  0  0  0  0  0  0  # atno 17370 bound_to 10713
  156.5090  130.8163  151.3161 LP  0  0  0  0  0  0  0  0  0  0  0  0  # atno 17371 bound_to 10713
  140.3811  134.2286  155.7171 LP  0  0  0  0  0  0  0  0  0  0  0  0  # atno 17394 bound_to 11000
  141.1961  133.8089  157.0685 LP  0  0  0  0  0  0  0  0  0  0  0  0  # atno 17395 bound_to 11000

$$$$
