AV-unprocessed.smi:34|AV-procd|sdf|223|dock4
  -GOLD-   2262015543D 1   1.00000     0.00000
 Structure written by MMmdl.
 55 59  0  0  0  0  0  0  0  0  1 V2000
  154.3155  139.8887  159.4098 O   0  0  0  0  0  0  0  0  0  0  0  0
  154.1803  140.5704  160.4262 C   0  0  0  0  0  0  0  0  0  0  0  0
  154.7324  140.1663  161.7076 N   0  0  0  0  0  0  0  0  0  0  0  0
  155.4959  139.0837  161.9865 C   0  0  0  0  0  0  0  0  0  0  0  0
  156.8260  139.0387  161.7124 N   0  0  0  0  0  0  0  0  0  0  0  0
  157.5352  137.9447  162.0025 C   0  0  0  0  0  0  0  0  0  0  0  0
  157.1189  136.8053  162.5580 N   0  0  0  0  0  0  0  0  0  0  0  0
  155.7845  136.8394  162.8391 C   0  0  0  0  0  0  0  0  0  0  0  0
  154.9129  137.9358  162.5844 C   0  0  0  0  0  0  0  0  0  0  0  0
  153.6253  137.6199  162.9962 N   0  0  0  0  0  0  0  0  0  0  0  0
  153.7334  136.4065  163.4652 C   0  0  0  0  0  0  0  0  0  0  0  0
  154.9949  135.8562  163.4061 N   0  0  0  0  0  0  0  0  0  0  0  0
  155.3977  134.4838  163.8605 C   0  0  2  0  0  0  0  0  0  0  0  0
  154.5054  133.5331  163.3550 O   0  0  0  0  0  0  0  0  0  0  0  0
  153.8369  132.8754  164.4280 C   0  0  1  0  0  0  0  0  0  0  0  0
  153.4236  131.4535  164.0290 C   0  0  0  0  0  0  0  0  0  0  0  0
  152.9192  130.7735  165.1673 O   0  0  0  0  0  0  0  0  0  0  0  0
  151.6143  130.4445  165.2337 C   0  0  0  0  0  0  0  0  0  0  0  0
  150.8479  130.4959  164.2695 O   0  0  0  0  0  0  0  0  0  0  0  0
  151.1935  130.0075  166.5963 C   0  0  0  0  0  0  0  0  0  0  0  0
  152.1031  130.1255  167.6730 C   0  0  0  0  0  0  0  0  0  0  0  0
  151.7352  129.7204  168.9708 C   0  0  0  0  0  0  0  0  0  0  0  0
  150.4535  129.1911  169.2078 C   0  0  0  0  0  0  0  0  0  0  0  0
  149.5395  129.0680  168.1452 C   0  0  0  0  0  0  0  0  0  0  0  0
  149.9050  129.4740  166.8468 C   0  0  0  0  0  0  0  0  0  0  0  0
  154.8209  132.9645  165.5951 C   0  0  1  0  0  0  0  0  0  0  0  0
  155.7764  132.0392  165.4811 F   0  0  0  0  0  0  0  0  0  0  0  0
  155.4288  134.3404  165.3968 C   0  0  2  0  0  0  0  0  0  0  0  0
  154.6887  135.3264  166.0956 O   0  0  0  0  0  0  0  0  0  0  0  0
  153.3627  141.8294  160.4280 C   0  0  0  0  0  0  0  0  0  0  0  0
  153.1737  142.5470  161.6306 C   0  0  0  0  0  0  0  0  0  0  0  0
  152.3958  143.7210  161.6461 C   0  0  0  0  0  0  0  0  0  0  0  0
  151.7934  144.1833  160.4612 C   0  0  0  0  0  0  0  0  0  0  0  0
  151.9665  143.4687  159.2610 C   0  0  0  0  0  0  0  0  0  0  0  0
  152.7447  142.2945  159.2438 C   0  0  0  0  0  0  0  0  0  0  0  0
  154.5318  140.7771  162.4858 H   0  0  0  0  0  0  0  0  0  0  0  0
  158.5852  137.9880  161.7528 H   0  0  0  0  0  0  0  0  0  0  0  0
  152.8850  135.8711  163.8661 H   0  0  0  0  0  0  0  0  0  0  0  0
  156.3747  134.3215  163.4033 H   0  0  0  0  0  0  0  0  0  0  0  0
  152.9447  133.4516  164.6746 H   0  0  0  0  0  0  0  0  0  0  0  0
  152.6437  131.4934  163.2677 H   0  0  0  0  0  0  0  0  0  0  0  0
  154.2701  130.9159  163.5994 H   0  0  0  0  0  0  0  0  0  0  0  0
  153.0927  130.5297  167.5153 H   0  0  0  0  0  0  0  0  0  0  0  0
  152.4381  129.8165  169.7851 H   0  0  0  0  0  0  0  0  0  0  0  0
  150.1721  128.8802  170.2031 H   0  0  0  0  0  0  0  0  0  0  0  0
  148.5551  128.6614  168.3253 H   0  0  0  0  0  0  0  0  0  0  0  0
  149.1798  129.3648  166.0538 H   0  0  0  0  0  0  0  0  0  0  0  0
  154.3508  132.8253  166.5696 H   0  0  0  0  0  0  0  0  0  0  0  0
  156.4612  134.3837  165.7453 H   0  0  0  0  0  0  0  0  0  0  0  0
  153.8228  135.3730  165.7198 H   0  0  0  0  0  0  0  0  0  0  0  0
  153.6279  142.2047  162.5493 H   0  0  0  0  0  0  0  0  0  0  0  0
  152.2607  144.2661  162.5687 H   0  0  0  0  0  0  0  0  0  0  0  0
  151.1963  145.0831  160.4740 H   0  0  0  0  0  0  0  0  0  0  0  0
  151.4994  143.8193  158.3524 H   0  0  0  0  0  0  0  0  0  0  0  0
  152.8561  141.7568  158.3134 H   0  0  0  0  0  0  0  0  0  0  0  0
  1  2  2  0  0  0  0
  2  3  1  0  0  0  0
  2 30  1  0  0  0  0
  3  4  1  0  0  0  0
  3 36  1  0  0  0  0
  4  9  1  0  0  0  0
  4  5  2  0  0  0  0
  5  6  1  0  0  0  0
  6  7  2  0  0  0  0
  6 37  1  0  0  0  0
  7  8  1  0  0  0  0
  8 12  1  0  0  0  0
  8  9  2  0  0  0  0
  9 10  1  0  0  0  0
 10 11  2  0  0  0  0
 11 12  1  0  0  0  0
 11 38  1  0  0  0  0
 12 13  1  0  0  0  0
 13 28  1  0  0  0  0
 13 14  1  0  0  0  0
 13 39  1  0  0  0  0
 14 15  1  0  0  0  0
 15 16  1  0  0  0  0
 15 26  1  0  0  0  0
 15 40  1  0  0  0  0
 16 17  1  0  0  0  0
 16 41  1  0  0  0  0
 16 42  1  0  0  0  0
 17 18  1  0  0  0  0
 18 19  2  0  0  0  0
 18 20  1  0  0  0  0
 20 25  1  0  0  0  0
 20 21  2  0  0  0  0
 21 22  1  0  0  0  0
 21 43  1  0  0  0  0
 22 23  2  0  0  0  0
 22 44  1  0  0  0  0
 23 24  1  0  0  0  0
 23 45  1  0  0  0  0
 24 25  2  0  0  0  0
 24 46  1  0  0  0  0
 25 47  1  0  0  0  0
 26 27  1  0  0  0  0
 26 28  1  0  0  0  0
 26 48  1  0  0  0  0
 28 29  1  0  0  0  0
 28 49  1  0  0  0  0
 29 50  1  0  0  0  0
 30 35  1  0  0  0  0
 30 31  2  0  0  0  0
 31 32  1  0  0  0  0
 31 51  1  0  0  0  0
 32 33  2  0  0  0  0
 32 52  1  0  0  0  0
 33 34  1  0  0  0  0
 33 53  1  0  0  0  0
 34 35  2  0  0  0  0
 34 54  1  0  0  0  0
 35 55  1  0  0  0  0
M  END
> <s_m_source_file>
AV-unprocessed.smi

> <i_m_source_file_index>
34

> <i_lp_mmshare_version>
43012

> <i_f3d_flags>
0

> <s_epik_input>
W2NIXTFbY0hdW2NIXVtjSF1bY0hdYzFDKD1PKVtOSF1jKG5bY0hdbjIpYyhjMjMpbltjSF1uM1tDQEBIXTRPW0NASF0oW0NAQEhdKEYpW0NASF00W09IXSlbQ0gyXU9DKD1PKWM1W2NIXVtjSF1bY0hdW2NIXVtjSF01

> <s_epik_cmdline>
J2VwaWtfcHl0aG9uJywgJy1waCcsICc3LjAnLCAnLXRuJywgJzgnLCAnLW1hJywgJzIwMCcsICctbWV0YWxfYmluZGluZycsICctaW1hZScsICc8aW5maWxlLm1hZT4nLCAnLW9tYWUnLCAnPG91dGZpbGUubWFlPic=

> <r_lp_tautomer_probability>
1

> <r_epik_Ionization_Penalty>
0.00257489

> <r_epik_Ionization_Penalty_Charging>
0

> <r_epik_Ionization_Penalty_Neutral>
0.00257489

> <r_epik_State_Penalty>
0.00519398

> <r_epik_Charging_Adjusted_Penalty>
0.00519398

> <i_epik_Tot_Q>
0

> <i_epik_Tot_abs_Q>
0

> <r_epik_Metal_State_Penalty>
0.335891

> <b_epik_Metal_Only>
0

> <s_epik_Chemistry_Notes>
This compound has an ester and may undergo hydrolysis at high or low pH. This compound contains an acetal/aminal-like group ( X-CH(R)-Y where X, Y are N, S, or O) that may be acid/base labile, releasing an aldehyde.

> <s_lp_Force_Field>
OPLS_2005

> <r_lp_Energy>
53.1328

> <b_lp_Chiralities_Consistent>
1

> <s_lp_Variant>
AV-unprocessed.smi:34-9

> <Gold.Version>
5.8.1

> <Gold.Id.Protein>
6NUR|6NUR_protein|mol2

> <Gold.PLP.Fitness>
58.9483

> <Gold.PLP.PLP>
-58.8513

> <Gold.PLP.part.hbond>
-1.4086

> <Gold.PLP.part.metal>
0.0000

> <Gold.PLP.part.buried>
-7.6248

> <Gold.PLP.part.nonpolar>
-50.1410

> <Gold.PLP.part.repulsive>
0.0408

> <Gold.PLP.ligand.clash>
0.0104

> <Gold.PLP.ligand.torsion>
1.5240

> <Gold.PLP.Chemscore.Hbond>
0.9675

> <Gold.PLP.Chemscore.CHOScore>
0.0000

> <Gold.PLP.Chemscore.Metal>
0.0000

> <Gold.Chemscore.Hbonds>
donor molecule, donor type, donor heavy atom, donor atom, acceptor molecule, acceptor atom, score
      P1  H  7997  8009       L1     1  0.52

> <Gold.PLP.Chemscore.Internal.Correction>
0.2530

> <Gold.Rescore>
     Score         DG    S(hbond)    S(metal)    S(lipo)     H(rot)  DE(clash)    DE(int)     intcor
     14.53     -19.12       0.98        0.00     148.03       2.72       2.05       2.54       ----

> <Gold.Chemscore.Fitness>
14.5329

> <Gold.Chemscore.DG>
-19.1220

> <Gold.Chemscore.ZeroCoef>
-5.4800

> <Gold.Chemscore.Hbond>
0.9848

> <Gold.Chemscore.Metal>
0.0000

> <Gold.Chemscore.Lipo>
148.0332

> <Gold.Chemscore.Internal_Hbond>
0.0000

> <Gold.Chemscore.DEClash>
2.0460

> <Gold.Chemscore.DEInternal>
2.5431

> <Gold.Chemscore.Rot>
2.7215

> <Gold.Chemscore.Internal.Correction>
   9.000000E+99

> <Gold.Chemscore.Hbonds>
donor molecule, donor type, donor heavy atom, donor atom, acceptor molecule, acceptor atom, score
      P1  H  7997  8009       L1     1  0.50

> <Gold.Chemscore.Hbond.Weighted>
-3.2891

> <Gold.Chemscore.Metal.Weighted>
-0.0000

> <Gold.Chemscore.Lipo.Weighted>
-17.3199

> <Gold.Chemscore.Internal_Hbond.Weighted>
0.0000

> <Gold.Chemscore.DEClash.Weighted>
2.0460

> <Gold.Chemscore.DEInternal.Weighted>
2.5431

> <Gold.Chemscore.Rot.Weighted>
6.9670

> <Gold.Chemscore.Internal.Correction.Weighted>
   9.000000E+99

> <Gold.Protein.RotatedTorsions>
[ 6907 6896 6895 6894 ] final  -66.54 input  -60.11 | X-H torsion
[ 7974 7965 7964 7962 ] final -171.94 input  175.53 | X-H torsion
[ 8008 7997 7996 7995 ] final  117.35 input   59.86 | X-H torsion
[ 10167 10162 10161 10158 ] final  -21.76 input  -65.29 | X-H torsion
[ 10718 10713 10712 10709 ] final  143.10 input   66.30 | X-H torsion
[ 10763 10752 10751 10750 ] final   84.10 input  -60.55 | X-H torsion
[ 11005 11000 10999 10996 ] final  -64.48 input  -57.11 | X-H torsion

> <Gold.Protein.ActiveResidues>
 VAL166  LYS551  ARG553  GLY616  TRP617  ASP618  TYR619  PRO620  LYS621  CYS622 
 ASP623  PHE694  ASN695  SER759  ASP760  ASP761  ALA762  ILE779  LEU786  VAL792 
 PHE793  MET794  SER795  GLU796  ALA797  LYS798  CYS799  TRP800  GLU811  SER814 

> <Gold.Protein.RotatedAtoms>
  150.7460  134.6007  159.6034 H   0  0  0  0  0  0  0  0  0  0  0  0  # atno 6907 bound_to 6896
  152.3369  134.7183  160.0283 H   0  0  0  0  0  0  0  0  0  0  0  0  # atno 6908 bound_to 6896
  151.7648  133.3300  159.3464 H   0  0  0  0  0  0  0  0  0  0  0  0  # atno 6909 bound_to 6896
  144.7151  140.1846  143.6355 H   0  0  0  0  0  0  0  0  0  0  0  0  # atno 7974 bound_to 7965
  156.2489  140.2898  156.0665 H   0  0  0  0  0  0  0  0  0  0  0  0  # atno 8008 bound_to 7997
  155.1718  140.0402  157.2881 H   0  0  0  0  0  0  0  0  0  0  0  0  # atno 8009 bound_to 7997
  154.6321  140.2502  155.7429 H   0  0  0  0  0  0  0  0  0  0  0  0  # atno 8010 bound_to 7997
  140.7283  143.4597  151.0397 H   0  0  0  0  0  0  0  0  0  0  0  0  # atno 10167 bound_to 10162
  157.3729  131.0981  151.0812 H   0  0  0  0  0  0  0  0  0  0  0  0  # atno 10718 bound_to 10713
  153.1351  135.4667  154.9409 H   0  0  0  0  0  0  0  0  0  0  0  0  # atno 10763 bound_to 10752
  154.7698  135.3155  154.8214 H   0  0  0  0  0  0  0  0  0  0  0  0  # atno 10764 bound_to 10752
  153.8749  135.6900  153.4825 H   0  0  0  0  0  0  0  0  0  0  0  0  # atno 10765 bound_to 10752
  141.1426  133.6666  156.5840 H   0  0  0  0  0  0  0  0  0  0  0  0  # atno 11005 bound_to 11000
  145.8824  139.2330  143.1597 LP  0  0  0  0  0  0  0  0  0  0  0  0  # atno 17320 bound_to 7965
  145.9982  140.8544  143.0032 LP  0  0  0  0  0  0  0  0  0  0  0  0  # atno 17321 bound_to 7965
  139.8281  143.7728  152.3179 LP  0  0  0  0  0  0  0  0  0  0  0  0  # atno 17342 bound_to 10162
  139.7834  144.7436  151.0056 LP  0  0  0  0  0  0  0  0  0  0  0  0  # atno 17343 bound_to 10162
  157.1909  130.6351  149.5704 LP  0  0  0  0  0  0  0  0  0  0  0  0  # atno 17370 bound_to 10713
  155.9759  130.4722  150.6492 LP  0  0  0  0  0  0  0  0  0  0  0  0  # atno 17371 bound_to 10713
  140.3815  134.7519  157.4664 LP  0  0  0  0  0  0  0  0  0  0  0  0  # atno 17394 bound_to 11000
  140.0634  134.5964  155.8723 LP  0  0  0  0  0  0  0  0  0  0  0  0  # atno 17395 bound_to 11000

$$$$
