AV-unprocessed.smi:315|AV-procd|sdf|2323|dock3
  -GOLD-   2262022223D 1   1.00000     0.00000
 Structure written by MMmdl.
 47 49  0  0  0  0  0  0  0  0  2 V2000
  152.0470  137.9279  154.4597 C   0  0  0  0  0  0  0  0  0  0  0  0
  151.0416  139.0433  154.7564 C   0  0  0  0  0  0  0  0  0  0  0  0
  149.7978  138.7023  154.1535 O   0  0  0  0  0  0  0  0  0  0  0  0
  148.7975  139.6551  154.1063 C   0  0  0  0  0  0  0  0  0  0  0  0
  149.0505  140.8871  154.6144 N   0  0  0  0  0  0  0  0  0  0  0  0
  148.0716  141.8141  154.5669 C   0  0  0  0  0  0  0  0  0  0  0  0
  146.7980  141.5632  154.0233 C   0  0  0  0  0  0  0  0  0  0  0  0
  146.5332  140.2856  153.4965 C   0  0  0  0  0  0  0  0  0  0  0  0
  147.5562  139.3077  153.5257 C   0  0  0  0  0  0  0  0  0  0  0  0
  147.3962  137.9824  153.0403 N   0  0  0  0  0  0  0  0  0  0  0  0
  146.2607  137.3242  152.7387 C   0  0  0  0  0  0  0  0  0  0  0  0
  145.1280  137.7828  152.8671 O   0  0  0  0  0  0  0  0  0  0  0  0
  146.4603  136.0879  152.2482 N   0  0  0  0  0  0  0  0  0  0  0  0
  145.4488  135.1177  151.8251 C   0  0  1  0  0  0  0  0  0  0  0  0
  144.3696  135.7029  150.8991 C   0  0  0  0  0  0  0  0  0  0  0  0
  144.1031  134.6153  149.8399 C   0  0  0  0  0  0  0  0  0  0  0  0
  144.9064  133.4352  150.2323 N   0  3  2  0  0  0  0  0  0  0  0  0
  144.1015  132.4379  150.9903 C   0  0  0  0  0  0  0  0  0  0  0  0
  144.9753  131.3337  151.5988 C   0  0  0  0  0  0  0  0  0  0  0  0
  146.0317  131.9455  152.5222 C   0  0  0  0  0  0  0  0  0  0  0  0
  146.8919  132.9360  151.7295 C   0  0  0  0  0  0  0  0  0  0  0  0
  146.0592  133.9980  150.9765 C   0  0  2  0  0  0  0  0  0  0  0  0
  153.0168  138.1493  154.9056 H   0  0  0  0  0  0  0  0  0  0  0  0
  152.1924  137.8073  153.3859 H   0  0  0  0  0  0  0  0  0  0  0  0
  151.7034  136.9745  154.8617 H   0  0  0  0  0  0  0  0  0  0  0  0
  150.9249  139.1549  155.8356 H   0  0  0  0  0  0  0  0  0  0  0  0
  151.4134  139.9876  154.3554 H   0  0  0  0  0  0  0  0  0  0  0  0
  148.3085  142.7835  154.9799 H   0  0  0  0  0  0  0  0  0  0  0  0
  146.0402  142.3325  154.0143 H   0  0  0  0  0  0  0  0  0  0  0  0
  145.5532  140.0778  153.0953 H   0  0  0  0  0  0  0  0  0  0  0  0
  148.2554  137.5060  152.8092 H   0  0  0  0  0  0  0  0  0  0  0  0
  147.4218  135.7942  152.1516 H   0  0  0  0  0  0  0  0  0  0  0  0
  144.9708  134.6751  152.7008 H   0  0  0  0  0  0  0  0  0  0  0  0
  143.4675  135.9467  151.4613 H   0  0  0  0  0  0  0  0  0  0  0  0
  144.7093  136.6191  150.4135 H   0  0  0  0  0  0  0  0  0  0  0  0
  143.0419  134.3853  149.7347 H   0  0  0  0  0  0  0  0  0  0  0  0
  144.4561  134.9601  148.8672 H   0  0  0  0  0  0  0  0  0  0  0  0
  143.5440  132.9357  151.7855 H   0  0  0  0  0  0  0  0  0  0  0  0
  143.3615  131.9972  150.3214 H   0  0  0  0  0  0  0  0  0  0  0  0
  144.3537  130.6329  152.1573 H   0  0  0  0  0  0  0  0  0  0  0  0
  145.4577  130.7597  150.8065 H   0  0  0  0  0  0  0  0  0  0  0  0
  145.5505  132.4483  153.3619 H   0  0  0  0  0  0  0  0  0  0  0  0
  146.6595  131.1621  152.9475 H   0  0  0  0  0  0  0  0  0  0  0  0
  147.6128  133.4195  152.3895 H   0  0  0  0  0  0  0  0  0  0  0  0
  147.4810  132.3758  151.0021 H   0  0  0  0  0  0  0  0  0  0  0  0
  146.7121  134.4607  150.2333 H   0  0  0  0  0  0  0  0  0  0  0  0
  145.2509  132.9732  149.4027 H   0  0  0  0  0  0  0  0  0  0  0  0
  1  2  1  0  0  0  0
  1 23  1  0  0  0  0
  1 24  1  0  0  0  0
  1 25  1  0  0  0  0
  2  3  1  0  0  0  0
  2 26  1  0  0  0  0
  2 27  1  0  0  0  0
  3  4  1  0  0  0  0
  4  9  1  0  0  0  0
  4  5  2  0  0  0  0
  5  6  1  0  0  0  0
  6  7  2  0  0  0  0
  6 28  1  0  0  0  0
  7  8  1  0  0  0  0
  7 29  1  0  0  0  0
  8  9  2  0  0  0  0
  8 30  1  0  0  0  0
  9 10  1  0  0  0  0
 10 11  1  0  0  0  0
 10 31  1  0  0  0  0
 11 12  2  0  0  0  0
 11 13  1  0  0  0  0
 13 14  1  0  0  0  0
 13 32  1  0  0  0  0
 14 22  1  0  0  0  0
 14 15  1  0  0  0  0
 14 33  1  0  0  0  0
 15 16  1  0  0  0  0
 15 34  1  0  0  0  0
 15 35  1  0  0  0  0
 16 17  1  0  0  0  0
 16 36  1  0  0  0  0
 16 37  1  0  0  0  0
 17 22  1  0  0  0  0
 17 18  1  0  0  0  0
 17 47  1  0  0  0  0
 18 19  1  0  0  0  0
 18 38  1  0  0  0  0
 18 39  1  0  0  0  0
 19 20  1  0  0  0  0
 19 40  1  0  0  0  0
 19 41  1  0  0  0  0
 20 21  1  0  0  0  0
 20 42  1  0  0  0  0
 20 43  1  0  0  0  0
 21 22  1  0  0  0  0
 21 44  1  0  0  0  0
 21 45  1  0  0  0  0
 22 46  1  0  0  0  0
M  CHG  1  17   1
M  END
> <s_m_source_file>
AV-unprocessed.smi

> <i_m_source_file_index>
315

> <i_lp_mmshare_version>
43012

> <i_f3d_flags>
0

> <s_epik_input>
W0NIM11bQ0gyXU9jMW5bY0hdW2NIXVtjSF1jMVtOSF1DKD1PKVtOSF1bQ0BIXShbQ0gyXVtDSDJdMilbQ0BASF0oTjIzKVtDSDJdW0NIMl1bQ0gyXVtDSDJdMw==

> <s_epik_cmdline>
J2VwaWtfcHl0aG9uJywgJy1waCcsICc3LjAnLCAnLXRuJywgJzgnLCAnLW1hJywgJzIwMCcsICctbWV0YWxfYmluZGluZycsICctaW1hZScsICc8aW5maWxlLm1hZT4nLCAnLW9tYWUnLCAnPG91dGZpbGUubWFlPic=

> <r_lp_tautomer_probability>
1

> <r_epik_Ionization_Penalty>
0.00106455

> <r_epik_Ionization_Penalty_Charging>
0.000974069

> <r_epik_Ionization_Penalty_Neutral>
9.04821e-05

> <r_epik_State_Penalty>
0.000633842

> <r_epik_Charging_Adjusted_Penalty>
0.00160791

> <i_epik_Tot_Q>
1

> <i_epik_Tot_abs_Q>
1

> <r_epik_Metal_State_Penalty>
-0

> <b_epik_Metal_Only>
0

> <s_lp_Force_Field>
OPLS_2005

> <r_lp_Energy>
51.0433

> <b_lp_Chiralities_Consistent>
1

> <s_lp_Variant>
AV-unprocessed.smi:315-8

> <Gold.Version>
5.8.1

> <Gold.Id.Protein>
6NUR|6NUR_protein|mol2

> <Gold.PLP.Fitness>
42.5329

> <Gold.PLP.PLP>
-34.3513

> <Gold.PLP.part.hbond>
-2.3659

> <Gold.PLP.part.metal>
0.0000

> <Gold.PLP.part.buried>
2.5138

> <Gold.PLP.part.nonpolar>
-35.7148

> <Gold.PLP.part.repulsive>
1.1160

> <Gold.PLP.ligand.clash>
0.0000

> <Gold.PLP.ligand.torsion>
0.2507

> <Gold.PLP.Chemscore.Hbond>
1.8880

> <Gold.PLP.Chemscore.CHOScore>
1.0000

> <Gold.PLP.Chemscore.Metal>
0.0000

> <Gold.Chemscore.Hbonds>
donor molecule, donor type, donor heavy atom, donor atom, acceptor molecule, acceptor atom, score
      L1  H    10    31       P1  7948  0.90
      L1  H    13    32       P1  7948  0.96
      L1  C     6    28       P1  8028  1.00

> <Gold.PLP.Chemscore.Internal.Correction>
0.0190

> <Gold.Rescore>
     Score         DG    S(hbond)    S(metal)    S(lipo)     H(rot)  DE(clash)    DE(int)     intcor
     15.69     -18.91       1.85        0.00      92.04       1.38       0.87       2.35       ----

> <Gold.Chemscore.Fitness>
15.6870

> <Gold.Chemscore.DG>
-18.9119

> <Gold.Chemscore.ZeroCoef>
-5.4800

> <Gold.Chemscore.Hbond>
1.8528

> <Gold.Chemscore.Metal>
0.0000

> <Gold.Chemscore.Lipo>
92.0401

> <Gold.Chemscore.Internal_Hbond>
0.0000

> <Gold.Chemscore.DEClash>
0.8745

> <Gold.Chemscore.DEInternal>
2.3505

> <Gold.Chemscore.Rot>
1.3770

> <Gold.Chemscore.Internal.Correction>
   9.000000E+99

> <Gold.Chemscore.Hbonds>
donor molecule, donor type, donor heavy atom, donor atom, acceptor molecule, acceptor atom, score
      L1  H    10    31       P1  7948  0.88
      L1  H    13    32       P1  7948  0.91

> <Gold.Chemscore.Hbond.Weighted>
-6.1884

> <Gold.Chemscore.Metal.Weighted>
-0.0000

> <Gold.Chemscore.Lipo.Weighted>
-10.7687

> <Gold.Chemscore.Internal_Hbond.Weighted>
0.0000

> <Gold.Chemscore.DEClash.Weighted>
0.8745

> <Gold.Chemscore.DEInternal.Weighted>
2.3505

> <Gold.Chemscore.Rot.Weighted>
3.5252

> <Gold.Chemscore.Internal.Correction.Weighted>
   9.000000E+99

> <Gold.Protein.RotatedTorsions>
[ 6907 6896 6895 6894 ] final  135.37 input  -60.11 | X-H torsion
[ 7974 7965 7964 7962 ] final  -54.92 input  175.53 | X-H torsion
[ 8008 7997 7996 7995 ] final    4.06 input   59.86 | X-H torsion
[ 10167 10162 10161 10158 ] final  147.99 input  -65.29 | X-H torsion
[ 10718 10713 10712 10709 ] final   97.54 input   66.30 | X-H torsion
[ 10763 10752 10751 10750 ] final -142.73 input  -60.55 | X-H torsion
[ 11005 11000 10999 10996 ] final  -33.04 input  -57.11 | X-H torsion

> <Gold.Protein.ActiveResidues>
 VAL166  LYS551  ARG553  GLY616  TRP617  ASP618  TYR619  PRO620  LYS621  CYS622 
 ASP623  PHE694  ASN695  SER759  ASP760  ASP761  ALA762  ILE779  LEU786  VAL792 
 PHE793  MET794  SER795  GLU796  ALA797  LYS798  CYS799  TRP800  GLU811  SER814 

> <Gold.Protein.RotatedAtoms>
  152.3011  133.5656  159.5618 H   0  0  0  0  0  0  0  0  0  0  0  0  # atno 6907 bound_to 6896
  150.7278  134.0290  159.3736 H   0  0  0  0  0  0  0  0  0  0  0  0  # atno 6908 bound_to 6896
  151.8189  135.0658  160.0473 H   0  0  0  0  0  0  0  0  0  0  0  0  # atno 6909 bound_to 6896
  145.8801  140.8151  142.9844 H   0  0  0  0  0  0  0  0  0  0  0  0  # atno 7974 bound_to 7965
  154.7113  140.2693  155.6626 H   0  0  0  0  0  0  0  0  0  0  0  0  # atno 8008 bound_to 7997
  156.2796  140.2752  156.1680 H   0  0  0  0  0  0  0  0  0  0  0  0  # atno 8009 bound_to 7997
  155.0631  140.0371  157.2573 H   0  0  0  0  0  0  0  0  0  0  0  0  # atno 8010 bound_to 7997
  139.4881  144.5713  151.7049 H   0  0  0  0  0  0  0  0  0  0  0  0  # atno 10167 bound_to 10162
  157.6911  131.0612  150.4660 H   0  0  0  0  0  0  0  0  0  0  0  0  # atno 10718 bound_to 10713
  154.8498  135.3488  154.6074 H   0  0  0  0  0  0  0  0  0  0  0  0  # atno 10763 bound_to 10752
  153.6683  135.6986  153.5160 H   0  0  0  0  0  0  0  0  0  0  0  0  # atno 10764 bound_to 10752
  153.2763  135.4277  155.0993 H   0  0  0  0  0  0  0  0  0  0  0  0  # atno 10765 bound_to 10752
  140.9602  133.7169  156.1356 H   0  0  0  0  0  0  0  0  0  0  0  0  # atno 11005 bound_to 11000
  144.6727  140.1370  143.7440 LP  0  0  0  0  0  0  0  0  0  0  0  0  # atno 17320 bound_to 7965
  145.9034  139.2444  143.1480 LP  0  0  0  0  0  0  0  0  0  0  0  0  # atno 17321 bound_to 7965
  140.5301  144.0744  150.6051 LP  0  0  0  0  0  0  0  0  0  0  0  0  # atno 17342 bound_to 10162
  140.3731  143.2843  152.0256 LP  0  0  0  0  0  0  0  0  0  0  0  0  # atno 17343 bound_to 10162
  156.5001  130.4115  149.6358 LP  0  0  0  0  0  0  0  0  0  0  0  0  # atno 17370 bound_to 10713
  156.3336  130.7345  151.2278 LP  0  0  0  0  0  0  0  0  0  0  0  0  # atno 17371 bound_to 10713
  140.7479  134.4078  157.5545 LP  0  0  0  0  0  0  0  0  0  0  0  0  # atno 17394 bound_to 11000
  139.8875  134.8880  156.2523 LP  0  0  0  0  0  0  0  0  0  0  0  0  # atno 17395 bound_to 11000

$$$$
