AV-unprocessed.smi:1279|AV-procd|sdf|5356|dock2
  -GOLD-   22720 4493D 1   1.00000     0.00000
 Structure written by MMmdl.
 46 47  0  0  0  0  0  0  0  0  2 V2000
  151.9812  141.6412  157.8823 C   0  0  0  0  0  0  0  0  0  0  0  0
  151.5023  140.8673  156.6898 C   0  0  0  0  0  0  0  0  0  0  0  0
  150.2996  141.0537  155.9480 C   0  0  0  0  0  0  0  0  0  0  0  0
  150.3851  140.0837  154.9871 C   0  0  0  0  0  0  0  0  0  0  0  0
  149.5125  139.7924  153.9861 N   0  0  0  0  0  0  0  0  0  0  0  0
  148.3276  139.1614  154.0621 C   0  0  0  0  0  0  0  0  0  0  0  0
  147.8137  138.7240  155.0918 O   0  0  0  0  0  0  0  0  0  0  0  0
  147.7572  139.0524  152.8536 N   0  0  0  0  0  0  0  0  0  0  0  0
  146.4703  138.4179  152.5918 C   0  0  0  0  0  0  0  0  0  0  0  0
  146.3188  137.1003  153.3770 C   0  0  0  0  0  0  0  0  0  0  0  0
  146.1186  135.9280  152.4879 N   0  3  2  0  0  0  0  0  0  0  0  0
  145.0758  136.1791  151.4594 C   0  0  0  0  0  0  0  0  0  0  0  0
  144.9714  135.0067  150.4672 C   0  0  0  0  0  0  0  0  0  0  0  0
  144.7169  133.6646  151.1762 C   0  0  2  0  0  0  0  0  0  0  0  0
  143.2761  133.5326  151.7007 C   0  0  0  0  0  0  0  0  0  0  0  0
  145.7739  133.4618  152.2768 C   0  0  0  0  0  0  0  0  0  0  0  0
  145.8608  134.6661  153.2317 C   0  0  0  0  0  0  0  0  0  0  0  0
  151.5596  139.3860  155.1624 N   0  0  0  0  0  0  0  0  0  0  0  0
  152.0952  138.2764  154.3979 C   0  0  0  0  0  0  0  0  0  0  0  0
  152.2473  139.8742  156.2173 N   0  0  0  0  0  0  0  0  0  0  0  0
  151.2717  142.4221  158.1563 H   0  0  0  0  0  0  0  0  0  0  0  0
  152.9395  142.1204  157.6804 H   0  0  0  0  0  0  0  0  0  0  0  0
  152.1076  140.9904  158.7478 H   0  0  0  0  0  0  0  0  0  0  0  0
  149.5213  141.7839  156.1102 H   0  0  0  0  0  0  0  0  0  0  0  0
  149.8060  140.0814  153.0646 H   0  0  0  0  0  0  0  0  0  0  0  0
  148.2453  139.4407  152.0595 H   0  0  0  0  0  0  0  0  0  0  0  0
  145.6595  139.1057  152.8387 H   0  0  0  0  0  0  0  0  0  0  0  0
  146.4118  138.2417  151.5186 H   0  0  0  0  0  0  0  0  0  0  0  0
  147.1814  136.9318  154.0238 H   0  0  0  0  0  0  0  0  0  0  0  0
  145.4553  137.1931  154.0370 H   0  0  0  0  0  0  0  0  0  0  0  0
  144.1158  136.3575  151.9459 H   0  0  0  0  0  0  0  0  0  0  0  0
  145.3188  137.0868  150.9055 H   0  0  0  0  0  0  0  0  0  0  0  0
  144.1863  135.2033  149.7363 H   0  0  0  0  0  0  0  0  0  0  0  0
  145.9009  134.9402  149.8999 H   0  0  0  0  0  0  0  0  0  0  0  0
  144.8508  132.8714  150.4396 H   0  0  0  0  0  0  0  0  0  0  0  0
  143.0382  134.2877  152.4492 H   0  0  0  0  0  0  0  0  0  0  0  0
  143.1144  132.5553  152.1565 H   0  0  0  0  0  0  0  0  0  0  0  0
  142.5550  133.6361  150.8892 H   0  0  0  0  0  0  0  0  0  0  0  0
  145.5635  132.5517  152.8397 H   0  0  0  0  0  0  0  0  0  0  0  0
  146.7489  133.3099  151.8117 H   0  0  0  0  0  0  0  0  0  0  0  0
  146.6586  134.4814  153.9500 H   0  0  0  0  0  0  0  0  0  0  0  0
  144.9401  134.7617  153.8086 H   0  0  0  0  0  0  0  0  0  0  0  0
  151.3360  137.5010  154.2935 H   0  0  0  0  0  0  0  0  0  0  0  0
  152.9663  137.8504  154.8980 H   0  0  0  0  0  0  0  0  0  0  0  0
  152.3893  138.6243  153.4073 H   0  0  0  0  0  0  0  0  0  0  0  0
  146.9839  135.8018  151.9822 H   0  0  0  0  0  0  0  0  0  0  0  0
  1  2  1  0  0  0  0
  1 21  1  0  0  0  0
  1 22  1  0  0  0  0
  1 23  1  0  0  0  0
  2 20  2  0  0  0  0
  2  3  1  0  0  0  0
  3  4  2  0  0  0  0
  3 24  1  0  0  0  0
  4  5  1  0  0  0  0
  4 18  1  0  0  0  0
  5  6  1  0  0  0  0
  5 25  1  0  0  0  0
  6  7  2  0  0  0  0
  6  8  1  0  0  0  0
  8  9  1  0  0  0  0
  8 26  1  0  0  0  0
  9 10  1  0  0  0  0
  9 27  1  0  0  0  0
  9 28  1  0  0  0  0
 10 11  1  0  0  0  0
 10 29  1  0  0  0  0
 10 30  1  0  0  0  0
 11 17  1  0  0  0  0
 11 12  1  0  0  0  0
 11 46  1  0  0  0  0
 12 13  1  0  0  0  0
 12 31  1  0  0  0  0
 12 32  1  0  0  0  0
 13 14  1  0  0  0  0
 13 33  1  0  0  0  0
 13 34  1  0  0  0  0
 14 15  1  0  0  0  0
 14 16  1  0  0  0  0
 14 35  1  0  0  0  0
 15 36  1  0  0  0  0
 15 37  1  0  0  0  0
 15 38  1  0  0  0  0
 16 17  1  0  0  0  0
 16 39  1  0  0  0  0
 16 40  1  0  0  0  0
 17 41  1  0  0  0  0
 17 42  1  0  0  0  0
 18 19  1  0  0  0  0
 18 20  1  0  0  0  0
 19 43  1  0  0  0  0
 19 44  1  0  0  0  0
 19 45  1  0  0  0  0
M  CHG  1  11   1
M  END
> <s_m_source_file>
AV-unprocessed.smi

> <i_m_source_file_index>
1279

> <i_lp_mmshare_version>
43012

> <i_f3d_flags>
0

> <s_epik_input>
W0NIM11jMVtjSF1jKG4objEpW0NIM10pW05IXUMoPU8pW05IXVtDSDJdW0NIMl1OMltDSDJdW0NIMl1bQ0hdKFtDSDNdKVtDSDJdW0NIMl0y

> <s_epik_cmdline>
J2VwaWtfcHl0aG9uJywgJy1waCcsICc3LjAnLCAnLXRuJywgJzgnLCAnLW1hJywgJzIwMCcsICctbWV0YWxfYmluZGluZycsICctaW1hZScsICc8aW5maWxlLm1hZT4nLCAnLW9tYWUnLCAnPG91dGZpbGUubWFlPic=

> <r_lp_tautomer_probability>
1

> <r_epik_Ionization_Penalty>
0.00166091

> <r_epik_Ionization_Penalty_Charging>
0.0015841

> <r_epik_Ionization_Penalty_Neutral>
7.68112e-05

> <r_epik_State_Penalty>
0.00106518

> <r_epik_Charging_Adjusted_Penalty>
0.00264928

> <i_epik_Tot_Q>
1

> <i_epik_Tot_abs_Q>
1

> <r_epik_Metal_State_Penalty>
-0

> <b_epik_Metal_Only>
0

> <s_lp_Force_Field>
OPLS_2005

> <r_lp_Energy>
19.8524

> <b_lp_Chiralities_Consistent>
1

> <s_lp_Variant>
AV-unprocessed.smi:1279-2

> <Gold.Version>
5.8.1

> <Gold.Id.Protein>
6NUR|6NUR_protein|mol2

> <Gold.PLP.Fitness>
48.0091

> <Gold.PLP.PLP>
-35.6076

> <Gold.PLP.part.hbond>
-4.5214

> <Gold.PLP.part.metal>
0.0000

> <Gold.PLP.part.buried>
-1.9040

> <Gold.PLP.part.nonpolar>
-28.9016

> <Gold.PLP.part.repulsive>
0.2549

> <Gold.PLP.ligand.clash>
0.0000

> <Gold.PLP.ligand.torsion>
1.2294

> <Gold.PLP.Chemscore.Hbond>
4.9433

> <Gold.PLP.Chemscore.CHOScore>
0.0000

> <Gold.PLP.Chemscore.Metal>
0.0000

> <Gold.Chemscore.Hbonds>
donor molecule, donor type, donor heavy atom, donor atom, acceptor molecule, acceptor atom, score
      L1  H     5    25       P1  7957  1.00
      L1  H     8    26       P1  7957  1.00
      L1  H    11    46       P1  7948  1.95
      P1  H  7997  8010       L1    20  0.81

> <Gold.PLP.Chemscore.Internal.Correction>
0.0305

> <Gold.Rescore>
     Score         DG    S(hbond)    S(metal)    S(lipo)     H(rot)  DE(clash)    DE(int)     intcor
     19.26     -22.16       3.63        0.00      71.49       1.48       0.34       2.56       ----

> <Gold.Chemscore.Fitness>
19.2604

> <Gold.Chemscore.DG>
-22.1612

> <Gold.Chemscore.ZeroCoef>
-5.4800

> <Gold.Chemscore.Hbond>
3.6273

> <Gold.Chemscore.Metal>
0.0000

> <Gold.Chemscore.Lipo>
71.4904

> <Gold.Chemscore.Internal_Hbond>
0.0000

> <Gold.Chemscore.DEClash>
0.3442

> <Gold.Chemscore.DEInternal>
2.5567

> <Gold.Chemscore.Rot>
1.4838

> <Gold.Chemscore.Internal.Correction>
   9.000000E+99

> <Gold.Chemscore.Hbonds>
donor molecule, donor type, donor heavy atom, donor atom, acceptor molecule, acceptor atom, score
      L1  H     5    25       P1  7957  0.95
      L1  H     8    26       P1  7957  0.99
      L1  H    11    46       P1  7948  0.90
      P1  H  7997  8010       L1    20  0.74

> <Gold.Chemscore.Hbond.Weighted>
-12.1153

> <Gold.Chemscore.Metal.Weighted>
-0.0000

> <Gold.Chemscore.Lipo.Weighted>
-8.3644

> <Gold.Chemscore.Internal_Hbond.Weighted>
0.0000

> <Gold.Chemscore.DEClash.Weighted>
0.3442

> <Gold.Chemscore.DEInternal.Weighted>
2.5567

> <Gold.Chemscore.Rot.Weighted>
3.7985

> <Gold.Chemscore.Internal.Correction.Weighted>
   9.000000E+99

> <Gold.Protein.RotatedTorsions>
[ 6907 6896 6895 6894 ] final -122.60 input  -60.11 | X-H torsion
[ 7974 7965 7964 7962 ] final  -16.95 input  175.53 | X-H torsion
[ 8008 7997 7996 7995 ] final   79.17 input   59.86 | X-H torsion
[ 10167 10162 10161 10158 ] final   89.63 input  -65.29 | X-H torsion
[ 10718 10713 10712 10709 ] final  178.31 input   66.30 | X-H torsion
[ 10763 10752 10751 10750 ] final  116.67 input  -60.55 | X-H torsion
[ 11005 11000 10999 10996 ] final   52.29 input  -57.11 | X-H torsion

> <Gold.Protein.ActiveResidues>
 VAL166  LYS551  ARG553  GLY616  TRP617  ASP618  TYR619  PRO620  LYS621  CYS622 
 ASP623  PHE694  ASN695  SER759  ASP760  ASP761  ALA762  ILE779  LEU786  VAL792 
 PHE793  MET794  SER795  GLU796  ALA797  LYS798  CYS799  TRP800  GLU811  SER814 

> <Gold.Protein.RotatedAtoms>
  150.8591  133.7670  159.2998 H   0  0  0  0  0  0  0  0  0  0  0  0  # atno 6907 bound_to 6896
  151.5318  135.1067  159.9914 H   0  0  0  0  0  0  0  0  0  0  0  0  # atno 6908 bound_to 6896
  152.4612  133.7783  159.6893 H   0  0  0  0  0  0  0  0  0  0  0  0  # atno 6909 bound_to 6896
  146.1964  140.3709  142.8439 H   0  0  0  0  0  0  0  0  0  0  0  0  # atno 7974 bound_to 7965
  155.8660  140.3451  155.5788 H   0  0  0  0  0  0  0  0  0  0  0  0  # atno 8008 bound_to 7997
  155.7880  140.0867  157.2043 H   0  0  0  0  0  0  0  0  0  0  0  0  # atno 8009 bound_to 7997
  154.4014  140.1488  156.3117 H   0  0  0  0  0  0  0  0  0  0  0  0  # atno 8010 bound_to 7997
  139.8554  144.6572  150.9120 H   0  0  0  0  0  0  0  0  0  0  0  0  # atno 10167 bound_to 10162
  156.8925  130.9852  151.3047 H   0  0  0  0  0  0  0  0  0  0  0  0  # atno 10718 bound_to 10713
  153.5407  135.3559  155.2717 H   0  0  0  0  0  0  0  0  0  0  0  0  # atno 10763 bound_to 10752
  154.8717  135.4090  154.3047 H   0  0  0  0  0  0  0  0  0  0  0  0  # atno 10764 bound_to 10752
  153.3754  135.7066  153.6674 H   0  0  0  0  0  0  0  0  0  0  0  0  # atno 10765 bound_to 10752
  140.0862  134.5271  155.8897 H   0  0  0  0  0  0  0  0  0  0  0  0  # atno 11005 bound_to 11000
  144.8589  140.7111  143.6120 LP  0  0  0  0  0  0  0  0  0  0  0  0  # atno 17320 bound_to 7965
  145.3630  139.1677  143.4373 LP  0  0  0  0  0  0  0  0  0  0  0  0  # atno 17321 bound_to 7965
  140.7782  143.3791  151.1510 LP  0  0  0  0  0  0  0  0  0  0  0  0  # atno 17342 bound_to 10162
  139.7425  143.8903  152.3054 LP  0  0  0  0  0  0  0  0  0  0  0  0  # atno 17343 bound_to 10162
  157.6075  130.8558  149.8898 LP  0  0  0  0  0  0  0  0  0  0  0  0  # atno 17370 bound_to 10713
  156.0622  130.3698  150.0957 LP  0  0  0  0  0  0  0  0  0  0  0  0  # atno 17371 bound_to 10713
  141.2063  133.6654  156.6234 LP  0  0  0  0  0  0  0  0  0  0  0  0  # atno 17394 bound_to 11000
  140.3417  134.7843  157.4402 LP  0  0  0  0  0  0  0  0  0  0  0  0  # atno 17395 bound_to 11000

$$$$
