AV-unprocessed.smi:1019|AV-procd|sdf|4443|dock4
  -GOLD-   22720 2403D 1   1.00000     0.00000
 Structure written by MMmdl.
 44 46  0  0  0  0  0  0  0  0  2 V2000
  148.8960  141.7434  157.3086 C   0  0  0  0  0  0  0  0  0  0  0  0
  149.9627  142.1996  156.3865 N   0  3  1  0  0  0  0  0  0  0  0  0
  151.3272  141.9396  156.9138 C   0  0  0  0  0  0  0  0  0  0  0  0
  151.6632  142.8473  158.0834 C   0  0  0  0  0  0  0  0  0  0  0  0
  151.9801  142.2878  159.3393 C   0  0  0  0  0  0  0  0  0  0  0  0
  152.2973  143.1247  160.4268 C   0  0  0  0  0  0  0  0  0  0  0  0
  152.2971  144.5235  160.2633 C   0  0  0  0  0  0  0  0  0  0  0  0
  151.9781  145.0856  159.0120 C   0  0  0  0  0  0  0  0  0  0  0  0
  151.6605  144.2497  157.9239 C   0  0  0  0  0  0  0  0  0  0  0  0
  149.7650  141.6876  155.0062 C   0  0  0  0  0  0  0  0  0  0  0  0
  149.5109  140.1675  154.9811 C   0  0  2  0  0  0  0  0  0  0  0  0
  150.1971  139.6111  153.8755 O   0  0  0  0  0  0  0  0  0  0  0  0
  148.0095  139.8384  154.8726 C   0  0  0  0  0  0  0  0  0  0  0  0
  147.2134  140.9945  154.5006 N   0  0  0  0  0  0  0  0  0  0  0  0
  147.1798  141.6005  153.2981 C   0  0  0  0  0  0  0  0  0  0  0  0
  146.3810  142.6555  153.1687 N   0  0  0  0  0  0  0  0  0  0  0  0
  145.8282  142.7442  154.4346 C   0  0  0  0  0  0  0  0  0  0  0  0
  144.8916  143.6608  154.9639 C   0  0  0  0  0  0  0  0  0  0  0  0
  144.4670  143.5544  156.3046 C   0  0  0  0  0  0  0  0  0  0  0  0
  144.9710  142.5328  157.1355 C   0  0  0  0  0  0  0  0  0  0  0  0
  145.9057  141.6081  156.6312 C   0  0  0  0  0  0  0  0  0  0  0  0
  146.3270  141.7176  155.2925 C   0  0  0  0  0  0  0  0  0  0  0  0
  148.9241  140.6602  157.4334 H   0  0  0  0  0  0  0  0  0  0  0  0
  147.9121  142.0184  156.9271 H   0  0  0  0  0  0  0  0  0  0  0  0
  148.9974  142.2042  158.2910 H   0  0  0  0  0  0  0  0  0  0  0  0
  151.4236  140.8919  157.2034 H   0  0  0  0  0  0  0  0  0  0  0  0
  152.0773  142.1101  156.1421 H   0  0  0  0  0  0  0  0  0  0  0  0
  151.9830  141.2153  159.4711 H   0  0  0  0  0  0  0  0  0  0  0  0
  152.5411  142.6940  161.3870 H   0  0  0  0  0  0  0  0  0  0  0  0
  152.5409  145.1650  161.0973 H   0  0  0  0  0  0  0  0  0  0  0  0
  151.9773  146.1585  158.8872 H   0  0  0  0  0  0  0  0  0  0  0  0
  151.4188  144.6889  156.9670 H   0  0  0  0  0  0  0  0  0  0  0  0
  148.9392  142.2262  154.5383 H   0  0  0  0  0  0  0  0  0  0  0  0
  150.6459  141.8993  154.3974 H   0  0  0  0  0  0  0  0  0  0  0  0
  149.9029  139.7026  155.8857 H   0  0  0  0  0  0  0  0  0  0  0  0
  149.6645  139.7166  153.1016 H   0  0  0  0  0  0  0  0  0  0  0  0
  147.8479  139.0603  154.1253 H   0  0  0  0  0  0  0  0  0  0  0  0
  147.6339  139.4432  155.8173 H   0  0  0  0  0  0  0  0  0  0  0  0
  147.7797  141.2490  152.4711 H   0  0  0  0  0  0  0  0  0  0  0  0
  144.4988  144.4476  154.3370 H   0  0  0  0  0  0  0  0  0  0  0  0
  143.7503  144.2604  156.6978 H   0  0  0  0  0  0  0  0  0  0  0  0
  144.6387  142.4595  158.1607 H   0  0  0  0  0  0  0  0  0  0  0  0
  146.2925  140.8258  157.2666 H   0  0  0  0  0  0  0  0  0  0  0  0
  149.8653  143.2032  156.3193 H   0  0  0  0  0  0  0  0  0  0  0  0
  1  2  1  0  0  0  0
  1 23  1  0  0  0  0
  1 24  1  0  0  0  0
  1 25  1  0  0  0  0
  2  3  1  0  0  0  0
  2 10  1  0  0  0  0
  2 44  1  0  0  0  0
  3  4  1  0  0  0  0
  3 26  1  0  0  0  0
  3 27  1  0  0  0  0
  4  9  1  0  0  0  0
  4  5  2  0  0  0  0
  5  6  1  0  0  0  0
  5 28  1  0  0  0  0
  6  7  2  0  0  0  0
  6 29  1  0  0  0  0
  7  8  1  0  0  0  0
  7 30  1  0  0  0  0
  8  9  2  0  0  0  0
  8 31  1  0  0  0  0
  9 32  1  0  0  0  0
 10 11  1  0  0  0  0
 10 33  1  0  0  0  0
 10 34  1  0  0  0  0
 11 12  1  0  0  0  0
 11 13  1  0  0  0  0
 11 35  1  0  0  0  0
 12 36  1  0  0  0  0
 13 14  1  0  0  0  0
 13 37  1  0  0  0  0
 13 38  1  0  0  0  0
 14 22  1  0  0  0  0
 14 15  1  0  0  0  0
 15 16  2  0  0  0  0
 15 39  1  0  0  0  0
 16 17  1  0  0  0  0
 17 22  2  0  0  0  0
 17 18  1  0  0  0  0
 18 19  2  0  0  0  0
 18 40  1  0  0  0  0
 19 20  1  0  0  0  0
 19 41  1  0  0  0  0
 20 21  2  0  0  0  0
 20 42  1  0  0  0  0
 21 22  1  0  0  0  0
 21 43  1  0  0  0  0
M  CHG  1   2   1
M  END
> <s_m_source_file>
AV-unprocessed.smi

> <i_m_source_file_index>
1019

> <i_lp_mmshare_version>
43012

> <i_f3d_flags>
0

> <s_epik_input>
W2NIXTFbY0hdW2NIXVtjSF1bY0hdYzFbQ0gyXU4oW0NIM10pW0NIMl1bQ0BIXShbT0hdKVtDSDJdbihbY0hdbjIpYyhjMjMpW2NIXVtjSF1bY0hdW2NIXTM=

> <s_epik_cmdline>
J2VwaWtfcHl0aG9uJywgJy1waCcsICc3LjAnLCAnLXRuJywgJzgnLCAnLW1hJywgJzIwMCcsICctbWV0YWxfYmluZGluZycsICctaW1hZScsICc8aW5maWxlLm1hZT4nLCAnLW9tYWUnLCAnPG91dGZpbGUubWFlPic=

> <r_epik_Ionization_Penalty>
0.0996557

> <r_epik_Ionization_Penalty_Charging>
0.0475377

> <r_epik_Ionization_Penalty_Neutral>
0.0521179

> <r_epik_State_Penalty>
0.0851777

> <r_epik_Charging_Adjusted_Penalty>
0.132715

> <i_epik_Tot_Q>
1

> <i_epik_Tot_abs_Q>
1

> <r_epik_Metal_State_Penalty>
0.0423478

> <b_epik_Metal_Only>
0

> <s_lp_Force_Field>
OPLS_2005

> <r_lp_Energy>
15.2714

> <b_lp_Chiralities_Consistent>
1

> <s_lp_Variant>
AV-unprocessed.smi:1019-1

> <Gold.Version>
5.8.1

> <Gold.Id.Protein>
6NUR|6NUR_protein|mol2

> <Gold.PLP.Fitness>
54.6605

> <Gold.PLP.PLP>
-42.7067

> <Gold.PLP.part.hbond>
-3.0000

> <Gold.PLP.part.metal>
0.0000

> <Gold.PLP.part.buried>
-3.6004

> <Gold.PLP.part.nonpolar>
-35.2414

> <Gold.PLP.part.repulsive>
0.2882

> <Gold.PLP.ligand.clash>
0.0000

> <Gold.PLP.ligand.torsion>
1.5531

> <Gold.PLP.Chemscore.Hbond>
3.9360

> <Gold.PLP.Chemscore.CHOScore>
1.0000

> <Gold.PLP.Chemscore.Metal>
0.0000

> <Gold.Chemscore.Hbonds>
donor molecule, donor type, donor heavy atom, donor atom, acceptor molecule, acceptor atom, score
      L1  H     2    44       P1  8028  1.98
      L1  H    12    36       P1  7957  0.94
      P1  H  7989  7998       L1    12  0.99
      L1  C    15    39       P1  7957  1.00

> <Gold.PLP.Chemscore.Internal.Correction>
0.2520

> <Gold.Rescore>
     Score         DG    S(hbond)    S(metal)    S(lipo)     H(rot)  DE(clash)    DE(int)     intcor
     16.62     -20.38       2.06        0.00     120.28       2.36       2.33       1.43       ----

> <Gold.Chemscore.Fitness>
16.6172

> <Gold.Chemscore.DG>
-20.3753

> <Gold.Chemscore.ZeroCoef>
-5.4800

> <Gold.Chemscore.Hbond>
2.0564

> <Gold.Chemscore.Metal>
0.0000

> <Gold.Chemscore.Lipo>
120.2795

> <Gold.Chemscore.Internal_Hbond>
0.0000

> <Gold.Chemscore.DEClash>
2.3268

> <Gold.Chemscore.DEInternal>
1.4313

> <Gold.Chemscore.Rot>
2.3616

> <Gold.Chemscore.Internal.Correction>
   9.000000E+99

> <Gold.Chemscore.Hbonds>
donor molecule, donor type, donor heavy atom, donor atom, acceptor molecule, acceptor atom, score
      L1  H     2    44       P1  8028  0.93
      L1  H    12    36       P1  7957  0.89
      P1  H  7989  7998       L1    12  0.13

> <Gold.Chemscore.Hbond.Weighted>
-6.8683

> <Gold.Chemscore.Metal.Weighted>
-0.0000

> <Gold.Chemscore.Lipo.Weighted>
-14.0727

> <Gold.Chemscore.Internal_Hbond.Weighted>
0.0000

> <Gold.Chemscore.DEClash.Weighted>
2.3268

> <Gold.Chemscore.DEInternal.Weighted>
1.4313

> <Gold.Chemscore.Rot.Weighted>
6.0457

> <Gold.Chemscore.Internal.Correction.Weighted>
   9.000000E+99

> <Gold.Protein.RotatedTorsions>
[ 6907 6896 6895 6894 ] final -117.36 input  -60.11 | X-H torsion
[ 7974 7965 7964 7962 ] final -144.88 input  175.53 | X-H torsion
[ 8008 7997 7996 7995 ] final  150.90 input   59.86 | X-H torsion
[ 10167 10162 10161 10158 ] final  138.56 input  -65.29 | X-H torsion
[ 10718 10713 10712 10709 ] final   15.15 input   66.30 | X-H torsion
[ 10763 10752 10751 10750 ] final  -46.11 input  -60.55 | X-H torsion
[ 11005 11000 10999 10996 ] final -161.19 input  -57.11 | X-H torsion

> <Gold.Protein.ActiveResidues>
 VAL166  LYS551  ARG553  GLY616  TRP617  ASP618  TYR619  PRO620  LYS621  CYS622 
 ASP623  PHE694  ASN695  SER759  ASP760  ASP761  ALA762  ILE779  LEU786  VAL792 
 PHE793  MET794  SER795  GLU796  ALA797  LYS798  CYS799  TRP800  GLU811  SER814 

> <Gold.Protein.RotatedAtoms>
  150.8130  133.8387  159.3173 H   0  0  0  0  0  0  0  0  0  0  0  0  # atno 6907 bound_to 6896
  151.6167  135.1034  160.0102 H   0  0  0  0  0  0  0  0  0  0  0  0  # atno 6908 bound_to 6896
  152.4222  133.7095  159.6527 H   0  0  0  0  0  0  0  0  0  0  0  0  # atno 6909 bound_to 6896
  144.8266  140.5655  143.5542 H   0  0  0  0  0  0  0  0  0  0  0  0  # atno 7974 bound_to 7965
  156.2697  140.2062  156.6090 H   0  0  0  0  0  0  0  0  0  0  0  0  # atno 8008 bound_to 7997
  154.6847  140.0536  157.0325 H   0  0  0  0  0  0  0  0  0  0  0  0  # atno 8009 bound_to 7997
  155.0951  140.3200  155.4565 H   0  0  0  0  0  0  0  0  0  0  0  0  # atno 8010 bound_to 7997
  139.5107  144.6346  151.5730 H   0  0  0  0  0  0  0  0  0  0  0  0  # atno 10167 bound_to 10162
  157.0494  130.6263  149.5765 H   0  0  0  0  0  0  0  0  0  0  0  0  # atno 10718 bound_to 10713
  154.0396  135.6646  153.4788 H   0  0  0  0  0  0  0  0  0  0  0  0  # atno 10763 bound_to 10752
  153.0507  135.5086  154.7855 H   0  0  0  0  0  0  0  0  0  0  0  0  # atno 10764 bound_to 10752
  154.6827  135.3047  154.9556 H   0  0  0  0  0  0  0  0  0  0  0  0  # atno 10765 bound_to 10752
  140.6231  134.4729  157.5225 H   0  0  0  0  0  0  0  0  0  0  0  0  # atno 11005 bound_to 11000
  145.4986  139.1484  143.3670 LP  0  0  0  0  0  0  0  0  0  0  0  0  # atno 17320 bound_to 7965
  146.2571  140.5125  142.8869 LP  0  0  0  0  0  0  0  0  0  0  0  0  # atno 17321 bound_to 7965
  140.6090  143.9470  150.6439 LP  0  0  0  0  0  0  0  0  0  0  0  0  # atno 17342 bound_to 10162
  140.2707  143.3458  152.1240 LP  0  0  0  0  0  0  0  0  0  0  0  0  # atno 17343 bound_to 10162
  156.0012  130.5092  150.7671 LP  0  0  0  0  0  0  0  0  0  0  0  0  # atno 17370 bound_to 10713
  157.5042  131.0921  151.0277 LP  0  0  0  0  0  0  0  0  0  0  0  0  # atno 17371 bound_to 10713
  139.9145  134.8274  156.1412 LP  0  0  0  0  0  0  0  0  0  0  0  0  # atno 17394 bound_to 11000
  141.0728  133.6789  156.2175 LP  0  0  0  0  0  0  0  0  0  0  0  0  # atno 17395 bound_to 11000

$$$$
