AV-unprocessed.smi:415|AV-procd|sdf|2524|dock7
  -GOLD-   2262022483D 1   1.00000     0.00000
 Structure written by MMmdl.
 53 54  0  0  0  0  0  0  0  0  1 V2000
  143.9121  137.1710  152.9136 C   0  0  0  0  0  0  0  0  0  0  0  0
  144.8901  137.3076  153.9324 O   0  0  0  0  0  0  0  0  0  0  0  0
  144.4999  138.1647  154.9965 C   0  0  0  0  0  0  0  0  0  0  0  0
  145.6450  138.4265  155.9961 C   0  0  0  0  0  0  0  0  0  0  0  0
  146.7318  139.1970  155.4210 N   0  0  0  0  0  0  0  0  0  0  0  0
  146.5630  140.4835  154.9163 C   0  0  0  0  0  0  0  0  0  0  0  0
  145.3071  141.0639  154.9296 N   0  0  0  0  0  0  0  0  0  0  0  0
  147.6037  141.1890  154.4208 C   0  0  0  0  0  0  0  0  0  0  0  0
  148.9554  140.6489  154.3925 C   0  0  0  0  0  0  0  0  0  0  0  0
  149.9180  141.2805  153.9559 O   0  0  0  0  0  0  0  0  0  0  0  0
  149.1055  139.3436  154.9138 N   0  0  0  0  0  0  0  0  0  0  0  0
  150.4571  138.7433  154.9570 C   0  0  0  0  0  0  0  0  0  0  0  0
  151.4958  139.6425  155.6441 C   0  0  0  0  0  0  0  0  0  0  0  0
  152.5596  139.9216  155.0889 O   0  0  0  0  0  0  0  0  0  0  0  0
  151.1661  140.0883  156.8651 N   0  0  0  0  0  0  0  0  0  0  0  0
  151.9782  140.9835  157.6855 C   0  0  2  0  0  0  0  0  0  0  0  0
  152.1429  140.3897  159.0979 C   0  0  0  0  0  0  0  0  0  0  0  0
  153.0149  141.2918  159.9837 C   0  0  0  0  0  0  0  0  0  0  0  0
  152.4701  142.7279  160.0362 C   0  0  0  0  0  0  0  0  0  0  0  0
  152.3031  143.3191  158.6218 C   0  0  2  0  0  0  0  0  0  0  0  0
  151.8596  144.7907  158.6662 C   0  0  0  0  0  0  0  0  0  0  0  0
  151.3992  142.4251  157.7314 C   0  0  2  0  0  0  0  0  0  0  0  0
  149.9042  142.4695  158.1265 C   0  0  0  0  0  0  0  0  0  0  0  0
  148.0210  138.6049  155.4402 C   0  0  0  0  0  0  0  0  0  0  0  0
  148.2092  137.4787  155.9085 O   0  0  0  0  0  0  0  0  0  0  0  0
  144.2940  136.5163  152.1303 H   0  0  0  0  0  0  0  0  0  0  0  0
  143.6631  138.1278  152.4552 H   0  0  0  0  0  0  0  0  0  0  0  0
  142.9976  136.7247  153.3058 H   0  0  0  0  0  0  0  0  0  0  0  0
  144.1123  139.1061  154.6041 H   0  0  0  0  0  0  0  0  0  0  0  0
  143.6672  137.6908  155.5169 H   0  0  0  0  0  0  0  0  0  0  0  0
  145.3116  138.9078  156.9160 H   0  0  0  0  0  0  0  0  0  0  0  0
  146.0860  137.4864  156.3269 H   0  0  0  0  0  0  0  0  0  0  0  0
  144.5012  140.5788  155.2975 H   0  0  0  0  0  0  0  0  0  0  0  0
  145.1297  141.9583  154.4955 H   0  0  0  0  0  0  0  0  0  0  0  0
  147.4396  142.1863  154.0380 H   0  0  0  0  0  0  0  0  0  0  0  0
  150.4276  137.7786  155.4669 H   0  0  0  0  0  0  0  0  0  0  0  0
  150.8244  138.5018  153.9587 H   0  0  0  0  0  0  0  0  0  0  0  0
  150.2759  139.8048  157.2476 H   0  0  0  0  0  0  0  0  0  0  0  0
  152.9743  141.0318  157.2404 H   0  0  0  0  0  0  0  0  0  0  0  0
  151.1678  140.2494  159.5655 H   0  0  0  0  0  0  0  0  0  0  0  0
  152.5960  139.3996  159.0340 H   0  0  0  0  0  0  0  0  0  0  0  0
  153.0745  140.8787  160.9909 H   0  0  0  0  0  0  0  0  0  0  0  0
  154.0342  141.3042  159.5955 H   0  0  0  0  0  0  0  0  0  0  0  0
  151.5172  142.7415  160.5658 H   0  0  0  0  0  0  0  0  0  0  0  0
  153.1504  143.3491  160.6199 H   0  0  0  0  0  0  0  0  0  0  0  0
  153.2924  143.3184  158.1612 H   0  0  0  0  0  0  0  0  0  0  0  0
  150.9190  144.9156  159.2024 H   0  0  0  0  0  0  0  0  0  0  0  0
  151.7314  145.1937  157.6611 H   0  0  0  0  0  0  0  0  0  0  0  0
  152.6049  145.4047  159.1726 H   0  0  0  0  0  0  0  0  0  0  0  0
  151.4566  142.8276  156.7188 H   0  0  0  0  0  0  0  0  0  0  0  0
  149.7376  142.1135  159.1424 H   0  0  0  0  0  0  0  0  0  0  0  0
  149.2944  141.8582  157.4613 H   0  0  0  0  0  0  0  0  0  0  0  0
  149.5039  143.4806  158.0608 H   0  0  0  0  0  0  0  0  0  0  0  0
  1  2  1  0  0  0  0
  1 26  1  0  0  0  0
  1 27  1  0  0  0  0
  1 28  1  0  0  0  0
  2  3  1  0  0  0  0
  3  4  1  0  0  0  0
  3 29  1  0  0  0  0
  3 30  1  0  0  0  0
  4  5  1  0  0  0  0
  4 31  1  0  0  0  0
  4 32  1  0  0  0  0
  5 24  1  0  0  0  0
  5  6  1  0  0  0  0
  6  7  1  0  0  0  0
  6  8  2  0  0  0  0
  7 33  1  0  0  0  0
  7 34  1  0  0  0  0
  8  9  1  0  0  0  0
  8 35  1  0  0  0  0
  9 10  2  0  0  0  0
  9 11  1  0  0  0  0
 11 12  1  0  0  0  0
 11 24  1  0  0  0  0
 12 13  1  0  0  0  0
 12 36  1  0  0  0  0
 12 37  1  0  0  0  0
 13 14  2  0  0  0  0
 13 15  1  0  0  0  0
 15 16  1  0  0  0  0
 15 38  1  0  0  0  0
 16 22  1  0  0  0  0
 16 17  1  0  0  0  0
 16 39  1  0  0  0  0
 17 18  1  0  0  0  0
 17 40  1  0  0  0  0
 17 41  1  0  0  0  0
 18 19  1  0  0  0  0
 18 42  1  0  0  0  0
 18 43  1  0  0  0  0
 19 20  1  0  0  0  0
 19 44  1  0  0  0  0
 19 45  1  0  0  0  0
 20 21  1  0  0  0  0
 20 22  1  0  0  0  0
 20 46  1  0  0  0  0
 21 47  1  0  0  0  0
 21 48  1  0  0  0  0
 21 49  1  0  0  0  0
 22 23  1  0  0  0  0
 22 50  1  0  0  0  0
 23 51  1  0  0  0  0
 23 52  1  0  0  0  0
 23 53  1  0  0  0  0
 24 25  2  0  0  0  0
M  END
> <s_m_source_file>
AV-unprocessed.smi

> <i_m_source_file_index>
415

> <i_lp_mmshare_version>
43012

> <i_f3d_flags>
0

> <s_epik_input>
W0NIM11PW0NIMl1bQ0gyXW4xYyhbTkgyXSlbY0hdYyg9TyluKGMxPU8pW0NIMl1DKD1PKVtOSF1bQ0BASF0yW0NIMl1bQ0gyXVtDSDJdW0NAQEhdKFtDSDNdKVtDQEhdMltDSDNd

> <s_epik_cmdline>
J2VwaWtfcHl0aG9uJywgJy1waCcsICc3LjAnLCAnLXRuJywgJzgnLCAnLW1hJywgJzIwMCcsICctbWV0YWxfYmluZGluZycsICctaW1hZScsICc8aW5maWxlLm1hZT4nLCAnLW9tYWUnLCAnPG91dGZpbGUubWFlPic=

> <r_lp_tautomer_probability>
1

> <r_epik_Ionization_Penalty>
8.6647e-06

> <r_epik_Ionization_Penalty_Charging>
1.81162e-08

> <r_epik_Ionization_Penalty_Neutral>
8.64658e-06

> <r_epik_State_Penalty>
-0

> <r_epik_Charging_Adjusted_Penalty>
1.81162e-08

> <i_epik_Tot_Q>
0

> <i_epik_Tot_abs_Q>
0

> <r_epik_Metal_State_Penalty>
-0

> <b_epik_Metal_Only>
0

> <s_lp_Force_Field>
OPLS_2005

> <r_lp_Energy>
23.9123

> <b_lp_Chiralities_Consistent>
1

> <s_lp_Variant>
AV-unprocessed.smi:415-7

> <Gold.Version>
5.8.1

> <Gold.Id.Protein>
6NUR|6NUR_protein|mol2

> <Gold.PLP.Fitness>
45.9824

> <Gold.PLP.PLP>
-40.3094

> <Gold.PLP.part.hbond>
-4.4215

> <Gold.PLP.part.metal>
0.0000

> <Gold.PLP.part.buried>
-3.0207

> <Gold.PLP.part.nonpolar>
-33.8831

> <Gold.PLP.part.repulsive>
0.8372

> <Gold.PLP.ligand.clash>
0.0000

> <Gold.PLP.ligand.torsion>
0.2540

> <Gold.PLP.Chemscore.Hbond>
2.0274

> <Gold.PLP.Chemscore.CHOScore>
0.0000

> <Gold.PLP.Chemscore.Metal>
0.0000

> <Gold.Chemscore.Hbonds>
donor molecule, donor type, donor heavy atom, donor atom, acceptor molecule, acceptor atom, score
      P1  H  7989  7998       L1    14  0.42
      P1  H  7997  8008       L1    14  0.86
      P1  H  8011  8017       L1    10  0.72

> <Gold.PLP.Chemscore.Internal.Correction>
0.0990

> <Gold.Rescore>
     Score         DG    S(hbond)    S(metal)    S(lipo)     H(rot)  DE(clash)    DE(int)     intcor
     14.17     -17.30       2.05        0.00      92.07       2.26       1.55       1.59       ----

> <Gold.Chemscore.Fitness>
14.1728

> <Gold.Chemscore.DG>
-17.3037

> <Gold.Chemscore.ZeroCoef>
-5.4800

> <Gold.Chemscore.Hbond>
2.0506

> <Gold.Chemscore.Metal>
0.0000

> <Gold.Chemscore.Lipo>
92.0655

> <Gold.Chemscore.Internal_Hbond>
0.0000

> <Gold.Chemscore.DEClash>
1.5451

> <Gold.Chemscore.DEInternal>
1.5857

> <Gold.Chemscore.Rot>
2.2645

> <Gold.Chemscore.Internal.Correction>
   9.000000E+99

> <Gold.Chemscore.Hbonds>
donor molecule, donor type, donor heavy atom, donor atom, acceptor molecule, acceptor atom, score
      P1  H  7989  7998       L1    10  0.30
      P1  H  7997  8008       L1    14  0.83
      P1  H  8011  8017       L1    10  0.70

> <Gold.Chemscore.Hbond.Weighted>
-6.8492

> <Gold.Chemscore.Metal.Weighted>
-0.0000

> <Gold.Chemscore.Lipo.Weighted>
-10.7717

> <Gold.Chemscore.Internal_Hbond.Weighted>
0.0000

> <Gold.Chemscore.DEClash.Weighted>
1.5451

> <Gold.Chemscore.DEInternal.Weighted>
1.5857

> <Gold.Chemscore.Rot.Weighted>
5.7972

> <Gold.Chemscore.Internal.Correction.Weighted>
   9.000000E+99

> <Gold.Protein.RotatedTorsions>
[ 6907 6896 6895 6894 ] final -111.72 input  -60.11 | X-H torsion
[ 7974 7965 7964 7962 ] final -142.92 input  175.53 | X-H torsion
[ 8008 7997 7996 7995 ] final  -30.06 input   59.86 | X-H torsion
[ 10167 10162 10161 10158 ] final   17.35 input  -65.29 | X-H torsion
[ 10718 10713 10712 10709 ] final   90.11 input   66.30 | X-H torsion
[ 10763 10752 10751 10750 ] final  162.77 input  -60.55 | X-H torsion
[ 11005 11000 10999 10996 ] final   77.48 input  -57.11 | X-H torsion

> <Gold.Protein.ActiveResidues>
 VAL166  LYS551  ARG553  GLY616  TRP617  ASP618  TYR619  PRO620  LYS621  CYS622 
 ASP623  PHE694  ASN695  SER759  ASP760  ASP761  ALA762  ILE779  LEU786  VAL792 
 PHE793  MET794  SER795  GLU796  ALA797  LYS798  CYS799  TRP800  GLU811  SER814 

> <Gold.Protein.RotatedAtoms>
  150.7709  133.9194  159.3393 H   0  0  0  0  0  0  0  0  0  0  0  0  # atno 6907 bound_to 6896
  151.7080  135.0916  160.0272 H   0  0  0  0  0  0  0  0  0  0  0  0  # atno 6908 bound_to 6896
  152.3726  133.6401  159.6135 H   0  0  0  0  0  0  0  0  0  0  0  0  # atno 6909 bound_to 6896
  144.8407  140.5898  143.5454 H   0  0  0  0  0  0  0  0  0  0  0  0  # atno 7974 bound_to 7965
  154.4265  140.1801  156.1347 H   0  0  0  0  0  0  0  0  0  0  0  0  # atno 8008 bound_to 7997
  156.0039  140.3357  155.6848 H   0  0  0  0  0  0  0  0  0  0  0  0  # atno 8009 bound_to 7997
  155.6204  140.0659  157.2670 H   0  0  0  0  0  0  0  0  0  0  0  0  # atno 8010 bound_to 7997
  140.5732  143.9121  150.6729 H   0  0  0  0  0  0  0  0  0  0  0  0  # atno 10167 bound_to 10162
  157.6958  131.0358  150.3528 H   0  0  0  0  0  0  0  0  0  0  0  0  # atno 10718 bound_to 10713
  154.2835  135.2762  155.2686 H   0  0  0  0  0  0  0  0  0  0  0  0  # atno 10763 bound_to 10752
  154.5197  135.5759  153.6674 H   0  0  0  0  0  0  0  0  0  0  0  0  # atno 10764 bound_to 10752
  152.9925  135.6201  154.2996 H   0  0  0  0  0  0  0  0  0  0  0  0  # atno 10765 bound_to 10752
  139.9253  134.7686  156.1528 H   0  0  0  0  0  0  0  0  0  0  0  0  # atno 11005 bound_to 11000
  145.4700  139.1504  143.3819 LP  0  0  0  0  0  0  0  0  0  0  0  0  # atno 17320 bound_to 7965
  146.2700  140.4832  142.8818 LP  0  0  0  0  0  0  0  0  0  0  0  0  # atno 17321 bound_to 7965
  140.2602  143.3530  152.1330 LP  0  0  0  0  0  0  0  0  0  0  0  0  # atno 17342 bound_to 10162
  139.5129  144.6924  151.5724 LP  0  0  0  0  0  0  0  0  0  0  0  0  # atno 17343 bound_to 10162
  156.3974  130.3909  149.6985 LP  0  0  0  0  0  0  0  0  0  0  0  0  # atno 17370 bound_to 10713
  156.4313  130.7817  151.2836 LP  0  0  0  0  0  0  0  0  0  0  0  0  # atno 17371 bound_to 10713
  141.0805  133.6756  156.2326 LP  0  0  0  0  0  0  0  0  0  0  0  0  # atno 17394 bound_to 11000
  140.6356  134.5219  157.5564 LP  0  0  0  0  0  0  0  0  0  0  0  0  # atno 17395 bound_to 11000

$$$$
