AV-unprocessed.smi:987|AV-procd|sdf|4321|dock3
  -GOLD-   22720 2223D 1   1.00000     0.00000
 Structure written by MMmdl.
 50 52  0  0  0  0  0  0  0  0  1 V2000
  153.5259  142.0500  160.8657 C   0  0  0  0  0  0  0  0  0  0  0  0
  152.4799  142.6171  159.9003 C   0  0  2  0  0  0  0  0  0  0  0  0
  152.1083  141.6084  158.7983 C   0  0  0  0  0  0  0  0  0  0  0  0
  151.2074  142.2245  157.8286 N   0  0  0  0  0  0  0  0  0  0  0  0
  150.5361  141.3817  156.9172 C   0  0  0  0  0  0  0  0  0  0  0  0
  151.2623  140.7187  155.9006 C   0  0  0  0  0  0  0  0  0  0  0  0
  150.5758  139.8783  155.0043 C   0  0  0  0  0  0  0  0  0  0  0  0
  149.1849  139.7094  155.1454 C   0  0  0  0  0  0  0  0  0  0  0  0
  148.5156  138.8678  154.2162 N   0  0  0  0  0  0  0  0  0  0  0  0
  147.2186  138.5160  154.1902 C   0  0  0  0  0  0  0  0  0  0  0  0
  146.3755  138.8457  155.0236 O   0  0  0  0  0  0  0  0  0  0  0  0
  146.9533  137.7309  153.1370 N   0  0  0  0  0  0  0  0  0  0  0  0
  145.6410  137.1859  152.8014 C   0  0  0  0  0  0  0  0  0  0  0  0
  145.6625  136.3570  151.5045 C   0  0  0  0  0  0  0  0  0  0  0  0
  146.3196  137.1694  150.5513 O   0  0  0  0  0  0  0  0  0  0  0  0
  146.1563  134.8974  151.5565 C   0  0  0  0  0  0  0  0  0  0  0  0
  145.0222  134.5020  150.6096 C   0  0  0  0  0  0  0  0  0  0  0  0
  144.3172  135.8031  150.9978 C   0  0  0  0  0  0  0  0  0  0  0  0
  148.5397  140.4262  156.1811 C   0  0  0  0  0  0  0  0  0  0  0  0
  149.1941  141.2365  157.0399 N   0  0  0  0  0  0  0  0  0  0  0  0
  151.7338  143.4626  157.2612 C   0  0  0  0  0  0  0  0  0  0  0  0
  152.1551  144.4458  158.3711 C   0  0  1  0  0  0  0  0  0  0  0  0
  150.9650  145.1361  159.0612 C   0  0  0  0  0  0  0  0  0  0  0  0
  153.0201  143.7969  159.3061 O   0  0  0  0  0  0  0  0  0  0  0  0
  153.1562  141.1518  161.3610 H   0  0  0  0  0  0  0  0  0  0  0  0
  153.7767  142.7762  161.6392 H   0  0  0  0  0  0  0  0  0  0  0  0
  154.4464  141.7896  160.3424 H   0  0  0  0  0  0  0  0  0  0  0  0
  151.5915  142.8709  160.4789 H   0  0  0  0  0  0  0  0  0  0  0  0
  153.0063  141.2619  158.2843 H   0  0  0  0  0  0  0  0  0  0  0  0
  151.6342  140.7365  159.2512 H   0  0  0  0  0  0  0  0  0  0  0  0
  152.3278  140.8568  155.7921 H   0  0  0  0  0  0  0  0  0  0  0  0
  151.1156  139.3691  154.2193 H   0  0  0  0  0  0  0  0  0  0  0  0
  149.1037  138.4463  153.5125 H   0  0  0  0  0  0  0  0  0  0  0  0
  147.7116  137.5042  152.5106 H   0  0  0  0  0  0  0  0  0  0  0  0
  145.3560  136.5528  153.6416 H   0  0  0  0  0  0  0  0  0  0  0  0
  144.8890  137.9773  152.7729 H   0  0  0  0  0  0  0  0  0  0  0  0
  145.6565  137.6946  150.1301 H   0  0  0  0  0  0  0  0  0  0  0  0
  147.1567  134.7377  151.1523 H   0  0  0  0  0  0  0  0  0  0  0  0
  146.0495  134.4428  152.5428 H   0  0  0  0  0  0  0  0  0  0  0  0
  145.3320  134.4853  149.5637 H   0  0  0  0  0  0  0  0  0  0  0  0
  144.4889  133.5933  150.8903 H   0  0  0  0  0  0  0  0  0  0  0  0
  143.5839  135.6576  151.7927 H   0  0  0  0  0  0  0  0  0  0  0  0
  143.8834  136.3439  150.1557 H   0  0  0  0  0  0  0  0  0  0  0  0
  147.4723  140.3812  156.3298 H   0  0  0  0  0  0  0  0  0  0  0  0
  152.6004  143.2123  156.6476 H   0  0  0  0  0  0  0  0  0  0  0  0
  151.0155  143.9472  156.6008 H   0  0  0  0  0  0  0  0  0  0  0  0
  152.7485  145.2336  157.9064 H   0  0  0  0  0  0  0  0  0  0  0  0
  150.3993  145.7340  158.3464 H   0  0  0  0  0  0  0  0  0  0  0  0
  151.3078  145.8041  159.8515 H   0  0  0  0  0  0  0  0  0  0  0  0
  150.2713  144.4217  159.5034 H   0  0  0  0  0  0  0  0  0  0  0  0
  1  2  1  0  0  0  0
  1 25  1  0  0  0  0
  1 26  1  0  0  0  0
  1 27  1  0  0  0  0
  2 24  1  0  0  0  0
  2  3  1  0  0  0  0
  2 28  1  0  0  0  0
  3  4  1  0  0  0  0
  3 29  1  0  0  0  0
  3 30  1  0  0  0  0
  4  5  1  0  0  0  0
  4 21  1  0  0  0  0
  5 20  1  0  0  0  0
  5  6  2  0  0  0  0
  6  7  1  0  0  0  0
  6 31  1  0  0  0  0
  7  8  2  0  0  0  0
  7 32  1  0  0  0  0
  8  9  1  0  0  0  0
  8 19  1  0  0  0  0
  9 10  1  0  0  0  0
  9 33  1  0  0  0  0
 10 11  2  0  0  0  0
 10 12  1  0  0  0  0
 12 13  1  0  0  0  0
 12 34  1  0  0  0  0
 13 14  1  0  0  0  0
 13 35  1  0  0  0  0
 13 36  1  0  0  0  0
 14 18  1  0  0  0  0
 14 15  1  0  0  0  0
 14 16  1  0  0  0  0
 15 37  1  0  0  0  0
 16 17  1  0  0  0  0
 16 38  1  0  0  0  0
 16 39  1  0  0  0  0
 17 18  1  0  0  0  0
 17 40  1  0  0  0  0
 17 41  1  0  0  0  0
 18 42  1  0  0  0  0
 18 43  1  0  0  0  0
 19 20  2  0  0  0  0
 19 44  1  0  0  0  0
 21 22  1  0  0  0  0
 21 45  1  0  0  0  0
 21 46  1  0  0  0  0
 22 23  1  0  0  0  0
 22 24  1  0  0  0  0
 22 47  1  0  0  0  0
 23 48  1  0  0  0  0
 23 49  1  0  0  0  0
 23 50  1  0  0  0  0
M  END
> <s_m_source_file>
AV-unprocessed.smi

> <i_m_source_file_index>
987

> <i_lp_mmshare_version>
43012

> <i_f3d_flags>
0

> <s_epik_input>
W0NIM11bQ0BASF0xW0NIMl1OKFtDSDJdW0NASF0oTzEpW0NIM10pYzJbY0hdW2NIXWMoW2NIXW4yKVtOSF1DKD1PKVtOSF1bQ0gyXUMzKFtPSF0pW0NIMl1bQ0gyXVtDSDJdMw==

> <s_epik_cmdline>
J2VwaWtfcHl0aG9uJywgJy1waCcsICc3LjAnLCAnLXRuJywgJzgnLCAnLW1hJywgJzIwMCcsICctbWV0YWxfYmluZGluZycsICctaW1hZScsICc8aW5maWxlLm1hZT4nLCAnLW9tYWUnLCAnPG91dGZpbGUubWFlPic=

> <r_lp_tautomer_probability>
1

> <r_epik_Ionization_Penalty>
0.00275455

> <r_epik_Ionization_Penalty_Charging>
0

> <r_epik_Ionization_Penalty_Neutral>
0.00275455

> <r_epik_State_Penalty>
0.00189097

> <r_epik_Charging_Adjusted_Penalty>
0.00189097

> <i_epik_Tot_Q>
0

> <i_epik_Tot_abs_Q>
0

> <r_epik_Metal_State_Penalty>
-0

> <b_epik_Metal_Only>
0

> <s_lp_Force_Field>
OPLS_2005

> <r_lp_Energy>
31.3911

> <b_lp_Chiralities_Consistent>
1

> <s_lp_Variant>
AV-unprocessed.smi:987-1

> <Gold.Version>
5.8.1

> <Gold.Id.Protein>
6NUR|6NUR_protein|mol2

> <Gold.PLP.Fitness>
52.2910

> <Gold.PLP.PLP>
-44.0850

> <Gold.PLP.part.hbond>
-3.9871

> <Gold.PLP.part.metal>
0.0000

> <Gold.PLP.part.buried>
-2.4313

> <Gold.PLP.part.nonpolar>
-37.2811

> <Gold.PLP.part.repulsive>
0.2154

> <Gold.PLP.ligand.clash>
0.0000

> <Gold.PLP.ligand.torsion>
0.2939

> <Gold.PLP.Chemscore.Hbond>
2.8008

> <Gold.PLP.Chemscore.CHOScore>
0.0000

> <Gold.PLP.Chemscore.Metal>
0.0000

> <Gold.Chemscore.Hbonds>
donor molecule, donor type, donor heavy atom, donor atom, acceptor molecule, acceptor atom, score
      L1  H    12    34       P1  7948  1.00
      L1  H    15    37       P1 10171  1.00
      P1  H  7954  7966       L1    15  0.82

> <Gold.PLP.Chemscore.Internal.Correction>
0.3916

> <Gold.Rescore>
     Score         DG    S(hbond)    S(metal)    S(lipo)     H(rot)  DE(clash)    DE(int)     intcor
     19.24     -22.19       2.47        0.00     114.49       1.93       1.51       1.45       ----

> <Gold.Chemscore.Fitness>
19.2352

> <Gold.Chemscore.DG>
-22.1891

> <Gold.Chemscore.ZeroCoef>
-5.4800

> <Gold.Chemscore.Hbond>
2.4744

> <Gold.Chemscore.Metal>
0.0000

> <Gold.Chemscore.Lipo>
114.4928

> <Gold.Chemscore.Internal_Hbond>
0.0000

> <Gold.Chemscore.DEClash>
1.5057

> <Gold.Chemscore.DEInternal>
1.4483

> <Gold.Chemscore.Rot>
1.9340

> <Gold.Chemscore.Internal.Correction>
   9.000000E+99

> <Gold.Chemscore.Hbonds>
donor molecule, donor type, donor heavy atom, donor atom, acceptor molecule, acceptor atom, score
      L1  H    12    34       P1  7948  0.94
      L1  H    15    37       P1 10171  0.96
      P1  H  7954  7966       L1    15  0.46

> <Gold.Chemscore.Hbond.Weighted>
-8.2644

> <Gold.Chemscore.Metal.Weighted>
-0.0000

> <Gold.Chemscore.Lipo.Weighted>
-13.3957

> <Gold.Chemscore.Internal_Hbond.Weighted>
0.0000

> <Gold.Chemscore.DEClash.Weighted>
1.5057

> <Gold.Chemscore.DEInternal.Weighted>
1.4483

> <Gold.Chemscore.Rot.Weighted>
4.9509

> <Gold.Chemscore.Internal.Correction.Weighted>
   9.000000E+99

> <Gold.Protein.RotatedTorsions>
[ 6907 6896 6895 6894 ] final  140.53 input  -60.11 | X-H torsion
[ 7974 7965 7964 7962 ] final  118.41 input  175.53 | X-H torsion
[ 8008 7997 7996 7995 ] final   89.85 input   59.86 | X-H torsion
[ 10167 10162 10161 10158 ] final -141.01 input  -65.29 | X-H torsion
[ 10718 10713 10712 10709 ] final    8.24 input   66.30 | X-H torsion
[ 10763 10752 10751 10750 ] final   51.39 input  -60.55 | X-H torsion
[ 11005 11000 10999 10996 ] final   60.26 input  -57.11 | X-H torsion

> <Gold.Protein.ActiveResidues>
 VAL166  LYS551  ARG553  GLY616  TRP617  ASP618  TYR619  PRO620  LYS621  CYS622 
 ASP623  PHE694  ASN695  SER759  ASP760  ASP761  ALA762  ILE779  LEU786  VAL792 
 PHE793  MET794  SER795  GLU796  ALA797  LYS798  CYS799  TRP800  GLU811  SER814 

> <Gold.Protein.RotatedAtoms>
  152.2419  133.5142  159.5274 H   0  0  0  0  0  0  0  0  0  0  0  0  # atno 6907 bound_to 6896
  150.7067  134.1077  159.3998 H   0  0  0  0  0  0  0  0  0  0  0  0  # atno 6908 bound_to 6896
  151.8998  135.0383  160.0556 H   0  0  0  0  0  0  0  0  0  0  0  0  # atno 6909 bound_to 6896
  145.1556  139.3185  143.4544 H   0  0  0  0  0  0  0  0  0  0  0  0  # atno 7974 bound_to 7965
  156.0049  140.3356  155.6882 H   0  0  0  0  0  0  0  0  0  0  0  0  # atno 8008 bound_to 7997
  155.6239  140.0678  157.2687 H   0  0  0  0  0  0  0  0  0  0  0  0  # atno 8009 bound_to 7997
  154.4261  140.1771  156.1388 H   0  0  0  0  0  0  0  0  0  0  0  0  # atno 8010 bound_to 7997
  139.8226  143.7554  152.2666 H   0  0  0  0  0  0  0  0  0  0  0  0  # atno 10167 bound_to 10162
  156.9487  130.5889  149.5655 H   0  0  0  0  0  0  0  0  0  0  0  0  # atno 10718 bound_to 10713
  152.9785  135.5847  154.4408 H   0  0  0  0  0  0  0  0  0  0  0  0  # atno 10763 bound_to 10752
  154.4009  135.2769  155.2099 H   0  0  0  0  0  0  0  0  0  0  0  0  # atno 10764 bound_to 10752
  154.3930  135.6121  153.5908 H   0  0  0  0  0  0  0  0  0  0  0  0  # atno 10765 bound_to 10752
  140.0244  134.6105  155.9594 H   0  0  0  0  0  0  0  0  0  0  0  0  # atno 11005 bound_to 11000
  146.3489  140.1647  142.8590 LP  0  0  0  0  0  0  0  0  0  0  0  0  # atno 17320 bound_to 7965
  145.0385  140.8927  143.5067 LP  0  0  0  0  0  0  0  0  0  0  0  0  # atno 17321 bound_to 7965
  139.7737  144.7468  151.0188 LP  0  0  0  0  0  0  0  0  0  0  0  0  # atno 17342 bound_to 10162
  140.7812  143.4617  151.0268 LP  0  0  0  0  0  0  0  0  0  0  0  0  # atno 17343 bound_to 10162
  156.0372  130.5458  150.8683 LP  0  0  0  0  0  0  0  0  0  0  0  0  # atno 17370 bound_to 10713
  157.5736  131.0946  150.9379 LP  0  0  0  0  0  0  0  0  0  0  0  0  # atno 17371 bound_to 10713
  141.1794  133.6544  156.4957 LP  0  0  0  0  0  0  0  0  0  0  0  0  # atno 17394 bound_to 11000
  140.4332  134.7083  157.4953 LP  0  0  0  0  0  0  0  0  0  0  0  0  # atno 17395 bound_to 11000

$$$$
