AV-unprocessed.smi:2919|AV-procd|sdf|11194|dock10
  -GOLD-   2272016 83D 1   1.00000     0.00000
 Structure written by MMmdl.
 34 36  0  0  0  0  0  0  0  0  1 V2000
  151.6865  144.7733  160.3280 C   0  0  0  0  0  0  0  0  0  0  0  0
  152.0263  143.4937  159.5843 C   0  0  0  0  0  0  0  0  0  0  0  0
  151.4608  143.3769  158.3629 N   0  0  0  0  0  0  0  0  0  0  0  0
  151.6840  142.2954  157.6151 N   0  0  0  0  0  0  0  0  0  0  0  0
  152.4811  141.2938  158.0588 C   0  0  0  0  0  0  0  0  0  0  0  0
  152.6673  140.1850  157.2130 N   0  0  0  0  0  0  0  0  0  0  0  0
  152.3009  140.2502  155.8013 C   0  0  2  0  0  0  0  0  0  0  0  0
  150.8155  140.5485  155.5842 C   0  0  0  0  0  0  0  0  0  0  0  0
  150.3914  139.3919  154.6682 C   0  0  2  0  0  0  0  0  0  0  0  0
  150.2756  138.0728  155.4431 C   0  0  0  0  0  0  0  0  0  0  0  0
  151.7427  137.7321  155.6961 C   0  0  0  0  0  0  0  0  0  0  0  0
  152.4639  138.9205  155.0369 C   0  0  1  0  0  0  0  0  0  0  0  0
  151.5907  139.1637  153.9469 O   0  0  0  0  0  0  0  0  0  0  0  0
  153.1054  141.3489  159.3320 C   0  0  0  0  0  0  0  0  0  0  0  0
  153.9648  140.2652  159.8046 C   0  0  0  0  0  0  0  0  0  0  0  0
  154.6455  139.4074  160.1786 N   0  0  0  0  0  0  0  0  0  0  0  0
  152.8716  142.4971  160.1299 C   0  0  0  0  0  0  0  0  0  0  0  0
  153.5042  142.6445  161.5115 C   0  0  0  0  0  0  0  0  0  0  0  0
  151.1959  144.5455  161.2746 H   0  0  0  0  0  0  0  0  0  0  0  0
  151.0136  145.4067  159.7483 H   0  0  0  0  0  0  0  0  0  0  0  0
  152.5907  145.3475  160.5314 H   0  0  0  0  0  0  0  0  0  0  0  0
  153.3490  139.4907  157.4834 H   0  0  0  0  0  0  0  0  0  0  0  0
  152.8846  141.0296  155.3092 H   0  0  0  0  0  0  0  0  0  0  0  0
  150.2313  140.5743  156.5051 H   0  0  0  0  0  0  0  0  0  0  0  0
  150.6936  141.5084  155.0810 H   0  0  0  0  0  0  0  0  0  0  0  0
  149.5256  139.6155  154.0444 H   0  0  0  0  0  0  0  0  0  0  0  0
  149.7001  138.1802  156.3632 H   0  0  0  0  0  0  0  0  0  0  0  0
  149.8039  137.3022  154.8323 H   0  0  0  0  0  0  0  0  0  0  0  0
  151.9782  137.6197  156.7545 H   0  0  0  0  0  0  0  0  0  0  0  0
  152.0057  136.8002  155.1943 H   0  0  0  0  0  0  0  0  0  0  0  0
  153.4907  138.7023  154.7417 H   0  0  0  0  0  0  0  0  0  0  0  0
  154.5904  142.5814  161.4378 H   0  0  0  0  0  0  0  0  0  0  0  0
  153.1598  141.8460  162.1694 H   0  0  0  0  0  0  0  0  0  0  0  0
  153.2690  143.5902  161.9962 H   0  0  0  0  0  0  0  0  0  0  0  0
  1  2  1  0  0  0  0
  1 19  1  0  0  0  0
  1 20  1  0  0  0  0
  1 21  1  0  0  0  0
  2 17  1  0  0  0  0
  2  3  2  0  0  0  0
  3  4  1  0  0  0  0
  4  5  2  0  0  0  0
  5  6  1  0  0  0  0
  5 14  1  0  0  0  0
  6  7  1  0  0  0  0
  6 22  1  0  0  0  0
  7 12  1  0  0  0  0
  7  8  1  0  0  0  0
  7 23  1  0  0  0  0
  8  9  1  0  0  0  0
  8 24  1  0  0  0  0
  8 25  1  0  0  0  0
  9 13  1  0  0  0  0
  9 10  1  0  0  0  0
  9 26  1  0  0  0  0
 10 11  1  0  0  0  0
 10 27  1  0  0  0  0
 10 28  1  0  0  0  0
 11 12  1  0  0  0  0
 11 29  1  0  0  0  0
 11 30  1  0  0  0  0
 12 13  1  0  0  0  0
 12 31  1  0  0  0  0
 14 15  1  0  0  0  0
 14 17  2  0  0  0  0
 15 16  3  0  0  0  0
 17 18  1  0  0  0  0
 18 32  1  0  0  0  0
 18 33  1  0  0  0  0
 18 34  1  0  0  0  0
M  END
> <s_m_source_file>
AV-unprocessed.smi

> <i_m_source_file_index>
2919

> <i_lp_mmshare_version>
43012

> <i_f3d_flags>
0

> <s_epik_input>
W0NIM11jMW5uYyhjKEMjTiljMVtDSDNdKVtOSF1bQ0BIXShbQ0gyXVtDQEBIXTIzKVtDQEBIXShPMylbQ0gyXVtDSDJdMg==

> <s_epik_cmdline>
J2VwaWtfcHl0aG9uJywgJy1waCcsICc3LjAnLCAnLXRuJywgJzgnLCAnLW1hJywgJzIwMCcsICctbWV0YWxfYmluZGluZycsICctaW1hZScsICc8aW5maWxlLm1hZT4nLCAnLW9tYWUnLCAnPG91dGZpbGUubWFlPic=

> <r_lp_tautomer_probability>
1

> <r_epik_Ionization_Penalty>
0.00143865

> <r_epik_Ionization_Penalty_Charging>
0

> <r_epik_Ionization_Penalty_Neutral>
0.00143865

> <r_epik_State_Penalty>
-0

> <r_epik_Charging_Adjusted_Penalty>
0

> <i_epik_Tot_Q>
0

> <i_epik_Tot_abs_Q>
0

> <r_epik_Metal_State_Penalty>
-0

> <b_epik_Metal_Only>
0

> <s_lp_Force_Field>
OPLS_2005

> <r_lp_Energy>
49.1594

> <b_lp_Chiralities_Consistent>
1

> <s_lp_Variant>
AV-unprocessed.smi:2919-3

> <Gold.Version>
5.8.1

> <Gold.Id.Protein>
6NUR|6NUR_protein|mol2

> <Gold.PLP.Fitness>
38.3706

> <Gold.PLP.PLP>
-35.4783

> <Gold.PLP.part.hbond>
-1.0000

> <Gold.PLP.part.metal>
0.0000

> <Gold.PLP.part.buried>
-4.1552

> <Gold.PLP.part.nonpolar>
-30.4819

> <Gold.PLP.part.repulsive>
0.4348

> <Gold.PLP.ligand.clash>
0.0000

> <Gold.PLP.ligand.torsion>
0.0589

> <Gold.PLP.Chemscore.Hbond>
1.0000

> <Gold.PLP.Chemscore.CHOScore>
0.0000

> <Gold.PLP.Chemscore.Metal>
0.0000

> <Gold.Chemscore.Hbonds>
donor molecule, donor type, donor heavy atom, donor atom, acceptor molecule, acceptor atom, score
      P1  H  7989  7998       L1    13  0.50

> <Gold.PLP.Chemscore.Internal.Correction>
0.0102

> <Gold.Rescore>
     Score         DG    S(hbond)    S(metal)    S(lipo)     H(rot)  DE(clash)    DE(int)     intcor
     13.25     -15.09       0.37        0.00      93.44       1.00       1.44       0.40       ----

> <Gold.Chemscore.Fitness>
13.2509

> <Gold.Chemscore.DG>
-15.0897

> <Gold.Chemscore.ZeroCoef>
-5.4800

> <Gold.Chemscore.Hbond>
0.3703

> <Gold.Chemscore.Metal>
0.0000

> <Gold.Chemscore.Lipo>
93.4431

> <Gold.Chemscore.Internal_Hbond>
0.0000

> <Gold.Chemscore.DEClash>
1.4387

> <Gold.Chemscore.DEInternal>
0.4000

> <Gold.Chemscore.Rot>
1.0000

> <Gold.Chemscore.Internal.Correction>
   9.000000E+99

> <Gold.Chemscore.Hbonds>
donor molecule, donor type, donor heavy atom, donor atom, acceptor molecule, acceptor atom, score
      P1  H  7989  7998       L1    13  0.02

> <Gold.Chemscore.Hbond.Weighted>
-1.2368

> <Gold.Chemscore.Metal.Weighted>
-0.0000

> <Gold.Chemscore.Lipo.Weighted>
-10.9328

> <Gold.Chemscore.Internal_Hbond.Weighted>
0.0000

> <Gold.Chemscore.DEClash.Weighted>
1.4387

> <Gold.Chemscore.DEInternal.Weighted>
0.4000

> <Gold.Chemscore.Rot.Weighted>
2.5600

> <Gold.Chemscore.Internal.Correction.Weighted>
   9.000000E+99

> <Gold.Protein.RotatedTorsions>
[ 6907 6896 6895 6894 ] final  -98.65 input  -60.11 | X-H torsion
[ 7974 7965 7964 7962 ] final  -95.03 input  175.53 | X-H torsion
[ 8008 7997 7996 7995 ] final -120.03 input   59.86 | X-H torsion
[ 10167 10162 10161 10158 ] final   87.27 input  -65.29 | X-H torsion
[ 10718 10713 10712 10709 ] final  125.66 input   66.30 | X-H torsion
[ 10763 10752 10751 10750 ] final  118.48 input  -60.55 | X-H torsion
[ 11005 11000 10999 10996 ] final   94.50 input  -57.11 | X-H torsion

> <Gold.Protein.ActiveResidues>
 VAL166  LYS551  ARG553  GLY616  TRP617  ASP618  TYR619  PRO620  LYS621  CYS622 
 ASP623  PHE694  ASN695  SER759  ASP760  ASP761  ALA762  ILE779  LEU786  VAL792 
 PHE793  MET794  SER795  GLU796  ALA797  LYS798  CYS799  TRP800  GLU811  SER814 

> <Gold.Protein.RotatedAtoms>
  150.7053  134.1162  159.4017 H   0  0  0  0  0  0  0  0  0  0  0  0  # atno 6907 bound_to 6896
  151.9148  135.0321  160.0526 H   0  0  0  0  0  0  0  0  0  0  0  0  # atno 6908 bound_to 6896
  152.2305  133.5019  159.5250 H   0  0  0  0  0  0  0  0  0  0  0  0  # atno 6909 bound_to 6896
  145.3654  140.9498  143.2477 H   0  0  0  0  0  0  0  0  0  0  0  0  # atno 7974 bound_to 7965
  155.1252  140.0399  157.2760 H   0  0  0  0  0  0  0  0  0  0  0  0  # atno 8008 bound_to 7997
  154.6583  140.2585  155.7111 H   0  0  0  0  0  0  0  0  0  0  0  0  # atno 8009 bound_to 7997
  156.2608  140.2822  156.1045 H   0  0  0  0  0  0  0  0  0  0  0  0  # atno 8010 bound_to 7997
  139.8790  144.6450  150.8863 H   0  0  0  0  0  0  0  0  0  0  0  0  # atno 10167 bound_to 10162
  157.5485  131.1095  150.8742 H   0  0  0  0  0  0  0  0  0  0  0  0  # atno 10718 bound_to 10713
  153.5683  135.3507  155.2827 H   0  0  0  0  0  0  0  0  0  0  0  0  # atno 10763 bound_to 10752
  154.8685  135.4153  154.2754 H   0  0  0  0  0  0  0  0  0  0  0  0  # atno 10764 bound_to 10752
  153.3514  135.7055  153.6855 H   0  0  0  0  0  0  0  0  0  0  0  0  # atno 10765 bound_to 10752
  139.8798  134.8848  156.3873 H   0  0  0  0  0  0  0  0  0  0  0  0  # atno 11005 bound_to 11000
  144.8616  139.5169  143.6810 LP  0  0  0  0  0  0  0  0  0  0  0  0  # atno 17320 bound_to 7965
  146.2909  139.7136  142.9162 LP  0  0  0  0  0  0  0  0  0  0  0  0  # atno 17321 bound_to 7965
  140.7748  143.3601  151.1845 LP  0  0  0  0  0  0  0  0  0  0  0  0  # atno 17342 bound_to 10162
  139.7213  143.9219  152.2986 LP  0  0  0  0  0  0  0  0  0  0  0  0  # atno 17343 bound_to 10162
  156.9274  130.5337  149.5279 LP  0  0  0  0  0  0  0  0  0  0  0  0  # atno 17370 bound_to 10713
  156.0556  130.5618  150.9084 LP  0  0  0  0  0  0  0  0  0  0  0  0  # atno 17371 bound_to 10713
  140.9357  133.7549  156.0081 LP  0  0  0  0  0  0  0  0  0  0  0  0  # atno 17394 bound_to 11000
  140.8278  134.3213  157.5359 LP  0  0  0  0  0  0  0  0  0  0  0  0  # atno 17395 bound_to 11000

$$$$
