AV-unprocessed.smi:459|AV-procd|sdf|2624|dock5
  -GOLD-   2262023 23D 1   1.00000     0.00000
 Structure written by MMmdl.
 43 45  0  0  0  0  0  0  0  0  1 V2000
  144.1666  145.7361  153.4017 C   0  0  0  0  0  0  0  0  0  0  0  0
  144.1424  145.0703  154.6561 O   0  0  0  0  0  0  0  0  0  0  0  0
  145.0177  144.0235  154.8513 C   0  0  0  0  0  0  0  0  0  0  0  0
  145.8789  143.5072  153.8523 C   0  0  0  0  0  0  0  0  0  0  0  0
  146.7424  142.4334  154.1425 C   0  0  0  0  0  0  0  0  0  0  0  0
  146.7689  141.8505  155.4246 C   0  0  0  0  0  0  0  0  0  0  0  0
  147.6443  140.8047  155.6185 O   0  0  0  0  0  0  0  0  0  0  0  0
  148.8099  140.7394  154.8072 C   0  0  0  0  0  0  0  0  0  0  0  0
  149.8307  141.7790  155.2910 C   0  0  0  0  0  0  0  0  0  0  0  0
  150.8737  141.1771  156.1097 N   0  0  0  0  0  0  0  0  0  0  0  0
  151.6056  140.0579  155.8708 C   0  0  0  0  0  0  0  0  0  0  0  0
  151.4440  139.2243  154.6321 C   0  0  0  0  0  0  0  0  0  0  0  0
  151.0549  137.7668  154.9259 C   0  0  0  0  0  0  0  0  0  0  0  0
  151.6736  136.8832  154.0144 O   0  0  0  0  0  0  0  0  0  0  0  0
  152.4980  139.7396  156.8101 N   0  0  0  0  0  0  0  0  0  0  0  0
  152.3267  140.7399  157.7463 C   0  0  0  0  0  0  0  0  0  0  0  0
  152.9780  140.9640  158.9805 C   0  0  0  0  0  0  0  0  0  0  0  0
  152.6280  142.0707  159.7815 C   0  0  0  0  0  0  0  0  0  0  0  0
  151.6236  142.9666  159.3613 C   0  0  0  0  0  0  0  0  0  0  0  0
  150.9628  142.7615  158.1349 C   0  0  0  0  0  0  0  0  0  0  0  0
  151.3167  141.6558  157.3385 C   0  0  0  0  0  0  0  0  0  0  0  0
  145.9079  142.3666  156.4236 C   0  0  0  0  0  0  0  0  0  0  0  0
  145.0448  143.4407  156.1336 C   0  0  0  0  0  0  0  0  0  0  0  0
  143.4263  146.5362  153.4049 H   0  0  0  0  0  0  0  0  0  0  0  0
  143.9148  145.0574  152.5855 H   0  0  0  0  0  0  0  0  0  0  0  0
  145.1402  146.1889  153.2088 H   0  0  0  0  0  0  0  0  0  0  0  0
  145.8965  143.9173  152.8542 H   0  0  0  0  0  0  0  0  0  0  0  0
  147.3925  142.0509  153.3692 H   0  0  0  0  0  0  0  0  0  0  0  0
  149.2525  139.7439  154.8609 H   0  0  0  0  0  0  0  0  0  0  0  0
  148.5540  140.9392  153.7654 H   0  0  0  0  0  0  0  0  0  0  0  0
  150.2776  142.2989  154.4451 H   0  0  0  0  0  0  0  0  0  0  0  0
  149.3276  142.5455  155.8813 H   0  0  0  0  0  0  0  0  0  0  0  0
  150.6559  139.6808  154.0321 H   0  0  0  0  0  0  0  0  0  0  0  0
  152.3381  139.2684  154.0113 H   0  0  0  0  0  0  0  0  0  0  0  0
  151.3122  137.4894  155.9485 H   0  0  0  0  0  0  0  0  0  0  0  0
  149.9762  137.6472  154.8230 H   0  0  0  0  0  0  0  0  0  0  0  0
  151.3621  137.0827  153.1446 H   0  0  0  0  0  0  0  0  0  0  0  0
  153.7476  140.2825  159.3113 H   0  0  0  0  0  0  0  0  0  0  0  0
  153.1324  142.2325  160.7228 H   0  0  0  0  0  0  0  0  0  0  0  0
  151.3609  143.8116  159.9809 H   0  0  0  0  0  0  0  0  0  0  0  0
  150.1929  143.4455  157.8101 H   0  0  0  0  0  0  0  0  0  0  0  0
  145.8902  141.9568  157.4218 H   0  0  0  0  0  0  0  0  0  0  0  0
  144.3947  143.8224  156.9073 H   0  0  0  0  0  0  0  0  0  0  0  0
  1  2  1  0  0  0  0
  1 24  1  0  0  0  0
  1 25  1  0  0  0  0
  1 26  1  0  0  0  0
  2  3  1  0  0  0  0
  3 23  1  0  0  0  0
  3  4  2  0  0  0  0
  4  5  1  0  0  0  0
  4 27  1  0  0  0  0
  5  6  2  0  0  0  0
  5 28  1  0  0  0  0
  6  7  1  0  0  0  0
  6 22  1  0  0  0  0
  7  8  1  0  0  0  0
  8  9  1  0  0  0  0
  8 29  1  0  0  0  0
  8 30  1  0  0  0  0
  9 10  1  0  0  0  0
  9 31  1  0  0  0  0
  9 32  1  0  0  0  0
 10 21  1  0  0  0  0
 10 11  1  0  0  0  0
 11 12  1  0  0  0  0
 11 15  2  0  0  0  0
 12 13  1  0  0  0  0
 12 33  1  0  0  0  0
 12 34  1  0  0  0  0
 13 14  1  0  0  0  0
 13 35  1  0  0  0  0
 13 36  1  0  0  0  0
 14 37  1  0  0  0  0
 15 16  1  0  0  0  0
 16 21  2  0  0  0  0
 16 17  1  0  0  0  0
 17 18  2  0  0  0  0
 17 38  1  0  0  0  0
 18 19  1  0  0  0  0
 18 39  1  0  0  0  0
 19 20  2  0  0  0  0
 19 40  1  0  0  0  0
 20 21  1  0  0  0  0
 20 41  1  0  0  0  0
 22 23  2  0  0  0  0
 22 42  1  0  0  0  0
 23 43  1  0  0  0  0
M  END
> <s_m_source_file>
AV-unprocessed.smi

> <i_m_source_file_index>
459

> <i_lp_mmshare_version>
43012

> <i_f3d_flags>
0

> <s_epik_input>
W0NIM11PYzFbY0hdW2NIXWMoW2NIXVtjSF0xKU9bQ0gyXVtDSDJdbihjKG4yKVtDSDJdW0NIMl1bT0hdKWMoYzIzKVtjSF1bY0hdW2NIXVtjSF0z

> <s_epik_cmdline>
J2VwaWtfcHl0aG9uJywgJy1waCcsICc3LjAnLCAnLXRuJywgJzgnLCAnLW1hJywgJzIwMCcsICctbWV0YWxfYmluZGluZycsICctaW1hZScsICc8aW5maWxlLm1hZT4nLCAnLW9tYWUnLCAnPG91dGZpbGUubWFlPic=

> <r_lp_tautomer_probability>
1

> <r_epik_Ionization_Penalty>
0.207087

> <r_epik_Ionization_Penalty_Charging>
0

> <r_epik_Ionization_Penalty_Neutral>
0.207087

> <r_epik_State_Penalty>
0.197081

> <r_epik_Charging_Adjusted_Penalty>
0.197081

> <i_epik_Tot_Q>
0

> <i_epik_Tot_abs_Q>
0

> <r_epik_Metal_State_Penalty>
0.00023377

> <b_epik_Metal_Only>
0

> <s_lp_Force_Field>
OPLS_2005

> <r_lp_Energy>
17.9825

> <b_lp_Chiralities_Consistent>
1

> <s_lp_Variant>
AV-unprocessed.smi:459-1

> <Gold.Version>
5.8.1

> <Gold.Id.Protein>
6NUR|6NUR_protein|mol2

> <Gold.PLP.Fitness>
53.9671

> <Gold.PLP.PLP>
-48.1898

> <Gold.PLP.part.hbond>
-3.0000

> <Gold.PLP.part.metal>
0.0000

> <Gold.PLP.part.buried>
-3.9756

> <Gold.PLP.part.nonpolar>
-41.1761

> <Gold.PLP.part.repulsive>
0.1328

> <Gold.PLP.ligand.clash>
0.0000

> <Gold.PLP.ligand.torsion>
1.1157

> <Gold.PLP.Chemscore.Hbond>
2.6520

> <Gold.PLP.Chemscore.CHOScore>
0.0000

> <Gold.PLP.Chemscore.Metal>
0.0000

> <Gold.Chemscore.Hbonds>
donor molecule, donor type, donor heavy atom, donor atom, acceptor molecule, acceptor atom, score
      L1  H    14    37       P1  7949  0.66
      P1  H  7997  8009       L1    15  0.85
      P1  H 10752 10763       L1    14  1.00

> <Gold.PLP.Chemscore.Internal.Correction>
0.0527

> <Gold.Rescore>
     Score         DG    S(hbond)    S(metal)    S(lipo)     H(rot)  DE(clash)    DE(int)     intcor
     15.74     -17.56       1.60        0.00     114.31       2.59       0.10       1.72       ----

> <Gold.Chemscore.Fitness>
15.7398

> <Gold.Chemscore.DG>
-17.5628

> <Gold.Chemscore.ZeroCoef>
-5.4800

> <Gold.Chemscore.Hbond>
1.5998

> <Gold.Chemscore.Metal>
0.0000

> <Gold.Chemscore.Lipo>
114.3089

> <Gold.Chemscore.Internal_Hbond>
0.0000

> <Gold.Chemscore.DEClash>
0.1027

> <Gold.Chemscore.DEInternal>
1.7203

> <Gold.Chemscore.Rot>
2.5916

> <Gold.Chemscore.Internal.Correction>
   9.000000E+99

> <Gold.Chemscore.Hbonds>
donor molecule, donor type, donor heavy atom, donor atom, acceptor molecule, acceptor atom, score
      L1  H    14    37       P1  7949  0.50
      P1  H  7997  8009       L1    15  0.13
      P1  H 10752 10763       L1    14  0.93

> <Gold.Chemscore.Hbond.Weighted>
-5.3432

> <Gold.Chemscore.Metal.Weighted>
-0.0000

> <Gold.Chemscore.Lipo.Weighted>
-13.3741

> <Gold.Chemscore.Internal_Hbond.Weighted>
0.0000

> <Gold.Chemscore.DEClash.Weighted>
0.1027

> <Gold.Chemscore.DEInternal.Weighted>
1.7203

> <Gold.Chemscore.Rot.Weighted>
6.6346

> <Gold.Chemscore.Internal.Correction.Weighted>
   9.000000E+99

> <Gold.Protein.RotatedTorsions>
[ 6907 6896 6895 6894 ] final   82.48 input  -60.11 | X-H torsion
[ 7974 7965 7964 7962 ] final  171.45 input  175.53 | X-H torsion
[ 8008 7997 7996 7995 ] final -163.93 input   59.86 | X-H torsion
[ 10167 10162 10161 10158 ] final  134.93 input  -65.29 | X-H torsion
[ 10718 10713 10712 10709 ] final  172.65 input   66.30 | X-H torsion
[ 10763 10752 10751 10750 ] final   31.76 input  -60.55 | X-H torsion
[ 11005 11000 10999 10996 ] final  -35.21 input  -57.11 | X-H torsion

> <Gold.Protein.ActiveResidues>
 VAL166  LYS551  ARG553  GLY616  TRP617  ASP618  TYR619  PRO620  LYS621  CYS622 
 ASP623  PHE694  ASN695  SER759  ASP760  ASP761  ALA762  ILE779  LEU786  VAL792 
 PHE793  MET794  SER795  GLU796  ALA797  LYS798  CYS799  TRP800  GLU811  SER814 

> <Gold.Protein.RotatedAtoms>
  152.5300  134.3044  159.9090 H   0  0  0  0  0  0  0  0  0  0  0  0  # atno 6907 bound_to 6896
  151.2994  133.4123  159.2646 H   0  0  0  0  0  0  0  0  0  0  0  0  # atno 6908 bound_to 6896
  151.0132  134.9429  159.8076 H   0  0  0  0  0  0  0  0  0  0  0  0  # atno 6909 bound_to 6896
  144.7295  139.9351  143.6426 H   0  0  0  0  0  0  0  0  0  0  0  0  # atno 7974 bound_to 7965
  155.8284  140.0930  157.1807 H   0  0  0  0  0  0  0  0  0  0  0  0  # atno 8008 bound_to 7997
  154.3979  140.1423  156.3644 H   0  0  0  0  0  0  0  0  0  0  0  0  # atno 8009 bound_to 7997
  155.8192  140.3447  155.5506 H   0  0  0  0  0  0  0  0  0  0  0  0  # atno 8010 bound_to 7997
  139.5237  144.6543  151.5210 H   0  0  0  0  0  0  0  0  0  0  0  0  # atno 10167 bound_to 10162
  156.9758  131.0104  151.2894 H   0  0  0  0  0  0  0  0  0  0  0  0  # atno 10718 bound_to 10713
  153.0298  135.6430  154.1250 H   0  0  0  0  0  0  0  0  0  0  0  0  # atno 10763 bound_to 10752
  154.0974  135.2862  155.3260 H   0  0  0  0  0  0  0  0  0  0  0  0  # atno 10764 bound_to 10752
  154.6422  135.5455  153.7866 H   0  0  0  0  0  0  0  0  0  0  0  0  # atno 10765 bound_to 10752
  140.9778  133.7073  156.1632 H   0  0  0  0  0  0  0  0  0  0  0  0  # atno 11005 bound_to 11000
  146.0827  139.3815  143.0454 LP  0  0  0  0  0  0  0  0  0  0  0  0  # atno 17320 bound_to 7965
  145.7818  140.9853  143.1095 LP  0  0  0  0  0  0  0  0  0  0  0  0  # atno 17321 bound_to 7965
  140.6361  143.8981  150.6648 LP  0  0  0  0  0  0  0  0  0  0  0  0  # atno 17342 bound_to 10162
  140.2301  143.3742  152.1573 LP  0  0  0  0  0  0  0  0  0  0  0  0  # atno 17343 bound_to 10162
  157.5561  130.8214  149.8206 LP  0  0  0  0  0  0  0  0  0  0  0  0  # atno 17370 bound_to 10713
  156.0264  130.3778  150.1811 LP  0  0  0  0  0  0  0  0  0  0  0  0  # atno 17371 bound_to 10713
  140.7233  134.4335  157.5573 LP  0  0  0  0  0  0  0  0  0  0  0  0  # atno 17394 bound_to 11000
  139.8937  134.8723  156.2209 LP  0  0  0  0  0  0  0  0  0  0  0  0  # atno 17395 bound_to 11000

$$$$
