AV-unprocessed.smi:3132|AV-procd|sdf|11932|dock10
  -GOLD-   2272017323D 1   1.00000     0.00000
 Structure written by MMmdl.
 34 35  0  0  0  0  0  0  0  0  2 V2000
  149.3880  139.8124  156.0283 C   0  0  0  0  0  0  0  0  0  0  0  0
  150.1175  140.9924  155.3726 C   0  0  1  0  0  0  0  0  0  0  0  0
  149.3855  141.4667  154.0981 C   0  0  0  0  0  0  0  0  0  0  0  0
  147.9247  141.4225  154.2253 N   0  0  0  0  0  0  0  0  0  0  0  0
  147.1477  142.0949  155.1340 C   0  0  0  0  0  0  0  0  0  0  0  0
  145.8469  141.7608  154.8586 C   0  0  0  0  0  0  0  0  0  0  0  0
  145.8852  140.8945  153.7989 N   0  3  0  0  0  0  0  0  0  0  0  0
  147.1497  140.6878  153.4171 C   0  0  0  0  0  0  0  0  0  0  0  0
  150.2318  142.0803  156.3435 N   0  0  0  0  0  0  0  0  0  0  0  0
  150.8560  142.0086  157.5302 C   0  0  0  0  0  0  0  0  0  0  0  0
  151.3933  140.9829  157.9506 O   0  0  0  0  0  0  0  0  0  0  0  0
  150.9168  143.3088  158.3386 C   0  0  1  0  0  0  0  0  0  0  0  0
  151.6718  143.1924  159.6762 C   0  0  0  0  0  0  0  0  0  0  0  0
  152.9769  143.9150  159.4098 C   0  0  0  0  0  0  0  0  0  0  0  0
  152.5424  144.9693  158.4017 C   0  0  0  0  0  0  0  0  0  0  0  0
  151.6366  144.2673  157.5635 O   0  0  0  0  0  0  0  0  0  0  0  0
  149.3100  138.9687  155.3419 H   0  0  0  0  0  0  0  0  0  0  0  0
  148.3772  140.0877  156.3322 H   0  0  0  0  0  0  0  0  0  0  0  0
  149.9197  139.4651  156.9150 H   0  0  0  0  0  0  0  0  0  0  0  0
  151.1127  140.6396  155.0961 H   0  0  0  0  0  0  0  0  0  0  0  0
  149.6615  142.4951  153.8599 H   0  0  0  0  0  0  0  0  0  0  0  0
  149.6691  140.8569  153.2389 H   0  0  0  0  0  0  0  0  0  0  0  0
  147.5664  142.7520  155.8825 H   0  0  0  0  0  0  0  0  0  0  0  0
  144.9214  142.0677  155.3238 H   0  0  0  0  0  0  0  0  0  0  0  0
  147.4787  140.0609  152.6076 H   0  0  0  0  0  0  0  0  0  0  0  0
  149.8253  142.9671  156.0817 H   0  0  0  0  0  0  0  0  0  0  0  0
  149.9061  143.6784  158.5204 H   0  0  0  0  0  0  0  0  0  0  0  0
  151.1140  143.7112  160.4572 H   0  0  0  0  0  0  0  0  0  0  0  0
  151.8282  142.1681  160.0177 H   0  0  0  0  0  0  0  0  0  0  0  0
  153.4239  144.3404  160.3089 H   0  0  0  0  0  0  0  0  0  0  0  0
  153.6987  143.2349  158.9549 H   0  0  0  0  0  0  0  0  0  0  0  0
  152.0193  145.7885  158.8976 H   0  0  0  0  0  0  0  0  0  0  0  0
  153.3768  145.3834  157.8350 H   0  0  0  0  0  0  0  0  0  0  0  0
  145.0747  140.4731  153.3627 H   0  0  0  0  0  0  0  0  0  0  0  0
  1  2  1  0  0  0  0
  1 17  1  0  0  0  0
  1 18  1  0  0  0  0
  1 19  1  0  0  0  0
  2  3  1  0  0  0  0
  2  9  1  0  0  0  0
  2 20  1  0  0  0  0
  3  4  1  0  0  0  0
  3 21  1  0  0  0  0
  3 22  1  0  0  0  0
  4  8  1  0  0  0  0
  4  5  1  0  0  0  0
  5  6  2  0  0  0  0
  5 23  1  0  0  0  0
  6  7  1  0  0  0  0
  6 24  1  0  0  0  0
  7  8  2  0  0  0  0
  7 34  1  0  0  0  0
  8 25  1  0  0  0  0
  9 10  1  0  0  0  0
  9 26  1  0  0  0  0
 10 11  2  0  0  0  0
 10 12  1  0  0  0  0
 12 16  1  0  0  0  0
 12 13  1  0  0  0  0
 12 27  1  0  0  0  0
 13 14  1  0  0  0  0
 13 28  1  0  0  0  0
 13 29  1  0  0  0  0
 14 15  1  0  0  0  0
 14 30  1  0  0  0  0
 14 31  1  0  0  0  0
 15 16  1  0  0  0  0
 15 32  1  0  0  0  0
 15 33  1  0  0  0  0
M  CHG  1   7   1
M  END
> <s_m_source_file>
AV-unprocessed.smi

> <i_m_source_file_index>
3132

> <i_lp_mmshare_version>
43012

> <i_f3d_flags>
0

> <s_epik_input>
W2NIXTFuW2NIXVtjSF1uMVtDSDJdW0NAQEhdKFtDSDNdKVtOSF1DKD1PKVtDQEBIXTJbQ0gyXVtDSDJdW0NIMl1PMg==

> <s_epik_cmdline>
J2VwaWtfcHl0aG9uJywgJy1waCcsICc3LjAnLCAnLXRuJywgJzgnLCAnLW1hJywgJzIwMCcsICctbWV0YWxfYmluZGluZycsICctaW1hZScsICc8aW5maWxlLm1hZT4nLCAnLW9tYWUnLCAnPG91dGZpbGUubWFlPic=

> <r_lp_tautomer_probability>
1

> <r_epik_Ionization_Penalty>
0.250802

> <r_epik_Ionization_Penalty_Charging>
0

> <r_epik_Ionization_Penalty_Neutral>
0.250802

> <r_epik_State_Penalty>
0.242139

> <r_epik_Charging_Adjusted_Penalty>
0.242139

> <i_epik_Tot_Q>
1

> <i_epik_Tot_abs_Q>
1

> <r_epik_Metal_State_Penalty>
0.533361

> <b_epik_Metal_Only>
0

> <s_lp_Force_Field>
OPLS_2005

> <r_lp_Energy>
20.1872

> <b_lp_Chiralities_Consistent>
1

> <s_lp_Variant>
AV-unprocessed.smi:3132-4

> <Gold.Version>
5.8.1

> <Gold.Id.Protein>
6NUR|6NUR_protein|mol2

> <Gold.PLP.Fitness>
44.4155

> <Gold.PLP.PLP>
-30.0857

> <Gold.PLP.part.hbond>
-1.8860

> <Gold.PLP.part.metal>
0.0000

> <Gold.PLP.part.buried>
0.4949

> <Gold.PLP.part.nonpolar>
-27.3074

> <Gold.PLP.part.repulsive>
0.2184

> <Gold.PLP.ligand.clash>
0.0000

> <Gold.PLP.ligand.torsion>
0.2477

> <Gold.PLP.Chemscore.Hbond>
2.9425

> <Gold.PLP.Chemscore.CHOScore>
1.9922

> <Gold.PLP.Chemscore.Metal>
0.0000

> <Gold.Chemscore.Hbonds>
donor molecule, donor type, donor heavy atom, donor atom, acceptor molecule, acceptor atom, score
      L1  H     7    34       P1 10175  2.00
      L1  H     9    26       P1  8028  0.99
      L1  C     5    23       P1  8028  1.00
      L1  C     8    25       P1  7957  0.94

> <Gold.PLP.Chemscore.Internal.Correction>
0.0210

> <Gold.Rescore>
     Score         DG    S(hbond)    S(metal)    S(lipo)     H(rot)  DE(clash)    DE(int)     intcor
     14.06     -16.14       1.95        0.00      77.77       1.93       0.94       1.15       ----

> <Gold.Chemscore.Fitness>
14.0612

> <Gold.Chemscore.DG>
-16.1442

> <Gold.Chemscore.ZeroCoef>
-5.4800

> <Gold.Chemscore.Hbond>
1.9484

> <Gold.Chemscore.Metal>
0.0000

> <Gold.Chemscore.Lipo>
77.7715

> <Gold.Chemscore.Internal_Hbond>
0.0000

> <Gold.Chemscore.DEClash>
0.9369

> <Gold.Chemscore.DEInternal>
1.1461

> <Gold.Chemscore.Rot>
1.9308

> <Gold.Chemscore.Internal.Correction>
   9.000000E+99

> <Gold.Chemscore.Hbonds>
donor molecule, donor type, donor heavy atom, donor atom, acceptor molecule, acceptor atom, score
      L1  H     7    34       P1 10175  0.96
      L1  H     9    26       P1  8028  0.92

> <Gold.Chemscore.Hbond.Weighted>
-6.5078

> <Gold.Chemscore.Metal.Weighted>
-0.0000

> <Gold.Chemscore.Lipo.Weighted>
-9.0993

> <Gold.Chemscore.Internal_Hbond.Weighted>
0.0000

> <Gold.Chemscore.DEClash.Weighted>
0.9369

> <Gold.Chemscore.DEInternal.Weighted>
1.1461

> <Gold.Chemscore.Rot.Weighted>
4.9429

> <Gold.Chemscore.Internal.Correction.Weighted>
   9.000000E+99

> <Gold.Protein.RotatedTorsions>
[ 6907 6896 6895 6894 ] final  -56.37 input  -60.11 | X-H torsion
[ 7974 7965 7964 7962 ] final  159.25 input  175.53 | X-H torsion
[ 8008 7997 7996 7995 ] final  135.03 input   59.86 | X-H torsion
[ 10167 10162 10161 10158 ] final  -92.14 input  -65.29 | X-H torsion
[ 10718 10713 10712 10709 ] final  -53.06 input   66.30 | X-H torsion
[ 10763 10752 10751 10750 ] final  167.51 input  -60.55 | X-H torsion
[ 11005 11000 10999 10996 ] final  128.73 input  -57.11 | X-H torsion

> <Gold.Protein.ActiveResidues>
 VAL166  LYS551  ARG553  GLY616  TRP617  ASP618  TYR619  PRO620  LYS621  CYS622 
 ASP623  PHE694  ASN695  SER759  ASP760  ASP761  ALA762  ILE779  LEU786  VAL792 
 PHE793  MET794  SER795  GLU796  ALA797  LYS798  CYS799  TRP800  GLU811  SER814 

> <Gold.Protein.RotatedAtoms>
  150.8173  134.7362  159.6741 H   0  0  0  0  0  0  0  0  0  0  0  0  # atno 6907 bound_to 6896
  152.4291  134.5808  159.9957 H   0  0  0  0  0  0  0  0  0  0  0  0  # atno 6908 bound_to 6896
  151.6002  133.3320  159.3082 H   0  0  0  0  0  0  0  0  0  0  0  0  # atno 6909 bound_to 6896
  144.7800  139.7591  143.6263 H   0  0  0  0  0  0  0  0  0  0  0  0  # atno 7974 bound_to 7965
  156.3001  140.2481  156.3514 H   0  0  0  0  0  0  0  0  0  0  0  0  # atno 8008 bound_to 7997
  154.8962  140.0407  157.1886 H   0  0  0  0  0  0  0  0  0  0  0  0  # atno 8009 bound_to 7997
  154.8547  140.2911  155.5580 H   0  0  0  0  0  0  0  0  0  0  0  0  # atno 8010 bound_to 7997
  140.3378  143.2959  151.9870 H   0  0  0  0  0  0  0  0  0  0  0  0  # atno 10167 bound_to 10162
  156.1568  130.4150  149.9857 H   0  0  0  0  0  0  0  0  0  0  0  0  # atno 10718 bound_to 10713
  154.3549  135.2753  155.2352 H   0  0  0  0  0  0  0  0  0  0  0  0  # atno 10763 bound_to 10752
  154.4565  135.5918  153.6230 H   0  0  0  0  0  0  0  0  0  0  0  0  # atno 10764 bound_to 10752
  152.9847  135.6054  154.3764 H   0  0  0  0  0  0  0  0  0  0  0  0  # atno 10765 bound_to 10752
  139.9577  134.9609  156.9045 H   0  0  0  0  0  0  0  0  0  0  0  0  # atno 11005 bound_to 11000
  146.2003  139.5294  142.9747 LP  0  0  0  0  0  0  0  0  0  0  0  0  # atno 17320 bound_to 7965
  145.6076  141.0345  143.1984 LP  0  0  0  0  0  0  0  0  0  0  0  0  # atno 17321 bound_to 7965
  139.4845  144.6182  151.7306 LP  0  0  0  0  0  0  0  0  0  0  0  0  # atno 17342 bound_to 10162
  140.5337  144.0689  150.6063 LP  0  0  0  0  0  0  0  0  0  0  0  0  # atno 17343 bound_to 10162
  156.7698  130.9182  151.3644 LP  0  0  0  0  0  0  0  0  0  0  0  0  # atno 17370 bound_to 10713
  157.6701  130.9043  150.0020 LP  0  0  0  0  0  0  0  0  0  0  0  0  # atno 17371 bound_to 10713
  140.5572  134.0570  155.7387 LP  0  0  0  0  0  0  0  0  0  0  0  0  # atno 17394 bound_to 11000
  141.1250  133.9398  157.2653 LP  0  0  0  0  0  0  0  0  0  0  0  0  # atno 17395 bound_to 11000

$$$$
