AV-unprocessed.smi:213|AV-procd|sdf|1640|dock5
  -GOLD-   2262020 03D 1   1.00000     0.00000
 Structure written by MMmdl.
 59 62  0  0  0  0  0  0  0  0  2 V2000
  145.1487  136.7465  154.4455 C   0  0  0  0  0  0  0  0  0  0  0  0
  146.1226  136.8481  153.2566 C   0  0  1  0  0  0  0  0  0  0  0  0
  145.4254  136.5691  151.9043 C   0  0  0  0  0  0  0  0  0  0  0  0
  145.0900  135.1356  151.7168 N   0  3  0  0  0  0  0  0  0  0  0  0
  144.3521  134.8878  150.4554 C   0  0  0  0  0  0  0  0  0  0  0  0
  143.9884  133.3991  150.3261 C   0  0  0  0  0  0  0  0  0  0  0  0
  145.1702  132.6114  150.3949 O   0  0  0  0  0  0  0  0  0  0  0  0
  145.8432  132.7703  151.6376 C   0  0  0  0  0  0  0  0  0  0  0  0
  146.2689  134.2380  151.8106 C   0  0  0  0  0  0  0  0  0  0  0  0
  146.8110  138.1466  153.2455 N   0  0  0  0  0  0  0  0  0  0  0  0
  146.8991  138.9120  152.0034 C   0  0  0  0  0  0  0  0  0  0  0  0
  147.7388  138.4287  154.2050 C   0  0  0  0  0  0  0  0  0  0  0  0
  148.0677  137.4731  155.1174 N   0  0  0  0  0  0  0  0  0  0  0  0
  148.9783  137.7146  156.0641 C   0  0  0  0  0  0  0  0  0  0  0  0
  149.6753  138.8292  156.2841 N   0  0  0  0  0  0  0  0  0  0  0  0
  149.3505  139.7981  155.3820 C   0  0  0  0  0  0  0  0  0  0  0  0
  148.4047  139.6863  154.3219 C   0  0  0  0  0  0  0  0  0  0  0  0
  148.3431  140.8901  153.6265 N   0  0  0  0  0  0  0  0  0  0  0  0
  149.2074  141.6593  154.2304 C   0  0  0  0  0  0  0  0  0  0  0  0
  149.8573  141.0817  155.2959 N   0  0  0  0  0  0  0  0  0  0  0  0
  150.8600  141.7000  156.1449 C   0  0  0  0  0  0  0  0  0  0  0  0
  150.3322  142.9642  156.8500 C   0  0  1  0  0  0  0  0  0  0  0  0
  148.9674  142.8102  157.1925 O   0  0  0  0  0  0  0  0  0  0  0  0
  151.1651  143.3471  158.0897 C   0  0  1  0  0  0  0  0  0  0  0  0
  152.4133  144.2090  157.8375 C   0  0  0  0  0  0  0  0  0  0  0  0
  152.3688  145.2526  158.9449 C   0  0  0  0  0  0  0  0  0  0  0  0
  151.3052  144.7245  159.9030 C   0  0  0  0  0  0  0  0  0  0  0  0
  150.3921  144.0643  159.0429 O   0  0  0  0  0  0  0  0  0  0  0  0
  144.7342  135.7416  154.5288 H   0  0  0  0  0  0  0  0  0  0  0  0
  144.3111  137.4375  154.3516 H   0  0  0  0  0  0  0  0  0  0  0  0
  145.6565  136.9647  155.3858 H   0  0  0  0  0  0  0  0  0  0  0  0
  146.8738  136.0803  153.4373 H   0  0  0  0  0  0  0  0  0  0  0  0
  144.5120  137.1631  151.8529 H   0  0  0  0  0  0  0  0  0  0  0  0
  146.0439  136.8988  151.0681 H   0  0  0  0  0  0  0  0  0  0  0  0
  143.4423  135.4892  150.4328 H   0  0  0  0  0  0  0  0  0  0  0  0
  144.9637  135.1988  149.6067 H   0  0  0  0  0  0  0  0  0  0  0  0
  143.2900  133.0983  151.1088 H   0  0  0  0  0  0  0  0  0  0  0  0
  143.4958  133.2144  149.3713 H   0  0  0  0  0  0  0  0  0  0  0  0
  145.1990  132.4516  152.4584 H   0  0  0  0  0  0  0  0  0  0  0  0
  146.7192  132.1213  151.6502 H   0  0  0  0  0  0  0  0  0  0  0  0
  146.9950  134.5058  151.0414 H   0  0  0  0  0  0  0  0  0  0  0  0
  146.7674  134.3561  152.7719 H   0  0  0  0  0  0  0  0  0  0  0  0
  147.9307  139.1842  151.7767 H   0  0  0  0  0  0  0  0  0  0  0  0
  146.3092  139.8256  152.0821 H   0  0  0  0  0  0  0  0  0  0  0  0
  146.5215  138.3465  151.1525 H   0  0  0  0  0  0  0  0  0  0  0  0
  149.1768  136.8978  156.7422 H   0  0  0  0  0  0  0  0  0  0  0  0
  149.3968  142.6744  153.9129 H   0  0  0  0  0  0  0  0  0  0  0  0
  151.1977  140.9645  156.8762 H   0  0  0  0  0  0  0  0  0  0  0  0
  151.7245  141.9454  155.5272 H   0  0  0  0  0  0  0  0  0  0  0  0
  150.3825  143.7973  156.1483 H   0  0  0  0  0  0  0  0  0  0  0  0
  148.4534  143.3700  156.6311 H   0  0  0  0  0  0  0  0  0  0  0  0
  151.4860  142.4282  158.5837 H   0  0  0  0  0  0  0  0  0  0  0  0
  153.3153  143.5993  157.8993 H   0  0  0  0  0  0  0  0  0  0  0  0
  152.4118  144.6924  156.8605 H   0  0  0  0  0  0  0  0  0  0  0  0
  153.3341  145.4002  159.4304 H   0  0  0  0  0  0  0  0  0  0  0  0
  152.0491  146.2109  158.5335 H   0  0  0  0  0  0  0  0  0  0  0  0
  151.7334  144.0053  160.6031 H   0  0  0  0  0  0  0  0  0  0  0  0
  150.8212  145.5167  160.4745 H   0  0  0  0  0  0  0  0  0  0  0  0
  144.4621  134.8846  152.4673 H   0  0  0  0  0  0  0  0  0  0  0  0
  1  2  1  0  0  0  0
  1 29  1  0  0  0  0
  1 30  1  0  0  0  0
  1 31  1  0  0  0  0
  2  3  1  0  0  0  0
  2 10  1  0  0  0  0
  2 32  1  0  0  0  0
  3  4  1  0  0  0  0
  3 33  1  0  0  0  0
  3 34  1  0  0  0  0
  4  9  1  0  0  0  0
  4  5  1  0  0  0  0
  4 59  1  0  0  0  0
  5  6  1  0  0  0  0
  5 35  1  0  0  0  0
  5 36  1  0  0  0  0
  6  7  1  0  0  0  0
  6 37  1  0  0  0  0
  6 38  1  0  0  0  0
  7  8  1  0  0  0  0
  8  9  1  0  0  0  0
  8 39  1  0  0  0  0
  8 40  1  0  0  0  0
  9 41  1  0  0  0  0
  9 42  1  0  0  0  0
 10 11  1  0  0  0  0
 10 12  1  0  0  0  0
 11 43  1  0  0  0  0
 11 44  1  0  0  0  0
 11 45  1  0  0  0  0
 12 17  1  0  0  0  0
 12 13  2  0  0  0  0
 13 14  1  0  0  0  0
 14 15  2  0  0  0  0
 14 46  1  0  0  0  0
 15 16  1  0  0  0  0
 16 20  1  0  0  0  0
 16 17  2  0  0  0  0
 17 18  1  0  0  0  0
 18 19  2  0  0  0  0
 19 20  1  0  0  0  0
 19 47  1  0  0  0  0
 20 21  1  0  0  0  0
 21 22  1  0  0  0  0
 21 48  1  0  0  0  0
 21 49  1  0  0  0  0
 22 23  1  0  0  0  0
 22 24  1  0  0  0  0
 22 50  1  0  0  0  0
 23 51  1  0  0  0  0
 24 28  1  0  0  0  0
 24 25  1  0  0  0  0
 24 52  1  0  0  0  0
 25 26  1  0  0  0  0
 25 53  1  0  0  0  0
 25 54  1  0  0  0  0
 26 27  1  0  0  0  0
 26 55  1  0  0  0  0
 26 56  1  0  0  0  0
 27 28  1  0  0  0  0
 27 57  1  0  0  0  0
 27 58  1  0  0  0  0
M  CHG  1   4   1
M  END
> <s_m_source_file>
AV-unprocessed.smi

> <i_m_source_file_index>
213

> <i_lp_mmshare_version>
43012

> <i_f3d_flags>
0

> <s_epik_input>
W0NIMl0xW0NIMl1PW0NIMl1bQ0gyXU4xW0NIMl1bQ0BASF0oW0NIM10pTihbQ0gzXSljKG5bY0hdbjIpYyhjMjMpbltjSF1uM1tDSDJdW0NASF0oW09IXSlbQ0BASF00W0NIMl1bQ0gyXVtDSDJdTzQ=

> <s_epik_cmdline>
J2VwaWtfcHl0aG9uJywgJy1waCcsICc3LjAnLCAnLXRuJywgJzgnLCAnLW1hJywgJzIwMCcsICctbWV0YWxfYmluZGluZycsICctaW1hZScsICc8aW5maWxlLm1hZT4nLCAnLW9tYWUnLCAnPG91dGZpbGUubWFlPic=

> <r_lp_tautomer_probability>
1

> <r_epik_Ionization_Penalty>
0.399679

> <r_epik_Ionization_Penalty_Charging>
0.399433

> <r_epik_Ionization_Penalty_Neutral>
0.000246213

> <r_epik_State_Penalty>
0.286032

> <r_epik_Charging_Adjusted_Penalty>
0.685465

> <i_epik_Tot_Q>
1

> <i_epik_Tot_abs_Q>
1

> <r_epik_Metal_State_Penalty>
0.286072

> <b_epik_Metal_Only>
0

> <s_lp_Force_Field>
OPLS_2005

> <r_lp_Energy>
46.5476

> <b_lp_Chiralities_Consistent>
1

> <s_lp_Variant>
AV-unprocessed.smi:213-8

> <Gold.Version>
5.8.1

> <Gold.Id.Protein>
6NUR|6NUR_protein|mol2

> <Gold.PLP.Fitness>
46.4201

> <Gold.PLP.PLP>
-44.0938

> <Gold.PLP.part.hbond>
-1.0000

> <Gold.PLP.part.metal>
0.0000

> <Gold.PLP.part.buried>
-0.5426

> <Gold.PLP.part.nonpolar>
-42.7572

> <Gold.PLP.part.repulsive>
0.6448

> <Gold.PLP.ligand.clash>
0.0000

> <Gold.PLP.ligand.torsion>
1.4228

> <Gold.PLP.Chemscore.Hbond>
0.4950

> <Gold.PLP.Chemscore.CHOScore>
0.9711

> <Gold.PLP.Chemscore.Metal>
0.0000

> <Gold.Chemscore.Hbonds>
donor molecule, donor type, donor heavy atom, donor atom, acceptor molecule, acceptor atom, score
      L1  H    23    51       P1  8028  0.66
      L1  C    19    47       P1  8028  0.44

> <Gold.PLP.Chemscore.Internal.Correction>
0.7734

> <Gold.Rescore>
     Score         DG    S(hbond)    S(metal)    S(lipo)     H(rot)  DE(clash)    DE(int)     intcor
      8.04     -11.53       0.07        0.00     111.40       2.83       1.41       2.08       ----

> <Gold.Chemscore.Fitness>
8.0383

> <Gold.Chemscore.DG>
-11.5307

> <Gold.Chemscore.ZeroCoef>
-5.4800

> <Gold.Chemscore.Hbond>
0.0747

> <Gold.Chemscore.Metal>
0.0000

> <Gold.Chemscore.Lipo>
111.4044

> <Gold.Chemscore.Internal_Hbond>
0.0000

> <Gold.Chemscore.DEClash>
1.4100

> <Gold.Chemscore.DEInternal>
2.0824

> <Gold.Chemscore.Rot>
2.8254

> <Gold.Chemscore.Internal.Correction>
   9.000000E+99

> <Gold.Chemscore.Hbonds>
donor molecule, donor type, donor heavy atom, donor atom, acceptor molecule, acceptor atom, score
      L1  H    23    51       P1  8028  0.30

> <Gold.Chemscore.Hbond.Weighted>
-0.2493

> <Gold.Chemscore.Metal.Weighted>
-0.0000

> <Gold.Chemscore.Lipo.Weighted>
-13.0343

> <Gold.Chemscore.Internal_Hbond.Weighted>
0.0000

> <Gold.Chemscore.DEClash.Weighted>
1.4100

> <Gold.Chemscore.DEInternal.Weighted>
2.0824

> <Gold.Chemscore.Rot.Weighted>
7.2330

> <Gold.Chemscore.Internal.Correction.Weighted>
   9.000000E+99

> <Gold.Protein.RotatedTorsions>
[ 6907 6896 6895 6894 ] final -151.82 input  -60.11 | X-H torsion
[ 7974 7965 7964 7962 ] final   -3.39 input  175.53 | X-H torsion
[ 8008 7997 7996 7995 ] final  -30.85 input   59.86 | X-H torsion
[ 10167 10162 10161 10158 ] final   80.58 input  -65.29 | X-H torsion
[ 10718 10713 10712 10709 ] final  -64.55 input   66.30 | X-H torsion
[ 10763 10752 10751 10750 ] final  -50.08 input  -60.55 | X-H torsion
[ 11005 11000 10999 10996 ] final -171.44 input  -57.11 | X-H torsion

> <Gold.Protein.ActiveResidues>
 VAL166  LYS551  ARG553  GLY616  TRP617  ASP618  TYR619  PRO620  LYS621  CYS622 
 ASP623  PHE694  ASN695  SER759  ASP760  ASP761  ALA762  ILE779  LEU786  VAL792 
 PHE793  MET794  SER795  GLU796  ALA797  LYS798  CYS799  TRP800  GLU811  SER814 

> <Gold.Protein.RotatedAtoms>
  151.2187  133.4514  159.2599 H   0  0  0  0  0  0  0  0  0  0  0  0  # atno 6907 bound_to 6896
  151.0906  134.9914  159.8411 H   0  0  0  0  0  0  0  0  0  0  0  0  # atno 6908 bound_to 6896
  152.5434  134.2121  159.8807 H   0  0  0  0  0  0  0  0  0  0  0  0  # atno 6909 bound_to 6896
  146.2390  140.1714  142.8332 H   0  0  0  0  0  0  0  0  0  0  0  0  # atno 7974 bound_to 7965
  154.4235  140.1780  156.1473 H   0  0  0  0  0  0  0  0  0  0  0  0  # atno 8008 bound_to 7997
  155.9943  140.3366  155.6759 H   0  0  0  0  0  0  0  0  0  0  0  0  # atno 8009 bound_to 7997
  155.6329  140.0672  157.2634 H   0  0  0  0  0  0  0  0  0  0  0  0  # atno 8010 bound_to 7997
  139.9482  144.6044  150.8186 H   0  0  0  0  0  0  0  0  0  0  0  0  # atno 10167 bound_to 10162
  156.0722  130.4235  150.1436 H   0  0  0  0  0  0  0  0  0  0  0  0  # atno 10718 bound_to 10713
  154.1045  135.6558  153.4874 H   0  0  0  0  0  0  0  0  0  0  0  0  # atno 10763 bound_to 10752
  153.0277  135.5233  154.7253 H   0  0  0  0  0  0  0  0  0  0  0  0  # atno 10764 bound_to 10752
  154.6415  135.2989  155.0067 H   0  0  0  0  0  0  0  0  0  0  0  0  # atno 10765 bound_to 10752
  140.5082  134.5827  157.5010 H   0  0  0  0  0  0  0  0  0  0  0  0  # atno 11005 bound_to 11000
  145.0008  140.8630  143.5283 LP  0  0  0  0  0  0  0  0  0  0  0  0  # atno 17320 bound_to 7965
  145.1733  139.2392  143.5330 LP  0  0  0  0  0  0  0  0  0  0  0  0  # atno 17321 bound_to 7965
  140.7591  143.3121  151.2820 LP  0  0  0  0  0  0  0  0  0  0  0  0  # atno 17342 bound_to 10162
  139.6649  144.0122  152.2717 LP  0  0  0  0  0  0  0  0  0  0  0  0  # atno 17343 bound_to 10162
  156.9485  130.9767  151.3503 LP  0  0  0  0  0  0  0  0  0  0  0  0  # atno 17370 bound_to 10713
  157.5799  130.8369  149.8508 LP  0  0  0  0  0  0  0  0  0  0  0  0  # atno 17371 bound_to 10713
  139.9674  134.7350  156.0111 LP  0  0  0  0  0  0  0  0  0  0  0  0  # atno 17394 bound_to 11000
  141.1399  133.6567  156.3700 LP  0  0  0  0  0  0  0  0  0  0  0  0  # atno 17395 bound_to 11000

$$$$
