AV-unprocessed.smi:848|AV-procd|sdf|3942|dock9
  -GOLD-   22720 1413D 1   1.00000     0.00000
 Structure written by MMmdl.
 47 49  0  0  0  0  0  0  0  0  2 V2000
  151.7290  145.5332  160.0386 C   0  0  0  0  0  0  0  0  0  0  0  0
  151.9895  144.0550  159.8331 C   0  0  0  0  0  0  0  0  0  0  0  0
  152.6883  143.3144  160.8071 C   0  0  0  0  0  0  0  0  0  0  0  0
  152.9295  141.9410  160.6109 C   0  0  0  0  0  0  0  0  0  0  0  0
  153.6823  141.1494  161.6605 C   0  0  0  0  0  0  0  0  0  0  0  0
  152.4712  141.3114  159.4357 C   0  0  0  0  0  0  0  0  0  0  0  0
  151.7699  142.0374  158.4515 C   0  0  0  0  0  0  0  0  0  0  0  0
  151.3578  141.3386  157.3371 O   0  0  0  0  0  0  0  0  0  0  0  0
  150.7363  142.0574  156.2800 C   0  0  0  0  0  0  0  0  0  0  0  0
  149.8964  141.0769  155.4463 C   0  0  1  0  0  0  0  0  0  0  0  0
  150.7164  139.9836  155.0839 O   0  0  0  0  0  0  0  0  0  0  0  0
  148.6718  140.5589  156.2274 C   0  0  0  0  0  0  0  0  0  0  0  0
  147.3912  140.9442  155.6098 N   0  0  0  0  0  0  0  0  0  0  0  0
  146.8185  140.5288  154.4424 C   0  0  0  0  0  0  0  0  0  0  0  0
  147.3730  139.5406  153.4693 C   0  0  0  0  0  0  0  0  0  0  0  0
  147.3603  140.0247  152.1448 O   0  0  0  0  0  0  0  0  0  0  0  0
  145.6273  141.1797  154.3228 N   0  3  0  0  0  0  0  0  0  0  0  0
  145.4345  142.0193  155.4200 C   0  0  0  0  0  0  0  0  0  0  0  0
  144.3828  142.8729  155.7390 C   0  0  0  0  0  0  0  0  0  0  0  0
  144.4951  143.5916  156.9472 C   0  0  0  0  0  0  0  0  0  0  0  0
  145.6195  143.4466  157.7854 C   0  0  0  0  0  0  0  0  0  0  0  0
  146.6797  142.5787  157.4506 C   0  0  0  0  0  0  0  0  0  0  0  0
  146.5628  141.8727  156.2530 C   0  0  0  0  0  0  0  0  0  0  0  0
  151.5332  143.4197  158.6600 C   0  0  0  0  0  0  0  0  0  0  0  0
  151.9860  145.8447  161.0514 H   0  0  0  0  0  0  0  0  0  0  0  0
  150.6760  145.7607  159.8717 H   0  0  0  0  0  0  0  0  0  0  0  0
  152.3233  146.1207  159.3387 H   0  0  0  0  0  0  0  0  0  0  0  0
  153.0411  143.7983  161.7064 H   0  0  0  0  0  0  0  0  0  0  0  0
  153.6095  140.0770  161.4765 H   0  0  0  0  0  0  0  0  0  0  0  0
  153.2766  141.3507  162.6525 H   0  0  0  0  0  0  0  0  0  0  0  0
  154.7365  141.4266  161.6571 H   0  0  0  0  0  0  0  0  0  0  0  0
  152.6576  140.2584  159.2827 H   0  0  0  0  0  0  0  0  0  0  0  0
  150.1182  142.8761  156.6535 H   0  0  0  0  0  0  0  0  0  0  0  0
  151.5186  142.4886  155.6529 H   0  0  0  0  0  0  0  0  0  0  0  0
  149.5531  141.5736  154.5385 H   0  0  0  0  0  0  0  0  0  0  0  0
  150.3713  139.2049  155.4942 H   0  0  0  0  0  0  0  0  0  0  0  0
  148.7062  139.4757  156.3445 H   0  0  0  0  0  0  0  0  0  0  0  0
  148.6776  140.9675  157.2380 H   0  0  0  0  0  0  0  0  0  0  0  0
  148.3991  139.2960  153.7456 H   0  0  0  0  0  0  0  0  0  0  0  0
  146.8000  138.6148  153.5190 H   0  0  0  0  0  0  0  0  0  0  0  0
  148.2527  140.1644  151.8665 H   0  0  0  0  0  0  0  0  0  0  0  0
  143.5192  142.9839  155.0997 H   0  0  0  0  0  0  0  0  0  0  0  0
  143.7021  144.2653  157.2381 H   0  0  0  0  0  0  0  0  0  0  0  0
  145.6695  144.0111  158.7052 H   0  0  0  0  0  0  0  0  0  0  0  0
  147.5316  142.4702  158.1053 H   0  0  0  0  0  0  0  0  0  0  0  0
  151.0029  144.0147  157.9320 H   0  0  0  0  0  0  0  0  0  0  0  0
  144.9909  141.0520  153.5465 H   0  0  0  0  0  0  0  0  0  0  0  0
  1  2  1  0  0  0  0
  1 25  1  0  0  0  0
  1 26  1  0  0  0  0
  1 27  1  0  0  0  0
  2 24  1  0  0  0  0
  2  3  2  0  0  0  0
  3  4  1  0  0  0  0
  3 28  1  0  0  0  0
  4  5  1  0  0  0  0
  4  6  2  0  0  0  0
  5 29  1  0  0  0  0
  5 30  1  0  0  0  0
  5 31  1  0  0  0  0
  6  7  1  0  0  0  0
  6 32  1  0  0  0  0
  7  8  1  0  0  0  0
  7 24  2  0  0  0  0
  8  9  1  0  0  0  0
  9 10  1  0  0  0  0
  9 33  1  0  0  0  0
  9 34  1  0  0  0  0
 10 11  1  0  0  0  0
 10 12  1  0  0  0  0
 10 35  1  0  0  0  0
 11 36  1  0  0  0  0
 12 13  1  0  0  0  0
 12 37  1  0  0  0  0
 12 38  1  0  0  0  0
 13 23  1  0  0  0  0
 13 14  1  0  0  0  0
 14 15  1  0  0  0  0
 14 17  2  0  0  0  0
 15 16  1  0  0  0  0
 15 39  1  0  0  0  0
 15 40  1  0  0  0  0
 16 41  1  0  0  0  0
 17 18  1  0  0  0  0
 17 47  1  0  0  0  0
 18 23  2  0  0  0  0
 18 19  1  0  0  0  0
 19 20  2  0  0  0  0
 19 42  1  0  0  0  0
 20 21  1  0  0  0  0
 20 43  1  0  0  0  0
 21 22  2  0  0  0  0
 21 44  1  0  0  0  0
 22 23  1  0  0  0  0
 22 45  1  0  0  0  0
 24 46  1  0  0  0  0
M  CHG  1  17   1
M  END
> <s_m_source_file>
AV-unprocessed.smi

> <i_m_source_file_index>
848

> <i_lp_mmshare_version>
43012

> <i_f3d_flags>
0

> <s_epik_input>
W0NIM11jMVtjSF1jKFtDSDNdKVtjSF1jKFtjSF0xKU9bQ0gyXVtDQEhdKFtPSF0pW0NIMl1uKGMobjIpW0NIMl1bT0hdKWMoYzIzKVtjSF1bY0hdW2NIXVtjSF0z

> <s_epik_cmdline>
J2VwaWtfcHl0aG9uJywgJy1waCcsICc3LjAnLCAnLXRuJywgJzgnLCAnLW1hJywgJzIwMCcsICctbWV0YWxfYmluZGluZycsICctaW1hZScsICc8aW5maWxlLm1hZT4nLCAnLW9tYWUnLCAnPG91dGZpbGUubWFlPic=

> <r_lp_tautomer_probability>
1

> <r_epik_Ionization_Penalty>
1.43292

> <r_epik_Ionization_Penalty_Charging>
1.43206

> <r_epik_Ionization_Penalty_Neutral>
0.000858184

> <r_epik_State_Penalty>
1.51673

> <r_epik_Charging_Adjusted_Penalty>
2.94879

> <i_epik_Tot_Q>
1

> <i_epik_Tot_abs_Q>
1

> <r_epik_Metal_State_Penalty>
5.56186

> <b_epik_Metal_Only>
0

> <s_lp_Force_Field>
OPLS_2005

> <r_lp_Energy>
19.6511

> <b_lp_Chiralities_Consistent>
1

> <s_lp_Variant>
AV-unprocessed.smi:848-4

> <Gold.Version>
5.8.1

> <Gold.Id.Protein>
6NUR|6NUR_protein|mol2

> <Gold.PLP.Fitness>
57.2330

> <Gold.PLP.PLP>
-47.3688

> <Gold.PLP.part.hbond>
-2.8968

> <Gold.PLP.part.metal>
0.0000

> <Gold.PLP.part.buried>
-6.5401

> <Gold.PLP.part.nonpolar>
-37.7852

> <Gold.PLP.part.repulsive>
0.0283

> <Gold.PLP.ligand.clash>
0.0000

> <Gold.PLP.ligand.torsion>
1.0829

> <Gold.PLP.Chemscore.Hbond>
4.0000

> <Gold.PLP.Chemscore.CHOScore>
0.0000

> <Gold.PLP.Chemscore.Metal>
0.0000

> <Gold.Chemscore.Hbonds>
donor molecule, donor type, donor heavy atom, donor atom, acceptor molecule, acceptor atom, score
      L1  H    16    41       P1  7957  0.94
      L1  H    17    47       P1 10175  2.00
      P1  H  7989  7998       L1    11  0.84

> <Gold.PLP.Chemscore.Internal.Correction>
0.0299

> <Gold.Rescore>
     Score         DG    S(hbond)    S(metal)    S(lipo)     H(rot)  DE(clash)    DE(int)     intcor
     19.87     -21.30       2.72        0.00     124.16       3.05       0.38       1.05       ----

> <Gold.Chemscore.Fitness>
19.8692

> <Gold.Chemscore.DG>
-21.3006

> <Gold.Chemscore.ZeroCoef>
-5.4800

> <Gold.Chemscore.Hbond>
2.7233

> <Gold.Chemscore.Metal>
0.0000

> <Gold.Chemscore.Lipo>
124.1582

> <Gold.Chemscore.Internal_Hbond>
0.0000

> <Gold.Chemscore.DEClash>
0.3818

> <Gold.Chemscore.DEInternal>
1.0496

> <Gold.Chemscore.Rot>
3.0476

> <Gold.Chemscore.Internal.Correction>
   9.000000E+99

> <Gold.Chemscore.Hbonds>
donor molecule, donor type, donor heavy atom, donor atom, acceptor molecule, acceptor atom, score
      L1  H    16    41       P1  7957  0.90
      L1  H    17    47       P1 10175  0.60
      P1  H  7989  7998       L1    11  0.14

> <Gold.Chemscore.Hbond.Weighted>
-9.0959

> <Gold.Chemscore.Metal.Weighted>
-0.0000

> <Gold.Chemscore.Lipo.Weighted>
-14.5265

> <Gold.Chemscore.Internal_Hbond.Weighted>
0.0000

> <Gold.Chemscore.DEClash.Weighted>
0.3818

> <Gold.Chemscore.DEInternal.Weighted>
1.0496

> <Gold.Chemscore.Rot.Weighted>
7.8018

> <Gold.Chemscore.Internal.Correction.Weighted>
   9.000000E+99

> <Gold.Protein.RotatedTorsions>
[ 6907 6896 6895 6894 ] final   57.31 input  -60.11 | X-H torsion
[ 7974 7965 7964 7962 ] final -153.81 input  175.53 | X-H torsion
[ 8008 7997 7996 7995 ] final  -38.06 input   59.86 | X-H torsion
[ 10167 10162 10161 10158 ] final  -90.79 input  -65.29 | X-H torsion
[ 10718 10713 10712 10709 ] final  162.38 input   66.30 | X-H torsion
[ 10763 10752 10751 10750 ] final -169.45 input  -60.55 | X-H torsion
[ 11005 11000 10999 10996 ] final -142.29 input  -57.11 | X-H torsion

> <Gold.Protein.ActiveResidues>
 VAL166  LYS551  ARG553  GLY616  TRP617  ASP618  TYR619  PRO620  LYS621  CYS622 
 ASP623  PHE694  ASN695  SER759  ASP760  ASP761  ALA762  ILE779  LEU786  VAL792 
 PHE793  MET794  SER795  GLU796  ALA797  LYS798  CYS799  TRP800  GLU811  SER814 

> <Gold.Protein.RotatedAtoms>
  152.3719  134.6721  160.0172 H   0  0  0  0  0  0  0  0  0  0  0  0  # atno 6907 bound_to 6896
  151.7011  133.3306  159.3275 H   0  0  0  0  0  0  0  0  0  0  0  0  # atno 6908 bound_to 6896
  150.7680  134.6550  159.6353 H   0  0  0  0  0  0  0  0  0  0  0  0  # atno 6909 bound_to 6896
  144.7722  140.4475  143.5899 H   0  0  0  0  0  0  0  0  0  0  0  0  # atno 7974 bound_to 7965
  154.4043  140.1588  156.2638 H   0  0  0  0  0  0  0  0  0  0  0  0  # atno 8008 bound_to 7997
  155.9013  140.3433  155.6006 H   0  0  0  0  0  0  0  0  0  0  0  0  # atno 8009 bound_to 7997
  155.7444  140.0797  157.2221 H   0  0  0  0  0  0  0  0  0  0  0  0  # atno 8010 bound_to 7997
  140.3514  143.2889  151.9722 H   0  0  0  0  0  0  0  0  0  0  0  0  # atno 10167 bound_to 10162
  157.1233  131.0498  151.2405 H   0  0  0  0  0  0  0  0  0  0  0  0  # atno 10718 bound_to 10713
  154.6522  135.2913  154.9973 H   0  0  0  0  0  0  0  0  0  0  0  0  # atno 10763 bound_to 10752
  154.1062  135.6569  153.4881 H   0  0  0  0  0  0  0  0  0  0  0  0  # atno 10764 bound_to 10752
  153.0382  135.5254  154.7435 H   0  0  0  0  0  0  0  0  0  0  0  0  # atno 10765 bound_to 10752
  140.8239  134.2598  157.4888 H   0  0  0  0  0  0  0  0  0  0  0  0  # atno 11005 bound_to 11000
  145.6292  139.1534  143.2979 LP  0  0  0  0  0  0  0  0  0  0  0  0  # atno 17320 bound_to 7965
  146.1876  140.6396  142.9160 LP  0  0  0  0  0  0  0  0  0  0  0  0  # atno 17321 bound_to 7965
  139.4826  144.6073  151.7499 LP  0  0  0  0  0  0  0  0  0  0  0  0  # atno 17342 bound_to 10162
  140.5215  144.0871  150.6024 LP  0  0  0  0  0  0  0  0  0  0  0  0  # atno 17343 bound_to 10162
  157.4457  130.7570  149.7108 LP  0  0  0  0  0  0  0  0  0  0  0  0  # atno 17370 bound_to 10713
  155.9824  130.4010  150.3420 LP  0  0  0  0  0  0  0  0  0  0  0  0  # atno 17371 bound_to 10713
  139.8707  134.9550  156.4194 LP  0  0  0  0  0  0  0  0  0  0  0  0  # atno 17394 bound_to 11000
  140.9069  133.7739  155.9746 LP  0  0  0  0  0  0  0  0  0  0  0  0  # atno 17395 bound_to 11000

$$$$
