AV-unprocessed.smi:557|AV-procd|sdf|2919|dock2
  -GOLD-   2262023413D 1   1.00000     0.00000
 Structure written by MMmdl.
 47 49  0  0  0  0  0  0  0  0  2 V2000
  154.6570  138.0624  154.5575 C   0  0  0  0  0  0  0  0  0  0  0  0
  153.3044  138.4996  154.8292 N   0  0  0  0  0  0  0  0  0  0  0  0
  152.1389  138.1415  154.1867 C   0  0  0  0  0  0  0  0  0  0  0  0
  151.1145  138.8159  154.7893 C   0  0  0  0  0  0  0  0  0  0  0  0
  149.6480  138.7843  154.4606 C   0  0  0  0  0  0  0  0  0  0  0  0
  148.9273  137.6689  155.2292 C   0  0  0  0  0  0  0  0  0  0  0  0
  148.2515  136.7600  154.3072 N   0  0  0  0  0  0  0  0  0  0  0  0
  147.0717  136.1450  154.4947 C   0  0  0  0  0  0  0  0  0  0  0  0
  146.4112  136.2975  155.5202 O   0  0  0  0  0  0  0  0  0  0  0  0
  146.6834  135.3587  153.4767 N   0  0  0  0  0  0  0  0  0  0  0  0
  145.4638  134.5560  153.4615 C   0  0  1  0  0  0  0  0  0  0  0  0
  144.2277  135.3381  152.9983 C   0  0  0  0  0  0  0  0  0  0  0  0
  143.3372  134.2988  152.2935 C   0  0  0  0  0  0  0  0  0  0  0  0
  144.0843  133.0216  152.3286 N   0  3  1  0  0  0  0  0  0  0  0  0
  143.7683  132.0403  151.2589 C   0  0  0  0  0  0  0  0  0  0  0  0
  144.4525  132.3756  149.9230 C   0  0  0  0  0  0  0  0  0  0  0  0
  145.9616  132.5520  150.1187 C   0  0  0  0  0  0  0  0  0  0  0  0
  146.2176  133.6547  151.1506 C   0  0  0  0  0  0  0  0  0  0  0  0
  145.5161  133.3554  152.5010 C   0  0  1  0  0  0  0  0  0  0  0  0
  151.7679  139.5685  155.8067 C   0  0  0  0  0  0  0  0  0  0  0  0
  153.0772  139.3782  155.8270 N   0  0  0  0  0  0  0  0  0  0  0  0
  154.6526  137.2863  153.7918 H   0  0  0  0  0  0  0  0  0  0  0  0
  155.1063  137.6607  155.4662 H   0  0  0  0  0  0  0  0  0  0  0  0
  155.2523  138.9053  154.2055 H   0  0  0  0  0  0  0  0  0  0  0  0
  152.1339  137.4465  153.3597 H   0  0  0  0  0  0  0  0  0  0  0  0
  149.1850  139.7432  154.6978 H   0  0  0  0  0  0  0  0  0  0  0  0
  149.4996  138.6403  153.3895 H   0  0  0  0  0  0  0  0  0  0  0  0
  149.6427  137.1071  155.8319 H   0  0  0  0  0  0  0  0  0  0  0  0
  148.1968  138.1067  155.9118 H   0  0  0  0  0  0  0  0  0  0  0  0
  148.7087  136.6083  153.4194 H   0  0  0  0  0  0  0  0  0  0  0  0
  147.2843  135.2992  152.6674 H   0  0  0  0  0  0  0  0  0  0  0  0
  145.2668  134.1868  154.4704 H   0  0  0  0  0  0  0  0  0  0  0  0
  143.7186  135.8182  153.8347 H   0  0  0  0  0  0  0  0  0  0  0  0
  144.5049  136.1213  152.2911 H   0  0  0  0  0  0  0  0  0  0  0  0
  142.3755  134.1795  152.7935 H   0  0  0  0  0  0  0  0  0  0  0  0
  143.1420  134.6109  151.2669 H   0  0  0  0  0  0  0  0  0  0  0  0
  144.1064  131.0595  151.5957 H   0  0  0  0  0  0  0  0  0  0  0  0
  142.6876  131.9673  151.1313 H   0  0  0  0  0  0  0  0  0  0  0  0
  144.2624  131.5814  149.2003 H   0  0  0  0  0  0  0  0  0  0  0  0
  144.0259  133.2848  149.4983 H   0  0  0  0  0  0  0  0  0  0  0  0
  146.4088  131.6149  150.4536 H   0  0  0  0  0  0  0  0  0  0  0  0
  146.4369  132.8063  149.1708 H   0  0  0  0  0  0  0  0  0  0  0  0
  147.2919  133.7654  151.3017 H   0  0  0  0  0  0  0  0  0  0  0  0
  145.8673  134.6048  150.7455 H   0  0  0  0  0  0  0  0  0  0  0  0
  146.0177  132.5112  152.9764 H   0  0  0  0  0  0  0  0  0  0  0  0
  151.3311  140.2467  156.5248 H   0  0  0  0  0  0  0  0  0  0  0  0
  143.8063  132.5876  153.1974 H   0  0  0  0  0  0  0  0  0  0  0  0
  1  2  1  0  0  0  0
  1 22  1  0  0  0  0
  1 23  1  0  0  0  0
  1 24  1  0  0  0  0
  2 21  1  0  0  0  0
  2  3  1  0  0  0  0
  3  4  2  0  0  0  0
  3 25  1  0  0  0  0
  4  5  1  0  0  0  0
  4 20  1  0  0  0  0
  5  6  1  0  0  0  0
  5 26  1  0  0  0  0
  5 27  1  0  0  0  0
  6  7  1  0  0  0  0
  6 28  1  0  0  0  0
  6 29  1  0  0  0  0
  7  8  1  0  0  0  0
  7 30  1  0  0  0  0
  8  9  2  0  0  0  0
  8 10  1  0  0  0  0
 10 11  1  0  0  0  0
 10 31  1  0  0  0  0
 11 19  1  0  0  0  0
 11 12  1  0  0  0  0
 11 32  1  0  0  0  0
 12 13  1  0  0  0  0
 12 33  1  0  0  0  0
 12 34  1  0  0  0  0
 13 14  1  0  0  0  0
 13 35  1  0  0  0  0
 13 36  1  0  0  0  0
 14 19  1  0  0  0  0
 14 15  1  0  0  0  0
 14 47  1  0  0  0  0
 15 16  1  0  0  0  0
 15 37  1  0  0  0  0
 15 38  1  0  0  0  0
 16 17  1  0  0  0  0
 16 39  1  0  0  0  0
 16 40  1  0  0  0  0
 17 18  1  0  0  0  0
 17 41  1  0  0  0  0
 17 42  1  0  0  0  0
 18 19  1  0  0  0  0
 18 43  1  0  0  0  0
 18 44  1  0  0  0  0
 19 45  1  0  0  0  0
 20 21  2  0  0  0  0
 20 46  1  0  0  0  0
M  CHG  1  14   1
M  END
> <s_m_source_file>
AV-unprocessed.smi

> <i_m_source_file_index>
557

> <i_lp_mmshare_version>
43012

> <i_f3d_flags>
0

> <s_epik_input>
W0NIM11uMVtjSF1jKFtjSF1uMSlbQ0gyXVtDSDJdW05IXUMoPU8pW05IXVtDQEhdKFtDSDJdW0NIMl0yKVtDQEhdKE4yMylbQ0gyXVtDSDJdW0NIMl1bQ0gyXTM=

> <s_epik_cmdline>
J2VwaWtfcHl0aG9uJywgJy1waCcsICc3LjAnLCAnLXRuJywgJzgnLCAnLW1hJywgJzIwMCcsICctbWV0YWxfYmluZGluZycsICctaW1hZScsICc8aW5maWxlLm1hZT4nLCAnLW9tYWUnLCAnPG91dGZpbGUubWFlPic=

> <r_lp_tautomer_probability>
1

> <r_epik_Ionization_Penalty>
0.000956547

> <r_epik_Ionization_Penalty_Charging>
0.000435796

> <r_epik_Ionization_Penalty_Neutral>
0.000520752

> <r_epik_State_Penalty>
-0

> <r_epik_Charging_Adjusted_Penalty>
0.000435796

> <i_epik_Tot_Q>
1

> <i_epik_Tot_abs_Q>
1

> <r_epik_Metal_State_Penalty>
-0

> <b_epik_Metal_Only>
0

> <s_lp_Force_Field>
OPLS_2005

> <r_lp_Energy>
42.0696

> <b_lp_Chiralities_Consistent>
1

> <s_lp_Variant>
AV-unprocessed.smi:557-6

> <Gold.Version>
5.8.1

> <Gold.Id.Protein>
6NUR|6NUR_protein|mol2

> <Gold.PLP.Fitness>
48.0037

> <Gold.PLP.PLP>
-34.4643

> <Gold.PLP.part.hbond>
-3.7047

> <Gold.PLP.part.metal>
0.0000

> <Gold.PLP.part.buried>
-2.1203

> <Gold.PLP.part.nonpolar>
-29.8070

> <Gold.PLP.part.repulsive>
0.0286

> <Gold.PLP.ligand.clash>
0.0000

> <Gold.PLP.ligand.torsion>
1.2567

> <Gold.PLP.Chemscore.Hbond>
4.3435

> <Gold.PLP.Chemscore.CHOScore>
1.0000

> <Gold.PLP.Chemscore.Metal>
0.0000

> <Gold.Chemscore.Hbonds>
donor molecule, donor type, donor heavy atom, donor atom, acceptor molecule, acceptor atom, score
      L1  H     7    30       P1  7948  1.00
      L1  H    10    31       P1  7948  0.77
      L1  H    14    47       P1 10957  1.54
      P1  H  7997  8009       L1    21  1.00
      L1  C     3    25       P1  7949  0.94

> <Gold.PLP.Chemscore.Internal.Correction>
0.0223

> <Gold.Rescore>
     Score         DG    S(hbond)    S(metal)    S(lipo)     H(rot)  DE(clash)    DE(int)     intcor
     20.03     -22.73       3.18        0.00      91.62       1.60       1.51       1.19       ----

> <Gold.Chemscore.Fitness>
20.0305

> <Gold.Chemscore.DG>
-22.7316

> <Gold.Chemscore.ZeroCoef>
-5.4800

> <Gold.Chemscore.Hbond>
3.1834

> <Gold.Chemscore.Metal>
0.0000

> <Gold.Chemscore.Lipo>
91.6219

> <Gold.Chemscore.Internal_Hbond>
0.0000

> <Gold.Chemscore.DEClash>
1.5125

> <Gold.Chemscore.DEInternal>
1.1887

> <Gold.Chemscore.Rot>
1.6018

> <Gold.Chemscore.Internal.Correction>
   9.000000E+99

> <Gold.Chemscore.Hbonds>
donor molecule, donor type, donor heavy atom, donor atom, acceptor molecule, acceptor atom, score
      L1  H     7    30       P1  7948  0.99
      L1  H    10    31       P1  7948  0.73
      L1  H    14    47       P1 10957  0.17
      P1  H  7997  8009       L1    21  0.37

> <Gold.Chemscore.Hbond.Weighted>
-10.6325

> <Gold.Chemscore.Metal.Weighted>
-0.0000

> <Gold.Chemscore.Lipo.Weighted>
-10.7198

> <Gold.Chemscore.Internal_Hbond.Weighted>
0.0000

> <Gold.Chemscore.DEClash.Weighted>
1.5125

> <Gold.Chemscore.DEInternal.Weighted>
1.1887

> <Gold.Chemscore.Rot.Weighted>
4.1006

> <Gold.Chemscore.Internal.Correction.Weighted>
   9.000000E+99

> <Gold.Protein.RotatedTorsions>
[ 6907 6896 6895 6894 ] final   -1.83 input  -60.11 | X-H torsion
[ 7974 7965 7964 7962 ] final   61.79 input  175.53 | X-H torsion
[ 8008 7997 7996 7995 ] final -135.83 input   59.86 | X-H torsion
[ 10167 10162 10161 10158 ] final   95.29 input  -65.29 | X-H torsion
[ 10718 10713 10712 10709 ] final  103.84 input   66.30 | X-H torsion
[ 10763 10752 10751 10750 ] final   33.79 input  -60.55 | X-H torsion
[ 11005 11000 10999 10996 ] final  -29.64 input  -57.11 | X-H torsion

> <Gold.Protein.ActiveResidues>
 VAL166  LYS551  ARG553  GLY616  TRP617  ASP618  TYR619  PRO620  LYS621  CYS622 
 ASP623  PHE694  ASN695  SER759  ASP760  ASP761  ALA762  ILE779  LEU786  VAL792 
 PHE793  MET794  SER795  GLU796  ALA797  LYS798  CYS799  TRP800  GLU811  SER814 

> <Gold.Protein.RotatedAtoms>
  151.5398  135.1068  159.9923 H   0  0  0  0  0  0  0  0  0  0  0  0  # atno 6907 bound_to 6896
  152.4540  133.7682  159.6795 H   0  0  0  0  0  0  0  0  0  0  0  0  # atno 6908 bound_to 6896
  150.8478  133.7768  159.3061 H   0  0  0  0  0  0  0  0  0  0  0  0  # atno 6909 bound_to 6896
  145.8807  139.3441  143.0707 H   0  0  0  0  0  0  0  0  0  0  0  0  # atno 7974 bound_to 7965
  155.3851  140.0496  157.3042 H   0  0  0  0  0  0  0  0  0  0  0  0  # atno 8008 bound_to 7997
  154.5063  140.2175  155.9206 H   0  0  0  0  0  0  0  0  0  0  0  0  # atno 8009 bound_to 7997
  156.1530  140.3132  155.8684 H   0  0  0  0  0  0  0  0  0  0  0  0  # atno 8010 bound_to 7997
  139.8002  144.6817  150.9775 H   0  0  0  0  0  0  0  0  0  0  0  0  # atno 10167 bound_to 10162
  157.6759  131.0789  150.5617 H   0  0  0  0  0  0  0  0  0  0  0  0  # atno 10718 bound_to 10713
  153.0195  135.6377  154.1567 H   0  0  0  0  0  0  0  0  0  0  0  0  # atno 10763 bound_to 10752
  154.1303  135.2841  155.3188 H   0  0  0  0  0  0  0  0  0  0  0  0  # atno 10764 bound_to 10752
  154.6199  135.5528  153.7626 H   0  0  0  0  0  0  0  0  0  0  0  0  # atno 10765 bound_to 10752
  140.9314  133.7336  156.0941 H   0  0  0  0  0  0  0  0  0  0  0  0  # atno 11005 bound_to 11000
  145.9027  140.9232  143.0495 LP  0  0  0  0  0  0  0  0  0  0  0  0  # atno 17320 bound_to 7965
  144.6727  140.1053  143.7458 LP  0  0  0  0  0  0  0  0  0  0  0  0  # atno 17321 bound_to 7965
  140.7820  143.4289  151.0725 LP  0  0  0  0  0  0  0  0  0  0  0  0  # atno 17342 bound_to 10162
  139.7962  143.8149  152.3158 LP  0  0  0  0  0  0  0  0  0  0  0  0  # atno 17343 bound_to 10162
  156.5919  130.4331  149.5933 LP  0  0  0  0  0  0  0  0  0  0  0  0  # atno 17370 bound_to 10713
  156.2576  130.6944  151.1702 LP  0  0  0  0  0  0  0  0  0  0  0  0  # atno 17371 bound_to 10713
  140.7858  134.3674  157.5477 LP  0  0  0  0  0  0  0  0  0  0  0  0  # atno 17394 bound_to 11000
  139.8797  134.9110  156.3026 LP  0  0  0  0  0  0  0  0  0  0  0  0  # atno 17395 bound_to 11000

$$$$
