AV-unprocessed.smi:2341|AV-procd|sdf|9353|dock5
  -GOLD-   2272012573D 1   1.00000     0.00000
 Structure written by MMmdl.
 52 54  0  0  0  0  0  0  0  0  2 V2000
  152.9671  144.3815  162.4169 C   0  0  0  0  0  0  0  0  0  0  0  0
  152.3395  144.0429  161.0809 C   0  0  0  0  0  0  0  0  0  0  0  0
  151.7168  145.0306  160.2944 C   0  0  0  0  0  0  0  0  0  0  0  0
  151.1485  144.6570  159.0613 C   0  0  0  0  0  0  0  0  0  0  0  0
  151.2152  143.3085  158.6443 C   0  0  0  0  0  0  0  0  0  0  0  0
  150.6116  143.0369  157.3874 N   0  0  0  0  0  0  0  0  0  0  0  0
  150.4429  141.8455  156.7868 C   0  0  0  0  0  0  0  0  0  0  0  0
  150.8039  140.7595  157.2416 O   0  0  0  0  0  0  0  0  0  0  0  0
  149.8219  141.9796  155.6054 N   0  0  0  0  0  0  0  0  0  0  0  0
  149.4759  140.8786  154.7110 C   0  0  2  0  0  0  0  0  0  0  0  0
  148.2372  140.1184  155.2255 C   0  0  0  0  0  0  0  0  0  0  0  0
  147.9559  138.8589  154.3804 C   0  0  0  0  0  0  0  0  0  0  0  0
  149.1384  137.9522  154.3024 N   0  3  2  0  0  0  0  0  0  0  0  0
  149.4095  137.1673  155.5554 C   0  0  0  0  0  0  0  0  0  0  0  0
  150.6346  136.2204  155.4328 C   0  0  0  0  0  0  0  0  0  0  0  0
  150.8656  135.3839  156.7012 C   0  0  0  0  0  0  0  0  0  0  0  0
  149.6200  134.5713  157.0694 C   0  0  0  0  0  0  0  0  0  0  0  0
  148.4073  135.4941  157.2295 C   0  0  0  0  0  0  0  0  0  0  0  0
  148.1687  136.3289  155.9614 C   0  0  0  0  0  0  0  0  0  0  0  0
  150.2934  138.6959  153.7217 C   0  0  0  0  0  0  0  0  0  0  0  0
  150.6707  139.9193  154.5773 C   0  0  0  0  0  0  0  0  0  0  0  0
  151.8176  142.3643  159.4094 N   0  0  0  0  0  0  0  0  0  0  0  0
  152.3622  142.7230  160.5908 C   0  0  0  0  0  0  0  0  0  0  0  0
  152.9509  145.4560  162.6015 H   0  0  0  0  0  0  0  0  0  0  0  0
  154.0044  144.0466  162.4438 H   0  0  0  0  0  0  0  0  0  0  0  0
  152.4249  143.8874  163.2233 H   0  0  0  0  0  0  0  0  0  0  0  0
  151.6725  146.0576  160.6261 H   0  0  0  0  0  0  0  0  0  0  0  0
  150.6671  145.4028  158.4451 H   0  0  0  0  0  0  0  0  0  0  0  0
  150.2654  143.8440  156.8904 H   0  0  0  0  0  0  0  0  0  0  0  0
  149.5612  142.9088  155.3089 H   0  0  0  0  0  0  0  0  0  0  0  0
  149.2551  141.2811  153.7203 H   0  0  0  0  0  0  0  0  0  0  0  0
  148.3726  139.8455  156.2722 H   0  0  0  0  0  0  0  0  0  0  0  0
  147.3642  140.7716  155.1981 H   0  0  0  0  0  0  0  0  0  0  0  0
  147.0698  138.3480  154.7498 H   0  0  0  0  0  0  0  0  0  0  0  0
  147.7007  139.1669  153.3654 H   0  0  0  0  0  0  0  0  0  0  0  0
  149.6289  137.8672  156.3614 H   0  0  0  0  0  0  0  0  0  0  0  0
  150.5051  135.5544  154.5783 H   0  0  0  0  0  0  0  0  0  0  0  0
  151.5493  136.7860  155.2578 H   0  0  0  0  0  0  0  0  0  0  0  0
  151.7142  134.7148  156.5547 H   0  0  0  0  0  0  0  0  0  0  0  0
  151.1315  136.0420  157.5297 H   0  0  0  0  0  0  0  0  0  0  0  0
  149.4205  133.8291  156.2953 H   0  0  0  0  0  0  0  0  0  0  0  0
  149.7936  134.0184  157.9932 H   0  0  0  0  0  0  0  0  0  0  0  0
  147.5201  134.9021  157.4567 H   0  0  0  0  0  0  0  0  0  0  0  0
  148.5614  136.1579  158.0815 H   0  0  0  0  0  0  0  0  0  0  0  0
  147.3036  136.9617  156.1502 H   0  0  0  0  0  0  0  0  0  0  0  0
  147.8898  135.6660  155.1409 H   0  0  0  0  0  0  0  0  0  0  0  0
  151.1533  138.0518  153.5464 H   0  0  0  0  0  0  0  0  0  0  0  0
  150.0064  139.0392  152.7266 H   0  0  0  0  0  0  0  0  0  0  0  0
  151.5131  140.4398  154.1201 H   0  0  0  0  0  0  0  0  0  0  0  0
  151.0082  139.5962  155.5630 H   0  0  0  0  0  0  0  0  0  0  0  0
  152.8286  141.9326  161.1606 H   0  0  0  0  0  0  0  0  0  0  0  0
  148.9053  137.2528  153.6117 H   0  0  0  0  0  0  0  0  0  0  0  0
  1  2  1  0  0  0  0
  1 24  1  0  0  0  0
  1 25  1  0  0  0  0
  1 26  1  0  0  0  0
  2 23  1  0  0  0  0
  2  3  2  0  0  0  0
  3  4  1  0  0  0  0
  3 27  1  0  0  0  0
  4  5  2  0  0  0  0
  4 28  1  0  0  0  0
  5  6  1  0  0  0  0
  5 22  1  0  0  0  0
  6  7  1  0  0  0  0
  6 29  1  0  0  0  0
  7  8  2  0  0  0  0
  7  9  1  0  0  0  0
  9 10  1  0  0  0  0
  9 30  1  0  0  0  0
 10 21  1  0  0  0  0
 10 11  1  0  0  0  0
 10 31  1  0  0  0  0
 11 12  1  0  0  0  0
 11 32  1  0  0  0  0
 11 33  1  0  0  0  0
 12 13  1  0  0  0  0
 12 34  1  0  0  0  0
 12 35  1  0  0  0  0
 13 14  1  0  0  0  0
 13 20  1  0  0  0  0
 13 52  1  0  0  0  0
 14 19  1  0  0  0  0
 14 15  1  0  0  0  0
 14 36  1  0  0  0  0
 15 16  1  0  0  0  0
 15 37  1  0  0  0  0
 15 38  1  0  0  0  0
 16 17  1  0  0  0  0
 16 39  1  0  0  0  0
 16 40  1  0  0  0  0
 17 18  1  0  0  0  0
 17 41  1  0  0  0  0
 17 42  1  0  0  0  0
 18 19  1  0  0  0  0
 18 43  1  0  0  0  0
 18 44  1  0  0  0  0
 19 45  1  0  0  0  0
 19 46  1  0  0  0  0
 20 21  1  0  0  0  0
 20 47  1  0  0  0  0
 20 48  1  0  0  0  0
 21 49  1  0  0  0  0
 21 50  1  0  0  0  0
 22 23  2  0  0  0  0
 23 51  1  0  0  0  0
M  CHG  1  13   1
M  END
> <s_m_source_file>
AV-unprocessed.smi

> <i_m_source_file_index>
2341

> <i_lp_mmshare_version>
43012

> <i_f3d_flags>
0

> <s_epik_input>
W0NIM11jMVtjSF1bY0hdYyhuW2NIXTEpW05IXUMoPU8pW05IXVtDSF0yW0NIMl1bQ0gyXU4oW0NIMl1bQ0gyXTIpW0NIXTNbQ0gyXVtDSDJdW0NIMl1bQ0gyXVtDSDJdMw==

> <s_epik_cmdline>
J2VwaWtfcHl0aG9uJywgJy1waCcsICc3LjAnLCAnLXRuJywgJzgnLCAnLW1hJywgJzIwMCcsICctbWV0YWxfYmluZGluZycsICctaW1hZScsICc8aW5maWxlLm1hZT4nLCAnLW9tYWUnLCAnPG91dGZpbGUubWFlPic=

> <r_epik_Ionization_Penalty>
0.00176486

> <r_epik_Ionization_Penalty_Charging>
0.00171891

> <r_epik_Ionization_Penalty_Neutral>
4.59494e-05

> <r_epik_State_Penalty>
0.00116222

> <r_epik_Charging_Adjusted_Penalty>
0.00288114

> <i_epik_Tot_Q>
1

> <i_epik_Tot_abs_Q>
1

> <r_epik_Metal_State_Penalty>
-0

> <b_epik_Metal_Only>
0

> <s_lp_Force_Field>
OPLS_2005

> <r_lp_Energy>
32.471

> <b_lp_Chiralities_Consistent>
1

> <s_lp_Variant>
AV-unprocessed.smi:2341-2

> <Gold.Version>
5.8.1

> <Gold.Id.Protein>
6NUR|6NUR_protein|mol2

> <Gold.PLP.Fitness>
46.5991

> <Gold.PLP.PLP>
-35.0445

> <Gold.PLP.part.hbond>
-3.0000

> <Gold.PLP.part.metal>
0.0000

> <Gold.PLP.part.buried>
-1.6246

> <Gold.PLP.part.nonpolar>
-29.8334

> <Gold.PLP.part.repulsive>
0.1860

> <Gold.PLP.ligand.clash>
0.0000

> <Gold.PLP.ligand.torsion>
0.2371

> <Gold.PLP.Chemscore.Hbond>
3.9913

> <Gold.PLP.Chemscore.CHOScore>
0.0000

> <Gold.PLP.Chemscore.Metal>
0.0000

> <Gold.Chemscore.Hbonds>
donor molecule, donor type, donor heavy atom, donor atom, acceptor molecule, acceptor atom, score
      L1  H     6    29       P1  8028  1.00
      L1  H     9    30       P1  8028  1.00
      L1  H    13    52       P1  7948  2.00

> <Gold.PLP.Chemscore.Internal.Correction>
0.0550

> <Gold.Rescore>
     Score         DG    S(hbond)    S(metal)    S(lipo)     H(rot)  DE(clash)    DE(int)     intcor
     18.71     -24.37       2.88        0.00     105.28       1.19       2.81       2.86       ----

> <Gold.Chemscore.Fitness>
18.7068

> <Gold.Chemscore.DG>
-24.3738

> <Gold.Chemscore.ZeroCoef>
-5.4800

> <Gold.Chemscore.Hbond>
2.8823

> <Gold.Chemscore.Metal>
0.0000

> <Gold.Chemscore.Lipo>
105.2808

> <Gold.Chemscore.Internal_Hbond>
0.0000

> <Gold.Chemscore.DEClash>
2.8111

> <Gold.Chemscore.DEInternal>
2.8559

> <Gold.Chemscore.Rot>
1.1918

> <Gold.Chemscore.Internal.Correction>
   9.000000E+99

> <Gold.Chemscore.Hbonds>
donor molecule, donor type, donor heavy atom, donor atom, acceptor molecule, acceptor atom, score
      L1  H     6    29       P1  8028  0.90
      L1  H     9    30       P1  8028  0.96
      L1  H    13    52       P1  7948  0.94

> <Gold.Chemscore.Hbond.Weighted>
-9.6270

> <Gold.Chemscore.Metal.Weighted>
-0.0000

> <Gold.Chemscore.Lipo.Weighted>
-12.3179

> <Gold.Chemscore.Internal_Hbond.Weighted>
0.0000

> <Gold.Chemscore.DEClash.Weighted>
2.8111

> <Gold.Chemscore.DEInternal.Weighted>
2.8559

> <Gold.Chemscore.Rot.Weighted>
3.0511

> <Gold.Chemscore.Internal.Correction.Weighted>
   9.000000E+99

> <Gold.Protein.RotatedTorsions>
[ 6907 6896 6895 6894 ] final  -49.07 input  -60.11 | X-H torsion
[ 7974 7965 7964 7962 ] final  -97.32 input  175.53 | X-H torsion
[ 8008 7997 7996 7995 ] final  -65.56 input   59.86 | X-H torsion
[ 10167 10162 10161 10158 ] final -149.22 input  -65.29 | X-H torsion
[ 10718 10713 10712 10709 ] final   84.63 input   66.30 | X-H torsion
[ 10763 10752 10751 10750 ] final  130.84 input  -60.55 | X-H torsion
[ 11005 11000 10999 10996 ] final   71.94 input  -57.11 | X-H torsion

> <Gold.Protein.ActiveResidues>
 VAL166  LYS551  ARG553  GLY616  TRP617  ASP618  TYR619  PRO620  LYS621  CYS622 
 ASP623  PHE694  ASN695  SER759  ASP760  ASP761  ALA762  ILE779  LEU786  VAL792 
 PHE793  MET794  SER795  GLU796  ALA797  LYS798  CYS799  TRP800  GLU811  SER814 

> <Gold.Protein.RotatedAtoms>
  150.8842  134.8237  159.7246 H   0  0  0  0  0  0  0  0  0  0  0  0  # atno 6907 bound_to 6896
  152.4797  134.4749  159.9657 H   0  0  0  0  0  0  0  0  0  0  0  0  # atno 6908 bound_to 6896
  151.4820  133.3505  159.2875 H   0  0  0  0  0  0  0  0  0  0  0  0  # atno 6909 bound_to 6896
  145.3353  140.9449  143.2639 H   0  0  0  0  0  0  0  0  0  0  0  0  # atno 7974 bound_to 7965
  154.4679  140.0931  156.7068 H   0  0  0  0  0  0  0  0  0  0  0  0  # atno 8008 bound_to 7997
  155.4806  140.3467  155.4321 H   0  0  0  0  0  0  0  0  0  0  0  0  # atno 8009 bound_to 7997
  156.0988  140.1417  156.9483 H   0  0  0  0  0  0  0  0  0  0  0  0  # atno 8010 bound_to 7997
  139.7462  143.8587  152.2575 H   0  0  0  0  0  0  0  0  0  0  0  0  # atno 10167 bound_to 10162
  157.6901  131.0141  150.2701 H   0  0  0  0  0  0  0  0  0  0  0  0  # atno 10718 bound_to 10713
  153.7646  135.3191  155.3342 H   0  0  0  0  0  0  0  0  0  0  0  0  # atno 10763 bound_to 10752
  154.8218  135.4598  154.0804 H   0  0  0  0  0  0  0  0  0  0  0  0  # atno 10764 bound_to 10752
  153.2045  135.6927  153.8274 H   0  0  0  0  0  0  0  0  0  0  0  0  # atno 10765 bound_to 10752
  139.9517  134.7216  156.0848 H   0  0  0  0  0  0  0  0  0  0  0  0  # atno 11005 bound_to 11000
  144.8832  139.4875  143.6713 LP  0  0  0  0  0  0  0  0  0  0  0  0  # atno 17320 bound_to 7965
  146.3029  139.7485  142.9078 LP  0  0  0  0  0  0  0  0  0  0  0  0  # atno 17321 bound_to 7965
  139.8552  144.7144  150.9165 LP  0  0  0  0  0  0  0  0  0  0  0  0  # atno 17342 bound_to 10162
  140.7792  143.3864  151.1385 LP  0  0  0  0  0  0  0  0  0  0  0  0  # atno 17343 bound_to 10162
  156.3265  130.3794  149.7528 LP  0  0  0  0  0  0  0  0  0  0  0  0  # atno 17370 bound_to 10713
  156.5082  130.8160  151.3159 LP  0  0  0  0  0  0  0  0  0  0  0  0  # atno 17371 bound_to 10713
  141.1181  133.6621  156.3144 LP  0  0  0  0  0  0  0  0  0  0  0  0  # atno 17394 bound_to 11000
  140.5704  134.5846  157.5456 LP  0  0  0  0  0  0  0  0  0  0  0  0  # atno 17395 bound_to 11000

$$$$
