AV-unprocessed.smi:3155|AV-procd|sdf|12027|dock8
  -GOLD-   2272017443D 1   1.00000     0.00000
 Structure written by MMmdl.
 37 38  0  0  0  0  0  0  0  0  1 V2000
  149.0142  141.3863  155.8831 C   0  0  0  0  0  0  0  0  0  0  0  0
  150.4051  142.0003  156.0971 C   0  0  2  0  0  0  0  0  0  0  0  0
  151.4329  140.9042  156.4649 C   0  0  0  0  0  0  0  0  0  0  0  0
  151.4922  139.8064  155.5154 N   0  0  0  0  0  0  0  0  0  0  0  0
  152.2201  138.6383  155.6025 C   0  0  0  0  0  0  0  0  0  0  0  0
  151.9482  137.9044  154.4839 C   0  0  0  0  0  0  0  0  0  0  0  0
  151.0157  138.7086  153.7711 C   0  0  0  0  0  0  0  0  0  0  0  0
  150.7378  139.8417  154.3952 N   0  0  0  0  0  0  0  0  0  0  0  0
  150.2754  142.9816  157.1711 N   0  0  0  0  0  0  0  0  0  0  0  0
  151.5186  143.7189  157.4314 C   0  0  0  0  0  0  0  0  0  0  0  0
  151.6513  144.0960  158.9107 C   0  0  0  0  0  0  0  0  0  0  0  0
  151.1527  145.1529  159.2983 O   0  0  0  0  0  0  0  0  0  0  0  0
  152.3112  143.2623  159.7429 N   0  0  0  0  0  0  0  0  0  0  0  0
  152.8970  141.9941  159.3134 C   0  0  0  0  0  0  0  0  0  0  0  0
  153.2907  141.2640  160.5974 C   0  0  0  0  0  0  0  0  0  0  0  0
  153.5124  142.3816  161.6066 C   0  0  0  0  0  0  0  0  0  0  0  0
  152.5390  143.4768  161.1717 C   0  0  0  0  0  0  0  0  0  0  0  0
  149.0307  140.6548  155.0747 H   0  0  0  0  0  0  0  0  0  0  0  0
  148.2823  142.1497  155.6164 H   0  0  0  0  0  0  0  0  0  0  0  0
  148.6564  140.8799  156.7803 H   0  0  0  0  0  0  0  0  0  0  0  0
  150.6891  142.4871  155.1625 H   0  0  0  0  0  0  0  0  0  0  0  0
  152.4302  141.3351  156.5654 H   0  0  0  0  0  0  0  0  0  0  0  0
  151.1847  140.4779  157.4379 H   0  0  0  0  0  0  0  0  0  0  0  0
  152.8694  138.4318  156.4406 H   0  0  0  0  0  0  0  0  0  0  0  0
  152.3502  136.9381  154.2175 H   0  0  0  0  0  0  0  0  0  0  0  0
  150.5335  138.5024  152.8270 H   0  0  0  0  0  0  0  0  0  0  0  0
  149.9203  142.5304  158.0016 H   0  0  0  0  0  0  0  0  0  0  0  0
  152.3862  143.1421  157.1157 H   0  0  0  0  0  0  0  0  0  0  0  0
  151.5260  144.6365  156.8411 H   0  0  0  0  0  0  0  0  0  0  0  0
  152.2019  141.4002  158.7177 H   0  0  0  0  0  0  0  0  0  0  0  0
  153.7776  142.1994  158.7028 H   0  0  0  0  0  0  0  0  0  0  0  0
  152.4636  140.6340  160.9274 H   0  0  0  0  0  0  0  0  0  0  0  0
  154.1663  140.6266  160.4708 H   0  0  0  0  0  0  0  0  0  0  0  0
  153.3548  142.0606  162.6366 H   0  0  0  0  0  0  0  0  0  0  0  0
  154.5362  142.7488  161.5240 H   0  0  0  0  0  0  0  0  0  0  0  0
  152.9481  144.4652  161.3816 H   0  0  0  0  0  0  0  0  0  0  0  0
  151.5917  143.3765  161.7034 H   0  0  0  0  0  0  0  0  0  0  0  0
  1  2  1  0  0  0  0
  1 18  1  0  0  0  0
  1 19  1  0  0  0  0
  1 20  1  0  0  0  0
  2  3  1  0  0  0  0
  2  9  1  0  0  0  0
  2 21  1  0  0  0  0
  3  4  1  0  0  0  0
  3 22  1  0  0  0  0
  3 23  1  0  0  0  0
  4  8  1  0  0  0  0
  4  5  1  0  0  0  0
  5  6  2  0  0  0  0
  5 24  1  0  0  0  0
  6  7  1  0  0  0  0
  6 25  1  0  0  0  0
  7  8  2  0  0  0  0
  7 26  1  0  0  0  0
  9 10  1  0  0  0  0
  9 27  1  0  0  0  0
 10 11  1  0  0  0  0
 10 28  1  0  0  0  0
 10 29  1  0  0  0  0
 11 12  2  0  0  0  0
 11 13  1  0  0  0  0
 13 17  1  0  0  0  0
 13 14  1  0  0  0  0
 14 15  1  0  0  0  0
 14 30  1  0  0  0  0
 14 31  1  0  0  0  0
 15 16  1  0  0  0  0
 15 32  1  0  0  0  0
 15 33  1  0  0  0  0
 16 17  1  0  0  0  0
 16 34  1  0  0  0  0
 16 35  1  0  0  0  0
 17 36  1  0  0  0  0
 17 37  1  0  0  0  0
M  END
> <s_m_source_file>
AV-unprocessed.smi

> <i_m_source_file_index>
3155

> <i_lp_mmshare_version>
43012

> <i_f3d_flags>
0

> <s_epik_input>
bjFbY0hdW2NIXVtjSF1uMVtDSDJdW0NAQEhdKFtDSDNdKVtOSF1bQ0gyXUMoPU8pTjJbQ0gyXVtDSDJdW0NIMl1bQ0gyXTI=

> <s_epik_cmdline>
J2VwaWtfcHl0aG9uJywgJy1waCcsICc3LjAnLCAnLXRuJywgJzgnLCAnLW1hJywgJzIwMCcsICctbWV0YWxfYmluZGluZycsICctaW1hZScsICc8aW5maWxlLm1hZT4nLCAnLW9tYWUnLCAnPG91dGZpbGUubWFlPic=

> <r_lp_tautomer_probability>
1

> <r_epik_Ionization_Penalty>
1.00455

> <r_epik_Ionization_Penalty_Charging>
0

> <r_epik_Ionization_Penalty_Neutral>
1.00455

> <r_epik_State_Penalty>
1.05336

> <r_epik_Charging_Adjusted_Penalty>
1.05336

> <i_epik_Tot_Q>
0

> <i_epik_Tot_abs_Q>
0

> <r_epik_Metal_State_Penalty>
1.05331

> <b_epik_Metal_Only>
0

> <s_lp_Force_Field>
OPLS_2005

> <r_lp_Energy>
30.8586

> <b_lp_Chiralities_Consistent>
1

> <s_lp_Variant>
AV-unprocessed.smi:3155-3

> <Gold.Version>
5.8.1

> <Gold.Id.Protein>
6NUR|6NUR_protein|mol2

> <Gold.PLP.Fitness>
49.3492

> <Gold.PLP.PLP>
-42.9544

> <Gold.PLP.part.hbond>
-2.0000

> <Gold.PLP.part.metal>
0.0000

> <Gold.PLP.part.buried>
-5.7374

> <Gold.PLP.part.nonpolar>
-36.6934

> <Gold.PLP.part.repulsive>
0.2381

> <Gold.PLP.ligand.clash>
0.0000

> <Gold.PLP.ligand.torsion>
0.6257

> <Gold.PLP.Chemscore.Hbond>
1.0000

> <Gold.PLP.Chemscore.CHOScore>
1.5272

> <Gold.PLP.Chemscore.Metal>
0.0000

> <Gold.Chemscore.Hbonds>
donor molecule, donor type, donor heavy atom, donor atom, acceptor molecule, acceptor atom, score
      P1  H  7989  7998       L1     8  0.95
      L1  C     7    26       P1  7948  0.10
      L1  C     7    26       P1  7949  0.03
      L1  C     7    26       P1  7957  0.83

> <Gold.PLP.Chemscore.Internal.Correction>
0.0646

> <Gold.Rescore>
     Score         DG    S(hbond)    S(metal)    S(lipo)     H(rot)  DE(clash)    DE(int)     intcor
     12.31     -15.71       0.92        0.00      99.82       1.77       1.46       1.94       ----

> <Gold.Chemscore.Fitness>
12.3150

> <Gold.Chemscore.DG>
-15.7063

> <Gold.Chemscore.ZeroCoef>
-5.4800

> <Gold.Chemscore.Hbond>
0.9211

> <Gold.Chemscore.Metal>
0.0000

> <Gold.Chemscore.Lipo>
99.8221

> <Gold.Chemscore.Internal_Hbond>
0.0000

> <Gold.Chemscore.DEClash>
1.4558

> <Gold.Chemscore.DEInternal>
1.9355

> <Gold.Chemscore.Rot>
1.7693

> <Gold.Chemscore.Internal.Correction>
   9.000000E+99

> <Gold.Chemscore.Hbonds>
donor molecule, donor type, donor heavy atom, donor atom, acceptor molecule, acceptor atom, score
      P1  H  7989  7998       L1     8  0.05

> <Gold.Chemscore.Hbond.Weighted>
-3.0765

> <Gold.Chemscore.Metal.Weighted>
-0.0000

> <Gold.Chemscore.Lipo.Weighted>
-11.6792

> <Gold.Chemscore.Internal_Hbond.Weighted>
0.0000

> <Gold.Chemscore.DEClash.Weighted>
1.4558

> <Gold.Chemscore.DEInternal.Weighted>
1.9355

> <Gold.Chemscore.Rot.Weighted>
4.5294

> <Gold.Chemscore.Internal.Correction.Weighted>
   9.000000E+99

> <Gold.Protein.RotatedTorsions>
[ 6907 6896 6895 6894 ] final  -50.31 input  -60.11 | X-H torsion
[ 7974 7965 7964 7962 ] final  124.04 input  175.53 | X-H torsion
[ 8008 7997 7996 7995 ] final   15.23 input   59.86 | X-H torsion
[ 10167 10162 10161 10158 ] final  139.21 input  -65.29 | X-H torsion
[ 10718 10713 10712 10709 ] final   11.72 input   66.30 | X-H torsion
[ 10763 10752 10751 10750 ] final   94.27 input  -60.55 | X-H torsion
[ 11005 11000 10999 10996 ] final   15.41 input  -57.11 | X-H torsion

> <Gold.Protein.ActiveResidues>
 VAL166  LYS551  ARG553  GLY616  TRP617  ASP618  TYR619  PRO620  LYS621  CYS622 
 ASP623  PHE694  ASN695  SER759  ASP760  ASP761  ALA762  ILE779  LEU786  VAL792 
 PHE793  MET794  SER795  GLU796  ALA797  LYS798  CYS799  TRP800  GLU811  SER814 

> <Gold.Protein.RotatedAtoms>
  150.8719  134.8095  159.7161 H   0  0  0  0  0  0  0  0  0  0  0  0  # atno 6907 bound_to 6896
  152.4721  134.4932  159.9712 H   0  0  0  0  0  0  0  0  0  0  0  0  # atno 6908 bound_to 6896
  151.5020  133.3464  159.2906 H   0  0  0  0  0  0  0  0  0  0  0  0  # atno 6909 bound_to 6896
  145.0889  139.3601  143.4871 H   0  0  0  0  0  0  0  0  0  0  0  0  # atno 7974 bound_to 7965
  154.8597  140.2942  155.5547 H   0  0  0  0  0  0  0  0  0  0  0  0  # atno 8008 bound_to 7997
  156.3019  140.2480  156.3502 H   0  0  0  0  0  0  0  0  0  0  0  0  # atno 8009 bound_to 7997
  154.8932  140.0394  157.1839 H   0  0  0  0  0  0  0  0  0  0  0  0  # atno 8010 bound_to 7997
  139.5086  144.6308  151.5822 H   0  0  0  0  0  0  0  0  0  0  0  0  # atno 10167 bound_to 10162
  156.9996  130.6074  149.5695 H   0  0  0  0  0  0  0  0  0  0  0  0  # atno 10718 bound_to 10713
  153.2398  135.4295  155.0685 H   0  0  0  0  0  0  0  0  0  0  0  0  # atno 10763 bound_to 10752
  154.8335  135.3400  154.6666 H   0  0  0  0  0  0  0  0  0  0  0  0  # atno 10764 bound_to 10752
  153.7090  135.7024  153.5099 H   0  0  0  0  0  0  0  0  0  0  0  0  # atno 10765 bound_to 10752
  140.4586  134.1150  155.7713 H   0  0  0  0  0  0  0  0  0  0  0  0  # atno 11005 bound_to 11000
  146.3531  140.0714  142.8623 LP  0  0  0  0  0  0  0  0  0  0  0  0  # atno 17320 bound_to 7965
  145.1089  140.9393  143.4668 LP  0  0  0  0  0  0  0  0  0  0  0  0  # atno 17321 bound_to 7965
  140.6040  143.9558  150.6406 LP  0  0  0  0  0  0  0  0  0  0  0  0  # atno 17342 bound_to 10162
  140.2779  143.3410  152.1178 LP  0  0  0  0  0  0  0  0  0  0  0  0  # atno 17343 bound_to 10162
  156.0176  130.5270  150.8181 LP  0  0  0  0  0  0  0  0  0  0  0  0  # atno 17370 bound_to 10713
  157.5400  131.0940  150.9841 LP  0  0  0  0  0  0  0  0  0  0  0  0  # atno 17371 bound_to 10713
  141.1631  133.8754  157.1791 LP  0  0  0  0  0  0  0  0  0  0  0  0  # atno 17394 bound_to 11000
  139.9960  135.0046  157.0083 LP  0  0  0  0  0  0  0  0  0  0  0  0  # atno 17395 bound_to 11000

$$$$
