AV-unprocessed.smi:2986|AV-procd|sdf|11384|dock5
  -GOLD-   2272016303D 1   1.00000     0.00000
 Structure written by MMmdl.
 42 44  0  0  0  0  0  0  0  0  3 V2000
  150.8418  138.3696  154.3756 C   0  0  0  0  0  0  0  0  0  0  0  0
  151.0155  139.7521  154.6309 O   0  0  0  0  0  0  0  0  0  0  0  0
  151.7918  139.9977  155.7925 C   0  0  0  0  0  0  0  0  0  0  0  0
  150.8826  140.4499  156.9440 C   0  0  0  0  0  0  0  0  0  0  0  0
  151.6458  141.0084  158.0698 N   0  0  0  0  0  0  0  0  0  0  0  0
  152.3282  140.3784  159.0663 C   0  0  0  0  0  0  0  0  0  0  0  0
  152.4849  138.6358  159.2838 S   0  0  0  0  0  0  0  0  0  0  0  0
  153.4412  138.4266  160.8108 C   0  0  0  0  0  0  0  0  0  0  0  0
  153.6594  136.9547  161.1627 C   0  0  0  0  0  0  0  0  0  0  0  0
  153.4358  136.0966  160.3074 O   0  0  0  0  0  0  0  0  0  0  0  0
  154.0927  136.7959  162.4368 N   0  5  0  0  0  0  0  0  0  0  0  0
  154.0125  135.5916  163.0217 C   0  0  0  0  0  0  0  0  0  0  0  0
  153.7271  135.3455  164.3926 C   0  0  0  0  0  0  0  0  0  0  0  0
  153.7707  133.9830  164.4807 C   0  0  0  0  0  0  0  0  0  0  0  0
  153.5613  133.0323  165.6090 C   0  0  0  0  0  0  0  0  0  0  0  0
  154.0680  133.4408  163.2692 O   0  0  0  0  0  0  0  0  0  0  0  0
  154.2278  134.4776  162.3420 N   0  0  0  0  0  0  0  0  0  0  0  0
  152.8642  141.3371  159.8709 N   0  3  0  0  0  0  0  0  0  0  0  0
  152.5148  142.5992  159.3886 C   0  0  0  0  0  0  0  0  0  0  0  0
  152.8165  143.8711  159.8655 C   0  0  0  0  0  0  0  0  0  0  0  0
  152.2937  144.9604  159.1380 C   0  0  0  0  0  0  0  0  0  0  0  0
  151.5056  144.7630  157.9856 C   0  0  0  0  0  0  0  0  0  0  0  0
  151.2083  143.4691  157.5097 C   0  0  0  0  0  0  0  0  0  0  0  0
  151.7297  142.3966  158.2335 C   0  0  0  0  0  0  0  0  0  0  0  0
  150.2434  138.2363  153.4744 H   0  0  0  0  0  0  0  0  0  0  0  0
  150.3224  137.8791  155.2000 H   0  0  0  0  0  0  0  0  0  0  0  0
  151.8005  137.8732  154.2201 H   0  0  0  0  0  0  0  0  0  0  0  0
  152.3301  139.0928  156.0798 H   0  0  0  0  0  0  0  0  0  0  0  0
  152.5363  140.7680  155.5866 H   0  0  0  0  0  0  0  0  0  0  0  0
  150.1958  141.2214  156.5950 H   0  0  0  0  0  0  0  0  0  0  0  0
  150.2624  139.6279  157.3008 H   0  0  0  0  0  0  0  0  0  0  0  0
  154.3885  138.9601  160.7125 H   0  0  0  0  0  0  0  0  0  0  0  0
  152.8990  138.9016  161.6287 H   0  0  0  0  0  0  0  0  0  0  0  0
  153.5190  136.0536  165.1807 H   0  0  0  0  0  0  0  0  0  0  0  0
  153.6228  133.5478  166.5677 H   0  0  0  0  0  0  0  0  0  0  0  0
  154.3164  132.2462  165.5993 H   0  0  0  0  0  0  0  0  0  0  0  0
  152.5804  132.5622  165.5392 H   0  0  0  0  0  0  0  0  0  0  0  0
  153.4182  144.0241  160.7496 H   0  0  0  0  0  0  0  0  0  0  0  0
  152.4992  145.9673  159.4714 H   0  0  0  0  0  0  0  0  0  0  0  0
  151.1191  145.6217  157.4555 H   0  0  0  0  0  0  0  0  0  0  0  0
  150.5983  143.3304  156.6292 H   0  0  0  0  0  0  0  0  0  0  0  0
  153.4247  141.1376  160.6893 H   0  0  0  0  0  0  0  0  0  0  0  0
  1  2  1  0  0  0  0
  1 25  1  0  0  0  0
  1 26  1  0  0  0  0
  1 27  1  0  0  0  0
  2  3  1  0  0  0  0
  3  4  1  0  0  0  0
  3 28  1  0  0  0  0
  3 29  1  0  0  0  0
  4  5  1  0  0  0  0
  4 30  1  0  0  0  0
  4 31  1  0  0  0  0
  5 24  1  0  0  0  0
  5  6  1  0  0  0  0
  6  7  1  0  0  0  0
  6 18  2  0  0  0  0
  7  8  1  0  0  0  0
  8  9  1  0  0  0  0
  8 32  1  0  0  0  0
  8 33  1  0  0  0  0
  9 10  2  0  0  0  0
  9 11  1  0  0  0  0
 11 12  1  0  0  0  0
 12 17  2  0  0  0  0
 12 13  1  0  0  0  0
 13 14  2  0  0  0  0
 13 34  1  0  0  0  0
 14 15  1  0  0  0  0
 14 16  1  0  0  0  0
 15 35  1  0  0  0  0
 15 36  1  0  0  0  0
 15 37  1  0  0  0  0
 16 17  1  0  0  0  0
 18 19  1  0  0  0  0
 18 42  1  0  0  0  0
 19 24  2  0  0  0  0
 19 20  1  0  0  0  0
 20 21  2  0  0  0  0
 20 38  1  0  0  0  0
 21 22  1  0  0  0  0
 21 39  1  0  0  0  0
 22 23  2  0  0  0  0
 22 40  1  0  0  0  0
 23 24  1  0  0  0  0
 23 41  1  0  0  0  0
M  CHG  1  11  -1
M  CHG  1  18   1
M  END
> <s_m_source_file>
AV-unprocessed.smi

> <i_m_source_file_index>
2986

> <i_lp_mmshare_version>
43012

> <i_f3d_flags>
0

> <s_epik_input>
W2NIXTFbY0hdW2NIXVtjSF1jKGMxMiluKFtDSDJdW0NIMl1PW0NIM10pYyhuMilTW0NIMl1DKD1PKVtOSF1jM1tjSF1jKFtDSDNdKW9uMw==

> <s_epik_cmdline>
J2VwaWtfcHl0aG9uJywgJy1waCcsICc3LjAnLCAnLXRuJywgJzgnLCAnLW1hJywgJzIwMCcsICctbWV0YWxfYmluZGluZycsICctaW1hZScsICc8aW5maWxlLm1hZT4nLCAnLW9tYWUnLCAnPG91dGZpbGUubWFlPic=

> <r_epik_Ionization_Penalty>
5.85337

> <r_epik_Ionization_Penalty_Charging>
5.85335

> <r_epik_Ionization_Penalty_Neutral>
1.96301e-05

> <r_epik_State_Penalty>
6.06575

> <r_epik_Charging_Adjusted_Penalty>
11.9191

> <i_epik_Tot_Q>
0

> <i_epik_Tot_abs_Q>
2

> <r_epik_Metal_State_Penalty>
2.64129

> <b_epik_Metal_Only>
1

> <s_lp_Force_Field>
OPLS_2005

> <r_lp_Energy>
5.16942

> <b_lp_Chiralities_Consistent>
1

> <s_lp_Variant>
AV-unprocessed.smi:2986-4

> <Gold.Version>
5.8.1

> <Gold.Id.Protein>
6NUR|6NUR_protein|mol2

> <Gold.PLP.Fitness>
56.2283

> <Gold.PLP.PLP>
-52.1916

> <Gold.PLP.part.hbond>
-2.0000

> <Gold.PLP.part.metal>
0.0000

> <Gold.PLP.part.buried>
-7.7474

> <Gold.PLP.part.nonpolar>
-43.0374

> <Gold.PLP.part.repulsive>
0.1802

> <Gold.PLP.ligand.clash>
0.0000

> <Gold.PLP.ligand.torsion>
1.1274

> <Gold.PLP.Chemscore.Hbond>
2.0000

> <Gold.PLP.Chemscore.CHOScore>
0.0000

> <Gold.PLP.Chemscore.Metal>
0.0000

> <Gold.Chemscore.Hbonds>
donor molecule, donor type, donor heavy atom, donor atom, acceptor molecule, acceptor atom, score
      P1  H  6896  6907       L1    10  1.00
      P1  H  7989  7998       L1     2  1.00

> <Gold.PLP.Chemscore.Internal.Correction>
0.2915

> <Gold.Rescore>
     Score         DG    S(hbond)    S(metal)    S(lipo)     H(rot)  DE(clash)    DE(int)     intcor
     19.51     -22.11       1.97        0.00     135.66       2.27       0.07       2.53       ----

> <Gold.Chemscore.Fitness>
19.5055

> <Gold.Chemscore.DG>
-22.1087

> <Gold.Chemscore.ZeroCoef>
-5.4800

> <Gold.Chemscore.Hbond>
1.9692

> <Gold.Chemscore.Metal>
0.0000

> <Gold.Chemscore.Lipo>
135.6620

> <Gold.Chemscore.Internal_Hbond>
0.0000

> <Gold.Chemscore.DEClash>
0.0712

> <Gold.Chemscore.DEInternal>
2.5320

> <Gold.Chemscore.Rot>
2.2738

> <Gold.Chemscore.Internal.Correction>
   9.000000E+99

> <Gold.Chemscore.Hbonds>
donor molecule, donor type, donor heavy atom, donor atom, acceptor molecule, acceptor atom, score
      P1  H  6896  6907       L1    10  1.00
      P1  H  7989  7998       L1     2  0.45

> <Gold.Chemscore.Hbond.Weighted>
-6.5771

> <Gold.Chemscore.Metal.Weighted>
-0.0000

> <Gold.Chemscore.Lipo.Weighted>
-15.8725

> <Gold.Chemscore.Internal_Hbond.Weighted>
0.0000

> <Gold.Chemscore.DEClash.Weighted>
0.0712

> <Gold.Chemscore.DEInternal.Weighted>
2.5320

> <Gold.Chemscore.Rot.Weighted>
5.8209

> <Gold.Chemscore.Internal.Correction.Weighted>
   9.000000E+99

> <Gold.Protein.RotatedTorsions>
[ 6907 6896 6895 6894 ] final   38.67 input  -60.11 | X-H torsion
[ 7974 7965 7964 7962 ] final   18.36 input  175.53 | X-H torsion
[ 8008 7997 7996 7995 ] final -125.90 input   59.86 | X-H torsion
[ 10167 10162 10161 10158 ] final   13.03 input  -65.29 | X-H torsion
[ 10718 10713 10712 10709 ] final  -42.44 input   66.30 | X-H torsion
[ 10763 10752 10751 10750 ] final -154.04 input  -60.55 | X-H torsion
[ 11005 11000 10999 10996 ] final -178.56 input  -57.11 | X-H torsion

> <Gold.Protein.ActiveResidues>
 VAL166  LYS551  ARG553  GLY616  TRP617  ASP618  TYR619  PRO620  LYS621  CYS622 
 ASP623  PHE694  ASN695  SER759  ASP760  ASP761  ALA762  ILE779  LEU786  VAL792 
 PHE793  MET794  SER795  GLU796  ALA797  LYS798  CYS799  TRP800  GLU811  SER814 

> <Gold.Protein.RotatedAtoms>
  152.1595  134.8923  160.0542 H   0  0  0  0  0  0  0  0  0  0  0  0  # atno 6907 bound_to 6896
  151.9924  133.3791  159.4158 H   0  0  0  0  0  0  0  0  0  0  0  0  # atno 6908 bound_to 6896
  150.6886  134.3844  159.5092 H   0  0  0  0  0  0  0  0  0  0  0  0  # atno 6909 bound_to 6896
  146.2187  139.8469  142.8630 H   0  0  0  0  0  0  0  0  0  0  0  0  # atno 7974 bound_to 7965
  155.2209  140.0422  157.2948 H   0  0  0  0  0  0  0  0  0  0  0  0  # atno 8008 bound_to 7997
  154.5950  140.2437  155.7840 H   0  0  0  0  0  0  0  0  0  0  0  0  # atno 8009 bound_to 7997
  156.2284  140.2946  156.0134 H   0  0  0  0  0  0  0  0  0  0  0  0  # atno 8010 bound_to 7997
  140.6029  143.8567  150.6984 H   0  0  0  0  0  0  0  0  0  0  0  0  # atno 10167 bound_to 10162
  156.2596  130.4195  149.8557 H   0  0  0  0  0  0  0  0  0  0  0  0  # atno 10718 bound_to 10713
  154.7886  135.3199  154.7829 H   0  0  0  0  0  0  0  0  0  0  0  0  # atno 10763 bound_to 10752
  153.8524  135.6861  153.4795 H   0  0  0  0  0  0  0  0  0  0  0  0  # atno 10764 bound_to 10752
  153.1547  135.4685  154.9627 H   0  0  0  0  0  0  0  0  0  0  0  0  # atno 10765 bound_to 10752
  140.4284  134.6542  157.4699 H   0  0  0  0  0  0  0  0  0  0  0  0  # atno 11005 bound_to 11000
  145.2842  141.0148  143.3700 LP  0  0  0  0  0  0  0  0  0  0  0  0  # atno 17320 bound_to 7965
  144.9127  139.4509  143.6579 LP  0  0  0  0  0  0  0  0  0  0  0  0  # atno 17321 bound_to 7965
  140.2117  143.3878  152.1713 LP  0  0  0  0  0  0  0  0  0  0  0  0  # atno 17342 bound_to 10162
  139.5304  144.7152  151.5076 LP  0  0  0  0  0  0  0  0  0  0  0  0  # atno 17343 bound_to 10162
  156.6077  130.8573  151.3447 LP  0  0  0  0  0  0  0  0  0  0  0  0  # atno 17370 bound_to 10713
  157.7245  130.9604  150.1578 LP  0  0  0  0  0  0  0  0  0  0  0  0  # atno 17371 bound_to 10713
  140.0151  134.6631  155.9321 LP  0  0  0  0  0  0  0  0  0  0  0  0  # atno 17394 bound_to 11000
  141.1756  133.6540  156.4815 LP  0  0  0  0  0  0  0  0  0  0  0  0  # atno 17395 bound_to 11000

$$$$
