AV-unprocessed.smi:2725|AV-procd|sdf|10516|dock2
  -GOLD-   2272014553D 1   1.00000     0.00000
 Structure written by MMmdl.
 44 45  0  0  0  0  0  0  0  0  1 V2000
  151.9740  140.2777  154.7315 O   0  0  0  0  0  0  0  0  0  0  0  0
  151.6047  139.8271  155.8155 C   0  0  0  0  0  0  0  0  0  0  0  0
  151.9483  140.5607  157.1138 C   0  0  0  0  0  0  0  0  0  0  0  0
  150.6973  141.0673  157.8546 C   0  0  0  0  0  0  0  0  0  0  0  0
  150.9676  142.3233  158.7016 C   0  0  0  0  0  0  0  0  0  0  0  0
  151.2750  143.5839  157.8868 C   0  0  0  0  0  0  0  0  0  0  0  0
  152.0178  144.5188  158.8490 C   0  0  0  0  0  0  0  0  0  0  0  0
  152.5552  143.6343  159.9842 C   0  0  0  0  0  0  0  0  0  0  0  0
  152.1917  142.1944  159.6102 C   0  0  0  0  0  0  0  0  0  0  0  0
  150.8851  138.7022  155.9430 N   0  0  0  0  0  0  0  0  0  0  0  0
  150.4114  137.8646  154.8414 C   0  0  1  0  0  0  0  0  0  0  0  0
  150.9183  136.4168  155.0167 C   0  0  0  0  0  0  0  0  0  0  0  0
  150.4551  135.5956  153.9658 O   0  0  0  0  0  0  0  0  0  0  0  0
  148.8693  137.9142  154.7891 C   0  0  0  0  0  0  0  0  0  0  0  0
  148.3084  139.3090  154.5604 C   0  0  0  0  0  0  0  0  0  0  0  0
  147.4439  139.5717  153.4755 C   0  0  0  0  0  0  0  0  0  0  0  0
  146.9472  140.8793  153.3145 C   0  0  0  0  0  0  0  0  0  0  0  0
  147.3328  141.8699  154.2380 C   0  0  0  0  0  0  0  0  0  0  0  0
  148.2009  141.5065  155.2869 C   0  0  0  0  0  0  0  0  0  0  0  0
  148.6828  140.2554  155.4503 N   0  0  0  0  0  0  0  0  0  0  0  0
  152.5102  139.8748  157.7481 H   0  0  0  0  0  0  0  0  0  0  0  0
  152.6121  141.3993  156.8975 H   0  0  0  0  0  0  0  0  0  0  0  0
  149.9199  141.2968  157.1241 H   0  0  0  0  0  0  0  0  0  0  0  0
  150.2927  140.2788  158.4908 H   0  0  0  0  0  0  0  0  0  0  0  0
  150.0999  142.5225  159.3329 H   0  0  0  0  0  0  0  0  0  0  0  0
  151.9288  143.3341  157.0500 H   0  0  0  0  0  0  0  0  0  0  0  0
  150.3769  144.0451  157.4744 H   0  0  0  0  0  0  0  0  0  0  0  0
  152.8201  145.0508  158.3367 H   0  0  0  0  0  0  0  0  0  0  0  0
  151.3363  145.2683  159.2533 H   0  0  0  0  0  0  0  0  0  0  0  0
  153.6298  143.7537  160.1259 H   0  0  0  0  0  0  0  0  0  0  0  0
  152.0703  143.9081  160.9219 H   0  0  0  0  0  0  0  0  0  0  0  0
  152.0004  141.5728  160.4855 H   0  0  0  0  0  0  0  0  0  0  0  0
  153.0185  141.7431  159.0595 H   0  0  0  0  0  0  0  0  0  0  0  0
  150.6274  138.4129  156.8752 H   0  0  0  0  0  0  0  0  0  0  0  0
  150.7715  138.2688  153.8928 H   0  0  0  0  0  0  0  0  0  0  0  0
  152.0062  136.3708  155.0795 H   0  0  0  0  0  0  0  0  0  0  0  0
  150.5326  135.9877  155.9422 H   0  0  0  0  0  0  0  0  0  0  0  0
  150.1681  136.1480  153.2549 H   0  0  0  0  0  0  0  0  0  0  0  0
  148.5045  137.2589  153.9969 H   0  0  0  0  0  0  0  0  0  0  0  0
  148.4568  137.5193  155.7186 H   0  0  0  0  0  0  0  0  0  0  0  0
  147.1636  138.7906  152.7844 H   0  0  0  0  0  0  0  0  0  0  0  0
  146.2823  141.1180  152.4974 H   0  0  0  0  0  0  0  0  0  0  0  0
  146.9718  142.8835  154.1453 H   0  0  0  0  0  0  0  0  0  0  0  0
  148.5173  142.2404  156.0132 H   0  0  0  0  0  0  0  0  0  0  0  0
  1  2  2  0  0  0  0
  2  3  1  0  0  0  0
  2 10  1  0  0  0  0
  3  4  1  0  0  0  0
  3 21  1  0  0  0  0
  3 22  1  0  0  0  0
  4  5  1  0  0  0  0
  4 23  1  0  0  0  0
  4 24  1  0  0  0  0
  5  9  1  0  0  0  0
  5  6  1  0  0  0  0
  5 25  1  0  0  0  0
  6  7  1  0  0  0  0
  6 26  1  0  0  0  0
  6 27  1  0  0  0  0
  7  8  1  0  0  0  0
  7 28  1  0  0  0  0
  7 29  1  0  0  0  0
  8  9  1  0  0  0  0
  8 30  1  0  0  0  0
  8 31  1  0  0  0  0
  9 32  1  0  0  0  0
  9 33  1  0  0  0  0
 10 11  1  0  0  0  0
 10 34  1  0  0  0  0
 11 12  1  0  0  0  0
 11 14  1  0  0  0  0
 11 35  1  0  0  0  0
 12 13  1  0  0  0  0
 12 36  1  0  0  0  0
 12 37  1  0  0  0  0
 13 38  1  0  0  0  0
 14 15  1  0  0  0  0
 14 39  1  0  0  0  0
 14 40  1  0  0  0  0
 15 20  1  0  0  0  0
 15 16  2  0  0  0  0
 16 17  1  0  0  0  0
 16 41  1  0  0  0  0
 17 18  2  0  0  0  0
 17 42  1  0  0  0  0
 18 19  1  0  0  0  0
 18 43  1  0  0  0  0
 19 20  2  0  0  0  0
 19 44  1  0  0  0  0
M  END
> <s_m_source_file>
AV-unprocessed.smi

> <i_m_source_file_index>
2725

> <i_lp_mmshare_version>
43012

> <i_f3d_flags>
0

> <s_epik_input>
W0NIMl0xW0NIMl1bQ0gyXVtDSDJdW0NIXTFbQ0gyXVtDSDJdQyg9TylbTkhdW0NASF0oW0NIMl1bT0hdKVtDSDJdYzJbY0hdW2NIXVtjSF1bY0hdbjI=

> <s_epik_cmdline>
J2VwaWtfcHl0aG9uJywgJy1waCcsICc3LjAnLCAnLXRuJywgJzgnLCAnLW1hJywgJzIwMCcsICctbWV0YWxfYmluZGluZycsICctaW1hZScsICc8aW5maWxlLm1hZT4nLCAnLW9tYWUnLCAnPG91dGZpbGUubWFlPic=

> <r_epik_Ionization_Penalty>
0.0257016

> <r_epik_Ionization_Penalty_Charging>
0

> <r_epik_Ionization_Penalty_Neutral>
0.0257016

> <r_epik_State_Penalty>
0.0209381

> <r_epik_Charging_Adjusted_Penalty>
0.0209381

> <i_epik_Tot_Q>
0

> <i_epik_Tot_abs_Q>
0

> <r_epik_Metal_State_Penalty>
0.0200649

> <b_epik_Metal_Only>
0

> <s_lp_Force_Field>
OPLS_2005

> <r_lp_Energy>
24.1231

> <b_lp_Chiralities_Consistent>
1

> <s_lp_Variant>
AV-unprocessed.smi:2725-2

> <Gold.Version>
5.8.1

> <Gold.Id.Protein>
6NUR|6NUR_protein|mol2

> <Gold.PLP.Fitness>
48.2012

> <Gold.PLP.PLP>
-39.8588

> <Gold.PLP.part.hbond>
-1.9000

> <Gold.PLP.part.metal>
0.0000

> <Gold.PLP.part.buried>
-4.5078

> <Gold.PLP.part.nonpolar>
-33.2175

> <Gold.PLP.part.repulsive>
0.1514

> <Gold.PLP.ligand.clash>
0.0000

> <Gold.PLP.ligand.torsion>
0.2658

> <Gold.PLP.Chemscore.Hbond>
1.9280

> <Gold.PLP.Chemscore.CHOScore>
1.0000

> <Gold.PLP.Chemscore.Metal>
0.0000

> <Gold.Chemscore.Hbonds>
donor molecule, donor type, donor heavy atom, donor atom, acceptor molecule, acceptor atom, score
      L1  H    13    38       P1  7948  0.17
      P1  H  7989  7998       L1     1  0.50
      L1  C    19    44       P1  8028  0.95

> <Gold.PLP.Chemscore.Internal.Correction>
0.0899

> <Gold.Rescore>
     Score         DG    S(hbond)    S(metal)    S(lipo)     H(rot)  DE(clash)    DE(int)     intcor
     16.11     -17.89       1.88        0.00     105.90       2.44       0.03       1.76       ----

> <Gold.Chemscore.Fitness>
16.1079

> <Gold.Chemscore.DG>
-17.8925

> <Gold.Chemscore.ZeroCoef>
-5.4800

> <Gold.Chemscore.Hbond>
1.8780

> <Gold.Chemscore.Metal>
0.0000

> <Gold.Chemscore.Lipo>
105.9009

> <Gold.Chemscore.Internal_Hbond>
0.0000

> <Gold.Chemscore.DEClash>
0.0272

> <Gold.Chemscore.DEInternal>
1.7574

> <Gold.Chemscore.Rot>
2.4416

> <Gold.Chemscore.Internal.Correction>
   9.000000E+99

> <Gold.Chemscore.Hbonds>
donor molecule, donor type, donor heavy atom, donor atom, acceptor molecule, acceptor atom, score
      P1  H  7989  7998       L1     1  0.50

> <Gold.Chemscore.Hbond.Weighted>
-6.2726

> <Gold.Chemscore.Metal.Weighted>
-0.0000

> <Gold.Chemscore.Lipo.Weighted>
-12.3904

> <Gold.Chemscore.Internal_Hbond.Weighted>
0.0000

> <Gold.Chemscore.DEClash.Weighted>
0.0272

> <Gold.Chemscore.DEInternal.Weighted>
1.7574

> <Gold.Chemscore.Rot.Weighted>
6.2505

> <Gold.Chemscore.Internal.Correction.Weighted>
   9.000000E+99

> <Gold.Protein.RotatedTorsions>
[ 6907 6896 6895 6894 ] final -174.37 input  -60.11 | X-H torsion
[ 7974 7965 7964 7962 ] final  -18.87 input  175.53 | X-H torsion
[ 8008 7997 7996 7995 ] final  146.93 input   59.86 | X-H torsion
[ 10167 10162 10161 10158 ] final  -15.29 input  -65.29 | X-H torsion
[ 10718 10713 10712 10709 ] final  141.61 input   66.30 | X-H torsion
[ 10763 10752 10751 10750 ] final   80.68 input  -60.55 | X-H torsion
[ 11005 11000 10999 10996 ] final  -49.22 input  -57.11 | X-H torsion

> <Gold.Protein.ActiveResidues>
 VAL166  LYS551  ARG553  GLY616  TRP617  ASP618  TYR619  PRO620  LYS621  CYS622 
 ASP623  PHE694  ASN695  SER759  ASP760  ASP761  ALA762  ILE779  LEU786  VAL792 
 PHE793  MET794  SER795  GLU796  ALA797  LYS798  CYS799  TRP800  GLU811  SER814 

> <Gold.Protein.RotatedAtoms>
  151.5712  133.3390  159.2989 H   0  0  0  0  0  0  0  0  0  0  0  0  # atno 6907 bound_to 6896
  150.8366  134.7645  159.6909 H   0  0  0  0  0  0  0  0  0  0  0  0  # atno 6908 bound_to 6896
  152.4442  134.5536  159.9925 H   0  0  0  0  0  0  0  0  0  0  0  0  # atno 6909 bound_to 6896
  146.1870  140.3983  142.8472 H   0  0  0  0  0  0  0  0  0  0  0  0  # atno 7974 bound_to 7965
  156.2840  140.2169  156.5456 H   0  0  0  0  0  0  0  0  0  0  0  0  # atno 8008 bound_to 7997
  154.7334  140.0493  157.0769 H   0  0  0  0  0  0  0  0  0  0  0  0  # atno 8009 bound_to 7997
  155.0324  140.3136  155.4756 H   0  0  0  0  0  0  0  0  0  0  0  0  # atno 8010 bound_to 7997
  140.7216  143.5233  150.9607 H   0  0  0  0  0  0  0  0  0  0  0  0  # atno 10167 bound_to 10162
  157.3900  131.1003  151.0655 H   0  0  0  0  0  0  0  0  0  0  0  0  # atno 10718 bound_to 10713
  153.1053  135.4794  154.8940 H   0  0  0  0  0  0  0  0  0  0  0  0  # atno 10763 bound_to 10752
  154.7423  135.3085  154.8708 H   0  0  0  0  0  0  0  0  0  0  0  0  # atno 10764 bound_to 10752
  153.9313  135.6844  153.4799 H   0  0  0  0  0  0  0  0  0  0  0  0  # atno 10765 bound_to 10752
  141.0747  133.6669  156.3555 H   0  0  0  0  0  0  0  0  0  0  0  0  # atno 11005 bound_to 11000
  144.8416  140.6865  143.6226 LP  0  0  0  0  0  0  0  0  0  0  0  0  # atno 17320 bound_to 7965
  145.3908  139.1617  143.4230 LP  0  0  0  0  0  0  0  0  0  0  0  0  # atno 17321 bound_to 7965
  139.8951  143.6904  152.3139 LP  0  0  0  0  0  0  0  0  0  0  0  0  # atno 17342 bound_to 10162
  139.7234  144.7598  151.0918 LP  0  0  0  0  0  0  0  0  0  0  0  0  # atno 17343 bound_to 10162
  157.1692  130.6260  149.5635 LP  0  0  0  0  0  0  0  0  0  0  0  0  # atno 17370 bound_to 10713
  155.9796  130.4791  150.6724 LP  0  0  0  0  0  0  0  0  0  0  0  0  # atno 17371 bound_to 10713
  140.5599  134.5944  157.5431 LP  0  0  0  0  0  0  0  0  0  0  0  0  # atno 17394 bound_to 11000
  139.9559  134.7536  156.0343 LP  0  0  0  0  0  0  0  0  0  0  0  0  # atno 17395 bound_to 11000

$$$$
