AV-unprocessed.smi:1919|AV-procd|sdf|7775|dock2
  -GOLD-   22720 9523D 1   1.00000     0.00000
 Structure written by MMmdl.
 37 39  0  0  0  0  0  0  0  0  2 V2000
  151.6879  136.4970  154.1427 O   0  0  0  0  0  0  0  0  0  0  0  0
  151.8377  137.7605  154.7518 C   0  0  0  0  0  0  0  0  0  0  0  0
  150.6587  138.6450  154.5132 C   0  0  0  0  0  0  0  0  0  0  0  0
  149.6119  138.3636  153.6881 N   0  3  0  0  0  0  0  0  0  0  0  0
  148.7105  139.4278  153.6871 C   0  0  0  0  0  0  0  0  0  0  0  0
  147.5123  139.6033  153.0020 C   0  0  0  0  0  0  0  0  0  0  0  0
  146.8339  140.8210  153.2152 C   0  0  0  0  0  0  0  0  0  0  0  0
  147.3496  141.8057  154.0823 C   0  0  0  0  0  0  0  0  0  0  0  0
  148.5630  141.6140  154.7749 C   0  0  0  0  0  0  0  0  0  0  0  0
  149.2298  140.4075  154.5583 C   0  0  0  0  0  0  0  0  0  0  0  0
  150.4338  139.8815  155.0456 N   0  0  0  0  0  0  0  0  0  0  0  0
  151.2516  140.6740  155.9797 C   0  0  0  0  0  0  0  0  0  0  0  0
  150.8558  140.4452  157.4524 C   0  0  2  0  0  0  0  0  0  0  0  0
  149.4489  140.5296  157.5478 O   0  0  0  0  0  0  0  0  0  0  0  0
  151.5620  141.4057  158.3997 C   0  0  0  0  0  0  0  0  0  0  0  0
  151.4521  142.8039  158.2284 C   0  0  0  0  0  0  0  0  0  0  0  0
  152.1337  143.6806  159.0945 C   0  0  0  0  0  0  0  0  0  0  0  0
  152.9315  143.1658  160.1343 C   0  0  0  0  0  0  0  0  0  0  0  0
  153.0465  141.7734  160.3085 C   0  0  0  0  0  0  0  0  0  0  0  0
  153.8201  141.2768  161.3027 F   0  0  0  0  0  0  0  0  0  0  0  0
  152.3615  140.8964  159.4458 C   0  0  0  0  0  0  0  0  0  0  0  0
  151.6016  136.6208  153.2094 H   0  0  0  0  0  0  0  0  0  0  0  0
  151.9740  137.6233  155.8248 H   0  0  0  0  0  0  0  0  0  0  0  0
  152.7425  138.2356  154.3737 H   0  0  0  0  0  0  0  0  0  0  0  0
  147.1174  138.8513  152.3347 H   0  0  0  0  0  0  0  0  0  0  0  0
  145.9009  141.0041  152.7021 H   0  0  0  0  0  0  0  0  0  0  0  0
  146.8043  142.7284  154.2186 H   0  0  0  0  0  0  0  0  0  0  0  0
  148.9480  142.3803  155.4306 H   0  0  0  0  0  0  0  0  0  0  0  0
  152.3086  140.4670  155.8136 H   0  0  0  0  0  0  0  0  0  0  0  0
  151.1089  141.7220  155.7148 H   0  0  0  0  0  0  0  0  0  0  0  0
  151.1187  139.4257  157.7366 H   0  0  0  0  0  0  0  0  0  0  0  0
  149.2137  141.4287  157.7198 H   0  0  0  0  0  0  0  0  0  0  0  0
  150.8511  143.2099  157.4278 H   0  0  0  0  0  0  0  0  0  0  0  0
  152.0469  144.7486  158.9590 H   0  0  0  0  0  0  0  0  0  0  0  0
  153.4560  143.8386  160.7966 H   0  0  0  0  0  0  0  0  0  0  0  0
  152.4622  139.8292  159.5811 H   0  0  0  0  0  0  0  0  0  0  0  0
  149.5290  137.5068  153.1561 H   0  0  0  0  0  0  0  0  0  0  0  0
  1  2  1  0  0  0  0
  1 22  1  0  0  0  0
  2  3  1  0  0  0  0
  2 23  1  0  0  0  0
  2 24  1  0  0  0  0
  3 11  1  0  0  0  0
  3  4  2  0  0  0  0
  4  5  1  0  0  0  0
  4 37  1  0  0  0  0
  5 10  2  0  0  0  0
  5  6  1  0  0  0  0
  6  7  2  0  0  0  0
  6 25  1  0  0  0  0
  7  8  1  0  0  0  0
  7 26  1  0  0  0  0
  8  9  2  0  0  0  0
  8 27  1  0  0  0  0
  9 10  1  0  0  0  0
  9 28  1  0  0  0  0
 10 11  1  0  0  0  0
 11 12  1  0  0  0  0
 12 13  1  0  0  0  0
 12 29  1  0  0  0  0
 12 30  1  0  0  0  0
 13 14  1  0  0  0  0
 13 15  1  0  0  0  0
 13 31  1  0  0  0  0
 14 32  1  0  0  0  0
 15 21  1  0  0  0  0
 15 16  2  0  0  0  0
 16 17  1  0  0  0  0
 16 33  1  0  0  0  0
 17 18  2  0  0  0  0
 17 34  1  0  0  0  0
 18 19  1  0  0  0  0
 18 35  1  0  0  0  0
 19 20  1  0  0  0  0
 19 21  2  0  0  0  0
 21 36  1  0  0  0  0
M  CHG  1   4   1
M  END
> <s_m_source_file>
AV-unprocessed.smi

> <i_m_source_file_index>
1919

> <i_lp_mmshare_version>
43012

> <i_f3d_flags>
0

> <s_epik_input>
W2NIXTFbY0hdW2NIXVtjSF1jKGMxMiluKGMobjIpW0NIMl1bT0hdKVtDSDJdW0NASF0oW09IXSljM1tjSF1bY0hdW2NIXWMoRilbY0hdMw==

> <s_epik_cmdline>
J2VwaWtfcHl0aG9uJywgJy1waCcsICc3LjAnLCAnLXRuJywgJzgnLCAnLW1hJywgJzIwMCcsICctbWV0YWxfYmluZGluZycsICctaW1hZScsICc8aW5maWxlLm1hZT4nLCAnLW9tYWUnLCAnPG91dGZpbGUubWFlPic=

> <r_epik_Ionization_Penalty>
1.35643

> <r_epik_Ionization_Penalty_Charging>
1.35557

> <r_epik_Ionization_Penalty_Neutral>
0.000859316

> <r_epik_State_Penalty>
1.43401

> <r_epik_Charging_Adjusted_Penalty>
2.78958

> <i_epik_Tot_Q>
1

> <i_epik_Tot_abs_Q>
1

> <r_epik_Metal_State_Penalty>
5.47166

> <b_epik_Metal_Only>
0

> <s_lp_Force_Field>
OPLS_2005

> <r_lp_Energy>
14.8361

> <b_lp_Chiralities_Consistent>
1

> <s_lp_Variant>
AV-unprocessed.smi:1919-3

> <Gold.Version>
5.8.1

> <Gold.Id.Protein>
6NUR|6NUR_protein|mol2

> <Gold.PLP.Fitness>
62.2976

> <Gold.PLP.PLP>
-51.2699

> <Gold.PLP.part.hbond>
-4.0000

> <Gold.PLP.part.metal>
0.0000

> <Gold.PLP.part.buried>
1.7104

> <Gold.PLP.part.nonpolar>
-49.5732

> <Gold.PLP.part.repulsive>
0.0638

> <Gold.PLP.ligand.clash>
0.0007

> <Gold.PLP.ligand.torsion>
0.5032

> <Gold.PLP.Chemscore.Hbond>
4.0000

> <Gold.PLP.Chemscore.CHOScore>
0.0000

> <Gold.PLP.Chemscore.Metal>
0.0000

> <Gold.Chemscore.Hbonds>
donor molecule, donor type, donor heavy atom, donor atom, acceptor molecule, acceptor atom, score
      L1  H     1    22       P1  7949  1.00
      L1  H     4    37       P1  7948  2.00
      P1  H 10752 10765       L1     1  0.96

> <Gold.PLP.Chemscore.Internal.Correction>
0.0348

> <Gold.Rescore>
     Score         DG    S(hbond)    S(metal)    S(lipo)     H(rot)  DE(clash)    DE(int)     intcor
     19.23     -20.74       2.53        0.00     119.97       2.82       1.18       0.33       ----

> <Gold.Chemscore.Fitness>
19.2319

> <Gold.Chemscore.DG>
-20.7362

> <Gold.Chemscore.ZeroCoef>
-5.4800

> <Gold.Chemscore.Hbond>
2.5279

> <Gold.Chemscore.Metal>
0.0000

> <Gold.Chemscore.Lipo>
119.9748

> <Gold.Chemscore.Internal_Hbond>
0.0000

> <Gold.Chemscore.DEClash>
1.1751

> <Gold.Chemscore.DEInternal>
0.3291

> <Gold.Chemscore.Rot>
2.8219

> <Gold.Chemscore.Internal.Correction>
   9.000000E+99

> <Gold.Chemscore.Hbonds>
donor molecule, donor type, donor heavy atom, donor atom, acceptor molecule, acceptor atom, score
      L1  H     1    22       P1  7949  0.91
      L1  H     4    37       P1  7948  0.85
      P1  H 10752 10765       L1     1  0.36

> <Gold.Chemscore.Hbond.Weighted>
-8.4432

> <Gold.Chemscore.Metal.Weighted>
-0.0000

> <Gold.Chemscore.Lipo.Weighted>
-14.0371

> <Gold.Chemscore.Internal_Hbond.Weighted>
0.0000

> <Gold.Chemscore.DEClash.Weighted>
1.1751

> <Gold.Chemscore.DEInternal.Weighted>
0.3291

> <Gold.Chemscore.Rot.Weighted>
7.2240

> <Gold.Chemscore.Internal.Correction.Weighted>
   9.000000E+99

> <Gold.Protein.RotatedTorsions>
[ 6907 6896 6895 6894 ] final  128.07 input  -60.11 | X-H torsion
[ 7974 7965 7964 7962 ] final  -67.38 input  175.53 | X-H torsion
[ 8008 7997 7996 7995 ] final   -1.58 input   59.86 | X-H torsion
[ 10167 10162 10161 10158 ] final  119.90 input  -65.29 | X-H torsion
[ 10718 10713 10712 10709 ] final  -10.33 input   66.30 | X-H torsion
[ 10763 10752 10751 10750 ] final  164.41 input  -60.55 | X-H torsion
[ 11005 11000 10999 10996 ] final  109.15 input  -57.11 | X-H torsion

> <Gold.Protein.ActiveResidues>
 VAL166  LYS551  ARG553  GLY616  TRP617  ASP618  TYR619  PRO620  LYS621  CYS622 
 ASP623  PHE694  ASN695  SER759  ASP760  ASP761  ALA762  ILE779  LEU786  VAL792 
 PHE793  MET794  SER795  GLU796  ALA797  LYS798  CYS799  TRP800  GLU811  SER814 

> <Gold.Protein.RotatedAtoms>
  152.3753  133.6473  159.6118 H   0  0  0  0  0  0  0  0  0  0  0  0  # atno 6907 bound_to 6896
  150.7699  133.9203  159.3405 H   0  0  0  0  0  0  0  0  0  0  0  0  # atno 6908 bound_to 6896
  151.7018  135.0930  160.0303 H   0  0  0  0  0  0  0  0  0  0  0  0  # atno 6909 bound_to 6896
  145.7298  140.9002  143.0586 H   0  0  0  0  0  0  0  0  0  0  0  0  # atno 7974 bound_to 7965
  154.6452  140.2556  155.7276 H   0  0  0  0  0  0  0  0  0  0  0  0  # atno 8008 bound_to 7997
  156.2548  140.2879  156.0783 H   0  0  0  0  0  0  0  0  0  0  0  0  # atno 8009 bound_to 7997
  155.1535  140.0382  157.2816 H   0  0  0  0  0  0  0  0  0  0  0  0  # atno 8010 bound_to 7997
  139.6017  144.7058  151.3048 H   0  0  0  0  0  0  0  0  0  0  0  0  # atno 10167 bound_to 10162
  156.6751  130.5020  149.5988 H   0  0  0  0  0  0  0  0  0  0  0  0  # atno 10718 bound_to 10713
  154.3085  135.2758  155.2577 H   0  0  0  0  0  0  0  0  0  0  0  0  # atno 10763 bound_to 10752
  154.4983  135.5815  153.6515 H   0  0  0  0  0  0  0  0  0  0  0  0  # atno 10764 bound_to 10752
  152.9891  135.6151  154.3260 H   0  0  0  0  0  0  0  0  0  0  0  0  # atno 10765 bound_to 10752
  139.8856  134.9450  156.6081 H   0  0  0  0  0  0  0  0  0  0  0  0  # atno 11005 bound_to 11000
  144.6895  139.9316  143.7472 LP  0  0  0  0  0  0  0  0  0  0  0  0  # atno 17320 bound_to 7965
  146.0548  139.3545  143.0617 LP  0  0  0  0  0  0  0  0  0  0  0  0  # atno 17321 bound_to 7965
  140.7254  143.7018  150.7839 LP  0  0  0  0  0  0  0  0  0  0  0  0  # atno 17342 bound_to 10162
  140.0595  143.5168  152.2634 LP  0  0  0  0  0  0  0  0  0  0  0  0  # atno 17343 bound_to 10162
  156.1909  130.6559  151.1060 LP  0  0  0  0  0  0  0  0  0  0  0  0  # atno 17370 bound_to 10713
  157.7063  131.0754  150.6654 LP  0  0  0  0  0  0  0  0  0  0  0  0  # atno 17371 bound_to 10713
  140.7833  133.8642  155.8585 LP  0  0  0  0  0  0  0  0  0  0  0  0  # atno 17394 bound_to 11000
  140.9742  134.1491  157.4551 LP  0  0  0  0  0  0  0  0  0  0  0  0  # atno 17395 bound_to 11000

$$$$
