AV-unprocessed.smi:592|AV-procd|sdf|3012|dock10
  -GOLD-   2262023523D 1   1.00000     0.00000
 Structure written by MMmdl.
 27 28  0  0  0  0  0  0  0  0  1 V2000
  150.8075  141.2904  158.2784 O   0  0  0  0  0  0  0  0  0  0  0  0
  151.9802  140.9428  158.1161 C   0  0  0  0  0  0  0  0  0  0  0  0
  153.0451  141.4964  159.0705 C   0  0  0  0  0  0  0  0  0  0  0  0
  152.5406  142.6512  159.8300 N   0  0  0  0  0  0  0  0  0  0  0  0
  152.0943  143.7573  159.0792 C   0  0  0  0  0  0  0  0  0  0  0  0
  151.6235  144.8702  159.6634 C   0  0  0  0  0  0  0  0  0  0  0  0
  151.5802  144.9174  161.1055 C   0  0  0  0  0  0  0  0  0  0  0  0
  152.0034  143.8652  161.8338 C   0  0  0  0  0  0  0  0  0  0  0  0
  152.5177  142.6458  161.1991 C   0  0  0  0  0  0  0  0  0  0  0  0
  152.9051  141.6822  161.8599 O   0  0  0  0  0  0  0  0  0  0  0  0
  152.5228  140.0943  157.1571 N   0  0  0  0  0  0  0  0  0  0  0  0
  151.8151  139.6593  156.1587 C   0  0  0  0  0  0  0  0  0  0  0  0
  150.4822  139.9202  155.8551 N   0  0  0  0  0  0  0  0  0  0  0  0
  150.0292  139.6096  154.5118 C   0  0  0  0  0  0  0  0  0  0  0  0
  150.8461  138.4181  154.0200 C   0  0  0  0  0  0  0  0  0  0  0  0
  152.4346  138.5590  154.8581 S   0  0  0  0  0  0  0  0  0  0  0  0
  153.3461  140.7048  159.7589 H   0  0  0  0  0  0  0  0  0  0  0  0
  153.9525  141.7414  158.5146 H   0  0  0  0  0  0  0  0  0  0  0  0
  152.1657  143.6420  158.0071 H   0  0  0  0  0  0  0  0  0  0  0  0
  151.2890  145.7088  159.0706 H   0  0  0  0  0  0  0  0  0  0  0  0
  151.2081  145.8010  161.6029 H   0  0  0  0  0  0  0  0  0  0  0  0
  151.9651  143.9191  162.9119 H   0  0  0  0  0  0  0  0  0  0  0  0
  148.9606  139.3940  154.5008 H   0  0  0  0  0  0  0  0  0  0  0  0
  150.2011  140.4800  153.8777 H   0  0  0  0  0  0  0  0  0  0  0  0
  150.3775  137.4831  154.3282 H   0  0  0  0  0  0  0  0  0  0  0  0
  150.9585  138.4057  152.9358 H   0  0  0  0  0  0  0  0  0  0  0  0
  149.8937  140.5264  156.4090 H   0  0  0  0  0  0  0  0  0  0  0  0
  1  2  2  0  0  0  0
  2  3  1  0  0  0  0
  2 11  1  0  0  0  0
  3  4  1  0  0  0  0
  3 17  1  0  0  0  0
  3 18  1  0  0  0  0
  4  9  1  0  0  0  0
  4  5  1  0  0  0  0
  5  6  2  0  0  0  0
  5 19  1  0  0  0  0
  6  7  1  0  0  0  0
  6 20  1  0  0  0  0
  7  8  2  0  0  0  0
  7 21  1  0  0  0  0
  8  9  1  0  0  0  0
  8 22  1  0  0  0  0
  9 10  2  0  0  0  0
 11 12  2  0  0  0  0
 12 16  1  0  0  0  0
 12 13  1  0  0  0  0
 13 14  1  0  0  0  0
 13 27  1  0  0  0  0
 14 15  1  0  0  0  0
 14 23  1  0  0  0  0
 14 24  1  0  0  0  0
 15 16  1  0  0  0  0
 15 25  1  0  0  0  0
 15 26  1  0  0  0  0
M  END
> <s_m_source_file>
AV-unprocessed.smi

> <i_m_source_file_index>
592

> <i_lp_mmshare_version>
43012

> <i_f3d_flags>
0

> <s_epik_input>
UzFbQ0gyXVtDSDJdTj1DMVtOSF1DKD1PKVtDSDJdbjJbY0hdW2NIXVtjSF1bY0hdYzI9Tw==

> <s_epik_cmdline>
J2VwaWtfcHl0aG9uJywgJy1waCcsICc3LjAnLCAnLXRuJywgJzgnLCAnLW1hJywgJzIwMCcsICctbWV0YWxfYmluZGluZycsICctaW1hZScsICc8aW5maWxlLm1hZT4nLCAnLW9tYWUnLCAnPG91dGZpbGUubWFlPic=

> <r_lp_tautomer_probability>
1

> <r_epik_Ionization_Penalty>
2.71369

> <r_epik_Ionization_Penalty_Charging>
3.63323e-07

> <r_epik_Ionization_Penalty_Neutral>
2.71369

> <r_epik_State_Penalty>
1.599

> <r_epik_Charging_Adjusted_Penalty>
1.599

> <i_epik_Tot_Q>
0

> <i_epik_Tot_abs_Q>
0

> <r_epik_Metal_State_Penalty>
1.59596

> <b_epik_Metal_Only>
1

> <s_epik_Chemistry_Notes>
This compound has an imine and may undergo hydrolysis.

> <s_lp_Force_Field>
OPLS_2005

> <r_lp_Energy>
29.0057

> <b_lp_Chiralities_Consistent>
1

> <s_lp_Variant>
AV-unprocessed.smi:592-3

> <Gold.Version>
5.8.1

> <Gold.Id.Protein>
6NUR|6NUR_protein|mol2

> <Gold.PLP.Fitness>
44.0339

> <Gold.PLP.PLP>
-41.4604

> <Gold.PLP.part.hbond>
-1.0000

> <Gold.PLP.part.metal>
0.0000

> <Gold.PLP.part.buried>
-5.5940

> <Gold.PLP.part.nonpolar>
-34.5432

> <Gold.PLP.part.repulsive>
0.1466

> <Gold.PLP.ligand.clash>
0.0000

> <Gold.PLP.ligand.torsion>
0.2137

> <Gold.PLP.Chemscore.Hbond>
1.0000

> <Gold.PLP.Chemscore.CHOScore>
0.0000

> <Gold.PLP.Chemscore.Metal>
0.0000

> <Gold.Chemscore.Hbonds>
donor molecule, donor type, donor heavy atom, donor atom, acceptor molecule, acceptor atom, score
      P1  H  7997  8010       L1    11  1.00

> <Gold.PLP.Chemscore.Internal.Correction>
0.0008

> <Gold.Rescore>
     Score         DG    S(hbond)    S(metal)    S(lipo)     H(rot)  DE(clash)    DE(int)     intcor
     12.37     -14.76       0.87        0.00      83.58       1.33       1.00       1.39       ----

> <Gold.Chemscore.Fitness>
12.3657

> <Gold.Chemscore.DG>
-14.7554

> <Gold.Chemscore.ZeroCoef>
-5.4800

> <Gold.Chemscore.Hbond>
0.8694

> <Gold.Chemscore.Metal>
0.0000

> <Gold.Chemscore.Lipo>
83.5794

> <Gold.Chemscore.Internal_Hbond>
0.0000

> <Gold.Chemscore.DEClash>
0.9970

> <Gold.Chemscore.DEInternal>
1.3926

> <Gold.Chemscore.Rot>
1.3309

> <Gold.Chemscore.Internal.Correction>
   9.000000E+99

> <Gold.Chemscore.Hbonds>
donor molecule, donor type, donor heavy atom, donor atom, acceptor molecule, acceptor atom, score
      P1  H  7997  8010       L1    11  0.59

> <Gold.Chemscore.Hbond.Weighted>
-2.9036

> <Gold.Chemscore.Metal.Weighted>
-0.0000

> <Gold.Chemscore.Lipo.Weighted>
-9.7788

> <Gold.Chemscore.Internal_Hbond.Weighted>
0.0000

> <Gold.Chemscore.DEClash.Weighted>
0.9970

> <Gold.Chemscore.DEInternal.Weighted>
1.3926

> <Gold.Chemscore.Rot.Weighted>
3.4071

> <Gold.Chemscore.Internal.Correction.Weighted>
   9.000000E+99

> <Gold.Protein.RotatedTorsions>
[ 6907 6896 6895 6894 ] final  -50.17 input  -60.11 | X-H torsion
[ 7974 7965 7964 7962 ] final  117.95 input  175.53 | X-H torsion
[ 8008 7997 7996 7995 ] final   64.73 input   59.86 | X-H torsion
[ 10167 10162 10161 10158 ] final  109.84 input  -65.29 | X-H torsion
[ 10718 10713 10712 10709 ] final  -78.18 input   66.30 | X-H torsion
[ 10763 10752 10751 10750 ] final -157.28 input  -60.55 | X-H torsion
[ 11005 11000 10999 10996 ] final  -61.18 input  -57.11 | X-H torsion

> <Gold.Protein.ActiveResidues>
 VAL166  LYS551  ARG553  GLY616  TRP617  ASP618  TYR619  PRO620  LYS621  CYS622 
 ASP623  PHE694  ASN695  SER759  ASP760  ASP761  ALA762  ILE779  LEU786  VAL792 
 PHE793  MET794  SER795  GLU796  ALA797  LYS798  CYS799  TRP800  GLU811  SER814 

> <Gold.Protein.RotatedAtoms>
  150.8733  134.8111  159.7170 H   0  0  0  0  0  0  0  0  0  0  0  0  # atno 6907 bound_to 6896
  152.4729  134.4912  159.9706 H   0  0  0  0  0  0  0  0  0  0  0  0  # atno 6908 bound_to 6896
  151.4998  133.3468  159.2902 H   0  0  0  0  0  0  0  0  0  0  0  0  # atno 6909 bound_to 6896
  145.1611  139.3155  143.4517 H   0  0  0  0  0  0  0  0  0  0  0  0  # atno 7974 bound_to 7965
  155.6507  140.3497  155.4747 H   0  0  0  0  0  0  0  0  0  0  0  0  # atno 8008 bound_to 7997
  155.9850  140.1182  157.0714 H   0  0  0  0  0  0  0  0  0  0  0  0  # atno 8009 bound_to 7997
  154.4202  140.1130  156.5474 H   0  0  0  0  0  0  0  0  0  0  0  0  # atno 8010 bound_to 7997
  139.6735  144.7124  151.1644 H   0  0  0  0  0  0  0  0  0  0  0  0  # atno 10167 bound_to 10162
  156.0124  130.4511  150.3458 H   0  0  0  0  0  0  0  0  0  0  0  0  # atno 10718 bound_to 10713
  154.7648  135.3128  154.8307 H   0  0  0  0  0  0  0  0  0  0  0  0  # atno 10763 bound_to 10752
  153.9058  135.6811  153.4757 H   0  0  0  0  0  0  0  0  0  0  0  0  # atno 10764 bound_to 10752
  153.1253  135.4804  154.9195 H   0  0  0  0  0  0  0  0  0  0  0  0  # atno 10765 bound_to 10752
  141.1315  133.6628  156.5336 H   0  0  0  0  0  0  0  0  0  0  0  0  # atno 11005 bound_to 11000
  146.3482  140.1721  142.8589 LP  0  0  0  0  0  0  0  0  0  0  0  0  # atno 17320 bound_to 7965
  145.0330  140.8886  143.5098 LP  0  0  0  0  0  0  0  0  0  0  0  0  # atno 17321 bound_to 7965
  140.7627  143.5807  150.8897 LP  0  0  0  0  0  0  0  0  0  0  0  0  # atno 17342 bound_to 10162
  139.9475  143.6311  152.3038 LP  0  0  0  0  0  0  0  0  0  0  0  0  # atno 17343 bound_to 10162
  157.1552  131.0331  151.2866 LP  0  0  0  0  0  0  0  0  0  0  0  0  # atno 17370 bound_to 10713
  157.4358  130.7516  149.7028 LP  0  0  0  0  0  0  0  0  0  0  0  0  # atno 17371 bound_to 10713
  140.4196  134.7199  157.4882 LP  0  0  0  0  0  0  0  0  0  0  0  0  # atno 17394 bound_to 11000
  140.0369  134.6324  155.9031 LP  0  0  0  0  0  0  0  0  0  0  0  0  # atno 17395 bound_to 11000

$$$$
