AV-unprocessed.smi:1047|AV-procd|sdf|4573|dock2
  -GOLD-   22720 3 33D 1   1.00000     0.00000
 Structure written by MMmdl.
 56 58  0  0  0  0  0  0  0  0  2 V2000
  146.0602  132.9012  160.9911 C   0  0  0  0  0  0  0  0  0  0  0  0
  146.2563  133.9878  162.0576 C   0  0  0  0  0  0  0  0  0  0  0  0
  147.6852  134.3570  162.2409 N   0  3  2  0  0  0  0  0  0  0  0  0
  147.9141  135.2861  163.3741 C   0  0  0  0  0  0  0  0  0  0  0  0
  147.5315  136.7282  162.9959 C   0  0  0  0  0  0  0  0  0  0  0  0
  148.2628  137.1257  161.8422 O   0  0  0  0  0  0  0  0  0  0  0  0
  147.9715  136.3212  160.7040 C   0  0  1  0  0  0  0  0  0  0  0  0
  148.7605  136.8947  159.5170 C   0  0  0  0  0  0  0  0  0  0  0  0
  150.1532  136.4580  159.5423 N   0  0  0  0  0  0  0  0  0  0  0  0
  151.1084  137.5563  159.4339 C   0  0  0  0  0  0  0  0  0  0  0  0
  150.9012  138.3538  158.1325 C   0  0  2  0  0  0  0  0  0  0  0  0
  150.7911  137.4385  157.0605 O   0  0  0  0  0  0  0  0  0  0  0  0
  152.0519  139.3384  157.8300 C   0  0  0  0  0  0  0  0  0  0  0  0
  151.6056  140.6971  157.5625 N   0  0  0  0  0  0  0  0  0  0  0  0
  151.0095  141.1498  156.4422 C   0  0  0  0  0  0  0  0  0  0  0  0
  150.6805  142.4374  156.4036 N   0  0  0  0  0  0  0  0  0  0  0  0
  151.1227  142.8750  157.6400 C   0  0  0  0  0  0  0  0  0  0  0  0
  151.0758  144.1578  158.2284 C   0  0  0  0  0  0  0  0  0  0  0  0
  151.5980  144.3812  159.5222 C   0  0  0  0  0  0  0  0  0  0  0  0
  151.5272  145.7770  160.1163 C   0  0  0  0  0  0  0  0  0  0  0  0
  152.1787  143.3106  160.2484 C   0  0  0  0  0  0  0  0  0  0  0  0
  152.7468  143.5266  161.6398 C   0  0  0  0  0  0  0  0  0  0  0  0
  152.2332  142.0228  159.6756 C   0  0  0  0  0  0  0  0  0  0  0  0
  151.7093  141.8123  158.3878 C   0  0  0  0  0  0  0  0  0  0  0  0
  148.3632  134.8583  161.0180 C   0  0  0  0  0  0  0  0  0  0  0  0
  145.0184  132.5825  160.9583 H   0  0  0  0  0  0  0  0  0  0  0  0
  146.6665  132.0213  161.2078 H   0  0  0  0  0  0  0  0  0  0  0  0
  146.3193  133.2529  159.9929 H   0  0  0  0  0  0  0  0  0  0  0  0
  145.6525  134.8637  161.8218 H   0  0  0  0  0  0  0  0  0  0  0  0
  145.8701  133.5967  162.9996 H   0  0  0  0  0  0  0  0  0  0  0  0
  147.3685  134.9584  164.2597 H   0  0  0  0  0  0  0  0  0  0  0  0
  148.9720  135.2523  163.6374 H   0  0  0  0  0  0  0  0  0  0  0  0
  146.4596  136.8213  162.8162 H   0  0  0  0  0  0  0  0  0  0  0  0
  147.7742  137.4053  163.8150 H   0  0  0  0  0  0  0  0  0  0  0  0
  146.9053  136.3987  160.4851 H   0  0  0  0  0  0  0  0  0  0  0  0
  148.2963  136.5607  158.5883 H   0  0  0  0  0  0  0  0  0  0  0  0
  148.7010  137.9839  159.5190 H   0  0  0  0  0  0  0  0  0  0  0  0
  150.3196  135.7858  158.8000 H   0  0  0  0  0  0  0  0  0  0  0  0
  150.9658  138.2269  160.2822 H   0  0  0  0  0  0  0  0  0  0  0  0
  152.1329  137.1873  159.5010 H   0  0  0  0  0  0  0  0  0  0  0  0
  149.9735  138.9250  158.1903 H   0  0  0  0  0  0  0  0  0  0  0  0
  150.2593  136.7096  157.3423 H   0  0  0  0  0  0  0  0  0  0  0  0
  152.7581  139.3623  158.6609 H   0  0  0  0  0  0  0  0  0  0  0  0
  152.6153  138.9900  156.9632 H   0  0  0  0  0  0  0  0  0  0  0  0
  150.8012  140.4948  155.6086 H   0  0  0  0  0  0  0  0  0  0  0  0
  150.6340  144.9730  157.6745 H   0  0  0  0  0  0  0  0  0  0  0  0
  152.5259  146.1418  160.3567 H   0  0  0  0  0  0  0  0  0  0  0  0
  150.9298  145.7737  161.0282 H   0  0  0  0  0  0  0  0  0  0  0  0
  151.0725  146.4832  159.4211 H   0  0  0  0  0  0  0  0  0  0  0  0
  153.1345  142.5980  162.0595 H   0  0  0  0  0  0  0  0  0  0  0  0
  151.9763  143.9015  162.3137 H   0  0  0  0  0  0  0  0  0  0  0  0
  153.5637  144.2478  161.6107 H   0  0  0  0  0  0  0  0  0  0  0  0
  152.6724  141.1985  160.2181 H   0  0  0  0  0  0  0  0  0  0  0  0
  149.4397  134.8029  161.1858 H   0  0  0  0  0  0  0  0  0  0  0  0
  148.1606  134.2098  160.1669 H   0  0  0  0  0  0  0  0  0  0  0  0
  148.1484  133.4954  162.4930 H   0  0  0  0  0  0  0  0  0  0  0  0
  1  2  1  0  0  0  0
  1 26  1  0  0  0  0
  1 27  1  0  0  0  0
  1 28  1  0  0  0  0
  2  3  1  0  0  0  0
  2 29  1  0  0  0  0
  2 30  1  0  0  0  0
  3 25  1  0  0  0  0
  3  4  1  0  0  0  0
  3 56  1  0  0  0  0
  4  5  1  0  0  0  0
  4 31  1  0  0  0  0
  4 32  1  0  0  0  0
  5  6  1  0  0  0  0
  5 33  1  0  0  0  0
  5 34  1  0  0  0  0
  6  7  1  0  0  0  0
  7  8  1  0  0  0  0
  7 25  1  0  0  0  0
  7 35  1  0  0  0  0
  8  9  1  0  0  0  0
  8 36  1  0  0  0  0
  8 37  1  0  0  0  0
  9 10  1  0  0  0  0
  9 38  1  0  0  0  0
 10 11  1  0  0  0  0
 10 39  1  0  0  0  0
 10 40  1  0  0  0  0
 11 12  1  0  0  0  0
 11 13  1  0  0  0  0
 11 41  1  0  0  0  0
 12 42  1  0  0  0  0
 13 14  1  0  0  0  0
 13 43  1  0  0  0  0
 13 44  1  0  0  0  0
 14 24  1  0  0  0  0
 14 15  1  0  0  0  0
 15 16  2  0  0  0  0
 15 45  1  0  0  0  0
 16 17  1  0  0  0  0
 17 24  2  0  0  0  0
 17 18  1  0  0  0  0
 18 19  2  0  0  0  0
 18 46  1  0  0  0  0
 19 20  1  0  0  0  0
 19 21  1  0  0  0  0
 20 47  1  0  0  0  0
 20 48  1  0  0  0  0
 20 49  1  0  0  0  0
 21 22  1  0  0  0  0
 21 23  2  0  0  0  0
 22 50  1  0  0  0  0
 22 51  1  0  0  0  0
 22 52  1  0  0  0  0
 23 24  1  0  0  0  0
 23 53  1  0  0  0  0
 25 54  1  0  0  0  0
 25 55  1  0  0  0  0
M  CHG  1   3   1
M  END
> <s_m_source_file>
AV-unprocessed.smi

> <i_m_source_file_index>
1047

> <i_lp_mmshare_version>
43012

> <i_f3d_flags>
0

> <s_epik_input>
W0NIM11bQ0gyXU4xW0NIMl1bQ0gyXU9bQ0BIXShbQ0gyXTEpW0NIMl1bTkhdW0NIMl1bQ0BIXShbT0hdKVtDSDJdbihbY0hdbjIpYyhjMjMpW2NIXWMoW0NIM10pYyhbY0hdMylbQ0gzXQ==

> <s_epik_cmdline>
J2VwaWtfcHl0aG9uJywgJy1waCcsICc3LjAnLCAnLXRuJywgJzgnLCAnLW1hJywgJzIwMCcsICctbWV0YWxfYmluZGluZycsICctaW1hZScsICc8aW5maWxlLm1hZT4nLCAnLW9tYWUnLCAnPG91dGZpbGUubWFlPic=

> <r_epik_Ionization_Penalty>
1.19246

> <r_epik_Ionization_Penalty_Charging>
0.210041

> <r_epik_Ionization_Penalty_Neutral>
0.982415

> <r_epik_State_Penalty>
1.57595

> <r_epik_Charging_Adjusted_Penalty>
1.78599

> <i_epik_Tot_Q>
1

> <i_epik_Tot_abs_Q>
1

> <r_epik_Metal_State_Penalty>
1.46172

> <b_epik_Metal_Only>
0

> <s_lp_Force_Field>
OPLS_2005

> <r_lp_Energy>
32.195

> <b_lp_Chiralities_Consistent>
1

> <s_lp_Variant>
AV-unprocessed.smi:1047-14

> <Gold.Version>
5.8.1

> <Gold.Id.Protein>
6NUR|6NUR_protein|mol2

> <Gold.PLP.Fitness>
56.8294

> <Gold.PLP.PLP>
-54.6248

> <Gold.PLP.part.hbond>
-2.9608

> <Gold.PLP.part.metal>
0.0000

> <Gold.PLP.part.buried>
-6.0249

> <Gold.PLP.part.nonpolar>
-44.6470

> <Gold.PLP.part.repulsive>
0.1806

> <Gold.PLP.ligand.clash>
0.0000

> <Gold.PLP.ligand.torsion>
1.5218

> <Gold.PLP.Chemscore.Hbond>
1.6443

> <Gold.PLP.Chemscore.CHOScore>
0.0000

> <Gold.PLP.Chemscore.Metal>
0.0000

> <Gold.Chemscore.Hbonds>
donor molecule, donor type, donor heavy atom, donor atom, acceptor molecule, acceptor atom, score
      P1  H  6931  6943       L1     6  0.57
      P1  H  6934  6947       L1     6  0.07

> <Gold.PLP.Chemscore.Internal.Correction>
0.3154

> <Gold.Rescore>
     Score         DG    S(hbond)    S(metal)    S(lipo)     H(rot)  DE(clash)    DE(int)     intcor
     17.72     -19.09       0.97        0.00     146.13       2.62       0.21       1.17       ----

> <Gold.Chemscore.Fitness>
17.7156

> <Gold.Chemscore.DG>
-19.0935

> <Gold.Chemscore.ZeroCoef>
-5.4800

> <Gold.Chemscore.Hbond>
0.9657

> <Gold.Chemscore.Metal>
0.0000

> <Gold.Chemscore.Lipo>
146.1348

> <Gold.Chemscore.Internal_Hbond>
0.0000

> <Gold.Chemscore.DEClash>
0.2088

> <Gold.Chemscore.DEInternal>
1.1691

> <Gold.Chemscore.Rot>
2.6209

> <Gold.Chemscore.Internal.Correction>
   9.000000E+99

> <Gold.Chemscore.Hbonds>
donor molecule, donor type, donor heavy atom, donor atom, acceptor molecule, acceptor atom, score
      P1  H  6931  6943       L1     6  0.56

> <Gold.Chemscore.Hbond.Weighted>
-3.2253

> <Gold.Chemscore.Metal.Weighted>
-0.0000

> <Gold.Chemscore.Lipo.Weighted>
-17.0978

> <Gold.Chemscore.Internal_Hbond.Weighted>
0.0000

> <Gold.Chemscore.DEClash.Weighted>
0.2088

> <Gold.Chemscore.DEInternal.Weighted>
1.1691

> <Gold.Chemscore.Rot.Weighted>
6.7096

> <Gold.Chemscore.Internal.Correction.Weighted>
   9.000000E+99

> <Gold.Protein.RotatedTorsions>
[ 6907 6896 6895 6894 ] final  -26.76 input  -60.11 | X-H torsion
[ 7974 7965 7964 7962 ] final -160.05 input  175.53 | X-H torsion
[ 8008 7997 7996 7995 ] final    9.76 input   59.86 | X-H torsion
[ 10167 10162 10161 10158 ] final    6.97 input  -65.29 | X-H torsion
[ 10718 10713 10712 10709 ] final  -61.56 input   66.30 | X-H torsion
[ 10763 10752 10751 10750 ] final  -11.91 input  -60.55 | X-H torsion
[ 11005 11000 10999 10996 ] final  -45.29 input  -57.11 | X-H torsion

> <Gold.Protein.ActiveResidues>
 VAL166  LYS551  ARG553  GLY616  TRP617  ASP618  TYR619  PRO620  LYS621  CYS622 
 ASP623  PHE694  ASN695  SER759  ASP760  ASP761  ALA762  ILE779  LEU786  VAL792 
 PHE793  MET794  SER795  GLU796  ALA797  LYS798  CYS799  TRP800  GLU811  SER814 

> <Gold.Protein.RotatedAtoms>
  151.1565  135.0252  159.8691 H   0  0  0  0  0  0  0  0  0  0  0  0  # atno 6907 bound_to 6896
  152.5452  134.1329  159.8456 H   0  0  0  0  0  0  0  0  0  0  0  0  # atno 6908 bound_to 6896
  151.1419  133.4919  159.2629 H   0  0  0  0  0  0  0  0  0  0  0  0  # atno 6909 bound_to 6896
  144.7442  140.3597  143.6098 H   0  0  0  0  0  0  0  0  0  0  0  0  # atno 7974 bound_to 7965
  154.7844  140.2824  155.6039 H   0  0  0  0  0  0  0  0  0  0  0  0  # atno 8008 bound_to 7997
  156.2955  140.2617  156.2605 H   0  0  0  0  0  0  0  0  0  0  0  0  # atno 8009 bound_to 7997
  154.9745  140.0375  157.2239 H   0  0  0  0  0  0  0  0  0  0  0  0  # atno 8010 bound_to 7997
  140.6398  143.7800  150.7412 H   0  0  0  0  0  0  0  0  0  0  0  0  # atno 10167 bound_to 10162
  156.0914  130.4199  150.1011 H   0  0  0  0  0  0  0  0  0  0  0  0  # atno 10718 bound_to 10713
  153.4908  135.7017  153.5885 H   0  0  0  0  0  0  0  0  0  0  0  0  # atno 10763 bound_to 10752
  153.4059  135.3860  155.2018 H   0  0  0  0  0  0  0  0  0  0  0  0  # atno 10764 bound_to 10752
  154.8717  135.3893  154.4368 H   0  0  0  0  0  0  0  0  0  0  0  0  # atno 10765 bound_to 10752
  141.0506  133.6744  156.2992 H   0  0  0  0  0  0  0  0  0  0  0  0  # atno 11005 bound_to 11000
  145.7190  139.1704  143.2495 LP  0  0  0  0  0  0  0  0  0  0  0  0  # atno 17320 bound_to 7965
  146.1291  140.7209  142.9420 LP  0  0  0  0  0  0  0  0  0  0  0  0  # atno 17321 bound_to 7965
  140.1429  143.4425  152.2181 LP  0  0  0  0  0  0  0  0  0  0  0  0  # atno 17342 bound_to 10162
  139.5608  144.7404  151.4162 LP  0  0  0  0  0  0  0  0  0  0  0  0  # atno 17343 bound_to 10162
  156.9020  130.9623  151.3575 LP  0  0  0  0  0  0  0  0  0  0  0  0  # atno 17370 bound_to 10713
  157.6063  130.8550  149.8881 LP  0  0  0  0  0  0  0  0  0  0  0  0  # atno 17371 bound_to 10713
  140.6063  134.5504  157.5526 LP  0  0  0  0  0  0  0  0  0  0  0  0  # atno 17394 bound_to 11000
  139.9347  134.7897  156.0835 LP  0  0  0  0  0  0  0  0  0  0  0  0  # atno 17395 bound_to 11000

$$$$
