AV-unprocessed.smi:263|AV-procd|sdf|2005|dock1
  -GOLD-   2262021203D 1   1.00000     0.00000
 Structure written by MMmdl.
 57 61  0  0  0  0  0  0  0  0  1 V2000
  149.5618  141.1285  153.3215 O   0  0  0  0  0  0  0  0  0  0  0  0
  148.9017  140.6392  154.4761 C   0  0  0  0  0  0  0  0  0  0  0  0
  147.3780  140.6509  154.1956 C   0  0  0  0  0  0  0  0  0  0  0  0
  146.8770  139.4286  153.5859 N   0  0  0  0  0  0  0  0  0  0  0  0
  146.8826  139.1146  152.2455 C   0  0  0  0  0  0  0  0  0  0  0  0
  146.3717  137.9524  151.9440 N   0  0  0  0  0  0  0  0  0  0  0  0
  145.9981  137.4166  153.1711 C   0  0  0  0  0  0  0  0  0  0  0  0
  145.3875  136.1956  153.5748 C   0  0  0  0  0  0  0  0  0  0  0  0
  145.0468  135.2207  152.6944 N   0  0  0  0  0  0  0  0  0  0  0  0
  143.6423  135.2304  152.2908 C   0  0  0  0  0  0  0  0  0  0  0  0
  143.2419  133.8869  151.6572 C   0  0  0  0  0  0  0  0  0  0  0  0
  144.1903  133.4789  150.5047 C   0  0  2  0  0  0  0  0  0  0  0  0
  143.9940  134.4011  149.4475 O   0  0  0  0  0  0  0  0  0  0  0  0
  143.8509  132.0870  149.9209 C   0  0  0  0  0  0  0  0  0  0  0  0
  144.2450  130.9307  150.8545 C   0  0  0  0  0  0  0  0  0  0  0  0
  145.7270  131.0158  151.2438 C   0  0  0  0  0  0  0  0  0  0  0  0
  146.0544  132.3727  151.8831 C   0  0  0  0  0  0  0  0  0  0  0  0
  145.6749  133.5516  150.9591 C   0  0  2  0  0  0  0  0  0  0  0  0
  145.9961  134.9075  151.6246 C   0  0  0  0  0  0  0  0  0  0  0  0
  145.1516  136.0246  154.9036 N   0  0  0  0  0  0  0  0  0  0  0  0
  145.4986  136.9728  155.7788 C   0  0  0  0  0  0  0  0  0  0  0  0
  146.0809  138.1505  155.5463 N   0  0  0  0  0  0  0  0  0  0  0  0
  146.3086  138.3343  154.2143 C   0  0  0  0  0  0  0  0  0  0  0  0
  149.4407  139.2236  154.7768 C   0  0  0  0  0  0  0  0  0  0  0  0
  150.9024  139.2512  155.2576 C   0  0  0  0  0  0  0  0  0  0  0  0
  151.0313  140.1076  156.3859 O   0  0  0  0  0  0  0  0  0  0  0  0
  150.7113  141.4605  156.0854 C   0  0  0  0  0  0  0  0  0  0  0  0
  149.2364  141.5695  155.6595 C   0  0  0  0  0  0  0  0  0  0  0  0
  149.7099  140.4067  152.7298 H   0  0  0  0  0  0  0  0  0  0  0  0
  146.8307  140.8072  155.1263 H   0  0  0  0  0  0  0  0  0  0  0  0
  147.1164  141.4892  153.5482 H   0  0  0  0  0  0  0  0  0  0  0  0
  147.2733  139.7830  151.4921 H   0  0  0  0  0  0  0  0  0  0  0  0
  142.9852  135.4366  153.1347 H   0  0  0  0  0  0  0  0  0  0  0  0
  143.4907  136.0412  151.5771 H   0  0  0  0  0  0  0  0  0  0  0  0
  143.2504  133.1260  152.4374 H   0  0  0  0  0  0  0  0  0  0  0  0
  142.2119  133.9394  151.3021 H   0  0  0  0  0  0  0  0  0  0  0  0
  144.7262  134.3374  148.8537 H   0  0  0  0  0  0  0  0  0  0  0  0
  142.7879  132.0248  149.6838 H   0  0  0  0  0  0  0  0  0  0  0  0
  144.3781  131.9525  148.9748 H   0  0  0  0  0  0  0  0  0  0  0  0
  143.6256  130.9421  151.7513 H   0  0  0  0  0  0  0  0  0  0  0  0
  144.0482  129.9781  150.3619 H   0  0  0  0  0  0  0  0  0  0  0  0
  145.9757  130.2104  151.9355 H   0  0  0  0  0  0  0  0  0  0  0  0
  146.3481  130.8669  150.3597 H   0  0  0  0  0  0  0  0  0  0  0  0
  145.5322  132.4559  152.8367 H   0  0  0  0  0  0  0  0  0  0  0  0
  147.1186  132.4147  152.1170 H   0  0  0  0  0  0  0  0  0  0  0  0
  146.3062  133.4655  150.0733 H   0  0  0  0  0  0  0  0  0  0  0  0
  145.9591  135.7027  150.8784 H   0  0  0  0  0  0  0  0  0  0  0  0
  147.0143  134.8896  152.0160 H   0  0  0  0  0  0  0  0  0  0  0  0
  145.2780  136.7564  156.8136 H   0  0  0  0  0  0  0  0  0  0  0  0
  148.8281  138.7624  155.5525 H   0  0  0  0  0  0  0  0  0  0  0  0
  149.3596  138.5819  153.8986 H   0  0  0  0  0  0  0  0  0  0  0  0
  151.2187  138.2474  155.5420 H   0  0  0  0  0  0  0  0  0  0  0  0
  151.5717  139.5775  154.4600 H   0  0  0  0  0  0  0  0  0  0  0  0
  150.8871  142.0672  156.9739 H   0  0  0  0  0  0  0  0  0  0  0  0
  151.3759  141.8414  155.3084 H   0  0  0  0  0  0  0  0  0  0  0  0
  148.9927  142.6042  155.4154 H   0  0  0  0  0  0  0  0  0  0  0  0
  148.6130  141.3038  156.5144 H   0  0  0  0  0  0  0  0  0  0  0  0
  1  2  1  0  0  0  0
  1 29  1  0  0  0  0
  2 28  1  0  0  0  0
  2  3  1  0  0  0  0
  2 24  1  0  0  0  0
  3  4  1  0  0  0  0
  3 30  1  0  0  0  0
  3 31  1  0  0  0  0
  4 23  1  0  0  0  0
  4  5  1  0  0  0  0
  5  6  2  0  0  0  0
  5 32  1  0  0  0  0
  6  7  1  0  0  0  0
  7 23  2  0  0  0  0
  7  8  1  0  0  0  0
  8  9  1  0  0  0  0
  8 20  2  0  0  0  0
  9 19  1  0  0  0  0
  9 10  1  0  0  0  0
 10 11  1  0  0  0  0
 10 33  1  0  0  0  0
 10 34  1  0  0  0  0
 11 12  1  0  0  0  0
 11 35  1  0  0  0  0
 11 36  1  0  0  0  0
 12 18  1  0  0  0  0
 12 13  1  0  0  0  0
 12 14  1  0  0  0  0
 13 37  1  0  0  0  0
 14 15  1  0  0  0  0
 14 38  1  0  0  0  0
 14 39  1  0  0  0  0
 15 16  1  0  0  0  0
 15 40  1  0  0  0  0
 15 41  1  0  0  0  0
 16 17  1  0  0  0  0
 16 42  1  0  0  0  0
 16 43  1  0  0  0  0
 17 18  1  0  0  0  0
 17 44  1  0  0  0  0
 17 45  1  0  0  0  0
 18 19  1  0  0  0  0
 18 46  1  0  0  0  0
 19 47  1  0  0  0  0
 19 48  1  0  0  0  0
 20 21  1  0  0  0  0
 21 22  2  0  0  0  0
 21 49  1  0  0  0  0
 22 23  1  0  0  0  0
 24 25  1  0  0  0  0
 24 50  1  0  0  0  0
 24 51  1  0  0  0  0
 25 26  1  0  0  0  0
 25 52  1  0  0  0  0
 25 53  1  0  0  0  0
 26 27  1  0  0  0  0
 27 28  1  0  0  0  0
 27 54  1  0  0  0  0
 27 55  1  0  0  0  0
 28 56  1  0  0  0  0
 28 57  1  0  0  0  0
M  END
> <s_m_source_file>
AV-unprocessed.smi

> <i_m_source_file_index>
263

> <i_lp_mmshare_version>
43012

> <i_f3d_flags>
0

> <s_epik_input>
W0NIMl0xW0NIMl1PW0NIMl1bQ0gyXUMxKFtPSF0pW0NIMl1uKFtjSF1uMiljKGMyMyluW2NIXW5jM04oW0NIMl1bQ0gyXTQpW0NIMl1bQ0BASF0oW0NAXTQ1W09IXSlbQ0gyXVtDSDJdW0NIMl1bQ0gyXTU=

> <s_epik_cmdline>
J2VwaWtfcHl0aG9uJywgJy1waCcsICc3LjAnLCAnLXRuJywgJzgnLCAnLW1hJywgJzIwMCcsICctbWV0YWxfYmluZGluZycsICctaW1hZScsICc8aW5maWxlLm1hZT4nLCAnLW9tYWUnLCAnPG91dGZpbGUubWFlPic=

> <r_lp_tautomer_probability>
1

> <r_epik_Ionization_Penalty>
0.00747493

> <r_epik_Ionization_Penalty_Charging>
0

> <r_epik_Ionization_Penalty_Neutral>
0.00747493

> <r_epik_State_Penalty>
0.00549307

> <r_epik_Charging_Adjusted_Penalty>
0.00549307

> <i_epik_Tot_Q>
0

> <i_epik_Tot_abs_Q>
0

> <r_epik_Metal_State_Penalty>
-0

> <b_epik_Metal_Only>
0

> <s_lp_Force_Field>
OPLS_2005

> <r_lp_Energy>
40.0447

> <b_lp_Chiralities_Consistent>
1

> <s_lp_Variant>
AV-unprocessed.smi:263-3

> <Gold.Version>
5.8.1

> <Gold.Id.Protein>
6NUR|6NUR_protein|mol2

> <Gold.PLP.Fitness>
51.7207

> <Gold.PLP.PLP>
-43.1016

> <Gold.PLP.part.hbond>
-4.3647

> <Gold.PLP.part.metal>
0.0000

> <Gold.PLP.part.buried>
-2.8935

> <Gold.PLP.part.nonpolar>
-37.4535

> <Gold.PLP.part.repulsive>
0.4222

> <Gold.PLP.ligand.clash>
0.0000

> <Gold.PLP.ligand.torsion>
1.4248

> <Gold.PLP.Chemscore.Hbond>
2.9357

> <Gold.PLP.Chemscore.CHOScore>
0.7579

> <Gold.PLP.Chemscore.Metal>
0.0000

> <Gold.Chemscore.Hbonds>
donor molecule, donor type, donor heavy atom, donor atom, acceptor molecule, acceptor atom, score
      L1  H     1    29       P1  7957  0.80
      L1  H    13    37       P1  7921  1.00
      P1  H  8011  8017       L1     1  1.00
      L1  C     5    32       P1  7957  0.85

> <Gold.PLP.Chemscore.Internal.Correction>
0.3878

> <Gold.Rescore>
     Score         DG    S(hbond)    S(metal)    S(lipo)     H(rot)  DE(clash)    DE(int)     intcor
     16.86     -19.06       2.09        0.00     113.91       2.62       0.81       1.39       ----

> <Gold.Chemscore.Fitness>
16.8553

> <Gold.Chemscore.DG>
-19.0568

> <Gold.Chemscore.ZeroCoef>
-5.4800

> <Gold.Chemscore.Hbond>
2.0852

> <Gold.Chemscore.Metal>
0.0000

> <Gold.Chemscore.Lipo>
113.9126

> <Gold.Chemscore.Internal_Hbond>
0.0000

> <Gold.Chemscore.DEClash>
0.8139

> <Gold.Chemscore.DEInternal>
1.3876

> <Gold.Chemscore.Rot>
2.6232

> <Gold.Chemscore.Internal.Correction>
   9.000000E+99

> <Gold.Chemscore.Hbonds>
donor molecule, donor type, donor heavy atom, donor atom, acceptor molecule, acceptor atom, score
      L1  H     1    29       P1  7957  0.79
      L1  H    13    37       P1  7921  0.99
      P1  H  8011  8017       L1     1  0.29

> <Gold.Chemscore.Hbond.Weighted>
-6.9645

> <Gold.Chemscore.Metal.Weighted>
-0.0000

> <Gold.Chemscore.Lipo.Weighted>
-13.3278

> <Gold.Chemscore.Internal_Hbond.Weighted>
0.0000

> <Gold.Chemscore.DEClash.Weighted>
0.8139

> <Gold.Chemscore.DEInternal.Weighted>
1.3876

> <Gold.Chemscore.Rot.Weighted>
6.7155

> <Gold.Chemscore.Internal.Correction.Weighted>
   9.000000E+99

> <Gold.Protein.RotatedTorsions>
[ 6907 6896 6895 6894 ] final   50.14 input  -60.11 | X-H torsion
[ 7974 7965 7964 7962 ] final  -41.96 input  175.53 | X-H torsion
[ 8008 7997 7996 7995 ] final  -25.88 input   59.86 | X-H torsion
[ 10167 10162 10161 10158 ] final   62.19 input  -65.29 | X-H torsion
[ 10718 10713 10712 10709 ] final  -46.85 input   66.30 | X-H torsion
[ 10763 10752 10751 10750 ] final  -72.40 input  -60.55 | X-H torsion
[ 11005 11000 10999 10996 ] final  -93.25 input  -57.11 | X-H torsion

> <Gold.Protein.ActiveResidues>
 VAL166  LYS551  ARG553  GLY616  TRP617  ASP618  TYR619  PRO620  LYS621  CYS622 
 ASP623  PHE694  ASN695  SER759  ASP760  ASP761  ALA762  ILE779  LEU786  VAL792 
 PHE793  MET794  SER795  GLU796  ALA797  LYS798  CYS799  TRP800  GLU811  SER814 

> <Gold.Protein.RotatedAtoms>
  152.2985  134.7638  160.0362 H   0  0  0  0  0  0  0  0  0  0  0  0  # atno 6907 bound_to 6896
  151.8159  133.3383  159.3577 H   0  0  0  0  0  0  0  0  0  0  0  0  # atno 6908 bound_to 6896
  150.7263  134.5549  159.5857 H   0  0  0  0  0  0  0  0  0  0  0  0  # atno 6909 bound_to 6896
  146.0161  140.6906  142.9201 H   0  0  0  0  0  0  0  0  0  0  0  0  # atno 7974 bound_to 7965
  154.4453  140.1914  156.0688 H   0  0  0  0  0  0  0  0  0  0  0  0  # atno 8008 bound_to 7997
  156.0527  140.3306  155.7343 H   0  0  0  0  0  0  0  0  0  0  0  0  # atno 8009 bound_to 7997
  155.5532  140.0597  157.2836 H   0  0  0  0  0  0  0  0  0  0  0  0  # atno 8010 bound_to 7997
  140.1466  144.4503  150.6782 H   0  0  0  0  0  0  0  0  0  0  0  0  # atno 10167 bound_to 10162
  156.2142  130.4162  149.9075 H   0  0  0  0  0  0  0  0  0  0  0  0  # atno 10718 bound_to 10713
  154.4451  135.5931  153.6155 H   0  0  0  0  0  0  0  0  0  0  0  0  # atno 10763 bound_to 10752
  152.9808  135.6007  154.3674 H   0  0  0  0  0  0  0  0  0  0  0  0  # atno 10764 bound_to 10752
  154.3529  135.2841  155.2341 H   0  0  0  0  0  0  0  0  0  0  0  0  # atno 10765 bound_to 10752
  141.1502  133.7875  157.0133 H   0  0  0  0  0  0  0  0  0  0  0  0  # atno 11005 bound_to 11000
  144.6971  140.3483  143.7186 LP  0  0  0  0  0  0  0  0  0  0  0  0  # atno 17320 bound_to 7965
  145.7266  139.1724  143.2454 LP  0  0  0  0  0  0  0  0  0  0  0  0  # atno 17321 bound_to 7965
  140.6728  143.2292  151.5582 LP  0  0  0  0  0  0  0  0  0  0  0  0  # atno 17342 bound_to 10162
  139.5446  144.2556  152.1417 LP  0  0  0  0  0  0  0  0  0  0  0  0  # atno 17343 bound_to 10162
  156.6743  130.8833  151.3567 LP  0  0  0  0  0  0  0  0  0  0  0  0  # atno 17370 bound_to 10713
  157.7054  130.9380  150.0916 LP  0  0  0  0  0  0  0  0  0  0  0  0  # atno 17371 bound_to 10713
  140.0863  134.9619  157.1705 LP  0  0  0  0  0  0  0  0  0  0  0  0  # atno 17394 bound_to 11000
  140.3507  134.2602  155.7199 LP  0  0  0  0  0  0  0  0  0  0  0  0  # atno 17395 bound_to 11000

$$$$
