AV-unprocessed.smi:1207|AV-procd|sdf|5053|dock6
  -GOLD-   22720 4 83D 1   1.00000     0.00000
 Structure written by MMmdl.
 52 54  0  0  0  0  0  0  0  0  2 V2000
  153.2214  142.1595  161.8514 C   0  0  0  0  0  0  0  0  0  0  0  0
  152.6444  142.1511  160.4467 C   0  0  0  0  0  0  0  0  0  0  0  0
  152.8982  141.0435  159.6067 C   0  0  0  0  0  0  0  0  0  0  0  0
  152.3797  140.9958  158.2945 C   0  0  0  0  0  0  0  0  0  0  0  0
  152.4944  140.0218  157.3178 N   0  0  0  0  0  0  0  0  0  0  0  0
  151.7926  140.5551  156.3227 C   0  0  0  0  0  0  0  0  0  0  0  0
  151.2290  141.7586  156.5416 N   0  0  0  0  0  0  0  0  0  0  0  0
  150.4158  142.5197  155.6112 C   0  0  0  0  0  0  0  0  0  0  0  0
  149.3268  141.6569  154.9457 C   0  0  2  0  0  0  0  0  0  0  0  0
  148.7202  142.4304  153.9306 O   0  0  0  0  0  0  0  0  0  0  0  0
  148.2322  141.1774  155.9251 C   0  0  0  0  0  0  0  0  0  0  0  0
  147.1416  142.1740  156.0699 N   0  3  2  0  0  0  0  0  0  0  0  0
  146.7411  142.3625  157.4842 C   0  0  0  0  0  0  0  0  0  0  0  0
  145.9858  141.8996  155.1772 C   0  0  0  0  0  0  0  0  0  0  0  0
  144.9531  142.9920  155.2674 C   0  0  0  0  0  0  0  0  0  0  0  0
  143.9863  143.2129  156.2911 C   0  0  0  0  0  0  0  0  0  0  0  0
  143.7415  142.4185  157.5422 C   0  0  0  0  0  0  0  0  0  0  0  0
  143.2368  144.2723  156.0393 N   0  0  0  0  0  0  0  0  0  0  0  0
  143.6928  144.7861  154.8218 O   0  0  0  0  0  0  0  0  0  0  0  0
  144.7118  144.0064  154.3817 C   0  0  0  0  0  0  0  0  0  0  0  0
  145.3349  144.3963  153.0839 C   0  0  0  0  0  0  0  0  0  0  0  0
  151.5954  142.0964  157.8405 C   0  0  0  0  0  0  0  0  0  0  0  0
  151.3368  143.2049  158.6664 C   0  0  0  0  0  0  0  0  0  0  0  0
  151.8614  143.2355  159.9755 C   0  0  0  0  0  0  0  0  0  0  0  0
  151.5773  144.4363  160.8604 C   0  0  0  0  0  0  0  0  0  0  0  0
  153.7695  141.2407  162.0620 H   0  0  0  0  0  0  0  0  0  0  0  0
  152.4271  142.2506  162.5924 H   0  0  0  0  0  0  0  0  0  0  0  0
  153.9097  142.9954  161.9758 H   0  0  0  0  0  0  0  0  0  0  0  0
  153.4948  140.2176  159.9653 H   0  0  0  0  0  0  0  0  0  0  0  0
  151.6752  140.0386  155.3810 H   0  0  0  0  0  0  0  0  0  0  0  0
  149.9705  143.3625  156.1412 H   0  0  0  0  0  0  0  0  0  0  0  0
  151.0772  142.9427  154.8534 H   0  0  0  0  0  0  0  0  0  0  0  0
  149.8093  140.8056  154.4661 H   0  0  0  0  0  0  0  0  0  0  0  0
  148.7457  143.3403  154.1860 H   0  0  0  0  0  0  0  0  0  0  0  0
  147.7938  140.2325  155.6028 H   0  0  0  0  0  0  0  0  0  0  0  0
  148.6967  140.9772  156.8921 H   0  0  0  0  0  0  0  0  0  0  0  0
  146.3003  141.4513  157.8907 H   0  0  0  0  0  0  0  0  0  0  0  0
  146.0150  143.1691  157.5847 H   0  0  0  0  0  0  0  0  0  0  0  0
  147.6024  142.6290  158.0977 H   0  0  0  0  0  0  0  0  0  0  0  0
  146.3269  141.8103  154.1461 H   0  0  0  0  0  0  0  0  0  0  0  0
  145.5639  140.9243  155.4238 H   0  0  0  0  0  0  0  0  0  0  0  0
  144.6644  141.9806  157.9213 H   0  0  0  0  0  0  0  0  0  0  0  0
  143.0401  141.6051  157.3559 H   0  0  0  0  0  0  0  0  0  0  0  0
  143.3256  143.0404  158.3357 H   0  0  0  0  0  0  0  0  0  0  0  0
  146.2110  143.7854  152.8679 H   0  0  0  0  0  0  0  0  0  0  0  0
  145.6503  145.4396  153.1049 H   0  0  0  0  0  0  0  0  0  0  0  0
  144.6272  144.2730  152.2641 H   0  0  0  0  0  0  0  0  0  0  0  0
  150.7387  144.0246  158.2971 H   0  0  0  0  0  0  0  0  0  0  0  0
  150.9722  145.1801  160.3413 H   0  0  0  0  0  0  0  0  0  0  0  0
  152.5081  144.9154  161.1643 H   0  0  0  0  0  0  0  0  0  0  0  0
  151.0362  144.1310  161.7561 H   0  0  0  0  0  0  0  0  0  0  0  0
  147.5383  143.0538  155.7712 H   0  0  0  0  0  0  0  0  0  0  0  0
  1  2  1  0  0  0  0
  1 26  1  0  0  0  0
  1 27  1  0  0  0  0
  1 28  1  0  0  0  0
  2 24  1  0  0  0  0
  2  3  2  0  0  0  0
  3  4  1  0  0  0  0
  3 29  1  0  0  0  0
  4 22  2  0  0  0  0
  4  5  1  0  0  0  0
  5  6  2  0  0  0  0
  6  7  1  0  0  0  0
  6 30  1  0  0  0  0
  7  8  1  0  0  0  0
  7 22  1  0  0  0  0
  8  9  1  0  0  0  0
  8 31  1  0  0  0  0
  8 32  1  0  0  0  0
  9 10  1  0  0  0  0
  9 11  1  0  0  0  0
  9 33  1  0  0  0  0
 10 34  1  0  0  0  0
 11 12  1  0  0  0  0
 11 35  1  0  0  0  0
 11 36  1  0  0  0  0
 12 13  1  0  0  0  0
 12 14  1  0  0  0  0
 12 52  1  0  0  0  0
 13 37  1  0  0  0  0
 13 38  1  0  0  0  0
 13 39  1  0  0  0  0
 14 15  1  0  0  0  0
 14 40  1  0  0  0  0
 14 41  1  0  0  0  0
 15 20  2  0  0  0  0
 15 16  1  0  0  0  0
 16 17  1  0  0  0  0
 16 18  2  0  0  0  0
 17 42  1  0  0  0  0
 17 43  1  0  0  0  0
 17 44  1  0  0  0  0
 18 19  1  0  0  0  0
 19 20  1  0  0  0  0
 20 21  1  0  0  0  0
 21 45  1  0  0  0  0
 21 46  1  0  0  0  0
 21 47  1  0  0  0  0
 22 23  1  0  0  0  0
 23 24  2  0  0  0  0
 23 48  1  0  0  0  0
 24 25  1  0  0  0  0
 25 49  1  0  0  0  0
 25 50  1  0  0  0  0
 25 51  1  0  0  0  0
M  CHG  1  12   1
M  END
> <s_m_source_file>
AV-unprocessed.smi

> <i_m_source_file_index>
1207

> <i_lp_mmshare_version>
43012

> <i_f3d_flags>
0

> <s_epik_input>
W0NIM11jKFtjSF0xKWMoW0NIM10pW2NIXWMoYzEyKW4oW2NIXW4yKVtDSDJdW0NASF0oW09IXSlbQ0gyXU4oW0NIM10pW0NIMl1jM2MoW0NIM10pbm9jM1tDSDNd

> <s_epik_cmdline>
J2VwaWtfcHl0aG9uJywgJy1waCcsICc3LjAnLCAnLXRuJywgJzgnLCAnLW1hJywgJzIwMCcsICctbWV0YWxfYmluZGluZycsICctaW1hZScsICc8aW5maWxlLm1hZT4nLCAnLW9tYWUnLCAnPG91dGZpbGUubWFlPic=

> <r_epik_Ionization_Penalty>
0.646518

> <r_epik_Ionization_Penalty_Charging>
0.559419

> <r_epik_Ionization_Penalty_Neutral>
0.0870981

> <r_epik_State_Penalty>
0.661677

> <r_epik_Charging_Adjusted_Penalty>
1.2211

> <i_epik_Tot_Q>
1

> <i_epik_Tot_abs_Q>
1

> <r_epik_Metal_State_Penalty>
0.649158

> <b_epik_Metal_Only>
0

> <s_lp_Force_Field>
OPLS_2005

> <r_lp_Energy>
8.09653

> <b_lp_Chiralities_Consistent>
1

> <s_lp_Variant>
AV-unprocessed.smi:1207-5

> <Gold.Version>
5.8.1

> <Gold.Id.Protein>
6NUR|6NUR_protein|mol2

> <Gold.PLP.Fitness>
54.9803

> <Gold.PLP.PLP>
-45.2798

> <Gold.PLP.part.hbond>
-4.0000

> <Gold.PLP.part.metal>
0.0000

> <Gold.PLP.part.buried>
-3.1386

> <Gold.PLP.part.nonpolar>
-36.0155

> <Gold.PLP.part.repulsive>
0.1026

> <Gold.PLP.ligand.clash>
0.0000

> <Gold.PLP.ligand.torsion>
1.2761

> <Gold.PLP.Chemscore.Hbond>
3.8770

> <Gold.PLP.Chemscore.CHOScore>
0.0000

> <Gold.PLP.Chemscore.Metal>
0.0000

> <Gold.Chemscore.Hbonds>
donor molecule, donor type, donor heavy atom, donor atom, acceptor molecule, acceptor atom, score
      L1  H    10    34       P1  8028  1.00
      L1  H    12    52       P1  8028  1.43
      P1  H  7997  8008       L1     5  1.00
      P1  H  8011  8017       L1    10  0.18

> <Gold.PLP.Chemscore.Internal.Correction>
0.6217

> <Gold.Rescore>
     Score         DG    S(hbond)    S(metal)    S(lipo)     H(rot)  DE(clash)    DE(int)     intcor
     14.81     -19.20       1.54        0.00     127.13       2.46       2.26       2.13       ----

> <Gold.Chemscore.Fitness>
14.8143

> <Gold.Chemscore.DG>
-19.2017

> <Gold.Chemscore.ZeroCoef>
-5.4800

> <Gold.Chemscore.Hbond>
1.5379

> <Gold.Chemscore.Metal>
0.0000

> <Gold.Chemscore.Lipo>
127.1250

> <Gold.Chemscore.Internal_Hbond>
0.0000

> <Gold.Chemscore.DEClash>
2.2587

> <Gold.Chemscore.DEInternal>
2.1287

> <Gold.Chemscore.Rot>
2.4565

> <Gold.Chemscore.Internal.Correction>
   9.000000E+99

> <Gold.Chemscore.Hbonds>
donor molecule, donor type, donor heavy atom, donor atom, acceptor molecule, acceptor atom, score
      L1  H    10    34       P1  8028  0.92
      L1  H    12    52       P1  8028  0.14
      P1  H  7997  8008       L1     5  0.23
      P1  H  8011  8017       L1    10  0.05

> <Gold.Chemscore.Hbond.Weighted>
-5.1367

> <Gold.Chemscore.Metal.Weighted>
-0.0000

> <Gold.Chemscore.Lipo.Weighted>
-14.8736

> <Gold.Chemscore.Internal_Hbond.Weighted>
0.0000

> <Gold.Chemscore.DEClash.Weighted>
2.2587

> <Gold.Chemscore.DEInternal.Weighted>
2.1287

> <Gold.Chemscore.Rot.Weighted>
6.2887

> <Gold.Chemscore.Internal.Correction.Weighted>
   9.000000E+99

> <Gold.Protein.RotatedTorsions>
[ 6907 6896 6895 6894 ] final  163.44 input  -60.11 | X-H torsion
[ 7974 7965 7964 7962 ] final  166.81 input  175.53 | X-H torsion
[ 8008 7997 7996 7995 ] final  -60.11 input   59.86 | X-H torsion
[ 10167 10162 10161 10158 ] final   75.74 input  -65.29 | X-H torsion
[ 10718 10713 10712 10709 ] final  109.80 input   66.30 | X-H torsion
[ 10763 10752 10751 10750 ] final  144.93 input  -60.55 | X-H torsion
[ 11005 11000 10999 10996 ] final  -64.91 input  -57.11 | X-H torsion

> <Gold.Protein.ActiveResidues>
 VAL166  LYS551  ARG553  GLY616  TRP617  ASP618  TYR619  PRO620  LYS621  CYS622 
 ASP623  PHE694  ASN695  SER759  ASP760  ASP761  ALA762  ILE779  LEU786  VAL792 
 PHE793  MET794  SER795  GLU796  ALA797  LYS798  CYS799  TRP800  GLU811  SER814 

> <Gold.Protein.RotatedAtoms>
  151.9252  133.3596  159.3910 H   0  0  0  0  0  0  0  0  0  0  0  0  # atno 6907 bound_to 6896
  150.7028  134.4594  159.5383 H   0  0  0  0  0  0  0  0  0  0  0  0  # atno 6908 bound_to 6896
  152.2225  134.8399  160.0535 H   0  0  0  0  0  0  0  0  0  0  0  0  # atno 6909 bound_to 6896
  144.7448  139.8670  143.6385 H   0  0  0  0  0  0  0  0  0  0  0  0  # atno 7974 bound_to 7965
  154.4383  140.1047  156.6222 H   0  0  0  0  0  0  0  0  0  0  0  0  # atno 8008 bound_to 7997
  155.5695  140.3489  155.4493 H   0  0  0  0  0  0  0  0  0  0  0  0  # atno 8009 bound_to 7997
  156.0400  140.1280  157.0155 H   0  0  0  0  0  0  0  0  0  0  0  0  # atno 8010 bound_to 7997
  139.9997  144.5695  150.7748 H   0  0  0  0  0  0  0  0  0  0  0  0  # atno 10167 bound_to 10162
  157.6524  131.0920  150.6507 H   0  0  0  0  0  0  0  0  0  0  0  0  # atno 10718 bound_to 10713
  153.9969  135.2927  155.3406 H   0  0  0  0  0  0  0  0  0  0  0  0  # atno 10763 bound_to 10752
  154.7182  135.5120  153.8773 H   0  0  0  0  0  0  0  0  0  0  0  0  # atno 10764 bound_to 10752
  153.0784  135.6671  154.0215 H   0  0  0  0  0  0  0  0  0  0  0  0  # atno 10765 bound_to 10752
  141.1439  133.6673  156.5905 H   0  0  0  0  0  0  0  0  0  0  0  0  # atno 11005 bound_to 11000
  146.1307  139.4342  143.0170 LP  0  0  0  0  0  0  0  0  0  0  0  0  # atno 17320 bound_to 7965
  145.7167  141.0088  143.1424 LP  0  0  0  0  0  0  0  0  0  0  0  0  # atno 17321 bound_to 7965
  140.7423  143.2831  151.3542 LP  0  0  0  0  0  0  0  0  0  0  0  0  # atno 17342 bound_to 10162
  139.6281  144.0775  152.2452 LP  0  0  0  0  0  0  0  0  0  0  0  0  # atno 17343 bound_to 10162
  156.6817  130.4569  149.5626 LP  0  0  0  0  0  0  0  0  0  0  0  0  # atno 17370 bound_to 10713
  156.1924  130.6568  151.1077 LP  0  0  0  0  0  0  0  0  0  0  0  0  # atno 17371 bound_to 10713
  140.3767  134.7559  157.4634 LP  0  0  0  0  0  0  0  0  0  0  0  0  # atno 17394 bound_to 11000
  140.0669  134.5917  155.8685 LP  0  0  0  0  0  0  0  0  0  0  0  0  # atno 17395 bound_to 11000

$$$$
