AV-unprocessed.smi:1950|AV-procd|sdf|7880|dock9
  -GOLD-   2272010 33D 1   1.00000     0.00000
 Structure written by MMmdl.
 32 33  0  0  0  0  0  0  0  0  2 V2000
  152.0425  144.9071  161.4996 C   0  0  0  0  0  0  0  0  0  0  0  0
  152.1442  143.4458  161.0566 C   0  0  0  0  0  0  0  0  0  0  0  0
  151.8769  142.5724  161.8823 O   0  0  0  0  0  0  0  0  0  0  0  0
  152.5196  143.1628  159.7859 N   0  0  0  0  0  0  0  0  0  0  0  0
  152.5778  141.7932  159.2613 C   0  0  0  0  0  0  0  0  0  0  0  0
  151.4511  141.6048  158.2292 C   0  0  0  0  0  0  0  0  0  0  0  0
  151.5363  142.6588  157.1048 C   0  0  0  0  0  0  0  0  0  0  0  0
  150.3580  142.5579  156.2476 N   0  0  0  0  0  0  0  0  0  0  0  0
  150.0780  141.5538  155.4040 C   0  0  0  0  0  0  0  0  0  0  0  0
  150.8565  140.6033  155.2974 O   0  0  0  0  0  0  0  0  0  0  0  0
  148.9125  141.7129  154.7361 N   0  5  0  0  0  0  0  0  0  0  0  0
  148.3242  140.6571  154.1497 C   0  0  0  0  0  0  0  0  0  0  0  0
  148.6255  139.3916  154.4820 N   0  0  0  0  0  0  0  0  0  0  0  0
  147.9100  138.4506  153.7541 N   0  0  0  0  0  0  0  0  0  0  0  0
  147.0879  139.0335  152.8821 C   0  0  0  0  0  0  0  0  0  0  0  0
  147.1169  140.7841  152.8673 S   0  0  0  0  0  0  0  0  0  0  0  0
  151.6721  144.0859  157.6834 C   0  0  0  0  0  0  0  0  0  0  0  0
  152.7904  144.1557  158.7383 C   0  0  0  0  0  0  0  0  0  0  0  0
  151.3315  145.4520  160.8781 H   0  0  0  0  0  0  0  0  0  0  0  0
  153.0149  145.3968  161.4405 H   0  0  0  0  0  0  0  0  0  0  0  0
  151.6992  144.9723  162.5326 H   0  0  0  0  0  0  0  0  0  0  0  0
  153.5482  141.6272  158.7913 H   0  0  0  0  0  0  0  0  0  0  0  0
  152.4934  141.0368  160.0426 H   0  0  0  0  0  0  0  0  0  0  0  0
  151.4989  140.6013  157.8050 H   0  0  0  0  0  0  0  0  0  0  0  0
  150.4875  141.6808  158.7358 H   0  0  0  0  0  0  0  0  0  0  0  0
  152.4278  142.4387  156.5146 H   0  0  0  0  0  0  0  0  0  0  0  0
  149.6925  143.3150  156.2990 H   0  0  0  0  0  0  0  0  0  0  0  0
  146.4638  138.4290  152.2413 H   0  0  0  0  0  0  0  0  0  0  0  0
  151.8735  144.7991  156.8834 H   0  0  0  0  0  0  0  0  0  0  0  0
  150.7291  144.3920  158.1392 H   0  0  0  0  0  0  0  0  0  0  0  0
  152.8811  145.1741  159.1128 H   0  0  0  0  0  0  0  0  0  0  0  0
  153.7517  143.9314  158.2739 H   0  0  0  0  0  0  0  0  0  0  0  0
  1  2  1  0  0  0  0
  1 19  1  0  0  0  0
  1 20  1  0  0  0  0
  1 21  1  0  0  0  0
  2  3  2  0  0  0  0
  2  4  1  0  0  0  0
  4 18  1  0  0  0  0
  4  5  1  0  0  0  0
  5  6  1  0  0  0  0
  5 22  1  0  0  0  0
  5 23  1  0  0  0  0
  6  7  1  0  0  0  0
  6 24  1  0  0  0  0
  6 25  1  0  0  0  0
  7  8  1  0  0  0  0
  7 17  1  0  0  0  0
  7 26  1  0  0  0  0
  8  9  1  0  0  0  0
  8 27  1  0  0  0  0
  9 10  2  0  0  0  0
  9 11  1  0  0  0  0
 11 12  1  0  0  0  0
 12 16  1  0  0  0  0
 12 13  2  0  0  0  0
 13 14  1  0  0  0  0
 14 15  2  0  0  0  0
 15 16  1  0  0  0  0
 15 28  1  0  0  0  0
 17 18  1  0  0  0  0
 17 29  1  0  0  0  0
 17 30  1  0  0  0  0
 18 31  1  0  0  0  0
 18 32  1  0  0  0  0
M  CHG  1  11  -1
M  END
> <s_m_source_file>
AV-unprocessed.smi

> <i_m_source_file_index>
1950

> <i_lp_mmshare_version>
43012

> <i_f3d_flags>
0

> <s_epik_input>
W0NIM11DKD1PKU4xW0NIMl1bQ0gyXVtDSF0oW0NIMl1bQ0gyXTEpW05IXUMoPU8pW05IXWMybm5bY0hdczI=

> <s_epik_cmdline>
J2VwaWtfcHl0aG9uJywgJy1waCcsICc3LjAnLCAnLXRuJywgJzgnLCAnLW1hJywgJzIwMCcsICctbWV0YWxfYmluZGluZycsICctaW1hZScsICc8aW5maWxlLm1hZT4nLCAnLW9tYWUnLCAnPG91dGZpbGUubWFlPic=

> <r_lp_tautomer_probability>
1

> <r_epik_Ionization_Penalty>
3.45176

> <r_epik_Ionization_Penalty_Charging>
3.40771

> <r_epik_Ionization_Penalty_Neutral>
0.0440522

> <r_epik_State_Penalty>
3.40583

> <r_epik_Charging_Adjusted_Penalty>
6.81354

> <i_epik_Tot_Q>
-1

> <i_epik_Tot_abs_Q>
1

> <r_epik_Metal_State_Penalty>
0.49593

> <b_epik_Metal_Only>
1

> <s_lp_Force_Field>
OPLS_2005

> <r_lp_Energy>
20.3266

> <b_lp_Chiralities_Consistent>
1

> <s_lp_Variant>
AV-unprocessed.smi:1950-2

> <Gold.Version>
5.8.1

> <Gold.Id.Protein>
6NUR|6NUR_protein|mol2

> <Gold.PLP.Fitness>
44.7154

> <Gold.PLP.PLP>
-36.9469

> <Gold.PLP.part.hbond>
-3.0000

> <Gold.PLP.part.metal>
0.0000

> <Gold.PLP.part.buried>
-2.7131

> <Gold.PLP.part.nonpolar>
-31.5916

> <Gold.PLP.part.repulsive>
0.8827

> <Gold.PLP.ligand.clash>
0.0000

> <Gold.PLP.ligand.torsion>
0.2769

> <Gold.PLP.Chemscore.Hbond>
2.7687

> <Gold.PLP.Chemscore.CHOScore>
0.0000

> <Gold.PLP.Chemscore.Metal>
0.0000

> <Gold.Chemscore.Hbonds>
donor molecule, donor type, donor heavy atom, donor atom, acceptor molecule, acceptor atom, score
      L1  H     8    27       P1  8028  1.00
      P1  H  6933  6945       L1     3  0.82
      P1  H  7989  7998       L1    10  0.93

> <Gold.PLP.Chemscore.Internal.Correction>
0.0162

> <Gold.Rescore>
     Score         DG    S(hbond)    S(metal)    S(lipo)     H(rot)  DE(clash)    DE(int)     intcor
     16.81     -20.26       2.35        0.00      81.16       1.00       1.61       1.85       ----

> <Gold.Chemscore.Fitness>
16.8057

> <Gold.Chemscore.DG>
-20.2634

> <Gold.Chemscore.ZeroCoef>
-5.4800

> <Gold.Chemscore.Hbond>
2.3497

> <Gold.Chemscore.Metal>
0.0000

> <Gold.Chemscore.Lipo>
81.1582

> <Gold.Chemscore.Internal_Hbond>
0.0000

> <Gold.Chemscore.DEClash>
1.6090

> <Gold.Chemscore.DEInternal>
1.8487

> <Gold.Chemscore.Rot>
1.0000

> <Gold.Chemscore.Internal.Correction>
   9.000000E+99

> <Gold.Chemscore.Hbonds>
donor molecule, donor type, donor heavy atom, donor atom, acceptor molecule, acceptor atom, score
      L1  H     8    27       P1  8028  0.97
      P1  H  6933  6945       L1     3  0.76
      P1  H  7989  7998       L1    10  0.31

> <Gold.Chemscore.Hbond.Weighted>
-7.8479

> <Gold.Chemscore.Metal.Weighted>
-0.0000

> <Gold.Chemscore.Lipo.Weighted>
-9.4955

> <Gold.Chemscore.Internal_Hbond.Weighted>
0.0000

> <Gold.Chemscore.DEClash.Weighted>
1.6090

> <Gold.Chemscore.DEInternal.Weighted>
1.8487

> <Gold.Chemscore.Rot.Weighted>
2.5600

> <Gold.Chemscore.Internal.Correction.Weighted>
   9.000000E+99

> <Gold.Protein.RotatedTorsions>
[ 6907 6896 6895 6894 ] final   30.68 input  -60.11 | X-H torsion
[ 7974 7965 7964 7962 ] final  167.60 input  175.53 | X-H torsion
[ 8008 7997 7996 7995 ] final  176.05 input   59.86 | X-H torsion
[ 10167 10162 10161 10158 ] final   10.70 input  -65.29 | X-H torsion
[ 10718 10713 10712 10709 ] final    0.07 input   66.30 | X-H torsion
[ 10763 10752 10751 10750 ] final   -8.42 input  -60.55 | X-H torsion
[ 11005 11000 10999 10996 ] final  -55.61 input  -57.11 | X-H torsion

> <Gold.Protein.ActiveResidues>
 VAL166  LYS551  ARG553  GLY616  TRP617  ASP618  TYR619  PRO620  LYS621  CYS622 
 ASP623  PHE694  ASN695  SER759  ASP760  ASP761  ALA762  ILE779  LEU786  VAL792 
 PHE793  MET794  SER795  GLU796  ALA797  LYS798  CYS799  TRP800  GLU811  SER814 

> <Gold.Protein.RotatedAtoms>
  152.0494  134.9663  160.0574 H   0  0  0  0  0  0  0  0  0  0  0  0  # atno 6907 bound_to 6896
  152.1070  133.4275  159.4621 H   0  0  0  0  0  0  0  0  0  0  0  0  # atno 6908 bound_to 6896
  150.6841  134.2612  159.4593 H   0  0  0  0  0  0  0  0  0  0  0  0  # atno 6909 bound_to 6896
  144.7419  139.8784  143.6394 H   0  0  0  0  0  0  0  0  0  0  0  0  # atno 7974 bound_to 7965
  156.0806  140.1393  156.9717 H   0  0  0  0  0  0  0  0  0  0  0  0  # atno 8008 bound_to 7997
  154.4583  140.0953  156.6870 H   0  0  0  0  0  0  0  0  0  0  0  0  # atno 8009 bound_to 7997
  155.5081  140.3453  155.4385 H   0  0  0  0  0  0  0  0  0  0  0  0  # atno 8010 bound_to 7997
  140.6178  143.8270  150.7139 H   0  0  0  0  0  0  0  0  0  0  0  0  # atno 10167 bound_to 10162
  156.8279  130.5478  149.5690 H   0  0  0  0  0  0  0  0  0  0  0  0  # atno 10718 bound_to 10713
  153.4403  135.7013  153.6173 H   0  0  0  0  0  0  0  0  0  0  0  0  # atno 10763 bound_to 10752
  153.4551  135.3749  155.2306 H   0  0  0  0  0  0  0  0  0  0  0  0  # atno 10764 bound_to 10752
  154.8727  135.4006  154.3800 H   0  0  0  0  0  0  0  0  0  0  0  0  # atno 10765 bound_to 10752
  141.1082  133.6612  156.4496 H   0  0  0  0  0  0  0  0  0  0  0  0  # atno 11005 bound_to 11000
  146.1229  139.4250  143.0217 LP  0  0  0  0  0  0  0  0  0  0  0  0  # atno 17320 bound_to 7965
  145.7278  141.0053  143.1368 LP  0  0  0  0  0  0  0  0  0  0  0  0  # atno 17321 bound_to 7965
  140.1853  143.4081  152.1903 LP  0  0  0  0  0  0  0  0  0  0  0  0  # atno 17342 bound_to 10162
  139.5413  144.7259  151.4725 LP  0  0  0  0  0  0  0  0  0  0  0  0  # atno 17343 bound_to 10162
  156.0951  130.5926  150.9800 LP  0  0  0  0  0  0  0  0  0  0  0  0  # atno 17370 bound_to 10713
  157.6422  131.0908  150.8227 LP  0  0  0  0  0  0  0  0  0  0  0  0  # atno 17371 bound_to 10713
  140.4846  134.6632  157.5185 LP  0  0  0  0  0  0  0  0  0  0  0  0  # atno 17394 bound_to 11000
  139.9962  134.6907  155.9605 LP  0  0  0  0  0  0  0  0  0  0  0  0  # atno 17395 bound_to 11000

$$$$
