AV-unprocessed.smi:1580|AV-procd|sdf|6358|dock7
  -GOLD-   22720 6583D 1   1.00000     0.00000
 Structure written by MMmdl.
 37 38  0  0  0  0  0  0  0  0  1 V2000
  153.7797  138.6276  160.6083 C   0  0  0  0  0  0  0  0  0  0  0  0
  154.5619  140.1450  159.9246 S   0  0  0  0  0  0  0  0  0  0  0  0
  154.8286  141.0595  161.0459 O   0  0  0  0  0  0  0  0  0  0  0  0
  155.6653  139.7379  159.0408 O   0  0  0  0  0  0  0  0  0  0  0  0
  153.2761  140.8621  158.9080 C   0  0  0  0  0  0  0  0  0  0  0  0
  152.7745  142.1469  159.1957 C   0  0  0  0  0  0  0  0  0  0  0  0
  151.7286  142.6461  158.3965 C   0  0  0  0  0  0  0  0  0  0  0  0
  151.2228  141.8400  157.3461 C   0  0  0  0  0  0  0  0  0  0  0  0
  150.1627  142.2149  156.4746 N   0  0  0  0  0  0  0  0  0  0  0  0
  149.3784  141.4392  155.7060 C   0  0  0  0  0  0  0  0  0  0  0  0
  149.4278  140.2115  155.6409 O   0  0  0  0  0  0  0  0  0  0  0  0
  148.5045  142.1778  155.0082 N   0  0  0  0  0  0  0  0  0  0  0  0
  147.5153  141.6451  154.0781 C   0  0  0  0  0  0  0  0  0  0  0  0
  146.0963  142.1386  154.4068 C   0  0  2  0  0  0  0  0  0  0  0  0
  145.7721  143.5070  153.8101 C   0  0  0  0  0  0  0  0  0  0  0  0
  144.6942  144.0009  154.7471 C   0  0  0  0  0  0  0  0  0  0  0  0
  145.1999  143.4929  156.0938 C   0  0  0  0  0  0  0  0  0  0  0  0
  145.9334  142.3027  155.8143 O   0  0  0  0  0  0  0  0  0  0  0  0
  151.7908  140.5597  157.1682 C   0  0  0  0  0  0  0  0  0  0  0  0
  152.7916  140.0692  157.9293 N   0  0  0  0  0  0  0  0  0  0  0  0
  154.4920  138.1093  161.2495 H   0  0  0  0  0  0  0  0  0  0  0  0
  153.4828  137.9713  159.7903 H   0  0  0  0  0  0  0  0  0  0  0  0
  152.9005  138.9031  161.1901 H   0  0  0  0  0  0  0  0  0  0  0  0
  153.1732  142.7372  160.0073 H   0  0  0  0  0  0  0  0  0  0  0  0
  151.3347  143.6245  158.6193 H   0  0  0  0  0  0  0  0  0  0  0  0
  149.9567  143.2029  156.4521 H   0  0  0  0  0  0  0  0  0  0  0  0
  148.5232  143.1801  155.1265 H   0  0  0  0  0  0  0  0  0  0  0  0
  147.7930  141.9499  153.0687 H   0  0  0  0  0  0  0  0  0  0  0  0
  147.5487  140.5544  154.0922 H   0  0  0  0  0  0  0  0  0  0  0  0
  145.3487  141.4214  154.0637 H   0  0  0  0  0  0  0  0  0  0  0  0
  146.6397  144.1666  153.8608 H   0  0  0  0  0  0  0  0  0  0  0  0
  145.4447  143.4512  152.7715 H   0  0  0  0  0  0  0  0  0  0  0  0
  144.5626  145.0831  154.7203 H   0  0  0  0  0  0  0  0  0  0  0  0
  143.7405  143.5322  154.5012 H   0  0  0  0  0  0  0  0  0  0  0  0
  145.8789  144.2185  156.5433 H   0  0  0  0  0  0  0  0  0  0  0  0
  144.3892  143.3066  156.7987 H   0  0  0  0  0  0  0  0  0  0  0  0
  151.4288  139.9038  156.3899 H   0  0  0  0  0  0  0  0  0  0  0  0
  1  2  1  0  0  0  0
  1 21  1  0  0  0  0
  1 22  1  0  0  0  0
  1 23  1  0  0  0  0
  2  3  2  0  0  0  0
  2  4  2  0  0  0  0
  2  5  1  0  0  0  0
  5 20  1  0  0  0  0
  5  6  2  0  0  0  0
  6  7  1  0  0  0  0
  6 24  1  0  0  0  0
  7  8  2  0  0  0  0
  7 25  1  0  0  0  0
  8  9  1  0  0  0  0
  8 19  1  0  0  0  0
  9 10  1  0  0  0  0
  9 26  1  0  0  0  0
 10 11  2  0  0  0  0
 10 12  1  0  0  0  0
 12 13  1  0  0  0  0
 12 27  1  0  0  0  0
 13 14  1  0  0  0  0
 13 28  1  0  0  0  0
 13 29  1  0  0  0  0
 14 18  1  0  0  0  0
 14 15  1  0  0  0  0
 14 30  1  0  0  0  0
 15 16  1  0  0  0  0
 15 31  1  0  0  0  0
 15 32  1  0  0  0  0
 16 17  1  0  0  0  0
 16 33  1  0  0  0  0
 16 34  1  0  0  0  0
 17 18  1  0  0  0  0
 17 35  1  0  0  0  0
 17 36  1  0  0  0  0
 19 20  2  0  0  0  0
 19 37  1  0  0  0  0
M  END
> <s_m_source_file>
AV-unprocessed.smi

> <i_m_source_file_index>
1580

> <i_lp_mmshare_version>
43012

> <i_f3d_flags>
0

> <s_epik_input>
W0NIM11TKD1PKSg9TyljMVtjSF1bY0hdYyhbY0hdbjEpW05IXUMoPU8pW05IXVtDSDJdW0NAQEhdMltDSDJdW0NIMl1bQ0gyXU8y

> <s_epik_cmdline>
J2VwaWtfcHl0aG9uJywgJy1waCcsICc3LjAnLCAnLXRuJywgJzgnLCAnLW1hJywgJzIwMCcsICctbWV0YWxfYmluZGluZycsICctaW1hZScsICc8aW5maWxlLm1hZT4nLCAnLW9tYWUnLCAnPG91dGZpbGUubWFlPic=

> <r_lp_tautomer_probability>
1

> <r_epik_Ionization_Penalty>
3.28405e-05

> <r_epik_Ionization_Penalty_Charging>
0

> <r_epik_Ionization_Penalty_Neutral>
3.28405e-05

> <r_epik_State_Penalty>
-0

> <r_epik_Charging_Adjusted_Penalty>
0

> <i_epik_Tot_Q>
0

> <i_epik_Tot_abs_Q>
0

> <r_epik_Metal_State_Penalty>
-0

> <b_epik_Metal_Only>
0

> <s_lp_Force_Field>
OPLS_2005

> <r_lp_Energy>
18.5173

> <b_lp_Chiralities_Consistent>
1

> <s_lp_Variant>
AV-unprocessed.smi:1580-1

> <Gold.Version>
5.8.1

> <Gold.Id.Protein>
6NUR|6NUR_protein|mol2

> <Gold.PLP.Fitness>
45.4010

> <Gold.PLP.PLP>
-37.2574

> <Gold.PLP.part.hbond>
-4.9940

> <Gold.PLP.part.metal>
0.0000

> <Gold.PLP.part.buried>
-5.5702

> <Gold.PLP.part.nonpolar>
-25.7818

> <Gold.PLP.part.repulsive>
0.4864

> <Gold.PLP.ligand.clash>
0.0000

> <Gold.PLP.ligand.torsion>
1.4609

> <Gold.PLP.Chemscore.Hbond>
3.0132

> <Gold.PLP.Chemscore.CHOScore>
0.0000

> <Gold.PLP.Chemscore.Metal>
0.0000

> <Gold.Chemscore.Hbonds>
donor molecule, donor type, donor heavy atom, donor atom, acceptor molecule, acceptor atom, score
      L1  H     9    26       P1  8028  0.98
      L1  H    12    27       P1  8028  1.00
      P1  H  7997  8009       L1     4  1.00
      P1  H  7997  8010       L1    20  0.12

> <Gold.PLP.Chemscore.Internal.Correction>
2.0259

> <Gold.Rescore>
     Score         DG    S(hbond)    S(metal)    S(lipo)     H(rot)  DE(clash)    DE(int)     intcor
     17.11     -19.99       2.90        0.00      69.16       1.27       0.21       2.66       ----

> <Gold.Chemscore.Fitness>
17.1102

> <Gold.Chemscore.DG>
-19.9861

> <Gold.Chemscore.ZeroCoef>
-5.4800

> <Gold.Chemscore.Hbond>
2.8958

> <Gold.Chemscore.Metal>
0.0000

> <Gold.Chemscore.Lipo>
69.1588

> <Gold.Chemscore.Internal_Hbond>
0.0000

> <Gold.Chemscore.DEClash>
0.2120

> <Gold.Chemscore.DEInternal>
2.6639

> <Gold.Chemscore.Rot>
1.2725

> <Gold.Chemscore.Internal.Correction>
   9.000000E+99

> <Gold.Chemscore.Hbonds>
donor molecule, donor type, donor heavy atom, donor atom, acceptor molecule, acceptor atom, score
      L1  H     9    26       P1  8028  0.88
      L1  H    12    27       P1  8028  1.00
      P1  H  7997  8009       L1     4  0.94
      P1  H  7997  8010       L1    20  0.01

> <Gold.Chemscore.Hbond.Weighted>
-9.6721

> <Gold.Chemscore.Metal.Weighted>
-0.0000

> <Gold.Chemscore.Lipo.Weighted>
-8.0916

> <Gold.Chemscore.Internal_Hbond.Weighted>
0.0000

> <Gold.Chemscore.DEClash.Weighted>
0.2120

> <Gold.Chemscore.DEInternal.Weighted>
2.6639

> <Gold.Chemscore.Rot.Weighted>
3.2576

> <Gold.Chemscore.Internal.Correction.Weighted>
   9.000000E+99

> <Gold.Protein.RotatedTorsions>
[ 6907 6896 6895 6894 ] final -142.72 input  -60.11 | X-H torsion
[ 7974 7965 7964 7962 ] final  155.25 input  175.53 | X-H torsion
[ 8008 7997 7996 7995 ] final   84.06 input   59.86 | X-H torsion
[ 10167 10162 10161 10158 ] final -164.83 input  -65.29 | X-H torsion
[ 10718 10713 10712 10709 ] final   -2.86 input   66.30 | X-H torsion
[ 10763 10752 10751 10750 ] final  -91.43 input  -60.55 | X-H torsion
[ 11005 11000 10999 10996 ] final   71.96 input  -57.11 | X-H torsion

> <Gold.Protein.ActiveResidues>
 VAL166  LYS551  ARG553  GLY616  TRP617  ASP618  TYR619  PRO620  LYS621  CYS622 
 ASP623  PHE694  ASN695  SER759  ASP760  ASP761  ALA762  ILE779  LEU786  VAL792 
 PHE793  MET794  SER795  GLU796  ALA797  LYS798  CYS799  TRP800  GLU811  SER814 

> <Gold.Protein.RotatedAtoms>
  151.0908  133.5317  159.2614 H   0  0  0  0  0  0  0  0  0  0  0  0  # atno 6907 bound_to 6896
  151.2185  135.0509  159.8950 H   0  0  0  0  0  0  0  0  0  0  0  0  # atno 6908 bound_to 6896
  152.5434  134.0713  159.8249 H   0  0  0  0  0  0  0  0  0  0  0  0  # atno 6909 bound_to 6896
  144.8036  139.7043  143.6171 H   0  0  0  0  0  0  0  0  0  0  0  0  # atno 7974 bound_to 7965
  155.9321  140.3414  155.6258 H   0  0  0  0  0  0  0  0  0  0  0  0  # atno 8008 bound_to 7997
  155.7144  140.0776  157.2376 H   0  0  0  0  0  0  0  0  0  0  0  0  # atno 8009 bound_to 7997
  154.4087  140.1617  156.2320 H   0  0  0  0  0  0  0  0  0  0  0  0  # atno 8010 bound_to 7997
  139.6223  144.0600  152.1944 H   0  0  0  0  0  0  0  0  0  0  0  0  # atno 10167 bound_to 10162
  156.7846  130.5342  149.5745 H   0  0  0  0  0  0  0  0  0  0  0  0  # atno 10718 bound_to 10713
  154.6759  135.5268  153.8199 H   0  0  0  0  0  0  0  0  0  0  0  0  # atno 10763 bound_to 10752
  153.0532  135.6540  154.0651 H   0  0  0  0  0  0  0  0  0  0  0  0  # atno 10764 bound_to 10752
  154.0544  135.2966  155.3315 H   0  0  0  0  0  0  0  0  0  0  0  0  # atno 10765 bound_to 10752
  139.9515  134.7218  156.0850 H   0  0  0  0  0  0  0  0  0  0  0  0  # atno 11005 bound_to 11000
  146.2323  139.5838  142.9547 LP  0  0  0  0  0  0  0  0  0  0  0  0  # atno 17320 bound_to 7965
  145.5491  141.0415  143.2288 LP  0  0  0  0  0  0  0  0  0  0  0  0  # atno 17321 bound_to 7965
  140.0245  144.6128  150.7539 LP  0  0  0  0  0  0  0  0  0  0  0  0  # atno 17342 bound_to 10162
  140.7390  143.2785  151.3669 LP  0  0  0  0  0  0  0  0  0  0  0  0  # atno 17343 bound_to 10162
  156.1196  130.6100  151.0174 LP  0  0  0  0  0  0  0  0  0  0  0  0  # atno 17370 bound_to 10713
  157.6630  131.0877  150.7795 LP  0  0  0  0  0  0  0  0  0  0  0  0  # atno 17371 bound_to 10713
  141.1179  133.6622  156.3141 LP  0  0  0  0  0  0  0  0  0  0  0  0  # atno 17394 bound_to 11000
  140.5707  134.5843  157.5457 LP  0  0  0  0  0  0  0  0  0  0  0  0  # atno 17395 bound_to 11000

$$$$
