AV-unprocessed.smi:1750|AV-procd|sdf|7055|dock10
  -GOLD-   22720 8273D 1   1.00000     0.00000
 Structure written by MMmdl.
 35 36  0  0  0  0  0  0  0  0  2 V2000
  144.0624  145.5105  153.7976 C   0  0  0  0  0  0  0  0  0  0  0  0
  143.8270  145.0620  155.2440 C   0  0  0  0  0  0  0  0  0  0  0  0
  143.8236  143.5342  155.3942 C   0  0  0  0  0  0  0  0  0  0  0  0
  145.1822  142.9397  155.2282 C   0  0  0  0  0  0  0  0  0  0  0  0
  145.7976  142.2541  156.1951 N   0  0  0  0  0  0  0  0  0  0  0  0
  147.0607  141.8280  155.8110 N   0  0  0  0  0  0  0  0  0  0  0  0
  147.3930  142.2181  154.5720 C   0  0  0  0  0  0  0  0  0  0  0  0
  148.5733  141.9088  154.0103 N   0  5  0  0  0  0  0  0  0  0  0  0
  149.5471  141.3372  154.7548 C   0  0  0  0  0  0  0  0  0  0  0  0
  150.1614  140.3026  154.4844 O   0  0  0  0  0  0  0  0  0  0  0  0
  149.8249  142.0018  155.8840 N   0  0  0  0  0  0  0  0  0  0  0  0
  150.8217  141.6055  156.8701 C   0  0  0  0  0  0  0  0  0  0  0  0
  151.0178  142.7128  157.9145 C   0  0  1  0  0  0  0  0  0  0  0  0
  152.0557  142.3772  158.9848 C   0  0  0  0  0  0  0  0  0  0  0  0
  152.5715  143.7378  159.4304 C   0  0  0  0  0  0  0  0  0  0  0  0
  152.0220  144.7094  158.3826 C   0  0  0  0  0  0  0  0  0  0  0  0
  151.5614  143.8829  157.3239 O   0  0  0  0  0  0  0  0  0  0  0  0
  146.1288  143.1444  153.7642 S   0  0  0  0  0  0  0  0  0  0  0  0
  144.0500  146.5979  153.7216 H   0  0  0  0  0  0  0  0  0  0  0  0
  143.2897  145.1214  153.1339 H   0  0  0  0  0  0  0  0  0  0  0  0
  145.0280  145.1619  153.4303 H   0  0  0  0  0  0  0  0  0  0  0  0
  144.6011  145.4900  155.8822 H   0  0  0  0  0  0  0  0  0  0  0  0
  142.8772  145.4657  155.5968 H   0  0  0  0  0  0  0  0  0  0  0  0
  143.4353  143.2540  156.3743 H   0  0  0  0  0  0  0  0  0  0  0  0
  143.1581  143.0864  154.6556 H   0  0  0  0  0  0  0  0  0  0  0  0
  149.3068  142.8480  156.0702 H   0  0  0  0  0  0  0  0  0  0  0  0
  150.4953  140.6913  157.3683 H   0  0  0  0  0  0  0  0  0  0  0  0
  151.7629  141.3813  156.3661 H   0  0  0  0  0  0  0  0  0  0  0  0
  150.0665  142.9615  158.3899 H   0  0  0  0  0  0  0  0  0  0  0  0
  151.6357  141.7928  159.8041 H   0  0  0  0  0  0  0  0  0  0  0  0
  152.8750  141.8031  158.5497 H   0  0  0  0  0  0  0  0  0  0  0  0
  152.2162  144.0003  160.4273 H   0  0  0  0  0  0  0  0  0  0  0  0
  153.6617  143.7468  159.4492 H   0  0  0  0  0  0  0  0  0  0  0  0
  151.1808  145.2742  158.7870 H   0  0  0  0  0  0  0  0  0  0  0  0
  152.7721  145.4192  158.0333 H   0  0  0  0  0  0  0  0  0  0  0  0
  1  2  1  0  0  0  0
  1 19  1  0  0  0  0
  1 20  1  0  0  0  0
  1 21  1  0  0  0  0
  2  3  1  0  0  0  0
  2 22  1  0  0  0  0
  2 23  1  0  0  0  0
  3  4  1  0  0  0  0
  3 24  1  0  0  0  0
  3 25  1  0  0  0  0
  4 18  1  0  0  0  0
  4  5  2  0  0  0  0
  5  6  1  0  0  0  0
  6  7  2  0  0  0  0
  7  8  1  0  0  0  0
  7 18  1  0  0  0  0
  8  9  1  0  0  0  0
  9 10  2  0  0  0  0
  9 11  1  0  0  0  0
 11 12  1  0  0  0  0
 11 26  1  0  0  0  0
 12 13  1  0  0  0  0
 12 27  1  0  0  0  0
 12 28  1  0  0  0  0
 13 17  1  0  0  0  0
 13 14  1  0  0  0  0
 13 29  1  0  0  0  0
 14 15  1  0  0  0  0
 14 30  1  0  0  0  0
 14 31  1  0  0  0  0
 15 16  1  0  0  0  0
 15 32  1  0  0  0  0
 15 33  1  0  0  0  0
 16 17  1  0  0  0  0
 16 34  1  0  0  0  0
 16 35  1  0  0  0  0
M  CHG  1   8  -1
M  END
> <s_m_source_file>
AV-unprocessed.smi

> <i_m_source_file_index>
1750

> <i_lp_mmshare_version>
43012

> <i_f3d_flags>
0

> <s_epik_input>
W0NIM11bQ0gyXVtDSDJdYzFubmMoczEpW05IXUMoPU8pW05IXVtDSDJdW0NAQEhdMltDSDJdW0NIMl1bQ0gyXU8y

> <s_epik_cmdline>
J2VwaWtfcHl0aG9uJywgJy1waCcsICc3LjAnLCAnLXRuJywgJzgnLCAnLW1hJywgJzIwMCcsICctbWV0YWxfYmluZGluZycsICctaW1hZScsICc8aW5maWxlLm1hZT4nLCAnLW9tYWUnLCAnPG91dGZpbGUubWFlPic=

> <r_lp_tautomer_probability>
1

> <r_epik_Ionization_Penalty>
4.22484

> <r_epik_Ionization_Penalty_Charging>
4.21437

> <r_epik_Ionization_Penalty_Neutral>
0.0104685

> <r_epik_State_Penalty>
4.21389

> <r_epik_Charging_Adjusted_Penalty>
8.42826

> <i_epik_Tot_Q>
-1

> <i_epik_Tot_abs_Q>
1

> <r_epik_Metal_State_Penalty>
0.69377

> <b_epik_Metal_Only>
1

> <s_lp_Force_Field>
OPLS_2005

> <r_lp_Energy>
10.9062

> <b_lp_Chiralities_Consistent>
1

> <s_lp_Variant>
AV-unprocessed.smi:1750-4

> <Gold.Version>
5.8.1

> <Gold.Id.Protein>
6NUR|6NUR_protein|mol2

> <Gold.PLP.Fitness>
44.4927

> <Gold.PLP.PLP>
-38.5826

> <Gold.PLP.part.hbond>
-3.0000

> <Gold.PLP.part.metal>
0.0000

> <Gold.PLP.part.buried>
-4.9642

> <Gold.PLP.part.nonpolar>
-31.2041

> <Gold.PLP.part.repulsive>
0.7712

> <Gold.PLP.ligand.clash>
0.0000

> <Gold.PLP.ligand.torsion>
0.5609

> <Gold.PLP.Chemscore.Hbond>
2.3257

> <Gold.PLP.Chemscore.CHOScore>
0.0000

> <Gold.PLP.Chemscore.Metal>
0.0000

> <Gold.Chemscore.Hbonds>
donor molecule, donor type, donor heavy atom, donor atom, acceptor molecule, acceptor atom, score
      L1  H    11    26       P1  8028  1.00
      P1  H  7989  7998       L1    10  1.00
      P1  H  8011  8017       L1     8  0.32

> <Gold.PLP.Chemscore.Internal.Correction>
0.0546

> <Gold.Rescore>
     Score         DG    S(hbond)    S(metal)    S(lipo)     H(rot)  DE(clash)    DE(int)     intcor
     15.40     -16.24       1.64        0.00      79.89       1.59       0.19       0.65       ----

> <Gold.Chemscore.Fitness>
15.3988

> <Gold.Chemscore.DG>
-16.2355

> <Gold.Chemscore.ZeroCoef>
-5.4800

> <Gold.Chemscore.Hbond>
1.6420

> <Gold.Chemscore.Metal>
0.0000

> <Gold.Chemscore.Lipo>
79.8930

> <Gold.Chemscore.Internal_Hbond>
0.0000

> <Gold.Chemscore.DEClash>
0.1880

> <Gold.Chemscore.DEInternal>
0.6487

> <Gold.Chemscore.Rot>
1.5922

> <Gold.Chemscore.Internal.Correction>
   9.000000E+99

> <Gold.Chemscore.Hbonds>
donor molecule, donor type, donor heavy atom, donor atom, acceptor molecule, acceptor atom, score
      L1  H    11    26       P1  8028  0.94
      P1  H  7989  7998       L1    10  0.42
      P1  H  8011  8017       L1     8  0.06

> <Gold.Chemscore.Hbond.Weighted>
-5.4841

> <Gold.Chemscore.Metal.Weighted>
-0.0000

> <Gold.Chemscore.Lipo.Weighted>
-9.3475

> <Gold.Chemscore.Internal_Hbond.Weighted>
0.0000

> <Gold.Chemscore.DEClash.Weighted>
0.1880

> <Gold.Chemscore.DEInternal.Weighted>
0.6487

> <Gold.Chemscore.Rot.Weighted>
4.0761

> <Gold.Chemscore.Internal.Correction.Weighted>
   9.000000E+99

> <Gold.Protein.RotatedTorsions>
[ 6907 6896 6895 6894 ] final -165.38 input  -60.11 | X-H torsion
[ 7974 7965 7964 7962 ] final   37.47 input  175.53 | X-H torsion
[ 8008 7997 7996 7995 ] final -116.31 input   59.86 | X-H torsion
[ 10167 10162 10161 10158 ] final  -41.22 input  -65.29 | X-H torsion
[ 10718 10713 10712 10709 ] final -149.57 input   66.30 | X-H torsion
[ 10763 10752 10751 10750 ] final   74.76 input  -60.55 | X-H torsion
[ 11005 11000 10999 10996 ] final   48.35 input  -57.11 | X-H torsion

> <Gold.Protein.ActiveResidues>
 VAL166  LYS551  ARG553  GLY616  TRP617  ASP618  TYR619  PRO620  LYS621  CYS622 
 ASP623  PHE694  ASN695  SER759  ASP760  ASP761  ALA762  ILE779  LEU786  VAL792 
 PHE793  MET794  SER795  GLU796  ALA797  LYS798  CYS799  TRP800  GLU811  SER814 

> <Gold.Protein.RotatedAtoms>
  151.4268  133.3682  159.2763 H   0  0  0  0  0  0  0  0  0  0  0  0  # atno 6907 bound_to 6896
  150.9254  134.8672  159.7527 H   0  0  0  0  0  0  0  0  0  0  0  0  # atno 6908 bound_to 6896
  152.5002  134.4209  159.9532 H   0  0  0  0  0  0  0  0  0  0  0  0  # atno 6909 bound_to 6896
  146.1135  139.5890  142.9336 H   0  0  0  0  0  0  0  0  0  0  0  0  # atno 7974 bound_to 7965
  155.0658  140.0393  157.2592 H   0  0  0  0  0  0  0  0  0  0  0  0  # atno 8008 bound_to 7997
  154.7023  140.2675  155.6684 H   0  0  0  0  0  0  0  0  0  0  0  0  # atno 8009 bound_to 7997
  156.2764  140.2738  156.1637 H   0  0  0  0  0  0  0  0  0  0  0  0  # atno 8010 bound_to 7997
  140.7010  143.3107  151.3035 H   0  0  0  0  0  0  0  0  0  0  0  0  # atno 10167 bound_to 10162
  156.4349  130.8093  151.2321 H   0  0  0  0  0  0  0  0  0  0  0  0  # atno 10718 bound_to 10713
  153.0609  135.5013  154.8090 H   0  0  0  0  0  0  0  0  0  0  0  0  # atno 10763 bound_to 10752
  154.6880  135.2979  154.9522 H   0  0  0  0  0  0  0  0  0  0  0  0  # atno 10764 bound_to 10752
  154.0286  135.6732  153.4831 H   0  0  0  0  0  0  0  0  0  0  0  0  # atno 10765 bound_to 10752
  140.1198  134.4844  155.8607 H   0  0  0  0  0  0  0  0  0  0  0  0  # atno 11005 bound_to 11000
  145.5614  141.0404  143.2224 LP  0  0  0  0  0  0  0  0  0  0  0  0  # atno 17320 bound_to 7965
  144.7532  139.7140  143.7264 LP  0  0  0  0  0  0  0  0  0  0  0  0  # atno 17321 bound_to 7965
  139.6529  144.0329  152.2639 LP  0  0  0  0  0  0  0  0  0  0  0  0  # atno 17342 bound_to 10162
  139.9871  144.6387  150.7848 LP  0  0  0  0  0  0  0  0  0  0  0  0  # atno 17343 bound_to 10162
  157.7507  131.0186  150.3635 LP  0  0  0  0  0  0  0  0  0  0  0  0  # atno 17370 bound_to 10713
  156.3980  130.3910  149.6980 LP  0  0  0  0  0  0  0  0  0  0  0  0  # atno 17371 bound_to 10713
  141.2149  133.6756  156.6867 LP  0  0  0  0  0  0  0  0  0  0  0  0  # atno 17394 bound_to 11000
  140.2980  134.8187  157.4073 LP  0  0  0  0  0  0  0  0  0  0  0  0  # atno 17395 bound_to 11000

$$$$
