AV-unprocessed.smi:244|AV-procd|sdf|1872|dock5
  -GOLD-   2262020513D 1   1.00000     0.00000
 Structure written by MMmdl.
 56 60  0  0  0  0  0  0  0  0  1 V2000
  150.8880  144.9985  158.9017 C   0  0  0  0  0  0  0  0  0  0  0  0
  151.9095  144.0017  159.1902 N   0  0  0  0  0  0  0  0  0  0  0  0
  152.1798  143.9918  160.6294 C   0  0  0  0  0  0  0  0  0  0  0  0
  153.2779  142.9667  160.9625 C   0  0  0  0  0  0  0  0  0  0  0  0
  152.8564  141.5737  160.4855 C   0  0  2  0  0  0  0  0  0  0  0  0
  153.8919  140.6311  160.7355 O   0  0  0  0  0  0  0  0  0  0  0  0
  153.4898  139.3148  160.3721 C   0  0  0  0  0  0  0  0  0  0  0  0
  153.1734  139.2694  158.8682 C   0  0  0  0  0  0  0  0  0  0  0  0
  152.1835  140.2835  158.5117 N   0  0  0  0  0  0  0  0  0  0  0  0
  151.8039  140.1360  157.2190 C   0  0  0  0  0  0  0  0  0  0  0  0
  152.5986  139.4752  156.3352 N   0  0  0  0  0  0  0  0  0  0  0  0
  152.2029  139.3129  155.0689 C   0  0  0  0  0  0  0  0  0  0  0  0
  151.0686  139.7141  154.4906 N   0  0  0  0  0  0  0  0  0  0  0  0
  150.2640  140.3661  155.3785 C   0  0  0  0  0  0  0  0  0  0  0  0
  150.5524  140.6160  156.7490 C   0  0  0  0  0  0  0  0  0  0  0  0
  149.4999  141.3021  157.3413 N   0  0  0  0  0  0  0  0  0  0  0  0
  148.6357  141.4496  156.3744 C   0  0  0  0  0  0  0  0  0  0  0  0
  149.0156  140.9222  155.1603 N   0  0  0  0  0  0  0  0  0  0  0  0
  148.2488  140.9439  153.9243 C   0  0  0  0  0  0  0  0  0  0  0  0
  147.7962  139.5440  153.4416 C   0  0  0  0  0  0  0  0  0  0  0  0
  148.9623  138.7769  153.1931 O   0  0  0  0  0  0  0  0  0  0  0  0
  146.9367  138.8029  154.4893 C   0  0  0  0  0  0  0  0  0  0  0  0
  146.3246  137.5089  153.9243 C   0  0  0  0  0  0  0  0  0  0  0  0
  145.5796  137.7933  152.7463 O   0  0  0  0  0  0  0  0  0  0  0  0
  146.3865  138.3155  151.6977 C   0  0  0  0  0  0  0  0  0  0  0  0
  147.0011  139.6601  152.1255 C   0  0  0  0  0  0  0  0  0  0  0  0
  152.5502  141.6261  158.9750 C   0  0  1  0  0  0  0  0  0  0  0  0
  151.4472  142.6873  158.7375 C   0  0  0  0  0  0  0  0  0  0  0  0
  151.2174  145.9883  159.2194 H   0  0  0  0  0  0  0  0  0  0  0  0
  149.9521  144.7688  159.4136 H   0  0  0  0  0  0  0  0  0  0  0  0
  150.6890  145.0443  157.8306 H   0  0  0  0  0  0  0  0  0  0  0  0
  152.5004  144.9846  160.9477 H   0  0  0  0  0  0  0  0  0  0  0  0
  151.2675  143.7571  161.1802 H   0  0  0  0  0  0  0  0  0  0  0  0
  154.2158  143.2576  160.4876 H   0  0  0  0  0  0  0  0  0  0  0  0
  153.4619  142.9539  162.0369 H   0  0  0  0  0  0  0  0  0  0  0  0
  151.9628  141.2738  161.0376 H   0  0  0  0  0  0  0  0  0  0  0  0
  154.2953  138.6193  160.6074 H   0  0  0  0  0  0  0  0  0  0  0  0
  152.6234  139.0088  160.9609 H   0  0  0  0  0  0  0  0  0  0  0  0
  154.0853  139.4420  158.2946 H   0  0  0  0  0  0  0  0  0  0  0  0
  152.8133  138.2744  158.6033 H   0  0  0  0  0  0  0  0  0  0  0  0
  152.8928  138.7831  154.4288 H   0  0  0  0  0  0  0  0  0  0  0  0
  147.6914  141.9540  156.5192 H   0  0  0  0  0  0  0  0  0  0  0  0
  147.3800  141.5854  154.0770 H   0  0  0  0  0  0  0  0  0  0  0  0
  148.8531  141.4318  153.1581 H   0  0  0  0  0  0  0  0  0  0  0  0
  148.6996  137.9119  152.9173 H   0  0  0  0  0  0  0  0  0  0  0  0
  147.5208  138.5724  155.3809 H   0  0  0  0  0  0  0  0  0  0  0  0
  146.1258  139.4558  154.8146 H   0  0  0  0  0  0  0  0  0  0  0  0
  147.0974  136.7690  153.7097 H   0  0  0  0  0  0  0  0  0  0  0  0
  145.6573  137.0612  154.6609 H   0  0  0  0  0  0  0  0  0  0  0  0
  147.1607  137.5966  151.4253 H   0  0  0  0  0  0  0  0  0  0  0  0
  145.7634  138.4564  150.8145 H   0  0  0  0  0  0  0  0  0  0  0  0
  146.1929  140.3810  152.2554 H   0  0  0  0  0  0  0  0  0  0  0  0
  147.6340  140.0524  151.3281 H   0  0  0  0  0  0  0  0  0  0  0  0
  153.4553  141.9310  158.4462 H   0  0  0  0  0  0  0  0  0  0  0  0
  150.5302  142.4080  159.2595 H   0  0  0  0  0  0  0  0  0  0  0  0
  151.2015  142.7555  157.6779 H   0  0  0  0  0  0  0  0  0  0  0  0
  1  2  1  0  0  0  0
  1 29  1  0  0  0  0
  1 30  1  0  0  0  0
  1 31  1  0  0  0  0
  2 28  1  0  0  0  0
  2  3  1  0  0  0  0
  3  4  1  0  0  0  0
  3 32  1  0  0  0  0
  3 33  1  0  0  0  0
  4  5  1  0  0  0  0
  4 34  1  0  0  0  0
  4 35  1  0  0  0  0
  5 27  1  0  0  0  0
  5  6  1  0  0  0  0
  5 36  1  0  0  0  0
  6  7  1  0  0  0  0
  7  8  1  0  0  0  0
  7 37  1  0  0  0  0
  7 38  1  0  0  0  0
  8  9  1  0  0  0  0
  8 39  1  0  0  0  0
  8 40  1  0  0  0  0
  9 10  1  0  0  0  0
  9 27  1  0  0  0  0
 10 15  1  0  0  0  0
 10 11  2  0  0  0  0
 11 12  1  0  0  0  0
 12 13  2  0  0  0  0
 12 41  1  0  0  0  0
 13 14  1  0  0  0  0
 14 18  1  0  0  0  0
 14 15  2  0  0  0  0
 15 16  1  0  0  0  0
 16 17  2  0  0  0  0
 17 18  1  0  0  0  0
 17 42  1  0  0  0  0
 18 19  1  0  0  0  0
 19 20  1  0  0  0  0
 19 43  1  0  0  0  0
 19 44  1  0  0  0  0
 20 26  1  0  0  0  0
 20 21  1  0  0  0  0
 20 22  1  0  0  0  0
 21 45  1  0  0  0  0
 22 23  1  0  0  0  0
 22 46  1  0  0  0  0
 22 47  1  0  0  0  0
 23 24  1  0  0  0  0
 23 48  1  0  0  0  0
 23 49  1  0  0  0  0
 24 25  1  0  0  0  0
 25 26  1  0  0  0  0
 25 50  1  0  0  0  0
 25 51  1  0  0  0  0
 26 52  1  0  0  0  0
 26 53  1  0  0  0  0
 27 28  1  0  0  0  0
 27 54  1  0  0  0  0
 28 55  1  0  0  0  0
 28 56  1  0  0  0  0
M  END
> <s_m_source_file>
AV-unprocessed.smi

> <i_m_source_file_index>
244

> <i_lp_mmshare_version>
43012

> <i_f3d_flags>
0

> <s_epik_input>
W0NIMl0xW0NIMl1OKFtDSDNdKVtDSDJdW0NAQEhdKFtDQEhdMTIpTihbQ0gyXVtDSDJdTzIpYyhuW2NIXW4zKWMoYzM0KW5bY0hdbjRbQ0gyXUM1KFtPSF0pW0NIMl1bQ0gyXU9bQ0gyXVtDSDJdNQ==

> <s_epik_cmdline>
J2VwaWtfcHl0aG9uJywgJy1waCcsICc3LjAnLCAnLXRuJywgJzgnLCAnLW1hJywgJzIwMCcsICctbWV0YWxfYmluZGluZycsICctaW1hZScsICc8aW5maWxlLm1hZT4nLCAnLW9tYWUnLCAnPG91dGZpbGUubWFlPic=

> <r_lp_tautomer_probability>
1

> <r_epik_Ionization_Penalty>
2.27765

> <r_epik_Ionization_Penalty_Charging>
0

> <r_epik_Ionization_Penalty_Neutral>
2.27765

> <r_epik_State_Penalty>
2.4114

> <r_epik_Charging_Adjusted_Penalty>
2.4114

> <i_epik_Tot_Q>
0

> <i_epik_Tot_abs_Q>
0

> <r_epik_Metal_State_Penalty>
2.39769

> <b_epik_Metal_Only>
0

> <s_lp_Force_Field>
OPLS_2005

> <r_lp_Energy>
38.8348

> <b_lp_Chiralities_Consistent>
1

> <s_lp_Variant>
AV-unprocessed.smi:244-9

> <Gold.Version>
5.8.1

> <Gold.Id.Protein>
6NUR|6NUR_protein|mol2

> <Gold.PLP.Fitness>
55.4163

> <Gold.PLP.PLP>
-47.2046

> <Gold.PLP.part.hbond>
-3.7898

> <Gold.PLP.part.metal>
0.0000

> <Gold.PLP.part.buried>
-2.2917

> <Gold.PLP.part.nonpolar>
-42.2882

> <Gold.PLP.part.repulsive>
0.4255

> <Gold.PLP.ligand.clash>
0.0198

> <Gold.PLP.ligand.torsion>
0.4612

> <Gold.PLP.Chemscore.Hbond>
3.0000

> <Gold.PLP.Chemscore.CHOScore>
0.0000

> <Gold.PLP.Chemscore.Metal>
0.0000

> <Gold.Chemscore.Hbonds>
donor molecule, donor type, donor heavy atom, donor atom, acceptor molecule, acceptor atom, score
      L1  H    21    45       P1  7948  1.00
      P1  H  7989  7998       L1    13  1.00
      P1  H  7997  8009       L1    11  1.00

> <Gold.PLP.Chemscore.Internal.Correction>
0.1539

> <Gold.Rescore>
     Score         DG    S(hbond)    S(metal)    S(lipo)     H(rot)  DE(clash)    DE(int)     intcor
     15.79     -19.79       1.73        0.00     118.03       2.06       0.96       3.04       ----

> <Gold.Chemscore.Fitness>
15.7919

> <Gold.Chemscore.DG>
-19.7883

> <Gold.Chemscore.ZeroCoef>
-5.4800

> <Gold.Chemscore.Hbond>
1.7292

> <Gold.Chemscore.Metal>
0.0000

> <Gold.Chemscore.Lipo>
118.0291

> <Gold.Chemscore.Internal_Hbond>
0.0000

> <Gold.Chemscore.DEClash>
0.9557

> <Gold.Chemscore.DEInternal>
3.0406

> <Gold.Chemscore.Rot>
2.0611

> <Gold.Chemscore.Internal.Correction>
   9.000000E+99

> <Gold.Chemscore.Hbonds>
donor molecule, donor type, donor heavy atom, donor atom, acceptor molecule, acceptor atom, score
      L1  H    21    45       P1  7948  0.93
      P1  H  7989  7998       L1    13  0.14
      P1  H  7997  8009       L1    11  0.57

> <Gold.Chemscore.Hbond.Weighted>
-5.7754

> <Gold.Chemscore.Metal.Weighted>
-0.0000

> <Gold.Chemscore.Lipo.Weighted>
-13.8094

> <Gold.Chemscore.Internal_Hbond.Weighted>
0.0000

> <Gold.Chemscore.DEClash.Weighted>
0.9557

> <Gold.Chemscore.DEInternal.Weighted>
3.0406

> <Gold.Chemscore.Rot.Weighted>
5.2765

> <Gold.Chemscore.Internal.Correction.Weighted>
   9.000000E+99

> <Gold.Protein.RotatedTorsions>
[ 6907 6896 6895 6894 ] final  122.34 input  -60.11 | X-H torsion
[ 7974 7965 7964 7962 ] final   -8.26 input  175.53 | X-H torsion
[ 8008 7997 7996 7995 ] final -163.87 input   59.86 | X-H torsion
[ 10167 10162 10161 10158 ] final  -92.31 input  -65.29 | X-H torsion
[ 10718 10713 10712 10709 ] final -136.30 input   66.30 | X-H torsion
[ 10763 10752 10751 10750 ] final  105.91 input  -60.55 | X-H torsion
[ 11005 11000 10999 10996 ] final  147.33 input  -57.11 | X-H torsion

> <Gold.Protein.ActiveResidues>
 VAL166  LYS551  ARG553  GLY616  TRP617  ASP618  TYR619  PRO620  LYS621  CYS622 
 ASP623  PHE694  ASN695  SER759  ASP760  ASP761  ALA762  ILE779  LEU786  VAL792 
 PHE793  MET794  SER795  GLU796  ALA797  LYS798  CYS799  TRP800  GLU811  SER814 

> <Gold.Protein.RotatedAtoms>
  152.4251  133.7181  159.6516 H   0  0  0  0  0  0  0  0  0  0  0  0  # atno 6907 bound_to 6896
  150.8127  133.8382  159.3181 H   0  0  0  0  0  0  0  0  0  0  0  0  # atno 6908 bound_to 6896
  151.6087  135.1044  160.0128 H   0  0  0  0  0  0  0  0  0  0  0  0  # atno 6909 bound_to 6896
  146.2285  140.2441  142.8344 H   0  0  0  0  0  0  0  0  0  0  0  0  # atno 7974 bound_to 7965
  155.8275  140.0929  157.1813 H   0  0  0  0  0  0  0  0  0  0  0  0  # atno 8008 bound_to 7997
  154.3979  140.1425  156.3634 H   0  0  0  0  0  0  0  0  0  0  0  0  # atno 8009 bound_to 7997
  155.8201  140.3446  155.5512 H   0  0  0  0  0  0  0  0  0  0  0  0  # atno 8010 bound_to 7997
  140.3361  143.2968  151.9888 H   0  0  0  0  0  0  0  0  0  0  0  0  # atno 10167 bound_to 10162
  156.2755  130.7290  151.1271 H   0  0  0  0  0  0  0  0  0  0  0  0  # atno 10718 bound_to 10713
  153.3857  135.3894  155.1888 H   0  0  0  0  0  0  0  0  0  0  0  0  # atno 10763 bound_to 10752
  154.8713  135.3736  154.4800 H   0  0  0  0  0  0  0  0  0  0  0  0  # atno 10764 bound_to 10752
  153.5282  135.7086  153.5758 H   0  0  0  0  0  0  0  0  0  0  0  0  # atno 10765 bound_to 10752
  140.0867  134.9065  157.1586 H   0  0  0  0  0  0  0  0  0  0  0  0  # atno 11005 bound_to 11000
  144.9462  140.8130  143.5600 LP  0  0  0  0  0  0  0  0  0  0  0  0  # atno 17320 bound_to 7965
  145.2397  139.2078  143.4999 LP  0  0  0  0  0  0  0  0  0  0  0  0  # atno 17321 bound_to 7965
  139.4848  144.6195  151.7281 LP  0  0  0  0  0  0  0  0  0  0  0  0  # atno 17342 bound_to 10162
  140.5353  144.0666  150.6068 LP  0  0  0  0  0  0  0  0  0  0  0  0  # atno 17343 bound_to 10162
  157.7298  131.0621  150.5757 LP  0  0  0  0  0  0  0  0  0  0  0  0  # atno 17370 bound_to 10713
  156.5858  130.4316  149.5957 LP  0  0  0  0  0  0  0  0  0  0  0  0  # atno 17371 bound_to 10713
  140.3410  134.2704  155.7212 LP  0  0  0  0  0  0  0  0  0  0  0  0  # atno 17394 bound_to 11000
  141.2065  133.7832  157.0175 LP  0  0  0  0  0  0  0  0  0  0  0  0  # atno 17395 bound_to 11000

$$$$
