AV-unprocessed.smi:2465|AV-procd|sdf|9722|dock6
  -GOLD-   2272013363D 1   1.00000     0.00000
 Structure written by MMmdl.
 40 41  0  0  0  0  0  0  0  0  1 V2000
  145.2899  135.4342  150.8993 C   0  0  0  0  0  0  0  0  0  0  0  0
  145.1761  133.9256  151.0287 C   0  0  0  0  0  0  0  0  0  0  0  0
  144.0735  133.2555  150.4595 C   0  0  0  0  0  0  0  0  0  0  0  0
  143.9888  131.8571  150.5961 C   0  0  0  0  0  0  0  0  0  0  0  0
  144.9087  131.1216  151.2527 N   0  0  0  0  0  0  0  0  0  0  0  0
  145.9644  131.7641  151.7957 C   0  0  0  0  0  0  0  0  0  0  0  0
  146.1596  133.1658  151.7076 C   0  0  0  0  0  0  0  0  0  0  0  0
  147.2634  133.8415  152.3013 N   0  0  0  0  0  0  0  0  0  0  0  0
  147.9768  133.4939  153.3862 C   0  0  0  0  0  0  0  0  0  0  0  0
  147.8049  132.4765  154.0573 O   0  0  0  0  0  0  0  0  0  0  0  0
  148.9343  134.3959  153.6443 N   0  0  0  0  0  0  0  0  0  0  0  0
  149.8867  134.3126  154.7456 C   0  0  0  0  0  0  0  0  0  0  0  0
  150.8236  135.5303  154.7770 C   0  0  0  0  0  0  0  0  0  0  0  0
  150.0649  136.8461  155.0112 C   0  0  0  0  0  0  0  0  0  0  0  0
  150.9429  137.8791  155.5525 N   0  0  0  0  0  0  0  0  0  0  0  0
  151.7435  137.6254  156.7384 C   0  0  0  0  0  0  0  0  0  0  0  0
  152.6791  138.8374  156.8525 C   0  0  0  0  0  0  0  0  0  0  0  0
  152.0971  139.9012  155.9152 C   0  0  0  0  0  0  0  0  0  0  0  0
  151.0929  139.1229  155.0819 C   0  0  0  0  0  0  0  0  0  0  0  0
  150.5146  139.6060  154.1095 O   0  0  0  0  0  0  0  0  0  0  0  0
  144.4388  135.8519  150.3607 H   0  0  0  0  0  0  0  0  0  0  0  0
  146.1970  135.7014  150.3566 H   0  0  0  0  0  0  0  0  0  0  0  0
  145.3257  135.8997  151.8847 H   0  0  0  0  0  0  0  0  0  0  0  0
  143.3047  133.7973  149.9287 H   0  0  0  0  0  0  0  0  0  0  0  0
  143.1566  131.3156  150.1712 H   0  0  0  0  0  0  0  0  0  0  0  0
  146.6485  131.1240  152.3302 H   0  0  0  0  0  0  0  0  0  0  0  0
  147.5833  134.6613  151.8071 H   0  0  0  0  0  0  0  0  0  0  0  0
  149.0095  135.1991  153.0373 H   0  0  0  0  0  0  0  0  0  0  0  0
  149.3229  134.2545  155.6769 H   0  0  0  0  0  0  0  0  0  0  0  0
  150.4618  133.3880  154.6721 H   0  0  0  0  0  0  0  0  0  0  0  0
  151.5668  135.4021  155.5654 H   0  0  0  0  0  0  0  0  0  0  0  0
  151.3767  135.5842  153.8383 H   0  0  0  0  0  0  0  0  0  0  0  0
  149.6214  137.1978  154.0784 H   0  0  0  0  0  0  0  0  0  0  0  0
  149.2373  136.6799  155.7021 H   0  0  0  0  0  0  0  0  0  0  0  0
  151.0876  137.5541  157.6071 H   0  0  0  0  0  0  0  0  0  0  0  0
  152.2997  136.6912  156.6507 H   0  0  0  0  0  0  0  0  0  0  0  0
  152.7548  139.1940  157.8804 H   0  0  0  0  0  0  0  0  0  0  0  0
  153.6834  138.5664  156.5243 H   0  0  0  0  0  0  0  0  0  0  0  0
  151.5788  140.6824  156.4720 H   0  0  0  0  0  0  0  0  0  0  0  0
  152.8617  140.3632  155.2900 H   0  0  0  0  0  0  0  0  0  0  0  0
  1  2  1  0  0  0  0
  1 21  1  0  0  0  0
  1 22  1  0  0  0  0
  1 23  1  0  0  0  0
  2  7  1  0  0  0  0
  2  3  2  0  0  0  0
  3  4  1  0  0  0  0
  3 24  1  0  0  0  0
  4  5  2  0  0  0  0
  4 25  1  0  0  0  0
  5  6  1  0  0  0  0
  6  7  2  0  0  0  0
  6 26  1  0  0  0  0
  7  8  1  0  0  0  0
  8  9  1  0  0  0  0
  8 27  1  0  0  0  0
  9 10  2  0  0  0  0
  9 11  1  0  0  0  0
 11 12  1  0  0  0  0
 11 28  1  0  0  0  0
 12 13  1  0  0  0  0
 12 29  1  0  0  0  0
 12 30  1  0  0  0  0
 13 14  1  0  0  0  0
 13 31  1  0  0  0  0
 13 32  1  0  0  0  0
 14 15  1  0  0  0  0
 14 33  1  0  0  0  0
 14 34  1  0  0  0  0
 15 19  1  0  0  0  0
 15 16  1  0  0  0  0
 16 17  1  0  0  0  0
 16 35  1  0  0  0  0
 16 36  1  0  0  0  0
 17 18  1  0  0  0  0
 17 37  1  0  0  0  0
 17 38  1  0  0  0  0
 18 19  1  0  0  0  0
 18 39  1  0  0  0  0
 18 40  1  0  0  0  0
 19 20  2  0  0  0  0
M  END
> <s_m_source_file>
AV-unprocessed.smi

> <i_m_source_file_index>
2465

> <i_lp_mmshare_version>
43012

> <i_f3d_flags>
0

> <s_epik_input>
W0NIM11jMVtjSF1bY0hdbltjSF1jMVtOSF1DKD1PKVtOSF1bQ0gyXVtDSDJdW0NIMl1OMltDSDJdW0NIMl1bQ0gyXUMyPU8=

> <s_epik_cmdline>
J2VwaWtfcHl0aG9uJywgJy1waCcsICc3LjAnLCAnLXRuJywgJzgnLCAnLW1hJywgJzIwMCcsICctbWV0YWxfYmluZGluZycsICctaW1hZScsICc8aW5maWxlLm1hZT4nLCAnLW9tYWUnLCAnPG91dGZpbGUubWFlPic=

> <r_epik_Ionization_Penalty>
0.0211997

> <r_epik_Ionization_Penalty_Charging>
0

> <r_epik_Ionization_Penalty_Neutral>
0.0211997

> <r_epik_State_Penalty>
0.0170047

> <r_epik_Charging_Adjusted_Penalty>
0.0170047

> <i_epik_Tot_Q>
0

> <i_epik_Tot_abs_Q>
0

> <r_epik_Metal_State_Penalty>
0.0163833

> <b_epik_Metal_Only>
0

> <s_lp_Force_Field>
OPLS_2005

> <r_lp_Energy>
19.6331

> <b_lp_Chiralities_Consistent>
1

> <s_lp_Variant>
AV-unprocessed.smi:2465-1

> <Gold.Version>
5.8.1

> <Gold.Id.Protein>
6NUR|6NUR_protein|mol2

> <Gold.PLP.Fitness>
44.7040

> <Gold.PLP.PLP>
-34.4538

> <Gold.PLP.part.hbond>
-3.0000

> <Gold.PLP.part.metal>
0.0000

> <Gold.PLP.part.buried>
-4.0174

> <Gold.PLP.part.nonpolar>
-27.0495

> <Gold.PLP.part.repulsive>
0.8739

> <Gold.PLP.ligand.clash>
0.0000

> <Gold.PLP.ligand.torsion>
0.3543

> <Gold.PLP.Chemscore.Hbond>
2.8960

> <Gold.PLP.Chemscore.CHOScore>
0.7412

> <Gold.PLP.Chemscore.Metal>
0.0000

> <Gold.Chemscore.Hbonds>
donor molecule, donor type, donor heavy atom, donor atom, acceptor molecule, acceptor atom, score
      L1  H     8    27       P1  7948  0.89
      L1  H    11    28       P1  7948  0.94
      P1  H  7989  7998       L1    20  1.00
      L1  C     4    25       P1 10952  0.83

> <Gold.PLP.Chemscore.Internal.Correction>
0.0472

> <Gold.Rescore>
     Score         DG    S(hbond)    S(metal)    S(lipo)     H(rot)  DE(clash)    DE(int)     intcor
     16.53     -17.92       2.67        0.00      68.26       1.74       0.03       1.36       ----

> <Gold.Chemscore.Fitness>
16.5344

> <Gold.Chemscore.DG>
-17.9162

> <Gold.Chemscore.ZeroCoef>
-5.4800

> <Gold.Chemscore.Hbond>
2.6667

> <Gold.Chemscore.Metal>
0.0000

> <Gold.Chemscore.Lipo>
68.2598

> <Gold.Chemscore.Internal_Hbond>
0.0000

> <Gold.Chemscore.DEClash>
0.0256

> <Gold.Chemscore.DEInternal>
1.3563

> <Gold.Chemscore.Rot>
1.7410

> <Gold.Chemscore.Internal.Correction>
   9.000000E+99

> <Gold.Chemscore.Hbonds>
donor molecule, donor type, donor heavy atom, donor atom, acceptor molecule, acceptor atom, score
      L1  H     8    27       P1  7948  0.40
      L1  H    11    28       P1  7948  0.20
      P1  H  7989  7998       L1    20  0.50

> <Gold.Chemscore.Hbond.Weighted>
-8.9069

> <Gold.Chemscore.Metal.Weighted>
-0.0000

> <Gold.Chemscore.Lipo.Weighted>
-7.9864

> <Gold.Chemscore.Internal_Hbond.Weighted>
0.0000

> <Gold.Chemscore.DEClash.Weighted>
0.0256

> <Gold.Chemscore.DEInternal.Weighted>
1.3563

> <Gold.Chemscore.Rot.Weighted>
4.4571

> <Gold.Chemscore.Internal.Correction.Weighted>
   9.000000E+99

> <Gold.Protein.RotatedTorsions>
[ 6907 6896 6895 6894 ] final   -6.13 input  -60.11 | X-H torsion
[ 7974 7965 7964 7962 ] final  134.64 input  175.53 | X-H torsion
[ 8008 7997 7996 7995 ] final   27.20 input   59.86 | X-H torsion
[ 10167 10162 10161 10158 ] final   13.98 input  -65.29 | X-H torsion
[ 10718 10713 10712 10709 ] final   43.21 input   66.30 | X-H torsion
[ 10763 10752 10751 10750 ] final  -79.27 input  -60.55 | X-H torsion
[ 11005 11000 10999 10996 ] final -160.11 input  -57.11 | X-H torsion

> <Gold.Protein.ActiveResidues>
 VAL166  LYS551  ARG553  GLY616  TRP617  ASP618  TYR619  PRO620  LYS621  CYS622 
 ASP623  PHE694  ASN695  SER759  ASP760  ASP761  ALA762  ILE779  LEU786  VAL792 
 PHE793  MET794  SER795  GLU796  ALA797  LYS798  CYS799  TRP800  GLU811  SER814 

> <Gold.Protein.RotatedAtoms>
  151.4706  135.1045  159.9749 H   0  0  0  0  0  0  0  0  0  0  0  0  # atno 6907 bound_to 6896
  152.4818  133.8269  159.7093 H   0  0  0  0  0  0  0  0  0  0  0  0  # atno 6908 bound_to 6896
  150.8896  133.7201  159.2935 H   0  0  0  0  0  0  0  0  0  0  0  0  # atno 6909 bound_to 6896
  144.9743  139.4571  143.5417 H   0  0  0  0  0  0  0  0  0  0  0  0  # atno 7974 bound_to 7965
  155.0392  140.3167  155.4731 H   0  0  0  0  0  0  0  0  0  0  0  0  # atno 8008 bound_to 7997
  156.2858  140.2166  156.5458 H   0  0  0  0  0  0  0  0  0  0  0  0  # atno 8009 bound_to 7997
  154.7305  140.0482  157.0709 H   0  0  0  0  0  0  0  0  0  0  0  0  # atno 8010 bound_to 7997
  140.5966  143.8689  150.6924 H   0  0  0  0  0  0  0  0  0  0  0  0  # atno 10167 bound_to 10162
  157.4134  130.7927  149.7451 H   0  0  0  0  0  0  0  0  0  0  0  0  # atno 10718 bound_to 10713
  154.5365  135.5701  153.6803 H   0  0  0  0  0  0  0  0  0  0  0  0  # atno 10763 bound_to 10752
  152.9952  135.6217  154.2559 H   0  0  0  0  0  0  0  0  0  0  0  0  # atno 10764 bound_to 10752
  154.2488  135.2860  155.2804 H   0  0  0  0  0  0  0  0  0  0  0  0  # atno 10765 bound_to 10752
  140.6351  134.4610  157.5231 H   0  0  0  0  0  0  0  0  0  0  0  0  # atno 11005 bound_to 11000
  146.3391  139.8976  142.8799 LP  0  0  0  0  0  0  0  0  0  0  0  0  # atno 17320 bound_to 7965
  145.2513  141.0045  143.3879 LP  0  0  0  0  0  0  0  0  0  0  0  0  # atno 17321 bound_to 7965
  140.2224  143.3798  152.1632 LP  0  0  0  0  0  0  0  0  0  0  0  0  # atno 17342 bound_to 10162
  139.5262  144.7105  151.5220 LP  0  0  0  0  0  0  0  0  0  0  0  0  # atno 17343 bound_to 10162
  155.9857  130.3980  150.3246 LP  0  0  0  0  0  0  0  0  0  0  0  0  # atno 17370 bound_to 10713
  157.1386  131.0290  151.2938 LP  0  0  0  0  0  0  0  0  0  0  0  0  # atno 17371 bound_to 10713
  139.9101  134.8363  156.1560 LP  0  0  0  0  0  0  0  0  0  0  0  0  # atno 17394 bound_to 11000
  141.0647  133.6825  156.2021 LP  0  0  0  0  0  0  0  0  0  0  0  0  # atno 17395 bound_to 11000

$$$$
