AV-unprocessed.smi:861|AV-procd|sdf|3967|dock4
  -GOLD-   22720 1443D 1   1.00000     0.00000
 Structure written by MMmdl.
 44 45  0  0  0  0  0  0  0  0  2 V2000
  146.0040  143.1930  154.0481 C   0  0  0  0  0  0  0  0  0  0  0  0
  145.3869  142.3742  155.1921 C   0  0  0  0  0  0  0  0  0  0  0  0
  144.5740  143.2876  156.1251 C   0  0  0  0  0  0  0  0  0  0  0  0
  146.4756  141.5826  155.9458 C   0  0  0  0  0  0  0  0  0  0  0  0
  147.0633  140.4093  155.1382 C   0  0  0  0  0  0  0  0  0  0  0  0
  148.1526  140.8408  154.2218 N   0  3  2  0  0  0  0  0  0  0  0  0
  148.7938  139.7179  153.4953 C   0  0  0  0  0  0  0  0  0  0  0  0
  149.7802  138.9614  154.4026 C   0  0  0  0  0  0  0  0  0  0  0  0
  150.7490  139.8714  154.9080 O   0  0  0  0  0  0  0  0  0  0  0  0
  150.1717  140.8960  155.7121 C   0  0  1  0  0  0  0  0  0  0  0  0
  151.3076  141.7778  156.2487 C   0  0  0  0  0  0  0  0  0  0  0  0
  150.8052  143.0317  156.7930 N   0  0  0  0  0  0  0  0  0  0  0  0
  151.2960  143.5298  158.0073 C   0  0  0  0  0  0  0  0  0  0  0  0
  152.3194  142.8243  158.6710 C   0  0  0  0  0  0  0  0  0  0  0  0
  152.7895  143.3484  159.8877 C   0  0  0  0  0  0  0  0  0  0  0  0
  152.1996  144.5397  160.3482 C   0  0  0  0  0  0  0  0  0  0  0  0
  151.2183  145.1757  159.6695 N   0  0  0  0  0  0  0  0  0  0  0  0
  150.7716  144.6750  158.5121 N   0  0  0  0  0  0  0  0  0  0  0  0
  149.1860  141.7090  154.8437 C   0  0  0  0  0  0  0  0  0  0  0  0
  146.7095  143.9336  154.4258 H   0  0  0  0  0  0  0  0  0  0  0  0
  145.2355  143.7231  153.4846 H   0  0  0  0  0  0  0  0  0  0  0  0
  146.5380  142.5514  153.3468 H   0  0  0  0  0  0  0  0  0  0  0  0
  144.6980  141.6596  154.7399 H   0  0  0  0  0  0  0  0  0  0  0  0
  145.2170  144.0038  156.6378 H   0  0  0  0  0  0  0  0  0  0  0  0
  144.0372  142.7178  156.8829 H   0  0  0  0  0  0  0  0  0  0  0  0
  143.8293  143.8546  155.5657 H   0  0  0  0  0  0  0  0  0  0  0  0
  147.2897  142.2618  156.2024 H   0  0  0  0  0  0  0  0  0  0  0  0
  146.0659  141.2314  156.8927 H   0  0  0  0  0  0  0  0  0  0  0  0
  147.4139  139.6163  155.7970 H   0  0  0  0  0  0  0  0  0  0  0  0
  146.2572  139.9768  154.5442 H   0  0  0  0  0  0  0  0  0  0  0  0
  148.0430  139.0407  153.0865 H   0  0  0  0  0  0  0  0  0  0  0  0
  149.3337  140.1263  152.6399 H   0  0  0  0  0  0  0  0  0  0  0  0
  149.2638  138.4622  155.2239 H   0  0  0  0  0  0  0  0  0  0  0  0
  150.2919  138.1858  153.8329 H   0  0  0  0  0  0  0  0  0  0  0  0
  149.6452  140.4500  156.5573 H   0  0  0  0  0  0  0  0  0  0  0  0
  151.8718  141.2419  157.0132 H   0  0  0  0  0  0  0  0  0  0  0  0
  152.0012  142.0090  155.4392 H   0  0  0  0  0  0  0  0  0  0  0  0
  150.0292  143.4904  156.3379 H   0  0  0  0  0  0  0  0  0  0  0  0
  152.7321  141.9125  158.2645 H   0  0  0  0  0  0  0  0  0  0  0  0
  153.5717  142.8572  160.4470 H   0  0  0  0  0  0  0  0  0  0  0  0
  152.5186  144.9908  161.2760 H   0  0  0  0  0  0  0  0  0  0  0  0
  149.7363  142.2015  154.0408 H   0  0  0  0  0  0  0  0  0  0  0  0
  148.7284  142.5076  155.4261 H   0  0  0  0  0  0  0  0  0  0  0  0
  147.6946  141.3991  153.5153 H   0  0  0  0  0  0  0  0  0  0  0  0
  1  2  1  0  0  0  0
  1 20  1  0  0  0  0
  1 21  1  0  0  0  0
  1 22  1  0  0  0  0
  2  3  1  0  0  0  0
  2  4  1  0  0  0  0
  2 23  1  0  0  0  0
  3 24  1  0  0  0  0
  3 25  1  0  0  0  0
  3 26  1  0  0  0  0
  4  5  1  0  0  0  0
  4 27  1  0  0  0  0
  4 28  1  0  0  0  0
  5  6  1  0  0  0  0
  5 29  1  0  0  0  0
  5 30  1  0  0  0  0
  6 19  1  0  0  0  0
  6  7  1  0  0  0  0
  6 44  1  0  0  0  0
  7  8  1  0  0  0  0
  7 31  1  0  0  0  0
  7 32  1  0  0  0  0
  8  9  1  0  0  0  0
  8 33  1  0  0  0  0
  8 34  1  0  0  0  0
  9 10  1  0  0  0  0
 10 11  1  0  0  0  0
 10 19  1  0  0  0  0
 10 35  1  0  0  0  0
 11 12  1  0  0  0  0
 11 36  1  0  0  0  0
 11 37  1  0  0  0  0
 12 13  1  0  0  0  0
 12 38  1  0  0  0  0
 13 18  1  0  0  0  0
 13 14  2  0  0  0  0
 14 15  1  0  0  0  0
 14 39  1  0  0  0  0
 15 16  2  0  0  0  0
 15 40  1  0  0  0  0
 16 17  1  0  0  0  0
 16 41  1  0  0  0  0
 17 18  2  0  0  0  0
 19 42  1  0  0  0  0
 19 43  1  0  0  0  0
M  CHG  1   6   1
M  END
> <s_m_source_file>
AV-unprocessed.smi

> <i_m_source_file_index>
861

> <i_lp_mmshare_version>
43012

> <i_f3d_flags>
0

> <s_epik_input>
W0NIM11bQ0hdKFtDSDNdKVtDSDJdW0NIMl1OMVtDSDJdW0NIMl1PW0NASF0oW0NIMl0xKVtDSDJdW05IXWMyW2NIXVtjSF1bY0hdbm4y

> <s_epik_cmdline>
J2VwaWtfcHl0aG9uJywgJy1waCcsICc3LjAnLCAnLXRuJywgJzgnLCAnLW1hJywgJzIwMCcsICctbWV0YWxfYmluZGluZycsICctaW1hZScsICc8aW5maWxlLm1hZT4nLCAnLW9tYWUnLCAnPG91dGZpbGUubWFlPic=

> <r_lp_tautomer_probability>
0.999978

> <r_epik_Ionization_Penalty>
0.114704

> <r_epik_Ionization_Penalty_Charging>
0.0953451

> <r_epik_Ionization_Penalty_Neutral>
0.0193593

> <r_epik_State_Penalty>
0.104983

> <r_epik_Charging_Adjusted_Penalty>
0.200328

> <i_epik_Tot_Q>
1

> <i_epik_Tot_abs_Q>
1

> <r_epik_Metal_State_Penalty>
0.100113

> <b_epik_Metal_Only>
0

> <s_lp_Force_Field>
OPLS_2005

> <r_lp_Energy>
26.6721

> <b_lp_Chiralities_Consistent>
1

> <s_lp_Variant>
AV-unprocessed.smi:861-2

> <Gold.Version>
5.8.1

> <Gold.Id.Protein>
6NUR|6NUR_protein|mol2

> <Gold.PLP.Fitness>
40.6875

> <Gold.PLP.PLP>
-35.4857

> <Gold.PLP.part.hbond>
-2.1847

> <Gold.PLP.part.metal>
0.0000

> <Gold.PLP.part.buried>
-2.5035

> <Gold.PLP.part.nonpolar>
-30.5981

> <Gold.PLP.part.repulsive>
0.5728

> <Gold.PLP.ligand.clash>
0.0000

> <Gold.PLP.ligand.torsion>
0.4571

> <Gold.PLP.Chemscore.Hbond>
2.0000

> <Gold.PLP.Chemscore.CHOScore>
0.0000

> <Gold.PLP.Chemscore.Metal>
0.0000

> <Gold.Chemscore.Hbonds>
donor molecule, donor type, donor heavy atom, donor atom, acceptor molecule, acceptor atom, score
      L1  H    12    38       P1  8028  1.00
      P1  H  7989  7998       L1     9  1.00

> <Gold.PLP.Chemscore.Internal.Correction>
0.1160

> <Gold.Rescore>
     Score         DG    S(hbond)    S(metal)    S(lipo)     H(rot)  DE(clash)    DE(int)     intcor
     14.54     -17.37       1.44        0.00      97.98       1.71       2.54       0.29       ----

> <Gold.Chemscore.Fitness>
14.5416

> <Gold.Chemscore.DG>
-17.3712

> <Gold.Chemscore.ZeroCoef>
-5.4800

> <Gold.Chemscore.Hbond>
1.4406

> <Gold.Chemscore.Metal>
0.0000

> <Gold.Chemscore.Lipo>
97.9828

> <Gold.Chemscore.Internal_Hbond>
0.0000

> <Gold.Chemscore.DEClash>
2.5378

> <Gold.Chemscore.DEInternal>
0.2918

> <Gold.Chemscore.Rot>
1.7127

> <Gold.Chemscore.Internal.Correction>
   9.000000E+99

> <Gold.Chemscore.Hbonds>
donor molecule, donor type, donor heavy atom, donor atom, acceptor molecule, acceptor atom, score
      L1  H    12    38       P1  8028  1.00
      P1  H  7989  7998       L1     9  0.32

> <Gold.Chemscore.Hbond.Weighted>
-4.8116

> <Gold.Chemscore.Metal.Weighted>
-0.0000

> <Gold.Chemscore.Lipo.Weighted>
-11.4640

> <Gold.Chemscore.Internal_Hbond.Weighted>
0.0000

> <Gold.Chemscore.DEClash.Weighted>
2.5378

> <Gold.Chemscore.DEInternal.Weighted>
0.2918

> <Gold.Chemscore.Rot.Weighted>
4.3844

> <Gold.Chemscore.Internal.Correction.Weighted>
   9.000000E+99

> <Gold.Protein.RotatedTorsions>
[ 6907 6896 6895 6894 ] final -175.13 input  -60.11 | X-H torsion
[ 7974 7965 7964 7962 ] final  -67.90 input  175.53 | X-H torsion
[ 8008 7997 7996 7995 ] final  -60.33 input   59.86 | X-H torsion
[ 10167 10162 10161 10158 ] final -172.33 input  -65.29 | X-H torsion
[ 10718 10713 10712 10709 ] final   54.05 input   66.30 | X-H torsion
[ 10763 10752 10751 10750 ] final   37.98 input  -60.55 | X-H torsion
[ 11005 11000 10999 10996 ] final  -17.37 input  -57.11 | X-H torsion

> <Gold.Protein.ActiveResidues>
 VAL166  LYS551  ARG553  GLY616  TRP617  ASP618  TYR619  PRO620  LYS621  CYS622 
 ASP623  PHE694  ASN695  SER759  ASP760  ASP761  ALA762  ILE779  LEU786  VAL792 
 PHE793  MET794  SER795  GLU796  ALA797  LYS798  CYS799  TRP800  GLU811  SER814 

> <Gold.Protein.RotatedAtoms>
  151.5836  133.3375  159.3013 H   0  0  0  0  0  0  0  0  0  0  0  0  # atno 6907 bound_to 6896
  150.8299  134.7551  159.6856 H   0  0  0  0  0  0  0  0  0  0  0  0  # atno 6908 bound_to 6896
  152.4384  134.5646  159.9955 H   0  0  0  0  0  0  0  0  0  0  0  0  # atno 6909 bound_to 6896
  145.7233  140.9029  143.0619 H   0  0  0  0  0  0  0  0  0  0  0  0  # atno 7974 bound_to 7965
  154.4394  140.1042  156.6256 H   0  0  0  0  0  0  0  0  0  0  0  0  # atno 8008 bound_to 7997
  155.5660  140.3488  155.4484 H   0  0  0  0  0  0  0  0  0  0  0  0  # atno 8009 bound_to 7997
  156.0425  140.1285  157.0129 H   0  0  0  0  0  0  0  0  0  0  0  0  # atno 8010 bound_to 7997
  139.5751  144.1552  152.1438 H   0  0  0  0  0  0  0  0  0  0  0  0  # atno 10167 bound_to 10162
  157.5222  130.8573  149.8574 H   0  0  0  0  0  0  0  0  0  0  0  0  # atno 10718 bound_to 10713
  153.0017  135.6262  154.2232 H   0  0  0  0  0  0  0  0  0  0  0  0  # atno 10763 bound_to 10752
  154.1975  135.2805  155.3003 H   0  0  0  0  0  0  0  0  0  0  0  0  # atno 10764 bound_to 10752
  154.5710  135.5676  153.7154 H   0  0  0  0  0  0  0  0  0  0  0  0  # atno 10765 bound_to 10752
  140.8162  133.8103  155.9613 H   0  0  0  0  0  0  0  0  0  0  0  0  # atno 11005 bound_to 11000
  144.6911  139.9232  143.7468 LP  0  0  0  0  0  0  0  0  0  0  0  0  # atno 17320 bound_to 7965
  146.0605  139.3599  143.0584 LP  0  0  0  0  0  0  0  0  0  0  0  0  # atno 17321 bound_to 7965
  140.1093  144.5471  150.6936 LP  0  0  0  0  0  0  0  0  0  0  0  0  # atno 17342 bound_to 10162
  140.7034  143.2450  151.4799 LP  0  0  0  0  0  0  0  0  0  0  0  0  # atno 17343 bound_to 10162
  156.0361  130.3751  150.1556 LP  0  0  0  0  0  0  0  0  0  0  0  0  # atno 17370 bound_to 10713
  156.9744  130.9844  151.3452 LP  0  0  0  0  0  0  0  0  0  0  0  0  # atno 17371 bound_to 10713
  140.9147  134.2217  157.4964 LP  0  0  0  0  0  0  0  0  0  0  0  0  # atno 17394 bound_to 11000
  139.8711  134.9766  156.4926 LP  0  0  0  0  0  0  0  0  0  0  0  0  # atno 17395 bound_to 11000

$$$$
