AV-unprocessed.smi:1147|AV-procd|sdf|4888|dock7
  -GOLD-   22720 3463D 1   1.00000     0.00000
 Structure written by MMmdl.
 41 42  0  0  0  0  0  0  0  0  1 V2000
  155.5008  133.7303  162.9823 C   0  0  0  0  0  0  0  0  0  0  0  0
  154.9348  135.0418  163.5312 C   0  0  0  0  0  0  0  0  0  0  0  0
  154.8369  135.1605  164.7527 O   0  0  0  0  0  0  0  0  0  0  0  0
  154.5633  136.0179  162.6680 N   0  0  0  0  0  0  0  0  0  0  0  0
  154.0400  137.3401  163.0488 C   0  0  0  0  0  0  0  0  0  0  0  0
  155.0078  138.4298  162.5450 C   0  0  0  0  0  0  0  0  0  0  0  0
  155.1441  138.3059  161.0813 N   0  0  0  0  0  0  0  0  0  0  0  0
  154.6662  139.1722  160.1525 C   0  0  0  0  0  0  0  0  0  0  0  0
  154.8438  139.0289  158.9419 O   0  0  0  0  0  0  0  0  0  0  0  0
  154.0087  140.2306  160.6572 N   0  0  0  0  0  0  0  0  0  0  0  0
  153.4095  141.3137  159.8822 C   0  0  1  0  0  0  0  0  0  0  0  0
  152.1686  140.8002  159.1287 C   0  0  0  0  0  0  0  0  0  0  0  0
  153.1042  142.4957  160.8239 C   0  0  0  0  0  0  0  0  0  0  0  0
  152.5966  143.6594  160.1190 N   0  0  0  0  0  0  0  0  0  0  0  0
  151.9853  144.7776  160.6458 C   0  0  0  0  0  0  0  0  0  0  0  0
  151.6826  145.6049  159.6026 C   0  0  0  0  0  0  0  0  0  0  0  0
  152.1518  144.8954  158.4618 C   0  0  0  0  0  0  0  0  0  0  0  0
  152.6956  143.7301  158.7737 N   0  0  0  0  0  0  0  0  0  0  0  0
  155.6870  136.9896  160.7143 C   0  0  0  0  0  0  0  0  0  0  0  0
  154.7229  135.8937  161.2106 C   0  0  0  0  0  0  0  0  0  0  0  0
  154.7715  133.2315  162.3432 H   0  0  0  0  0  0  0  0  0  0  0  0
  155.7497  133.0488  163.7964 H   0  0  0  0  0  0  0  0  0  0  0  0
  156.4114  133.9108  162.4104 H   0  0  0  0  0  0  0  0  0  0  0  0
  153.0557  137.4753  162.5979 H   0  0  0  0  0  0  0  0  0  0  0  0
  153.8913  137.4606  164.1204 H   0  0  0  0  0  0  0  0  0  0  0  0
  154.6544  139.4056  162.8773 H   0  0  0  0  0  0  0  0  0  0  0  0
  155.9883  138.3023  163.0067 H   0  0  0  0  0  0  0  0  0  0  0  0
  153.9149  140.2873  161.6608 H   0  0  0  0  0  0  0  0  0  0  0  0
  154.1360  141.6590  159.1442 H   0  0  0  0  0  0  0  0  0  0  0  0
  151.7461  141.5705  158.4834 H   0  0  0  0  0  0  0  0  0  0  0  0
  151.3892  140.4819  159.8218 H   0  0  0  0  0  0  0  0  0  0  0  0
  152.4154  139.9497  158.4927 H   0  0  0  0  0  0  0  0  0  0  0  0
  152.3795  142.1985  161.5842 H   0  0  0  0  0  0  0  0  0  0  0  0
  154.0081  142.7944  161.3568 H   0  0  0  0  0  0  0  0  0  0  0  0
  151.8210  144.8905  161.7074 H   0  0  0  0  0  0  0  0  0  0  0  0
  151.1995  146.5697  159.6475 H   0  0  0  0  0  0  0  0  0  0  0  0
  152.1128  145.1901  157.4235 H   0  0  0  0  0  0  0  0  0  0  0  0
  155.8457  136.8822  159.6404 H   0  0  0  0  0  0  0  0  0  0  0  0
  156.6692  136.8643  161.1727 H   0  0  0  0  0  0  0  0  0  0  0  0
  155.1002  134.9164  160.9076 H   0  0  0  0  0  0  0  0  0  0  0  0
  153.7485  136.0009  160.7316 H   0  0  0  0  0  0  0  0  0  0  0  0
  1  2  1  0  0  0  0
  1 21  1  0  0  0  0
  1 22  1  0  0  0  0
  1 23  1  0  0  0  0
  2  3  2  0  0  0  0
  2  4  1  0  0  0  0
  4 20  1  0  0  0  0
  4  5  1  0  0  0  0
  5  6  1  0  0  0  0
  5 24  1  0  0  0  0
  5 25  1  0  0  0  0
  6  7  1  0  0  0  0
  6 26  1  0  0  0  0
  6 27  1  0  0  0  0
  7  8  1  0  0  0  0
  7 19  1  0  0  0  0
  8  9  2  0  0  0  0
  8 10  1  0  0  0  0
 10 11  1  0  0  0  0
 10 28  1  0  0  0  0
 11 12  1  0  0  0  0
 11 13  1  0  0  0  0
 11 29  1  0  0  0  0
 12 30  1  0  0  0  0
 12 31  1  0  0  0  0
 12 32  1  0  0  0  0
 13 14  1  0  0  0  0
 13 33  1  0  0  0  0
 13 34  1  0  0  0  0
 14 18  1  0  0  0  0
 14 15  1  0  0  0  0
 15 16  2  0  0  0  0
 15 35  1  0  0  0  0
 16 17  1  0  0  0  0
 16 36  1  0  0  0  0
 17 18  2  0  0  0  0
 17 37  1  0  0  0  0
 19 20  1  0  0  0  0
 19 38  1  0  0  0  0
 19 39  1  0  0  0  0
 20 40  1  0  0  0  0
 20 41  1  0  0  0  0
M  END
> <s_m_source_file>
AV-unprocessed.smi

> <i_m_source_file_index>
1147

> <i_lp_mmshare_version>
43012

> <i_f3d_flags>
0

> <s_epik_input>
W0NIM11DKD1PKU4xW0NIMl1bQ0gyXU4oW0NIMl1bQ0gyXTEpQyg9TylbTkhdW0NASF0oW0NIM10pW0NIMl1uMltjSF1bY0hdW2NIXW4y

> <s_epik_cmdline>
J2VwaWtfcHl0aG9uJywgJy1waCcsICc3LjAnLCAnLXRuJywgJzgnLCAnLW1hJywgJzIwMCcsICctbWV0YWxfYmluZGluZycsICctaW1hZScsICc8aW5maWxlLm1hZT4nLCAnLW9tYWUnLCAnPG91dGZpbGUubWFlPic=

> <r_lp_tautomer_probability>
1

> <r_epik_Ionization_Penalty>
5.58143e-05

> <r_epik_Ionization_Penalty_Charging>
0

> <r_epik_Ionization_Penalty_Neutral>
5.58143e-05

> <r_epik_State_Penalty>
-0

> <r_epik_Charging_Adjusted_Penalty>
0

> <i_epik_Tot_Q>
0

> <i_epik_Tot_abs_Q>
0

> <r_epik_Metal_State_Penalty>
-0

> <b_epik_Metal_Only>
0

> <s_lp_Force_Field>
OPLS_2005

> <r_lp_Energy>
47.733

> <b_lp_Chiralities_Consistent>
1

> <s_lp_Variant>
AV-unprocessed.smi:1147-2

> <Gold.Version>
5.8.1

> <Gold.Id.Protein>
6NUR|6NUR_protein|mol2

> <Gold.PLP.Fitness>
45.6765

> <Gold.PLP.PLP>
-43.3302

> <Gold.PLP.part.hbond>
-1.0000

> <Gold.PLP.part.metal>
0.0000

> <Gold.PLP.part.buried>
-5.8227

> <Gold.PLP.part.nonpolar>
-36.8348

> <Gold.PLP.part.repulsive>
0.1367

> <Gold.PLP.ligand.clash>
0.0000

> <Gold.PLP.ligand.torsion>
0.3489

> <Gold.PLP.Chemscore.Hbond>
1.0000

> <Gold.PLP.Chemscore.CHOScore>
0.0000

> <Gold.PLP.Chemscore.Metal>
0.0000

> <Gold.Chemscore.Hbonds>
donor molecule, donor type, donor heavy atom, donor atom, acceptor molecule, acceptor atom, score
      P1  H  7997  8008       L1     9  1.00

> <Gold.PLP.Chemscore.Internal.Correction>
0.0441

> <Gold.Rescore>
     Score         DG    S(hbond)    S(metal)    S(lipo)     H(rot)  DE(clash)    DE(int)     intcor
     15.39     -16.06       1.00        0.00      93.89       1.46       0.00       0.66       ----

> <Gold.Chemscore.Fitness>
15.3947

> <Gold.Chemscore.DG>
-16.0565

> <Gold.Chemscore.ZeroCoef>
-5.4800

> <Gold.Chemscore.Hbond>
0.9997

> <Gold.Chemscore.Metal>
0.0000

> <Gold.Chemscore.Lipo>
93.8904

> <Gold.Chemscore.Internal_Hbond>
0.0000

> <Gold.Chemscore.DEClash>
0.0000

> <Gold.Chemscore.DEInternal>
0.6618

> <Gold.Chemscore.Rot>
1.4640

> <Gold.Chemscore.Internal.Correction>
   9.000000E+99

> <Gold.Chemscore.Hbonds>
donor molecule, donor type, donor heavy atom, donor atom, acceptor molecule, acceptor atom, score
      P1  H  7997  8008       L1     9  1.00

> <Gold.Chemscore.Hbond.Weighted>
-3.3391

> <Gold.Chemscore.Metal.Weighted>
-0.0000

> <Gold.Chemscore.Lipo.Weighted>
-10.9852

> <Gold.Chemscore.Internal_Hbond.Weighted>
0.0000

> <Gold.Chemscore.DEClash.Weighted>
0.0000

> <Gold.Chemscore.DEInternal.Weighted>
0.6618

> <Gold.Chemscore.Rot.Weighted>
3.7477

> <Gold.Chemscore.Internal.Correction.Weighted>
   9.000000E+99

> <Gold.Protein.RotatedTorsions>
[ 6907 6896 6895 6894 ] final -163.09 input  -60.11 | X-H torsion
[ 7974 7965 7964 7962 ] final   39.13 input  175.53 | X-H torsion
[ 8008 7997 7996 7995 ] final -113.14 input   59.86 | X-H torsion
[ 10167 10162 10161 10158 ] final -117.24 input  -65.29 | X-H torsion
[ 10718 10713 10712 10709 ] final   53.84 input   66.30 | X-H torsion
[ 10763 10752 10751 10750 ] final -130.67 input  -60.55 | X-H torsion
[ 11005 11000 10999 10996 ] final   74.11 input  -57.11 | X-H torsion

> <Gold.Protein.ActiveResidues>
 VAL166  LYS551  ARG553  GLY616  TRP617  ASP618  TYR619  PRO620  LYS621  CYS622 
 ASP623  PHE694  ASN695  SER759  ASP760  ASP761  ALA762  ILE779  LEU786  VAL792 
 PHE793  MET794  SER795  GLU796  ALA797  LYS798  CYS799  TRP800  GLU811  SER814 

> <Gold.Protein.RotatedAtoms>
  151.3905  133.3790  159.2720 H   0  0  0  0  0  0  0  0  0  0  0  0  # atno 6907 bound_to 6896
  150.9508  134.8910  159.7681 H   0  0  0  0  0  0  0  0  0  0  0  0  # atno 6908 bound_to 6896
  152.5111  134.3860  159.9420 H   0  0  0  0  0  0  0  0  0  0  0  0  # atno 6909 bound_to 6896
  146.1008  139.5688  142.9415 H   0  0  0  0  0  0  0  0  0  0  0  0  # atno 7974 bound_to 7965
  155.0161  140.0393  157.2418 H   0  0  0  0  0  0  0  0  0  0  0  0  # atno 8008 bound_to 7997
  154.7418  140.2750  155.6343 H   0  0  0  0  0  0  0  0  0  0  0  0  # atno 8009 bound_to 7997
  156.2866  140.2664  156.2148 H   0  0  0  0  0  0  0  0  0  0  0  0  # atno 8010 bound_to 7997
  140.0705  143.4882  152.1982 H   0  0  0  0  0  0  0  0  0  0  0  0  # atno 10167 bound_to 10162
  157.5204  130.8561  149.8550 H   0  0  0  0  0  0  0  0  0  0  0  0  # atno 10718 bound_to 10713
  154.8754  135.3855  154.4121 H   0  0  0  0  0  0  0  0  0  0  0  0  # atno 10763 bound_to 10752
  153.4834  135.7030  153.5930 H   0  0  0  0  0  0  0  0  0  0  0  0  # atno 10764 bound_to 10752
  153.4336  135.3873  155.2152 H   0  0  0  0  0  0  0  0  0  0  0  0  # atno 10765 bound_to 10752
  139.9407  134.7405  156.1108 H   0  0  0  0  0  0  0  0  0  0  0  0  # atno 11005 bound_to 11000
  145.5858  141.0376  143.2097 LP  0  0  0  0  0  0  0  0  0  0  0  0  # atno 17320 bound_to 7965
  144.7431  139.7394  143.7303 LP  0  0  0  0  0  0  0  0  0  0  0  0  # atno 17321 bound_to 7965
  139.5839  144.7522  151.3570 LP  0  0  0  0  0  0  0  0  0  0  0  0  # atno 17342 bound_to 10162
  140.7128  143.7346  150.7598 LP  0  0  0  0  0  0  0  0  0  0  0  0  # atno 17343 bound_to 10162
  156.0349  130.3754  150.1587 LP  0  0  0  0  0  0  0  0  0  0  0  0  # atno 17370 bound_to 10713
  156.9775  130.9854  151.3445 LP  0  0  0  0  0  0  0  0  0  0  0  0  # atno 17371 bound_to 10713
  141.1040  133.6667  156.2819 LP  0  0  0  0  0  0  0  0  0  0  0  0  # atno 17394 bound_to 11000
  140.5960  134.5602  157.5509 LP  0  0  0  0  0  0  0  0  0  0  0  0  # atno 17395 bound_to 11000

$$$$
