AV-unprocessed.smi:438|AV-procd|sdf|2575|dock8
  -GOLD-   2262022553D 1   1.00000     0.00000
 Structure written by MMmdl.
 48 49  0  0  0  0  0  0  0  0  1 V2000
  147.4908  136.7503  163.1265 C   0  0  0  0  0  0  0  0  0  0  0  0
  147.8329  136.2352  161.7406 C   0  0  0  0  0  0  0  0  0  0  0  0
  148.4772  137.1084  160.9357 N   0  0  0  0  0  0  0  0  0  0  0  0
  148.8099  136.6699  159.7227 C   0  0  0  0  0  0  0  0  0  0  0  0
  149.6899  137.8340  158.7005 S   0  0  0  0  0  0  0  0  0  0  0  0
  151.3758  137.7262  159.3783 C   0  0  0  0  0  0  0  0  0  0  0  0
  152.1645  139.0286  159.2439 C   0  0  0  0  0  0  0  0  0  0  0  0
  153.3799  139.0284  159.4363 O   0  0  0  0  0  0  0  0  0  0  0  0
  151.4567  140.1249  158.9208 N   0  0  0  0  0  0  0  0  0  0  0  0
  151.9567  141.4941  158.7626 C   0  0  2  0  0  0  0  0  0  0  0  0
  152.5550  142.0420  160.0779 C   0  0  0  0  0  0  0  0  0  0  0  0
  153.1553  143.4406  159.8760 C   0  0  0  0  0  0  0  0  0  0  0  0
  152.1104  144.4074  159.3004 C   0  0  0  0  0  0  0  0  0  0  0  0
  151.5229  143.8718  157.9849 C   0  0  0  0  0  0  0  0  0  0  0  0
  150.9086  142.4672  158.1563 C   0  0  1  0  0  0  0  0  0  0  0  0
  150.3368  141.9654  156.8185 C   0  0  0  0  0  0  0  0  0  0  0  0
  148.5598  135.4676  159.2017 N   0  0  0  0  0  0  0  0  0  0  0  0
  147.9158  134.5833  159.9924 C   0  0  0  0  0  0  0  0  0  0  0  0
  147.6596  133.3428  159.4842 O   0  0  0  0  0  0  0  0  0  0  0  0
  147.5164  134.9206  161.3100 C   0  0  0  0  0  0  0  0  0  0  0  0
  146.7890  133.9170  162.1993 C   0  0  0  0  0  0  0  0  0  0  0  0
  145.4529  134.4525  162.7391 C   0  0  0  0  0  0  0  0  0  0  0  0
  144.8318  133.4963  163.5711 O   0  0  0  0  0  0  0  0  0  0  0  0
  146.4219  136.6631  163.3178 H   0  0  0  0  0  0  0  0  0  0  0  0
  147.7656  137.7997  163.2399 H   0  0  0  0  0  0  0  0  0  0  0  0
  148.0277  136.1807  163.8851 H   0  0  0  0  0  0  0  0  0  0  0  0
  151.3288  137.4254  160.4254 H   0  0  0  0  0  0  0  0  0  0  0  0
  151.9093  136.9341  158.8525 H   0  0  0  0  0  0  0  0  0  0  0  0
  150.4630  140.0025  158.7885 H   0  0  0  0  0  0  0  0  0  0  0  0
  152.7762  141.4123  158.0472 H   0  0  0  0  0  0  0  0  0  0  0  0
  151.7904  142.0970  160.8530 H   0  0  0  0  0  0  0  0  0  0  0  0
  153.3237  141.3640  160.4507 H   0  0  0  0  0  0  0  0  0  0  0  0
  153.5336  143.8233  160.8243 H   0  0  0  0  0  0  0  0  0  0  0  0
  154.0111  143.3800  159.2024 H   0  0  0  0  0  0  0  0  0  0  0  0
  151.3090  144.5553  160.0254 H   0  0  0  0  0  0  0  0  0  0  0  0
  152.5619  145.3861  159.1344 H   0  0  0  0  0  0  0  0  0  0  0  0
  150.7663  144.5660  157.6173 H   0  0  0  0  0  0  0  0  0  0  0  0
  152.3058  143.8417  157.2257 H   0  0  0  0  0  0  0  0  0  0  0  0
  150.0753  142.5617  158.8534 H   0  0  0  0  0  0  0  0  0  0  0  0
  151.1223  141.8434  156.0723 H   0  0  0  0  0  0  0  0  0  0  0  0
  149.6024  142.6650  156.4187 H   0  0  0  0  0  0  0  0  0  0  0  0
  149.8364  141.0052  156.9319 H   0  0  0  0  0  0  0  0  0  0  0  0
  146.8218  133.0046  159.7607 H   0  0  0  0  0  0  0  0  0  0  0  0
  146.5994  133.0199  161.6091 H   0  0  0  0  0  0  0  0  0  0  0  0
  147.4233  133.5868  163.0212 H   0  0  0  0  0  0  0  0  0  0  0  0
  145.5893  135.3867  163.2847 H   0  0  0  0  0  0  0  0  0  0  0  0
  144.7776  134.6622  161.9094 H   0  0  0  0  0  0  0  0  0  0  0  0
  143.9612  133.7994  163.7797 H   0  0  0  0  0  0  0  0  0  0  0  0
  1  2  1  0  0  0  0
  1 24  1  0  0  0  0
  1 25  1  0  0  0  0
  1 26  1  0  0  0  0
  2 20  1  0  0  0  0
  2  3  2  0  0  0  0
  3  4  1  0  0  0  0
  4  5  1  0  0  0  0
  4 17  2  0  0  0  0
  5  6  1  0  0  0  0
  6  7  1  0  0  0  0
  6 27  1  0  0  0  0
  6 28  1  0  0  0  0
  7  8  2  0  0  0  0
  7  9  1  0  0  0  0
  9 10  1  0  0  0  0
  9 29  1  0  0  0  0
 10 15  1  0  0  0  0
 10 11  1  0  0  0  0
 10 30  1  0  0  0  0
 11 12  1  0  0  0  0
 11 31  1  0  0  0  0
 11 32  1  0  0  0  0
 12 13  1  0  0  0  0
 12 33  1  0  0  0  0
 12 34  1  0  0  0  0
 13 14  1  0  0  0  0
 13 35  1  0  0  0  0
 13 36  1  0  0  0  0
 14 15  1  0  0  0  0
 14 37  1  0  0  0  0
 14 38  1  0  0  0  0
 15 16  1  0  0  0  0
 15 39  1  0  0  0  0
 16 40  1  0  0  0  0
 16 41  1  0  0  0  0
 16 42  1  0  0  0  0
 17 18  1  0  0  0  0
 18 19  1  0  0  0  0
 18 20  2  0  0  0  0
 19 43  1  0  0  0  0
 20 21  1  0  0  0  0
 21 22  1  0  0  0  0
 21 44  1  0  0  0  0
 21 45  1  0  0  0  0
 22 23  1  0  0  0  0
 22 46  1  0  0  0  0
 22 47  1  0  0  0  0
 23 48  1  0  0  0  0
M  END
> <s_m_source_file>
AV-unprocessed.smi

> <i_m_source_file_index>
438

> <i_lp_mmshare_version>
43012

> <i_f3d_flags>
0

> <s_epik_input>
W09IXVtDSDJdW0NIMl1jMWMoW09IXSluYyhuYzFbQ0gzXSlTW0NIMl1DKD1PKVtOSF1bQ0BASF0yW0NIMl1bQ0gyXVtDSDJdW0NIMl1bQ0BIXTJbQ0gzXQ==

> <s_epik_cmdline>
J2VwaWtfcHl0aG9uJywgJy1waCcsICc3LjAnLCAnLXRuJywgJzgnLCAnLW1hJywgJzIwMCcsICctbWV0YWxfYmluZGluZycsICctaW1hZScsICc8aW5maWxlLm1hZT4nLCAnLW9tYWUnLCAnPG91dGZpbGUubWFlPic=

> <r_lp_tautomer_probability>
0.0660145

> <r_epik_Ionization_Penalty>
2.91405

> <r_epik_Ionization_Penalty_Charging>
0

> <r_epik_Ionization_Penalty_Neutral>
2.91405

> <r_epik_State_Penalty>
2.44767

> <r_epik_Charging_Adjusted_Penalty>
2.44767

> <i_epik_Tot_Q>
0

> <i_epik_Tot_abs_Q>
0

> <r_epik_Metal_State_Penalty>
3.04288

> <b_epik_Metal_Only>
0

> <s_lp_Force_Field>
OPLS_2005

> <r_lp_Energy>
1.00415

> <b_lp_Chiralities_Consistent>
1

> <s_lp_Variant>
AV-unprocessed.smi:438-13

> <Gold.Version>
5.8.1

> <Gold.Id.Protein>
6NUR|6NUR_protein|mol2

> <Gold.PLP.Fitness>
55.4590

> <Gold.PLP.PLP>
-51.0382

> <Gold.PLP.part.hbond>
-4.3006

> <Gold.PLP.part.metal>
0.0000

> <Gold.PLP.part.buried>
-5.8920

> <Gold.PLP.part.nonpolar>
-42.0691

> <Gold.PLP.part.repulsive>
0.1514

> <Gold.PLP.ligand.clash>
0.0000

> <Gold.PLP.ligand.torsion>
0.6672

> <Gold.PLP.Chemscore.Hbond>
1.8891

> <Gold.PLP.Chemscore.CHOScore>
0.0000

> <Gold.PLP.Chemscore.Metal>
0.0000

> <Gold.Chemscore.Hbonds>
donor molecule, donor type, donor heavy atom, donor atom, acceptor molecule, acceptor atom, score
      P1  H  6896  6909       L1    17  0.18
      P1  H  6931  6943       L1     3  0.98
      P1  H  6934  6947       L1     3  0.18

> <Gold.PLP.Chemscore.Internal.Correction>
0.0879

> <Gold.Rescore>
     Score         DG    S(hbond)    S(metal)    S(lipo)     H(rot)  DE(clash)    DE(int)     intcor
     12.64     -13.20       0.76        0.00     119.47       3.44       0.02       0.54       ----

> <Gold.Chemscore.Fitness>
12.6389

> <Gold.Chemscore.DG>
-13.2015

> <Gold.Chemscore.ZeroCoef>
-5.4800

> <Gold.Chemscore.Hbond>
0.7605

> <Gold.Chemscore.Metal>
0.0000

> <Gold.Chemscore.Lipo>
119.4662

> <Gold.Chemscore.Internal_Hbond>
0.0000

> <Gold.Chemscore.DEClash>
0.0186

> <Gold.Chemscore.DEInternal>
0.5440

> <Gold.Chemscore.Rot>
3.4359

> <Gold.Chemscore.Internal.Correction>
   9.000000E+99

> <Gold.Chemscore.Hbonds>
donor molecule, donor type, donor heavy atom, donor atom, acceptor molecule, acceptor atom, score
      P1  H  6931  6943       L1     3  0.51
      P1  H  6934  6947       L1     3  0.09

> <Gold.Chemscore.Hbond.Weighted>
-2.5400

> <Gold.Chemscore.Metal.Weighted>
-0.0000

> <Gold.Chemscore.Lipo.Weighted>
-13.9775

> <Gold.Chemscore.Internal_Hbond.Weighted>
0.0000

> <Gold.Chemscore.DEClash.Weighted>
0.0186

> <Gold.Chemscore.DEInternal.Weighted>
0.5440

> <Gold.Chemscore.Rot.Weighted>
8.7960

> <Gold.Chemscore.Internal.Correction.Weighted>
   9.000000E+99

> <Gold.Protein.RotatedTorsions>
[ 6907 6896 6895 6894 ] final   46.89 input  -60.11 | X-H torsion
[ 7974 7965 7964 7962 ] final  -11.81 input  175.53 | X-H torsion
[ 8008 7997 7996 7995 ] final  -86.00 input   59.86 | X-H torsion
[ 10167 10162 10161 10158 ] final  163.40 input  -65.29 | X-H torsion
[ 10718 10713 10712 10709 ] final  121.82 input   66.30 | X-H torsion
[ 10763 10752 10751 10750 ] final    5.26 input  -60.55 | X-H torsion
[ 11005 11000 10999 10996 ] final   80.65 input  -57.11 | X-H torsion

> <Gold.Protein.ActiveResidues>
 VAL166  LYS551  ARG553  GLY616  TRP617  ASP618  TYR619  PRO620  LYS621  CYS622 
 ASP623  PHE694  ASN695  SER759  ASP760  ASP761  ALA762  ILE779  LEU786  VAL792 
 PHE793  MET794  SER795  GLU796  ALA797  LYS798  CYS799  TRP800  GLU811  SER814 

> <Gold.Protein.RotatedAtoms>
  152.2617  134.8026  160.0429 H   0  0  0  0  0  0  0  0  0  0  0  0  # atno 6907 bound_to 6896
  151.8670  133.3463  159.3730 H   0  0  0  0  0  0  0  0  0  0  0  0  # atno 6908 bound_to 6896
  150.7119  134.5077  159.5636 H   0  0  0  0  0  0  0  0  0  0  0  0  # atno 6909 bound_to 6896
  146.2174  140.2965  142.8372 H   0  0  0  0  0  0  0  0  0  0  0  0  # atno 7974 bound_to 7965
  154.6470  140.0584  156.9911 H   0  0  0  0  0  0  0  0  0  0  0  0  # atno 8008 bound_to 7997
  155.1430  140.3267  155.4429 H   0  0  0  0  0  0  0  0  0  0  0  0  # atno 8009 bound_to 7997
  156.2558  140.1961  156.6545 H   0  0  0  0  0  0  0  0  0  0  0  0  # atno 8010 bound_to 7997
  139.4873  144.4341  151.9034 H   0  0  0  0  0  0  0  0  0  0  0  0  # atno 10167 bound_to 10162
  157.5789  131.1077  150.8226 H   0  0  0  0  0  0  0  0  0  0  0  0  # atno 10718 bound_to 10713
  153.2615  135.6923  153.7574 H   0  0  0  0  0  0  0  0  0  0  0  0  # atno 10763 bound_to 10752
  153.6631  135.3357  155.3133 H   0  0  0  0  0  0  0  0  0  0  0  0  # atno 10764 bound_to 10752
  154.8432  135.4482  154.1606 H   0  0  0  0  0  0  0  0  0  0  0  0  # atno 10765 bound_to 10752
  139.9126  134.7937  156.1938 H   0  0  0  0  0  0  0  0  0  0  0  0  # atno 11005 bound_to 11000
  144.9088  140.7733  143.5820 LP  0  0  0  0  0  0  0  0  0  0  0  0  # atno 17320 bound_to 7965
  145.2895  139.1889  143.4748 LP  0  0  0  0  0  0  0  0  0  0  0  0  # atno 17321 bound_to 7965
  140.3790  144.2761  150.5911 LP  0  0  0  0  0  0  0  0  0  0  0  0  # atno 17342 bound_to 10162
  140.5251  143.2256  151.8328 LP  0  0  0  0  0  0  0  0  0  0  0  0  # atno 17343 bound_to 10162
  156.8678  130.5135  149.5299 LP  0  0  0  0  0  0  0  0  0  0  0  0  # atno 17370 bound_to 10713
  156.0834  130.5838  150.9604 LP  0  0  0  0  0  0  0  0  0  0  0  0  # atno 17371 bound_to 10713
  141.0567  133.6861  156.1875 LP  0  0  0  0  0  0  0  0  0  0  0  0  # atno 17394 bound_to 11000
  140.6725  134.4853  157.5587 LP  0  0  0  0  0  0  0  0  0  0  0  0  # atno 17395 bound_to 11000

$$$$
