AV-unprocessed.smi:2267|AV-procd|sdf|9148|dock7
  -GOLD-   2272012353D 1   1.00000     0.00000
 Structure written by MMmdl.
 41 42  0  0  0  0  0  0  0  0  1 V2000
  153.1354  142.3383  161.3304 C   0  0  0  0  0  0  0  0  0  0  0  0
  152.4773  142.8947  160.0847 C   0  0  0  0  0  0  0  0  0  0  0  0
  152.4496  144.2849  159.8555 C   0  0  0  0  0  0  0  0  0  0  0  0
  151.8377  144.7930  158.6951 C   0  0  0  0  0  0  0  0  0  0  0  0
  151.2535  143.9136  157.7639 C   0  0  0  0  0  0  0  0  0  0  0  0
  151.2723  142.5200  157.9771 C   0  0  0  0  0  0  0  0  0  0  0  0
  150.6764  141.7330  157.0148 O   0  0  0  0  0  0  0  0  0  0  0  0
  150.7684  140.3205  157.1458 C   0  0  0  0  0  0  0  0  0  0  0  0
  151.7635  139.7875  156.1008 C   0  0  2  0  0  0  0  0  0  0  0  0
  151.1702  139.9688  154.8298 O   0  0  0  0  0  0  0  0  0  0  0  0
  152.0390  138.2776  156.2844 C   0  0  0  0  0  0  0  0  0  0  0  0
  152.7831  137.9950  157.5238 N   0  0  0  0  0  0  0  0  0  0  0  0
  152.0440  137.4379  158.5803 C   0  0  0  0  0  0  0  0  0  0  0  0
  152.5919  137.1502  159.7154 N   0  0  0  0  0  0  0  0  0  0  0  0
  153.9551  137.3889  159.9120 C   0  0  0  0  0  0  0  0  0  0  0  0
  154.4960  137.0139  161.2804 C   0  0  0  0  0  0  0  0  0  0  0  0
  154.7290  137.9202  158.9264 C   0  0  0  0  0  0  0  0  0  0  0  0
  156.2189  138.1990  159.0822 C   0  0  0  0  0  0  0  0  0  0  0  0
  154.1193  138.2512  157.6282 C   0  0  0  0  0  0  0  0  0  0  0  0
  154.7614  138.7273  156.6898 O   0  0  0  0  0  0  0  0  0  0  0  0
  151.8924  142.0164  159.1490 C   0  0  0  0  0  0  0  0  0  0  0  0
  153.3463  143.1265  162.0537 H   0  0  0  0  0  0  0  0  0  0  0  0
  154.0749  141.8492  161.0728 H   0  0  0  0  0  0  0  0  0  0  0  0
  152.4857  141.6050  161.8092 H   0  0  0  0  0  0  0  0  0  0  0  0
  152.8963  144.9648  160.5661 H   0  0  0  0  0  0  0  0  0  0  0  0
  151.8159  145.8582  158.5183 H   0  0  0  0  0  0  0  0  0  0  0  0
  150.7855  144.3128  156.8759 H   0  0  0  0  0  0  0  0  0  0  0  0
  151.1387  140.0986  158.1481 H   0  0  0  0  0  0  0  0  0  0  0  0
  149.7949  139.8390  157.0358 H   0  0  0  0  0  0  0  0  0  0  0  0
  152.6929  140.3553  156.1621 H   0  0  0  0  0  0  0  0  0  0  0  0
  150.9594  139.1201  154.4719 H   0  0  0  0  0  0  0  0  0  0  0  0
  151.0924  137.7359  156.3284 H   0  0  0  0  0  0  0  0  0  0  0  0
  152.5366  137.8682  155.4025 H   0  0  0  0  0  0  0  0  0  0  0  0
  150.9864  137.2648  158.3739 H   0  0  0  0  0  0  0  0  0  0  0  0
  154.9184  137.8873  161.7782 H   0  0  0  0  0  0  0  0  0  0  0  0
  155.2725  136.2538  161.1884 H   0  0  0  0  0  0  0  0  0  0  0  0
  153.7101  136.6121  161.9213 H   0  0  0  0  0  0  0  0  0  0  0  0
  156.7864  137.6268  158.3479 H   0  0  0  0  0  0  0  0  0  0  0  0
  156.6038  137.9409  160.0673 H   0  0  0  0  0  0  0  0  0  0  0  0
  156.4224  139.2576  158.9180 H   0  0  0  0  0  0  0  0  0  0  0  0
  151.9324  140.9571  159.3521 H   0  0  0  0  0  0  0  0  0  0  0  0
  1  2  1  0  0  0  0
  1 22  1  0  0  0  0
  1 23  1  0  0  0  0
  1 24  1  0  0  0  0
  2 21  1  0  0  0  0
  2  3  2  0  0  0  0
  3  4  1  0  0  0  0
  3 25  1  0  0  0  0
  4  5  2  0  0  0  0
  4 26  1  0  0  0  0
  5  6  1  0  0  0  0
  5 27  1  0  0  0  0
  6  7  1  0  0  0  0
  6 21  2  0  0  0  0
  7  8  1  0  0  0  0
  8  9  1  0  0  0  0
  8 28  1  0  0  0  0
  8 29  1  0  0  0  0
  9 10  1  0  0  0  0
  9 11  1  0  0  0  0
  9 30  1  0  0  0  0
 10 31  1  0  0  0  0
 11 12  1  0  0  0  0
 11 32  1  0  0  0  0
 11 33  1  0  0  0  0
 12 19  1  0  0  0  0
 12 13  1  0  0  0  0
 13 14  2  0  0  0  0
 13 34  1  0  0  0  0
 14 15  1  0  0  0  0
 15 16  1  0  0  0  0
 15 17  2  0  0  0  0
 16 35  1  0  0  0  0
 16 36  1  0  0  0  0
 16 37  1  0  0  0  0
 17 18  1  0  0  0  0
 17 19  1  0  0  0  0
 18 38  1  0  0  0  0
 18 39  1  0  0  0  0
 18 40  1  0  0  0  0
 19 20  2  0  0  0  0
 21 41  1  0  0  0  0
M  END
> <s_m_source_file>
AV-unprocessed.smi

> <i_m_source_file_index>
2267

> <i_lp_mmshare_version>
43012

> <i_f3d_flags>
0

> <s_epik_input>
W0NIM11jMVtjSF1bY0hdW2NIXWMoW2NIXTEpT1tDSDJdW0NASF0oW09IXSlbQ0gyXW4yW2NIXW5jKFtDSDNdKWMoW0NIM10pYzI9Tw==

> <s_epik_cmdline>
J2VwaWtfcHl0aG9uJywgJy1waCcsICc3LjAnLCAnLXRuJywgJzgnLCAnLW1hJywgJzIwMCcsICctbWV0YWxfYmluZGluZycsICctaW1hZScsICc8aW5maWxlLm1hZT4nLCAnLW9tYWUnLCAnPG91dGZpbGUubWFlPic=

> <r_lp_tautomer_probability>
1

> <r_epik_Ionization_Penalty>
3.72236e-05

> <r_epik_Ionization_Penalty_Charging>
8.38864e-08

> <r_epik_Ionization_Penalty_Neutral>
3.71397e-05

> <r_epik_State_Penalty>
-0

> <r_epik_Charging_Adjusted_Penalty>
8.38864e-08

> <i_epik_Tot_Q>
0

> <i_epik_Tot_abs_Q>
0

> <r_epik_Metal_State_Penalty>
-0

> <b_epik_Metal_Only>
0

> <s_lp_Force_Field>
OPLS_2005

> <r_lp_Energy>
23.9214

> <b_lp_Chiralities_Consistent>
1

> <s_lp_Variant>
AV-unprocessed.smi:2267-1

> <Gold.Version>
5.8.1

> <Gold.Id.Protein>
6NUR|6NUR_protein|mol2

> <Gold.PLP.Fitness>
46.7250

> <Gold.PLP.PLP>
-40.6145

> <Gold.PLP.part.hbond>
-2.1017

> <Gold.PLP.part.metal>
0.0000

> <Gold.PLP.part.buried>
-6.3565

> <Gold.PLP.part.nonpolar>
-33.3109

> <Gold.PLP.part.repulsive>
0.0710

> <Gold.PLP.ligand.clash>
0.0000

> <Gold.PLP.ligand.torsion>
0.5994

> <Gold.PLP.Chemscore.Hbond>
2.4225

> <Gold.PLP.Chemscore.CHOScore>
0.0000

> <Gold.PLP.Chemscore.Metal>
0.0000

> <Gold.Chemscore.Hbonds>
donor molecule, donor type, donor heavy atom, donor atom, acceptor molecule, acceptor atom, score
      P1  H  6896  6909       L1    14  0.48
      P1  H  7989  7998       L1    10  1.00
      P1  H  7997  8010       L1    20  0.05

> <Gold.PLP.Chemscore.Internal.Correction>
0.0419

> <Gold.Rescore>
     Score         DG    S(hbond)    S(metal)    S(lipo)     H(rot)  DE(clash)    DE(int)     intcor
     18.86     -19.36       1.78        0.00     119.16       2.35       0.04       0.46       ----

> <Gold.Chemscore.Fitness>
18.8552

> <Gold.Chemscore.DG>
-19.3565

> <Gold.Chemscore.ZeroCoef>
-5.4800

> <Gold.Chemscore.Hbond>
1.7811

> <Gold.Chemscore.Metal>
0.0000

> <Gold.Chemscore.Lipo>
119.1553

> <Gold.Chemscore.Internal_Hbond>
0.0000

> <Gold.Chemscore.DEClash>
0.0399

> <Gold.Chemscore.DEInternal>
0.4614

> <Gold.Chemscore.Rot>
2.3490

> <Gold.Chemscore.Internal.Correction>
   9.000000E+99

> <Gold.Chemscore.Hbonds>
donor molecule, donor type, donor heavy atom, donor atom, acceptor molecule, acceptor atom, score
      P1  H  6896  6909       L1    14  0.09
      P1  H  7989  7998       L1    10  0.45
      P1  H  7997  8010       L1    20  0.01

> <Gold.Chemscore.Hbond.Weighted>
-5.9489

> <Gold.Chemscore.Metal.Weighted>
-0.0000

> <Gold.Chemscore.Lipo.Weighted>
-13.9412

> <Gold.Chemscore.Internal_Hbond.Weighted>
0.0000

> <Gold.Chemscore.DEClash.Weighted>
0.0399

> <Gold.Chemscore.DEInternal.Weighted>
0.4614

> <Gold.Chemscore.Rot.Weighted>
6.0136

> <Gold.Chemscore.Internal.Correction.Weighted>
   9.000000E+99

> <Gold.Protein.RotatedTorsions>
[ 6907 6896 6895 6894 ] final  122.47 input  -60.11 | X-H torsion
[ 7974 7965 7964 7962 ] final -128.86 input  175.53 | X-H torsion
[ 8008 7997 7996 7995 ] final   36.70 input   59.86 | X-H torsion
[ 10167 10162 10161 10158 ] final  143.14 input  -65.29 | X-H torsion
[ 10718 10713 10712 10709 ] final -144.29 input   66.30 | X-H torsion
[ 10763 10752 10751 10750 ] final  -33.60 input  -60.55 | X-H torsion
[ 11005 11000 10999 10996 ] final    6.53 input  -57.11 | X-H torsion

> <Gold.Protein.ActiveResidues>
 VAL166  LYS551  ARG553  GLY616  TRP617  ASP618  TYR619  PRO620  LYS621  CYS622 
 ASP623  PHE694  ASN695  SER759  ASP760  ASP761  ALA762  ILE779  LEU786  VAL792 
 PHE793  MET794  SER795  GLU796  ALA797  LYS798  CYS799  TRP800  GLU811  SER814 

> <Gold.Protein.RotatedAtoms>
  152.4240  133.7164  159.6507 H   0  0  0  0  0  0  0  0  0  0  0  0  # atno 6907 bound_to 6896
  150.8116  133.8400  159.3185 H   0  0  0  0  0  0  0  0  0  0  0  0  # atno 6908 bound_to 6896
  151.6109  135.1042  160.0132 H   0  0  0  0  0  0  0  0  0  0  0  0  # atno 6909 bound_to 6896
  144.9629  140.7465  143.4718 H   0  0  0  0  0  0  0  0  0  0  0  0  # atno 7974 bound_to 7965
  155.1916  140.3308  155.4357 H   0  0  0  0  0  0  0  0  0  0  0  0  # atno 8008 bound_to 7997
  156.2440  140.1909  156.6959 H   0  0  0  0  0  0  0  0  0  0  0  0  # atno 8009 bound_to 7997
  154.6202  140.0596  156.9591 H   0  0  0  0  0  0  0  0  0  0  0  0  # atno 8010 bound_to 7997
  139.4977  144.6060  151.6376 H   0  0  0  0  0  0  0  0  0  0  0  0  # atno 10167 bound_to 10162
  156.3684  130.7775  151.1952 H   0  0  0  0  0  0  0  0  0  0  0  0  # atno 10718 bound_to 10713
  153.8330  135.6864  153.4812 H   0  0  0  0  0  0  0  0  0  0  0  0  # atno 10763 bound_to 10752
  153.1499  135.4622  154.9620 H   0  0  0  0  0  0  0  0  0  0  0  0  # atno 10764 bound_to 10752
  154.7878  135.3291  154.7791 H   0  0  0  0  0  0  0  0  0  0  0  0  # atno 10765 bound_to 10752
  140.5585  134.0215  155.7963 H   0  0  0  0  0  0  0  0  0  0  0  0  # atno 11005 bound_to 11000
  145.2673  139.1968  143.4860 LP  0  0  0  0  0  0  0  0  0  0  0  0  # atno 17320 bound_to 7965
  146.3359  140.2613  142.8602 LP  0  0  0  0  0  0  0  0  0  0  0  0  # atno 17321 bound_to 7965
  140.5722  144.0089  150.6223 LP  0  0  0  0  0  0  0  0  0  0  0  0  # atno 17342 bound_to 10162
  140.3210  143.3137  152.0784 LP  0  0  0  0  0  0  0  0  0  0  0  0  # atno 17343 bound_to 10162
  157.7481  131.0379  150.4480 LP  0  0  0  0  0  0  0  0  0  0  0  0  # atno 17370 bound_to 10713
  156.4703  130.4051  149.6522 LP  0  0  0  0  0  0  0  0  0  0  0  0  # atno 17371 bound_to 10713
  141.1129  133.9587  157.2877 LP  0  0  0  0  0  0  0  0  0  0  0  0  # atno 17394 bound_to 11000
  139.9419  135.0190  156.8736 LP  0  0  0  0  0  0  0  0  0  0  0  0  # atno 17395 bound_to 11000

$$$$
