AV-unprocessed.smi:1904|AV-procd|sdf|7724|dock7
  -GOLD-   22720 9463D 1   1.00000     0.00000
 Structure written by MMmdl.
 50 51  0  0  0  0  0  0  0  0  2 V2000
  153.1942  142.5910  162.2950 C   0  0  0  0  0  0  0  0  0  0  0  0
  152.6305  143.0609  160.9844 C   0  0  0  0  0  0  0  0  0  0  0  0
  152.0609  144.2524  160.9179 N   0  0  0  0  0  0  0  0  0  0  0  0
  151.6567  144.3701  159.6373 N   0  0  0  0  0  0  0  0  0  0  0  0
  150.9827  145.5818  159.2137 C   0  0  0  0  0  0  0  0  0  0  0  0
  151.9630  143.2461  158.8950 C   0  0  0  0  0  0  0  0  0  0  0  0
  151.6044  143.1253  157.4488 C   0  0  0  0  0  0  0  0  0  0  0  0
  152.6023  142.3732  159.7349 C   0  0  0  0  0  0  0  0  0  0  0  0
  153.1440  140.9995  159.4298 C   0  0  0  0  0  0  0  0  0  0  0  0
  152.2798  140.3441  158.3531 C   0  0  0  0  0  0  0  0  0  0  0  0
  152.7936  139.9446  157.3082 O   0  0  0  0  0  0  0  0  0  0  0  0
  150.9648  140.2621  158.6077 N   0  0  0  0  0  0  0  0  0  0  0  0
  149.9680  139.7397  157.6818 C   0  0  0  0  0  0  0  0  0  0  0  0
  148.7118  140.6319  157.6611 C   0  0  0  0  0  0  0  0  0  0  0  0
  148.0401  140.6490  156.3370 N   0  3  2  0  0  0  0  0  0  0  0  0
  148.7763  141.4836  155.3523 C   0  0  0  0  0  0  0  0  0  0  0  0
  148.1493  141.3812  153.9502 C   0  0  0  0  0  0  0  0  0  0  0  0
  146.6535  141.7447  153.9526 C   0  0  2  0  0  0  0  0  0  0  0  0
  146.4068  143.2565  154.1003 C   0  0  0  0  0  0  0  0  0  0  0  0
  145.9285  140.9158  155.0279 C   0  0  0  0  0  0  0  0  0  0  0  0
  146.6036  141.0283  156.4070 C   0  0  0  0  0  0  0  0  0  0  0  0
  154.1051  142.0113  162.1463 H   0  0  0  0  0  0  0  0  0  0  0  0
  152.4795  141.9571  162.8197 H   0  0  0  0  0  0  0  0  0  0  0  0
  153.4413  143.4274  162.9499 H   0  0  0  0  0  0  0  0  0  0  0  0
  151.4381  145.9556  158.2965 H   0  0  0  0  0  0  0  0  0  0  0  0
  151.0581  146.3530  159.9816 H   0  0  0  0  0  0  0  0  0  0  0  0
  149.9297  145.3683  159.0284 H   0  0  0  0  0  0  0  0  0  0  0  0
  151.7359  142.1042  157.0919 H   0  0  0  0  0  0  0  0  0  0  0  0
  152.2299  143.7781  156.8399 H   0  0  0  0  0  0  0  0  0  0  0  0
  150.5631  143.4008  157.2812 H   0  0  0  0  0  0  0  0  0  0  0  0
  154.1736  141.0413  159.0740 H   0  0  0  0  0  0  0  0  0  0  0  0
  153.1635  140.3728  160.3223 H   0  0  0  0  0  0  0  0  0  0  0  0
  150.6301  140.6118  159.4943 H   0  0  0  0  0  0  0  0  0  0  0  0
  150.3930  139.6500  156.6807 H   0  0  0  0  0  0  0  0  0  0  0  0
  149.7253  138.7296  158.0091 H   0  0  0  0  0  0  0  0  0  0  0  0
  148.0035  140.3212  158.4310 H   0  0  0  0  0  0  0  0  0  0  0  0
  149.0124  141.6498  157.9144 H   0  0  0  0  0  0  0  0  0  0  0  0
  148.7929  142.5207  155.6904 H   0  0  0  0  0  0  0  0  0  0  0  0
  149.8152  141.1561  155.2976 H   0  0  0  0  0  0  0  0  0  0  0  0
  148.6921  142.0171  153.2498 H   0  0  0  0  0  0  0  0  0  0  0  0
  148.2681  140.3602  153.5847 H   0  0  0  0  0  0  0  0  0  0  0  0
  146.2428  141.4590  152.9831 H   0  0  0  0  0  0  0  0  0  0  0  0
  146.7811  143.6454  155.0466 H   0  0  0  0  0  0  0  0  0  0  0  0
  145.3416  143.4839  154.0494 H   0  0  0  0  0  0  0  0  0  0  0  0
  146.8963  143.8118  153.2996 H   0  0  0  0  0  0  0  0  0  0  0  0
  144.8833  141.2190  155.0968 H   0  0  0  0  0  0  0  0  0  0  0  0
  145.9189  139.8680  154.7242 H   0  0  0  0  0  0  0  0  0  0  0  0
  146.0733  140.3789  157.1023 H   0  0  0  0  0  0  0  0  0  0  0  0
  146.5103  142.0428  156.7968 H   0  0  0  0  0  0  0  0  0  0  0  0
  148.0785  139.7027  155.9860 H   0  0  0  0  0  0  0  0  0  0  0  0
  1  2  1  0  0  0  0
  1 22  1  0  0  0  0
  1 23  1  0  0  0  0
  1 24  1  0  0  0  0
  2  8  1  0  0  0  0
  2  3  2  0  0  0  0
  3  4  1  0  0  0  0
  4  5  1  0  0  0  0
  4  6  1  0  0  0  0
  5 25  1  0  0  0  0
  5 26  1  0  0  0  0
  5 27  1  0  0  0  0
  6  7  1  0  0  0  0
  6  8  2  0  0  0  0
  7 28  1  0  0  0  0
  7 29  1  0  0  0  0
  7 30  1  0  0  0  0
  8  9  1  0  0  0  0
  9 10  1  0  0  0  0
  9 31  1  0  0  0  0
  9 32  1  0  0  0  0
 10 11  2  0  0  0  0
 10 12  1  0  0  0  0
 12 13  1  0  0  0  0
 12 33  1  0  0  0  0
 13 14  1  0  0  0  0
 13 34  1  0  0  0  0
 13 35  1  0  0  0  0
 14 15  1  0  0  0  0
 14 36  1  0  0  0  0
 14 37  1  0  0  0  0
 15 21  1  0  0  0  0
 15 16  1  0  0  0  0
 15 50  1  0  0  0  0
 16 17  1  0  0  0  0
 16 38  1  0  0  0  0
 16 39  1  0  0  0  0
 17 18  1  0  0  0  0
 17 40  1  0  0  0  0
 17 41  1  0  0  0  0
 18 19  1  0  0  0  0
 18 20  1  0  0  0  0
 18 42  1  0  0  0  0
 19 43  1  0  0  0  0
 19 44  1  0  0  0  0
 19 45  1  0  0  0  0
 20 21  1  0  0  0  0
 20 46  1  0  0  0  0
 20 47  1  0  0  0  0
 21 48  1  0  0  0  0
 21 49  1  0  0  0  0
M  CHG  1  15   1
M  END
> <s_m_source_file>
AV-unprocessed.smi

> <i_m_source_file_index>
1904

> <i_lp_mmshare_version>
43012

> <i_f3d_flags>
0

> <s_epik_input>
W0NIM11jMW5uKFtDSDNdKWMoW0NIM10pYzFbQ0gyXUMoPU8pW05IXVtDSDJdW0NIMl1OMltDSDJdW0NIMl1bQ0hdKFtDSDNdKVtDSDJdW0NIMl0y

> <s_epik_cmdline>
J2VwaWtfcHl0aG9uJywgJy1waCcsICc3LjAnLCAnLXRuJywgJzgnLCAnLW1hJywgJzIwMCcsICctbWV0YWxfYmluZGluZycsICctaW1hZScsICc8aW5maWxlLm1hZT4nLCAnLW9tYWUnLCAnPG91dGZpbGUubWFlPic=

> <r_lp_tautomer_probability>
1

> <r_epik_Ionization_Penalty>
0.00374255

> <r_epik_Ionization_Penalty_Charging>
0.00158211

> <r_epik_Ionization_Penalty_Neutral>
0.00216044

> <r_epik_State_Penalty>
-0

> <r_epik_Charging_Adjusted_Penalty>
0.00158211

> <i_epik_Tot_Q>
1

> <i_epik_Tot_abs_Q>
1

> <r_epik_Metal_State_Penalty>
-0

> <b_epik_Metal_Only>
0

> <s_lp_Force_Field>
OPLS_2005

> <r_lp_Energy>
12.0105

> <b_lp_Chiralities_Consistent>
1

> <s_lp_Variant>
AV-unprocessed.smi:1904-2

> <Gold.Version>
5.8.1

> <Gold.Id.Protein>
6NUR|6NUR_protein|mol2

> <Gold.PLP.Fitness>
44.9884

> <Gold.PLP.PLP>
-43.7228

> <Gold.PLP.part.hbond>
-1.0000

> <Gold.PLP.part.metal>
0.0000

> <Gold.PLP.part.buried>
-4.5590

> <Gold.PLP.part.nonpolar>
-37.8533

> <Gold.PLP.part.repulsive>
0.3269

> <Gold.PLP.ligand.clash>
0.0000

> <Gold.PLP.ligand.torsion>
0.8800

> <Gold.PLP.Chemscore.Hbond>
1.0000

> <Gold.PLP.Chemscore.CHOScore>
0.0000

> <Gold.PLP.Chemscore.Metal>
0.0000

> <Gold.Chemscore.Hbonds>
donor molecule, donor type, donor heavy atom, donor atom, acceptor molecule, acceptor atom, score
      P1  H  7997  8010       L1    11  1.00

> <Gold.PLP.Chemscore.Internal.Correction>
0.0257

> <Gold.Rescore>
     Score         DG    S(hbond)    S(metal)    S(lipo)     H(rot)  DE(clash)    DE(int)     intcor
     15.77     -17.69       1.00        0.00     111.18       1.61       0.03       1.89       ----

> <Gold.Chemscore.Fitness>
15.7705

> <Gold.Chemscore.DG>
-17.6878

> <Gold.Chemscore.ZeroCoef>
-5.4800

> <Gold.Chemscore.Hbond>
0.9976

> <Gold.Chemscore.Metal>
0.0000

> <Gold.Chemscore.Lipo>
111.1833

> <Gold.Chemscore.Internal_Hbond>
0.0000

> <Gold.Chemscore.DEClash>
0.0295

> <Gold.Chemscore.DEInternal>
1.8878

> <Gold.Chemscore.Rot>
1.6142

> <Gold.Chemscore.Internal.Correction>
   9.000000E+99

> <Gold.Chemscore.Hbonds>
donor molecule, donor type, donor heavy atom, donor atom, acceptor molecule, acceptor atom, score
      P1  H  7997  8010       L1    11  0.99

> <Gold.Chemscore.Hbond.Weighted>
-3.3318

> <Gold.Chemscore.Metal.Weighted>
-0.0000

> <Gold.Chemscore.Lipo.Weighted>
-13.0084

> <Gold.Chemscore.Internal_Hbond.Weighted>
0.0000

> <Gold.Chemscore.DEClash.Weighted>
0.0295

> <Gold.Chemscore.DEInternal.Weighted>
1.8878

> <Gold.Chemscore.Rot.Weighted>
4.1324

> <Gold.Chemscore.Internal.Correction.Weighted>
   9.000000E+99

> <Gold.Protein.RotatedTorsions>
[ 6907 6896 6895 6894 ] final -143.90 input  -60.11 | X-H torsion
[ 7974 7965 7964 7962 ] final  -93.51 input  175.53 | X-H torsion
[ 8008 7997 7996 7995 ] final   63.84 input   59.86 | X-H torsion
[ 10167 10162 10161 10158 ] final  103.10 input  -65.29 | X-H torsion
[ 10718 10713 10712 10709 ] final  -20.28 input   66.30 | X-H torsion
[ 10763 10752 10751 10750 ] final  -68.96 input  -60.55 | X-H torsion
[ 11005 11000 10999 10996 ] final   77.31 input  -57.11 | X-H torsion

> <Gold.Protein.ActiveResidues>
 VAL166  LYS551  ARG553  GLY616  TRP617  ASP618  TYR619  PRO620  LYS621  CYS622 
 ASP623  PHE694  ASN695  SER759  ASP760  ASP761  ALA762  ILE779  LEU786  VAL792 
 PHE793  MET794  SER795  GLU796  ALA797  LYS798  CYS799  TRP800  GLU811  SER814 

> <Gold.Protein.RotatedAtoms>
  151.1067  133.5203  159.2607 H   0  0  0  0  0  0  0  0  0  0  0  0  # atno 6907 bound_to 6896
  151.2012  135.0443  159.8883 H   0  0  0  0  0  0  0  0  0  0  0  0  # atno 6908 bound_to 6896
  152.5447  134.0895  159.8324 H   0  0  0  0  0  0  0  0  0  0  0  0  # atno 6909 bound_to 6896
  145.3856  140.9522  143.2369 H   0  0  0  0  0  0  0  0  0  0  0  0  # atno 7974 bound_to 7965
  155.6366  140.3496  155.4700 H   0  0  0  0  0  0  0  0  0  0  0  0  # atno 8008 bound_to 7997
  155.9960  140.1203  157.0616 H   0  0  0  0  0  0  0  0  0  0  0  0  # atno 8009 bound_to 7997
  154.4234  140.1110  156.5617 H   0  0  0  0  0  0  0  0  0  0  0  0  # atno 8010 bound_to 7997
  139.7292  144.7040  151.0749 H   0  0  0  0  0  0  0  0  0  0  0  0  # atno 10167 bound_to 10162
  156.5340  130.4662  149.6532 H   0  0  0  0  0  0  0  0  0  0  0  0  # atno 10718 bound_to 10713
  154.3966  135.6040  153.5873 H   0  0  0  0  0  0  0  0  0  0  0  0  # atno 10763 bound_to 10752
  152.9788  135.5896  154.4234 H   0  0  0  0  0  0  0  0  0  0  0  0  # atno 10764 bound_to 10752
  154.4026  135.2843  155.2065 H   0  0  0  0  0  0  0  0  0  0  0  0  # atno 10765 bound_to 10752
  139.9260  134.7672  156.1505 H   0  0  0  0  0  0  0  0  0  0  0  0  # atno 11005 bound_to 11000
  144.8476  139.5371  143.6871 LP  0  0  0  0  0  0  0  0  0  0  0  0  # atno 17320 bound_to 7965
  146.2822  139.6907  142.9221 LP  0  0  0  0  0  0  0  0  0  0  0  0  # atno 17321 bound_to 7965
  140.7768  143.5065  150.9706 LP  0  0  0  0  0  0  0  0  0  0  0  0  # atno 17342 bound_to 10162
  139.8753  143.7141  152.3162 LP  0  0  0  0  0  0  0  0  0  0  0  0  # atno 17343 bound_to 10162
  156.3033  130.7189  151.2065 LP  0  0  0  0  0  0  0  0  0  0  0  0  # atno 17370 bound_to 10713
  157.7417  131.0500  150.5080 LP  0  0  0  0  0  0  0  0  0  0  0  0  # atno 17371 bound_to 10713
  141.0818  133.6751  156.2352 LP  0  0  0  0  0  0  0  0  0  0  0  0  # atno 17394 bound_to 11000
  140.6335  134.5240  157.5562 LP  0  0  0  0  0  0  0  0  0  0  0  0  # atno 17395 bound_to 11000

$$$$
