AV-unprocessed.smi:109|AV-procd|sdf|1051|dock5
  -GOLD-   2262018103D 1   1.00000     0.00000
 Structure written by MMmdl.
 58 61  0  0  0  0  0  0  0  0  1 V2000
  151.9616  136.7244  159.2176 O   0  0  0  0  0  0  0  0  0  0  0  0
  150.9254  137.4213  158.5603 C   0  0  0  0  0  0  0  0  0  0  0  0
  149.5849  137.1538  159.2666 C   0  0  0  0  0  0  0  0  0  0  0  0
  148.9234  135.8067  158.8840 C   0  0  2  0  0  0  0  0  0  0  0  0
  148.3117  135.9251  157.5581 N   0  0  0  0  0  0  0  0  0  0  0  0
  148.5540  135.0378  156.5671 C   0  0  0  0  0  0  0  0  0  0  0  0
  149.6229  134.2010  156.6076 N   0  0  0  0  0  0  0  0  0  0  0  0
  149.8350  133.3384  155.6098 C   0  0  0  0  0  0  0  0  0  0  0  0
  149.1152  133.1525  154.5018 N   0  0  0  0  0  0  0  0  0  0  0  0
  148.0396  133.9906  154.4530 C   0  0  0  0  0  0  0  0  0  0  0  0
  147.6948  134.9551  155.4411 C   0  0  0  0  0  0  0  0  0  0  0  0
  146.5440  135.6310  155.0587 N   0  0  0  0  0  0  0  0  0  0  0  0
  146.2300  135.0939  153.9107 C   0  0  0  0  0  0  0  0  0  0  0  0
  147.0755  134.1003  153.4691 N   0  0  0  0  0  0  0  0  0  0  0  0
  146.9575  133.3133  152.1979 C   0  0  2  0  0  0  0  0  0  0  0  0
  145.8520  133.7653  151.4731 O   0  0  0  0  0  0  0  0  0  0  0  0
  144.9299  132.7008  151.2549 C   0  0  1  0  0  0  0  0  0  0  0  0
  144.1491  132.9148  149.9465 C   0  0  0  0  0  0  0  0  0  0  0  0
  143.3402  131.7922  149.6663 O   0  0  0  0  0  0  0  0  0  0  0  0
  145.7730  131.4220  151.3656 C   0  0  1  0  0  0  0  0  0  0  0  0
  146.4168  131.1163  150.1423 O   0  0  0  0  0  0  0  0  0  0  0  0
  146.7968  131.7954  152.4259 C   0  0  2  0  0  0  0  0  0  0  0  0
  146.3268  131.4523  153.7178 O   0  0  0  0  0  0  0  0  0  0  0  0
  147.8524  135.3261  159.9053 C   0  0  0  0  0  0  0  0  0  0  0  0
  148.1158  135.8238  161.3489 C   0  0  0  0  0  0  0  0  0  0  0  0
  147.0703  135.3049  162.3500 C   0  0  0  0  0  0  0  0  0  0  0  0
  146.9853  133.7741  162.3325 C   0  0  0  0  0  0  0  0  0  0  0  0
  146.6979  133.2661  160.9148 C   0  0  0  0  0  0  0  0  0  0  0  0
  147.7492  133.7788  159.9181 C   0  0  0  0  0  0  0  0  0  0  0  0
  147.8617  133.5579  151.6388 H   0  0  0  0  0  0  0  0  0  0  0  0
  144.2252  132.7136  152.0869 H   0  0  0  0  0  0  0  0  0  0  0  0
  145.1690  130.5598  151.6521 H   0  0  0  0  0  0  0  0  0  0  0  0
  147.7560  131.2983  152.2755 H   0  0  0  0  0  0  0  0  0  0  0  0
  152.6745  137.3243  159.3752 H   0  0  0  0  0  0  0  0  0  0  0  0
  151.1696  138.4836  158.5622 H   0  0  0  0  0  0  0  0  0  0  0  0
  150.8839  137.0960  157.5205 H   0  0  0  0  0  0  0  0  0  0  0  0
  149.7859  137.1762  160.3362 H   0  0  0  0  0  0  0  0  0  0  0  0
  148.8928  137.9729  159.0659 H   0  0  0  0  0  0  0  0  0  0  0  0
  149.7061  135.0486  158.8810 H   0  0  0  0  0  0  0  0  0  0  0  0
  147.7323  136.7412  157.4226 H   0  0  0  0  0  0  0  0  0  0  0  0
  150.7052  132.7073  155.7135 H   0  0  0  0  0  0  0  0  0  0  0  0
  145.3643  135.4116  153.3481 H   0  0  0  0  0  0  0  0  0  0  0  0
  143.5020  133.7869  150.0421 H   0  0  0  0  0  0  0  0  0  0  0  0
  144.8165  133.1077  149.1065 H   0  0  0  0  0  0  0  0  0  0  0  0
  142.4344  132.0595  149.7008 H   0  0  0  0  0  0  0  0  0  0  0  0
  147.3487  131.0844  150.2978 H   0  0  0  0  0  0  0  0  0  0  0  0
  145.5084  131.9002  153.8667 H   0  0  0  0  0  0  0  0  0  0  0  0
  146.8858  135.7238  159.5913 H   0  0  0  0  0  0  0  0  0  0  0  0
  149.1121  135.5160  161.6687 H   0  0  0  0  0  0  0  0  0  0  0  0
  148.0959  136.9112  161.3946 H   0  0  0  0  0  0  0  0  0  0  0  0
  147.3159  135.6499  163.3550 H   0  0  0  0  0  0  0  0  0  0  0  0
  146.0938  135.7274  162.1091 H   0  0  0  0  0  0  0  0  0  0  0  0
  147.9231  133.3492  162.6929 H   0  0  0  0  0  0  0  0  0  0  0  0
  146.2068  133.4350  163.0164 H   0  0  0  0  0  0  0  0  0  0  0  0
  146.6817  132.1758  160.9089 H   0  0  0  0  0  0  0  0  0  0  0  0
  145.7056  133.5922  160.6010 H   0  0  0  0  0  0  0  0  0  0  0  0
  147.4942  133.3992  158.9285 H   0  0  0  0  0  0  0  0  0  0  0  0
  148.7214  133.3506  160.1663 H   0  0  0  0  0  0  0  0  0  0  0  0
  1  2  1  0  0  0  0
  1 34  1  0  0  0  0
  2  3  1  0  0  0  0
  2 35  1  0  0  0  0
  2 36  1  0  0  0  0
  3  4  1  0  0  0  0
  3 37  1  0  0  0  0
  3 38  1  0  0  0  0
  4  5  1  0  0  0  0
  4 24  1  0  0  0  0
  4 39  1  0  0  0  0
  5  6  1  0  0  0  0
  5 40  1  0  0  0  0
  6 11  1  0  0  0  0
  6  7  2  0  0  0  0
  7  8  1  0  0  0  0
  8  9  2  0  0  0  0
  8 41  1  0  0  0  0
  9 10  1  0  0  0  0
 10 14  1  0  0  0  0
 10 11  2  0  0  0  0
 11 12  1  0  0  0  0
 12 13  2  0  0  0  0
 13 14  1  0  0  0  0
 13 42  1  0  0  0  0
 14 15  1  0  0  0  0
 15 30  1  0  0  0  0
 15 22  1  0  0  0  0
 15 16  1  0  0  0  0
 16 17  1  0  0  0  0
 17 31  1  0  0  0  0
 17 18  1  0  0  0  0
 17 20  1  0  0  0  0
 18 19  1  0  0  0  0
 18 43  1  0  0  0  0
 18 44  1  0  0  0  0
 19 45  1  0  0  0  0
 20 32  1  0  0  0  0
 20 21  1  0  0  0  0
 20 22  1  0  0  0  0
 21 46  1  0  0  0  0
 22 33  1  0  0  0  0
 22 23  1  0  0  0  0
 23 47  1  0  0  0  0
 24 29  1  0  0  0  0
 24 25  1  0  0  0  0
 24 48  1  0  0  0  0
 25 26  1  0  0  0  0
 25 49  1  0  0  0  0
 25 50  1  0  0  0  0
 26 27  1  0  0  0  0
 26 51  1  0  0  0  0
 26 52  1  0  0  0  0
 27 28  1  0  0  0  0
 27 53  1  0  0  0  0
 27 54  1  0  0  0  0
 28 29  1  0  0  0  0
 28 55  1  0  0  0  0
 28 56  1  0  0  0  0
 29 57  1  0  0  0  0
 29 58  1  0  0  0  0
M  END
> <s_m_source_file>
AV-unprocessed.smi

> <i_m_source_file_index>
109

> <i_lp_mmshare_version>
43012

> <i_f3d_flags>
0

> <s_epik_input>
W0NIMl0xW0NIMl1bQ0gyXVtDSDJdW0NIMl1bQ0hdMVtDQEhdKFtDSDJdW0NIMl1bT0hdKVtOSF1jKG5bY0hdbjIpYyhjMjMpbltjSF1uM1tDQEBIXTRPW0NASF0oW0NIMl1bT0hdKVtDQEBIXShbT0hdKVtDQEhdNFtPSF0=

> <s_epik_cmdline>
J2VwaWtfcHl0aG9uJywgJy1waCcsICc3LjAnLCAnLXRuJywgJzgnLCAnLW1hJywgJzIwMCcsICctbWV0YWxfYmluZGluZycsICctaW1hZScsICc8aW5maWxlLm1hZT4nLCAnLW9tYWUnLCAnPG91dGZpbGUubWFlPic=

> <r_lp_tautomer_probability>
1

> <r_epik_Ionization_Penalty>
0.000793976

> <r_epik_Ionization_Penalty_Charging>
0

> <r_epik_Ionization_Penalty_Neutral>
0.000793976

> <r_epik_State_Penalty>
-0

> <r_epik_Charging_Adjusted_Penalty>
0

> <i_epik_Tot_Q>
0

> <i_epik_Tot_abs_Q>
0

> <r_epik_Metal_State_Penalty>
-0

> <b_epik_Metal_Only>
0

> <s_epik_Chemistry_Notes>
This compound contains an acetal/aminal-like group ( X-CH(R)-Y where X, Y are N, S, or O) that may be acid/base labile, releasing an aldehyde.

> <s_lp_Force_Field>
OPLS_2005

> <r_lp_Energy>
55.8609

> <b_lp_Chiralities_Consistent>
1

> <s_lp_Variant>
AV-unprocessed.smi:109-21

> <Gold.Version>
5.8.1

> <Gold.Id.Protein>
6NUR|6NUR_protein|mol2

> <Gold.PLP.Fitness>
48.8609

> <Gold.PLP.PLP>
-41.6784

> <Gold.PLP.part.hbond>
-4.0000

> <Gold.PLP.part.metal>
0.0000

> <Gold.PLP.part.buried>
-7.4295

> <Gold.PLP.part.nonpolar>
-31.0765

> <Gold.PLP.part.repulsive>
0.2858

> <Gold.PLP.ligand.clash>
0.0000

> <Gold.PLP.ligand.torsion>
1.1584

> <Gold.PLP.Chemscore.Hbond>
3.1300

> <Gold.PLP.Chemscore.CHOScore>
0.0000

> <Gold.PLP.Chemscore.Metal>
0.0000

> <Gold.Chemscore.Hbonds>
donor molecule, donor type, donor heavy atom, donor atom, acceptor molecule, acceptor atom, score
      L1  H    19    45       P1 10952  0.07
      L1  H    21    46       P1 10747  1.00
      P1  H  6896  6908       L1     1  1.00
      P1  H 10785 10796       L1    19  1.00

> <Gold.PLP.Chemscore.Internal.Correction>
0.1093

> <Gold.Rescore>
     Score         DG    S(hbond)    S(metal)    S(lipo)     H(rot)  DE(clash)    DE(int)     intcor
     10.67     -11.75       3.23        0.00      80.93       5.47       0.01       1.07       ----

> <Gold.Chemscore.Fitness>
10.6682

> <Gold.Chemscore.DG>
-11.7547

> <Gold.Chemscore.ZeroCoef>
-5.4800

> <Gold.Chemscore.Hbond>
3.2335

> <Gold.Chemscore.Metal>
0.0000

> <Gold.Chemscore.Lipo>
80.9256

> <Gold.Chemscore.Internal_Hbond>
0.0000

> <Gold.Chemscore.DEClash>
0.0126

> <Gold.Chemscore.DEInternal>
1.0739

> <Gold.Chemscore.Rot>
5.4662

> <Gold.Chemscore.Internal.Correction>
   9.000000E+99

> <Gold.Chemscore.Hbonds>
donor molecule, donor type, donor heavy atom, donor atom, acceptor molecule, acceptor atom, score
      L1  H    19    45       P1 10952  0.07
      L1  H    21    46       P1 10747  1.00
      P1  H  6896  6908       L1     1  0.94
      P1  H 10785 10796       L1    19  0.29

> <Gold.Chemscore.Hbond.Weighted>
-10.7999

> <Gold.Chemscore.Metal.Weighted>
-0.0000

> <Gold.Chemscore.Lipo.Weighted>
-9.4683

> <Gold.Chemscore.Internal_Hbond.Weighted>
0.0000

> <Gold.Chemscore.DEClash.Weighted>
0.0126

> <Gold.Chemscore.DEInternal.Weighted>
1.0739

> <Gold.Chemscore.Rot.Weighted>
13.9935

> <Gold.Chemscore.Internal.Correction.Weighted>
   9.000000E+99

> <Gold.Protein.RotatedTorsions>
[ 6907 6896 6895 6894 ] final -116.17 input  -60.11 | X-H torsion
[ 7974 7965 7964 7962 ] final   76.99 input  175.53 | X-H torsion
[ 8008 7997 7996 7995 ] final  -13.09 input   59.86 | X-H torsion
[ 10167 10162 10161 10158 ] final  162.24 input  -65.29 | X-H torsion
[ 10718 10713 10712 10709 ] final  132.70 input   66.30 | X-H torsion
[ 10763 10752 10751 10750 ] final  -35.72 input  -60.55 | X-H torsion
[ 11005 11000 10999 10996 ] final  160.81 input  -57.11 | X-H torsion

> <Gold.Protein.ActiveResidues>
 VAL166  LYS551  ARG553  GLY616  TRP617  ASP618  TYR619  PRO620  LYS621  CYS622 
 ASP623  PHE694  ASN695  SER759  ASP760  ASP761  ALA762  ILE779  LEU786  VAL792 
 PHE793  MET794  SER795  GLU796  ALA797  LYS798  CYS799  TRP800  GLU811  SER814 

> <Gold.Protein.RotatedAtoms>
  150.8035  133.8555  159.3216 H   0  0  0  0  0  0  0  0  0  0  0  0  # atno 6907 bound_to 6896
  151.6360  135.1016  160.0141 H   0  0  0  0  0  0  0  0  0  0  0  0  # atno 6908 bound_to 6896
  152.4124  133.6944  159.6444 H   0  0  0  0  0  0  0  0  0  0  0  0  # atno 6909 bound_to 6896
  145.6957  139.2566  143.1734 H   0  0  0  0  0  0  0  0  0  0  0  0  # atno 7974 bound_to 7965
  154.5322  140.2259  155.8785 H   0  0  0  0  0  0  0  0  0  0  0  0  # atno 8008 bound_to 7997
  156.1775  140.3108  155.9050 H   0  0  0  0  0  0  0  0  0  0  0  0  # atno 8009 bound_to 7997
  155.3428  140.0451  157.3036 H   0  0  0  0  0  0  0  0  0  0  0  0  # atno 8010 bound_to 7997
  139.4858  144.4457  151.8895 H   0  0  0  0  0  0  0  0  0  0  0  0  # atno 10167 bound_to 10162
  157.4846  131.1087  150.9637 H   0  0  0  0  0  0  0  0  0  0  0  0  # atno 10718 bound_to 10713
  153.8678  135.6834  153.4777 H   0  0  0  0  0  0  0  0  0  0  0  0  # atno 10763 bound_to 10752
  153.1304  135.4700  154.9338 H   0  0  0  0  0  0  0  0  0  0  0  0  # atno 10764 bound_to 10752
  154.7728  135.3244  154.8104 H   0  0  0  0  0  0  0  0  0  0  0  0  # atno 10765 bound_to 10752
  140.2096  134.8277  157.3106 H   0  0  0  0  0  0  0  0  0  0  0  0  # atno 11005 bound_to 11000
  146.0842  140.7730  142.9627 LP  0  0  0  0  0  0  0  0  0  0  0  0  # atno 17320 bound_to 7965
  144.6983  140.3536  143.7177 LP  0  0  0  0  0  0  0  0  0  0  0  0  # atno 17321 bound_to 7965
  140.3911  144.2614  150.5899 LP  0  0  0  0  0  0  0  0  0  0  0  0  # atno 17342 bound_to 10162
  140.5145  143.2282  151.8484 LP  0  0  0  0  0  0  0  0  0  0  0  0  # atno 17343 bound_to 10162
  157.0359  130.5730  149.5349 LP  0  0  0  0  0  0  0  0  0  0  0  0  # atno 17370 bound_to 10713
  156.0140  130.5233  150.8076 LP  0  0  0  0  0  0  0  0  0  0  0  0  # atno 17371 bound_to 10713
  140.1965  134.4307  155.7686 LP  0  0  0  0  0  0  0  0  0  0  0  0  # atno 17394 bound_to 11000
  141.2226  133.7051  156.8113 LP  0  0  0  0  0  0  0  0  0  0  0  0  # atno 17395 bound_to 11000

$$$$
