AV-unprocessed.smi:3243|AV-procd|sdf|12397|dock7
  -GOLD-   2272018273D 1   1.00000     0.00000
 Structure written by MMmdl.
 37 38  0  0  0  0  0  0  0  0  1 V2000
  151.6992  145.4908  159.7280 C   0  0  0  0  0  0  0  0  0  0  0  0
  152.4643  144.7652  158.6119 C   0  0  0  0  0  0  0  0  0  0  0  0
  151.9721  145.1351  157.2054 C   0  0  0  0  0  0  0  0  0  0  0  0
  152.5007  143.2845  158.8251 C   0  0  0  0  0  0  0  0  0  0  0  0
  153.1661  142.6937  159.8227 N   0  0  0  0  0  0  0  0  0  0  0  0
  153.0467  141.3008  159.8027 C   0  0  0  0  0  0  0  0  0  0  0  0
  153.7273  140.4765  160.8530 C   0  0  0  0  0  0  0  0  0  0  0  0
  153.5674  138.9705  160.6039 C   0  0  0  0  0  0  0  0  0  0  0  0
  154.0399  138.2070  161.7509 N   0  0  0  0  0  0  0  0  0  0  0  0
  154.0137  136.8694  161.8356 C   0  0  0  0  0  0  0  0  0  0  0  0
  153.5829  136.1496  160.9335 O   0  0  0  0  0  0  0  0  0  0  0  0
  154.5532  136.3333  163.1217 C   0  0  1  0  0  0  0  0  0  0  0  0
  153.9620  136.8734  164.4080 C   0  0  0  0  0  0  0  0  0  0  0  0
  153.6384  135.4667  163.9671 C   0  0  2  0  0  0  0  0  0  0  0  0
  154.1915  134.2722  164.7139 C   0  0  0  0  0  0  0  0  0  0  0  0
  152.2727  140.8393  158.7675 C   0  0  0  0  0  0  0  0  0  0  0  0
  151.6670  142.1397  157.7794 S   0  0  0  0  0  0  0  0  0  0  0  0
  152.1284  145.2697  160.7056 H   0  0  0  0  0  0  0  0  0  0  0  0
  150.6508  145.1918  159.7492 H   0  0  0  0  0  0  0  0  0  0  0  0
  151.7333  146.5716  159.5893 H   0  0  0  0  0  0  0  0  0  0  0  0
  153.4975  145.1090  158.6751 H   0  0  0  0  0  0  0  0  0  0  0  0
  152.5891  144.6665  156.4381 H   0  0  0  0  0  0  0  0  0  0  0  0
  152.0107  146.2131  157.0466 H   0  0  0  0  0  0  0  0  0  0  0  0
  150.9423  144.8128  157.0481 H   0  0  0  0  0  0  0  0  0  0  0  0
  154.7882  140.7275  160.8902 H   0  0  0  0  0  0  0  0  0  0  0  0
  153.3264  140.7272  161.8362 H   0  0  0  0  0  0  0  0  0  0  0  0
  152.5198  138.7291  160.4169 H   0  0  0  0  0  0  0  0  0  0  0  0
  154.1303  138.6769  159.7163 H   0  0  0  0  0  0  0  0  0  0  0  0
  154.4074  138.7295  162.5329 H   0  0  0  0  0  0  0  0  0  0  0  0
  155.6150  136.0917  163.1380 H   0  0  0  0  0  0  0  0  0  0  0  0
  154.6454  137.0082  165.2438 H   0  0  0  0  0  0  0  0  0  0  0  0
  153.1647  137.6119  164.3452 H   0  0  0  0  0  0  0  0  0  0  0  0
  152.6258  135.3088  163.5989 H   0  0  0  0  0  0  0  0  0  0  0  0
  155.2038  134.4702  165.0677 H   0  0  0  0  0  0  0  0  0  0  0  0
  154.2161  133.4006  164.0599 H   0  0  0  0  0  0  0  0  0  0  0  0
  153.5613  134.0444  165.5738 H   0  0  0  0  0  0  0  0  0  0  0  0
  152.0216  139.8165  158.5280 H   0  0  0  0  0  0  0  0  0  0  0  0
  1  2  1  0  0  0  0
  1 18  1  0  0  0  0
  1 19  1  0  0  0  0
  1 20  1  0  0  0  0
  2  3  1  0  0  0  0
  2  4  1  0  0  0  0
  2 21  1  0  0  0  0
  3 22  1  0  0  0  0
  3 23  1  0  0  0  0
  3 24  1  0  0  0  0
  4 17  1  0  0  0  0
  4  5  2  0  0  0  0
  5  6  1  0  0  0  0
  6  7  1  0  0  0  0
  6 16  2  0  0  0  0
  7  8  1  0  0  0  0
  7 25  1  0  0  0  0
  7 26  1  0  0  0  0
  8  9  1  0  0  0  0
  8 27  1  0  0  0  0
  8 28  1  0  0  0  0
  9 10  1  0  0  0  0
  9 29  1  0  0  0  0
 10 11  2  0  0  0  0
 10 12  1  0  0  0  0
 12 14  1  0  0  0  0
 12 13  1  0  0  0  0
 12 30  1  0  0  0  0
 13 14  1  0  0  0  0
 13 31  1  0  0  0  0
 13 32  1  0  0  0  0
 14 15  1  0  0  0  0
 14 33  1  0  0  0  0
 15 34  1  0  0  0  0
 15 35  1  0  0  0  0
 15 36  1  0  0  0  0
 16 17  1  0  0  0  0
 16 37  1  0  0  0  0
M  END
> <s_m_source_file>
AV-unprocessed.smi

> <i_m_source_file_index>
3243

> <i_lp_mmshare_version>
43012

> <i_f3d_flags>
0

> <s_epik_input>
W0NIM11bQ0hdKFtDSDNdKWMxbmMoW2NIXXMxKVtDSDJdW0NIMl1bTkhdQyg9TylbQ0BASF0yW0NIMl1bQ0BIXTJbQ0gzXQ==

> <s_epik_cmdline>
J2VwaWtfcHl0aG9uJywgJy1waCcsICc3LjAnLCAnLXRuJywgJzgnLCAnLW1hJywgJzIwMCcsICctbWV0YWxfYmluZGluZycsICctaW1hZScsICc8aW5maWxlLm1hZT4nLCAnLW9tYWUnLCAnPG91dGZpbGUubWFlPic=

> <r_epik_Ionization_Penalty>
0.00084212

> <r_epik_Ionization_Penalty_Charging>
0

> <r_epik_Ionization_Penalty_Neutral>
0.00084212

> <r_epik_State_Penalty>
0.000542609

> <r_epik_Charging_Adjusted_Penalty>
0.000542609

> <i_epik_Tot_Q>
0

> <i_epik_Tot_abs_Q>
0

> <r_epik_Metal_State_Penalty>
-0

> <b_epik_Metal_Only>
0

> <s_lp_Force_Field>
OPLS_2005

> <r_lp_Energy>
-2.05964

> <b_lp_Chiralities_Consistent>
1

> <s_lp_Variant>
AV-unprocessed.smi:3243-4

> <Gold.Version>
5.8.1

> <Gold.Id.Protein>
6NUR|6NUR_protein|mol2

> <Gold.PLP.Fitness>
43.0901

> <Gold.PLP.PLP>
-40.6604

> <Gold.PLP.part.hbond>
-1.0000

> <Gold.PLP.part.metal>
0.0000

> <Gold.PLP.part.buried>
-5.3541

> <Gold.PLP.part.nonpolar>
-35.6833

> <Gold.PLP.part.repulsive>
0.0032

> <Gold.PLP.ligand.clash>
0.0000

> <Gold.PLP.ligand.torsion>
0.3474

> <Gold.PLP.Chemscore.Hbond>
0.9913

> <Gold.PLP.Chemscore.CHOScore>
0.0000

> <Gold.PLP.Chemscore.Metal>
0.0000

> <Gold.Chemscore.Hbonds>
donor molecule, donor type, donor heavy atom, donor atom, acceptor molecule, acceptor atom, score
      P1  H  6896  6907       L1    11  1.00

> <Gold.PLP.Chemscore.Internal.Correction>
0.1508

> <Gold.Rescore>
     Score         DG    S(hbond)    S(metal)    S(lipo)     H(rot)  DE(clash)    DE(int)     intcor
     17.96     -20.15       0.98        0.00     129.97       1.49       1.76       0.43       ----

> <Gold.Chemscore.Fitness>
17.9641

> <Gold.Chemscore.DG>
-20.1539

> <Gold.Chemscore.ZeroCoef>
-5.4800

> <Gold.Chemscore.Hbond>
0.9801

> <Gold.Chemscore.Metal>
0.0000

> <Gold.Chemscore.Lipo>
129.9738

> <Gold.Chemscore.Internal_Hbond>
0.0000

> <Gold.Chemscore.DEClash>
1.7617

> <Gold.Chemscore.DEInternal>
0.4281

> <Gold.Chemscore.Rot>
1.4870

> <Gold.Chemscore.Internal.Correction>
   9.000000E+99

> <Gold.Chemscore.Hbonds>
donor molecule, donor type, donor heavy atom, donor atom, acceptor molecule, acceptor atom, score
      P1  H  6896  6907       L1    11  0.94

> <Gold.Chemscore.Hbond.Weighted>
-3.2737

> <Gold.Chemscore.Metal.Weighted>
-0.0000

> <Gold.Chemscore.Lipo.Weighted>
-15.2069

> <Gold.Chemscore.Internal_Hbond.Weighted>
0.0000

> <Gold.Chemscore.DEClash.Weighted>
1.7617

> <Gold.Chemscore.DEInternal.Weighted>
0.4281

> <Gold.Chemscore.Rot.Weighted>
3.8067

> <Gold.Chemscore.Internal.Correction.Weighted>
   9.000000E+99

> <Gold.Protein.RotatedTorsions>
[ 6907 6896 6895 6894 ] final   49.78 input  -60.11 | X-H torsion
[ 7974 7965 7964 7962 ] final  151.03 input  175.53 | X-H torsion
[ 8008 7997 7996 7995 ] final  -81.27 input   59.86 | X-H torsion
[ 10167 10162 10161 10158 ] final  130.47 input  -65.29 | X-H torsion
[ 10718 10713 10712 10709 ] final   19.72 input   66.30 | X-H torsion
[ 10763 10752 10751 10750 ] final -176.40 input  -60.55 | X-H torsion
[ 11005 11000 10999 10996 ] final   18.77 input  -57.11 | X-H torsion

> <Gold.Protein.ActiveResidues>
 VAL166  LYS551  ARG553  GLY616  TRP617  ASP618  TYR619  PRO620  LYS621  CYS622 
 ASP623  PHE694  ASN695  SER759  ASP760  ASP761  ALA762  ILE779  LEU786  VAL792 
 PHE793  MET794  SER795  GLU796  ALA797  LYS798  CYS799  TRP800  GLU811  SER814 

> <Gold.Protein.RotatedAtoms>
  152.2946  134.7682  160.0370 H   0  0  0  0  0  0  0  0  0  0  0  0  # atno 6907 bound_to 6896
  151.8216  133.3390  159.3594 H   0  0  0  0  0  0  0  0  0  0  0  0  # atno 6908 bound_to 6896
  150.7245  134.5497  159.5833 H   0  0  0  0  0  0  0  0  0  0  0  0  # atno 6909 bound_to 6896
  144.8321  139.6485  143.6054 H   0  0  0  0  0  0  0  0  0  0  0  0  # atno 7974 bound_to 7965
  154.5966  140.0650  156.9312 H   0  0  0  0  0  0  0  0  0  0  0  0  # atno 8008 bound_to 7997
  155.2203  140.3329  155.4298 H   0  0  0  0  0  0  0  0  0  0  0  0  # atno 8009 bound_to 7997
  156.2291  140.1833  156.7272 H   0  0  0  0  0  0  0  0  0  0  0  0  # atno 8010 bound_to 7997
  139.5428  144.6746  151.4569 H   0  0  0  0  0  0  0  0  0  0  0  0  # atno 10167 bound_to 10162
  157.1144  130.6522  149.5906 H   0  0  0  0  0  0  0  0  0  0  0  0  # atno 10718 bound_to 10713
  154.5728  135.2829  155.0811 H   0  0  0  0  0  0  0  0  0  0  0  0  # atno 10763 bound_to 10752
  154.2177  135.6397  153.5138 H   0  0  0  0  0  0  0  0  0  0  0  0  # atno 10764 bound_to 10752
  153.0063  135.5507  154.6356 H   0  0  0  0  0  0  0  0  0  0  0  0  # atno 10765 bound_to 10752
  140.4211  134.1518  155.7673 H   0  0  0  0  0  0  0  0  0  0  0  0  # atno 11005 bound_to 11000
  146.2623  139.6439  142.9353 LP  0  0  0  0  0  0  0  0  0  0  0  0  # atno 17320 bound_to 7965
  145.4873  141.0438  143.2612 LP  0  0  0  0  0  0  0  0  0  0  0  0  # atno 17321 bound_to 7965
  140.6665  143.8386  150.6948 LP  0  0  0  0  0  0  0  0  0  0  0  0  # atno 17342 bound_to 10162
  140.1797  143.4125  152.1941 LP  0  0  0  0  0  0  0  0  0  0  0  0  # atno 17343 bound_to 10162
  155.9843  130.4867  150.6975 LP  0  0  0  0  0  0  0  0  0  0  0  0  # atno 17370 bound_to 10713
  157.4531  131.0875  151.0825 LP  0  0  0  0  0  0  0  0  0  0  0  0  # atno 17371 bound_to 10713
  141.1784  133.8466  157.1344 LP  0  0  0  0  0  0  0  0  0  0  0  0  # atno 17394 bound_to 11000
  140.0200  134.9950  157.0571 LP  0  0  0  0  0  0  0  0  0  0  0  0  # atno 17395 bound_to 11000

$$$$
