AV-unprocessed.smi:264|AV-procd|sdf|2014|dock5
  -GOLD-   2262021213D 1   1.00000     0.00000
 Structure written by MMmdl.
 52 56  0  0  0  0  0  0  0  0  1 V2000
  153.0981  141.5211  158.9964 C   0  0  0  0  0  0  0  0  0  0  0  0
  152.0480  142.5507  159.4429 C   0  0  1  0  0  0  0  0  0  0  0  0
  152.7424  143.7279  159.8484 O   0  0  0  0  0  0  0  0  0  0  0  0
  151.9209  144.8542  159.5978 C   0  0  0  0  0  0  0  0  0  0  0  0
  151.3018  144.5118  158.2517 C   0  0  0  0  0  0  0  0  0  0  0  0
  151.0204  143.0162  158.3720 C   0  0  2  0  0  0  0  0  0  0  0  0
  149.7238  142.8640  158.9248 O   0  0  0  0  0  0  0  0  0  0  0  0
  151.0544  142.2669  157.0139 C   0  0  0  0  0  0  0  0  0  0  0  0
  150.7847  140.8416  157.1300 N   0  0  0  0  0  0  0  0  0  0  0  0
  150.5300  140.1417  158.2878 C   0  0  0  0  0  0  0  0  0  0  0  0
  150.3119  138.8648  158.1303 N   0  0  0  0  0  0  0  0  0  0  0  0
  150.4210  138.6684  156.7586 C   0  0  0  0  0  0  0  0  0  0  0  0
  150.2914  137.5354  155.9071 C   0  0  0  0  0  0  0  0  0  0  0  0
  150.0175  136.2935  156.3805 N   0  0  0  0  0  0  0  0  0  0  0  0
  149.4309  136.2616  157.7141 C   0  0  0  0  0  0  0  0  0  0  0  0
  148.8342  134.8745  157.9894 C   0  0  0  0  0  0  0  0  0  0  0  0
  149.8164  133.8609  157.7785 O   0  0  0  0  0  0  0  0  0  0  0  0
  150.4144  133.8538  156.4759 C   0  0  2  0  0  0  0  0  0  0  0  0
  149.4600  133.3354  155.4041 C   0  0  0  0  0  0  0  0  0  0  0  0
  149.5307  131.8305  155.6155 C   0  0  0  0  0  0  0  0  0  0  0  0
  150.9031  131.5906  155.8876 O   0  0  0  0  0  0  0  0  0  0  0  0
  151.4835  132.7489  156.4837 C   0  0  0  0  0  0  0  0  0  0  0  0
  151.0122  135.2451  156.1743 C   0  0  0  0  0  0  0  0  0  0  0  0
  150.4497  137.7360  154.5712 N   0  0  0  0  0  0  0  0  0  0  0  0
  150.7223  138.9562  154.0993 C   0  0  0  0  0  0  0  0  0  0  0  0
  150.8721  140.0974  154.7739 N   0  0  0  0  0  0  0  0  0  0  0  0
  150.7106  139.9044  156.1141 C   0  0  0  0  0  0  0  0  0  0  0  0
  152.6331  140.5861  158.6835 H   0  0  0  0  0  0  0  0  0  0  0  0
  153.7780  141.2871  159.8159 H   0  0  0  0  0  0  0  0  0  0  0  0
  153.7028  141.8966  158.1707 H   0  0  0  0  0  0  0  0  0  0  0  0
  151.5313  142.1546  160.3192 H   0  0  0  0  0  0  0  0  0  0  0  0
  151.1586  144.9380  160.3740 H   0  0  0  0  0  0  0  0  0  0  0  0
  152.4987  145.7782  159.5751 H   0  0  0  0  0  0  0  0  0  0  0  0
  150.4202  145.1109  158.0181 H   0  0  0  0  0  0  0  0  0  0  0  0
  152.0424  144.6924  157.4716 H   0  0  0  0  0  0  0  0  0  0  0  0
  149.5244  143.6325  159.4372 H   0  0  0  0  0  0  0  0  0  0  0  0
  150.3154  142.6839  156.3291 H   0  0  0  0  0  0  0  0  0  0  0  0
  152.0257  142.3928  156.5340 H   0  0  0  0  0  0  0  0  0  0  0  0
  150.5112  140.6107  159.2609 H   0  0  0  0  0  0  0  0  0  0  0  0
  150.2083  136.4839  158.4465 H   0  0  0  0  0  0  0  0  0  0  0  0
  148.6585  137.0207  157.8334 H   0  0  0  0  0  0  0  0  0  0  0  0
  148.4913  134.8171  159.0222 H   0  0  0  0  0  0  0  0  0  0  0  0
  147.9571  134.7024  157.3667 H   0  0  0  0  0  0  0  0  0  0  0  0
  148.4454  133.7255  155.4637 H   0  0  0  0  0  0  0  0  0  0  0  0
  149.8436  133.5770  154.4120 H   0  0  0  0  0  0  0  0  0  0  0  0
  148.9342  131.5341  156.4795 H   0  0  0  0  0  0  0  0  0  0  0  0
  149.1879  131.2639  154.7496 H   0  0  0  0  0  0  0  0  0  0  0  0
  152.3462  133.0316  155.8791 H   0  0  0  0  0  0  0  0  0  0  0  0
  151.8465  132.5321  157.4891 H   0  0  0  0  0  0  0  0  0  0  0  0
  151.3898  135.2763  155.1512 H   0  0  0  0  0  0  0  0  0  0  0  0
  151.8605  135.4311  156.8350 H   0  0  0  0  0  0  0  0  0  0  0  0
  150.8369  139.0281  153.0278 H   0  0  0  0  0  0  0  0  0  0  0  0
  1  2  1  0  0  0  0
  1 28  1  0  0  0  0
  1 29  1  0  0  0  0
  1 30  1  0  0  0  0
  2  6  1  0  0  0  0
  2  3  1  0  0  0  0
  2 31  1  0  0  0  0
  3  4  1  0  0  0  0
  4  5  1  0  0  0  0
  4 32  1  0  0  0  0
  4 33  1  0  0  0  0
  5  6  1  0  0  0  0
  5 34  1  0  0  0  0
  5 35  1  0  0  0  0
  6  7  1  0  0  0  0
  6  8  1  0  0  0  0
  7 36  1  0  0  0  0
  8  9  1  0  0  0  0
  8 37  1  0  0  0  0
  8 38  1  0  0  0  0
  9 27  1  0  0  0  0
  9 10  1  0  0  0  0
 10 11  2  0  0  0  0
 10 39  1  0  0  0  0
 11 12  1  0  0  0  0
 12 27  2  0  0  0  0
 12 13  1  0  0  0  0
 13 14  1  0  0  0  0
 13 24  2  0  0  0  0
 14 23  1  0  0  0  0
 14 15  1  0  0  0  0
 15 16  1  0  0  0  0
 15 40  1  0  0  0  0
 15 41  1  0  0  0  0
 16 17  1  0  0  0  0
 16 42  1  0  0  0  0
 16 43  1  0  0  0  0
 17 18  1  0  0  0  0
 18 22  1  0  0  0  0
 18 19  1  0  0  0  0
 18 23  1  0  0  0  0
 19 20  1  0  0  0  0
 19 44  1  0  0  0  0
 19 45  1  0  0  0  0
 20 21  1  0  0  0  0
 20 46  1  0  0  0  0
 20 47  1  0  0  0  0
 21 22  1  0  0  0  0
 22 48  1  0  0  0  0
 22 49  1  0  0  0  0
 23 50  1  0  0  0  0
 23 51  1  0  0  0  0
 24 25  1  0  0  0  0
 25 26  2  0  0  0  0
 25 52  1  0  0  0  0
 26 27  1  0  0  0  0
M  END
> <s_m_source_file>
AV-unprocessed.smi

> <i_m_source_file_index>
264

> <i_lp_mmshare_version>
43012

> <i_f3d_flags>
0

> <s_epik_input>
W0NIMl0xW0NIMl1PW0NAQEhdKFtDSDNdKVtDQEBdMShbT0hdKVtDSDJdbihbY0hdbjIpYyhjMjMpbltjSF1uYzNOKFtDSDJdNClbQ0gyXVtDSDJdT1tDQF00NVtDSDJdW0NIMl1PW0NIMl01

> <s_epik_cmdline>
J2VwaWtfcHl0aG9uJywgJy1waCcsICc3LjAnLCAnLXRuJywgJzgnLCAnLW1hJywgJzIwMCcsICctbWV0YWxfYmluZGluZycsICctaW1hZScsICc8aW5maWxlLm1hZT4nLCAnLW9tYWUnLCAnPG91dGZpbGUubWFlPic=

> <r_lp_tautomer_probability>
1

> <r_epik_Ionization_Penalty>
0.00539389

> <r_epik_Ionization_Penalty_Charging>
0

> <r_epik_Ionization_Penalty_Neutral>
0.00539389

> <r_epik_State_Penalty>
0.00375441

> <r_epik_Charging_Adjusted_Penalty>
0.00375441

> <i_epik_Tot_Q>
0

> <i_epik_Tot_abs_Q>
0

> <r_epik_Metal_State_Penalty>
-0

> <b_epik_Metal_Only>
0

> <s_lp_Force_Field>
OPLS_2005

> <r_lp_Energy>
54.0321

> <b_lp_Chiralities_Consistent>
1

> <s_lp_Variant>
AV-unprocessed.smi:264-8

> <Gold.Version>
5.8.1

> <Gold.Id.Protein>
6NUR|6NUR_protein|mol2

> <Gold.PLP.Fitness>
44.9205

> <Gold.PLP.PLP>
-40.0789

> <Gold.PLP.part.hbond>
-2.5656

> <Gold.PLP.part.metal>
0.0000

> <Gold.PLP.part.buried>
-7.2987

> <Gold.PLP.part.nonpolar>
-29.9498

> <Gold.PLP.part.repulsive>
0.2857

> <Gold.PLP.ligand.clash>
2.9640

> <Gold.PLP.ligand.torsion>
0.2878

> <Gold.PLP.Chemscore.Hbond>
1.7000

> <Gold.PLP.Chemscore.CHOScore>
1.0000

> <Gold.PLP.Chemscore.Metal>
0.0000

> <Gold.Chemscore.Hbonds>
donor molecule, donor type, donor heavy atom, donor atom, acceptor molecule, acceptor atom, score
      P1  H  6896  6909       L1    17  1.00
      P1  H  7989  7998       L1    26  0.70
      L1  C    25    52       P1  7957  1.00

> <Gold.PLP.Chemscore.Internal.Correction>
0.2811

> <Gold.Rescore>
     Score         DG    S(hbond)    S(metal)    S(lipo)     H(rot)  DE(clash)    DE(int)     intcor
     10.09     -16.00       1.50        0.00      93.27       2.11       0.47       5.44       ----

> <Gold.Chemscore.Fitness>
10.0917

> <Gold.Chemscore.DG>
-16.0027

> <Gold.Chemscore.ZeroCoef>
-5.4800

> <Gold.Chemscore.Hbond>
1.4977

> <Gold.Chemscore.Metal>
0.0000

> <Gold.Chemscore.Lipo>
93.2691

> <Gold.Chemscore.Internal_Hbond>
0.0000

> <Gold.Chemscore.DEClash>
0.4666

> <Gold.Chemscore.DEInternal>
5.4443

> <Gold.Chemscore.Rot>
2.1063

> <Gold.Chemscore.Internal.Correction>
   9.000000E+99

> <Gold.Chemscore.Hbonds>
donor molecule, donor type, donor heavy atom, donor atom, acceptor molecule, acceptor atom, score
      P1  H  6896  6909       L1    17  0.54
      P1  H  7989  7998       L1    26  0.07

> <Gold.Chemscore.Hbond.Weighted>
-5.0023

> <Gold.Chemscore.Metal.Weighted>
-0.0000

> <Gold.Chemscore.Lipo.Weighted>
-10.9125

> <Gold.Chemscore.Internal_Hbond.Weighted>
0.0000

> <Gold.Chemscore.DEClash.Weighted>
0.4666

> <Gold.Chemscore.DEInternal.Weighted>
5.4443

> <Gold.Chemscore.Rot.Weighted>
5.3921

> <Gold.Chemscore.Internal.Correction.Weighted>
   9.000000E+99

> <Gold.Protein.RotatedTorsions>
[ 6907 6896 6895 6894 ] final   -0.44 input  -60.11 | X-H torsion
[ 7974 7965 7964 7962 ] final  -55.75 input  175.53 | X-H torsion
[ 8008 7997 7996 7995 ] final   60.27 input   59.86 | X-H torsion
[ 10167 10162 10161 10158 ] final -136.76 input  -65.29 | X-H torsion
[ 10718 10713 10712 10709 ] final  122.83 input   66.30 | X-H torsion
[ 10763 10752 10751 10750 ] final -125.07 input  -60.55 | X-H torsion
[ 11005 11000 10999 10996 ] final  -50.99 input  -57.11 | X-H torsion

> <Gold.Protein.ActiveResidues>
 VAL166  LYS551  ARG553  GLY616  TRP617  ASP618  TYR619  PRO620  LYS621  CYS622 
 ASP623  PHE694  ASN695  SER759  ASP760  ASP761  ALA762  ILE779  LEU786  VAL792 
 PHE793  MET794  SER795  GLU796  ALA797  LYS798  CYS799  TRP800  GLU811  SER814 

> <Gold.Protein.RotatedAtoms>
  151.5622  135.1065  159.9974 H   0  0  0  0  0  0  0  0  0  0  0  0  # atno 6907 bound_to 6896
  152.4441  133.7499  159.6699 H   0  0  0  0  0  0  0  0  0  0  0  0  # atno 6908 bound_to 6896
  150.8353  133.7956  159.3106 H   0  0  0  0  0  0  0  0  0  0  0  0  # atno 6909 bound_to 6896
  145.8706  140.8219  142.9890 H   0  0  0  0  0  0  0  0  0  0  0  0  # atno 7974 bound_to 7965
  155.5796  140.3491  155.4536 H   0  0  0  0  0  0  0  0  0  0  0  0  # atno 8008 bound_to 7997
  156.0383  140.1290  157.0208 H   0  0  0  0  0  0  0  0  0  0  0  0  # atno 8009 bound_to 7997
  154.4381  140.1029  156.6186 H   0  0  0  0  0  0  0  0  0  0  0  0  # atno 8010 bound_to 7997
  139.8646  143.7034  152.2646 H   0  0  0  0  0  0  0  0  0  0  0  0  # atno 10167 bound_to 10162
  157.5712  131.1083  150.8363 H   0  0  0  0  0  0  0  0  0  0  0  0  # atno 10718 bound_to 10713
  154.8731  135.4042  154.3208 H   0  0  0  0  0  0  0  0  0  0  0  0  # atno 10763 bound_to 10752
  153.4037  135.7019  153.6413 H   0  0  0  0  0  0  0  0  0  0  0  0  # atno 10764 bound_to 10752
  153.5145  135.3700  155.2573 H   0  0  0  0  0  0  0  0  0  0  0  0  # atno 10765 bound_to 10752
  141.0847  133.6645  156.3812 H   0  0  0  0  0  0  0  0  0  0  0  0  # atno 11005 bound_to 11000
  144.6726  140.1233  143.7448 LP  0  0  0  0  0  0  0  0  0  0  0  0  # atno 17320 bound_to 7965
  145.9141  139.2505  143.1420 LP  0  0  0  0  0  0  0  0  0  0  0  0  # atno 17321 bound_to 7965
  139.7341  144.7575  151.0755 LP  0  0  0  0  0  0  0  0  0  0  0  0  # atno 17342 bound_to 10162
  140.7770  143.5052  150.9721 LP  0  0  0  0  0  0  0  0  0  0  0  0  # atno 17343 bound_to 10162
  156.8835  130.5187  149.5289 LP  0  0  0  0  0  0  0  0  0  0  0  0  # atno 17370 bound_to 10713
  156.0757  130.5780  150.9469 LP  0  0  0  0  0  0  0  0  0  0  0  0  # atno 17371 bound_to 10713
  140.5391  134.6138  157.5374 LP  0  0  0  0  0  0  0  0  0  0  0  0  # atno 17394 bound_to 11000
  139.9663  134.7367  156.0131 LP  0  0  0  0  0  0  0  0  0  0  0  0  # atno 17395 bound_to 11000

$$$$
