AV-unprocessed.smi:3133|AV-procd|sdf|11938|dock8
  -GOLD-   2272017323D 1   1.00000     0.00000
 Structure written by MMmdl.
 32 33  0  0  0  0  0  0  0  0  1 V2000
  148.7699  140.0794  156.5218 C   0  0  0  0  0  0  0  0  0  0  0  0
  150.0502  140.6741  155.9001 C   0  0  1  0  0  0  0  0  0  0  0  0
  150.7515  141.6671  156.8376 C   0  0  0  0  0  0  0  0  0  0  0  0
  151.3869  141.2654  157.8129 O   0  0  0  0  0  0  0  0  0  0  0  0
  150.6494  142.9643  156.5079 N   0  0  0  0  0  0  0  0  0  0  0  0
  151.3264  144.0658  157.1826 C   0  0  0  0  0  0  0  0  0  0  0  0
  151.2920  143.8862  158.7095 C   0  0  2  0  0  0  0  0  0  0  0  0
  151.4374  145.1743  159.5197 C   0  0  0  0  0  0  0  0  0  0  0  0
  151.9845  144.6911  160.8530 C   0  0  0  0  0  0  0  0  0  0  0  0
  152.4993  143.2784  160.5576 C   0  0  0  0  0  0  0  0  0  0  0  0
  152.4067  143.1276  159.1473 O   0  0  0  0  0  0  0  0  0  0  0  0
  150.9978  139.6500  155.4754 N   0  0  0  0  0  0  0  0  0  0  0  0
  150.8708  138.3212  155.4609 C   0  0  0  0  0  0  0  0  0  0  0  0
  151.9141  137.6847  154.9477 N   0  0  0  0  0  0  0  0  0  0  0  0
  152.7001  138.7556  154.6295 C   0  0  0  0  0  0  0  0  0  0  0  0
  152.1936  139.9557  154.9115 N   0  0  0  0  0  0  0  0  0  0  0  0
  148.0621  140.8655  156.7866 H   0  0  0  0  0  0  0  0  0  0  0  0
  148.9777  139.5064  157.4265 H   0  0  0  0  0  0  0  0  0  0  0  0
  148.2693  139.4144  155.8175 H   0  0  0  0  0  0  0  0  0  0  0  0
  149.7484  141.2189  155.0039 H   0  0  0  0  0  0  0  0  0  0  0  0
  150.0997  143.2028  155.6953 H   0  0  0  0  0  0  0  0  0  0  0  0
  152.3617  144.0822  156.8414 H   0  0  0  0  0  0  0  0  0  0  0  0
  150.8971  145.0285  156.8997 H   0  0  0  0  0  0  0  0  0  0  0  0
  150.3797  143.3637  159.0045 H   0  0  0  0  0  0  0  0  0  0  0  0
  152.1640  145.8361  159.0466 H   0  0  0  0  0  0  0  0  0  0  0  0
  150.4989  145.7213  159.6177 H   0  0  0  0  0  0  0  0  0  0  0  0
  152.7787  145.3473  161.2105 H   0  0  0  0  0  0  0  0  0  0  0  0
  151.2044  144.6617  161.6144 H   0  0  0  0  0  0  0  0  0  0  0  0
  153.5236  143.1265  160.8985 H   0  0  0  0  0  0  0  0  0  0  0  0
  151.8662  142.5323  161.0398 H   0  0  0  0  0  0  0  0  0  0  0  0
  149.9930  137.8093  155.8268 H   0  0  0  0  0  0  0  0  0  0  0  0
  153.6712  138.6482  154.1689 H   0  0  0  0  0  0  0  0  0  0  0  0
  1  2  1  0  0  0  0
  1 17  1  0  0  0  0
  1 18  1  0  0  0  0
  1 19  1  0  0  0  0
  2  3  1  0  0  0  0
  2 12  1  0  0  0  0
  2 20  1  0  0  0  0
  3  4  2  0  0  0  0
  3  5  1  0  0  0  0
  5  6  1  0  0  0  0
  5 21  1  0  0  0  0
  6  7  1  0  0  0  0
  6 22  1  0  0  0  0
  6 23  1  0  0  0  0
  7 11  1  0  0  0  0
  7  8  1  0  0  0  0
  7 24  1  0  0  0  0
  8  9  1  0  0  0  0
  8 25  1  0  0  0  0
  8 26  1  0  0  0  0
  9 10  1  0  0  0  0
  9 27  1  0  0  0  0
  9 28  1  0  0  0  0
 10 11  1  0  0  0  0
 10 29  1  0  0  0  0
 10 30  1  0  0  0  0
 12 16  1  0  0  0  0
 12 13  1  0  0  0  0
 13 14  2  0  0  0  0
 13 31  1  0  0  0  0
 14 15  1  0  0  0  0
 15 16  2  0  0  0  0
 15 32  1  0  0  0  0
M  END
> <s_m_source_file>
AV-unprocessed.smi

> <i_m_source_file_index>
3133

> <i_lp_mmshare_version>
43012

> <i_f3d_flags>
0

> <s_epik_input>
bjFbY0hdbltjSF1uMVtDQEhdKFtDSDNdKUMoPU8pW05IXVtDSDJdW0NAQEhdMltDSDJdW0NIMl1bQ0gyXU8y

> <s_epik_cmdline>
J2VwaWtfcHl0aG9uJywgJy1waCcsICc3LjAnLCAnLXRuJywgJzgnLCAnLW1hJywgJzIwMCcsICctbWV0YWxfYmluZGluZycsICctaW1hZScsICc8aW5maWxlLm1hZT4nLCAnLW9tYWUnLCAnPG91dGZpbGUubWFlPic=

> <r_lp_tautomer_probability>
1

> <r_epik_Ionization_Penalty>
1.2027e-05

> <r_epik_Ionization_Penalty_Charging>
0

> <r_epik_Ionization_Penalty_Neutral>
1.2027e-05

> <r_epik_State_Penalty>
-0

> <r_epik_Charging_Adjusted_Penalty>
0

> <i_epik_Tot_Q>
0

> <i_epik_Tot_abs_Q>
0

> <r_epik_Metal_State_Penalty>
-0

> <b_epik_Metal_Only>
0

> <s_lp_Force_Field>
OPLS_2005

> <r_lp_Energy>
22.7356

> <b_lp_Chiralities_Consistent>
1

> <s_lp_Variant>
AV-unprocessed.smi:3133-2

> <Gold.Version>
5.8.1

> <Gold.Id.Protein>
6NUR|6NUR_protein|mol2

> <Gold.PLP.Fitness>
38.5010

> <Gold.PLP.PLP>
-35.3025

> <Gold.PLP.part.hbond>
-2.6620

> <Gold.PLP.part.metal>
0.0000

> <Gold.PLP.part.buried>
-6.7051

> <Gold.PLP.part.nonpolar>
-27.2671

> <Gold.PLP.part.repulsive>
0.2109

> <Gold.PLP.ligand.clash>
0.0000

> <Gold.PLP.ligand.torsion>
0.7426

> <Gold.PLP.Chemscore.Hbond>
1.5224

> <Gold.PLP.Chemscore.CHOScore>
0.0000

> <Gold.PLP.Chemscore.Metal>
0.0000

> <Gold.Chemscore.Hbonds>
donor molecule, donor type, donor heavy atom, donor atom, acceptor molecule, acceptor atom, score
      L1  H     5    21       P1  8028  0.46
      P1  H  7989  7998       L1    16  0.74
      P1  H 10752 10765       L1    14  0.21

> <Gold.PLP.Chemscore.Internal.Correction>
0.1166

> <Gold.Rescore>
     Score         DG    S(hbond)    S(metal)    S(lipo)     H(rot)  DE(clash)    DE(int)     intcor
      8.36     -12.29       1.43        0.00      66.70       2.26       0.36       3.57       ----

> <Gold.Chemscore.Fitness>
8.3619

> <Gold.Chemscore.DG>
-12.2907

> <Gold.Chemscore.ZeroCoef>
-5.4800

> <Gold.Chemscore.Hbond>
1.4316

> <Gold.Chemscore.Metal>
0.0000

> <Gold.Chemscore.Lipo>
66.6985

> <Gold.Chemscore.Internal_Hbond>
0.0000

> <Gold.Chemscore.DEClash>
0.3579

> <Gold.Chemscore.DEInternal>
3.5709

> <Gold.Chemscore.Rot>
2.2558

> <Gold.Chemscore.Internal.Correction>
   9.000000E+99

> <Gold.Chemscore.Hbonds>
donor molecule, donor type, donor heavy atom, donor atom, acceptor molecule, acceptor atom, score
      L1  H     5    21       P1  8028  0.46
      P1  H  7989  7998       L1    16  0.20
      P1  H 10752 10765       L1    14  0.17

> <Gold.Chemscore.Hbond.Weighted>
-4.7817

> <Gold.Chemscore.Metal.Weighted>
-0.0000

> <Gold.Chemscore.Lipo.Weighted>
-7.8037

> <Gold.Chemscore.Internal_Hbond.Weighted>
0.0000

> <Gold.Chemscore.DEClash.Weighted>
0.3579

> <Gold.Chemscore.DEInternal.Weighted>
3.5709

> <Gold.Chemscore.Rot.Weighted>
5.7747

> <Gold.Chemscore.Internal.Correction.Weighted>
   9.000000E+99

> <Gold.Protein.RotatedTorsions>
[ 6907 6896 6895 6894 ] final  -36.95 input  -60.11 | X-H torsion
[ 7974 7965 7964 7962 ] final -132.82 input  175.53 | X-H torsion
[ 8008 7997 7996 7995 ] final -177.79 input   59.86 | X-H torsion
[ 10167 10162 10161 10158 ] final   59.92 input  -65.29 | X-H torsion
[ 10718 10713 10712 10709 ] final  -43.66 input   66.30 | X-H torsion
[ 10763 10752 10751 10750 ] final  169.43 input  -60.55 | X-H torsion
[ 11005 11000 10999 10996 ] final -113.98 input  -57.11 | X-H torsion

> <Gold.Protein.ActiveResidues>
 VAL166  LYS551  ARG553  GLY616  TRP617  ASP618  TYR619  PRO620  LYS621  CYS622 
 ASP623  PHE694  ASN695  SER759  ASP760  ASP761  ALA762  ILE779  LEU786  VAL792 
 PHE793  MET794  SER795  GLU796  ALA797  LYS798  CYS799  TRP800  GLU811  SER814 

> <Gold.Protein.RotatedAtoms>
  151.0208  134.9467  159.8057 H   0  0  0  0  0  0  0  0  0  0  0  0  # atno 6907 bound_to 6896
  152.5324  134.2907  159.9052 H   0  0  0  0  0  0  0  0  0  0  0  0  # atno 6908 bound_to 6896
  151.2914  133.4121  159.2667 H   0  0  0  0  0  0  0  0  0  0  0  0  # atno 6909 bound_to 6896
  144.9250  140.7060  143.4941 H   0  0  0  0  0  0  0  0  0  0  0  0  # atno 7974 bound_to 7965
  156.0112  140.1241  157.0452 H   0  0  0  0  0  0  0  0  0  0  0  0  # atno 8008 bound_to 7997
  154.4276  140.1087  156.5901 H   0  0  0  0  0  0  0  0  0  0  0  0  # atno 8009 bound_to 7997
  155.6077  140.3471  155.4615 H   0  0  0  0  0  0  0  0  0  0  0  0  # atno 8010 bound_to 7997
  140.1711  144.4275  150.6661 H   0  0  0  0  0  0  0  0  0  0  0  0  # atno 10167 bound_to 10162
  156.2467  130.4184  149.8697 H   0  0  0  0  0  0  0  0  0  0  0  0  # atno 10718 bound_to 10713
  154.3830  135.2753  155.2200 H   0  0  0  0  0  0  0  0  0  0  0  0  # atno 10763 bound_to 10752
  154.4299  135.5980  153.6065 H   0  0  0  0  0  0  0  0  0  0  0  0  # atno 10764 bound_to 10752
  152.9834  135.5993  154.4075 H   0  0  0  0  0  0  0  0  0  0  0  0  # atno 10765 bound_to 10752
  141.0580  133.9580  157.2718 H   0  0  0  0  0  0  0  0  0  0  0  0  # atno 11005 bound_to 11000
  145.3234  139.1781  143.4575 LP  0  0  0  0  0  0  0  0  0  0  0  0  # atno 17320 bound_to 7965
  146.3222  140.3255  142.8636 LP  0  0  0  0  0  0  0  0  0  0  0  0  # atno 17321 bound_to 7965
  140.6581  143.2243  151.5921 LP  0  0  0  0  0  0  0  0  0  0  0  0  # atno 17342 bound_to 10162
  139.5337  144.2841  152.1205 LP  0  0  0  0  0  0  0  0  0  0  0  0  # atno 17343 bound_to 10162
  156.6260  130.8646  151.3485 LP  0  0  0  0  0  0  0  0  0  0  0  0  # atno 17370 bound_to 10713
  157.7198  130.9543  150.1393 LP  0  0  0  0  0  0  0  0  0  0  0  0  # atno 17371 bound_to 10713
  139.9407  135.0191  156.8700 LP  0  0  0  0  0  0  0  0  0  0  0  0  # atno 17394 bound_to 11000
  140.5924  134.0249  155.7505 LP  0  0  0  0  0  0  0  0  0  0  0  0  # atno 17395 bound_to 11000

$$$$
