AV-unprocessed.smi:2043|AV-procd|sdf|8296|dock9
  -GOLD-   2272010563D 1   1.00000     0.00000
 Structure written by MMmdl.
 29 30  0  0  0  0  0  0  0  0  1 V2000
  142.0284  142.8393  161.0033 C   0  0  0  0  0  0  0  0  0  0  0  0
  143.2125  143.4544  160.3389 C   0  0  0  0  0  0  0  0  0  0  0  0
  143.1421  144.0552  159.1449 N   0  0  0  0  0  0  0  0  0  0  0  0
  144.3719  144.5470  158.7300 N   0  0  0  0  0  0  0  0  0  0  0  0
  145.3371  144.2994  159.6261 C   0  0  0  0  0  0  0  0  0  0  0  0
  146.6918  144.6893  159.4561 N   0  0  0  0  0  0  0  0  0  0  0  0
  147.7322  144.4704  160.2794 C   0  0  0  0  0  0  0  0  0  0  0  0
  147.6776  143.8641  161.3497 O   0  0  0  0  0  0  0  0  0  0  0  0
  148.8601  145.0012  159.7851 N   0  0  0  0  0  0  0  0  0  0  0  0
  150.1709  144.9411  160.4220 C   0  0  0  0  0  0  0  0  0  0  0  0
  151.1393  144.0722  159.6231 C   0  0  0  0  0  0  0  0  0  0  0  0
  152.4894  143.6577  160.2302 C   0  0  0  0  0  0  0  0  0  0  0  0
  153.0995  143.7633  158.8302 C   0  0  0  0  0  0  0  0  0  0  0  0
  151.9414  144.6983  158.4724 C   0  0  0  0  0  0  0  0  0  0  0  0
  144.8154  143.4380  161.0639 S   0  0  0  0  0  0  0  0  0  0  0  0
  141.1042  143.2509  160.5966 H   0  0  0  0  0  0  0  0  0  0  0  0
  142.0550  143.0370  162.0750 H   0  0  0  0  0  0  0  0  0  0  0  0
  142.0323  141.7609  160.8447 H   0  0  0  0  0  0  0  0  0  0  0  0
  146.8913  145.1997  158.6087 H   0  0  0  0  0  0  0  0  0  0  0  0
  148.8104  145.4817  158.8987 H   0  0  0  0  0  0  0  0  0  0  0  0
  150.5546  145.9590  160.4911 H   0  0  0  0  0  0  0  0  0  0  0  0
  150.0822  144.5832  161.4491 H   0  0  0  0  0  0  0  0  0  0  0  0
  150.6356  143.1796  159.2456 H   0  0  0  0  0  0  0  0  0  0  0  0
  152.8912  144.4019  160.9200 H   0  0  0  0  0  0  0  0  0  0  0  0
  152.5067  142.6577  160.6646 H   0  0  0  0  0  0  0  0  0  0  0  0
  154.0871  144.2237  158.7943 H   0  0  0  0  0  0  0  0  0  0  0  0
  153.0685  142.8205  158.2817 H   0  0  0  0  0  0  0  0  0  0  0  0
  151.5163  144.5408  157.4808 H   0  0  0  0  0  0  0  0  0  0  0  0
  152.1816  145.7490  158.6448 H   0  0  0  0  0  0  0  0  0  0  0  0
  1  2  1  0  0  0  0
  1 16  1  0  0  0  0
  1 17  1  0  0  0  0
  1 18  1  0  0  0  0
  2 15  1  0  0  0  0
  2  3  2  0  0  0  0
  3  4  1  0  0  0  0
  4  5  2  0  0  0  0
  5  6  1  0  0  0  0
  5 15  1  0  0  0  0
  6  7  1  0  0  0  0
  6 19  1  0  0  0  0
  7  8  2  0  0  0  0
  7  9  1  0  0  0  0
  9 10  1  0  0  0  0
  9 20  1  0  0  0  0
 10 11  1  0  0  0  0
 10 21  1  0  0  0  0
 10 22  1  0  0  0  0
 11 14  1  0  0  0  0
 11 12  1  0  0  0  0
 11 23  1  0  0  0  0
 12 13  1  0  0  0  0
 12 24  1  0  0  0  0
 12 25  1  0  0  0  0
 13 14  1  0  0  0  0
 13 26  1  0  0  0  0
 13 27  1  0  0  0  0
 14 28  1  0  0  0  0
 14 29  1  0  0  0  0
M  END
> <s_m_source_file>
AV-unprocessed.smi

> <i_m_source_file_index>
2043

> <i_lp_mmshare_version>
43012

> <i_f3d_flags>
0

> <s_epik_input>
W0NIM11jMW5uYyhzMSlbTkhdQyg9TylbTkhdW0NIMl1bQ0hdMltDSDJdW0NIMl1bQ0gyXTI=

> <s_epik_cmdline>
J2VwaWtfcHl0aG9uJywgJy1waCcsICc3LjAnLCAnLXRuJywgJzgnLCAnLW1hJywgJzIwMCcsICctbWV0YWxfYmluZGluZycsICctaW1hZScsICc8aW5maWxlLm1hZT4nLCAnLW9tYWUnLCAnPG91dGZpbGUubWFlPic=

> <r_lp_tautomer_probability>
1

> <r_epik_Ionization_Penalty>
0.000387707

> <r_epik_Ionization_Penalty_Charging>
0

> <r_epik_Ionization_Penalty_Neutral>
0.000387707

> <r_epik_State_Penalty>
-0

> <r_epik_Charging_Adjusted_Penalty>
0

> <i_epik_Tot_Q>
0

> <i_epik_Tot_abs_Q>
0

> <r_epik_Metal_State_Penalty>
0.190371

> <b_epik_Metal_Only>
0

> <s_lp_Force_Field>
OPLS_2005

> <r_lp_Energy>
11.3872

> <b_lp_Chiralities_Consistent>
1

> <s_lp_Variant>
AV-unprocessed.smi:2043-1

> <Gold.Version>
5.8.1

> <Gold.Id.Protein>
6NUR|6NUR_protein|mol2

> <Gold.PLP.Fitness>
36.4401

> <Gold.PLP.PLP>
-27.7995

> <Gold.PLP.part.hbond>
-3.0000

> <Gold.PLP.part.metal>
0.0000

> <Gold.PLP.part.buried>
-5.7082

> <Gold.PLP.part.nonpolar>
-19.6601

> <Gold.PLP.part.repulsive>
0.4251

> <Gold.PLP.ligand.clash>
0.0000

> <Gold.PLP.ligand.torsion>
0.2085

> <Gold.PLP.Chemscore.Hbond>
3.0000

> <Gold.PLP.Chemscore.CHOScore>
0.0000

> <Gold.PLP.Chemscore.Metal>
0.0000

> <Gold.Chemscore.Hbonds>
donor molecule, donor type, donor heavy atom, donor atom, acceptor molecule, acceptor atom, score
      L1  H     6    19       P1  8029  1.00
      L1  H     9    20       P1  8029  1.00
      P1  H  6933  6944       L1     8  1.00

> <Gold.PLP.Chemscore.Internal.Correction>
0.0577

> <Gold.Rescore>
     Score         DG    S(hbond)    S(metal)    S(lipo)     H(rot)  DE(clash)    DE(int)     intcor
     19.44     -20.77       2.95        0.00      74.53       1.27       0.00       1.33       ----

> <Gold.Chemscore.Fitness>
19.4375

> <Gold.Chemscore.DG>
-20.7725

> <Gold.Chemscore.ZeroCoef>
-5.4800

> <Gold.Chemscore.Hbond>
2.9450

> <Gold.Chemscore.Metal>
0.0000

> <Gold.Chemscore.Lipo>
74.5307

> <Gold.Chemscore.Internal_Hbond>
0.0000

> <Gold.Chemscore.DEClash>
0.0048

> <Gold.Chemscore.DEInternal>
1.3302

> <Gold.Chemscore.Rot>
1.2750

> <Gold.Chemscore.Internal.Correction>
   9.000000E+99

> <Gold.Chemscore.Hbonds>
donor molecule, donor type, donor heavy atom, donor atom, acceptor molecule, acceptor atom, score
      L1  H     6    19       P1  8029  1.00
      L1  H     9    20       P1  8029  0.96
      P1  H  6933  6944       L1     8  0.96

> <Gold.Chemscore.Hbond.Weighted>
-9.8364

> <Gold.Chemscore.Metal.Weighted>
-0.0000

> <Gold.Chemscore.Lipo.Weighted>
-8.7201

> <Gold.Chemscore.Internal_Hbond.Weighted>
0.0000

> <Gold.Chemscore.DEClash.Weighted>
0.0048

> <Gold.Chemscore.DEInternal.Weighted>
1.3302

> <Gold.Chemscore.Rot.Weighted>
3.2640

> <Gold.Chemscore.Internal.Correction.Weighted>
   9.000000E+99

> <Gold.Protein.RotatedTorsions>
[ 6907 6896 6895 6894 ] final  -51.45 input  -60.11 | X-H torsion
[ 7974 7965 7964 7962 ] final  -96.65 input  175.53 | X-H torsion
[ 8008 7997 7996 7995 ] final   71.80 input   59.86 | X-H torsion
[ 10167 10162 10161 10158 ] final   86.48 input  -65.29 | X-H torsion
[ 10718 10713 10712 10709 ] final  -15.39 input   66.30 | X-H torsion
[ 10763 10752 10751 10750 ] final -162.33 input  -60.55 | X-H torsion
[ 11005 11000 10999 10996 ] final  156.89 input  -57.11 | X-H torsion

> <Gold.Protein.ActiveResidues>
 VAL166  LYS551  ARG553  GLY616  TRP617  ASP618  TYR619  PRO620  LYS621  CYS622 
 ASP623  PHE694  ASN695  SER759  ASP760  ASP761  ALA762  ILE779  LEU786  VAL792 
 PHE793  MET794  SER795  GLU796  ALA797  LYS798  CYS799  TRP800  GLU811  SER814 

> <Gold.Protein.RotatedAtoms>
  150.8610  134.7962  159.7082 H   0  0  0  0  0  0  0  0  0  0  0  0  # atno 6907 bound_to 6896
  152.4647  134.5099  159.9760 H   0  0  0  0  0  0  0  0  0  0  0  0  # atno 6908 bound_to 6896
  151.5203  133.3429  159.2936 H   0  0  0  0  0  0  0  0  0  0  0  0  # atno 6909 bound_to 6896
  145.3440  140.9465  143.2592 H   0  0  0  0  0  0  0  0  0  0  0  0  # atno 7974 bound_to 7965
  155.7594  140.3487  155.5190 H   0  0  0  0  0  0  0  0  0  0  0  0  # atno 8008 bound_to 7997
  155.8929  140.1021  157.1427 H   0  0  0  0  0  0  0  0  0  0  0  0  # atno 8009 bound_to 7997
  154.4035  140.1301  156.4325 H   0  0  0  0  0  0  0  0  0  0  0  0  # atno 8010 bound_to 7997
  139.8871  144.6407  150.8779 H   0  0  0  0  0  0  0  0  0  0  0  0  # atno 10167 bound_to 10162
  156.6025  130.4828  149.6234 H   0  0  0  0  0  0  0  0  0  0  0  0  # atno 10718 bound_to 10713
  154.7224  135.3028  154.9025 H   0  0  0  0  0  0  0  0  0  0  0  0  # atno 10763 bound_to 10752
  153.9893  135.6720  153.4757 H   0  0  0  0  0  0  0  0  0  0  0  0  # atno 10764 bound_to 10752
  153.0845  135.4991  154.8488 H   0  0  0  0  0  0  0  0  0  0  0  0  # atno 10765 bound_to 10752
  140.1718  134.8538  157.2699 H   0  0  0  0  0  0  0  0  0  0  0  0  # atno 11005 bound_to 11000
  144.8768  139.4960  143.6742 LP  0  0  0  0  0  0  0  0  0  0  0  0  # atno 17320 bound_to 7965
  146.2995  139.7383  142.9101 LP  0  0  0  0  0  0  0  0  0  0  0  0  # atno 17321 bound_to 7965
  140.7733  143.3539  151.1959 LP  0  0  0  0  0  0  0  0  0  0  0  0  # atno 17342 bound_to 10162
  139.7143  143.9326  152.2960 LP  0  0  0  0  0  0  0  0  0  0  0  0  # atno 17343 bound_to 10162
  156.2457  130.6878  151.1598 LP  0  0  0  0  0  0  0  0  0  0  0  0  # atno 17370 bound_to 10713
  157.7276  131.0638  150.5859 LP  0  0  0  0  0  0  0  0  0  0  0  0  # atno 17371 bound_to 10713
  140.2369  134.3842  155.7497 LP  0  0  0  0  0  0  0  0  0  0  0  0  # atno 17394 bound_to 11000
  141.2218  133.7244  156.8728 LP  0  0  0  0  0  0  0  0  0  0  0  0  # atno 17395 bound_to 11000

$$$$
