AV-unprocessed.smi:230|AV-procd|sdf|1764|dock10
  -GOLD-   2262020303D 1   1.00000     0.00000
 Structure written by MMmdl.
 56 59  0  0  0  0  0  0  0  0  1 V2000
  146.9717  142.2081  153.8089 C   0  0  0  0  0  0  0  0  0  0  0  0
  146.9792  140.7850  154.3842 C   0  0  0  0  0  0  0  0  0  0  0  0
  148.3325  140.0411  154.2270 C   0  0  1  0  0  0  0  0  0  0  0  0
  149.5133  140.9468  154.6446 C   0  0  0  0  0  0  0  0  0  0  0  0
  150.7566  140.2543  154.5572 O   0  0  0  0  0  0  0  0  0  0  0  0
  150.8417  139.0512  155.3232 C   0  0  0  0  0  0  0  0  0  0  0  0
  152.1886  138.4168  154.9436 C   0  0  0  0  0  0  0  0  0  0  0  0
  150.8244  139.3446  156.8388 C   0  0  0  0  0  0  0  0  0  0  0  0
  149.6869  138.1224  154.8991 C   0  0  0  0  0  0  0  0  0  0  0  0
  148.3971  138.7980  155.0049 N   0  0  0  0  0  0  0  0  0  0  0  0
  147.3580  137.9492  154.8336 C   0  0  0  0  0  0  0  0  0  0  0  0
  146.9208  137.1845  155.8690 N   0  0  0  0  0  0  0  0  0  0  0  0
  145.9147  136.3242  155.6828 C   0  0  0  0  0  0  0  0  0  0  0  0
  145.2292  136.0695  154.5654 N   0  0  0  0  0  0  0  0  0  0  0  0
  145.6725  136.8341  153.5260 C   0  0  0  0  0  0  0  0  0  0  0  0
  146.7187  137.7959  153.5761 C   0  0  0  0  0  0  0  0  0  0  0  0
  146.8941  138.3796  152.3285 N   0  0  0  0  0  0  0  0  0  0  0  0
  146.0052  137.7880  151.5775 C   0  0  0  0  0  0  0  0  0  0  0  0
  145.2371  136.8376  152.2125 N   0  0  0  0  0  0  0  0  0  0  0  0
  144.1950  136.0182  151.6135 C   0  0  0  0  0  0  0  0  0  0  0  0
  144.7368  134.8012  150.8229 C   0  0  0  0  0  0  0  0  0  0  0  0
  144.7031  135.1349  149.4455 O   0  0  0  0  0  0  0  0  0  0  0  0
  146.1903  134.4415  151.2029 C   0  0  0  0  0  0  0  0  0  0  0  0
  146.6454  133.1161  150.5665 C   0  0  0  0  0  0  0  0  0  0  0  0
  145.7417  132.0718  150.9074 O   0  0  0  0  0  0  0  0  0  0  0  0
  144.4278  132.2976  150.4114 C   0  0  0  0  0  0  0  0  0  0  0  0
  143.8374  133.5691  151.0465 C   0  0  0  0  0  0  0  0  0  0  0  0
  145.9705  142.6363  153.8600 H   0  0  0  0  0  0  0  0  0  0  0  0
  147.2784  142.2101  152.7626 H   0  0  0  0  0  0  0  0  0  0  0  0
  147.6355  142.8744  154.3591 H   0  0  0  0  0  0  0  0  0  0  0  0
  146.6936  140.8156  155.4364 H   0  0  0  0  0  0  0  0  0  0  0  0
  146.1865  140.2396  153.8721 H   0  0  0  0  0  0  0  0  0  0  0  0
  148.4599  139.7759  153.1762 H   0  0  0  0  0  0  0  0  0  0  0  0
  149.5826  141.8110  153.9852 H   0  0  0  0  0  0  0  0  0  0  0  0
  149.3674  141.3417  155.6501 H   0  0  0  0  0  0  0  0  0  0  0  0
  152.3398  137.4670  155.4576 H   0  0  0  0  0  0  0  0  0  0  0  0
  153.0207  139.0714  155.2045 H   0  0  0  0  0  0  0  0  0  0  0  0
  152.2468  138.2256  153.8714 H   0  0  0  0  0  0  0  0  0  0  0  0
  150.9984  138.4341  157.4126 H   0  0  0  0  0  0  0  0  0  0  0  0
  149.8711  139.7514  157.1746 H   0  0  0  0  0  0  0  0  0  0  0  0
  151.6023  140.0587  157.1100 H   0  0  0  0  0  0  0  0  0  0  0  0
  149.8371  137.8039  153.8661 H   0  0  0  0  0  0  0  0  0  0  0  0
  149.6876  137.2198  155.5127 H   0  0  0  0  0  0  0  0  0  0  0  0
  145.6211  135.7538  156.5517 H   0  0  0  0  0  0  0  0  0  0  0  0
  145.8919  138.0208  150.5286 H   0  0  0  0  0  0  0  0  0  0  0  0
  143.5307  135.6812  152.4102 H   0  0  0  0  0  0  0  0  0  0  0  0
  143.5910  136.6548  150.9650 H   0  0  0  0  0  0  0  0  0  0  0  0
  145.5218  134.8719  149.0533 H   0  0  0  0  0  0  0  0  0  0  0  0
  146.8779  135.2384  150.9167 H   0  0  0  0  0  0  0  0  0  0  0  0
  146.2643  134.3476  152.2873 H   0  0  0  0  0  0  0  0  0  0  0  0
  146.7225  133.2065  149.4819 H   0  0  0  0  0  0  0  0  0  0  0  0
  147.6384  132.8519  150.9309 H   0  0  0  0  0  0  0  0  0  0  0  0
  144.4444  132.3706  149.3228 H   0  0  0  0  0  0  0  0  0  0  0  0
  143.8072  131.4363  150.6590 H   0  0  0  0  0  0  0  0  0  0  0  0
  143.7240  133.3966  152.1178 H   0  0  0  0  0  0  0  0  0  0  0  0
  142.8340  133.7509  150.6594 H   0  0  0  0  0  0  0  0  0  0  0  0
  1  2  1  0  0  0  0
  1 28  1  0  0  0  0
  1 29  1  0  0  0  0
  1 30  1  0  0  0  0
  2  3  1  0  0  0  0
  2 31  1  0  0  0  0
  2 32  1  0  0  0  0
  3 10  1  0  0  0  0
  3  4  1  0  0  0  0
  3 33  1  0  0  0  0
  4  5  1  0  0  0  0
  4 34  1  0  0  0  0
  4 35  1  0  0  0  0
  5  6  1  0  0  0  0
  6  7  1  0  0  0  0
  6  8  1  0  0  0  0
  6  9  1  0  0  0  0
  7 36  1  0  0  0  0
  7 37  1  0  0  0  0
  7 38  1  0  0  0  0
  8 39  1  0  0  0  0
  8 40  1  0  0  0  0
  8 41  1  0  0  0  0
  9 10  1  0  0  0  0
  9 42  1  0  0  0  0
  9 43  1  0  0  0  0
 10 11  1  0  0  0  0
 11 16  1  0  0  0  0
 11 12  2  0  0  0  0
 12 13  1  0  0  0  0
 13 14  2  0  0  0  0
 13 44  1  0  0  0  0
 14 15  1  0  0  0  0
 15 19  1  0  0  0  0
 15 16  2  0  0  0  0
 16 17  1  0  0  0  0
 17 18  2  0  0  0  0
 18 19  1  0  0  0  0
 18 45  1  0  0  0  0
 19 20  1  0  0  0  0
 20 21  1  0  0  0  0
 20 46  1  0  0  0  0
 20 47  1  0  0  0  0
 21 27  1  0  0  0  0
 21 22  1  0  0  0  0
 21 23  1  0  0  0  0
 22 48  1  0  0  0  0
 23 24  1  0  0  0  0
 23 49  1  0  0  0  0
 23 50  1  0  0  0  0
 24 25  1  0  0  0  0
 24 51  1  0  0  0  0
 24 52  1  0  0  0  0
 25 26  1  0  0  0  0
 26 27  1  0  0  0  0
 26 53  1  0  0  0  0
 26 54  1  0  0  0  0
 27 55  1  0  0  0  0
 27 56  1  0  0  0  0
M  END
> <s_m_source_file>
AV-unprocessed.smi

> <i_m_source_file_index>
230

> <i_lp_mmshare_version>
43012

> <i_f3d_flags>
0

> <s_epik_input>
W0NIM11DMShbQ0gzXSlPW0NIMl1bQ0BASF0oW0NIMl1bQ0gzXSlOKFtDSDJdMSljKG5bY0hdbjIpYyhjMjMpbltjSF1uM1tDSDJdQzQoW09IXSlbQ0gyXVtDSDJdT1tDSDJdW0NIMl00

> <s_epik_cmdline>
J2VwaWtfcHl0aG9uJywgJy1waCcsICc3LjAnLCAnLXRuJywgJzgnLCAnLW1hJywgJzIwMCcsICctbWV0YWxfYmluZGluZycsICctaW1hZScsICc8aW5maWxlLm1hZT4nLCAnLW9tYWUnLCAnPG91dGZpbGUubWFlPic=

> <r_lp_tautomer_probability>
1

> <r_epik_Ionization_Penalty>
0.000120535

> <r_epik_Ionization_Penalty_Charging>
0

> <r_epik_Ionization_Penalty_Neutral>
0.000120535

> <r_epik_State_Penalty>
-0

> <r_epik_Charging_Adjusted_Penalty>
0

> <i_epik_Tot_Q>
0

> <i_epik_Tot_abs_Q>
0

> <r_epik_Metal_State_Penalty>
-0

> <b_epik_Metal_Only>
0

> <s_lp_Force_Field>
OPLS_2005

> <r_lp_Energy>
34.4524

> <b_lp_Chiralities_Consistent>
1

> <s_lp_Variant>
AV-unprocessed.smi:230-2

> <Gold.Version>
5.8.1

> <Gold.Id.Protein>
6NUR|6NUR_protein|mol2

> <Gold.PLP.Fitness>
45.4967

> <Gold.PLP.PLP>
-40.6136

> <Gold.PLP.part.hbond>
-1.6805

> <Gold.PLP.part.metal>
0.0000

> <Gold.PLP.part.buried>
-5.8268

> <Gold.PLP.part.nonpolar>
-34.8618

> <Gold.PLP.part.repulsive>
0.6940

> <Gold.PLP.ligand.clash>
0.0000

> <Gold.PLP.ligand.torsion>
1.8832

> <Gold.PLP.Chemscore.Hbond>
1.8210

> <Gold.PLP.Chemscore.CHOScore>
1.0000

> <Gold.PLP.Chemscore.Metal>
0.0000

> <Gold.Chemscore.Hbonds>
donor molecule, donor type, donor heavy atom, donor atom, acceptor molecule, acceptor atom, score
      L1  H    22    48       P1  7921  0.75
      P1  H  7989  7998       L1     5  0.94
      L1  C    18    45       P1 10171  0.77

> <Gold.PLP.Chemscore.Internal.Correction>
0.1865

> <Gold.Rescore>
     Score         DG    S(hbond)    S(metal)    S(lipo)     H(rot)  DE(clash)    DE(int)     intcor
     12.61     -16.97       1.91        0.00      92.02       2.21       1.11       3.26       ----

> <Gold.Chemscore.Fitness>
12.6053

> <Gold.Chemscore.DG>
-16.9735

> <Gold.Chemscore.ZeroCoef>
-5.4800

> <Gold.Chemscore.Hbond>
1.9121

> <Gold.Chemscore.Metal>
0.0000

> <Gold.Chemscore.Lipo>
92.0212

> <Gold.Chemscore.Internal_Hbond>
0.0000

> <Gold.Chemscore.DEClash>
1.1101

> <Gold.Chemscore.DEInternal>
3.2580

> <Gold.Chemscore.Rot>
2.2107

> <Gold.Chemscore.Internal.Correction>
   9.000000E+99

> <Gold.Chemscore.Hbonds>
donor molecule, donor type, donor heavy atom, donor atom, acceptor molecule, acceptor atom, score
      L1  H    22    48       P1  7921  0.70
      P1  H  7989  7998       L1     5  0.67

> <Gold.Chemscore.Hbond.Weighted>
-6.3865

> <Gold.Chemscore.Metal.Weighted>
-0.0000

> <Gold.Chemscore.Lipo.Weighted>
-10.7665

> <Gold.Chemscore.Internal_Hbond.Weighted>
0.0000

> <Gold.Chemscore.DEClash.Weighted>
1.1101

> <Gold.Chemscore.DEInternal.Weighted>
3.2580

> <Gold.Chemscore.Rot.Weighted>
5.6595

> <Gold.Chemscore.Internal.Correction.Weighted>
   9.000000E+99

> <Gold.Protein.RotatedTorsions>
[ 6907 6896 6895 6894 ] final   21.40 input  -60.11 | X-H torsion
[ 7974 7965 7964 7962 ] final   89.65 input  175.53 | X-H torsion
[ 8008 7997 7996 7995 ] final -130.28 input   59.86 | X-H torsion
[ 10167 10162 10161 10158 ] final -169.40 input  -65.29 | X-H torsion
[ 10718 10713 10712 10709 ] final  -53.49 input   66.30 | X-H torsion
[ 10763 10752 10751 10750 ] final  -26.83 input  -60.55 | X-H torsion
[ 11005 11000 10999 10996 ] final  -83.82 input  -57.11 | X-H torsion

> <Gold.Protein.ActiveResidues>
 VAL166  LYS551  ARG553  GLY616  TRP617  ASP618  TYR619  PRO620  LYS621  CYS622 
 ASP623  PHE694  ASN695  SER759  ASP760  ASP761  ALA762  ILE779  LEU786  VAL792 
 PHE793  MET794  SER795  GLU796  ALA797  LYS798  CYS799  TRP800  GLU811  SER814 

> <Gold.Protein.RotatedAtoms>
  151.9112  135.0338  160.0514 H   0  0  0  0  0  0  0  0  0  0  0  0  # atno 6907 bound_to 6896
  152.2278  133.5029  159.5207 H   0  0  0  0  0  0  0  0  0  0  0  0  # atno 6908 bound_to 6896
  150.7017  134.1173  159.4065 H   0  0  0  0  0  0  0  0  0  0  0  0  # atno 6909 bound_to 6896
  145.5295  139.2282  143.2626 H   0  0  0  0  0  0  0  0  0  0  0  0  # atno 7974 bound_to 7965
  155.2931  140.0449  157.3024 H   0  0  0  0  0  0  0  0  0  0  0  0  # atno 8008 bound_to 7997
  154.5529  140.2323  155.8423 H   0  0  0  0  0  0  0  0  0  0  0  0  # atno 8009 bound_to 7997
  156.1983  140.3032  155.9479 H   0  0  0  0  0  0  0  0  0  0  0  0  # atno 8010 bound_to 7997
  139.5925  144.1183  152.1651 H   0  0  0  0  0  0  0  0  0  0  0  0  # atno 10167 bound_to 10162
  156.1531  130.4151  149.9913 H   0  0  0  0  0  0  0  0  0  0  0  0  # atno 10718 bound_to 10713
  153.7223  135.6944  153.5010 H   0  0  0  0  0  0  0  0  0  0  0  0  # atno 10763 bound_to 10752
  153.2195  135.4375  155.0472 H   0  0  0  0  0  0  0  0  0  0  0  0  # atno 10764 bound_to 10752
  154.8280  135.3457  154.6756 H   0  0  0  0  0  0  0  0  0  0  0  0  # atno 10765 bound_to 10752
  141.1655  133.7314  156.8777 H   0  0  0  0  0  0  0  0  0  0  0  0  # atno 11005 bound_to 11000
  146.2053  140.6111  142.9084 LP  0  0  0  0  0  0  0  0  0  0  0  0  # atno 17320 bound_to 7965
  144.7633  140.5473  143.6720 LP  0  0  0  0  0  0  0  0  0  0  0  0  # atno 17321 bound_to 7965
  140.0760  144.5740  150.7156 LP  0  0  0  0  0  0  0  0  0  0  0  0  # atno 17342 bound_to 10162
  140.7185  143.2566  151.4357 LP  0  0  0  0  0  0  0  0  0  0  0  0  # atno 17343 bound_to 10162
  156.7764  130.9205  151.3645 LP  0  0  0  0  0  0  0  0  0  0  0  0  # atno 17370 bound_to 10713
  157.6673  130.9019  149.9961 LP  0  0  0  0  0  0  0  0  0  0  0  0  # atno 17371 bound_to 10713
  140.1737  134.9082  157.2864 LP  0  0  0  0  0  0  0  0  0  0  0  0  # atno 17394 bound_to 11000
  140.2473  134.3724  155.7456 LP  0  0  0  0  0  0  0  0  0  0  0  0  # atno 17395 bound_to 11000

$$$$
