AV-unprocessed.smi:3116|AV-procd|sdf|11876|dock4
  -GOLD-   2272017263D 1   1.00000     0.00000
 Structure written by MMmdl.
 33 33  0  0  0  0  0  0  0  0  1 V2000
  153.4404  138.6541  154.7028 C   0  0  0  0  0  0  0  0  0  0  0  0
  151.9835  139.1403  154.7540 C   0  0  2  0  0  0  0  0  0  0  0  0
  151.6343  139.5117  156.1372 N   0  0  0  0  0  0  0  0  0  0  0  0
  151.5307  140.9468  156.4007 C   0  0  1  0  0  0  0  0  0  0  0  0
  150.4468  141.5252  155.4685 C   0  0  0  0  0  0  0  0  0  0  0  0
  151.2151  141.1469  157.9068 C   0  0  1  0  0  0  0  0  0  0  0  0
  152.0664  140.2428  158.8179 C   0  0  0  0  0  0  0  0  0  0  0  0
  151.3759  142.5376  158.3129 N   0  0  0  0  0  0  0  0  0  0  0  0
  151.8690  143.5989  157.5798 C   0  0  0  0  0  0  0  0  0  0  0  0
  151.8289  144.7032  158.3815 C   0  0  0  0  0  0  0  0  0  0  0  0
  151.2911  144.2128  159.6038 C   0  0  0  0  0  0  0  0  0  0  0  0
  151.0228  142.9181  159.5604 N   0  0  0  0  0  0  0  0  0  0  0  0
  151.0406  138.0871  154.1485 C   0  0  0  0  0  0  0  0  0  0  0  0
  150.2115  138.4920  153.1833 N   0  0  0  0  0  0  0  0  0  0  0  0
  151.0483  136.9283  154.5597 O   0  0  0  0  0  0  0  0  0  0  0  0
  153.7342  138.3864  153.6871 H   0  0  0  0  0  0  0  0  0  0  0  0
  153.5964  137.7797  155.3364 H   0  0  0  0  0  0  0  0  0  0  0  0
  154.1227  139.4336  155.0434 H   0  0  0  0  0  0  0  0  0  0  0  0
  151.9231  140.0432  154.1431 H   0  0  0  0  0  0  0  0  0  0  0  0
  150.8056  139.0337  156.4620 H   0  0  0  0  0  0  0  0  0  0  0  0
  152.4759  141.4482  156.1874 H   0  0  0  0  0  0  0  0  0  0  0  0
  150.3732  142.6087  155.5609 H   0  0  0  0  0  0  0  0  0  0  0  0
  149.4656  141.1069  155.6955 H   0  0  0  0  0  0  0  0  0  0  0  0
  150.6609  141.3141  154.4210 H   0  0  0  0  0  0  0  0  0  0  0  0
  150.1679  140.8826  158.0698 H   0  0  0  0  0  0  0  0  0  0  0  0
  151.8871  139.1872  158.6142 H   0  0  0  0  0  0  0  0  0  0  0  0
  151.8291  140.4141  159.8684 H   0  0  0  0  0  0  0  0  0  0  0  0
  153.1320  140.4294  158.6827 H   0  0  0  0  0  0  0  0  0  0  0  0
  152.2017  143.4806  156.5591 H   0  0  0  0  0  0  0  0  0  0  0  0
  152.1372  145.7078  158.1332 H   0  0  0  0  0  0  0  0  0  0  0  0
  151.0894  144.7549  160.5159 H   0  0  0  0  0  0  0  0  0  0  0  0
  149.5735  137.8351  152.7583 H   0  0  0  0  0  0  0  0  0  0  0  0
  150.2248  139.4560  152.8833 H   0  0  0  0  0  0  0  0  0  0  0  0
  1  2  1  0  0  0  0
  1 16  1  0  0  0  0
  1 17  1  0  0  0  0
  1 18  1  0  0  0  0
  2  3  1  0  0  0  0
  2 13  1  0  0  0  0
  2 19  1  0  0  0  0
  3  4  1  0  0  0  0
  3 20  1  0  0  0  0
  4  5  1  0  0  0  0
  4  6  1  0  0  0  0
  4 21  1  0  0  0  0
  5 22  1  0  0  0  0
  5 23  1  0  0  0  0
  5 24  1  0  0  0  0
  6  7  1  0  0  0  0
  6  8  1  0  0  0  0
  6 25  1  0  0  0  0
  7 26  1  0  0  0  0
  7 27  1  0  0  0  0
  7 28  1  0  0  0  0
  8 12  1  0  0  0  0
  8  9  1  0  0  0  0
  9 10  2  0  0  0  0
  9 29  1  0  0  0  0
 10 11  1  0  0  0  0
 10 30  1  0  0  0  0
 11 12  2  0  0  0  0
 11 31  1  0  0  0  0
 13 14  1  0  0  0  0
 13 15  2  0  0  0  0
 14 32  1  0  0  0  0
 14 33  1  0  0  0  0
M  END
> <s_m_source_file>
AV-unprocessed.smi

> <i_m_source_file_index>
3116

> <i_lp_mmshare_version>
43012

> <i_f3d_flags>
0

> <s_epik_input>
W05IMl1DKD1PKVtDQEhdKFtDSDNdKVtOSF1bQ0BIXShbQ0gzXSlbQ0BIXShbQ0gzXSluMVtjSF1bY0hdW2NIXW4x

> <s_epik_cmdline>
J2VwaWtfcHl0aG9uJywgJy1waCcsICc3LjAnLCAnLXRuJywgJzgnLCAnLW1hJywgJzIwMCcsICctbWV0YWxfYmluZGluZycsICctaW1hZScsICc8aW5maWxlLm1hZT4nLCAnLW9tYWUnLCAnPG91dGZpbGUubWFlPic=

> <r_lp_tautomer_probability>
1

> <r_epik_Ionization_Penalty>
0.865977

> <r_epik_Ionization_Penalty_Charging>
0

> <r_epik_Ionization_Penalty_Neutral>
0.865977

> <r_epik_State_Penalty>
0.901888

> <r_epik_Charging_Adjusted_Penalty>
0.901888

> <i_epik_Tot_Q>
0

> <i_epik_Tot_abs_Q>
0

> <r_epik_Metal_State_Penalty>
0.901181

> <b_epik_Metal_Only>
0

> <s_lp_Force_Field>
OPLS_2005

> <r_lp_Energy>
9.22902

> <b_lp_Chiralities_Consistent>
1

> <s_lp_Variant>
AV-unprocessed.smi:3116-15

> <Gold.Version>
5.8.1

> <Gold.Id.Protein>
6NUR|6NUR_protein|mol2

> <Gold.PLP.Fitness>
40.0770

> <Gold.PLP.PLP>
-34.8707

> <Gold.PLP.part.hbond>
-4.3771

> <Gold.PLP.part.metal>
0.0000

> <Gold.PLP.part.buried>
-2.8713

> <Gold.PLP.part.nonpolar>
-27.3779

> <Gold.PLP.part.repulsive>
0.2471

> <Gold.PLP.ligand.clash>
0.0000

> <Gold.PLP.ligand.torsion>
1.0602

> <Gold.PLP.Chemscore.Hbond>
2.4095

> <Gold.PLP.Chemscore.CHOScore>
0.0000

> <Gold.PLP.Chemscore.Metal>
0.0000

> <Gold.Chemscore.Hbonds>
donor molecule, donor type, donor heavy atom, donor atom, acceptor molecule, acceptor atom, score
      L1  H    14    32       P1  7948  1.00
      L1  H    14    33       P1  7957  0.46
      P1  H 10752 10765       L1    15  0.37

> <Gold.PLP.Chemscore.Internal.Correction>
0.0982

> <Gold.Rescore>
     Score         DG    S(hbond)    S(metal)    S(lipo)     H(rot)  DE(clash)    DE(int)     intcor
     13.49     -14.89       1.86        0.00      79.34       2.38       0.16       1.23       ----

> <Gold.Chemscore.Fitness>
13.4932

> <Gold.Chemscore.DG>
-14.8862

> <Gold.Chemscore.ZeroCoef>
-5.4800

> <Gold.Chemscore.Hbond>
1.8639

> <Gold.Chemscore.Metal>
0.0000

> <Gold.Chemscore.Lipo>
79.3390

> <Gold.Chemscore.Internal_Hbond>
0.0000

> <Gold.Chemscore.DEClash>
0.1610

> <Gold.Chemscore.DEInternal>
1.2320

> <Gold.Chemscore.Rot>
2.3836

> <Gold.Chemscore.Internal.Correction>
   9.000000E+99

> <Gold.Chemscore.Hbonds>
donor molecule, donor type, donor heavy atom, donor atom, acceptor molecule, acceptor atom, score
      L1  H    14    32       P1  7948  0.69
      L1  H    14    33       P1  7957  0.43
      P1  H 10752 10765       L1    15  0.37

> <Gold.Chemscore.Hbond.Weighted>
-6.2256

> <Gold.Chemscore.Metal.Weighted>
-0.0000

> <Gold.Chemscore.Lipo.Weighted>
-9.2827

> <Gold.Chemscore.Internal_Hbond.Weighted>
0.0000

> <Gold.Chemscore.DEClash.Weighted>
0.1610

> <Gold.Chemscore.DEInternal.Weighted>
1.2320

> <Gold.Chemscore.Rot.Weighted>
6.1020

> <Gold.Chemscore.Internal.Correction.Weighted>
   9.000000E+99

> <Gold.Protein.RotatedTorsions>
[ 6907 6896 6895 6894 ] final  177.27 input  -60.11 | X-H torsion
[ 7974 7965 7964 7962 ] final  106.62 input  175.53 | X-H torsion
[ 8008 7997 7996 7995 ] final -122.17 input   59.86 | X-H torsion
[ 10167 10162 10161 10158 ] final -168.91 input  -65.29 | X-H torsion
[ 10718 10713 10712 10709 ] final  -22.77 input   66.30 | X-H torsion
[ 10763 10752 10751 10750 ] final  169.43 input  -60.55 | X-H torsion
[ 11005 11000 10999 10996 ] final  -43.67 input  -57.11 | X-H torsion

> <Gold.Protein.ActiveResidues>
 VAL166  LYS551  ARG553  GLY616  TRP617  ASP618  TYR619  PRO620  LYS621  CYS622 
 ASP623  PHE694  ASN695  SER759  ASP760  ASP761  ALA762  ILE779  LEU786  VAL792 
 PHE793  MET794  SER795  GLU796  ALA797  LYS798  CYS799  TRP800  GLU811  SER814 

> <Gold.Protein.RotatedAtoms>
  151.7067  133.3311  159.3280 H   0  0  0  0  0  0  0  0  0  0  0  0  # atno 6907 bound_to 6896
  150.7712  134.6568  159.6327 H   0  0  0  0  0  0  0  0  0  0  0  0  # atno 6908 bound_to 6896
  152.3736  134.6699  160.0219 H   0  0  0  0  0  0  0  0  0  0  0  0  # atno 6909 bound_to 6896
  145.3042  139.2560  143.3797 H   0  0  0  0  0  0  0  0  0  0  0  0  # atno 7974 bound_to 7965
  155.1600  140.0405  157.2840 H   0  0  0  0  0  0  0  0  0  0  0  0  # atno 8008 bound_to 7997
  154.6343  140.2532  155.7369 H   0  0  0  0  0  0  0  0  0  0  0  0  # atno 8009 bound_to 7997
  156.2501  140.2869  156.0709 H   0  0  0  0  0  0  0  0  0  0  0  0  # atno 8010 bound_to 7997
  139.5956  144.1120  152.1685 H   0  0  0  0  0  0  0  0  0  0  0  0  # atno 10167 bound_to 10162
  156.5000  130.4586  149.6706 H   0  0  0  0  0  0  0  0  0  0  0  0  # atno 10718 bound_to 10713
  154.3830  135.2753  155.2200 H   0  0  0  0  0  0  0  0  0  0  0  0  # atno 10763 bound_to 10752
  154.4298  135.5980  153.6065 H   0  0  0  0  0  0  0  0  0  0  0  0  # atno 10764 bound_to 10752
  152.9834  135.5993  154.4075 H   0  0  0  0  0  0  0  0  0  0  0  0  # atno 10765 bound_to 10752
  141.0399  133.6784  156.2765 H   0  0  0  0  0  0  0  0  0  0  0  0  # atno 11005 bound_to 11000
  146.3141  140.3564  142.8661 LP  0  0  0  0  0  0  0  0  0  0  0  0  # atno 17320 bound_to 7965
  144.9068  140.7709  143.5832 LP  0  0  0  0  0  0  0  0  0  0  0  0  # atno 17321 bound_to 7965
  140.0704  144.5784  150.7196 LP  0  0  0  0  0  0  0  0  0  0  0  0  # atno 17342 bound_to 10162
  140.7209  143.2588  151.4282 LP  0  0  0  0  0  0  0  0  0  0  0  0  # atno 17343 bound_to 10162
  156.3342  130.7347  151.2282 LP  0  0  0  0  0  0  0  0  0  0  0  0  # atno 17370 bound_to 10713
  157.7464  131.0421  150.4680 LP  0  0  0  0  0  0  0  0  0  0  0  0  # atno 17371 bound_to 10713
  140.6254  134.5319  157.5553 LP  0  0  0  0  0  0  0  0  0  0  0  0  # atno 17394 bound_to 11000
  139.9268  134.8041  156.1046 LP  0  0  0  0  0  0  0  0  0  0  0  0  # atno 17395 bound_to 11000

$$$$
