AV-unprocessed.smi:3058|AV-procd|sdf|11673|dock1
  -GOLD-   2272017 73D 1   1.00000     0.00000
 Structure written by MMmdl.
 39 41  0  0  0  0  0  0  0  0  2 V2000
  153.3907  140.1917  158.6332 O   0  0  0  0  0  0  0  0  0  0  0  0
  152.5695  141.0731  158.3786 C   0  0  0  0  0  0  0  0  0  0  0  0
  151.4415  140.8387  157.6901 N   0  0  0  0  0  0  0  0  0  0  0  0
  151.0351  139.5389  157.1689 C   0  0  0  0  0  0  0  0  0  0  0  0
  150.9928  139.5285  155.6311 C   0  0  0  0  0  0  0  0  0  0  0  0
  149.7610  140.2249  155.0866 C   0  0  0  0  0  0  0  0  0  0  0  0
  148.7830  139.4964  154.3739 C   0  0  0  0  0  0  0  0  0  0  0  0
  147.6455  140.1673  153.8784 C   0  0  0  0  0  0  0  0  0  0  0  0
  147.5124  141.5523  154.1058 C   0  0  0  0  0  0  0  0  0  0  0  0
  148.4687  142.2162  154.7919 N   0  3  0  0  0  0  0  0  0  0  0  0
  149.5719  141.6100  155.2833 C   0  0  0  0  0  0  0  0  0  0  0  0
  152.7943  142.5232  158.8432 C   0  0  2  0  0  0  0  0  0  0  0  0
  152.5084  142.7343  160.3508 C   0  0  0  0  0  0  0  0  0  0  0  0
  151.4738  143.8770  160.3586 C   0  0  1  0  0  0  0  0  0  0  0  0
  152.1507  145.1861  159.9091 C   0  0  0  0  0  0  0  0  0  0  0  0
  152.3624  144.9578  158.3998 C   0  0  0  0  0  0  0  0  0  0  0  0
  151.8132  143.5329  158.1946 C   0  0  2  0  0  0  0  0  0  0  0  0
  150.6175  143.5381  159.1471 C   0  0  0  0  0  0  0  0  0  0  0  0
  150.8171  141.6149  157.5247 H   0  0  0  0  0  0  0  0  0  0  0  0
  151.7099  138.7658  157.5411 H   0  0  0  0  0  0  0  0  0  0  0  0
  150.0475  139.3079  157.5692 H   0  0  0  0  0  0  0  0  0  0  0  0
  151.8859  140.0098  155.2301 H   0  0  0  0  0  0  0  0  0  0  0  0
  151.0024  138.5040  155.2563 H   0  0  0  0  0  0  0  0  0  0  0  0
  148.9017  138.4350  154.2098 H   0  0  0  0  0  0  0  0  0  0  0  0
  146.8866  139.6271  153.3314 H   0  0  0  0  0  0  0  0  0  0  0  0
  146.6768  142.1445  153.7624 H   0  0  0  0  0  0  0  0  0  0  0  0
  150.2636  142.2478  155.8148 H   0  0  0  0  0  0  0  0  0  0  0  0
  153.8236  142.8057  158.6142 H   0  0  0  0  0  0  0  0  0  0  0  0
  152.0909  141.8423  160.8209 H   0  0  0  0  0  0  0  0  0  0  0  0
  153.4101  142.9991  160.9042 H   0  0  0  0  0  0  0  0  0  0  0  0
  150.9283  143.9668  161.2984 H   0  0  0  0  0  0  0  0  0  0  0  0
  151.4957  146.0417  160.0787 H   0  0  0  0  0  0  0  0  0  0  0  0
  153.0863  145.3703  160.4384 H   0  0  0  0  0  0  0  0  0  0  0  0
  151.7875  145.6808  157.8195 H   0  0  0  0  0  0  0  0  0  0  0  0
  153.4082  145.0517  158.1054 H   0  0  0  0  0  0  0  0  0  0  0  0
  151.5651  143.3110  157.1558 H   0  0  0  0  0  0  0  0  0  0  0  0
  150.1059  142.5795  159.2345 H   0  0  0  0  0  0  0  0  0  0  0  0
  149.8805  144.3078  158.9111 H   0  0  0  0  0  0  0  0  0  0  0  0
  148.3525  143.2183  154.9451 H   0  0  0  0  0  0  0  0  0  0  0  0
  1  2  2  0  0  0  0
  2  3  1  0  0  0  0
  2 12  1  0  0  0  0
  3  4  1  0  0  0  0
  3 19  1  0  0  0  0
  4  5  1  0  0  0  0
  4 20  1  0  0  0  0
  4 21  1  0  0  0  0
  5  6  1  0  0  0  0
  5 22  1  0  0  0  0
  5 23  1  0  0  0  0
  6 11  1  0  0  0  0
  6  7  2  0  0  0  0
  7  8  1  0  0  0  0
  7 24  1  0  0  0  0
  8  9  2  0  0  0  0
  8 25  1  0  0  0  0
  9 10  1  0  0  0  0
  9 26  1  0  0  0  0
 10 11  2  0  0  0  0
 10 39  1  0  0  0  0
 11 27  1  0  0  0  0
 12 17  1  0  0  0  0
 12 13  1  0  0  0  0
 12 28  1  0  0  0  0
 13 14  1  0  0  0  0
 13 29  1  0  0  0  0
 13 30  1  0  0  0  0
 14 18  1  0  0  0  0
 14 15  1  0  0  0  0
 14 31  1  0  0  0  0
 15 16  1  0  0  0  0
 15 32  1  0  0  0  0
 15 33  1  0  0  0  0
 16 17  1  0  0  0  0
 16 34  1  0  0  0  0
 16 35  1  0  0  0  0
 17 18  1  0  0  0  0
 17 36  1  0  0  0  0
 18 37  1  0  0  0  0
 18 38  1  0  0  0  0
M  CHG  1  10   1
M  END
> <s_m_source_file>
AV-unprocessed.smi

> <i_m_source_file_index>
3058

> <i_lp_mmshare_version>
43012

> <i_f3d_flags>
0

> <s_epik_input>
W0NIMl0xW0NIMl1bQ0BIXShbQ0gyXTIpW0NAQEhdKFtDSDJdW0NAQEhdMTIpQyg9TylbTkhdW0NIMl1bQ0gyXWMzW2NIXVtjSF1bY0hdbltjSF0z

> <s_epik_cmdline>
J2VwaWtfcHl0aG9uJywgJy1waCcsICc3LjAnLCAnLXRuJywgJzgnLCAnLW1hJywgJzIwMCcsICctbWV0YWxfYmluZGluZycsICctaW1hZScsICc8aW5maWxlLm1hZT4nLCAnLW9tYWUnLCAnPG91dGZpbGUubWFlPic=

> <r_epik_Ionization_Penalty>
2.24375

> <r_epik_Ionization_Penalty_Charging>
2.24375

> <r_epik_Ionization_Penalty_Neutral>
1.89995e-08

> <r_epik_State_Penalty>
2.39035

> <r_epik_Charging_Adjusted_Penalty>
4.63411

> <i_epik_Tot_Q>
1

> <i_epik_Tot_abs_Q>
1

> <r_epik_Metal_State_Penalty>
2.40369

> <b_epik_Metal_Only>
0

> <s_lp_Force_Field>
OPLS_2005

> <r_lp_Energy>
53.6325

> <b_lp_Chiralities_Consistent>
1

> <s_lp_Variant>
AV-unprocessed.smi:3058-5

> <Gold.Version>
5.8.1

> <Gold.Id.Protein>
6NUR|6NUR_protein|mol2

> <Gold.PLP.Fitness>
50.1774

> <Gold.PLP.PLP>
-42.1542

> <Gold.PLP.part.hbond>
-2.0000

> <Gold.PLP.part.metal>
0.0000

> <Gold.PLP.part.buried>
-3.0814

> <Gold.PLP.part.nonpolar>
-36.7948

> <Gold.PLP.part.repulsive>
0.2818

> <Gold.PLP.ligand.clash>
0.0000

> <Gold.PLP.ligand.torsion>
0.4451

> <Gold.PLP.Chemscore.Hbond>
2.9600

> <Gold.PLP.Chemscore.CHOScore>
0.0000

> <Gold.PLP.Chemscore.Metal>
0.0000

> <Gold.Chemscore.Hbonds>
donor molecule, donor type, donor heavy atom, donor atom, acceptor molecule, acceptor atom, score
      L1  H    10    39       P1  8028  2.00
      P1  H  7997  8008       L1     1  0.96

> <Gold.PLP.Chemscore.Internal.Correction>
0.0334

> <Gold.Rescore>
     Score         DG    S(hbond)    S(metal)    S(lipo)     H(rot)  DE(clash)    DE(int)     intcor
     21.44     -21.93       1.74        0.00     122.90       1.45       0.08       0.42       ----

> <Gold.Chemscore.Fitness>
21.4442

> <Gold.Chemscore.DG>
-21.9345

> <Gold.Chemscore.ZeroCoef>
-5.4800

> <Gold.Chemscore.Hbond>
1.7363

> <Gold.Chemscore.Metal>
0.0000

> <Gold.Chemscore.Lipo>
122.9019

> <Gold.Chemscore.Internal_Hbond>
0.0000

> <Gold.Chemscore.DEClash>
0.0752

> <Gold.Chemscore.DEInternal>
0.4150

> <Gold.Chemscore.Rot>
1.4548

> <Gold.Chemscore.Internal.Correction>
   9.000000E+99

> <Gold.Chemscore.Hbonds>
donor molecule, donor type, donor heavy atom, donor atom, acceptor molecule, acceptor atom, score
      L1  H    10    39       P1  8028  0.96
      P1  H  7997  8008       L1     1  0.62

> <Gold.Chemscore.Hbond.Weighted>
-5.7991

> <Gold.Chemscore.Metal.Weighted>
-0.0000

> <Gold.Chemscore.Lipo.Weighted>
-14.3795

> <Gold.Chemscore.Internal_Hbond.Weighted>
0.0000

> <Gold.Chemscore.DEClash.Weighted>
0.0752

> <Gold.Chemscore.DEInternal.Weighted>
0.4150

> <Gold.Chemscore.Rot.Weighted>
3.7242

> <Gold.Chemscore.Internal.Correction.Weighted>
   9.000000E+99

> <Gold.Protein.RotatedTorsions>
[ 6907 6896 6895 6894 ] final  158.90 input  -60.11 | X-H torsion
[ 7974 7965 7964 7962 ] final  -23.61 input  175.53 | X-H torsion
[ 8008 7997 7996 7995 ] final  -94.21 input   59.86 | X-H torsion
[ 10167 10162 10161 10158 ] final   12.28 input  -65.29 | X-H torsion
[ 10718 10713 10712 10709 ] final -109.72 input   66.30 | X-H torsion
[ 10763 10752 10751 10750 ] final  155.08 input  -60.55 | X-H torsion
[ 11005 11000 10999 10996 ] final   42.33 input  -57.11 | X-H torsion

> <Gold.Protein.ActiveResidues>
 VAL166  LYS551  ARG553  GLY616  TRP617  ASP618  TYR619  PRO620  LYS621  CYS622 
 ASP623  PHE694  ASN695  SER759  ASP760  ASP761  ALA762  ILE779  LEU786  VAL792 
 PHE793  MET794  SER795  GLU796  ALA797  LYS798  CYS799  TRP800  GLU811  SER814 

> <Gold.Protein.RotatedAtoms>
  151.9936  133.3800  159.4153 H   0  0  0  0  0  0  0  0  0  0  0  0  # atno 6907 bound_to 6896
  150.6918  134.3910  159.5085 H   0  0  0  0  0  0  0  0  0  0  0  0  # atno 6908 bound_to 6896
  152.1647  134.8883  160.0589 H   0  0  0  0  0  0  0  0  0  0  0  0  # atno 6909 bound_to 6896
  146.1606  140.4639  142.8573 H   0  0  0  0  0  0  0  0  0  0  0  0  # atno 7974 bound_to 7965
  154.7455  140.0491  157.0848 H   0  0  0  0  0  0  0  0  0  0  0  0  # atno 8008 bound_to 7997
  155.0124  140.3137  155.4805 H   0  0  0  0  0  0  0  0  0  0  0  0  # atno 8009 bound_to 7997
  156.2874  140.2182  156.5239 H   0  0  0  0  0  0  0  0  0  0  0  0  # atno 8010 bound_to 7997
  140.6078  143.8471  150.7032 H   0  0  0  0  0  0  0  0  0  0  0  0  # atno 10167 bound_to 10162
  156.0552  130.5778  150.8139 H   0  0  0  0  0  0  0  0  0  0  0  0  # atno 10718 bound_to 10713
  154.1626  135.2809  155.3104 H   0  0  0  0  0  0  0  0  0  0  0  0  # atno 10763 bound_to 10752
  154.6135  135.5491  153.7502 H   0  0  0  0  0  0  0  0  0  0  0  0  # atno 10764 bound_to 10752
  153.0188  135.6421  154.1768 H   0  0  0  0  0  0  0  0  0  0  0  0  # atno 10765 bound_to 10752
  140.1749  134.4175  155.8234 H   0  0  0  0  0  0  0  0  0  0  0  0  # atno 11005 bound_to 11000
  144.8021  140.6233  143.6471 LP  0  0  0  0  0  0  0  0  0  0  0  0  # atno 17320 bound_to 7965
  145.4599  139.1514  143.3872 LP  0  0  0  0  0  0  0  0  0  0  0  0  # atno 17321 bound_to 7965
  140.2033  143.3942  152.1775 LP  0  0  0  0  0  0  0  0  0  0  0  0  # atno 17342 bound_to 10162
  139.5338  144.7188  151.4964 LP  0  0  0  0  0  0  0  0  0  0  0  0  # atno 17343 bound_to 10162
  157.5515  131.0944  150.9688 LP  0  0  0  0  0  0  0  0  0  0  0  0  # atno 17370 bound_to 10713
  156.9947  130.5577  149.5306 LP  0  0  0  0  0  0  0  0  0  0  0  0  # atno 17371 bound_to 10713
  141.2220  133.6973  156.7829 LP  0  0  0  0  0  0  0  0  0  0  0  0  # atno 17394 bound_to 11000
  140.2334  134.8669  157.3500 LP  0  0  0  0  0  0  0  0  0  0  0  0  # atno 17395 bound_to 11000

$$$$
