AV-unprocessed.smi:2503|AV-procd|sdf|9848|dock5
  -GOLD-   2272013473D 1   1.00000     0.00000
 Structure written by MMmdl.
 36 37  0  0  0  0  0  0  0  0  1 V2000
  146.5784  141.8594  156.4437 C   0  0  0  0  0  0  0  0  0  0  0  0
  145.6217  141.4837  155.3023 C   0  0  0  0  0  0  0  0  0  0  0  0
  144.1877  141.2583  155.8041 C   0  0  0  0  0  0  0  0  0  0  0  0
  146.1227  140.3001  154.5188 C   0  0  0  0  0  0  0  0  0  0  0  0
  145.4211  139.1796  154.3647 N   0  0  0  0  0  0  0  0  0  0  0  0
  146.2084  138.3662  153.5594 C   0  0  0  0  0  0  0  0  0  0  0  0
  147.3647  139.0317  153.2365 C   0  0  0  0  0  0  0  0  0  0  0  0
  147.2956  140.2788  153.8466 N   0  0  0  0  0  0  0  0  0  0  0  0
  148.3115  141.3171  153.7426 C   0  0  0  0  0  0  0  0  0  0  0  0
  149.4851  141.0516  154.6908 C   0  0  0  0  0  0  0  0  0  0  0  0
  150.1587  140.0301  154.5392 O   0  0  0  0  0  0  0  0  0  0  0  0
  149.6878  142.0001  155.6343 N   0  0  0  0  0  0  0  0  0  0  0  0
  150.6518  142.1269  156.5765 C   0  0  0  0  0  0  0  0  0  0  0  0
  151.3308  141.1561  156.9072 O   0  0  0  0  0  0  0  0  0  0  0  0
  150.8137  143.3439  157.1277 N   0  0  0  0  0  0  0  0  0  0  0  0
  151.6235  143.6453  158.2631 C   0  0  0  0  0  0  0  0  0  0  0  0
  151.5537  145.0499  158.8218 C   0  0  0  0  0  0  0  0  0  0  0  0
  152.7752  144.6066  158.0651 C   0  0  0  0  0  0  0  0  0  0  0  0
  147.5773  142.0734  156.0625 H   0  0  0  0  0  0  0  0  0  0  0  0
  146.6657  141.0538  157.1737 H   0  0  0  0  0  0  0  0  0  0  0  0
  146.2300  142.7475  156.9715 H   0  0  0  0  0  0  0  0  0  0  0  0
  145.5919  142.3501  154.6441 H   0  0  0  0  0  0  0  0  0  0  0  0
  143.5076  141.0634  154.9741 H   0  0  0  0  0  0  0  0  0  0  0  0
  143.8154  142.1342  156.3356 H   0  0  0  0  0  0  0  0  0  0  0  0
  144.1342  140.4077  156.4842 H   0  0  0  0  0  0  0  0  0  0  0  0
  145.8840  137.3763  153.2749 H   0  0  0  0  0  0  0  0  0  0  0  0
  148.2066  138.7324  152.6296 H   0  0  0  0  0  0  0  0  0  0  0  0
  148.6414  141.3919  152.7054 H   0  0  0  0  0  0  0  0  0  0  0  0
  147.8638  142.2783  153.9975 H   0  0  0  0  0  0  0  0  0  0  0  0
  149.0116  142.7497  155.6295 H   0  0  0  0  0  0  0  0  0  0  0  0
  150.3181  144.1175  156.7069 H   0  0  0  0  0  0  0  0  0  0  0  0
  151.7886  142.8481  158.9868 H   0  0  0  0  0  0  0  0  0  0  0  0
  150.8892  145.7596  158.3321 H   0  0  0  0  0  0  0  0  0  0  0  0
  151.6447  145.1657  159.8999 H   0  0  0  0  0  0  0  0  0  0  0  0
  153.6828  144.4261  158.6373 H   0  0  0  0  0  0  0  0  0  0  0  0
  152.9271  145.0222  157.0707 H   0  0  0  0  0  0  0  0  0  0  0  0
  1  2  1  0  0  0  0
  1 19  1  0  0  0  0
  1 20  1  0  0  0  0
  1 21  1  0  0  0  0
  2  3  1  0  0  0  0
  2  4  1  0  0  0  0
  2 22  1  0  0  0  0
  3 23  1  0  0  0  0
  3 24  1  0  0  0  0
  3 25  1  0  0  0  0
  4  8  1  0  0  0  0
  4  5  2  0  0  0  0
  5  6  1  0  0  0  0
  6  7  2  0  0  0  0
  6 26  1  0  0  0  0
  7  8  1  0  0  0  0
  7 27  1  0  0  0  0
  8  9  1  0  0  0  0
  9 10  1  0  0  0  0
  9 28  1  0  0  0  0
  9 29  1  0  0  0  0
 10 11  2  0  0  0  0
 10 12  1  0  0  0  0
 12 13  1  0  0  0  0
 12 30  1  0  0  0  0
 13 14  2  0  0  0  0
 13 15  1  0  0  0  0
 15 16  1  0  0  0  0
 15 31  1  0  0  0  0
 16 18  1  0  0  0  0
 16 17  1  0  0  0  0
 16 32  1  0  0  0  0
 17 18  1  0  0  0  0
 17 33  1  0  0  0  0
 17 34  1  0  0  0  0
 18 35  1  0  0  0  0
 18 36  1  0  0  0  0
M  END
> <s_m_source_file>
AV-unprocessed.smi

> <i_m_source_file_index>
2503

> <i_lp_mmshare_version>
43012

> <i_f3d_flags>
0

> <s_epik_input>
W0NIM11bQ0hdKFtDSDNdKWMxbltjSF1bY0hdbjFbQ0gyXUMoPU8pW05IXUMoPU8pW05IXVtDSF0yW0NIMl1bQ0gyXTI=

> <s_epik_cmdline>
J2VwaWtfcHl0aG9uJywgJy1waCcsICc3LjAnLCAnLXRuJywgJzgnLCAnLW1hJywgJzIwMCcsICctbWV0YWxfYmluZGluZycsICctaW1hZScsICc8aW5maWxlLm1hZT4nLCAnLW9tYWUnLCAnPG91dGZpbGUubWFlPic=

> <r_lp_tautomer_probability>
1

> <r_epik_Ionization_Penalty>
0.441646

> <r_epik_Ionization_Penalty_Charging>
0.441618

> <r_epik_Ionization_Penalty_Neutral>
2.81151e-05

> <r_epik_State_Penalty>
0.443748

> <r_epik_Charging_Adjusted_Penalty>
0.885366

> <i_epik_Tot_Q>
0

> <i_epik_Tot_abs_Q>
0

> <r_epik_Metal_State_Penalty>
0.251733

> <b_epik_Metal_Only>
0

> <s_lp_Force_Field>
OPLS_2005

> <r_lp_Energy>
20.0487

> <b_lp_Chiralities_Consistent>
1

> <s_lp_Variant>
AV-unprocessed.smi:2503-2

> <Gold.Version>
5.8.1

> <Gold.Id.Protein>
6NUR|6NUR_protein|mol2

> <Gold.PLP.Fitness>
45.6015

> <Gold.PLP.PLP>
-33.2007

> <Gold.PLP.part.hbond>
-3.0000

> <Gold.PLP.part.metal>
0.0000

> <Gold.PLP.part.buried>
-2.9178

> <Gold.PLP.part.nonpolar>
-27.0441

> <Gold.PLP.part.repulsive>
0.7246

> <Gold.PLP.ligand.clash>
0.0000

> <Gold.PLP.ligand.torsion>
0.4368

> <Gold.PLP.Chemscore.Hbond>
2.8000

> <Gold.PLP.Chemscore.CHOScore>
1.5858

> <Gold.PLP.Chemscore.Metal>
0.0000

> <Gold.Chemscore.Hbonds>
donor molecule, donor type, donor heavy atom, donor atom, acceptor molecule, acceptor atom, score
      L1  H    12    30       P1  8028  0.85
      L1  H    15    31       P1  8028  1.00
      P1  H  7989  7998       L1    11  0.80
      L1  C     7    27       P1  7948  0.59
      L1  C     7    27       P1  7957  1.00

> <Gold.PLP.Chemscore.Internal.Correction>
0.1169

> <Gold.Rescore>
     Score         DG    S(hbond)    S(metal)    S(lipo)     H(rot)  DE(clash)    DE(int)     intcor
     13.85     -15.94       2.21        0.00      65.20       1.77       0.13       1.96       ----

> <Gold.Chemscore.Fitness>
13.8467

> <Gold.Chemscore.DG>
-15.9372

> <Gold.Chemscore.ZeroCoef>
-5.4800

> <Gold.Chemscore.Hbond>
2.2065

> <Gold.Chemscore.Metal>
0.0000

> <Gold.Chemscore.Lipo>
65.2006

> <Gold.Chemscore.Internal_Hbond>
0.0000

> <Gold.Chemscore.DEClash>
0.1341

> <Gold.Chemscore.DEInternal>
1.9565

> <Gold.Chemscore.Rot>
1.7738

> <Gold.Chemscore.Internal.Correction>
   9.000000E+99

> <Gold.Chemscore.Hbonds>
donor molecule, donor type, donor heavy atom, donor atom, acceptor molecule, acceptor atom, score
      L1  H    12    30       P1  8028  0.82
      L1  H    15    31       P1  8028  0.94
      P1  H  7989  7998       L1    11  0.11

> <Gold.Chemscore.Hbond.Weighted>
-7.3697

> <Gold.Chemscore.Metal.Weighted>
-0.0000

> <Gold.Chemscore.Lipo.Weighted>
-7.6285

> <Gold.Chemscore.Internal_Hbond.Weighted>
0.0000

> <Gold.Chemscore.DEClash.Weighted>
0.1341

> <Gold.Chemscore.DEInternal.Weighted>
1.9565

> <Gold.Chemscore.Rot.Weighted>
4.5409

> <Gold.Chemscore.Internal.Correction.Weighted>
   9.000000E+99

> <Gold.Protein.RotatedTorsions>
[ 6907 6896 6895 6894 ] final -172.45 input  -60.11 | X-H torsion
[ 7974 7965 7964 7962 ] final  157.71 input  175.53 | X-H torsion
[ 8008 7997 7996 7995 ] final  -33.30 input   59.86 | X-H torsion
[ 10167 10162 10161 10158 ] final   72.00 input  -65.29 | X-H torsion
[ 10718 10713 10712 10709 ] final  -61.11 input   66.30 | X-H torsion
[ 10763 10752 10751 10750 ] final -156.44 input  -60.55 | X-H torsion
[ 11005 11000 10999 10996 ] final  -23.03 input  -57.11 | X-H torsion

> <Gold.Protein.ActiveResidues>
 VAL166  LYS551  ARG553  GLY616  TRP617  ASP618  TYR619  PRO620  LYS621  CYS622 
 ASP623  PHE694  ASN695  SER759  ASP760  ASP761  ALA762  ILE779  LEU786  VAL792 
 PHE793  MET794  SER795  GLU796  ALA797  LYS798  CYS799  TRP800  GLU811  SER814 

> <Gold.Protein.RotatedAtoms>
  151.5401  133.3434  159.2933 H   0  0  0  0  0  0  0  0  0  0  0  0  # atno 6907 bound_to 6896
  150.8541  134.7877  159.7042 H   0  0  0  0  0  0  0  0  0  0  0  0  # atno 6908 bound_to 6896
  152.4579  134.5259  159.9848 H   0  0  0  0  0  0  0  0  0  0  0  0  # atno 6909 bound_to 6896
  144.7888  139.7377  143.6230 H   0  0  0  0  0  0  0  0  0  0  0  0  # atno 7974 bound_to 7965
  154.4153  140.1714  156.1866 H   0  0  0  0  0  0  0  0  0  0  0  0  # atno 8008 bound_to 7997
  155.9638  140.3391  155.6490 H   0  0  0  0  0  0  0  0  0  0  0  0  # atno 8009 bound_to 7997
  155.6714  140.0712  157.2509 H   0  0  0  0  0  0  0  0  0  0  0  0  # atno 8010 bound_to 7997
  140.0400  144.5397  150.7441 H   0  0  0  0  0  0  0  0  0  0  0  0  # atno 10167 bound_to 10162
  156.0944  130.4195  150.0948 H   0  0  0  0  0  0  0  0  0  0  0  0  # atno 10718 bound_to 10713
  154.7712  135.3146  154.8185 H   0  0  0  0  0  0  0  0  0  0  0  0  # atno 10763 bound_to 10752
  153.8920  135.6824  153.4764 H   0  0  0  0  0  0  0  0  0  0  0  0  # atno 10764 bound_to 10752
  153.1327  135.4773  154.9308 H   0  0  0  0  0  0  0  0  0  0  0  0  # atno 10765 bound_to 10752
  140.8713  133.7718  156.0190 H   0  0  0  0  0  0  0  0  0  0  0  0  # atno 11005 bound_to 11000
  146.2131  139.5501  142.9668 LP  0  0  0  0  0  0  0  0  0  0  0  0  # atno 17320 bound_to 7965
  145.5851  141.0377  143.2101 LP  0  0  0  0  0  0  0  0  0  0  0  0  # atno 17321 bound_to 7965
  140.7264  143.2641  151.4105 LP  0  0  0  0  0  0  0  0  0  0  0  0  # atno 17342 bound_to 10162
  139.6020  144.1276  152.2208 LP  0  0  0  0  0  0  0  0  0  0  0  0  # atno 17343 bound_to 10162
  156.8950  130.9601  151.3583 LP  0  0  0  0  0  0  0  0  0  0  0  0  # atno 17370 bound_to 10713
  157.6101  130.8577  149.8938 LP  0  0  0  0  0  0  0  0  0  0  0  0  # atno 17371 bound_to 10713
  140.8569  134.2887  157.5251 LP  0  0  0  0  0  0  0  0  0  0  0  0  # atno 17394 bound_to 11000
  139.8712  134.9498  156.4035 LP  0  0  0  0  0  0  0  0  0  0  0  0  # atno 17395 bound_to 11000

$$$$
