AV-unprocessed.smi:2566|AV-procd|sdf|10074|dock2
  -GOLD-   2272014103D 1   1.00000     0.00000
 Structure written by MMmdl.
 20 21  0  0  0  0  0  0  0  0  1 V2000
  151.6775  138.0524  154.3135 C   0  0  0  0  0  0  0  0  0  0  0  0
  151.2812  139.2692  154.6719 N   0  0  0  0  0  0  0  0  0  0  0  0
  151.5276  139.2360  156.0130 C   0  0  0  0  0  0  0  0  0  0  0  0
  151.2165  140.3724  156.9374 C   0  0  2  0  0  0  0  0  0  0  0  0
  150.6680  141.6008  156.1851 C   0  0  0  0  0  0  0  0  0  0  0  0
  150.4684  142.7137  157.1124 N   0  0  0  0  0  0  0  0  0  0  0  0
  151.6986  143.0198  157.8412 C   0  0  0  0  0  0  0  0  0  0  0  0
  152.2317  141.7596  158.5467 C   0  0  0  0  0  0  0  0  0  0  0  0
  152.4342  140.7242  157.5906 O   0  0  0  0  0  0  0  0  0  0  0  0
  152.0068  138.0891  156.4832 N   0  0  0  0  0  0  0  0  0  0  0  0
  152.1224  137.2882  155.3375 O   0  0  0  0  0  0  0  0  0  0  0  0
  151.6508  137.6755  153.3017 H   0  0  0  0  0  0  0  0  0  0  0  0
  150.4931  140.0313  157.6809 H   0  0  0  0  0  0  0  0  0  0  0  0
  151.3668  141.8953  155.4010 H   0  0  0  0  0  0  0  0  0  0  0  0
  149.7284  141.3521  155.6911 H   0  0  0  0  0  0  0  0  0  0  0  0
  150.1642  143.5345  156.5984 H   0  0  0  0  0  0  0  0  0  0  0  0
  152.4534  143.3995  157.1516 H   0  0  0  0  0  0  0  0  0  0  0  0
  151.5151  143.8088  158.5708 H   0  0  0  0  0  0  0  0  0  0  0  0
  153.1812  141.9781  159.0353 H   0  0  0  0  0  0  0  0  0  0  0  0
  151.5436  141.4257  159.3250 H   0  0  0  0  0  0  0  0  0  0  0  0
  1 11  1  0  0  0  0
  1  2  2  0  0  0  0
  1 12  1  0  0  0  0
  2  3  1  0  0  0  0
  3  4  1  0  0  0  0
  3 10  2  0  0  0  0
  4  9  1  0  0  0  0
  4  5  1  0  0  0  0
  4 13  1  0  0  0  0
  5  6  1  0  0  0  0
  5 14  1  0  0  0  0
  5 15  1  0  0  0  0
  6  7  1  0  0  0  0
  6 16  1  0  0  0  0
  7  8  1  0  0  0  0
  7 17  1  0  0  0  0
  7 18  1  0  0  0  0
  8  9  1  0  0  0  0
  8 19  1  0  0  0  0
  8 20  1  0  0  0  0
 10 11  1  0  0  0  0
M  END
> <s_m_source_file>
AV-unprocessed.smi

> <i_m_source_file_index>
2566

> <i_lp_mmshare_version>
43012

> <i_f3d_flags>
0

> <s_epik_input>
bjFvW2NIXW5jMVtDQEBIXTJbQ0gyXVtOSF1bQ0gyXVtDSDJdTzI=

> <s_epik_cmdline>
J2VwaWtfcHl0aG9uJywgJy1waCcsICc3LjAnLCAnLXRuJywgJzgnLCAnLW1hJywgJzIwMCcsICctbWV0YWxfYmluZGluZycsICctaW1hZScsICc8aW5maWxlLm1hZT4nLCAnLW9tYWUnLCAnPG91dGZpbGUubWFlPic=

> <r_lp_tautomer_probability>
1

> <r_epik_Ionization_Penalty>
0.861744

> <r_epik_Ionization_Penalty_Charging>
0

> <r_epik_Ionization_Penalty_Neutral>
0.861744

> <r_epik_State_Penalty>
0.898282

> <r_epik_Charging_Adjusted_Penalty>
0.898282

> <i_epik_Tot_Q>
0

> <i_epik_Tot_abs_Q>
0

> <r_epik_Metal_State_Penalty>
0.898282

> <b_epik_Metal_Only>
0

> <s_lp_Force_Field>
OPLS_2005

> <r_lp_Energy>
10.916

> <b_lp_Chiralities_Consistent>
1

> <s_lp_Variant>
AV-unprocessed.smi:2566-3

> <Gold.Version>
5.8.1

> <Gold.Id.Protein>
6NUR|6NUR_protein|mol2

> <Gold.PLP.Fitness>
30.5242

> <Gold.PLP.PLP>
-17.8761

> <Gold.PLP.part.hbond>
-3.9159

> <Gold.PLP.part.metal>
0.0000

> <Gold.PLP.part.buried>
-1.9227

> <Gold.PLP.part.nonpolar>
-11.8935

> <Gold.PLP.part.repulsive>
0.1400

> <Gold.PLP.ligand.clash>
0.0000

> <Gold.PLP.ligand.torsion>
0.0109

> <Gold.PLP.Chemscore.Hbond>
3.2189

> <Gold.PLP.Chemscore.CHOScore>
1.0000

> <Gold.PLP.Chemscore.Metal>
0.0000

> <Gold.Chemscore.Hbonds>
donor molecule, donor type, donor heavy atom, donor atom, acceptor molecule, acceptor atom, score
      L1  H     6    16       P1  8028  1.00
      P1  H  7989  7998       L1     2  1.00
      P1  H  7997  8009       L1     9  0.37
      P1  H 10752 10765       L1    11  0.85
      L1  C     1    12       P1  7949  1.00

> <Gold.PLP.Chemscore.Internal.Correction>
0.0132

> <Gold.Rescore>
     Score         DG    S(hbond)    S(metal)    S(lipo)     H(rot)  DE(clash)    DE(int)     intcor
     17.26     -17.46       3.24        0.00      31.77       1.00       0.13       0.06       ----

> <Gold.Chemscore.Fitness>
17.2616

> <Gold.Chemscore.DG>
-17.4559

> <Gold.Chemscore.ZeroCoef>
-5.4800

> <Gold.Chemscore.Hbond>
3.2392

> <Gold.Chemscore.Metal>
0.0000

> <Gold.Chemscore.Lipo>
31.7700

> <Gold.Chemscore.Internal_Hbond>
0.0000

> <Gold.Chemscore.DEClash>
0.1312

> <Gold.Chemscore.DEInternal>
0.0630

> <Gold.Chemscore.Rot>
1.0000

> <Gold.Chemscore.Internal.Correction>
   9.000000E+99

> <Gold.Chemscore.Hbonds>
donor molecule, donor type, donor heavy atom, donor atom, acceptor molecule, acceptor atom, score
      L1  H     6    16       P1  8028  0.97
      P1  H  7989  7998       L1     2  0.93
      P1  H  7997  8009       L1     9  0.35
      P1  H 10752 10765       L1    11  0.59

> <Gold.Chemscore.Hbond.Weighted>
-10.8188

> <Gold.Chemscore.Metal.Weighted>
-0.0000

> <Gold.Chemscore.Lipo.Weighted>
-3.7171

> <Gold.Chemscore.Internal_Hbond.Weighted>
0.0000

> <Gold.Chemscore.DEClash.Weighted>
0.1312

> <Gold.Chemscore.DEInternal.Weighted>
0.0630

> <Gold.Chemscore.Rot.Weighted>
2.5600

> <Gold.Chemscore.Internal.Correction.Weighted>
   9.000000E+99

> <Gold.Protein.RotatedTorsions>
[ 6907 6896 6895 6894 ] final   38.77 input  -60.11 | X-H torsion
[ 7974 7965 7964 7962 ] final   54.46 input  175.53 | X-H torsion
[ 8008 7997 7996 7995 ] final  177.99 input   59.86 | X-H torsion
[ 10167 10162 10161 10158 ] final   77.69 input  -65.29 | X-H torsion
[ 10718 10713 10712 10709 ] final  -72.35 input   66.30 | X-H torsion
[ 10763 10752 10751 10750 ] final -179.53 input  -60.55 | X-H torsion
[ 11005 11000 10999 10996 ] final  -11.66 input  -57.11 | X-H torsion

> <Gold.Protein.ActiveResidues>
 VAL166  LYS551  ARG553  GLY616  TRP617  ASP618  TYR619  PRO620  LYS621  CYS622 
 ASP623  PHE694  ASN695  SER759  ASP760  ASP761  ALA762  ILE779  LEU786  VAL792 
 PHE793  MET794  SER795  GLU796  ALA797  LYS798  CYS799  TRP800  GLU811  SER814 

> <Gold.Protein.RotatedAtoms>
  152.1608  134.8913  160.0541 H   0  0  0  0  0  0  0  0  0  0  0  0  # atno 6907 bound_to 6896
  151.9910  133.3786  159.4152 H   0  0  0  0  0  0  0  0  0  0  0  0  # atno 6908 bound_to 6896
  150.6887  134.3859  159.5099 H   0  0  0  0  0  0  0  0  0  0  0  0  # atno 6909 bound_to 6896
  145.9606  139.4056  143.0250 H   0  0  0  0  0  0  0  0  0  0  0  0  # atno 7974 bound_to 7965
  156.0596  140.1344  156.9957 H   0  0  0  0  0  0  0  0  0  0  0  0  # atno 8008 bound_to 7997
  154.4475  140.0994  156.6567 H   0  0  0  0  0  0  0  0  0  0  0  0  # atno 8009 bound_to 7997
  155.5398  140.3460  155.4446 H   0  0  0  0  0  0  0  0  0  0  0  0  # atno 8010 bound_to 7997
  139.9788  144.5841  150.7919 H   0  0  0  0  0  0  0  0  0  0  0  0  # atno 10167 bound_to 10162
  156.0324  130.4370  150.2579 H   0  0  0  0  0  0  0  0  0  0  0  0  # atno 10718 bound_to 10713
  154.5338  135.2801  155.1156 H   0  0  0  0  0  0  0  0  0  0  0  0  # atno 10763 bound_to 10752
  154.2665  135.6311  153.5298 H   0  0  0  0  0  0  0  0  0  0  0  0  # atno 10764 bound_to 10752
  152.9963  135.5618  154.5859 H   0  0  0  0  0  0  0  0  0  0  0  0  # atno 10765 bound_to 10752
  140.7576  133.8541  155.9097 H   0  0  0  0  0  0  0  0  0  0  0  0  # atno 11005 bound_to 11000
  145.8044  140.9755  143.0981 LP  0  0  0  0  0  0  0  0  0  0  0  0  # atno 17320 bound_to 7965
  144.6814  139.9842  143.7484 LP  0  0  0  0  0  0  0  0  0  0  0  0  # atno 17321 bound_to 7965
  140.7496  143.2942  151.3250 LP  0  0  0  0  0  0  0  0  0  0  0  0  # atno 17342 bound_to 10162
  139.6425  144.0513  152.2565 LP  0  0  0  0  0  0  0  0  0  0  0  0  # atno 17343 bound_to 10162
  157.0681  131.0109  151.3200 LP  0  0  0  0  0  0  0  0  0  0  0  0  # atno 17370 bound_to 10713
  157.5020  130.7886  149.7615 LP  0  0  0  0  0  0  0  0  0  0  0  0  # atno 17371 bound_to 10713
  140.9693  134.1552  157.4589 LP  0  0  0  0  0  0  0  0  0  0  0  0  # atno 17394 bound_to 11000
  139.8776  134.9973  156.5839 LP  0  0  0  0  0  0  0  0  0  0  0  0  # atno 17395 bound_to 11000

$$$$
