AV-unprocessed.smi:473|AV-procd|sdf|2663|dock5
  -GOLD-   2262023 73D 1   1.00000     0.00000
 Structure written by MMmdl.
 43 45  0  0  0  0  0  0  0  0  2 V2000
  152.0559  145.1081  160.3269 C   0  0  0  0  0  0  0  0  0  0  0  0
  151.8703  143.8289  159.5283 C   0  0  0  0  0  0  0  0  0  0  0  0
  151.0900  143.8762  158.3507 C   0  0  0  0  0  0  0  0  0  0  0  0
  150.9425  142.6911  157.6397 C   0  0  0  0  0  0  0  0  0  0  0  0
  150.2528  142.4120  156.4579 N   0  3  0  0  0  0  0  0  0  0  0  0
  150.4013  141.0948  156.1452 C   0  0  0  0  0  0  0  0  0  0  0  0
  151.1758  140.5294  157.1106 N   0  0  0  0  0  0  0  0  0  0  0  0
  151.6461  139.1454  157.2572 C   0  0  0  0  0  0  0  0  0  0  0  0
  151.0440  138.4357  158.4865 C   0  0  2  0  0  0  0  0  0  0  0  0
  152.0821  138.1517  159.4043 O   0  0  0  0  0  0  0  0  0  0  0  0
  150.3460  137.1211  158.1051 C   0  0  0  0  0  0  0  0  0  0  0  0
  149.7708  136.5491  159.2722 O   0  0  0  0  0  0  0  0  0  0  0  0
  148.3995  136.8741  159.4628 C   0  0  0  0  0  0  0  0  0  0  0  0
  147.9528  136.3475  160.7922 C   0  0  0  0  0  0  0  0  0  0  0  0
  147.7653  135.0839  161.2805 C   0  0  0  0  0  0  0  0  0  0  0  0
  147.3426  135.2321  162.6305 C   0  0  0  0  0  0  0  0  0  0  0  0
  147.3111  136.5762  162.8697 C   0  0  0  0  0  0  0  0  0  0  0  0
  147.6854  137.2709  161.7612 O   0  0  0  0  0  0  0  0  0  0  0  0
  151.5366  141.4869  158.0640 C   0  0  0  0  0  0  0  0  0  0  0  0
  152.3062  141.4215  159.2228 C   0  0  0  0  0  0  0  0  0  0  0  0
  152.4710  142.6172  159.9584 C   0  0  0  0  0  0  0  0  0  0  0  0
  153.3117  142.5789  161.2232 C   0  0  0  0  0  0  0  0  0  0  0  0
  151.5387  145.9476  159.8616 H   0  0  0  0  0  0  0  0  0  0  0  0
  153.1130  145.3655  160.3968 H   0  0  0  0  0  0  0  0  0  0  0  0
  151.6595  144.9906  161.3356 H   0  0  0  0  0  0  0  0  0  0  0  0
  150.6307  144.7952  158.0165 H   0  0  0  0  0  0  0  0  0  0  0  0
  149.9848  140.5916  155.2844 H   0  0  0  0  0  0  0  0  0  0  0  0
  151.4102  138.6056  156.3391 H   0  0  0  0  0  0  0  0  0  0  0  0
  152.7344  139.1737  157.3292 H   0  0  0  0  0  0  0  0  0  0  0  0
  150.3252  139.1011  158.9659 H   0  0  0  0  0  0  0  0  0  0  0  0
  152.8668  137.9511  158.9177 H   0  0  0  0  0  0  0  0  0  0  0  0
  149.5535  137.3298  157.3851 H   0  0  0  0  0  0  0  0  0  0  0  0
  151.0394  136.4291  157.6239 H   0  0  0  0  0  0  0  0  0  0  0  0
  148.2301  137.9490  159.3835 H   0  0  0  0  0  0  0  0  0  0  0  0
  147.8190  136.3986  158.6721 H   0  0  0  0  0  0  0  0  0  0  0  0
  147.9118  134.1652  160.7318 H   0  0  0  0  0  0  0  0  0  0  0  0
  147.0957  134.4541  163.3377 H   0  0  0  0  0  0  0  0  0  0  0  0
  147.0610  137.1794  163.7301 H   0  0  0  0  0  0  0  0  0  0  0  0
  152.7649  140.4993  159.5479 H   0  0  0  0  0  0  0  0  0  0  0  0
  153.6789  141.5726  161.4280 H   0  0  0  0  0  0  0  0  0  0  0  0
  152.7255  142.9004  162.0843 H   0  0  0  0  0  0  0  0  0  0  0  0
  154.1764  143.2359  161.1268 H   0  0  0  0  0  0  0  0  0  0  0  0
  149.7227  143.0706  155.9016 H   0  0  0  0  0  0  0  0  0  0  0  0
  1  2  1  0  0  0  0
  1 23  1  0  0  0  0
  1 24  1  0  0  0  0
  1 25  1  0  0  0  0
  2 21  1  0  0  0  0
  2  3  2  0  0  0  0
  3  4  1  0  0  0  0
  3 26  1  0  0  0  0
  4 19  2  0  0  0  0
  4  5  1  0  0  0  0
  5  6  2  0  0  0  0
  5 43  1  0  0  0  0
  6  7  1  0  0  0  0
  6 27  1  0  0  0  0
  7  8  1  0  0  0  0
  7 19  1  0  0  0  0
  8  9  1  0  0  0  0
  8 28  1  0  0  0  0
  8 29  1  0  0  0  0
  9 10  1  0  0  0  0
  9 11  1  0  0  0  0
  9 30  1  0  0  0  0
 10 31  1  0  0  0  0
 11 12  1  0  0  0  0
 11 32  1  0  0  0  0
 11 33  1  0  0  0  0
 12 13  1  0  0  0  0
 13 14  1  0  0  0  0
 13 34  1  0  0  0  0
 13 35  1  0  0  0  0
 14 18  1  0  0  0  0
 14 15  2  0  0  0  0
 15 16  1  0  0  0  0
 15 36  1  0  0  0  0
 16 17  2  0  0  0  0
 16 37  1  0  0  0  0
 17 18  1  0  0  0  0
 17 38  1  0  0  0  0
 19 20  1  0  0  0  0
 20 21  2  0  0  0  0
 20 39  1  0  0  0  0
 21 22  1  0  0  0  0
 22 40  1  0  0  0  0
 22 41  1  0  0  0  0
 22 42  1  0  0  0  0
M  CHG  1   5   1
M  END
> <s_m_source_file>
AV-unprocessed.smi

> <i_m_source_file_index>
473

> <i_lp_mmshare_version>
43012

> <i_f3d_flags>
0

> <s_epik_input>
W0NIM11jKFtjSF0xKWMoW0NIM10pW2NIXWMoYzEyKW4oW2NIXW4yKVtDSDJdW0NASF0oW09IXSlbQ0gyXU9bQ0gyXWMzW2NIXVtjSF1bY0hdbzM=

> <s_epik_cmdline>
J2VwaWtfcHl0aG9uJywgJy1waCcsICc3LjAnLCAnLXRuJywgJzgnLCAnLW1hJywgJzIwMCcsICctbWV0YWxfYmluZGluZycsICctaW1hZScsICc8aW5maWxlLm1hZT4nLCAnLW9tYWUnLCAnPG91dGZpbGUubWFlPic=

> <r_epik_Ionization_Penalty>
1.03981

> <r_epik_Ionization_Penalty_Charging>
1.03981

> <r_epik_Ionization_Penalty_Neutral>
9.34185e-07

> <r_epik_State_Penalty>
1.09172

> <r_epik_Charging_Adjusted_Penalty>
2.13153

> <i_epik_Tot_Q>
1

> <i_epik_Tot_abs_Q>
1

> <r_epik_Metal_State_Penalty>
5.0824

> <b_epik_Metal_Only>
0

> <s_lp_Force_Field>
OPLS_2005

> <r_lp_Energy>
14.0474

> <b_lp_Chiralities_Consistent>
1

> <s_lp_Variant>
AV-unprocessed.smi:473-3

> <Gold.Version>
5.8.1

> <Gold.Id.Protein>
6NUR|6NUR_protein|mol2

> <Gold.PLP.Fitness>
64.6436

> <Gold.PLP.PLP>
-52.7037

> <Gold.PLP.part.hbond>
-4.0000

> <Gold.PLP.part.metal>
0.0000

> <Gold.PLP.part.buried>
-7.5082

> <Gold.PLP.part.nonpolar>
-41.5578

> <Gold.PLP.part.repulsive>
0.0721

> <Gold.PLP.ligand.clash>
0.0000

> <Gold.PLP.ligand.torsion>
1.1049

> <Gold.PLP.Chemscore.Hbond>
4.6864

> <Gold.PLP.Chemscore.CHOScore>
0.0000

> <Gold.PLP.Chemscore.Metal>
0.0000

> <Gold.Chemscore.Hbonds>
donor molecule, donor type, donor heavy atom, donor atom, acceptor molecule, acceptor atom, score
      L1  H     5    43       P1  8028  2.00
      P1  H  6896  6908       L1    12  1.00
      P1  H  6931  6943       L1    18  0.98
      P1  H  6934  6947       L1    18  0.67

> <Gold.PLP.Chemscore.Internal.Correction>
0.0905

> <Gold.Rescore>
     Score         DG    S(hbond)    S(metal)    S(lipo)     H(rot)  DE(clash)    DE(int)     intcor
     24.26     -25.79       3.36        0.00     132.24       2.49       0.30       1.23       ----

> <Gold.Chemscore.Fitness>
24.2558

> <Gold.Chemscore.DG>
-25.7905

> <Gold.Chemscore.ZeroCoef>
-5.4800

> <Gold.Chemscore.Hbond>
3.3582

> <Gold.Chemscore.Metal>
0.0000

> <Gold.Chemscore.Lipo>
132.2391

> <Gold.Chemscore.Internal_Hbond>
0.0000

> <Gold.Chemscore.DEClash>
0.3035

> <Gold.Chemscore.DEInternal>
1.2312

> <Gold.Chemscore.Rot>
2.4913

> <Gold.Chemscore.Internal.Correction>
   9.000000E+99

> <Gold.Chemscore.Hbonds>
donor molecule, donor type, donor heavy atom, donor atom, acceptor molecule, acceptor atom, score
      L1  H     5    43       P1  8028  0.96
      P1  H  6896  6908       L1    12  0.56
      P1  H  6931  6943       L1    18  0.56
      P1  H  6934  6947       L1    18  0.52

> <Gold.Chemscore.Hbond.Weighted>
-11.2163

> <Gold.Chemscore.Metal.Weighted>
-0.0000

> <Gold.Chemscore.Lipo.Weighted>
-15.4720

> <Gold.Chemscore.Internal_Hbond.Weighted>
0.0000

> <Gold.Chemscore.DEClash.Weighted>
0.3035

> <Gold.Chemscore.DEInternal.Weighted>
1.2312

> <Gold.Chemscore.Rot.Weighted>
6.3778

> <Gold.Chemscore.Internal.Correction.Weighted>
   9.000000E+99

> <Gold.Protein.RotatedTorsions>
[ 6907 6896 6895 6894 ] final -165.42 input  -60.11 | X-H torsion
[ 7974 7965 7964 7962 ] final  -83.94 input  175.53 | X-H torsion
[ 8008 7997 7996 7995 ] final   78.28 input   59.86 | X-H torsion
[ 10167 10162 10161 10158 ] final  112.46 input  -65.29 | X-H torsion
[ 10718 10713 10712 10709 ] final  125.14 input   66.30 | X-H torsion
[ 10763 10752 10751 10750 ] final -136.45 input  -60.55 | X-H torsion
[ 11005 11000 10999 10996 ] final  -76.35 input  -57.11 | X-H torsion

> <Gold.Protein.ActiveResidues>
 VAL166  LYS551  ARG553  GLY616  TRP617  ASP618  TYR619  PRO620  LYS621  CYS622 
 ASP623  PHE694  ASN695  SER759  ASP760  ASP761  ALA762  ILE779  LEU786  VAL792 
 PHE793  MET794  SER795  GLU796  ALA797  LYS798  CYS799  TRP800  GLU811  SER814 

> <Gold.Protein.RotatedAtoms>
  151.4274  133.3680  159.2763 H   0  0  0  0  0  0  0  0  0  0  0  0  # atno 6907 bound_to 6896
  150.9250  134.8668  159.7524 H   0  0  0  0  0  0  0  0  0  0  0  0  # atno 6908 bound_to 6896
  152.5000  134.4215  159.9534 H   0  0  0  0  0  0  0  0  0  0  0  0  # atno 6909 bound_to 6896
  145.5132  140.9538  143.1696 H   0  0  0  0  0  0  0  0  0  0  0  0  # atno 7974 bound_to 7965
  155.8535  140.3457  155.5709 H   0  0  0  0  0  0  0  0  0  0  0  0  # atno 8008 bound_to 7997
  155.8011  140.0885  157.1976 H   0  0  0  0  0  0  0  0  0  0  0  0  # atno 8009 bound_to 7997
  154.4008  140.1465  156.3263 H   0  0  0  0  0  0  0  0  0  0  0  0  # atno 8010 bound_to 7997
  139.6534  144.7129  151.2003 H   0  0  0  0  0  0  0  0  0  0  0  0  # atno 10167 bound_to 10162
  157.5527  131.1093  150.8674 H   0  0  0  0  0  0  0  0  0  0  0  0  # atno 10718 bound_to 10713
  154.8683  135.3672  154.5062 H   0  0  0  0  0  0  0  0  0  0  0  0  # atno 10763 bound_to 10752
  153.5700  135.7021  153.5514 H   0  0  0  0  0  0  0  0  0  0  0  0  # atno 10764 bound_to 10752
  153.3550  135.4061  155.1638 H   0  0  0  0  0  0  0  0  0  0  0  0  # atno 10765 bound_to 10752
  141.1653  133.6980  156.7656 H   0  0  0  0  0  0  0  0  0  0  0  0  # atno 11005 bound_to 11000
  144.7716  139.6722  143.7192 LP  0  0  0  0  0  0  0  0  0  0  0  0  # atno 17320 bound_to 7965
  146.2153  139.5538  142.9654 LP  0  0  0  0  0  0  0  0  0  0  0  0  # atno 17321 bound_to 7965
  140.7548  143.6112  150.8604 LP  0  0  0  0  0  0  0  0  0  0  0  0  # atno 17342 bound_to 10162
  139.9762  143.6001  152.2958 LP  0  0  0  0  0  0  0  0  0  0  0  0  # atno 17343 bound_to 10162
  156.9194  130.5309  149.5279 LP  0  0  0  0  0  0  0  0  0  0  0  0  # atno 17370 bound_to 10713
  156.0591  130.5647  150.9155 LP  0  0  0  0  0  0  0  0  0  0  0  0  # atno 17371 bound_to 10713
  140.2502  134.8546  157.3660 LP  0  0  0  0  0  0  0  0  0  0  0  0  # atno 17394 bound_to 11000
  140.1710  134.4608  155.7831 LP  0  0  0  0  0  0  0  0  0  0  0  0  # atno 17395 bound_to 11000

$$$$
