AV-unprocessed.smi:2821|AV-procd|sdf|10859|dock3
  -GOLD-   2272015303D 1   1.00000     0.00000
 Structure written by MMmdl.
 36 37  0  0  0  0  0  0  0  0  1 V2000
  145.7493  142.4047  154.5465 C   0  0  0  0  0  0  0  0  0  0  0  0
  146.9053  141.4248  154.3334 C   0  0  0  0  0  0  0  0  0  0  0  0
  147.5394  141.1850  155.5861 O   0  0  0  0  0  0  0  0  0  0  0  0
  148.8959  140.9343  155.5933 C   0  0  0  0  0  0  0  0  0  0  0  0
  149.4961  140.3144  154.4766 C   0  0  0  0  0  0  0  0  0  0  0  0
  150.8220  140.0586  154.4277 N   0  0  0  0  0  0  0  0  0  0  0  0
  151.5502  140.4305  155.5035 C   0  0  0  0  0  0  0  0  0  0  0  0
  150.9643  141.0540  156.6271 C   0  0  0  0  0  0  0  0  0  0  0  0
  151.7774  141.4250  157.7078 N   0  0  0  0  0  0  0  0  0  0  0  0
  151.7632  142.7811  158.2551 C   0  0  1  0  0  0  0  0  0  0  0  0
  150.3924  143.0691  158.8846 C   0  0  0  0  0  0  0  0  0  0  0  0
  152.9070  143.0281  159.2707 C   0  0  1  0  0  0  0  0  0  0  0  0
  152.6364  144.0966  160.3463 C   0  0  0  0  0  0  0  0  0  0  0  0
  152.6449  143.3094  161.6424 C   0  0  0  0  0  0  0  0  0  0  0  0
  153.5735  142.1510  161.3086 C   0  0  0  0  0  0  0  0  0  0  0  0
  153.2220  141.8284  159.9734 O   0  0  0  0  0  0  0  0  0  0  0  0
  149.6326  141.2948  156.6738 N   0  0  0  0  0  0  0  0  0  0  0  0
  145.2409  142.6170  153.6060 H   0  0  0  0  0  0  0  0  0  0  0  0
  146.1077  143.3499  154.9543 H   0  0  0  0  0  0  0  0  0  0  0  0
  145.0135  141.9967  155.2399 H   0  0  0  0  0  0  0  0  0  0  0  0
  146.5209  140.4928  153.9149 H   0  0  0  0  0  0  0  0  0  0  0  0
  147.6171  141.8465  153.6218 H   0  0  0  0  0  0  0  0  0  0  0  0
  148.9098  140.0257  153.6167 H   0  0  0  0  0  0  0  0  0  0  0  0
  152.6117  140.2332  155.4626 H   0  0  0  0  0  0  0  0  0  0  0  0
  152.5725  140.8426  157.9266 H   0  0  0  0  0  0  0  0  0  0  0  0
  151.8783  143.4909  157.4354 H   0  0  0  0  0  0  0  0  0  0  0  0
  150.3398  144.0916  159.2595 H   0  0  0  0  0  0  0  0  0  0  0  0
  150.1834  142.3987  159.7189 H   0  0  0  0  0  0  0  0  0  0  0  0
  149.5925  142.9483  158.1532 H   0  0  0  0  0  0  0  0  0  0  0  0
  153.8088  143.3075  158.7238 H   0  0  0  0  0  0  0  0  0  0  0  0
  153.4476  144.8258  160.3505 H   0  0  0  0  0  0  0  0  0  0  0  0
  151.7052  144.6449  160.2036 H   0  0  0  0  0  0  0  0  0  0  0  0
  152.9816  143.8949  162.4982 H   0  0  0  0  0  0  0  0  0  0  0  0
  151.6443  142.9320  161.8575 H   0  0  0  0  0  0  0  0  0  0  0  0
  154.6178  142.4650  161.3452 H   0  0  0  0  0  0  0  0  0  0  0  0
  153.4431  141.2980  161.9747 H   0  0  0  0  0  0  0  0  0  0  0  0
  1  2  1  0  0  0  0
  1 18  1  0  0  0  0
  1 19  1  0  0  0  0
  1 20  1  0  0  0  0
  2  3  1  0  0  0  0
  2 21  1  0  0  0  0
  2 22  1  0  0  0  0
  3  4  1  0  0  0  0
  4 17  1  0  0  0  0
  4  5  2  0  0  0  0
  5  6  1  0  0  0  0
  5 23  1  0  0  0  0
  6  7  2  0  0  0  0
  7  8  1  0  0  0  0
  7 24  1  0  0  0  0
  8  9  1  0  0  0  0
  8 17  2  0  0  0  0
  9 10  1  0  0  0  0
  9 25  1  0  0  0  0
 10 11  1  0  0  0  0
 10 12  1  0  0  0  0
 10 26  1  0  0  0  0
 11 27  1  0  0  0  0
 11 28  1  0  0  0  0
 11 29  1  0  0  0  0
 12 16  1  0  0  0  0
 12 13  1  0  0  0  0
 12 30  1  0  0  0  0
 13 14  1  0  0  0  0
 13 31  1  0  0  0  0
 13 32  1  0  0  0  0
 14 15  1  0  0  0  0
 14 33  1  0  0  0  0
 14 34  1  0  0  0  0
 15 16  1  0  0  0  0
 15 35  1  0  0  0  0
 15 36  1  0  0  0  0
M  END
> <s_m_source_file>
AV-unprocessed.smi

> <i_m_source_file_index>
2821

> <i_lp_mmshare_version>
43012

> <i_f3d_flags>
0

> <s_epik_input>
W0NIM11bQ0gyXU9jMVtjSF1uW2NIXWMobjEpW05IXVtDQEhdKFtDSDNdKVtDQEBIXTJbQ0gyXVtDSDJdW0NIMl1PMg==

> <s_epik_cmdline>
J2VwaWtfcHl0aG9uJywgJy1waCcsICc3LjAnLCAnLXRuJywgJzgnLCAnLW1hJywgJzIwMCcsICctbWV0YWxfYmluZGluZycsICctaW1hZScsICc8aW5maWxlLm1hZT4nLCAnLW9tYWUnLCAnPG91dGZpbGUubWFlPic=

> <r_lp_tautomer_probability>
1

> <r_epik_Ionization_Penalty>
4.69533e-05

> <r_epik_Ionization_Penalty_Charging>
0

> <r_epik_Ionization_Penalty_Neutral>
4.69533e-05

> <r_epik_State_Penalty>
-0

> <r_epik_Charging_Adjusted_Penalty>
0

> <i_epik_Tot_Q>
0

> <i_epik_Tot_abs_Q>
0

> <r_epik_Metal_State_Penalty>
-0

> <b_epik_Metal_Only>
0

> <s_lp_Force_Field>
OPLS_2005

> <r_lp_Energy>
30.0608

> <b_lp_Chiralities_Consistent>
1

> <s_lp_Variant>
AV-unprocessed.smi:2821-4

> <Gold.Version>
5.8.1

> <Gold.Id.Protein>
6NUR|6NUR_protein|mol2

> <Gold.PLP.Fitness>
40.8118

> <Gold.PLP.PLP>
-38.4484

> <Gold.PLP.part.hbond>
-1.0000

> <Gold.PLP.part.metal>
0.0000

> <Gold.PLP.part.buried>
-4.6002

> <Gold.PLP.part.nonpolar>
-32.3140

> <Gold.PLP.part.repulsive>
0.3493

> <Gold.PLP.ligand.clash>
0.0000

> <Gold.PLP.ligand.torsion>
1.8438

> <Gold.PLP.Chemscore.Hbond>
1.0000

> <Gold.PLP.Chemscore.CHOScore>
1.0000

> <Gold.PLP.Chemscore.Metal>
0.0000

> <Gold.Chemscore.Hbonds>
donor molecule, donor type, donor heavy atom, donor atom, acceptor molecule, acceptor atom, score
      P1  H  7989  7998       L1     6  0.56
      L1  C     5    23       P1  7957  0.91

> <Gold.PLP.Chemscore.Internal.Correction>
0.0511

> <Gold.Rescore>
     Score         DG    S(hbond)    S(metal)    S(lipo)     H(rot)  DE(clash)    DE(int)     intcor
     10.77     -13.46       0.37        0.00      91.47       1.55       0.10       2.59       ----

> <Gold.Chemscore.Fitness>
10.7746

> <Gold.Chemscore.DG>
-13.4614

> <Gold.Chemscore.ZeroCoef>
-5.4800

> <Gold.Chemscore.Hbond>
0.3747

> <Gold.Chemscore.Metal>
0.0000

> <Gold.Chemscore.Lipo>
91.4654

> <Gold.Chemscore.Internal_Hbond>
0.0000

> <Gold.Chemscore.DEClash>
0.0962

> <Gold.Chemscore.DEInternal>
2.5905

> <Gold.Chemscore.Rot>
1.5514

> <Gold.Chemscore.Internal.Correction>
   9.000000E+99

> <Gold.Chemscore.Hbonds>
donor molecule, donor type, donor heavy atom, donor atom, acceptor molecule, acceptor atom, score
      P1  H  7989  7998       L1     6  0.04

> <Gold.Chemscore.Hbond.Weighted>
-1.2514

> <Gold.Chemscore.Metal.Weighted>
-0.0000

> <Gold.Chemscore.Lipo.Weighted>
-10.7014

> <Gold.Chemscore.Internal_Hbond.Weighted>
0.0000

> <Gold.Chemscore.DEClash.Weighted>
0.0962

> <Gold.Chemscore.DEInternal.Weighted>
2.5905

> <Gold.Chemscore.Rot.Weighted>
3.9715

> <Gold.Chemscore.Internal.Correction.Weighted>
   9.000000E+99

> <Gold.Protein.RotatedTorsions>
[ 6907 6896 6895 6894 ] final   21.78 input  -60.11 | X-H torsion
[ 7974 7965 7964 7962 ] final  113.56 input  175.53 | X-H torsion
[ 8008 7997 7996 7995 ] final -144.27 input   59.86 | X-H torsion
[ 10167 10162 10161 10158 ] final -136.26 input  -65.29 | X-H torsion
[ 10718 10713 10712 10709 ] final   70.38 input   66.30 | X-H torsion
[ 10763 10752 10751 10750 ] final -141.23 input  -60.55 | X-H torsion
[ 11005 11000 10999 10996 ] final  152.67 input  -57.11 | X-H torsion

> <Gold.Protein.ActiveResidues>
 VAL166  LYS551  ARG553  GLY616  TRP617  ASP618  TYR619  PRO620  LYS621  CYS622 
 ASP623  PHE694  ASN695  SER759  ASP760  ASP761  ALA762  ILE779  LEU786  VAL792 
 PHE793  MET794  SER795  GLU796  ALA797  LYS798  CYS799  TRP800  GLU811  SER814 

> <Gold.Protein.RotatedAtoms>
  151.9171  135.0314  160.0518 H   0  0  0  0  0  0  0  0  0  0  0  0  # atno 6907 bound_to 6896
  152.2231  133.4994  159.5182 H   0  0  0  0  0  0  0  0  0  0  0  0  # atno 6908 bound_to 6896
  150.7005  134.1233  159.4085 H   0  0  0  0  0  0  0  0  0  0  0  0  # atno 6909 bound_to 6896
  145.2154  139.2887  143.4246 H   0  0  0  0  0  0  0  0  0  0  0  0  # atno 7974 bound_to 7965
  155.5241  140.0594  157.2901 H   0  0  0  0  0  0  0  0  0  0  0  0  # atno 8008 bound_to 7997
  154.4507  140.1947  156.0474 H   0  0  0  0  0  0  0  0  0  0  0  0  # atno 8009 bound_to 7997
  156.0698  140.3261  155.7566 H   0  0  0  0  0  0  0  0  0  0  0  0  # atno 8010 bound_to 7997
  139.8695  143.6975  152.2641 H   0  0  0  0  0  0  0  0  0  0  0  0  # atno 10167 bound_to 10162
  157.6397  130.9474  150.0643 H   0  0  0  0  0  0  0  0  0  0  0  0  # atno 10718 bound_to 10713
  154.8552  135.3530  154.5834 H   0  0  0  0  0  0  0  0  0  0  0  0  # atno 10763 bound_to 10752
  153.6444  135.6997  153.5235 H   0  0  0  0  0  0  0  0  0  0  0  0  # atno 10764 bound_to 10752
  153.2944  135.4225  155.1155 H   0  0  0  0  0  0  0  0  0  0  0  0  # atno 10765 bound_to 10752
  140.1328  134.8790  157.2227 H   0  0  0  0  0  0  0  0  0  0  0  0  # atno 11005 bound_to 11000
  146.3388  140.2443  142.8596 LP  0  0  0  0  0  0  0  0  0  0  0  0  # atno 17320 bound_to 7965
  144.9816  140.8464  143.5394 LP  0  0  0  0  0  0  0  0  0  0  0  0  # atno 17321 bound_to 7965
  139.7297  144.7585  151.0822 LP  0  0  0  0  0  0  0  0  0  0  0  0  # atno 17342 bound_to 10162
  140.7763  143.5104  150.9660 LP  0  0  0  0  0  0  0  0  0  0  0  0  # atno 17343 bound_to 10162
  156.1666  130.3645  149.9223 LP  0  0  0  0  0  0  0  0  0  0  0  0  # atno 17370 bound_to 10713
  156.7209  130.9006  151.3618 LP  0  0  0  0  0  0  0  0  0  0  0  0  # atno 17371 bound_to 10713
  140.2820  134.3339  155.7340 LP  0  0  0  0  0  0  0  0  0  0  0  0  # atno 17394 bound_to 11000
  141.2173  133.7484  156.9377 LP  0  0  0  0  0  0  0  0  0  0  0  0  # atno 17395 bound_to 11000

$$$$
