AV-unprocessed.smi:2960|AV-procd|sdf|11312|dock9
  -GOLD-   2272016213D 1   1.00000     0.00000
 Structure written by MMmdl.
 49 51  0  0  0  0  0  0  0  0  2 V2000
  146.4351  139.2017  153.0016 C   0  0  0  0  0  0  0  0  0  0  0  0
  146.9578  140.0960  154.1206 C   0  0  0  0  0  0  0  0  0  0  0  0
  146.2350  140.3779  155.0761 O   0  0  0  0  0  0  0  0  0  0  0  0
  148.2185  140.5354  153.9900 N   0  0  0  0  0  0  0  0  0  0  0  0
  148.9020  141.4071  154.9380 C   0  0  0  0  0  0  0  0  0  0  0  0
  149.5646  140.6077  156.0721 C   0  0  0  0  0  0  0  0  0  0  0  0
  150.2551  141.5061  157.0472 C   0  0  0  0  0  0  0  0  0  0  0  0
  150.2894  142.8674  156.9798 N   0  3  0  0  0  0  0  0  0  0  0  0
  151.0314  143.3765  158.0461 C   0  0  0  0  0  0  0  0  0  0  0  0
  151.3404  144.6865  158.3995 C   0  0  0  0  0  0  0  0  0  0  0  0
  152.1263  144.8608  159.5577 C   0  0  0  0  0  0  0  0  0  0  0  0
  152.5739  143.7583  160.3145 C   0  0  0  0  0  0  0  0  0  0  0  0
  152.2543  142.4348  159.9458 C   0  0  0  0  0  0  0  0  0  0  0  0
  151.4767  142.2716  158.7997 C   0  0  0  0  0  0  0  0  0  0  0  0
  150.9802  141.1389  158.1445 N   0  0  0  0  0  0  0  0  0  0  0  0
  151.2883  139.8105  158.6926 C   0  0  0  0  0  0  0  0  0  0  0  0
  152.4137  139.1118  157.9178 C   0  0  0  0  0  0  0  0  0  0  0  0
  153.6590  139.5202  158.4644 O   0  0  0  0  0  0  0  0  0  0  0  0
  154.0020  139.0599  159.7179 C   0  0  0  0  0  0  0  0  0  0  0  0
  153.4938  137.8012  160.0994 C   0  0  0  0  0  0  0  0  0  0  0  0
  153.7966  137.2527  161.3603 C   0  0  0  0  0  0  0  0  0  0  0  0
  154.6164  137.9602  162.2607 C   0  0  0  0  0  0  0  0  0  0  0  0
  154.9413  137.3645  163.6150 C   0  0  0  0  0  0  0  0  0  0  0  0
  155.1289  139.2198  161.8914 C   0  0  0  0  0  0  0  0  0  0  0  0
  154.8248  139.7682  160.6302 C   0  0  0  0  0  0  0  0  0  0  0  0
  147.0581  138.3120  152.9017 H   0  0  0  0  0  0  0  0  0  0  0  0
  146.4420  139.7370  152.0517 H   0  0  0  0  0  0  0  0  0  0  0  0
  145.4127  138.8811  153.2061 H   0  0  0  0  0  0  0  0  0  0  0  0
  148.7371  140.2544  153.1700 H   0  0  0  0  0  0  0  0  0  0  0  0
  149.6545  141.9716  154.3889 H   0  0  0  0  0  0  0  0  0  0  0  0
  148.1997  142.1379  155.3434 H   0  0  0  0  0  0  0  0  0  0  0  0
  148.8172  140.0230  156.6098 H   0  0  0  0  0  0  0  0  0  0  0  0
  150.2807  139.8925  155.6673 H   0  0  0  0  0  0  0  0  0  0  0  0
  150.9992  145.5327  157.8213 H   0  0  0  0  0  0  0  0  0  0  0  0
  152.3913  145.8600  159.8720 H   0  0  0  0  0  0  0  0  0  0  0  0
  153.1748  143.9306  161.1957 H   0  0  0  0  0  0  0  0  0  0  0  0
  152.6026  141.5965  160.5312 H   0  0  0  0  0  0  0  0  0  0  0  0
  151.5468  139.9194  159.7465 H   0  0  0  0  0  0  0  0  0  0  0  0
  150.3807  139.2084  158.6583 H   0  0  0  0  0  0  0  0  0  0  0  0
  152.3016  138.0303  158.0007 H   0  0  0  0  0  0  0  0  0  0  0  0
  152.3650  139.3779  156.8609 H   0  0  0  0  0  0  0  0  0  0  0  0
  152.8644  137.2491  159.4168 H   0  0  0  0  0  0  0  0  0  0  0  0
  153.3981  136.2866  161.6342 H   0  0  0  0  0  0  0  0  0  0  0  0
  155.5995  138.0168  164.1899 H   0  0  0  0  0  0  0  0  0  0  0  0
  155.4377  136.4013  163.4947 H   0  0  0  0  0  0  0  0  0  0  0  0
  154.0274  137.2109  164.1896 H   0  0  0  0  0  0  0  0  0  0  0  0
  155.7587  139.7720  162.5736 H   0  0  0  0  0  0  0  0  0  0  0  0
  155.2376  140.7352  160.3870 H   0  0  0  0  0  0  0  0  0  0  0  0
  149.8350  143.4070  156.2540 H   0  0  0  0  0  0  0  0  0  0  0  0
  1  2  1  0  0  0  0
  1 26  1  0  0  0  0
  1 27  1  0  0  0  0
  1 28  1  0  0  0  0
  2  3  2  0  0  0  0
  2  4  1  0  0  0  0
  4  5  1  0  0  0  0
  4 29  1  0  0  0  0
  5  6  1  0  0  0  0
  5 30  1  0  0  0  0
  5 31  1  0  0  0  0
  6  7  1  0  0  0  0
  6 32  1  0  0  0  0
  6 33  1  0  0  0  0
  7 15  1  0  0  0  0
  7  8  2  0  0  0  0
  8  9  1  0  0  0  0
  8 49  1  0  0  0  0
  9 14  2  0  0  0  0
  9 10  1  0  0  0  0
 10 11  2  0  0  0  0
 10 34  1  0  0  0  0
 11 12  1  0  0  0  0
 11 35  1  0  0  0  0
 12 13  2  0  0  0  0
 12 36  1  0  0  0  0
 13 14  1  0  0  0  0
 13 37  1  0  0  0  0
 14 15  1  0  0  0  0
 15 16  1  0  0  0  0
 16 17  1  0  0  0  0
 16 38  1  0  0  0  0
 16 39  1  0  0  0  0
 17 18  1  0  0  0  0
 17 40  1  0  0  0  0
 17 41  1  0  0  0  0
 18 19  1  0  0  0  0
 19 25  1  0  0  0  0
 19 20  2  0  0  0  0
 20 21  1  0  0  0  0
 20 42  1  0  0  0  0
 21 22  2  0  0  0  0
 21 43  1  0  0  0  0
 22 23  1  0  0  0  0
 22 24  1  0  0  0  0
 23 44  1  0  0  0  0
 23 45  1  0  0  0  0
 23 46  1  0  0  0  0
 24 25  2  0  0  0  0
 24 47  1  0  0  0  0
 25 48  1  0  0  0  0
M  CHG  1   8   1
M  END
> <s_m_source_file>
AV-unprocessed.smi

> <i_m_source_file_index>
2960

> <i_lp_mmshare_version>
43012

> <i_f3d_flags>
0

> <s_epik_input>
W0NIM11DKD1PKVtOSF1bQ0gyXVtDSDJdYyhuMSluKGMoYzEyKVtjSF1bY0hdW2NIXVtjSF0yKVtDSDJdW0NIMl1PYzNbY0hdW2NIXWMoW0NIM10pW2NIXVtjSF0z

> <s_epik_cmdline>
J2VwaWtfcHl0aG9uJywgJy1waCcsICc3LjAnLCAnLXRuJywgJzgnLCAnLW1hJywgJzIwMCcsICctbWV0YWxfYmluZGluZycsICctaW1hZScsICc8aW5maWxlLm1hZT4nLCAnLW9tYWUnLCAnPG91dGZpbGUubWFlPic=

> <r_lp_tautomer_probability>
1

> <r_epik_Ionization_Penalty>
1.10884

> <r_epik_Ionization_Penalty_Charging>
1.10884

> <r_epik_Ionization_Penalty_Neutral>
3.05925e-07

> <r_epik_State_Penalty>
1.16664

> <r_epik_Charging_Adjusted_Penalty>
2.27548

> <i_epik_Tot_Q>
1

> <i_epik_Tot_abs_Q>
1

> <r_epik_Metal_State_Penalty>
1.2527

> <b_epik_Metal_Only>
0

> <s_lp_Force_Field>
OPLS_2005

> <r_lp_Energy>
19.8643

> <b_lp_Chiralities_Consistent>
1

> <s_lp_Variant>
AV-unprocessed.smi:2960-2

> <Gold.Version>
5.8.1

> <Gold.Id.Protein>
6NUR|6NUR_protein|mol2

> <Gold.PLP.Fitness>
63.9807

> <Gold.PLP.PLP>
-54.3299

> <Gold.PLP.part.hbond>
-3.0000

> <Gold.PLP.part.metal>
0.0000

> <Gold.PLP.part.buried>
-6.7002

> <Gold.PLP.part.nonpolar>
-46.1121

> <Gold.PLP.part.repulsive>
0.2842

> <Gold.PLP.ligand.clash>
0.0000

> <Gold.PLP.ligand.torsion>
0.9936

> <Gold.PLP.Chemscore.Hbond>
3.8560

> <Gold.PLP.Chemscore.CHOScore>
0.0000

> <Gold.PLP.Chemscore.Metal>
0.0000

> <Gold.Chemscore.Hbonds>
donor molecule, donor type, donor heavy atom, donor atom, acceptor molecule, acceptor atom, score
      L1  H     4    29       P1  7957  0.59
      L1  H     8    49       P1  8028  2.00
      P1  H  7997  8010       L1    18  1.00

> <Gold.PLP.Chemscore.Internal.Correction>
0.0700

> <Gold.Rescore>
     Score         DG    S(hbond)    S(metal)    S(lipo)     H(rot)  DE(clash)    DE(int)     intcor
     25.53     -26.39       2.85        0.00     145.10       2.18       0.03       0.83       ----

> <Gold.Chemscore.Fitness>
25.5345

> <Gold.Chemscore.DG>
-26.3932

> <Gold.Chemscore.ZeroCoef>
-5.4800

> <Gold.Chemscore.Hbond>
2.8490

> <Gold.Chemscore.Metal>
0.0000

> <Gold.Chemscore.Lipo>
145.1009

> <Gold.Chemscore.Internal_Hbond>
0.0000

> <Gold.Chemscore.DEClash>
0.0299

> <Gold.Chemscore.DEInternal>
0.8288

> <Gold.Chemscore.Rot>
2.1793

> <Gold.Chemscore.Internal.Correction>
   9.000000E+99

> <Gold.Chemscore.Hbonds>
donor molecule, donor type, donor heavy atom, donor atom, acceptor molecule, acceptor atom, score
      L1  H     4    29       P1  7957  0.58
      L1  H     8    49       P1  8028  0.98
      P1  H  7997  8010       L1    18  0.50

> <Gold.Chemscore.Hbond.Weighted>
-9.5155

> <Gold.Chemscore.Metal.Weighted>
-0.0000

> <Gold.Chemscore.Lipo.Weighted>
-16.9768

> <Gold.Chemscore.Internal_Hbond.Weighted>
0.0000

> <Gold.Chemscore.DEClash.Weighted>
0.0299

> <Gold.Chemscore.DEInternal.Weighted>
0.8288

> <Gold.Chemscore.Rot.Weighted>
5.5791

> <Gold.Chemscore.Internal.Correction.Weighted>
   9.000000E+99

> <Gold.Protein.RotatedTorsions>
[ 6907 6896 6895 6894 ] final -171.31 input  -60.11 | X-H torsion
[ 7974 7965 7964 7962 ] final    8.95 input  175.53 | X-H torsion
[ 8008 7997 7996 7995 ] final   32.90 input   59.86 | X-H torsion
[ 10167 10162 10161 10158 ] final  -73.41 input  -65.29 | X-H torsion
[ 10718 10713 10712 10709 ] final   27.76 input   66.30 | X-H torsion
[ 10763 10752 10751 10750 ] final   61.30 input  -60.55 | X-H torsion
[ 11005 11000 10999 10996 ] final   18.44 input  -57.11 | X-H torsion

> <Gold.Protein.ActiveResidues>
 VAL166  LYS551  ARG553  GLY616  TRP617  ASP618  TYR619  PRO620  LYS621  CYS622 
 ASP623  PHE694  ASN695  SER759  ASP760  ASP761  ALA762  ILE779  LEU786  VAL792 
 PHE793  MET794  SER795  GLU796  ALA797  LYS798  CYS799  TRP800  GLU811  SER814 

> <Gold.Protein.RotatedAtoms>
  151.5218  133.3465  159.2902 H   0  0  0  0  0  0  0  0  0  0  0  0  # atno 6907 bound_to 6896
  150.8648  134.8011  159.7121 H   0  0  0  0  0  0  0  0  0  0  0  0  # atno 6908 bound_to 6896
  152.4656  134.5092  159.9800 H   0  0  0  0  0  0  0  0  0  0  0  0  # atno 6909 bound_to 6896
  146.2410  139.9857  142.8431 H   0  0  0  0  0  0  0  0  0  0  0  0  # atno 7974 bound_to 7965
  155.1299  140.3256  155.4476 H   0  0  0  0  0  0  0  0  0  0  0  0  # atno 8008 bound_to 7997
  156.2637  140.2012  156.6368 H   0  0  0  0  0  0  0  0  0  0  0  0  # atno 8009 bound_to 7997
  154.6620  140.0546  157.0059 H   0  0  0  0  0  0  0  0  0  0  0  0  # atno 8010 bound_to 7997
  140.5113  143.2344  151.7589 H   0  0  0  0  0  0  0  0  0  0  0  0  # atno 10167 bound_to 10162
  157.2244  130.6994  149.6285 H   0  0  0  0  0  0  0  0  0  0  0  0  # atno 10718 bound_to 10713
  152.9946  135.5506  154.6011 H   0  0  0  0  0  0  0  0  0  0  0  0  # atno 10763 bound_to 10752
  154.5352  135.2816  155.1147 H   0  0  0  0  0  0  0  0  0  0  0  0  # atno 10764 bound_to 10752
  154.2446  135.6410  153.5271 H   0  0  0  0  0  0  0  0  0  0  0  0  # atno 10765 bound_to 10752
  140.4248  134.1482  155.7675 H   0  0  0  0  0  0  0  0  0  0  0  0  # atno 11005 bound_to 11000
  145.1550  140.9643  143.4410 LP  0  0  0  0  0  0  0  0  0  0  0  0  # atno 17320 bound_to 7965
  145.0169  139.3459  143.6092 LP  0  0  0  0  0  0  0  0  0  0  0  0  # atno 17321 bound_to 7965
  139.4897  144.4387  151.9789 LP  0  0  0  0  0  0  0  0  0  0  0  0  # atno 17342 bound_to 10162
  140.3479  144.3124  150.5954 LP  0  0  0  0  0  0  0  0  0  0  0  0  # atno 17343 bound_to 10162
  155.9680  130.4509  150.5715 LP  0  0  0  0  0  0  0  0  0  0  0  0  # atno 17370 bound_to 10713
  157.3542  131.0739  151.1688 LP  0  0  0  0  0  0  0  0  0  0  0  0  # atno 17371 bound_to 10713
  141.1770  133.8494  157.1389 LP  0  0  0  0  0  0  0  0  0  0  0  0  # atno 17394 bound_to 11000
  140.0175  134.9961  157.0524 LP  0  0  0  0  0  0  0  0  0  0  0  0  # atno 17395 bound_to 11000

$$$$
