AV-unprocessed.smi:867|AV-procd|sdf|4000|dock7
  -GOLD-   22720 1483D 1   1.00000     0.00000
 Structure written by MMmdl.
 54 57  0  0  0  0  0  0  0  0  3 V2000
  151.0502  136.6488  158.9931 O   0  0  0  0  0  0  0  0  0  0  0  0
  150.2842  137.4855  158.5138 C   0  0  0  0  0  0  0  0  0  0  0  0
  148.9496  137.3282  158.5360 N   0  0  0  0  0  0  0  0  0  0  0  0
  148.2487  136.1923  159.1232 C   0  0  0  0  0  0  0  0  0  0  0  0
  148.2484  136.2606  160.6590 C   0  0  0  0  0  0  0  0  0  0  0  0
  147.0613  135.5355  161.2617 C   0  0  0  0  0  0  0  0  0  0  0  0
  145.8758  136.2377  161.5733 C   0  0  0  0  0  0  0  0  0  0  0  0
  144.7873  135.5404  162.1376 C   0  0  0  0  0  0  0  0  0  0  0  0
  144.9092  134.1565  162.3786 C   0  0  0  0  0  0  0  0  0  0  0  0
  146.0595  133.5188  162.0684 N   0  3  0  0  0  0  0  0  0  0  0  0
  147.1243  134.1502  161.5266 C   0  0  0  0  0  0  0  0  0  0  0  0
  150.7121  138.5979  157.8667 N   0  0  0  0  0  0  0  0  0  0  0  0
  149.8625  139.5935  157.2033 C   0  0  0  0  0  0  0  0  0  0  0  0
  149.7954  140.8527  158.0857 C   0  0  0  0  0  0  0  0  0  0  0  0
  151.1513  141.4084  158.3778 N   0  3  0  0  0  0  0  0  0  0  0  0
  151.0794  142.6345  159.2320 C   0  0  2  0  0  0  0  0  0  0  0  0
  150.6453  143.8878  158.4246 C   0  0  0  0  0  0  0  0  0  0  0  0
  151.7433  144.9188  158.7317 C   0  0  1  0  0  0  0  0  0  0  0  0
  151.6373  145.3660  160.1990 C   0  0  0  0  0  0  0  0  0  0  0  0
  152.1399  144.1273  160.9606 C   0  0  0  0  0  0  0  0  0  0  0  0
  152.4314  143.1194  159.8307 C   0  0  2  0  0  0  0  0  0  0  0  0
  152.9851  144.0378  158.7471 C   0  0  0  0  0  0  0  0  0  0  0  0
  152.0796  140.3584  158.8929 C   0  0  0  0  0  0  0  0  0  0  0  0
  152.0793  139.1005  158.0046 C   0  0  0  0  0  0  0  0  0  0  0  0
  148.3811  138.0388  158.0985 H   0  0  0  0  0  0  0  0  0  0  0  0
  147.2242  136.1967  158.7499 H   0  0  0  0  0  0  0  0  0  0  0  0
  148.6992  135.2593  158.7799 H   0  0  0  0  0  0  0  0  0  0  0  0
  149.1649  135.8241  161.0587 H   0  0  0  0  0  0  0  0  0  0  0  0
  148.2356  137.3007  160.9872 H   0  0  0  0  0  0  0  0  0  0  0  0
  145.8005  137.2990  161.3842 H   0  0  0  0  0  0  0  0  0  0  0  0
  143.8727  136.0604  162.3830 H   0  0  0  0  0  0  0  0  0  0  0  0
  144.1283  133.5458  162.8075 H   0  0  0  0  0  0  0  0  0  0  0  0
  147.9875  133.5323  161.3255 H   0  0  0  0  0  0  0  0  0  0  0  0
  150.2915  139.8407  156.2310 H   0  0  0  0  0  0  0  0  0  0  0  0
  148.8523  139.2416  156.9940 H   0  0  0  0  0  0  0  0  0  0  0  0
  149.1704  141.5915  157.5862 H   0  0  0  0  0  0  0  0  0  0  0  0
  149.2972  140.6108  159.0261 H   0  0  0  0  0  0  0  0  0  0  0  0
  150.3732  142.4364  160.0403 H   0  0  0  0  0  0  0  0  0  0  0  0
  150.6367  143.7010  157.3503 H   0  0  0  0  0  0  0  0  0  0  0  0
  149.6525  144.2399  158.7073 H   0  0  0  0  0  0  0  0  0  0  0  0
  151.7751  145.7472  158.0234 H   0  0  0  0  0  0  0  0  0  0  0  0
  152.2820  146.2240  160.3939 H   0  0  0  0  0  0  0  0  0  0  0  0
  150.6185  145.6416  160.4747 H   0  0  0  0  0  0  0  0  0  0  0  0
  153.0521  144.3640  161.5102 H   0  0  0  0  0  0  0  0  0  0  0  0
  151.4093  143.7530  161.6786 H   0  0  0  0  0  0  0  0  0  0  0  0
  153.1182  142.3466  160.1676 H   0  0  0  0  0  0  0  0  0  0  0  0
  153.1705  143.5289  157.7996 H   0  0  0  0  0  0  0  0  0  0  0  0
  153.8883  144.5710  159.0499 H   0  0  0  0  0  0  0  0  0  0  0  0
  153.1029  140.7252  158.9252 H   0  0  0  0  0  0  0  0  0  0  0  0
  151.7978  140.0939  159.9134 H   0  0  0  0  0  0  0  0  0  0  0  0
  152.7615  138.3536  158.4142 H   0  0  0  0  0  0  0  0  0  0  0  0
  152.4722  139.3424  157.0158 H   0  0  0  0  0  0  0  0  0  0  0  0
  151.5339  141.7014  157.4903 H   0  0  0  0  0  0  0  0  0  0  0  0
  146.1269  132.5172  162.2521 H   0  0  0  0  0  0  0  0  0  0  0  0
  1  2  2  0  0  0  0
  2  3  1  0  0  0  0
  2 12  1  0  0  0  0
  3  4  1  0  0  0  0
  3 25  1  0  0  0  0
  4  5  1  0  0  0  0
  4 26  1  0  0  0  0
  4 27  1  0  0  0  0
  5  6  1  0  0  0  0
  5 28  1  0  0  0  0
  5 29  1  0  0  0  0
  6 11  1  0  0  0  0
  6  7  2  0  0  0  0
  7  8  1  0  0  0  0
  7 30  1  0  0  0  0
  8  9  2  0  0  0  0
  8 31  1  0  0  0  0
  9 10  1  0  0  0  0
  9 32  1  0  0  0  0
 10 11  2  0  0  0  0
 10 54  1  0  0  0  0
 11 33  1  0  0  0  0
 12 24  1  0  0  0  0
 12 13  1  0  0  0  0
 13 14  1  0  0  0  0
 13 34  1  0  0  0  0
 13 35  1  0  0  0  0
 14 15  1  0  0  0  0
 14 36  1  0  0  0  0
 14 37  1  0  0  0  0
 15 16  1  0  0  0  0
 15 23  1  0  0  0  0
 15 53  1  0  0  0  0
 16 21  1  0  0  0  0
 16 17  1  0  0  0  0
 16 38  1  0  0  0  0
 17 18  1  0  0  0  0
 17 39  1  0  0  0  0
 17 40  1  0  0  0  0
 18 22  1  0  0  0  0
 18 19  1  0  0  0  0
 18 41  1  0  0  0  0
 19 20  1  0  0  0  0
 19 42  1  0  0  0  0
 19 43  1  0  0  0  0
 20 21  1  0  0  0  0
 20 44  1  0  0  0  0
 20 45  1  0  0  0  0
 21 22  1  0  0  0  0
 21 46  1  0  0  0  0
 22 47  1  0  0  0  0
 22 48  1  0  0  0  0
 23 24  1  0  0  0  0
 23 49  1  0  0  0  0
 23 50  1  0  0  0  0
 24 51  1  0  0  0  0
 24 52  1  0  0  0  0
M  CHG  1  10   1
M  CHG  1  15   1
M  END
> <s_m_source_file>
AV-unprocessed.smi

> <i_m_source_file_index>
867

> <i_lp_mmshare_version>
43012

> <i_f3d_flags>
0

> <s_epik_input>
W0NIMl0xW0NIMl1bQ0BASF0oW0NIMl0yKVtDQEBIXShbQ0gyXVtDQEhdMTIpTihbQ0gyXVtDSDJdMylbQ0gyXVtDSDJdTjNDKD1PKVtOSF1bQ0gyXVtDSDJdYzRbY0hdW2NIXVtjSF1uW2NIXTQ=

> <s_epik_cmdline>
J2VwaWtfcHl0aG9uJywgJy1waCcsICc3LjAnLCAnLXRuJywgJzgnLCAnLW1hJywgJzIwMCcsICctbWV0YWxfYmluZGluZycsICctaW1hZScsICc8aW5maWxlLm1hZT4nLCAnLW9tYWUnLCAnPG91dGZpbGUubWFlPic=

> <r_epik_Ionization_Penalty>
2.25108

> <r_epik_Ionization_Penalty_Charging>
2.25105

> <r_epik_Ionization_Penalty_Neutral>
2.64641e-05

> <r_epik_State_Penalty>
2.39519

> <r_epik_Charging_Adjusted_Penalty>
4.64625

> <i_epik_Tot_Q>
2

> <i_epik_Tot_abs_Q>
2

> <r_epik_Metal_State_Penalty>
2.40865

> <b_epik_Metal_Only>
0

> <s_lp_Force_Field>
OPLS_2005

> <r_lp_Energy>
104.696

> <b_lp_Chiralities_Consistent>
1

> <s_lp_Variant>
AV-unprocessed.smi:867-7

> <Gold.Version>
5.8.1

> <Gold.Id.Protein>
6NUR|6NUR_protein|mol2

> <Gold.PLP.Fitness>
51.9328

> <Gold.PLP.PLP>
-50.8305

> <Gold.PLP.part.hbond>
-1.0000

> <Gold.PLP.part.metal>
0.0000

> <Gold.PLP.part.buried>
-7.8557

> <Gold.PLP.part.nonpolar>
-41.9982

> <Gold.PLP.part.repulsive>
0.3877

> <Gold.PLP.ligand.clash>
0.0000

> <Gold.PLP.ligand.torsion>
1.0045

> <Gold.PLP.Chemscore.Hbond>
1.0000

> <Gold.PLP.Chemscore.CHOScore>
0.0000

> <Gold.PLP.Chemscore.Metal>
0.0000

> <Gold.Chemscore.Hbonds>
donor molecule, donor type, donor heavy atom, donor atom, acceptor molecule, acceptor atom, score
      P1  H  6896  6909       L1     1  1.00

> <Gold.PLP.Chemscore.Internal.Correction>
0.1112

> <Gold.Rescore>
     Score         DG    S(hbond)    S(metal)    S(lipo)     H(rot)  DE(clash)    DE(int)     intcor
     21.66     -22.43       0.99        0.00     148.37       1.46       0.02       0.74       ----

> <Gold.Chemscore.Fitness>
21.6604

> <Gold.Chemscore.DG>
-22.4274

> <Gold.Chemscore.ZeroCoef>
-5.4800

> <Gold.Chemscore.Hbond>
0.9937

> <Gold.Chemscore.Metal>
0.0000

> <Gold.Chemscore.Lipo>
148.3665

> <Gold.Chemscore.Internal_Hbond>
0.0000

> <Gold.Chemscore.DEClash>
0.0237

> <Gold.Chemscore.DEInternal>
0.7432

> <Gold.Chemscore.Rot>
1.4572

> <Gold.Chemscore.Internal.Correction>
   9.000000E+99

> <Gold.Chemscore.Hbonds>
donor molecule, donor type, donor heavy atom, donor atom, acceptor molecule, acceptor atom, score
      P1  H  6896  6909       L1     1  0.94

> <Gold.Chemscore.Hbond.Weighted>
-3.3190

> <Gold.Chemscore.Metal.Weighted>
-0.0000

> <Gold.Chemscore.Lipo.Weighted>
-17.3589

> <Gold.Chemscore.Internal_Hbond.Weighted>
0.0000

> <Gold.Chemscore.DEClash.Weighted>
0.0237

> <Gold.Chemscore.DEInternal.Weighted>
0.7432

> <Gold.Chemscore.Rot.Weighted>
3.7305

> <Gold.Chemscore.Internal.Correction.Weighted>
   9.000000E+99

> <Gold.Protein.RotatedTorsions>
[ 6907 6896 6895 6894 ] final   92.29 input  -60.11 | X-H torsion
[ 7974 7965 7964 7962 ] final  103.06 input  175.53 | X-H torsion
[ 8008 7997 7996 7995 ] final -165.03 input   59.86 | X-H torsion
[ 10167 10162 10161 10158 ] final  -86.45 input  -65.29 | X-H torsion
[ 10718 10713 10712 10709 ] final   87.92 input   66.30 | X-H torsion
[ 10763 10752 10751 10750 ] final    8.55 input  -60.55 | X-H torsion
[ 11005 11000 10999 10996 ] final  -88.43 input  -57.11 | X-H torsion

> <Gold.Protein.ActiveResidues>
 VAL166  LYS551  ARG553  GLY616  TRP617  ASP618  TYR619  PRO620  LYS621  CYS622 
 ASP623  PHE694  ASN695  SER759  ASP760  ASP761  ALA762  ILE779  LEU786  VAL792 
 PHE793  MET794  SER795  GLU796  ALA797  LYS798  CYS799  TRP800  GLU811  SER814 

> <Gold.Protein.RotatedAtoms>
  152.5452  134.1525  159.8524 H   0  0  0  0  0  0  0  0  0  0  0  0  # atno 6907 bound_to 6896
  151.1551  133.4875  159.2602 H   0  0  0  0  0  0  0  0  0  0  0  0  # atno 6908 bound_to 6896
  151.1432  135.0201  159.8690 H   0  0  0  0  0  0  0  0  0  0  0  0  # atno 6909 bound_to 6896
  145.3509  139.2439  143.3559 H   0  0  0  0  0  0  0  0  0  0  0  0  # atno 7974 bound_to 7965
  155.8440  140.0952  157.1717 H   0  0  0  0  0  0  0  0  0  0  0  0  # atno 8008 bound_to 7997
  154.3983  140.1395  156.3824 H   0  0  0  0  0  0  0  0  0  0  0  0  # atno 8009 bound_to 7997
  155.8034  140.3452  155.5418 H   0  0  0  0  0  0  0  0  0  0  0  0  # atno 8010 bound_to 7997
  140.3940  143.2692  151.9227 H   0  0  0  0  0  0  0  0  0  0  0  0  # atno 10167 bound_to 10162
  157.6944  131.0274  150.3197 H   0  0  0  0  0  0  0  0  0  0  0  0  # atno 10718 bound_to 10713
  153.2238  135.6884  153.7968 H   0  0  0  0  0  0  0  0  0  0  0  0  # atno 10763 bound_to 10752
  153.7157  135.3275  155.3257 H   0  0  0  0  0  0  0  0  0  0  0  0  # atno 10764 bound_to 10752
  154.8282  135.4601  154.1097 H   0  0  0  0  0  0  0  0  0  0  0  0  # atno 10765 bound_to 10752
  141.1602  133.7569  156.9450 H   0  0  0  0  0  0  0  0  0  0  0  0  # atno 11005 bound_to 11000
  146.2968  140.4124  142.8718 LP  0  0  0  0  0  0  0  0  0  0  0  0  # atno 17320 bound_to 7965
  144.8719  140.7283  143.6042 LP  0  0  0  0  0  0  0  0  0  0  0  0  # atno 17321 bound_to 7965
  139.4787  144.5699  151.8105 LP  0  0  0  0  0  0  0  0  0  0  0  0  # atno 17342 bound_to 10162
  140.4809  144.1450  150.5932 LP  0  0  0  0  0  0  0  0  0  0  0  0  # atno 17343 bound_to 10162
  156.3686  130.3859  149.7194 LP  0  0  0  0  0  0  0  0  0  0  0  0  # atno 17370 bound_to 10713
  156.4616  130.7954  151.2974 LP  0  0  0  0  0  0  0  0  0  0  0  0  # atno 17371 bound_to 10713
  140.1296  134.9364  157.2318 LP  0  0  0  0  0  0  0  0  0  0  0  0  # atno 17394 bound_to 11000
  140.2970  134.3175  155.7300 LP  0  0  0  0  0  0  0  0  0  0  0  0  # atno 17395 bound_to 11000

$$$$
