AV-unprocessed.smi:311|AV-procd|sdf|2299|dock3
  -GOLD-   2262022203D 1   1.00000     0.00000
 Structure written by MMmdl.
 44 46  0  0  0  0  0  0  0  0  2 V2000
  151.9313  130.0561  157.1402 C   0  0  0  0  0  0  0  0  0  0  0  0
  151.3028  131.3704  156.7764 C   0  0  0  0  0  0  0  0  0  0  0  0
  151.4164  132.3997  157.5989 N   0  0  0  0  0  0  0  0  0  0  0  0
  150.7291  133.4543  156.9908 O   0  0  0  0  0  0  0  0  0  0  0  0
  150.2249  133.0139  155.8106 C   0  0  0  0  0  0  0  0  0  0  0  0
  149.4388  133.9987  155.0131 C   0  0  0  0  0  0  0  0  0  0  0  0
  150.5526  131.7003  155.6115 C   0  0  0  0  0  0  0  0  0  0  0  0
  150.1994  130.8016  154.4542 C   0  0  0  0  0  0  0  0  0  0  0  0
  148.6789  130.6946  154.3550 C   0  0  0  0  0  0  0  0  0  0  0  0
  148.0110  130.4580  155.3613 O   0  0  0  0  0  0  0  0  0  0  0  0
  148.1440  130.9120  153.1440 N   0  0  0  0  0  0  0  0  0  0  0  0
  146.7157  131.0039  152.8628 C   0  0  2  0  0  0  0  0  0  0  0  0
  146.1828  129.8213  152.0356 C   0  0  0  0  0  0  0  0  0  0  0  0
  145.1377  130.4313  151.0794 C   0  0  0  0  0  0  0  0  0  0  0  0
  145.0678  131.8625  151.4335 N   0  3  2  0  0  0  0  0  0  0  0  0
  144.6186  132.7978  150.3792 C   0  0  0  0  0  0  0  0  0  0  0  0
  144.5383  134.2229  150.9631 C   0  0  0  0  0  0  0  0  0  0  0  0
  145.8615  134.6418  151.6361 C   0  0  0  0  0  0  0  0  0  0  0  0
  146.3256  133.5854  152.6573 C   0  0  0  0  0  0  0  0  0  0  0  0
  146.3895  132.2079  151.9769 C   0  0  1  0  0  0  0  0  0  0  0  0
  151.2492  129.2294  156.9414 H   0  0  0  0  0  0  0  0  0  0  0  0
  152.1991  130.0147  158.1964 H   0  0  0  0  0  0  0  0  0  0  0  0
  152.8381  129.8855  156.5602 H   0  0  0  0  0  0  0  0  0  0  0  0
  149.4880  133.7672  153.9492 H   0  0  0  0  0  0  0  0  0  0  0  0
  149.8205  135.0099  155.1555 H   0  0  0  0  0  0  0  0  0  0  0  0
  148.3913  133.9863  155.3138 H   0  0  0  0  0  0  0  0  0  0  0  0
  150.6072  131.1803  153.5160 H   0  0  0  0  0  0  0  0  0  0  0  0
  150.6140  129.8012  154.5818 H   0  0  0  0  0  0  0  0  0  0  0  0
  148.7745  131.0905  152.3754 H   0  0  0  0  0  0  0  0  0  0  0  0
  146.1391  131.0639  153.7886 H   0  0  0  0  0  0  0  0  0  0  0  0
  146.9790  129.3511  151.4565 H   0  0  0  0  0  0  0  0  0  0  0  0
  145.7488  129.0543  152.6781 H   0  0  0  0  0  0  0  0  0  0  0  0
  145.4650  130.3138  150.0452 H   0  0  0  0  0  0  0  0  0  0  0  0
  144.1584  129.9623  151.1798 H   0  0  0  0  0  0  0  0  0  0  0  0
  145.3109  132.7687  149.5364 H   0  0  0  0  0  0  0  0  0  0  0  0
  143.6418  132.4878  150.0063 H   0  0  0  0  0  0  0  0  0  0  0  0
  144.2764  134.9340  150.1790 H   0  0  0  0  0  0  0  0  0  0  0  0
  143.7334  134.2663  151.6981 H   0  0  0  0  0  0  0  0  0  0  0  0
  146.6305  134.7707  150.8733 H   0  0  0  0  0  0  0  0  0  0  0  0
  145.7454  135.6101  152.1240 H   0  0  0  0  0  0  0  0  0  0  0  0
  147.3031  133.8593  153.0558 H   0  0  0  0  0  0  0  0  0  0  0  0
  145.6378  133.5563  153.5034 H   0  0  0  0  0  0  0  0  0  0  0  0
  147.1035  132.2465  151.1509 H   0  0  0  0  0  0  0  0  0  0  0  0
  144.4159  131.9378  152.2015 H   0  0  0  0  0  0  0  0  0  0  0  0
  1  2  1  0  0  0  0
  1 21  1  0  0  0  0
  1 22  1  0  0  0  0
  1 23  1  0  0  0  0
  2  7  1  0  0  0  0
  2  3  2  0  0  0  0
  3  4  1  0  0  0  0
  4  5  1  0  0  0  0
  5  6  1  0  0  0  0
  5  7  2  0  0  0  0
  6 24  1  0  0  0  0
  6 25  1  0  0  0  0
  6 26  1  0  0  0  0
  7  8  1  0  0  0  0
  8  9  1  0  0  0  0
  8 27  1  0  0  0  0
  8 28  1  0  0  0  0
  9 10  2  0  0  0  0
  9 11  1  0  0  0  0
 11 12  1  0  0  0  0
 11 29  1  0  0  0  0
 12 20  1  0  0  0  0
 12 13  1  0  0  0  0
 12 30  1  0  0  0  0
 13 14  1  0  0  0  0
 13 31  1  0  0  0  0
 13 32  1  0  0  0  0
 14 15  1  0  0  0  0
 14 33  1  0  0  0  0
 14 34  1  0  0  0  0
 15 20  1  0  0  0  0
 15 16  1  0  0  0  0
 15 44  1  0  0  0  0
 16 17  1  0  0  0  0
 16 35  1  0  0  0  0
 16 36  1  0  0  0  0
 17 18  1  0  0  0  0
 17 37  1  0  0  0  0
 17 38  1  0  0  0  0
 18 19  1  0  0  0  0
 18 39  1  0  0  0  0
 18 40  1  0  0  0  0
 19 20  1  0  0  0  0
 19 41  1  0  0  0  0
 19 42  1  0  0  0  0
 20 43  1  0  0  0  0
M  CHG  1  15   1
M  END
> <s_m_source_file>
AV-unprocessed.smi

> <i_m_source_file_index>
311

> <i_lp_mmshare_version>
43012

> <i_f3d_flags>
0

> <s_epik_input>
W0NIM11jMW5vYyhbQ0gzXSljMVtDSDJdQyg9TylbTkhdW0NASF0oW0NIMl1bQ0gyXTIpW0NAQEhdKE4yMylbQ0gyXVtDSDJdW0NIMl1bQ0gyXTM=

> <s_epik_cmdline>
J2VwaWtfcHl0aG9uJywgJy1waCcsICc3LjAnLCAnLXRuJywgJzgnLCAnLW1hJywgJzIwMCcsICctbWV0YWxfYmluZGluZycsICctaW1hZScsICc8aW5maWxlLm1hZT4nLCAnLW9tYWUnLCAnPG91dGZpbGUubWFlPic=

> <r_epik_Ionization_Penalty>
0.00173669

> <r_epik_Ionization_Penalty_Charging>
0.0017366

> <r_epik_Ionization_Penalty_Neutral>
9.2145e-08

> <r_epik_State_Penalty>
0.00117499

> <r_epik_Charging_Adjusted_Penalty>
0.00291159

> <i_epik_Tot_Q>
1

> <i_epik_Tot_abs_Q>
1

> <r_epik_Metal_State_Penalty>
-0

> <b_epik_Metal_Only>
0

> <s_lp_Force_Field>
OPLS_2005

> <r_lp_Energy>
27.517

> <b_lp_Chiralities_Consistent>
1

> <s_lp_Variant>
AV-unprocessed.smi:311-3

> <Gold.Version>
5.8.1

> <Gold.Id.Protein>
6NUR|6NUR_protein|mol2

> <Gold.PLP.Fitness>
37.9943

> <Gold.PLP.PLP>
-32.5810

> <Gold.PLP.part.hbond>
-2.0539

> <Gold.PLP.part.metal>
0.0000

> <Gold.PLP.part.buried>
-5.6533

> <Gold.PLP.part.nonpolar>
-24.8060

> <Gold.PLP.part.repulsive>
0.0389

> <Gold.PLP.ligand.clash>
0.0000

> <Gold.PLP.ligand.torsion>
0.2284

> <Gold.PLP.Chemscore.Hbond>
1.9516

> <Gold.PLP.Chemscore.CHOScore>
0.0000

> <Gold.PLP.Chemscore.Metal>
0.0000

> <Gold.Chemscore.Hbonds>
donor molecule, donor type, donor heavy atom, donor atom, acceptor molecule, acceptor atom, score
      L1  H    11    29       P1 10747  0.72
      P1  H  6896  6908       L1     3  0.70

> <Gold.PLP.Chemscore.Internal.Correction>
0.0154

> <Gold.Rescore>
     Score         DG    S(hbond)    S(metal)    S(lipo)     H(rot)  DE(clash)    DE(int)     intcor
     15.88     -16.18       1.16        0.00      88.12       1.36       0.07       0.23       ----

> <Gold.Chemscore.Fitness>
15.8820

> <Gold.Chemscore.DG>
-16.1849

> <Gold.Chemscore.ZeroCoef>
-5.4800

> <Gold.Chemscore.Hbond>
1.1580

> <Gold.Chemscore.Metal>
0.0000

> <Gold.Chemscore.Lipo>
88.1219

> <Gold.Chemscore.Internal_Hbond>
0.0000

> <Gold.Chemscore.DEClash>
0.0706

> <Gold.Chemscore.DEInternal>
0.2323

> <Gold.Chemscore.Rot>
1.3567

> <Gold.Chemscore.Internal.Correction>
   9.000000E+99

> <Gold.Chemscore.Hbonds>
donor molecule, donor type, donor heavy atom, donor atom, acceptor molecule, acceptor atom, score
      L1  H    11    29       P1 10747  0.55
      P1  H  6896  6908       L1     3  0.07

> <Gold.Chemscore.Hbond.Weighted>
-3.8677

> <Gold.Chemscore.Metal.Weighted>
-0.0000

> <Gold.Chemscore.Lipo.Weighted>
-10.3103

> <Gold.Chemscore.Internal_Hbond.Weighted>
0.0000

> <Gold.Chemscore.DEClash.Weighted>
0.0706

> <Gold.Chemscore.DEInternal.Weighted>
0.2323

> <Gold.Chemscore.Rot.Weighted>
3.4731

> <Gold.Chemscore.Internal.Correction.Weighted>
   9.000000E+99

> <Gold.Protein.RotatedTorsions>
[ 6907 6896 6895 6894 ] final   61.42 input  -60.11 | X-H torsion
[ 7974 7965 7964 7962 ] final   92.22 input  175.53 | X-H torsion
[ 8008 7997 7996 7995 ] final -137.16 input   59.86 | X-H torsion
[ 10167 10162 10161 10158 ] final  143.54 input  -65.29 | X-H torsion
[ 10718 10713 10712 10709 ] final   49.33 input   66.30 | X-H torsion
[ 10763 10752 10751 10750 ] final  132.40 input  -60.55 | X-H torsion
[ 11005 11000 10999 10996 ] final  -40.98 input  -57.11 | X-H torsion

> <Gold.Protein.ActiveResidues>
 VAL166  LYS551  ARG553  GLY616  TRP617  ASP618  TYR619  PRO620  LYS621  CYS622 
 ASP623  PHE694  ASN695  SER759  ASP760  ASP761  ALA762  ILE779  LEU786  VAL792 
 PHE793  MET794  SER795  GLU796  ALA797  LYS798  CYS799  TRP800  GLU811  SER814 

> <Gold.Protein.RotatedAtoms>
  152.4087  134.6162  160.0038 H   0  0  0  0  0  0  0  0  0  0  0  0  # atno 6907 bound_to 6896
  151.6346  133.3324  159.3124 H   0  0  0  0  0  0  0  0  0  0  0  0  # atno 6908 bound_to 6896
  150.7979  134.7093  159.6639 H   0  0  0  0  0  0  0  0  0  0  0  0  # atno 6909 bound_to 6896
  145.4952  139.2276  143.2808 H   0  0  0  0  0  0  0  0  0  0  0  0  # atno 7974 bound_to 7965
  155.4072  140.0510  157.3033 H   0  0  0  0  0  0  0  0  0  0  0  0  # atno 8008 bound_to 7997
  154.4963  140.2139  155.9401 H   0  0  0  0  0  0  0  0  0  0  0  0  # atno 8009 bound_to 7997
  156.1409  140.3154  155.8499 H   0  0  0  0  0  0  0  0  0  0  0  0  # atno 8010 bound_to 7997
  139.4967  144.6033  151.6433 H   0  0  0  0  0  0  0  0  0  0  0  0  # atno 10167 bound_to 10162
  157.4776  130.8295  149.8057 H   0  0  0  0  0  0  0  0  0  0  0  0  # atno 10718 bound_to 10713
  153.7901  135.3156  155.3377 H   0  0  0  0  0  0  0  0  0  0  0  0  # atno 10763 bound_to 10752
  154.8129  135.4655  154.0567 H   0  0  0  0  0  0  0  0  0  0  0  0  # atno 10764 bound_to 10752
  153.1883  135.6904  153.8473 H   0  0  0  0  0  0  0  0  0  0  0  0  # atno 10765 bound_to 10752
  141.0214  133.6861  156.2396 H   0  0  0  0  0  0  0  0  0  0  0  0  # atno 11005 bound_to 11000
  146.2260  140.5749  142.8996 LP  0  0  0  0  0  0  0  0  0  0  0  0  # atno 17320 bound_to 7965
  144.7811  140.5842  143.6605 LP  0  0  0  0  0  0  0  0  0  0  0  0  # atno 17321 bound_to 7965
  140.5688  144.0144  150.6206 LP  0  0  0  0  0  0  0  0  0  0  0  0  # atno 17342 bound_to 10162
  140.3254  143.3111  152.0741 LP  0  0  0  0  0  0  0  0  0  0  0  0  # atno 17343 bound_to 10162
  156.0105  130.3835  150.2282 LP  0  0  0  0  0  0  0  0  0  0  0  0  # atno 17370 bound_to 10713
  157.0467  131.0051  151.3266 LP  0  0  0  0  0  0  0  0  0  0  0  0  # atno 17371 bound_to 10713
  140.6567  134.5011  157.5581 LP  0  0  0  0  0  0  0  0  0  0  0  0  # atno 17394 bound_to 11000
  139.9148  134.8269  156.1403 LP  0  0  0  0  0  0  0  0  0  0  0  0  # atno 17395 bound_to 11000

$$$$
