AV-unprocessed.smi:2001|AV-procd|sdf|8112|dock2
  -GOLD-   2272010343D 1   1.00000     0.00000
 Structure written by MMmdl.
 50 51  0  0  0  0  0  0  0  0  3 V2000
  150.8252  141.0437  156.4600 C   0  0  0  0  0  0  0  0  0  0  0  0
  151.4439  141.8189  157.4718 O   0  0  0  0  0  0  0  0  0  0  0  0
  150.9370  143.1418  157.5253 C   0  0  0  0  0  0  0  0  0  0  0  0
  151.9116  144.0210  158.3233 C   0  0  0  0  0  0  0  0  0  0  0  0
  152.3563  143.3479  159.5476 N   0  0  0  0  0  0  0  0  0  0  0  0
  153.1183  142.2142  159.3212 N   0  0  0  0  0  0  0  0  0  0  0  0
  153.5947  141.5351  160.3143 C   0  0  0  0  0  0  0  0  0  0  0  0
  154.4272  140.3134  160.0706 C   0  0  0  0  0  0  0  0  0  0  0  0
  155.1906  140.0018  160.9948 O   0  0  0  0  0  0  0  0  0  0  0  0
  154.2950  139.6463  158.8851 N   0  5  0  0  0  0  0  0  0  0  0  0
  154.1307  138.1987  158.7429 C   0  0  0  0  0  0  0  0  0  0  0  0
  153.7870  137.5791  160.1101 C   0  0  0  0  0  0  0  0  0  0  0  0
  154.9966  137.4338  160.9680 N   0  3  1  0  0  0  0  0  0  0  0  0
  154.7635  137.6641  162.4171 C   0  0  0  0  0  0  0  0  0  0  0  0
  154.1154  136.4325  163.0856 C   0  0  2  0  0  0  0  0  0  0  0  0
  153.9843  136.6050  164.6029 C   0  0  0  0  0  0  0  0  0  0  0  0
  154.9200  135.2835  162.8382 O   0  0  0  0  0  0  0  0  0  0  0  0
  155.0509  134.9882  161.4511 C   0  0  2  0  0  0  0  0  0  0  0  0
  155.8506  133.6880  161.3132 C   0  0  0  0  0  0  0  0  0  0  0  0
  155.7476  136.1732  160.7540 C   0  0  0  0  0  0  0  0  0  0  0  0
  153.3291  141.9511  161.6867 C   0  0  0  0  0  0  0  0  0  0  0  0
  152.5882  143.0620  161.8908 C   0  0  0  0  0  0  0  0  0  0  0  0
  152.0510  143.8497  160.7813 C   0  0  0  0  0  0  0  0  0  0  0  0
  151.3889  144.8747  160.9426 O   0  0  0  0  0  0  0  0  0  0  0  0
  151.2372  140.0346  156.4676 H   0  0  0  0  0  0  0  0  0  0  0  0
  151.0024  141.4718  155.4726 H   0  0  0  0  0  0  0  0  0  0  0  0
  149.7489  140.9693  156.6213 H   0  0  0  0  0  0  0  0  0  0  0  0
  150.8195  143.5374  156.5149 H   0  0  0  0  0  0  0  0  0  0  0  0
  149.9525  143.1418  157.9960 H   0  0  0  0  0  0  0  0  0  0  0  0
  152.7662  144.2934  157.7013 H   0  0  0  0  0  0  0  0  0  0  0  0
  151.4253  144.9650  158.5761 H   0  0  0  0  0  0  0  0  0  0  0  0
  153.3430  137.9403  158.0337 H   0  0  0  0  0  0  0  0  0  0  0  0
  155.0396  137.7314  158.3637 H   0  0  0  0  0  0  0  0  0  0  0  0
  153.0330  138.1877  160.6094 H   0  0  0  0  0  0  0  0  0  0  0  0
  153.3168  136.6084  159.9441 H   0  0  0  0  0  0  0  0  0  0  0  0
  155.7272  137.8694  162.8852 H   0  0  0  0  0  0  0  0  0  0  0  0
  154.1527  138.5551  162.5675 H   0  0  0  0  0  0  0  0  0  0  0  0
  153.1188  136.2620  162.6759 H   0  0  0  0  0  0  0  0  0  0  0  0
  153.3645  137.4682  164.8477 H   0  0  0  0  0  0  0  0  0  0  0  0
  154.9590  136.7493  165.0699 H   0  0  0  0  0  0  0  0  0  0  0  0
  153.5246  135.7264  165.0567 H   0  0  0  0  0  0  0  0  0  0  0  0
  154.0604  134.8308  161.0208 H   0  0  0  0  0  0  0  0  0  0  0  0
  155.9691  133.4100  160.2655 H   0  0  0  0  0  0  0  0  0  0  0  0
  155.3467  132.8645  161.8198 H   0  0  0  0  0  0  0  0  0  0  0  0
  156.8456  133.7880  161.7480 H   0  0  0  0  0  0  0  0  0  0  0  0
  155.8753  135.9860  159.6867 H   0  0  0  0  0  0  0  0  0  0  0  0
  156.7507  136.3012  161.1631 H   0  0  0  0  0  0  0  0  0  0  0  0
  153.7083  141.3979  162.5331 H   0  0  0  0  0  0  0  0  0  0  0  0
  152.3861  143.3803  162.9029 H   0  0  0  0  0  0  0  0  0  0  0  0
  155.6072  138.1735  160.6482 H   0  0  0  0  0  0  0  0  0  0  0  0
  1  2  1  0  0  0  0
  1 25  1  0  0  0  0
  1 26  1  0  0  0  0
  1 27  1  0  0  0  0
  2  3  1  0  0  0  0
  3  4  1  0  0  0  0
  3 28  1  0  0  0  0
  3 29  1  0  0  0  0
  4  5  1  0  0  0  0
  4 30  1  0  0  0  0
  4 31  1  0  0  0  0
  5 23  1  0  0  0  0
  5  6  1  0  0  0  0
  6  7  2  0  0  0  0
  7  8  1  0  0  0  0
  7 21  1  0  0  0  0
  8  9  2  0  0  0  0
  8 10  1  0  0  0  0
 10 11  1  0  0  0  0
 11 12  1  0  0  0  0
 11 32  1  0  0  0  0
 11 33  1  0  0  0  0
 12 13  1  0  0  0  0
 12 34  1  0  0  0  0
 12 35  1  0  0  0  0
 13 20  1  0  0  0  0
 13 14  1  0  0  0  0
 13 50  1  0  0  0  0
 14 15  1  0  0  0  0
 14 36  1  0  0  0  0
 14 37  1  0  0  0  0
 15 16  1  0  0  0  0
 15 17  1  0  0  0  0
 15 38  1  0  0  0  0
 16 39  1  0  0  0  0
 16 40  1  0  0  0  0
 16 41  1  0  0  0  0
 17 18  1  0  0  0  0
 18 19  1  0  0  0  0
 18 20  1  0  0  0  0
 18 42  1  0  0  0  0
 19 43  1  0  0  0  0
 19 44  1  0  0  0  0
 19 45  1  0  0  0  0
 20 46  1  0  0  0  0
 20 47  1  0  0  0  0
 21 22  2  0  0  0  0
 21 48  1  0  0  0  0
 22 23  1  0  0  0  0
 22 49  1  0  0  0  0
 23 24  2  0  0  0  0
M  CHG  1  10  -1
M  CHG  1  13   1
M  END
> <s_m_source_file>
AV-unprocessed.smi

> <i_m_source_file_index>
2001

> <i_lp_mmshare_version>
43012

> <i_f3d_flags>
0

> <s_epik_input>
W0NIM11PW0NIMl1bQ0gyXW4xbmMoW2NIXVtjSF1jMT1PKUMoPU8pW05IXVtDSDJdW0NIMl1OMltDSDJdW0NAQEhdKFtDSDNdKU9bQ0BASF0oW0NIM10pW0NIMl0y

> <s_epik_cmdline>
J2VwaWtfcHl0aG9uJywgJy1waCcsICc3LjAnLCAnLXRuJywgJzgnLCAnLW1hJywgJzIwMCcsICctbWV0YWxfYmluZGluZycsICctaW1hZScsICc8aW5maWxlLm1hZT4nLCAnLW9tYWUnLCAnPG91dGZpbGUubWFlPic=

> <r_lp_tautomer_probability>
1

> <r_epik_Ionization_Penalty>
6.90846

> <r_epik_Ionization_Penalty_Charging>
6.90846

> <r_epik_Ionization_Penalty_Neutral>
1.08445e-11

> <r_epik_State_Penalty>
7.54671

> <r_epik_Charging_Adjusted_Penalty>
14.4552

> <i_epik_Tot_Q>
0

> <i_epik_Tot_abs_Q>
2

> <r_epik_Metal_State_Penalty>
3.46181

> <b_epik_Metal_Only>
1

> <s_lp_Force_Field>
OPLS_2005

> <r_lp_Energy>
41.6735

> <b_lp_Chiralities_Consistent>
1

> <s_lp_Variant>
AV-unprocessed.smi:2001-11

> <Gold.Version>
5.8.1

> <Gold.Id.Protein>
6NUR|6NUR_protein|mol2

> <Gold.PLP.Fitness>
51.5812

> <Gold.PLP.PLP>
-47.9388

> <Gold.PLP.part.hbond>
-1.0000

> <Gold.PLP.part.metal>
0.0000

> <Gold.PLP.part.buried>
-4.0469

> <Gold.PLP.part.nonpolar>
-43.0669

> <Gold.PLP.part.repulsive>
0.6542

> <Gold.PLP.ligand.clash>
0.0000

> <Gold.PLP.ligand.torsion>
1.3560

> <Gold.PLP.Chemscore.Hbond>
2.0000

> <Gold.PLP.Chemscore.CHOScore>
0.0000

> <Gold.PLP.Chemscore.Metal>
0.0000

> <Gold.Chemscore.Hbonds>
donor molecule, donor type, donor heavy atom, donor atom, acceptor molecule, acceptor atom, score
      P1  H  7997  8009       L1    10  2.00

> <Gold.PLP.Chemscore.Internal.Correction>
0.3544

> <Gold.Rescore>
     Score         DG    S(hbond)    S(metal)    S(lipo)     H(rot)  DE(clash)    DE(int)     intcor
     12.63     -15.81       0.83        0.00     108.62       2.02       0.13       3.05       ----

> <Gold.Chemscore.Fitness>
12.6269

> <Gold.Chemscore.DG>
-15.8064

> <Gold.Chemscore.ZeroCoef>
-5.4800

> <Gold.Chemscore.Hbond>
0.8336

> <Gold.Chemscore.Metal>
0.0000

> <Gold.Chemscore.Lipo>
108.6151

> <Gold.Chemscore.Internal_Hbond>
0.0000

> <Gold.Chemscore.DEClash>
0.1297

> <Gold.Chemscore.DEInternal>
3.0498

> <Gold.Chemscore.Rot>
2.0179

> <Gold.Chemscore.Internal.Correction>
   9.000000E+99

> <Gold.Chemscore.Hbonds>
donor molecule, donor type, donor heavy atom, donor atom, acceptor molecule, acceptor atom, score
      P1  H  7997  8009       L1    10  0.25

> <Gold.Chemscore.Hbond.Weighted>
-2.7842

> <Gold.Chemscore.Metal.Weighted>
-0.0000

> <Gold.Chemscore.Lipo.Weighted>
-12.7080

> <Gold.Chemscore.Internal_Hbond.Weighted>
0.0000

> <Gold.Chemscore.DEClash.Weighted>
0.1297

> <Gold.Chemscore.DEInternal.Weighted>
3.0498

> <Gold.Chemscore.Rot.Weighted>
5.1659

> <Gold.Chemscore.Internal.Correction.Weighted>
   9.000000E+99

> <Gold.Protein.RotatedTorsions>
[ 6907 6896 6895 6894 ] final   41.61 input  -60.11 | X-H torsion
[ 7974 7965 7964 7962 ] final   24.51 input  175.53 | X-H torsion
[ 8008 7997 7996 7995 ] final  113.15 input   59.86 | X-H torsion
[ 10167 10162 10161 10158 ] final  150.69 input  -65.29 | X-H torsion
[ 10718 10713 10712 10709 ] final   61.80 input   66.30 | X-H torsion
[ 10763 10752 10751 10750 ] final -153.30 input  -60.55 | X-H torsion
[ 11005 11000 10999 10996 ] final -138.67 input  -57.11 | X-H torsion

> <Gold.Protein.ActiveResidues>
 VAL166  LYS551  ARG553  GLY616  TRP617  ASP618  TYR619  PRO620  LYS621  CYS622 
 ASP623  PHE694  ASN695  SER759  ASP760  ASP761  ALA762  ILE779  LEU786  VAL792 
 PHE793  MET794  SER795  GLU796  ALA797  LYS798  CYS799  TRP800  GLU811  SER814 

> <Gold.Protein.RotatedAtoms>
  152.1975  134.8617  160.0511 H   0  0  0  0  0  0  0  0  0  0  0  0  # atno 6907 bound_to 6896
  151.9483  133.3653  159.3999 H   0  0  0  0  0  0  0  0  0  0  0  0  # atno 6908 bound_to 6896
  150.6947  134.4291  159.5284 H   0  0  0  0  0  0  0  0  0  0  0  0  # atno 6909 bound_to 6896
  146.1934  139.7595  142.8815 H   0  0  0  0  0  0  0  0  0  0  0  0  # atno 7974 bound_to 7965
  156.2239  140.2985  156.0019 H   0  0  0  0  0  0  0  0  0  0  0  0  # atno 8008 bound_to 7997
  155.2409  140.0422  157.2992 H   0  0  0  0  0  0  0  0  0  0  0  0  # atno 8009 bound_to 7997
  154.5884  140.2394  155.7963 H   0  0  0  0  0  0  0  0  0  0  0  0  # atno 8010 bound_to 7997
  139.4847  144.5502  151.7414 H   0  0  0  0  0  0  0  0  0  0  0  0  # atno 10167 bound_to 10162
  157.5855  130.9015  149.9507 H   0  0  0  0  0  0  0  0  0  0  0  0  # atno 10718 bound_to 10713
  154.7936  135.3216  154.7718 H   0  0  0  0  0  0  0  0  0  0  0  0  # atno 10763 bound_to 10752
  153.8402  135.6871  153.4808 H   0  0  0  0  0  0  0  0  0  0  0  0  # atno 10764 bound_to 10752
  153.1618  135.4658  154.9723 H   0  0  0  0  0  0  0  0  0  0  0  0  # atno 10765 bound_to 10752
  140.8593  134.2188  157.4716 H   0  0  0  0  0  0  0  0  0  0  0  0  # atno 11005 bound_to 11000
  145.3721  141.0344  143.3225 LP  0  0  0  0  0  0  0  0  0  0  0  0  # atno 17320 bound_to 7965
  144.8532  139.5290  143.6847 LP  0  0  0  0  0  0  0  0  0  0  0  0  # atno 17321 bound_to 7965
  140.5055  144.1105  150.5981 LP  0  0  0  0  0  0  0  0  0  0  0  0  # atno 17342 bound_to 10162
  140.4013  143.2702  151.9945 LP  0  0  0  0  0  0  0  0  0  0  0  0  # atno 17343 bound_to 10162
  156.0903  130.3664  150.0407 LP  0  0  0  0  0  0  0  0  0  0  0  0  # atno 17370 bound_to 10713
  156.8539  130.9468  151.3623 LP  0  0  0  0  0  0  0  0  0  0  0  0  # atno 17371 bound_to 10713
  139.8706  134.9722  156.4764 LP  0  0  0  0  0  0  0  0  0  0  0  0  # atno 17394 bound_to 11000
  140.8701  133.7995  155.9355 LP  0  0  0  0  0  0  0  0  0  0  0  0  # atno 17395 bound_to 11000

$$$$
