AV-unprocessed.smi:845|AV-procd|sdf|3932|dock10
  -GOLD-   22720 1393D 1   1.00000     0.00000
 Structure written by MMmdl.
 42 43  0  0  0  0  0  0  0  0  3 V2000
  152.4824  139.1817  155.3261 C   0  0  0  0  0  0  0  0  0  0  0  0
  151.0264  138.6931  155.4648 C   0  0  0  0  0  0  0  0  0  0  0  0
  150.0833  139.7813  154.9165 C   0  0  0  0  0  0  0  0  0  0  0  0
  150.6903  138.2759  156.9262 C   0  0  1  0  0  0  0  0  0  0  0  0
  149.1944  137.8782  157.1045 C   0  0  0  0  0  0  0  0  0  0  0  0
  148.7252  137.9339  158.4850 N   0  0  0  0  0  0  0  0  0  0  0  0
  148.3966  136.8791  159.2436 C   0  0  0  0  0  0  0  0  0  0  0  0
  148.5070  135.7374  158.7915 O   0  0  0  0  0  0  0  0  0  0  0  0
  147.9397  137.2181  160.4693 N   0  5  0  0  0  0  0  0  0  0  0  0
  147.1167  136.3894  161.1317 C   0  0  0  0  0  0  0  0  0  0  0  0
  146.3750  136.7772  162.1752 N   0  0  0  0  0  0  0  0  0  0  0  0
  145.5864  135.7546  162.7054 C   0  0  0  0  0  0  0  0  0  0  0  0
  145.7260  134.5625  162.0453 C   0  0  0  0  0  0  0  0  0  0  0  0
  146.8590  134.6893  160.7299 S   0  0  0  0  0  0  0  0  0  0  0  0
  151.6596  137.2318  157.3873 N   0  3  0  0  0  0  0  0  0  0  0  0
  151.6295  136.9211  158.8379 C   0  0  0  0  0  0  0  0  0  0  0  0
  152.8354  136.0424  159.2077 C   0  0  0  0  0  0  0  0  0  0  0  0
  152.8310  134.8615  158.4129 O   0  0  0  0  0  0  0  0  0  0  0  0
  152.9360  135.1475  157.0227 C   0  0  0  0  0  0  0  0  0  0  0  0
  151.7321  135.9922  156.5749 C   0  0  0  0  0  0  0  0  0  0  0  0
  152.6757  140.0372  155.9743 H   0  0  0  0  0  0  0  0  0  0  0  0
  152.6978  139.4882  154.3021 H   0  0  0  0  0  0  0  0  0  0  0  0
  153.2023  138.4029  155.5779 H   0  0  0  0  0  0  0  0  0  0  0  0
  150.9128  137.8203  154.8209 H   0  0  0  0  0  0  0  0  0  0  0  0
  150.0616  140.6543  155.5699 H   0  0  0  0  0  0  0  0  0  0  0  0
  149.0624  139.4179  154.8035 H   0  0  0  0  0  0  0  0  0  0  0  0
  150.4018  140.1158  153.9288 H   0  0  0  0  0  0  0  0  0  0  0  0
  150.8633  139.1639  157.5361 H   0  0  0  0  0  0  0  0  0  0  0  0
  148.5476  138.5263  156.5134 H   0  0  0  0  0  0  0  0  0  0  0  0
  149.0227  136.8689  156.7304 H   0  0  0  0  0  0  0  0  0  0  0  0
  148.6280  138.8494  158.8993 H   0  0  0  0  0  0  0  0  0  0  0  0
  144.9532  135.9647  163.5544 H   0  0  0  0  0  0  0  0  0  0  0  0
  145.2345  133.6235  162.2502 H   0  0  0  0  0  0  0  0  0  0  0  0
  151.6542  137.8419  159.4219 H   0  0  0  0  0  0  0  0  0  0  0  0
  150.7140  136.3951  159.1022 H   0  0  0  0  0  0  0  0  0  0  0  0
  153.7709  136.5859  159.0662 H   0  0  0  0  0  0  0  0  0  0  0  0
  152.7863  135.7609  160.2598 H   0  0  0  0  0  0  0  0  0  0  0  0
  153.8737  135.6661  156.8161 H   0  0  0  0  0  0  0  0  0  0  0  0
  152.9623  134.2087  156.4694 H   0  0  0  0  0  0  0  0  0  0  0  0
  150.8190  135.4076  156.6906 H   0  0  0  0  0  0  0  0  0  0  0  0
  151.8278  136.2380  155.5173 H   0  0  0  0  0  0  0  0  0  0  0  0
  152.5572  137.6766  157.2612 H   0  0  0  0  0  0  0  0  0  0  0  0
  1  2  1  0  0  0  0
  1 21  1  0  0  0  0
  1 22  1  0  0  0  0
  1 23  1  0  0  0  0
  2  3  1  0  0  0  0
  2  4  1  0  0  0  0
  2 24  1  0  0  0  0
  3 25  1  0  0  0  0
  3 26  1  0  0  0  0
  3 27  1  0  0  0  0
  4  5  1  0  0  0  0
  4 15  1  0  0  0  0
  4 28  1  0  0  0  0
  5  6  1  0  0  0  0
  5 29  1  0  0  0  0
  5 30  1  0  0  0  0
  6  7  1  0  0  0  0
  6 31  1  0  0  0  0
  7  8  2  0  0  0  0
  7  9  1  0  0  0  0
  9 10  1  0  0  0  0
 10 14  1  0  0  0  0
 10 11  2  0  0  0  0
 11 12  1  0  0  0  0
 12 13  2  0  0  0  0
 12 32  1  0  0  0  0
 13 14  1  0  0  0  0
 13 33  1  0  0  0  0
 15 20  1  0  0  0  0
 15 16  1  0  0  0  0
 15 42  1  0  0  0  0
 16 17  1  0  0  0  0
 16 34  1  0  0  0  0
 16 35  1  0  0  0  0
 17 18  1  0  0  0  0
 17 36  1  0  0  0  0
 17 37  1  0  0  0  0
 18 19  1  0  0  0  0
 19 20  1  0  0  0  0
 19 38  1  0  0  0  0
 19 39  1  0  0  0  0
 20 40  1  0  0  0  0
 20 41  1  0  0  0  0
M  CHG  1   9  -1
M  CHG  1  15   1
M  END
> <s_m_source_file>
AV-unprocessed.smi

> <i_m_source_file_index>
845

> <i_lp_mmshare_version>
43012

> <i_f3d_flags>
0

> <s_epik_input>
W0NIMl0xW0NIMl1PW0NIMl1bQ0gyXU4xW0NASF0oW0NIXShbQ0gzXSlbQ0gzXSlbQ0gyXVtOSF1DKD1PKVtOSF1jMm5bY0hdW2NIXXMy

> <s_epik_cmdline>
J2VwaWtfcHl0aG9uJywgJy1waCcsICc3LjAnLCAnLXRuJywgJzgnLCAnLW1hJywgJzIwMCcsICctbWV0YWxfYmluZGluZycsICctaW1hZScsICc8aW5maWxlLm1hZT4nLCAnLW9tYWUnLCAnPG91dGZpbGUubWFlPic=

> <r_lp_tautomer_probability>
0.999

> <r_epik_Ionization_Penalty>
7.97104

> <r_epik_Ionization_Penalty_Charging>
6.58021

> <r_epik_Ionization_Penalty_Neutral>
1.39083

> <r_epik_State_Penalty>
6.69807

> <r_epik_Charging_Adjusted_Penalty>
13.2783

> <i_epik_Tot_Q>
0

> <i_epik_Tot_abs_Q>
2

> <r_epik_Metal_State_Penalty>
2.62985

> <b_epik_Metal_Only>
1

> <s_lp_Force_Field>
OPLS_2005

> <r_lp_Energy>
19.9677

> <b_lp_Chiralities_Consistent>
1

> <s_lp_Variant>
AV-unprocessed.smi:845-6

> <Gold.Version>
5.8.1

> <Gold.Id.Protein>
6NUR|6NUR_protein|mol2

> <Gold.PLP.Fitness>
43.9662

> <Gold.PLP.PLP>
-29.2735

> <Gold.PLP.part.hbond>
-4.0000

> <Gold.PLP.part.metal>
0.0000

> <Gold.PLP.part.buried>
-3.8899

> <Gold.PLP.part.nonpolar>
-21.5145

> <Gold.PLP.part.repulsive>
0.2140

> <Gold.PLP.ligand.clash>
0.0000

> <Gold.PLP.ligand.torsion>
0.4617

> <Gold.PLP.Chemscore.Hbond>
5.0720

> <Gold.PLP.Chemscore.CHOScore>
0.0000

> <Gold.PLP.Chemscore.Metal>
0.0000

> <Gold.Chemscore.Hbonds>
donor molecule, donor type, donor heavy atom, donor atom, acceptor molecule, acceptor atom, score
      P1  H  6931  6943       L1     9  1.32
      P1  H  6934  6947       L1     9  1.57

> <Gold.PLP.Chemscore.Internal.Correction>
0.4000

> <Gold.Rescore>
     Score         DG    S(hbond)    S(metal)    S(lipo)     H(rot)  DE(clash)    DE(int)     intcor
     15.95     -17.90       2.80        0.00      64.90       1.76       0.00       1.95       ----

> <Gold.Chemscore.Fitness>
15.9492

> <Gold.Chemscore.DG>
-17.8983

> <Gold.Chemscore.ZeroCoef>
-5.4800

> <Gold.Chemscore.Hbond>
2.7955

> <Gold.Chemscore.Metal>
0.0000

> <Gold.Chemscore.Lipo>
64.8962

> <Gold.Chemscore.Internal_Hbond>
0.0000

> <Gold.Chemscore.DEClash>
0.0021

> <Gold.Chemscore.DEInternal>
1.9469

> <Gold.Chemscore.Rot>
1.7623

> <Gold.Chemscore.Internal.Correction>
   9.000000E+99

> <Gold.Chemscore.Hbonds>
donor molecule, donor type, donor heavy atom, donor atom, acceptor molecule, acceptor atom, score
      P1  H  6931  6943       L1     9  0.39
      P1  H  6934  6947       L1     9  0.29

> <Gold.Chemscore.Hbond.Weighted>
-9.3370

> <Gold.Chemscore.Metal.Weighted>
-0.0000

> <Gold.Chemscore.Lipo.Weighted>
-7.5929

> <Gold.Chemscore.Internal_Hbond.Weighted>
0.0000

> <Gold.Chemscore.DEClash.Weighted>
0.0021

> <Gold.Chemscore.DEInternal.Weighted>
1.9469

> <Gold.Chemscore.Rot.Weighted>
4.5116

> <Gold.Chemscore.Internal.Correction.Weighted>
   9.000000E+99

> <Gold.Protein.RotatedTorsions>
[ 6907 6896 6895 6894 ] final   40.93 input  -60.11 | X-H torsion
[ 7974 7965 7964 7962 ] final   -3.16 input  175.53 | X-H torsion
[ 8008 7997 7996 7995 ] final  144.95 input   59.86 | X-H torsion
[ 10167 10162 10161 10158 ] final  -69.11 input  -65.29 | X-H torsion
[ 10718 10713 10712 10709 ] final   30.79 input   66.30 | X-H torsion
[ 10763 10752 10751 10750 ] final  133.13 input  -60.55 | X-H torsion
[ 11005 11000 10999 10996 ] final  178.34 input  -57.11 | X-H torsion

> <Gold.Protein.ActiveResidues>
 VAL166  LYS551  ARG553  GLY616  TRP617  ASP618  TYR619  PRO620  LYS621  CYS622 
 ASP623  PHE694  ASN695  SER759  ASP760  ASP761  ALA762  ILE779  LEU786  VAL792 
 PHE793  MET794  SER795  GLU796  ALA797  LYS798  CYS799  TRP800  GLU811  SER814 

> <Gold.Protein.RotatedAtoms>
  152.1888  134.8690  160.0519 H   0  0  0  0  0  0  0  0  0  0  0  0  # atno 6907 bound_to 6896
  151.9586  133.3683  159.4035 H   0  0  0  0  0  0  0  0  0  0  0  0  # atno 6908 bound_to 6896
  150.6931  134.4188  159.5239 H   0  0  0  0  0  0  0  0  0  0  0  0  # atno 6909 bound_to 6896
  146.2394  140.1679  142.8332 H   0  0  0  0  0  0  0  0  0  0  0  0  # atno 7974 bound_to 7965
  156.2895  140.2222  156.5136 H   0  0  0  0  0  0  0  0  0  0  0  0  # atno 8008 bound_to 7997
  154.7588  140.0475  157.0977 H   0  0  0  0  0  0  0  0  0  0  0  0  # atno 8009 bound_to 7997
  155.0017  140.3102  155.4868 H   0  0  0  0  0  0  0  0  0  0  0  0  # atno 8010 bound_to 7997
  140.5456  143.2313  151.7008 H   0  0  0  0  0  0  0  0  0  0  0  0  # atno 10167 bound_to 10162
  157.2642  130.7176  149.6470 H   0  0  0  0  0  0  0  0  0  0  0  0  # atno 10718 bound_to 10713
  153.8021  135.3140  155.3391 H   0  0  0  0  0  0  0  0  0  0  0  0  # atno 10763 bound_to 10752
  154.8085  135.4682  154.0456 H   0  0  0  0  0  0  0  0  0  0  0  0  # atno 10764 bound_to 10752
  153.1808  135.6893  153.8568 H   0  0  0  0  0  0  0  0  0  0  0  0  # atno 10765 bound_to 10752
  140.3940  134.6837  157.4524 H   0  0  0  0  0  0  0  0  0  0  0  0  # atno 11005 bound_to 11000
  145.0035  140.8653  143.5267 LP  0  0  0  0  0  0  0  0  0  0  0  0  # atno 17320 bound_to 7965
  145.1702  139.2408  143.5346 LP  0  0  0  0  0  0  0  0  0  0  0  0  # atno 17321 bound_to 7965
  139.5006  144.3900  152.0289 LP  0  0  0  0  0  0  0  0  0  0  0  0  # atno 17342 bound_to 10162
  140.3013  144.3643  150.6059 LP  0  0  0  0  0  0  0  0  0  0  0  0  # atno 17343 bound_to 10162
  155.9663  130.4388  150.5232 LP  0  0  0  0  0  0  0  0  0  0  0  0  # atno 17370 bound_to 10713
  157.3142  131.0669  151.1979 LP  0  0  0  0  0  0  0  0  0  0  0  0  # atno 17371 bound_to 10713
  140.0385  134.6301  155.9011 LP  0  0  0  0  0  0  0  0  0  0  0  0  # atno 17394 bound_to 11000
  141.1881  133.6561  156.5309 LP  0  0  0  0  0  0  0  0  0  0  0  0  # atno 17395 bound_to 11000

$$$$
