AV-unprocessed.smi:3046|AV-procd|sdf|11613|dock6
  -GOLD-   2272016593D 1   1.00000     0.00000
 Structure written by MMmdl.
 38 38  0  0  0  0  0  0  0  0  2 V2000
  148.9773  138.8840  154.2672 C   0  0  0  0  0  0  0  0  0  0  0  0
  150.3107  138.7392  154.2462 C   0  0  0  0  0  0  0  0  0  0  0  0
  151.0355  137.4347  154.4982 C   0  0  0  0  0  0  0  0  0  0  0  0
  150.1110  136.3136  154.4168 N   0  0  0  0  0  0  0  0  0  0  0  0
  150.3675  135.0844  154.8878 C   0  0  0  0  0  0  0  0  0  0  0  0
  151.4232  134.7851  155.4474 O   0  0  0  0  0  0  0  0  0  0  0  0
  149.2593  134.0398  154.7080 C   0  0  2  0  0  0  0  0  0  0  0  0
  149.6412  132.7350  155.4297 C   0  0  0  0  0  0  0  0  0  0  0  0
  149.0104  133.7947  153.2674 N   0  3  0  0  0  0  0  0  0  0  0  0
  147.6888  133.2255  152.9191 C   0  0  2  0  0  0  0  0  0  0  0  0
  147.6729  131.7291  153.2725 C   0  0  0  0  0  0  0  0  0  0  0  0
  147.3587  133.4821  151.4299 C   0  0  0  0  0  0  0  0  0  0  0  0
  146.0608  132.9646  151.0357 N   0  0  0  0  0  0  0  0  0  0  0  0
  145.7757  131.8551  150.2676 C   0  0  0  0  0  0  0  0  0  0  0  0
  144.4171  131.7785  150.1538 C   0  0  0  0  0  0  0  0  0  0  0  0
  143.9520  132.9046  150.8887 C   0  0  0  0  0  0  0  0  0  0  0  0
  144.9386  133.6154  151.4114 N   0  0  0  0  0  0  0  0  0  0  0  0
  148.3236  138.0478  154.4688 H   0  0  0  0  0  0  0  0  0  0  0  0
  148.5211  139.8455  154.0824 H   0  0  0  0  0  0  0  0  0  0  0  0
  150.9299  139.6013  154.0449 H   0  0  0  0  0  0  0  0  0  0  0  0
  151.8196  137.3205  153.7487 H   0  0  0  0  0  0  0  0  0  0  0  0
  151.5161  137.4513  155.4778 H   0  0  0  0  0  0  0  0  0  0  0  0
  149.2182  136.4861  153.9772 H   0  0  0  0  0  0  0  0  0  0  0  0
  148.3543  134.4436  155.1627 H   0  0  0  0  0  0  0  0  0  0  0  0
  149.8448  132.9117  156.4867 H   0  0  0  0  0  0  0  0  0  0  0  0
  150.5327  132.2828  154.9926 H   0  0  0  0  0  0  0  0  0  0  0  0
  148.8396  131.9983  155.3791 H   0  0  0  0  0  0  0  0  0  0  0  0
  149.1089  134.6707  152.7741 H   0  0  0  0  0  0  0  0  0  0  0  0
  146.9321  133.7089  153.5375 H   0  0  0  0  0  0  0  0  0  0  0  0
  146.6897  131.2873  153.1086 H   0  0  0  0  0  0  0  0  0  0  0  0
  147.9233  131.5727  154.3222 H   0  0  0  0  0  0  0  0  0  0  0  0
  148.3925  131.1714  152.6719 H   0  0  0  0  0  0  0  0  0  0  0  0
  147.3724  134.5479  151.2021 H   0  0  0  0  0  0  0  0  0  0  0  0
  148.1172  133.0218  150.7952 H   0  0  0  0  0  0  0  0  0  0  0  0
  146.5533  131.2184  149.8714 H   0  0  0  0  0  0  0  0  0  0  0  0
  143.8429  131.0334  149.6232 H   0  0  0  0  0  0  0  0  0  0  0  0
  142.9341  133.2257  151.0548 H   0  0  0  0  0  0  0  0  0  0  0  0
  149.7317  133.1684  152.9392 H   0  0  0  0  0  0  0  0  0  0  0  0
  1  2  2  0  0  0  0
  1 18  1  0  0  0  0
  1 19  1  0  0  0  0
  2  3  1  0  0  0  0
  2 20  1  0  0  0  0
  3  4  1  0  0  0  0
  3 21  1  0  0  0  0
  3 22  1  0  0  0  0
  4  5  1  0  0  0  0
  4 23  1  0  0  0  0
  5  6  2  0  0  0  0
  5  7  1  0  0  0  0
  7  8  1  0  0  0  0
  7  9  1  0  0  0  0
  7 24  1  0  0  0  0
  8 25  1  0  0  0  0
  8 26  1  0  0  0  0
  8 27  1  0  0  0  0
  9 10  1  0  0  0  0
  9 28  1  0  0  0  0
  9 38  1  0  0  0  0
 10 11  1  0  0  0  0
 10 12  1  0  0  0  0
 10 29  1  0  0  0  0
 11 30  1  0  0  0  0
 11 31  1  0  0  0  0
 11 32  1  0  0  0  0
 12 13  1  0  0  0  0
 12 33  1  0  0  0  0
 12 34  1  0  0  0  0
 13 17  1  0  0  0  0
 13 14  1  0  0  0  0
 14 15  2  0  0  0  0
 14 35  1  0  0  0  0
 15 16  1  0  0  0  0
 15 36  1  0  0  0  0
 16 17  2  0  0  0  0
 16 37  1  0  0  0  0
M  CHG  1   9   1
M  END
> <s_m_source_file>
AV-unprocessed.smi

> <i_m_source_file_index>
3046

> <i_lp_mmshare_version>
43012

> <i_f3d_flags>
0

> <s_epik_input>
W0NIMl09W0NIXVtDSDJdW05IXUMoPU8pW0NASF0oW0NIM10pW05IXVtDQEhdKFtDSDNdKVtDSDJdbjFbY0hdW2NIXVtjSF1uMQ==

> <s_epik_cmdline>
J2VwaWtfcHl0aG9uJywgJy1waCcsICc3LjAnLCAnLXRuJywgJzgnLCAnLW1hJywgJzIwMCcsICctbWV0YWxfYmluZGluZycsICctaW1hZScsICc8aW5maWxlLm1hZT4nLCAnLW9tYWUnLCAnPG91dGZpbGUubWFlPic=

> <r_lp_tautomer_probability>
1

> <r_epik_Ionization_Penalty>
0.132961

> <r_epik_Ionization_Penalty_Charging>
0.132956

> <r_epik_Ionization_Penalty_Neutral>
5.00268e-06

> <r_epik_State_Penalty>
0.122332

> <r_epik_Charging_Adjusted_Penalty>
0.255288

> <i_epik_Tot_Q>
1

> <i_epik_Tot_abs_Q>
1

> <r_epik_Metal_State_Penalty>
0.122338

> <b_epik_Metal_Only>
0

> <s_lp_Force_Field>
OPLS_2005

> <r_lp_Energy>
6.28532

> <b_lp_Chiralities_Consistent>
1

> <s_lp_Variant>
AV-unprocessed.smi:3046-1

> <Gold.Version>
5.8.1

> <Gold.Id.Protein>
6NUR|6NUR_protein|mol2

> <Gold.PLP.Fitness>
43.0882

> <Gold.PLP.PLP>
-31.9643

> <Gold.PLP.part.hbond>
-3.4491

> <Gold.PLP.part.metal>
0.0000

> <Gold.PLP.part.buried>
-0.2844

> <Gold.PLP.part.nonpolar>
-26.9341

> <Gold.PLP.part.repulsive>
0.2250

> <Gold.PLP.ligand.clash>
0.0000

> <Gold.PLP.ligand.torsion>
0.7764

> <Gold.PLP.Chemscore.Hbond>
2.2205

> <Gold.PLP.Chemscore.CHOScore>
1.9882

> <Gold.PLP.Chemscore.Metal>
0.0000

> <Gold.Chemscore.Hbonds>
donor molecule, donor type, donor heavy atom, donor atom, acceptor molecule, acceptor atom, score
      L1  H     4    23       P1  7948  0.31
      L1  H     9    28       P1  7948  0.50
      P1  H 10752 10764       L1     6  0.75
      L1  C    14    35       P1 10747  1.00
      L1  C    16    37       P1 10186  0.54

> <Gold.PLP.Chemscore.Internal.Correction>
0.0507

> <Gold.Rescore>
     Score         DG    S(hbond)    S(metal)    S(lipo)     H(rot)  DE(clash)    DE(int)     intcor
     11.83     -13.05       1.24        0.00      78.93       2.26       0.49       0.74       ----

> <Gold.Chemscore.Fitness>
11.8255

> <Gold.Chemscore.DG>
-13.0530

> <Gold.Chemscore.ZeroCoef>
-5.4800

> <Gold.Chemscore.Hbond>
1.2366

> <Gold.Chemscore.Metal>
0.0000

> <Gold.Chemscore.Lipo>
78.9296

> <Gold.Chemscore.Internal_Hbond>
0.0000

> <Gold.Chemscore.DEClash>
0.4924

> <Gold.Chemscore.DEInternal>
0.7351

> <Gold.Chemscore.Rot>
2.2626

> <Gold.Chemscore.Internal.Correction>
   9.000000E+99

> <Gold.Chemscore.Hbonds>
donor molecule, donor type, donor heavy atom, donor atom, acceptor molecule, acceptor atom, score
      L1  H     4    23       P1  7948  0.29
      P1  H 10752 10764       L1     6  0.74

> <Gold.Chemscore.Hbond.Weighted>
-4.1304

> <Gold.Chemscore.Metal.Weighted>
-0.0000

> <Gold.Chemscore.Lipo.Weighted>
-9.2348

> <Gold.Chemscore.Internal_Hbond.Weighted>
0.0000

> <Gold.Chemscore.DEClash.Weighted>
0.4924

> <Gold.Chemscore.DEInternal.Weighted>
0.7351

> <Gold.Chemscore.Rot.Weighted>
5.7922

> <Gold.Chemscore.Internal.Correction.Weighted>
   9.000000E+99

> <Gold.Protein.RotatedTorsions>
[ 6907 6896 6895 6894 ] final -152.52 input  -60.11 | X-H torsion
[ 7974 7965 7964 7962 ] final -105.44 input  175.53 | X-H torsion
[ 8008 7997 7996 7995 ] final   -7.61 input   59.86 | X-H torsion
[ 10167 10162 10161 10158 ] final -101.43 input  -65.29 | X-H torsion
[ 10718 10713 10712 10709 ] final   57.67 input   66.30 | X-H torsion
[ 10763 10752 10751 10750 ] final  -43.24 input  -60.55 | X-H torsion
[ 11005 11000 10999 10996 ] final  -94.72 input  -57.11 | X-H torsion

> <Gold.Protein.ActiveResidues>
 VAL166  LYS551  ARG553  GLY616  TRP617  ASP618  TYR619  PRO620  LYS621  CYS622 
 ASP623  PHE694  ASN695  SER759  ASP760  ASP761  ALA762  ILE779  LEU786  VAL792 
 PHE793  MET794  SER795  GLU796  ALA797  LYS798  CYS799  TRP800  GLU811  SER814 

> <Gold.Protein.RotatedAtoms>
  151.2290  133.4460  159.2602 H   0  0  0  0  0  0  0  0  0  0  0  0  # atno 6907 bound_to 6896
  151.0812  134.9859  159.8367 H   0  0  0  0  0  0  0  0  0  0  0  0  # atno 6908 bound_to 6896
  152.5424  134.2230  159.8848 H   0  0  0  0  0  0  0  0  0  0  0  0  # atno 6909 bound_to 6896
  145.2304  140.9168  143.3208 H   0  0  0  0  0  0  0  0  0  0  0  0  # atno 7974 bound_to 7965
  154.5821  140.2402  155.8039 H   0  0  0  0  0  0  0  0  0  0  0  0  # atno 8008 bound_to 7997
  156.2187  140.3004  155.9856 H   0  0  0  0  0  0  0  0  0  0  0  0  # atno 8009 bound_to 7997
  155.2522  140.0411  157.2978 H   0  0  0  0  0  0  0  0  0  0  0  0  # atno 8010 bound_to 7997
  140.2414  143.3536  152.0798 H   0  0  0  0  0  0  0  0  0  0  0  0  # atno 10167 bound_to 10162
  157.5534  130.8782  149.8997 H   0  0  0  0  0  0  0  0  0  0  0  0  # atno 10718 bound_to 10713
  153.9923  135.6704  153.4754 H   0  0  0  0  0  0  0  0  0  0  0  0  # atno 10763 bound_to 10752
  153.0699  135.4980  154.8279 H   0  0  0  0  0  0  0  0  0  0  0  0  # atno 10764 bound_to 10752
  154.7102  135.3096  154.9171 H   0  0  0  0  0  0  0  0  0  0  0  0  # atno 10765 bound_to 10752
  141.1462  133.7976  157.0337 H   0  0  0  0  0  0  0  0  0  0  0  0  # atno 11005 bound_to 11000
  144.9681  139.3908  143.6322 LP  0  0  0  0  0  0  0  0  0  0  0  0  # atno 17320 bound_to 7965
  146.3354  139.8766  142.8831 LP  0  0  0  0  0  0  0  0  0  0  0  0  # atno 17321 bound_to 7965
  139.5076  144.6835  151.5947 LP  0  0  0  0  0  0  0  0  0  0  0  0  # atno 17342 bound_to 10162
  140.6111  143.9435  150.6454 LP  0  0  0  0  0  0  0  0  0  0  0  0  # atno 17343 bound_to 10162
  156.0596  130.3702  150.1011 LP  0  0  0  0  0  0  0  0  0  0  0  0  # atno 17370 bound_to 10713
  156.9182  130.9674  151.3552 LP  0  0  0  0  0  0  0  0  0  0  0  0  # atno 17371 bound_to 10713
  140.0737  134.9687  157.1510 LP  0  0  0  0  0  0  0  0  0  0  0  0  # atno 17394 bound_to 11000
  140.3674  134.2428  155.7181 LP  0  0  0  0  0  0  0  0  0  0  0  0  # atno 17395 bound_to 11000

$$$$
