AV-unprocessed.smi:648|AV-procd|sdf|3175|dock3
  -GOLD-   22720 0103D 1   1.00000     0.00000
 Structure written by MMmdl.
 45 46  0  0  0  0  0  0  0  0  1 V2000
  141.8983  134.8456  153.1995 C   0  0  0  0  0  0  0  0  0  0  0  0
  143.3592  134.4852  152.8914 C   0  0  1  0  0  0  0  0  0  0  0  0
  143.4621  133.6558  151.5971 C   0  0  0  0  0  0  0  0  0  0  0  0
  144.9080  133.2425  151.2355 C   0  0  0  0  0  0  0  0  0  0  0  0
  145.3801  132.0693  152.1255 C   0  0  0  0  0  0  0  0  0  0  0  0
  144.9138  132.7144  149.7837 C   0  0  0  0  0  0  0  0  0  0  0  0
  145.8581  134.4787  151.2962 C   0  0  0  0  0  0  0  0  0  0  0  0
  145.7304  135.4493  152.5136 C   0  0  1  0  0  0  0  0  0  0  0  0
  146.4154  134.8471  153.7713 C   0  0  0  0  0  0  0  0  0  0  0  0
  147.7849  134.5654  153.5512 O   0  0  0  0  0  0  0  0  0  0  0  0
  146.4841  136.6918  152.2269 N   0  0  0  0  0  0  0  0  0  0  0  0
  146.2462  137.8937  153.0354 C   0  0  0  0  0  0  0  0  0  0  0  0
  146.7870  139.1377  152.3181 C   0  0  0  0  0  0  0  0  0  0  0  0
  147.3151  140.1093  153.2553 N   0  0  0  0  0  0  0  0  0  0  0  0
  148.3273  140.0194  154.1195 C   0  0  0  0  0  0  0  0  0  0  0  0
  148.5293  141.1242  154.8243 N   0  0  0  0  0  0  0  0  0  0  0  0
  147.5374  141.9090  154.3064 C   0  0  0  0  0  0  0  0  0  0  0  0
  146.7817  141.3490  153.3616 N   0  0  0  0  0  0  0  0  0  0  0  0
  144.2262  135.7510  152.7688 C   0  0  0  0  0  0  0  0  0  0  0  0
  141.4619  135.4510  152.4044 H   0  0  0  0  0  0  0  0  0  0  0  0
  141.8209  135.4111  154.1284 H   0  0  0  0  0  0  0  0  0  0  0  0
  141.2871  133.9493  153.3088 H   0  0  0  0  0  0  0  0  0  0  0  0
  143.7169  133.8892  153.7298 H   0  0  0  0  0  0  0  0  0  0  0  0
  142.8338  132.7673  151.6749 H   0  0  0  0  0  0  0  0  0  0  0  0
  143.0416  134.2444  150.7801 H   0  0  0  0  0  0  0  0  0  0  0  0
  146.4533  131.9012  152.0305 H   0  0  0  0  0  0  0  0  0  0  0  0
  144.8838  131.1403  151.8420 H   0  0  0  0  0  0  0  0  0  0  0  0
  145.1514  132.2049  153.1785 H   0  0  0  0  0  0  0  0  0  0  0  0
  145.9125  132.3976  149.4812 H   0  0  0  0  0  0  0  0  0  0  0  0
  144.5841  133.4742  149.0740 H   0  0  0  0  0  0  0  0  0  0  0  0
  144.2487  131.8581  149.6660 H   0  0  0  0  0  0  0  0  0  0  0  0
  146.8943  134.1538  151.1919 H   0  0  0  0  0  0  0  0  0  0  0  0
  145.6580  135.0473  150.3906 H   0  0  0  0  0  0  0  0  0  0  0  0
  146.3806  135.5133  154.6244 H   0  0  0  0  0  0  0  0  0  0  0  0
  145.9161  133.9272  154.0789 H   0  0  0  0  0  0  0  0  0  0  0  0
  148.1148  135.1702  152.9042 H   0  0  0  0  0  0  0  0  0  0  0  0
  147.4775  136.4821  152.2120 H   0  0  0  0  0  0  0  0  0  0  0  0
  145.1866  138.0352  153.2397 H   0  0  0  0  0  0  0  0  0  0  0  0
  146.7504  137.8118  153.9977 H   0  0  0  0  0  0  0  0  0  0  0  0
  147.5820  138.8616  151.6239 H   0  0  0  0  0  0  0  0  0  0  0  0
  146.0011  139.6137  151.7299 H   0  0  0  0  0  0  0  0  0  0  0  0
  148.9275  139.1287  154.2360 H   0  0  0  0  0  0  0  0  0  0  0  0
  147.3682  142.9238  154.6351 H   0  0  0  0  0  0  0  0  0  0  0  0
  143.8122  136.3296  151.9436 H   0  0  0  0  0  0  0  0  0  0  0  0
  144.1057  136.3752  153.6548 H   0  0  0  0  0  0  0  0  0  0  0  0
  1  2  1  0  0  0  0
  1 20  1  0  0  0  0
  1 21  1  0  0  0  0
  1 22  1  0  0  0  0
  2 19  1  0  0  0  0
  2  3  1  0  0  0  0
  2 23  1  0  0  0  0
  3  4  1  0  0  0  0
  3 24  1  0  0  0  0
  3 25  1  0  0  0  0
  4  5  1  0  0  0  0
  4  6  1  0  0  0  0
  4  7  1  0  0  0  0
  5 26  1  0  0  0  0
  5 27  1  0  0  0  0
  5 28  1  0  0  0  0
  6 29  1  0  0  0  0
  6 30  1  0  0  0  0
  6 31  1  0  0  0  0
  7  8  1  0  0  0  0
  7 32  1  0  0  0  0
  7 33  1  0  0  0  0
  8  9  1  0  0  0  0
  8 11  1  0  0  0  0
  8 19  1  0  0  0  0
  9 10  1  0  0  0  0
  9 34  1  0  0  0  0
  9 35  1  0  0  0  0
 10 36  1  0  0  0  0
 11 12  1  0  0  0  0
 11 37  1  0  0  0  0
 12 13  1  0  0  0  0
 12 38  1  0  0  0  0
 12 39  1  0  0  0  0
 13 14  1  0  0  0  0
 13 40  1  0  0  0  0
 13 41  1  0  0  0  0
 14 18  1  0  0  0  0
 14 15  1  0  0  0  0
 15 16  2  0  0  0  0
 15 42  1  0  0  0  0
 16 17  1  0  0  0  0
 17 18  2  0  0  0  0
 17 43  1  0  0  0  0
 19 44  1  0  0  0  0
 19 45  1  0  0  0  0
M  END
> <s_m_source_file>
AV-unprocessed.smi

> <i_m_source_file_index>
648

> <i_lp_mmshare_version>
43012

> <i_f3d_flags>
0

> <s_epik_input>
W0NIM11DMShbQ0gzXSlbQ0gyXVtDQEBIXShbQ0gzXSlbQ0gyXVtDQF0oW0NIMl0xKShbQ0gyXVtPSF0pW05IXVtDSDJdW0NIMl1uMltjSF1uW2NIXW4y

> <s_epik_cmdline>
J2VwaWtfcHl0aG9uJywgJy1waCcsICc3LjAnLCAnLXRuJywgJzgnLCAnLW1hJywgJzIwMCcsICctbWV0YWxfYmluZGluZycsICctaW1hZScsICc8aW5maWxlLm1hZT4nLCAnLW9tYWUnLCAnPG91dGZpbGUubWFlPic=

> <r_lp_tautomer_probability>
1

> <r_epik_Ionization_Penalty>
2.45849

> <r_epik_Ionization_Penalty_Charging>
0

> <r_epik_Ionization_Penalty_Neutral>
2.45849

> <r_epik_State_Penalty>
2.62037

> <r_epik_Charging_Adjusted_Penalty>
2.62037

> <i_epik_Tot_Q>
0

> <i_epik_Tot_abs_Q>
0

> <r_epik_Metal_State_Penalty>
2.62024

> <b_epik_Metal_Only>
0

> <s_lp_Force_Field>
OPLS_2005

> <r_lp_Energy>
36.0578

> <b_lp_Chiralities_Consistent>
1

> <s_lp_Variant>
AV-unprocessed.smi:648-6

> <Gold.Version>
5.8.1

> <Gold.Id.Protein>
6NUR|6NUR_protein|mol2

> <Gold.PLP.Fitness>
41.6949

> <Gold.PLP.PLP>
-33.6383

> <Gold.PLP.part.hbond>
-2.0000

> <Gold.PLP.part.metal>
0.0000

> <Gold.PLP.part.buried>
-2.9207

> <Gold.PLP.part.nonpolar>
-28.7753

> <Gold.PLP.part.repulsive>
0.3287

> <Gold.PLP.ligand.clash>
0.0000

> <Gold.PLP.ligand.torsion>
0.5064

> <Gold.PLP.Chemscore.Hbond>
2.0000

> <Gold.PLP.Chemscore.CHOScore>
1.0000

> <Gold.PLP.Chemscore.Metal>
0.0000

> <Gold.Chemscore.Hbonds>
donor molecule, donor type, donor heavy atom, donor atom, acceptor molecule, acceptor atom, score
      L1  H    10    36       P1  7948  1.00
      L1  H    11    37       P1  7948  0.99
      L1  C    17    43       P1  8028  1.00

> <Gold.PLP.Chemscore.Internal.Correction>
0.0694

> <Gold.Rescore>
     Score         DG    S(hbond)    S(metal)    S(lipo)     H(rot)  DE(clash)    DE(int)     intcor
     12.01     -12.43       1.98        0.00      71.25       3.12       0.01       0.41       ----

> <Gold.Chemscore.Fitness>
12.0125

> <Gold.Chemscore.DG>
-12.4315

> <Gold.Chemscore.ZeroCoef>
-5.4800

> <Gold.Chemscore.Hbond>
1.9754

> <Gold.Chemscore.Metal>
0.0000

> <Gold.Chemscore.Lipo>
71.2529

> <Gold.Chemscore.Internal_Hbond>
0.0000

> <Gold.Chemscore.DEClash>
0.0106

> <Gold.Chemscore.DEInternal>
0.4084

> <Gold.Chemscore.Rot>
3.1183

> <Gold.Chemscore.Internal.Correction>
   9.000000E+99

> <Gold.Chemscore.Hbonds>
donor molecule, donor type, donor heavy atom, donor atom, acceptor molecule, acceptor atom, score
      L1  H    10    36       P1  7948  0.98
      L1  H    11    37       P1  7948  0.92

> <Gold.Chemscore.Hbond.Weighted>
-6.5978

> <Gold.Chemscore.Metal.Weighted>
-0.0000

> <Gold.Chemscore.Lipo.Weighted>
-8.3366

> <Gold.Chemscore.Internal_Hbond.Weighted>
0.0000

> <Gold.Chemscore.DEClash.Weighted>
0.0106

> <Gold.Chemscore.DEInternal.Weighted>
0.4084

> <Gold.Chemscore.Rot.Weighted>
7.9829

> <Gold.Chemscore.Internal.Correction.Weighted>
   9.000000E+99

> <Gold.Protein.RotatedTorsions>
[ 6907 6896 6895 6894 ] final   78.47 input  -60.11 | X-H torsion
[ 7974 7965 7964 7962 ] final  -50.85 input  175.53 | X-H torsion
[ 8008 7997 7996 7995 ] final -151.62 input   59.86 | X-H torsion
[ 10167 10162 10161 10158 ] final  -57.75 input  -65.29 | X-H torsion
[ 10718 10713 10712 10709 ] final  -13.68 input   66.30 | X-H torsion
[ 10763 10752 10751 10750 ] final    7.60 input  -60.55 | X-H torsion
[ 11005 11000 10999 10996 ] final   28.06 input  -57.11 | X-H torsion

> <Gold.Protein.ActiveResidues>
 VAL166  LYS551  ARG553  GLY616  TRP617  ASP618  TYR619  PRO620  LYS621  CYS622 
 ASP623  PHE694  ASN695  SER759  ASP760  ASP761  ALA762  ILE779  LEU786  VAL792 
 PHE793  MET794  SER795  GLU796  ALA797  LYS798  CYS799  TRP800  GLU811  SER814 

> <Gold.Protein.RotatedAtoms>
  152.5160  134.3659  159.9300 H   0  0  0  0  0  0  0  0  0  0  0  0  # atno 6907 bound_to 6896
  151.3613  133.3882  159.2697 H   0  0  0  0  0  0  0  0  0  0  0  0  # atno 6908 bound_to 6896
  150.9650  134.9051  159.7812 H   0  0  0  0  0  0  0  0  0  0  0  0  # atno 6909 bound_to 6896
  145.9253  140.7797  142.9627 H   0  0  0  0  0  0  0  0  0  0  0  0  # atno 7974 bound_to 7965
  155.6423  140.0703  157.2614 H   0  0  0  0  0  0  0  0  0  0  0  0  # atno 8008 bound_to 7997
  154.4181  140.1748  156.1636 H   0  0  0  0  0  0  0  0  0  0  0  0  # atno 8009 bound_to 7997
  155.9845  140.3351  155.6697 H   0  0  0  0  0  0  0  0  0  0  0  0  # atno 8010 bound_to 7997
  140.6239  143.2430  151.5412 H   0  0  0  0  0  0  0  0  0  0  0  0  # atno 10167 bound_to 10162
  156.6268  130.4890  149.6144 H   0  0  0  0  0  0  0  0  0  0  0  0  # atno 10718 bound_to 10713
  153.2344  135.6896  153.7853 H   0  0  0  0  0  0  0  0  0  0  0  0  # atno 10763 bound_to 10752
  153.7006  135.3298  155.3224 H   0  0  0  0  0  0  0  0  0  0  0  0  # atno 10764 bound_to 10752
  154.8328  135.4567  154.1242 H   0  0  0  0  0  0  0  0  0  0  0  0  # atno 10765 bound_to 10752
  140.3196  134.2559  155.7719 H   0  0  0  0  0  0  0  0  0  0  0  0  # atno 11005 bound_to 11000
  144.6758  140.2041  143.7384 LP  0  0  0  0  0  0  0  0  0  0  0  0  # atno 17320 bound_to 7965
  145.8496  139.2169  143.1779 LP  0  0  0  0  0  0  0  0  0  0  0  0  # atno 17321 bound_to 7965
  139.5462  144.2514  152.1447 LP  0  0  0  0  0  0  0  0  0  0  0  0  # atno 17342 bound_to 10162
  140.1740  144.4908  150.6564 LP  0  0  0  0  0  0  0  0  0  0  0  0  # atno 17343 bound_to 10162
  156.2267  130.6769  151.1422 LP  0  0  0  0  0  0  0  0  0  0  0  0  # atno 17370 bound_to 10713
  157.7211  131.0680  150.6129 LP  0  0  0  0  0  0  0  0  0  0  0  0  # atno 17371 bound_to 10713
  141.2090  133.7762  157.0026 LP  0  0  0  0  0  0  0  0  0  0  0  0  # atno 17394 bound_to 11000
  140.0954  134.9568  157.1841 LP  0  0  0  0  0  0  0  0  0  0  0  0  # atno 17395 bound_to 11000

$$$$
