AV-unprocessed.smi:132|AV-procd|sdf|1163|dock1
  -GOLD-   2262018303D 1   1.00000     0.00000
 Structure written by MMmdl.
 41 44  0  0  0  0  0  0  0  0  1 V2000
  150.2833  140.1513  154.3792 O   0  0  0  0  0  0  0  0  0  0  0  0
  149.9198  138.9785  154.4817 C   0  0  0  0  0  0  0  0  0  0  0  0
  148.5320  138.5536  154.3331 C   0  0  0  0  0  0  0  0  0  0  0  0
  147.5789  139.4690  154.0894 F   0  0  0  0  0  0  0  0  0  0  0  0
  148.1870  137.2521  154.4353 C   0  0  0  0  0  0  0  0  0  0  0  0
  149.1028  136.2443  154.6821 N   0  0  0  0  0  0  0  0  0  0  0  0
  148.6497  134.8066  154.7703 C   0  0  2  0  0  0  0  0  0  0  0  0
  149.2961  133.9689  153.6587 C   0  0  0  0  0  0  0  0  0  0  0  0
  148.1508  133.7798  152.6849 C   0  0  0  0  0  0  0  0  0  0  0  0
  146.9451  133.7860  153.6159 C   0  0  0  0  0  0  0  0  0  0  0  0
  147.2637  134.7678  154.5935 O   0  0  0  0  0  0  0  0  0  0  0  0
  150.4715  136.5598  154.8283 C   0  0  0  0  0  0  0  0  0  0  0  0
  151.3145  135.6773  155.0061 O   0  0  0  0  0  0  0  0  0  0  0  0
  150.8319  137.9257  154.7422 N   0  0  0  0  0  0  0  0  0  0  0  0
  152.2396  138.2629  154.8876 C   0  0  0  0  0  0  0  0  0  0  0  0
  152.5844  138.6628  156.2925 C   0  0  0  0  0  0  0  0  0  0  0  0
  153.2315  137.9597  157.2268 N   0  0  0  0  0  0  0  0  0  0  0  0
  153.2957  138.7745  158.3332 N   0  0  0  0  0  0  0  0  0  0  0  0
  152.6874  139.9156  157.9919 C   0  0  0  0  0  0  0  0  0  0  0  0
  152.4882  141.1169  158.8021 C   0  0  0  0  0  0  0  0  0  0  0  0
  153.0891  141.2407  160.0761 C   0  0  0  0  0  0  0  0  0  0  0  0
  152.8879  142.4005  160.8497 C   0  0  0  0  0  0  0  0  0  0  0  0
  152.0851  143.4469  160.3572 C   0  0  0  0  0  0  0  0  0  0  0  0
  151.8379  144.8662  161.3065 Cl  0  0  0  0  0  0  0  0  0  0  0  0
  151.4841  143.3323  159.0893 C   0  0  0  0  0  0  0  0  0  0  0  0
  151.6849  142.1728  158.3152 C   0  0  0  0  0  0  0  0  0  0  0  0
  152.2180  139.8999  156.7149 O   0  0  0  0  0  0  0  0  0  0  0  0
  147.1455  136.9939  154.3146 H   0  0  0  0  0  0  0  0  0  0  0  0
  148.8871  134.4492  155.7728 H   0  0  0  0  0  0  0  0  0  0  0  0
  150.1686  134.4585  153.2239 H   0  0  0  0  0  0  0  0  0  0  0  0
  149.6027  133.0109  154.0804 H   0  0  0  0  0  0  0  0  0  0  0  0
  148.0989  134.6212  151.9931 H   0  0  0  0  0  0  0  0  0  0  0  0
  148.2330  132.8632  152.1005 H   0  0  0  0  0  0  0  0  0  0  0  0
  146.0134  134.0207  153.1009 H   0  0  0  0  0  0  0  0  0  0  0  0
  146.8334  132.8169  154.1047 H   0  0  0  0  0  0  0  0  0  0  0  0
  152.8424  137.4104  154.5729 H   0  0  0  0  0  0  0  0  0  0  0  0
  152.4710  139.0678  154.1881 H   0  0  0  0  0  0  0  0  0  0  0  0
  153.7081  140.4503  160.4744 H   0  0  0  0  0  0  0  0  0  0  0  0
  153.3504  142.4849  161.8221 H   0  0  0  0  0  0  0  0  0  0  0  0
  150.8674  144.1329  158.7080 H   0  0  0  0  0  0  0  0  0  0  0  0
  151.2158  142.1010  157.3448 H   0  0  0  0  0  0  0  0  0  0  0  0
  1  2  2  0  0  0  0
  2 14  1  0  0  0  0
  2  3  1  0  0  0  0
  3  4  1  0  0  0  0
  3  5  2  0  0  0  0
  5  6  1  0  0  0  0
  5 28  1  0  0  0  0
  6  7  1  0  0  0  0
  6 12  1  0  0  0  0
  7 11  1  0  0  0  0
  7  8  1  0  0  0  0
  7 29  1  0  0  0  0
  8  9  1  0  0  0  0
  8 30  1  0  0  0  0
  8 31  1  0  0  0  0
  9 10  1  0  0  0  0
  9 32  1  0  0  0  0
  9 33  1  0  0  0  0
 10 11  1  0  0  0  0
 10 34  1  0  0  0  0
 10 35  1  0  0  0  0
 12 13  2  0  0  0  0
 12 14  1  0  0  0  0
 14 15  1  0  0  0  0
 15 16  1  0  0  0  0
 15 36  1  0  0  0  0
 15 37  1  0  0  0  0
 16 27  1  0  0  0  0
 16 17  2  0  0  0  0
 17 18  1  0  0  0  0
 18 19  2  0  0  0  0
 19 20  1  0  0  0  0
 19 27  1  0  0  0  0
 20 26  1  0  0  0  0
 20 21  2  0  0  0  0
 21 22  1  0  0  0  0
 21 38  1  0  0  0  0
 22 23  2  0  0  0  0
 22 39  1  0  0  0  0
 23 24  1  0  0  0  0
 23 25  1  0  0  0  0
 25 26  2  0  0  0  0
 25 40  1  0  0  0  0
 26 41  1  0  0  0  0
M  END
> <s_m_source_file>
AV-unprocessed.smi

> <i_m_source_file_index>
132

> <i_lp_mmshare_version>
43012

> <i_f3d_flags>
0

> <s_epik_input>
TzFbQ0gyXVtDSDJdW0NIMl1bQ0BIXTFuKFtjSF1jKEYpYzI9TyljKD1PKW4yW0NIMl1jM25uYyhvMyktYzRbY0hdW2NIXWMoQ2wpW2NIXVtjSF00

> <s_epik_cmdline>
J2VwaWtfcHl0aG9uJywgJy1waCcsICc3LjAnLCAnLXRuJywgJzgnLCAnLW1hJywgJzIwMCcsICctbWV0YWxfYmluZGluZycsICctaW1hZScsICc8aW5maWxlLm1hZT4nLCAnLW9tYWUnLCAnPG91dGZpbGUubWFlPic=

> <r_lp_tautomer_probability>
1

> <r_epik_Ionization_Penalty>
2.5553e-09

> <r_epik_Ionization_Penalty_Charging>
2.54231e-09

> <r_epik_Ionization_Penalty_Neutral>
1.29923e-11

> <r_epik_State_Penalty>
-0

> <r_epik_Charging_Adjusted_Penalty>
2.54231e-09

> <i_epik_Tot_Q>
0

> <i_epik_Tot_abs_Q>
0

> <r_epik_Metal_State_Penalty>
-0

> <b_epik_Metal_Only>
0

> <s_epik_Chemistry_Notes>
This compound contains an acetal/aminal-like group ( X-CH(R)-Y where X, Y are N, S, or O) that may be acid/base labile, releasing an aldehyde.

> <s_lp_Force_Field>
OPLS_2005

> <r_lp_Energy>
32.6339

> <b_lp_Chiralities_Consistent>
1

> <s_lp_Variant>
AV-unprocessed.smi:132-1

> <Gold.Version>
5.8.1

> <Gold.Id.Protein>
6NUR|6NUR_protein|mol2

> <Gold.PLP.Fitness>
49.9718

> <Gold.PLP.PLP>
-45.0967

> <Gold.PLP.part.hbond>
-4.2852

> <Gold.PLP.part.metal>
0.0000

> <Gold.PLP.part.buried>
-1.5940

> <Gold.PLP.part.nonpolar>
-39.3778

> <Gold.PLP.part.repulsive>
0.8381

> <Gold.PLP.ligand.clash>
0.0000

> <Gold.PLP.ligand.torsion>
0.5844

> <Gold.PLP.Chemscore.Hbond>
2.0000

> <Gold.PLP.Chemscore.CHOScore>
0.0000

> <Gold.PLP.Chemscore.Metal>
0.0000

> <Gold.Chemscore.Hbonds>
donor molecule, donor type, donor heavy atom, donor atom, acceptor molecule, acceptor atom, score
      P1  H  7989  7998       L1     1  1.00
      P1  H 10752 10763       L1    13  0.86

> <Gold.PLP.Chemscore.Internal.Correction>
0.0440

> <Gold.Rescore>
     Score         DG    S(hbond)    S(metal)    S(lipo)     H(rot)  DE(clash)    DE(int)     intcor
     15.95     -19.62       1.97        0.00     101.85       1.70       2.01       1.66       ----

> <Gold.Chemscore.Fitness>
15.9488

> <Gold.Chemscore.DG>
-19.6233

> <Gold.Chemscore.ZeroCoef>
-5.4800

> <Gold.Chemscore.Hbond>
1.9681

> <Gold.Chemscore.Metal>
0.0000

> <Gold.Chemscore.Lipo>
101.8520

> <Gold.Chemscore.Internal_Hbond>
0.0000

> <Gold.Chemscore.DEClash>
2.0133

> <Gold.Chemscore.DEInternal>
1.6612

> <Gold.Chemscore.Rot>
1.6980

> <Gold.Chemscore.Internal.Correction>
   9.000000E+99

> <Gold.Chemscore.Hbonds>
donor molecule, donor type, donor heavy atom, donor atom, acceptor molecule, acceptor atom, score
      P1  H  7989  7998       L1     1  0.98
      P1  H 10752 10763       L1    13  0.87

> <Gold.Chemscore.Hbond.Weighted>
-6.5735

> <Gold.Chemscore.Metal.Weighted>
-0.0000

> <Gold.Chemscore.Lipo.Weighted>
-11.9167

> <Gold.Chemscore.Internal_Hbond.Weighted>
0.0000

> <Gold.Chemscore.DEClash.Weighted>
2.0133

> <Gold.Chemscore.DEInternal.Weighted>
1.6612

> <Gold.Chemscore.Rot.Weighted>
4.3469

> <Gold.Chemscore.Internal.Correction.Weighted>
   9.000000E+99

> <Gold.Protein.RotatedTorsions>
[ 6907 6896 6895 6894 ] final   75.71 input  -60.11 | X-H torsion
[ 7974 7965 7964 7962 ] final  -47.37 input  175.53 | X-H torsion
[ 8008 7997 7996 7995 ] final   49.94 input   59.86 | X-H torsion
[ 10167 10162 10161 10158 ] final  -50.56 input  -65.29 | X-H torsion
[ 10718 10713 10712 10709 ] final  137.78 input   66.30 | X-H torsion
[ 10763 10752 10751 10750 ] final   83.71 input  -60.55 | X-H torsion
[ 11005 11000 10999 10996 ] final -117.69 input  -57.11 | X-H torsion

> <Gold.Protein.ActiveResidues>
 VAL166  LYS551  ARG553  GLY616  TRP617  ASP618  TYR619  PRO620  LYS621  CYS622 
 ASP623  PHE694  ASN695  SER759  ASP760  ASP761  ALA762  ILE779  LEU786  VAL792 
 PHE793  MET794  SER795  GLU796  ALA797  LYS798  CYS799  TRP800  GLU811  SER814 

> <Gold.Protein.RotatedAtoms>
  152.5039  134.4079  159.9438 H   0  0  0  0  0  0  0  0  0  0  0  0  # atno 6907 bound_to 6896
  151.4046  133.3740  159.2744 H   0  0  0  0  0  0  0  0  0  0  0  0  # atno 6908 bound_to 6896
  150.9336  134.8771  159.7626 H   0  0  0  0  0  0  0  0  0  0  0  0  # atno 6909 bound_to 6896
  145.9623  140.7467  142.9451 H   0  0  0  0  0  0  0  0  0  0  0  0  # atno 7974 bound_to 7965
  155.4105  140.3442  155.4263 H   0  0  0  0  0  0  0  0  0  0  0  0  # atno 8008 bound_to 7997
  156.1452  140.1554  156.8890 H   0  0  0  0  0  0  0  0  0  0  0  0  # atno 8009 bound_to 7997
  154.5004  140.0816  156.7767 H   0  0  0  0  0  0  0  0  0  0  0  0  # atno 8010 bound_to 7997
  140.6631  143.2653  151.4377 H   0  0  0  0  0  0  0  0  0  0  0  0  # atno 10167 bound_to 10162
  157.4324  131.1050  151.0235 H   0  0  0  0  0  0  0  0  0  0  0  0  # atno 10718 bound_to 10713
  153.1315  135.4681  154.9356 H   0  0  0  0  0  0  0  0  0  0  0  0  # atno 10763 bound_to 10752
  154.7668  135.3147  154.8272 H   0  0  0  0  0  0  0  0  0  0  0  0  # atno 10764 bound_to 10752
  153.8813  135.6894  153.4820 H   0  0  0  0  0  0  0  0  0  0  0  0  # atno 10765 bound_to 10752
  141.0337  133.9942  157.3103 H   0  0  0  0  0  0  0  0  0  0  0  0  # atno 11005 bound_to 11000
  144.6818  140.2611  143.7319 LP  0  0  0  0  0  0  0  0  0  0  0  0  # atno 17320 bound_to 7965
  145.8023  139.1969  143.2041 LP  0  0  0  0  0  0  0  0  0  0  0  0  # atno 17321 bound_to 7965
  139.5872  144.1579  152.2043 LP  0  0  0  0  0  0  0  0  0  0  0  0  # atno 17342 bound_to 10162
  140.0922  144.5610  150.7046 LP  0  0  0  0  0  0  0  0  0  0  0  0  # atno 17343 bound_to 10162
  157.1127  130.6028  149.5486 LP  0  0  0  0  0  0  0  0  0  0  0  0  # atno 17370 bound_to 10713
  155.9918  130.4974  150.7314 LP  0  0  0  0  0  0  0  0  0  0  0  0  # atno 17371 bound_to 10713
  139.9226  135.0201  156.8118 LP  0  0  0  0  0  0  0  0  0  0  0  0  # atno 17394 bound_to 11000
  140.6360  133.9862  155.7684 LP  0  0  0  0  0  0  0  0  0  0  0  0  # atno 17395 bound_to 11000

$$$$
