AV-unprocessed.smi:590|AV-procd|sdf|3008|dock3
  -GOLD-   2262023513D 1   1.00000     0.00000
 Structure written by MMmdl.
 41 42  0  0  0  0  0  0  0  0  1 V2000
  148.9741  141.4946  155.9716 C   0  0  0  0  0  0  0  0  0  0  0  0
  149.6424  140.1574  155.8285 C   0  0  0  0  0  0  0  0  0  0  0  0
  149.6641  139.5595  154.6490 N   0  0  0  0  0  0  0  0  0  0  0  0
  150.3380  138.3502  154.8453 O   0  0  0  0  0  0  0  0  0  0  0  0
  150.6973  138.2658  156.1515 C   0  0  0  0  0  0  0  0  0  0  0  0
  151.4272  137.0343  156.5689 C   0  0  0  0  0  0  0  0  0  0  0  0
  150.2899  139.3803  156.8314 C   0  0  0  0  0  0  0  0  0  0  0  0
  150.4721  139.7103  158.2899 C   0  0  0  0  0  0  0  0  0  0  0  0
  151.9623  139.7307  158.6299 C   0  0  0  0  0  0  0  0  0  0  0  0
  152.7660  139.1506  157.9001 O   0  0  0  0  0  0  0  0  0  0  0  0
  152.3141  140.3987  159.7402 N   0  0  0  0  0  0  0  0  0  0  0  0
  153.6744  140.5419  160.2520 C   0  0  0  0  0  0  0  0  0  0  0  0
  153.9113  141.9173  160.9069 C   0  0  0  0  0  0  0  0  0  0  0  0
  152.9825  143.0139  160.4065 C   0  0  0  0  0  0  0  0  0  0  0  0
  152.1540  143.6779  161.2363 C   0  0  0  0  0  0  0  0  0  0  0  0
  151.2236  144.7957  160.7999 C   0  0  0  0  0  0  0  0  0  0  0  0
  151.5718  145.3359  159.4029 C   0  0  0  0  0  0  0  0  0  0  0  0
  151.8801  144.1925  158.4289 C   0  0  0  0  0  0  0  0  0  0  0  0
  153.0648  143.3416  158.9195 C   0  0  0  0  0  0  0  0  0  0  0  0
  149.6020  142.1869  156.5325 H   0  0  0  0  0  0  0  0  0  0  0  0
  148.0275  141.4001  156.5036 H   0  0  0  0  0  0  0  0  0  0  0  0
  148.7665  141.9490  155.0023 H   0  0  0  0  0  0  0  0  0  0  0  0
  151.1027  136.7088  157.5574 H   0  0  0  0  0  0  0  0  0  0  0  0
  152.5007  137.2178  156.6083 H   0  0  0  0  0  0  0  0  0  0  0  0
  151.2482  136.2162  155.8709 H   0  0  0  0  0  0  0  0  0  0  0  0
  150.0502  140.6860  158.5333 H   0  0  0  0  0  0  0  0  0  0  0  0
  149.9537  138.9919  158.9263 H   0  0  0  0  0  0  0  0  0  0  0  0
  151.5808  140.8425  160.2740 H   0  0  0  0  0  0  0  0  0  0  0  0
  153.8270  139.7619  160.9982 H   0  0  0  0  0  0  0  0  0  0  0  0
  154.4094  140.3493  159.4695 H   0  0  0  0  0  0  0  0  0  0  0  0
  153.8032  141.8200  161.9880 H   0  0  0  0  0  0  0  0  0  0  0  0
  154.9404  142.2341  160.7350 H   0  0  0  0  0  0  0  0  0  0  0  0
  152.1148  143.4110  162.2822 H   0  0  0  0  0  0  0  0  0  0  0  0
  150.2047  144.4072  160.8102 H   0  0  0  0  0  0  0  0  0  0  0  0
  151.2632  145.6037  161.5308 H   0  0  0  0  0  0  0  0  0  0  0  0
  150.7524  145.9479  159.0246 H   0  0  0  0  0  0  0  0  0  0  0  0
  152.4412  145.9911  159.4718 H   0  0  0  0  0  0  0  0  0  0  0  0
  150.9965  143.5602  158.3285 H   0  0  0  0  0  0  0  0  0  0  0  0
  152.0916  144.5868  157.4346 H   0  0  0  0  0  0  0  0  0  0  0  0
  154.0016  143.8712  158.7444 H   0  0  0  0  0  0  0  0  0  0  0  0
  153.1102  142.4246  158.3330 H   0  0  0  0  0  0  0  0  0  0  0  0
  1  2  1  0  0  0  0
  1 20  1  0  0  0  0
  1 21  1  0  0  0  0
  1 22  1  0  0  0  0
  2  7  1  0  0  0  0
  2  3  2  0  0  0  0
  3  4  1  0  0  0  0
  4  5  1  0  0  0  0
  5  6  1  0  0  0  0
  5  7  2  0  0  0  0
  6 23  1  0  0  0  0
  6 24  1  0  0  0  0
  6 25  1  0  0  0  0
  7  8  1  0  0  0  0
  8  9  1  0  0  0  0
  8 26  1  0  0  0  0
  8 27  1  0  0  0  0
  9 10  2  0  0  0  0
  9 11  1  0  0  0  0
 11 12  1  0  0  0  0
 11 28  1  0  0  0  0
 12 13  1  0  0  0  0
 12 29  1  0  0  0  0
 12 30  1  0  0  0  0
 13 14  1  0  0  0  0
 13 31  1  0  0  0  0
 13 32  1  0  0  0  0
 14 19  1  0  0  0  0
 14 15  2  0  0  0  0
 15 16  1  0  0  0  0
 15 33  1  0  0  0  0
 16 17  1  0  0  0  0
 16 34  1  0  0  0  0
 16 35  1  0  0  0  0
 17 18  1  0  0  0  0
 17 36  1  0  0  0  0
 17 37  1  0  0  0  0
 18 19  1  0  0  0  0
 18 38  1  0  0  0  0
 18 39  1  0  0  0  0
 19 40  1  0  0  0  0
 19 41  1  0  0  0  0
M  END
> <s_m_source_file>
AV-unprocessed.smi

> <i_m_source_file_index>
590

> <i_lp_mmshare_version>
43012

> <i_f3d_flags>
0

> <s_epik_input>
W0NIM11jMW5vYyhbQ0gzXSljMVtDSDJdQyg9TylbTkhdW0NIMl1bQ0gyXUMyPVtDSF1bQ0gyXVtDSDJdW0NIMl1bQ0gyXTI=

> <s_epik_cmdline>
J2VwaWtfcHl0aG9uJywgJy1waCcsICc3LjAnLCAnLXRuJywgJzgnLCAnLW1hJywgJzIwMCcsICctbWV0YWxfYmluZGluZycsICctaW1hZScsICc8aW5maWxlLm1hZT4nLCAnLW9tYWUnLCAnPG91dGZpbGUubWFlPic=

> <r_lp_tautomer_probability>
1

> <r_epik_Ionization_Penalty>
1.93189e-08

> <r_epik_Ionization_Penalty_Charging>
0

> <r_epik_Ionization_Penalty_Neutral>
1.93189e-08

> <r_epik_State_Penalty>
-0

> <r_epik_Charging_Adjusted_Penalty>
0

> <i_epik_Tot_Q>
0

> <i_epik_Tot_abs_Q>
0

> <r_epik_Metal_State_Penalty>
-0

> <b_epik_Metal_Only>
0

> <s_lp_Force_Field>
OPLS_2005

> <r_lp_Energy>
2.22272

> <b_lp_Chiralities_Consistent>
1

> <s_lp_Variant>
AV-unprocessed.smi:590-1

> <Gold.Version>
5.8.1

> <Gold.Id.Protein>
6NUR|6NUR_protein|mol2

> <Gold.PLP.Fitness>
47.5394

> <Gold.PLP.PLP>
-42.8864

> <Gold.PLP.part.hbond>
-2.0000

> <Gold.PLP.part.metal>
0.0000

> <Gold.PLP.part.buried>
-2.9987

> <Gold.PLP.part.nonpolar>
-37.7157

> <Gold.PLP.part.repulsive>
0.9324

> <Gold.PLP.ligand.clash>
0.0000

> <Gold.PLP.ligand.torsion>
0.7002

> <Gold.PLP.Chemscore.Hbond>
2.0000

> <Gold.PLP.Chemscore.CHOScore>
0.0000

> <Gold.PLP.Chemscore.Metal>
0.0000

> <Gold.Chemscore.Hbonds>
donor molecule, donor type, donor heavy atom, donor atom, acceptor molecule, acceptor atom, score
      P1  H  7997  8008       L1    10  0.42

> <Gold.PLP.Chemscore.Internal.Correction>
0.0535

> <Gold.Rescore>
     Score         DG    S(hbond)    S(metal)    S(lipo)     H(rot)  DE(clash)    DE(int)     intcor
     17.52     -19.39       1.00        0.00     124.28       1.55       0.05       1.82       ----

> <Gold.Chemscore.Fitness>
17.5161

> <Gold.Chemscore.DG>
-19.3936

> <Gold.Chemscore.ZeroCoef>
-5.4800

> <Gold.Chemscore.Hbond>
0.9997

> <Gold.Chemscore.Metal>
0.0000

> <Gold.Chemscore.Lipo>
124.2803

> <Gold.Chemscore.Internal_Hbond>
0.0000

> <Gold.Chemscore.DEClash>
0.0538

> <Gold.Chemscore.DEInternal>
1.8237

> <Gold.Chemscore.Rot>
1.5493

> <Gold.Chemscore.Internal.Correction>
   9.000000E+99

> <Gold.Chemscore.Hbonds>
donor molecule, donor type, donor heavy atom, donor atom, acceptor molecule, acceptor atom, score
      P1  H  7997  8008       L1    10  0.42

> <Gold.Chemscore.Hbond.Weighted>
-3.3391

> <Gold.Chemscore.Metal.Weighted>
-0.0000

> <Gold.Chemscore.Lipo.Weighted>
-14.5408

> <Gold.Chemscore.Internal_Hbond.Weighted>
0.0000

> <Gold.Chemscore.DEClash.Weighted>
0.0538

> <Gold.Chemscore.DEInternal.Weighted>
1.8237

> <Gold.Chemscore.Rot.Weighted>
3.9663

> <Gold.Chemscore.Internal.Correction.Weighted>
   9.000000E+99

> <Gold.Protein.RotatedTorsions>
[ 6907 6896 6895 6894 ] final  169.78 input  -60.11 | X-H torsion
[ 7974 7965 7964 7962 ] final  106.95 input  175.53 | X-H torsion
[ 8008 7997 7996 7995 ] final  -57.42 input   59.86 | X-H torsion
[ 10167 10162 10161 10158 ] final  -96.77 input  -65.29 | X-H torsion
[ 10718 10713 10712 10709 ] final -111.50 input   66.30 | X-H torsion
[ 10763 10752 10751 10750 ] final -105.79 input  -60.55 | X-H torsion
[ 11005 11000 10999 10996 ] final  -32.18 input  -57.11 | X-H torsion

> <Gold.Protein.ActiveResidues>
 VAL166  LYS551  ARG553  GLY616  TRP617  ASP618  TYR619  PRO620  LYS621  CYS622 
 ASP623  PHE694  ASN695  SER759  ASP760  ASP761  ALA762  ILE779  LEU786  VAL792 
 PHE793  MET794  SER795  GLU796  ALA797  LYS798  CYS799  TRP800  GLU811  SER814 

> <Gold.Protein.RotatedAtoms>
  151.8265  133.3402  159.3600 H   0  0  0  0  0  0  0  0  0  0  0  0  # atno 6907 bound_to 6896
  150.7278  134.5523  159.5810 H   0  0  0  0  0  0  0  0  0  0  0  0  # atno 6908 bound_to 6896
  152.2967  134.7660  160.0417 H   0  0  0  0  0  0  0  0  0  0  0  0  # atno 6909 bound_to 6896
  145.3000  139.2572  143.3819 H   0  0  0  0  0  0  0  0  0  0  0  0  # atno 7974 bound_to 7965
  154.4267  140.1107  156.5794 H   0  0  0  0  0  0  0  0  0  0  0  0  # atno 8008 bound_to 7997
  155.6128  140.3494  155.4608 H   0  0  0  0  0  0  0  0  0  0  0  0  # atno 8009 bound_to 7997
  156.0086  140.1214  157.0466 H   0  0  0  0  0  0  0  0  0  0  0  0  # atno 8010 bound_to 7997
  140.2903  143.3225  152.0352 H   0  0  0  0  0  0  0  0  0  0  0  0  # atno 10167 bound_to 10162
  156.0651  130.5871  150.8382 H   0  0  0  0  0  0  0  0  0  0  0  0  # atno 10718 bound_to 10713
  154.7970  135.4736  154.0185 H   0  0  0  0  0  0  0  0  0  0  0  0  # atno 10763 bound_to 10752
  153.1720  135.6826  153.8602 H   0  0  0  0  0  0  0  0  0  0  0  0  # atno 10764 bound_to 10752
  153.8182  135.3208  155.3385 H   0  0  0  0  0  0  0  0  0  0  0  0  # atno 10765 bound_to 10752
  140.9530  133.7209  156.1250 H   0  0  0  0  0  0  0  0  0  0  0  0  # atno 11005 bound_to 11000
  146.3155  140.3512  142.8656 LP  0  0  0  0  0  0  0  0  0  0  0  0  # atno 17320 bound_to 7965
  144.9101  140.7747  143.5813 LP  0  0  0  0  0  0  0  0  0  0  0  0  # atno 17321 bound_to 7965
  139.4939  144.6529  151.6636 LP  0  0  0  0  0  0  0  0  0  0  0  0  # atno 17342 bound_to 10162
  140.5737  144.0064  150.6230 LP  0  0  0  0  0  0  0  0  0  0  0  0  # atno 17343 bound_to 10162
  157.5687  131.0946  150.9451 LP  0  0  0  0  0  0  0  0  0  0  0  0  # atno 17370 bound_to 10713
  156.9672  130.5477  149.5288 LP  0  0  0  0  0  0  0  0  0  0  0  0  # atno 17371 bound_to 10713
  140.7575  134.3976  157.5531 LP  0  0  0  0  0  0  0  0  0  0  0  0  # atno 17394 bound_to 11000
  139.8853  134.8940  156.2649 LP  0  0  0  0  0  0  0  0  0  0  0  0  # atno 17395 bound_to 11000

$$$$
