AV-unprocessed.smi:1128|AV-procd|sdf|4844|dock2
  -GOLD-   22720 3413D 1   1.00000     0.00000
 Structure written by MMmdl.
 37 38  0  0  0  0  0  0  0  0  2 V2000
  147.4062  132.6334  154.8930 O   0  0  0  0  0  0  0  0  0  0  0  0
  148.2067  133.3184  154.2573 C   0  0  0  0  0  0  0  0  0  0  0  0
  147.8319  134.2469  153.3653 N   0  0  0  0  0  0  0  0  0  0  0  0
  146.4559  134.5800  153.0063 C   0  0  0  0  0  0  0  0  0  0  0  0
  146.0291  133.9385  151.6700 C   0  0  2  0  0  0  0  0  0  0  0  0
  144.6248  134.3968  151.2088 C   0  0  0  0  0  0  0  0  0  0  0  0
  144.0826  133.5648  150.0604 C   0  0  0  0  0  0  0  0  0  0  0  0
  144.6031  132.3827  149.6917 C   0  0  0  0  0  0  0  0  0  0  0  0
  145.7882  131.7410  150.3884 C   0  0  0  0  0  0  0  0  0  0  0  0
  146.0931  132.4006  151.7464 C   0  0  0  0  0  0  0  0  0  0  0  0
  149.5485  133.2554  154.3390 N   0  0  0  0  0  0  0  0  0  0  0  0
  150.3720  132.4326  155.1285 C   0  0  0  0  0  0  0  0  0  0  0  0
  150.8802  131.2277  154.7460 C   0  0  0  0  0  0  0  0  0  0  0  0
  151.7310  130.4267  155.6178 C   0  0  0  0  0  0  0  0  0  0  0  0
  152.2487  129.0463  155.2539 C   0  0  0  0  0  0  0  0  0  0  0  0
  153.1347  129.1123  154.2597 F   0  0  0  0  0  0  0  0  0  0  0  0
  152.8343  128.4643  156.3006 F   0  0  0  0  0  0  0  0  0  0  0  0
  151.2386  128.2726  154.8589 F   0  0  0  0  0  0  0  0  0  0  0  0
  151.9239  131.0184  156.8508 C   0  0  0  0  0  0  0  0  0  0  0  0
  151.4700  132.2071  157.3037 N   0  5  0  0  0  0  0  0  0  0  0  0
  150.6831  132.9522  156.4771 C   0  0  0  0  0  0  0  0  0  0  0  0
  150.2308  134.0418  156.8309 O   0  0  0  0  0  0  0  0  0  0  0  0
  148.5591  134.7618  152.8905 H   0  0  0  0  0  0  0  0  0  0  0  0
  145.8161  134.2123  153.8090 H   0  0  0  0  0  0  0  0  0  0  0  0
  146.3067  135.6606  152.9741 H   0  0  0  0  0  0  0  0  0  0  0  0
  146.7471  134.2517  150.9099 H   0  0  0  0  0  0  0  0  0  0  0  0
  143.9130  134.3330  152.0325 H   0  0  0  0  0  0  0  0  0  0  0  0
  144.6544  135.4409  150.8964 H   0  0  0  0  0  0  0  0  0  0  0  0
  143.2272  133.9621  149.5339 H   0  0  0  0  0  0  0  0  0  0  0  0
  144.1808  131.8472  148.8539 H   0  0  0  0  0  0  0  0  0  0  0  0
  145.5913  130.6779  150.5285 H   0  0  0  0  0  0  0  0  0  0  0  0
  146.6519  131.8197  149.7276 H   0  0  0  0  0  0  0  0  0  0  0  0
  147.0743  132.0751  152.0937 H   0  0  0  0  0  0  0  0  0  0  0  0
  145.3745  132.0491  152.4881 H   0  0  0  0  0  0  0  0  0  0  0  0
  150.0593  133.8798  153.7319 H   0  0  0  0  0  0  0  0  0  0  0  0
  150.6676  130.8149  153.7748 H   0  0  0  0  0  0  0  0  0  0  0  0
  152.5315  130.4487  157.5860 H   0  0  0  0  0  0  0  0  0  0  0  0
  1  2  2  0  0  0  0
  2  3  1  0  0  0  0
  2 11  1  0  0  0  0
  3  4  1  0  0  0  0
  3 23  1  0  0  0  0
  4  5  1  0  0  0  0
  4 24  1  0  0  0  0
  4 25  1  0  0  0  0
  5 10  1  0  0  0  0
  5  6  1  0  0  0  0
  5 26  1  0  0  0  0
  6  7  1  0  0  0  0
  6 27  1  0  0  0  0
  6 28  1  0  0  0  0
  7  8  2  0  0  0  0
  7 29  1  0  0  0  0
  8  9  1  0  0  0  0
  8 30  1  0  0  0  0
  9 10  1  0  0  0  0
  9 31  1  0  0  0  0
  9 32  1  0  0  0  0
 10 33  1  0  0  0  0
 10 34  1  0  0  0  0
 11 12  1  0  0  0  0
 11 35  1  0  0  0  0
 12 21  1  0  0  0  0
 12 13  2  0  0  0  0
 13 14  1  0  0  0  0
 13 36  1  0  0  0  0
 14 15  1  0  0  0  0
 14 19  2  0  0  0  0
 15 16  1  0  0  0  0
 15 17  1  0  0  0  0
 15 18  1  0  0  0  0
 19 20  1  0  0  0  0
 19 37  1  0  0  0  0
 20 21  1  0  0  0  0
 21 22  2  0  0  0  0
M  CHG  1  20  -1
M  END
> <s_m_source_file>
AV-unprocessed.smi

> <i_m_source_file_index>
1128

> <i_lp_mmshare_version>
43012

> <i_f3d_flags>
0

> <s_epik_input>
Tz1jMVtuSF1bY0hdYyhDKEYpKEYpRilbY0hdYzFbTkhdQyg9TylbTkhdW0NIMl1bQ0BASF0yW0NIMl1bQ0hdPVtDSF1bQ0gyXVtDSDJdMg==

> <s_epik_cmdline>
J2VwaWtfcHl0aG9uJywgJy1waCcsICc3LjAnLCAnLXRuJywgJzgnLCAnLW1hJywgJzIwMCcsICctbWV0YWxfYmluZGluZycsICctaW1hZScsICc8aW5maWxlLm1hZT4nLCAnLW9tYWUnLCAnPG91dGZpbGUubWFlPic=

> <r_lp_tautomer_probability>
1

> <r_epik_Ionization_Penalty>
3.16664

> <r_epik_Ionization_Penalty_Charging>
0.172425

> <r_epik_Ionization_Penalty_Neutral>
2.99422

> <r_epik_State_Penalty>
2.99038

> <r_epik_Charging_Adjusted_Penalty>
3.16281

> <i_epik_Tot_Q>
-1

> <i_epik_Tot_abs_Q>
1

> <r_epik_Metal_State_Penalty>
0.453031

> <b_epik_Metal_Only>
1

> <s_lp_Force_Field>
OPLS_2005

> <r_lp_Energy>
22.3955

> <b_lp_Chiralities_Consistent>
1

> <s_lp_Variant>
AV-unprocessed.smi:1128-3

> <Gold.Version>
5.8.1

> <Gold.Id.Protein>
6NUR|6NUR_protein|mol2

> <Gold.PLP.Fitness>
41.3760

> <Gold.PLP.PLP>
-34.3148

> <Gold.PLP.part.hbond>
-2.1639

> <Gold.PLP.part.metal>
0.0000

> <Gold.PLP.part.buried>
-5.1012

> <Gold.PLP.part.nonpolar>
-27.4578

> <Gold.PLP.part.repulsive>
0.0227

> <Gold.PLP.ligand.clash>
0.0000

> <Gold.PLP.ligand.torsion>
1.0138

> <Gold.PLP.Chemscore.Hbond>
3.0000

> <Gold.PLP.Chemscore.CHOScore>
0.0000

> <Gold.PLP.Chemscore.Metal>
0.0000

> <Gold.Chemscore.Hbonds>
donor molecule, donor type, donor heavy atom, donor atom, acceptor molecule, acceptor atom, score
      L1  H     3    23       P1  7948  0.94
      P1  H  6896  6909       L1    20  1.04

> <Gold.PLP.Chemscore.Internal.Correction>
0.0887

> <Gold.Rescore>
     Score         DG    S(hbond)    S(metal)    S(lipo)     H(rot)  DE(clash)    DE(int)     intcor
     16.11     -17.20       1.72        0.00      79.37       1.29       0.07       1.02       ----

> <Gold.Chemscore.Fitness>
16.1087

> <Gold.Chemscore.DG>
-17.1964

> <Gold.Chemscore.ZeroCoef>
-5.4800

> <Gold.Chemscore.Hbond>
1.7195

> <Gold.Chemscore.Metal>
0.0000

> <Gold.Chemscore.Lipo>
79.3737

> <Gold.Chemscore.Internal_Hbond>
0.0000

> <Gold.Chemscore.DEClash>
0.0694

> <Gold.Chemscore.DEInternal>
1.0183

> <Gold.Chemscore.Rot>
1.2943

> <Gold.Chemscore.Internal.Correction>
   9.000000E+99

> <Gold.Chemscore.Hbonds>
donor molecule, donor type, donor heavy atom, donor atom, acceptor molecule, acceptor atom, score
      L1  H     3    23       P1  7948  0.27
      P1  H  6896  6909       L1    20  0.21

> <Gold.Chemscore.Hbond.Weighted>
-5.7430

> <Gold.Chemscore.Metal.Weighted>
-0.0000

> <Gold.Chemscore.Lipo.Weighted>
-9.2867

> <Gold.Chemscore.Internal_Hbond.Weighted>
0.0000

> <Gold.Chemscore.DEClash.Weighted>
0.0694

> <Gold.Chemscore.DEInternal.Weighted>
1.0183

> <Gold.Chemscore.Rot.Weighted>
3.3133

> <Gold.Chemscore.Internal.Correction.Weighted>
   9.000000E+99

> <Gold.Protein.RotatedTorsions>
[ 6907 6896 6895 6894 ] final  -44.51 input  -60.11 | X-H torsion
[ 7974 7965 7964 7962 ] final   45.91 input  175.53 | X-H torsion
[ 8008 7997 7996 7995 ] final  129.85 input   59.86 | X-H torsion
[ 10167 10162 10161 10158 ] final -146.07 input  -65.29 | X-H torsion
[ 10718 10713 10712 10709 ] final    5.26 input   66.30 | X-H torsion
[ 10763 10752 10751 10750 ] final  170.45 input  -60.55 | X-H torsion
[ 11005 11000 10999 10996 ] final -164.19 input  -57.11 | X-H torsion

> <Gold.Protein.ActiveResidues>
 VAL166  LYS551  ARG553  GLY616  TRP617  ASP618  TYR619  PRO620  LYS621  CYS622 
 ASP623  PHE694  ASN695  SER759  ASP760  ASP761  ALA762  ILE779  LEU786  VAL792 
 PHE793  MET794  SER795  GLU796  ALA797  LYS798  CYS799  TRP800  GLU811  SER814 

> <Gold.Protein.RotatedAtoms>
  150.9321  134.8735  159.7557 H   0  0  0  0  0  0  0  0  0  0  0  0  # atno 6907 bound_to 6896
  152.5042  134.4064  159.9444 H   0  0  0  0  0  0  0  0  0  0  0  0  # atno 6908 bound_to 6896
  151.4091  133.3693  159.2776 H   0  0  0  0  0  0  0  0  0  0  0  0  # atno 6909 bound_to 6896
  146.0437  139.4912  142.9762 H   0  0  0  0  0  0  0  0  0  0  0  0  # atno 7974 bound_to 7965
  156.2944  140.2610  156.2666 H   0  0  0  0  0  0  0  0  0  0  0  0  # atno 8008 bound_to 7997
  154.9736  140.0390  157.2264 H   0  0  0  0  0  0  0  0  0  0  0  0  # atno 8009 bound_to 7997
  154.7836  140.2799  155.6049 H   0  0  0  0  0  0  0  0  0  0  0  0  # atno 8010 bound_to 7997
  139.7747  143.8187  152.2630 H   0  0  0  0  0  0  0  0  0  0  0  0  # atno 10167 bound_to 10162
  156.9047  130.5734  149.5647 H   0  0  0  0  0  0  0  0  0  0  0  0  # atno 10718 bound_to 10713
  154.3978  135.2754  155.2115 H   0  0  0  0  0  0  0  0  0  0  0  0  # atno 10763 bound_to 10752
  154.4154  135.6012  153.5981 H   0  0  0  0  0  0  0  0  0  0  0  0  # atno 10764 bound_to 10752
  152.9831  135.5959  154.4242 H   0  0  0  0  0  0  0  0  0  0  0  0  # atno 10765 bound_to 10752
  140.5897  134.5057  157.5191 H   0  0  0  0  0  0  0  0  0  0  0  0  # atno 11005 bound_to 11000
  145.6841  141.0183  143.1590 LP  0  0  0  0  0  0  0  0  0  0  0  0  # atno 17320 bound_to 7965
  144.7087  139.8456  143.7421 LP  0  0  0  0  0  0  0  0  0  0  0  0  # atno 17321 bound_to 7965
  139.8232  144.7287  150.9546 LP  0  0  0  0  0  0  0  0  0  0  0  0  # atno 17342 bound_to 10162
  140.7816  143.4139  151.0948 LP  0  0  0  0  0  0  0  0  0  0  0  0  # atno 17343 bound_to 10162
  156.0565  130.5625  150.9102 LP  0  0  0  0  0  0  0  0  0  0  0  0  # atno 17370 bound_to 10713
  157.6004  131.0941  150.8969 LP  0  0  0  0  0  0  0  0  0  0  0  0  # atno 17371 bound_to 10713
  139.9280  134.8019  156.1013 LP  0  0  0  0  0  0  0  0  0  0  0  0  # atno 17394 bound_to 11000
  141.0943  133.6702  156.2610 LP  0  0  0  0  0  0  0  0  0  0  0  0  # atno 17395 bound_to 11000

$$$$
