AV-unprocessed.smi:566|AV-procd|sdf|2955|dock1
  -GOLD-   2262023453D 1   1.00000     0.00000
 Structure written by MMmdl.
 39 40  0  0  0  0  0  0  0  0  1 V2000
  147.1513  138.9612  153.0673 C   0  0  0  0  0  0  0  0  0  0  0  0
  148.3766  139.3466  153.8874 C   0  0  0  0  0  0  0  0  0  0  0  0
  149.4097  138.3536  154.0688 C   0  0  0  0  0  0  0  0  0  0  0  0
  150.5373  138.6384  154.7395 C   0  0  0  0  0  0  0  0  0  0  0  0
  151.6254  137.5844  154.9141 C   0  0  0  0  0  0  0  0  0  0  0  0
  150.7338  139.9275  155.3070 N   0  0  0  0  0  0  0  0  0  0  0  0
  151.9916  140.2197  156.0336 C   0  0  0  0  0  0  0  0  0  0  0  0
  151.7647  140.4400  157.5416 C   0  0  0  0  0  0  0  0  0  0  0  0
  152.9796  140.2332  158.2488 O   0  0  0  0  0  0  0  0  0  0  0  0
  153.1492  140.8681  159.4599 C   0  0  0  0  0  0  0  0  0  0  0  0
  154.0317  140.2636  160.3789 C   0  0  0  0  0  0  0  0  0  0  0  0
  154.2668  140.8429  161.6406 C   0  0  0  0  0  0  0  0  0  0  0  0
  153.6154  142.0378  161.9981 C   0  0  0  0  0  0  0  0  0  0  0  0
  152.7301  142.6508  161.0920 C   0  0  0  0  0  0  0  0  0  0  0  0
  152.1010  143.7999  161.4350 F   0  0  0  0  0  0  0  0  0  0  0  0
  152.4968  142.0719  159.8290 C   0  0  0  0  0  0  0  0  0  0  0  0
  149.7875  140.9167  155.2122 C   0  0  0  0  0  0  0  0  0  0  0  0
  149.9636  142.0030  155.7732 O   0  0  0  0  0  0  0  0  0  0  0  0
  148.5685  140.5810  154.4257 C   0  0  0  0  0  0  0  0  0  0  0  0
  147.5606  141.6497  154.2802 C   0  0  0  0  0  0  0  0  0  0  0  0
  148.0266  142.8970  154.4337 N   0  0  0  0  0  0  0  0  0  0  0  0
  146.3865  141.4695  153.9613 O   0  0  0  0  0  0  0  0  0  0  0  0
  147.2885  137.9930  152.5848 H   0  0  0  0  0  0  0  0  0  0  0  0
  146.9592  139.6924  152.2813 H   0  0  0  0  0  0  0  0  0  0  0  0
  146.2698  138.8906  153.7048 H   0  0  0  0  0  0  0  0  0  0  0  0
  149.2758  137.3673  153.6484 H   0  0  0  0  0  0  0  0  0  0  0  0
  151.2529  136.5979  154.6370 H   0  0  0  0  0  0  0  0  0  0  0  0
  151.9725  137.5082  155.9430 H   0  0  0  0  0  0  0  0  0  0  0  0
  152.4757  137.8043  154.2681 H   0  0  0  0  0  0  0  0  0  0  0  0
  152.7173  139.4213  155.8887 H   0  0  0  0  0  0  0  0  0  0  0  0
  152.5060  141.0867  155.6155 H   0  0  0  0  0  0  0  0  0  0  0  0
  151.3828  141.4435  157.7313 H   0  0  0  0  0  0  0  0  0  0  0  0
  151.0186  139.7259  157.8929 H   0  0  0  0  0  0  0  0  0  0  0  0
  154.5355  139.3460  160.1117 H   0  0  0  0  0  0  0  0  0  0  0  0
  154.9469  140.3703  162.3336 H   0  0  0  0  0  0  0  0  0  0  0  0
  153.7940  142.4830  162.9657 H   0  0  0  0  0  0  0  0  0  0  0  0
  151.8103  142.5701  159.1618 H   0  0  0  0  0  0  0  0  0  0  0  0
  147.4030  143.6848  154.3340 H   0  0  0  0  0  0  0  0  0  0  0  0
  149.0052  143.0450  154.6336 H   0  0  0  0  0  0  0  0  0  0  0  0
  1  2  1  0  0  0  0
  1 23  1  0  0  0  0
  1 24  1  0  0  0  0
  1 25  1  0  0  0  0
  2 19  2  0  0  0  0
  2  3  1  0  0  0  0
  3  4  2  0  0  0  0
  3 26  1  0  0  0  0
  4  5  1  0  0  0  0
  4  6  1  0  0  0  0
  5 27  1  0  0  0  0
  5 28  1  0  0  0  0
  5 29  1  0  0  0  0
  6  7  1  0  0  0  0
  6 17  1  0  0  0  0
  7  8  1  0  0  0  0
  7 30  1  0  0  0  0
  7 31  1  0  0  0  0
  8  9  1  0  0  0  0
  8 32  1  0  0  0  0
  8 33  1  0  0  0  0
  9 10  1  0  0  0  0
 10 16  1  0  0  0  0
 10 11  2  0  0  0  0
 11 12  1  0  0  0  0
 11 34  1  0  0  0  0
 12 13  2  0  0  0  0
 12 35  1  0  0  0  0
 13 14  1  0  0  0  0
 13 36  1  0  0  0  0
 14 15  1  0  0  0  0
 14 16  2  0  0  0  0
 16 37  1  0  0  0  0
 17 18  2  0  0  0  0
 17 19  1  0  0  0  0
 19 20  1  0  0  0  0
 20 21  1  0  0  0  0
 20 22  2  0  0  0  0
 21 38  1  0  0  0  0
 21 39  1  0  0  0  0
M  END
> <s_m_source_file>
AV-unprocessed.smi

> <i_m_source_file_index>
566

> <i_lp_mmshare_version>
43012

> <i_f3d_flags>
0

> <s_epik_input>
W0NIM11jMVtjSF1jKFtDSDNdKW4oYyg9TyljMUMoPU8pW05IMl0pW0NIMl1bQ0gyXU9jMltjSF1bY0hdW2NIXWMoRilbY0hdMg==

> <s_epik_cmdline>
J2VwaWtfcHl0aG9uJywgJy1waCcsICc3LjAnLCAnLXRuJywgJzgnLCAnLW1hJywgJzIwMCcsICctbWV0YWxfYmluZGluZycsICctaW1hZScsICc8aW5maWxlLm1hZT4nLCAnLW9tYWUnLCAnPG91dGZpbGUubWFlPic=

> <r_lp_tautomer_probability>
1

> <r_epik_Ionization_Penalty>
1.93248e-07

> <r_epik_Ionization_Penalty_Charging>
2.77691e-08

> <r_epik_Ionization_Penalty_Neutral>
1.65479e-07

> <r_epik_State_Penalty>
-0

> <r_epik_Charging_Adjusted_Penalty>
2.77691e-08

> <i_epik_Tot_Q>
0

> <i_epik_Tot_abs_Q>
0

> <r_epik_Metal_State_Penalty>
-0

> <b_epik_Metal_Only>
0

> <s_lp_Force_Field>
OPLS_2005

> <r_lp_Energy>
41.2098

> <b_lp_Chiralities_Consistent>
1

> <s_lp_Variant>
AV-unprocessed.smi:566-1

> <Gold.Version>
5.8.1

> <Gold.Id.Protein>
6NUR|6NUR_protein|mol2

> <Gold.PLP.Fitness>
49.0961

> <Gold.PLP.PLP>
-47.2593

> <Gold.PLP.part.hbond>
-1.2752

> <Gold.PLP.part.metal>
0.0000

> <Gold.PLP.part.buried>
-1.2202

> <Gold.PLP.part.nonpolar>
-45.8552

> <Gold.PLP.part.repulsive>
2.9916

> <Gold.PLP.ligand.clash>
0.0000

> <Gold.PLP.ligand.torsion>
0.8307

> <Gold.PLP.Chemscore.Hbond>
0.9920

> <Gold.PLP.Chemscore.CHOScore>
0.0000

> <Gold.PLP.Chemscore.Metal>
0.0000

> <Gold.Chemscore.Hbonds>
donor molecule, donor type, donor heavy atom, donor atom, acceptor molecule, acceptor atom, score
      P1  H  7997  8010       L1     9  0.96

> <Gold.PLP.Chemscore.Internal.Correction>
0.5223

> <Gold.Rescore>
     Score         DG    S(hbond)    S(metal)    S(lipo)     H(rot)  DE(clash)    DE(int)     intcor
     12.98     -17.03       0.98        0.00     107.72       1.69       0.98       3.08       ----

> <Gold.Chemscore.Fitness>
12.9765

> <Gold.Chemscore.DG>
-17.0299

> <Gold.Chemscore.ZeroCoef>
-5.4800

> <Gold.Chemscore.Hbond>
0.9782

> <Gold.Chemscore.Metal>
0.0000

> <Gold.Chemscore.Lipo>
107.7223

> <Gold.Chemscore.Internal_Hbond>
0.0000

> <Gold.Chemscore.DEClash>
0.9779

> <Gold.Chemscore.DEInternal>
3.0755

> <Gold.Chemscore.Rot>
1.6878

> <Gold.Chemscore.Internal.Correction>
   9.000000E+99

> <Gold.Chemscore.Hbonds>
donor molecule, donor type, donor heavy atom, donor atom, acceptor molecule, acceptor atom, score
      L1  H    21    39       P1  8028  0.05
      P1  H  7997  8010       L1     9  0.66

> <Gold.Chemscore.Hbond.Weighted>
-3.2671

> <Gold.Chemscore.Metal.Weighted>
-0.0000

> <Gold.Chemscore.Lipo.Weighted>
-12.6035

> <Gold.Chemscore.Internal_Hbond.Weighted>
0.0000

> <Gold.Chemscore.DEClash.Weighted>
0.9779

> <Gold.Chemscore.DEInternal.Weighted>
3.0755

> <Gold.Chemscore.Rot.Weighted>
4.3207

> <Gold.Chemscore.Internal.Correction.Weighted>
   9.000000E+99

> <Gold.Protein.RotatedTorsions>
[ 6907 6896 6895 6894 ] final  175.09 input  -60.11 | X-H torsion
[ 7974 7965 7964 7962 ] final -122.44 input  175.53 | X-H torsion
[ 8008 7997 7996 7995 ] final   39.79 input   59.86 | X-H torsion
[ 10167 10162 10161 10158 ] final   79.52 input  -65.29 | X-H torsion
[ 10718 10713 10712 10709 ] final   48.72 input   66.30 | X-H torsion
[ 10763 10752 10751 10750 ] final  -95.91 input  -60.55 | X-H torsion
[ 11005 11000 10999 10996 ] final   20.50 input  -57.11 | X-H torsion

> <Gold.Protein.ActiveResidues>
 VAL166  LYS551  ARG553  GLY616  TRP617  ASP618  TYR619  PRO620  LYS621  CYS622 
 ASP623  PHE694  ASN695  SER759  ASP760  ASP761  ALA762  ILE779  LEU786  VAL792 
 PHE793  MET794  SER795  GLU796  ALA797  LYS798  CYS799  TRP800  GLU811  SER814 

> <Gold.Protein.RotatedAtoms>
  151.7418  133.3322  159.3367 H   0  0  0  0  0  0  0  0  0  0  0  0  # atno 6907 bound_to 6896
  150.7570  134.6271  159.6176 H   0  0  0  0  0  0  0  0  0  0  0  0  # atno 6908 bound_to 6896
  152.3525  134.6987  160.0283 H   0  0  0  0  0  0  0  0  0  0  0  0  # atno 6909 bound_to 6896
  145.0294  140.8055  143.4333 H   0  0  0  0  0  0  0  0  0  0  0  0  # atno 7974 bound_to 7965
  155.2424  140.3346  155.4291 H   0  0  0  0  0  0  0  0  0  0  0  0  # atno 8008 bound_to 7997
  156.2250  140.1825  156.7430 H   0  0  0  0  0  0  0  0  0  0  0  0  # atno 8009 bound_to 7997
  154.5884  140.0642  156.9190 H   0  0  0  0  0  0  0  0  0  0  0  0  # atno 8010 bound_to 7997
  139.9595  144.5971  150.8086 H   0  0  0  0  0  0  0  0  0  0  0  0  # atno 10167 bound_to 10162
  157.4715  130.8258  149.7993 H   0  0  0  0  0  0  0  0  0  0  0  0  # atno 10718 bound_to 10713
  154.7192  135.5103  153.8785 H   0  0  0  0  0  0  0  0  0  0  0  0  # atno 10763 bound_to 10752
  153.0847  135.6642  153.9982 H   0  0  0  0  0  0  0  0  0  0  0  0  # atno 10764 bound_to 10752
  153.9808  135.3029  155.3399 H   0  0  0  0  0  0  0  0  0  0  0  0  # atno 10765 bound_to 10752
  140.4019  134.1710  155.7664 H   0  0  0  0  0  0  0  0  0  0  0  0  # atno 11005 bound_to 11000
  145.1791  139.2362  143.5302 LP  0  0  0  0  0  0  0  0  0  0  0  0  # atno 17320 bound_to 7965
  146.3496  140.1560  142.8591 LP  0  0  0  0  0  0  0  0  0  0  0  0  # atno 17321 bound_to 7965
  140.7558  143.3053  151.2978 LP  0  0  0  0  0  0  0  0  0  0  0  0  # atno 17342 bound_to 10162
  139.6565  144.0266  152.2663 LP  0  0  0  0  0  0  0  0  0  0  0  0  # atno 17343 bound_to 10162
  156.0076  130.3848  150.2377 LP  0  0  0  0  0  0  0  0  0  0  0  0  # atno 17370 bound_to 10713
  157.0560  131.0076  151.3238 LP  0  0  0  0  0  0  0  0  0  0  0  0  # atno 17371 bound_to 10713
  141.1853  133.8325  157.1107 LP  0  0  0  0  0  0  0  0  0  0  0  0  # atno 17394 bound_to 11000
  140.0330  134.9892  157.0817 LP  0  0  0  0  0  0  0  0  0  0  0  0  # atno 17395 bound_to 11000

$$$$
