AV-unprocessed.smi:604|AV-procd|sdf|3037|dock5
  -GOLD-   2262023553D 1   1.00000     0.00000
 Structure written by MMmdl.
 49 51  0  0  0  0  0  0  0  0  2 V2000
  150.4832  136.6377  156.1820 O   0  0  0  0  0  0  0  0  0  0  0  0
  149.9964  136.5671  155.0540 C   0  0  0  0  0  0  0  0  0  0  0  0
  149.6524  135.4306  154.4241 N   0  0  0  0  0  0  0  0  0  0  0  0
  149.7600  134.0939  154.8945 C   0  0  0  0  0  0  0  0  0  0  0  0
  149.2748  133.0607  154.0668 C   0  0  0  0  0  0  0  0  0  0  0  0
  149.3542  131.7282  154.5136 C   0  0  0  0  0  0  0  0  0  0  0  0
  149.9107  131.4803  155.7831 C   0  0  0  0  0  0  0  0  0  0  0  0
  150.3646  132.4576  156.5959 N   0  0  0  0  0  0  0  0  0  0  0  0
  150.2869  133.7337  156.1599 C   0  0  0  0  0  0  0  0  0  0  0  0
  149.7609  137.6395  154.2842 N   0  0  0  0  0  0  0  0  0  0  0  0
  150.0611  139.0199  154.6537 C   0  0  2  0  0  0  0  0  0  0  0  0
  151.4280  139.1217  155.3550 C   0  0  0  0  0  0  0  0  0  0  0  0
  151.7024  140.5581  155.8329 C   0  0  0  0  0  0  0  0  0  0  0  0
  150.6166  141.0466  156.7221 N   0  3  1  0  0  0  0  0  0  0  0  0
  150.9096  142.3763  157.3172 C   0  0  0  0  0  0  0  0  0  0  0  0
  151.2516  142.2728  158.8158 C   0  0  0  0  0  0  0  0  0  0  0  0
  151.6584  143.5893  159.4852 C   0  0  0  0  0  0  0  0  0  0  0  0
  152.4085  143.1758  160.7553 C   0  0  0  0  0  0  0  0  0  0  0  0
  152.9331  141.7553  160.4998 C   0  0  0  0  0  0  0  0  0  0  0  0
  152.4533  141.3664  159.0973 C   0  0  0  0  0  0  0  0  0  0  0  0
  149.2929  140.9913  156.0479 C   0  0  0  0  0  0  0  0  0  0  0  0
  148.9656  139.5621  155.5854 C   0  0  0  0  0  0  0  0  0  0  0  0
  149.3401  135.5282  153.4693 H   0  0  0  0  0  0  0  0  0  0  0  0
  148.8512  133.2828  153.0979 H   0  0  0  0  0  0  0  0  0  0  0  0
  148.9964  130.9158  153.8987 H   0  0  0  0  0  0  0  0  0  0  0  0
  149.9877  130.4704  156.1584 H   0  0  0  0  0  0  0  0  0  0  0  0
  150.6408  134.4713  156.8630 H   0  0  0  0  0  0  0  0  0  0  0  0
  149.3610  137.4882  153.3697 H   0  0  0  0  0  0  0  0  0  0  0  0
  150.0767  139.6341  153.7509 H   0  0  0  0  0  0  0  0  0  0  0  0
  151.4586  138.4438  156.2095 H   0  0  0  0  0  0  0  0  0  0  0  0
  152.2240  138.8039  154.6806 H   0  0  0  0  0  0  0  0  0  0  0  0
  152.6527  140.5788  156.3680 H   0  0  0  0  0  0  0  0  0  0  0  0
  151.8032  141.2281  154.9773 H   0  0  0  0  0  0  0  0  0  0  0  0
  151.7696  142.8198  156.8129 H   0  0  0  0  0  0  0  0  0  0  0  0
  150.0832  143.0687  157.1483 H   0  0  0  0  0  0  0  0  0  0  0  0
  150.3924  141.8633  159.3500 H   0  0  0  0  0  0  0  0  0  0  0  0
  152.3340  144.1454  158.8335 H   0  0  0  0  0  0  0  0  0  0  0  0
  150.8043  144.2307  159.7047 H   0  0  0  0  0  0  0  0  0  0  0  0
  153.2130  143.8739  160.9888 H   0  0  0  0  0  0  0  0  0  0  0  0
  151.7272  143.1673  161.6069 H   0  0  0  0  0  0  0  0  0  0  0  0
  154.0196  141.7024  160.5759 H   0  0  0  0  0  0  0  0  0  0  0  0
  152.5211  141.0709  161.2424 H   0  0  0  0  0  0  0  0  0  0  0  0
  152.2042  140.3073  159.0241 H   0  0  0  0  0  0  0  0  0  0  0  0
  153.2471  141.5672  158.3759 H   0  0  0  0  0  0  0  0  0  0  0  0
  148.5114  141.3371  156.7236 H   0  0  0  0  0  0  0  0  0  0  0  0
  149.2900  141.6697  155.1930 H   0  0  0  0  0  0  0  0  0  0  0  0
  148.0018  139.5527  155.0749 H   0  0  0  0  0  0  0  0  0  0  0  0
  148.8612  138.9139  156.4570 H   0  0  0  0  0  0  0  0  0  0  0  0
  150.5795  140.3974  157.4951 H   0  0  0  0  0  0  0  0  0  0  0  0
  1  2  2  0  0  0  0
  2  3  1  0  0  0  0
  2 10  1  0  0  0  0
  3  4  1  0  0  0  0
  3 23  1  0  0  0  0
  4  9  1  0  0  0  0
  4  5  2  0  0  0  0
  5  6  1  0  0  0  0
  5 24  1  0  0  0  0
  6  7  2  0  0  0  0
  6 25  1  0  0  0  0
  7  8  1  0  0  0  0
  7 26  1  0  0  0  0
  8  9  2  0  0  0  0
  9 27  1  0  0  0  0
 10 11  1  0  0  0  0
 10 28  1  0  0  0  0
 11 22  1  0  0  0  0
 11 12  1  0  0  0  0
 11 29  1  0  0  0  0
 12 13  1  0  0  0  0
 12 30  1  0  0  0  0
 12 31  1  0  0  0  0
 13 14  1  0  0  0  0
 13 32  1  0  0  0  0
 13 33  1  0  0  0  0
 14 15  1  0  0  0  0
 14 21  1  0  0  0  0
 14 49  1  0  0  0  0
 15 16  1  0  0  0  0
 15 34  1  0  0  0  0
 15 35  1  0  0  0  0
 16 20  1  0  0  0  0
 16 17  1  0  0  0  0
 16 36  1  0  0  0  0
 17 18  1  0  0  0  0
 17 37  1  0  0  0  0
 17 38  1  0  0  0  0
 18 19  1  0  0  0  0
 18 39  1  0  0  0  0
 18 40  1  0  0  0  0
 19 20  1  0  0  0  0
 19 41  1  0  0  0  0
 19 42  1  0  0  0  0
 20 43  1  0  0  0  0
 20 44  1  0  0  0  0
 21 22  1  0  0  0  0
 21 45  1  0  0  0  0
 21 46  1  0  0  0  0
 22 47  1  0  0  0  0
 22 48  1  0  0  0  0
M  CHG  1  14   1
M  END
> <s_m_source_file>
AV-unprocessed.smi

> <i_m_source_file_index>
604

> <i_lp_mmshare_version>
43012

> <i_f3d_flags>
0

> <s_epik_input>
W2NIXTFuW2NIXVtjSF1bY0hdYzFbTkhdQyg9TylbTkhdW0NIXTJbQ0gyXVtDSDJdTihbQ0gyXVtDSDJdMilbQ0gyXVtDSF0zW0NIMl1bQ0gyXVtDSDJdW0NIMl0z

> <s_epik_cmdline>
J2VwaWtfcHl0aG9uJywgJy1waCcsICc3LjAnLCAnLXRuJywgJzgnLCAnLW1hJywgJzIwMCcsICctbWV0YWxfYmluZGluZycsICctaW1hZScsICc8aW5maWxlLm1hZT4nLCAnLW9tYWUnLCAnPG91dGZpbGUubWFlPic=

> <r_lp_tautomer_probability>
1

> <r_epik_Ionization_Penalty>
0.00608112

> <r_epik_Ionization_Penalty_Charging>
0.00207989

> <r_epik_Ionization_Penalty_Neutral>
0.00400122

> <r_epik_State_Penalty>
-0

> <r_epik_Charging_Adjusted_Penalty>
0.00207989

> <i_epik_Tot_Q>
1

> <i_epik_Tot_abs_Q>
1

> <r_epik_Metal_State_Penalty>
-0

> <b_epik_Metal_Only>
0

> <s_lp_Force_Field>
OPLS_2005

> <r_lp_Energy>
41.6956

> <b_lp_Chiralities_Consistent>
1

> <s_lp_Variant>
AV-unprocessed.smi:604-1

> <Gold.Version>
5.8.1

> <Gold.Id.Protein>
6NUR|6NUR_protein|mol2

> <Gold.PLP.Fitness>
46.0831

> <Gold.PLP.PLP>
-42.1250

> <Gold.PLP.part.hbond>
-2.2525

> <Gold.PLP.part.metal>
0.0000

> <Gold.PLP.part.buried>
-4.2789

> <Gold.PLP.part.nonpolar>
-35.1988

> <Gold.PLP.part.repulsive>
0.1741

> <Gold.PLP.ligand.clash>
0.0000

> <Gold.PLP.ligand.torsion>
0.9737

> <Gold.PLP.Chemscore.Hbond>
1.9600

> <Gold.PLP.Chemscore.CHOScore>
0.0000

> <Gold.PLP.Chemscore.Metal>
0.0000

> <Gold.Chemscore.Hbonds>
donor molecule, donor type, donor heavy atom, donor atom, acceptor molecule, acceptor atom, score
      L1  H     3    23       P1  7948  1.00
      L1  H    10    28       P1  7948  0.98

> <Gold.PLP.Chemscore.Internal.Correction>
0.0256

> <Gold.Rescore>
     Score         DG    S(hbond)    S(metal)    S(lipo)     H(rot)  DE(clash)    DE(int)     intcor
     16.54     -20.48       1.40        0.00     117.67       1.35       0.36       3.58       ----

> <Gold.Chemscore.Fitness>
16.5426

> <Gold.Chemscore.DG>
-20.4799

> <Gold.Chemscore.ZeroCoef>
-5.4800

> <Gold.Chemscore.Hbond>
1.4004

> <Gold.Chemscore.Metal>
0.0000

> <Gold.Chemscore.Lipo>
117.6657

> <Gold.Chemscore.Internal_Hbond>
0.0000

> <Gold.Chemscore.DEClash>
0.3596

> <Gold.Chemscore.DEInternal>
3.5777

> <Gold.Chemscore.Rot>
1.3455

> <Gold.Chemscore.Internal.Correction>
   9.000000E+99

> <Gold.Chemscore.Hbonds>
donor molecule, donor type, donor heavy atom, donor atom, acceptor molecule, acceptor atom, score
      L1  H     3    23       P1  7948  0.30
      L1  H    10    28       P1  7948  0.88

> <Gold.Chemscore.Hbond.Weighted>
-4.6775

> <Gold.Chemscore.Metal.Weighted>
-0.0000

> <Gold.Chemscore.Lipo.Weighted>
-13.7669

> <Gold.Chemscore.Internal_Hbond.Weighted>
0.0000

> <Gold.Chemscore.DEClash.Weighted>
0.3596

> <Gold.Chemscore.DEInternal.Weighted>
3.5777

> <Gold.Chemscore.Rot.Weighted>
3.4445

> <Gold.Chemscore.Internal.Correction.Weighted>
   9.000000E+99

> <Gold.Protein.RotatedTorsions>
[ 6907 6896 6895 6894 ] final  132.90 input  -60.11 | X-H torsion
[ 7974 7965 7964 7962 ] final -126.16 input  175.53 | X-H torsion
[ 8008 7997 7996 7995 ] final  124.99 input   59.86 | X-H torsion
[ 10167 10162 10161 10158 ] final -113.26 input  -65.29 | X-H torsion
[ 10718 10713 10712 10709 ] final -149.58 input   66.30 | X-H torsion
[ 10763 10752 10751 10750 ] final   48.66 input  -60.55 | X-H torsion
[ 11005 11000 10999 10996 ] final -156.65 input  -57.11 | X-H torsion

> <Gold.Protein.ActiveResidues>
 VAL166  LYS551  ARG553  GLY616  TRP617  ASP618  TYR619  PRO620  LYS621  CYS622 
 ASP623  PHE694  ASN695  SER759  ASP760  ASP761  ALA762  ILE779  LEU786  VAL792 
 PHE793  MET794  SER795  GLU796  ALA797  LYS798  CYS799  TRP800  GLU811  SER814 

> <Gold.Protein.RotatedAtoms>
  152.3276  133.5922  159.5787 H   0  0  0  0  0  0  0  0  0  0  0  0  # atno 6907 bound_to 6896
  150.7405  133.9917  159.3618 H   0  0  0  0  0  0  0  0  0  0  0  0  # atno 6908 bound_to 6896
  151.7795  135.0766  160.0422 H   0  0  0  0  0  0  0  0  0  0  0  0  # atno 6909 bound_to 6896
  144.9901  140.7723  143.4559 H   0  0  0  0  0  0  0  0  0  0  0  0  # atno 7974 bound_to 7965
  156.2820  140.2726  156.1878 H   0  0  0  0  0  0  0  0  0  0  0  0  # atno 8008 bound_to 7997
  155.0490  140.0386  157.2555 H   0  0  0  0  0  0  0  0  0  0  0  0  # atno 8009 bound_to 7997
  154.7211  140.2688  155.6546 H   0  0  0  0  0  0  0  0  0  0  0  0  # atno 8010 bound_to 7997
  140.1137  143.4504  152.1736 H   0  0  0  0  0  0  0  0  0  0  0  0  # atno 10167 bound_to 10162
  156.4350  130.8094  151.2322 H   0  0  0  0  0  0  0  0  0  0  0  0  # atno 10718 bound_to 10713
  152.9790  135.5937  154.3962 H   0  0  0  0  0  0  0  0  0  0  0  0  # atno 10763 bound_to 10752
  154.3612  135.2767  155.2320 H   0  0  0  0  0  0  0  0  0  0  0  0  # atno 10764 bound_to 10752
  154.4317  135.6034  153.6128 H   0  0  0  0  0  0  0  0  0  0  0  0  # atno 10765 bound_to 10752
  140.6733  134.4224  157.5230 H   0  0  0  0  0  0  0  0  0  0  0  0  # atno 11005 bound_to 11000
  145.2298  139.2120  143.5049 LP  0  0  0  0  0  0  0  0  0  0  0  0  # atno 17320 bound_to 7965
  146.3429  140.2173  142.8591 LP  0  0  0  0  0  0  0  0  0  0  0  0  # atno 17321 bound_to 7965
  139.5605  144.7402  151.4168 LP  0  0  0  0  0  0  0  0  0  0  0  0  # atno 17342 bound_to 10162
  140.6911  143.7859  150.7257 LP  0  0  0  0  0  0  0  0  0  0  0  0  # atno 17343 bound_to 10162
  157.7507  131.0186  150.3634 LP  0  0  0  0  0  0  0  0  0  0  0  0  # atno 17370 bound_to 10713
  156.3979  130.3910  149.6981 LP  0  0  0  0  0  0  0  0  0  0  0  0  # atno 17371 bound_to 10713
  139.8975  134.8636  156.2043 LP  0  0  0  0  0  0  0  0  0  0  0  0  # atno 17394 bound_to 11000
  141.0375  133.6955  156.1539 LP  0  0  0  0  0  0  0  0  0  0  0  0  # atno 17395 bound_to 11000

$$$$
