AV-unprocessed.smi:1289|AV-procd|sdf|5388|dock7
  -GOLD-   22720 4543D 1   1.00000     0.00000
 Structure written by MMmdl.
 38 40  0  0  0  0  0  0  0  0  2 V2000
  154.9921  133.1127  164.7160 N   0  0  0  0  0  0  0  0  0  0  0  0
  154.7676  133.9723  163.9747 C   0  0  0  0  0  0  0  0  0  0  0  0
  154.4862  135.0521  163.0437 C   0  0  0  0  0  0  0  0  0  0  0  0
  154.2288  136.3513  163.5234 C   0  0  0  0  0  0  0  0  0  0  0  0
  153.9508  137.3943  162.6189 C   0  0  0  0  0  0  0  0  0  0  0  0
  153.9257  137.1587  161.2290 C   0  0  0  0  0  0  0  0  0  0  0  0
  153.6378  138.2350  160.4175 O   0  0  0  0  0  0  0  0  0  0  0  0
  153.3156  137.9844  159.0559 C   0  0  0  0  0  0  0  0  0  0  0  0
  152.9514  139.3123  158.3755 C   0  0  1  0  0  0  0  0  0  0  0  0
  153.0648  139.1417  156.9765 O   0  0  0  0  0  0  0  0  0  0  0  0
  151.5294  139.7840  158.7407 C   0  0  0  0  0  0  0  0  0  0  0  0
  151.2393  141.1469  158.2731 N   0  0  0  0  0  0  0  0  0  0  0  0
  150.5463  141.5587  157.1772 C   0  0  0  0  0  0  0  0  0  0  0  0
  150.5559  142.9205  157.1710 N   0  3  0  0  0  0  0  0  0  0  0  0
  151.2641  143.3869  158.2806 C   0  0  0  0  0  0  0  0  0  0  0  0
  151.5447  144.6827  158.7031 C   0  0  0  0  0  0  0  0  0  0  0  0
  152.2945  144.8130  159.8905 C   0  0  0  0  0  0  0  0  0  0  0  0
  152.7335  143.6825  160.6098 C   0  0  0  0  0  0  0  0  0  0  0  0
  152.4441  142.3736  160.1715 C   0  0  0  0  0  0  0  0  0  0  0  0
  151.7045  142.2524  158.9953 C   0  0  0  0  0  0  0  0  0  0  0  0
  154.1920  135.8495  160.7536 C   0  0  0  0  0  0  0  0  0  0  0  0
  154.4682  134.8044  161.6568 C   0  0  0  0  0  0  0  0  0  0  0  0
  154.2411  136.5552  164.5845 H   0  0  0  0  0  0  0  0  0  0  0  0
  153.7525  138.3865  162.9970 H   0  0  0  0  0  0  0  0  0  0  0  0
  154.1795  137.5380  158.5600 H   0  0  0  0  0  0  0  0  0  0  0  0
  152.4805  137.2865  158.9739 H   0  0  0  0  0  0  0  0  0  0  0  0
  153.6735  140.0749  158.6696 H   0  0  0  0  0  0  0  0  0  0  0  0
  152.3972  139.6620  156.5557 H   0  0  0  0  0  0  0  0  0  0  0  0
  150.7730  139.1011  158.3533 H   0  0  0  0  0  0  0  0  0  0  0  0
  151.4067  139.7872  159.8243 H   0  0  0  0  0  0  0  0  0  0  0  0
  150.0749  140.9203  156.4438 H   0  0  0  0  0  0  0  0  0  0  0  0
  151.2078  145.5506  158.1555 H   0  0  0  0  0  0  0  0  0  0  0  0
  152.5359  145.7997  160.2584 H   0  0  0  0  0  0  0  0  0  0  0  0
  153.3029  143.8216  161.5173 H   0  0  0  0  0  0  0  0  0  0  0  0
  152.7803  141.5152  160.7341 H   0  0  0  0  0  0  0  0  0  0  0  0
  154.1892  135.6189  159.6993 H   0  0  0  0  0  0  0  0  0  0  0  0
  154.6651  133.8120  161.2770 H   0  0  0  0  0  0  0  0  0  0  0  0
  150.1106  143.4871  156.4605 H   0  0  0  0  0  0  0  0  0  0  0  0
  1  2  3  0  0  0  0
  2  3  1  0  0  0  0
  3 22  1  0  0  0  0
  3  4  2  0  0  0  0
  4  5  1  0  0  0  0
  4 23  1  0  0  0  0
  5  6  2  0  0  0  0
  5 24  1  0  0  0  0
  6  7  1  0  0  0  0
  6 21  1  0  0  0  0
  7  8  1  0  0  0  0
  8  9  1  0  0  0  0
  8 25  1  0  0  0  0
  8 26  1  0  0  0  0
  9 10  1  0  0  0  0
  9 11  1  0  0  0  0
  9 27  1  0  0  0  0
 10 28  1  0  0  0  0
 11 12  1  0  0  0  0
 11 29  1  0  0  0  0
 11 30  1  0  0  0  0
 12 20  1  0  0  0  0
 12 13  1  0  0  0  0
 13 14  2  0  0  0  0
 13 31  1  0  0  0  0
 14 15  1  0  0  0  0
 14 38  1  0  0  0  0
 15 20  2  0  0  0  0
 15 16  1  0  0  0  0
 16 17  2  0  0  0  0
 16 32  1  0  0  0  0
 17 18  1  0  0  0  0
 17 33  1  0  0  0  0
 18 19  2  0  0  0  0
 18 34  1  0  0  0  0
 19 20  1  0  0  0  0
 19 35  1  0  0  0  0
 21 22  2  0  0  0  0
 21 36  1  0  0  0  0
 22 37  1  0  0  0  0
M  CHG  1  14   1
M  END
> <s_m_source_file>
AV-unprocessed.smi

> <i_m_source_file_index>
1289

> <i_lp_mmshare_version>
43012

> <i_f3d_flags>
0

> <s_epik_input>
TiNDYzFbY0hdW2NIXWMoW2NIXVtjSF0xKU9bQ0gyXVtDQEhdKFtPSF0pW0NIMl1uKFtjSF1uMiljKGMyMylbY0hdW2NIXVtjSF1bY0hdMw==

> <s_epik_cmdline>
J2VwaWtfcHl0aG9uJywgJy1waCcsICc3LjAnLCAnLXRuJywgJzgnLCAnLW1hJywgJzIwMCcsICctbWV0YWxfYmluZGluZycsICctaW1hZScsICc8aW5maWxlLm1hZT4nLCAnLW9tYWUnLCAnPG91dGZpbGUubWFlPic=

> <r_epik_Ionization_Penalty>
1.39523

> <r_epik_Ionization_Penalty_Charging>
1.39523

> <r_epik_Ionization_Penalty_Neutral>
2.3993e-06

> <r_epik_State_Penalty>
1.47691

> <r_epik_Charging_Adjusted_Penalty>
2.87215

> <i_epik_Tot_Q>
1

> <i_epik_Tot_abs_Q>
1

> <r_epik_Metal_State_Penalty>
5.51858

> <b_epik_Metal_Only>
0

> <s_lp_Force_Field>
OPLS_2005

> <r_lp_Energy>
20.386

> <b_lp_Chiralities_Consistent>
1

> <s_lp_Variant>
AV-unprocessed.smi:1289-4

> <Gold.Version>
5.8.1

> <Gold.Id.Protein>
6NUR|6NUR_protein|mol2

> <Gold.PLP.Fitness>
54.1932

> <Gold.PLP.PLP>
-46.4290

> <Gold.PLP.part.hbond>
-2.0000

> <Gold.PLP.part.metal>
0.0000

> <Gold.PLP.part.buried>
-6.3488

> <Gold.PLP.part.nonpolar>
-37.8491

> <Gold.PLP.part.repulsive>
0.1101

> <Gold.PLP.ligand.clash>
0.0000

> <Gold.PLP.ligand.torsion>
0.6374

> <Gold.PLP.Chemscore.Hbond>
3.0000

> <Gold.PLP.Chemscore.CHOScore>
0.0000

> <Gold.PLP.Chemscore.Metal>
0.0000

> <Gold.Chemscore.Hbonds>
donor molecule, donor type, donor heavy atom, donor atom, acceptor molecule, acceptor atom, score
      L1  H    14    38       P1  8028  2.00
      P1  H  7997  8008       L1    10  0.90

> <Gold.PLP.Chemscore.Internal.Correction>
0.0390

> <Gold.Rescore>
     Score         DG    S(hbond)    S(metal)    S(lipo)     H(rot)  DE(clash)    DE(int)     intcor
     16.67     -17.24       1.10        0.00     125.65       2.58       0.09       0.47       ----

> <Gold.Chemscore.Fitness>
16.6722

> <Gold.Chemscore.DG>
-17.2359

> <Gold.Chemscore.ZeroCoef>
-5.4800

> <Gold.Chemscore.Hbond>
1.0957

> <Gold.Chemscore.Metal>
0.0000

> <Gold.Chemscore.Lipo>
125.6451

> <Gold.Chemscore.Internal_Hbond>
0.0000

> <Gold.Chemscore.DEClash>
0.0943

> <Gold.Chemscore.DEInternal>
0.4694

> <Gold.Chemscore.Rot>
2.5798

> <Gold.Chemscore.Internal.Correction>
   9.000000E+99

> <Gold.Chemscore.Hbonds>
donor molecule, donor type, donor heavy atom, donor atom, acceptor molecule, acceptor atom, score
      L1  H    14    38       P1  8028  0.99
      P1  H  7997  8008       L1    10  0.06

> <Gold.Chemscore.Hbond.Weighted>
-3.6597

> <Gold.Chemscore.Metal.Weighted>
-0.0000

> <Gold.Chemscore.Lipo.Weighted>
-14.7005

> <Gold.Chemscore.Internal_Hbond.Weighted>
0.0000

> <Gold.Chemscore.DEClash.Weighted>
0.0943

> <Gold.Chemscore.DEInternal.Weighted>
0.4694

> <Gold.Chemscore.Rot.Weighted>
6.6043

> <Gold.Chemscore.Internal.Correction.Weighted>
   9.000000E+99

> <Gold.Protein.RotatedTorsions>
[ 6907 6896 6895 6894 ] final   11.19 input  -60.11 | X-H torsion
[ 7974 7965 7964 7962 ] final -143.63 input  175.53 | X-H torsion
[ 8008 7997 7996 7995 ] final  -67.46 input   59.86 | X-H torsion
[ 10167 10162 10161 10158 ] final -101.94 input  -65.29 | X-H torsion
[ 10718 10713 10712 10709 ] final  -30.14 input   66.30 | X-H torsion
[ 10763 10752 10751 10750 ] final  167.56 input  -60.55 | X-H torsion
[ 11005 11000 10999 10996 ] final  -32.27 input  -57.11 | X-H torsion

> <Gold.Protein.ActiveResidues>
 VAL166  LYS551  ARG553  GLY616  TRP617  ASP618  TYR619  PRO620  LYS621  CYS622 
 ASP623  PHE694  ASN695  SER759  ASP760  ASP761  ALA762  ILE779  LEU786  VAL792 
 PHE793  MET794  SER795  GLU796  ALA797  LYS798  CYS799  TRP800  GLU811  SER814 

> <Gold.Protein.RotatedAtoms>
  151.7504  135.0834  160.0329 H   0  0  0  0  0  0  0  0  0  0  0  0  # atno 6907 bound_to 6896
  152.3421  133.6074  159.5892 H   0  0  0  0  0  0  0  0  0  0  0  0  # atno 6908 bound_to 6896
  150.7485  133.9622  159.3561 H   0  0  0  0  0  0  0  0  0  0  0  0  # atno 6909 bound_to 6896
  144.8356  140.5811  143.5486 H   0  0  0  0  0  0  0  0  0  0  0  0  # atno 7974 bound_to 7965
  154.4801  140.0892  156.7358 H   0  0  0  0  0  0  0  0  0  0  0  0  # atno 8008 bound_to 7997
  155.4492  140.3457  155.4280 H   0  0  0  0  0  0  0  0  0  0  0  0  # atno 8009 bound_to 7997
  156.1178  140.1466  156.9235 H   0  0  0  0  0  0  0  0  0  0  0  0  # atno 8010 bound_to 7997
  140.2360  143.3572  152.0844 H   0  0  0  0  0  0  0  0  0  0  0  0  # atno 10167 bound_to 10162
  156.4036  130.4395  149.7304 H   0  0  0  0  0  0  0  0  0  0  0  0  # atno 10718 bound_to 10713
  154.3556  135.2753  155.2348 H   0  0  0  0  0  0  0  0  0  0  0  0  # atno 10763 bound_to 10752
  154.4558  135.5919  153.6226 H   0  0  0  0  0  0  0  0  0  0  0  0  # atno 10764 bound_to 10752
  152.9847  135.6053  154.3771 H   0  0  0  0  0  0  0  0  0  0  0  0  # atno 10765 bound_to 10752
  140.9538  133.7205  156.1261 H   0  0  0  0  0  0  0  0  0  0  0  0  # atno 11005 bound_to 11000
  145.4802  139.1496  143.3766 LP  0  0  0  0  0  0  0  0  0  0  0  0  # atno 17320 bound_to 7965
  146.2655  140.4938  142.8836 LP  0  0  0  0  0  0  0  0  0  0  0  0  # atno 17321 bound_to 7965
  139.5093  144.6865  151.5872 LP  0  0  0  0  0  0  0  0  0  0  0  0  # atno 17342 bound_to 10162
  140.6149  143.9367  150.6481 LP  0  0  0  0  0  0  0  0  0  0  0  0  # atno 17343 bound_to 10162
  156.4311  130.7815  151.2835 LP  0  0  0  0  0  0  0  0  0  0  0  0  # atno 17370 bound_to 10713
  157.7505  131.0154  150.3502 LP  0  0  0  0  0  0  0  0  0  0  0  0  # atno 17371 bound_to 10713
  140.7565  134.3987  157.5533 LP  0  0  0  0  0  0  0  0  0  0  0  0  # atno 17394 bound_to 11000
  139.8856  134.8934  156.2636 LP  0  0  0  0  0  0  0  0  0  0  0  0  # atno 17395 bound_to 11000

$$$$
