AV-unprocessed.smi:1288|AV-procd|sdf|5383|dock1
  -GOLD-   22720 4533D 1   1.00000     0.00000
 Structure written by MMmdl.
 43 45  0  0  0  0  0  0  0  0  2 V2000
  150.8647  141.6754  156.1166 C   0  0  0  0  0  0  0  0  0  0  0  0
  151.5167  141.8300  157.4497 C   0  0  0  0  0  0  0  0  0  0  0  0
  151.6568  142.9945  158.1438 N   0  3  0  0  0  0  0  0  0  0  0  0
  152.3155  142.7492  159.3494 C   0  0  0  0  0  0  0  0  0  0  0  0
  152.6810  143.6109  160.3792 C   0  0  0  0  0  0  0  0  0  0  0  0
  153.3426  143.0338  161.4827 C   0  0  0  0  0  0  0  0  0  0  0  0
  153.6165  141.6517  161.5337 C   0  0  0  0  0  0  0  0  0  0  0  0
  153.2434  140.7885  160.4825 C   0  0  0  0  0  0  0  0  0  0  0  0
  152.5912  141.3668  159.3932 C   0  0  0  0  0  0  0  0  0  0  0  0
  152.0845  140.8415  158.1978 N   0  0  0  0  0  0  0  0  0  0  0  0
  152.2191  139.4028  157.9160 C   0  0  0  0  0  0  0  0  0  0  0  0
  151.5932  138.5111  159.0070 C   0  0  2  0  0  0  0  0  0  0  0  0
  152.5427  137.5539  159.4327 O   0  0  0  0  0  0  0  0  0  0  0  0
  150.3541  137.7643  158.4899 C   0  0  0  0  0  0  0  0  0  0  0  0
  149.8926  136.8806  159.4980 O   0  0  0  0  0  0  0  0  0  0  0  0
  148.5768  136.4108  159.2573 C   0  0  0  0  0  0  0  0  0  0  0  0
  147.9532  135.8508  160.5203 C   0  0  0  0  0  0  0  0  0  0  0  0
  147.8549  136.6530  161.6770 C   0  0  0  0  0  0  0  0  0  0  0  0
  147.2724  136.1354  162.8505 C   0  0  0  0  0  0  0  0  0  0  0  0
  146.7860  134.8142  162.8719 C   0  0  0  0  0  0  0  0  0  0  0  0
  146.8817  134.0107  161.7192 C   0  0  0  0  0  0  0  0  0  0  0  0
  147.4634  134.5269  160.5445 C   0  0  0  0  0  0  0  0  0  0  0  0
  147.5486  133.7468  159.4400 F   0  0  0  0  0  0  0  0  0  0  0  0
  150.4276  142.6200  155.7916 H   0  0  0  0  0  0  0  0  0  0  0  0
  150.0731  140.9276  156.1676 H   0  0  0  0  0  0  0  0  0  0  0  0
  151.5975  141.3583  155.3744 H   0  0  0  0  0  0  0  0  0  0  0  0
  152.4704  144.6697  160.3434 H   0  0  0  0  0  0  0  0  0  0  0  0
  153.6440  143.6636  162.3074 H   0  0  0  0  0  0  0  0  0  0  0  0
  154.1218  141.2440  162.3974 H   0  0  0  0  0  0  0  0  0  0  0  0
  153.4523  139.7305  160.5361 H   0  0  0  0  0  0  0  0  0  0  0  0
  151.7278  139.2169  156.9601 H   0  0  0  0  0  0  0  0  0  0  0  0
  153.2711  139.1612  157.7637 H   0  0  0  0  0  0  0  0  0  0  0  0
  151.3160  139.1342  159.8581 H   0  0  0  0  0  0  0  0  0  0  0  0
  152.2176  136.6946  159.2096 H   0  0  0  0  0  0  0  0  0  0  0  0
  149.5592  138.4795  158.2725 H   0  0  0  0  0  0  0  0  0  0  0  0
  150.5725  137.2326  157.5619 H   0  0  0  0  0  0  0  0  0  0  0  0
  147.9505  137.2229  158.8841 H   0  0  0  0  0  0  0  0  0  0  0  0
  148.5924  135.6401  158.4846 H   0  0  0  0  0  0  0  0  0  0  0  0
  148.2240  137.6682  161.6680 H   0  0  0  0  0  0  0  0  0  0  0  0
  147.1977  136.7526  163.7337 H   0  0  0  0  0  0  0  0  0  0  0  0
  146.3393  134.4172  163.7714 H   0  0  0  0  0  0  0  0  0  0  0  0
  146.5076  132.9978  161.7358 H   0  0  0  0  0  0  0  0  0  0  0  0
  151.3243  143.8919  157.8149 H   0  0  0  0  0  0  0  0  0  0  0  0
  1  2  1  0  0  0  0
  1 24  1  0  0  0  0
  1 25  1  0  0  0  0
  1 26  1  0  0  0  0
  2 10  1  0  0  0  0
  2  3  2  0  0  0  0
  3  4  1  0  0  0  0
  3 43  1  0  0  0  0
  4  9  2  0  0  0  0
  4  5  1  0  0  0  0
  5  6  2  0  0  0  0
  5 27  1  0  0  0  0
  6  7  1  0  0  0  0
  6 28  1  0  0  0  0
  7  8  2  0  0  0  0
  7 29  1  0  0  0  0
  8  9  1  0  0  0  0
  8 30  1  0  0  0  0
  9 10  1  0  0  0  0
 10 11  1  0  0  0  0
 11 12  1  0  0  0  0
 11 31  1  0  0  0  0
 11 32  1  0  0  0  0
 12 13  1  0  0  0  0
 12 14  1  0  0  0  0
 12 33  1  0  0  0  0
 13 34  1  0  0  0  0
 14 15  1  0  0  0  0
 14 35  1  0  0  0  0
 14 36  1  0  0  0  0
 15 16  1  0  0  0  0
 16 17  1  0  0  0  0
 16 37  1  0  0  0  0
 16 38  1  0  0  0  0
 17 22  1  0  0  0  0
 17 18  2  0  0  0  0
 18 19  1  0  0  0  0
 18 39  1  0  0  0  0
 19 20  2  0  0  0  0
 19 40  1  0  0  0  0
 20 21  1  0  0  0  0
 20 41  1  0  0  0  0
 21 22  2  0  0  0  0
 21 42  1  0  0  0  0
 22 23  1  0  0  0  0
M  CHG  1   3   1
M  END
> <s_m_source_file>
AV-unprocessed.smi

> <i_m_source_file_index>
1288

> <i_lp_mmshare_version>
43012

> <i_f3d_flags>
0

> <s_epik_input>
W2NIXTFbY0hdW2NIXVtjSF1jKGMxMiluKGMobjIpW0NIM10pW0NIMl1bQ0BIXShbT0hdKVtDSDJdT1tDSDJdYzNbY0hdW2NIXVtjSF1bY0hdYzNG

> <s_epik_cmdline>
J2VwaWtfcHl0aG9uJywgJy1waCcsICc3LjAnLCAnLXRuJywgJzgnLCAnLW1hJywgJzIwMCcsICctbWV0YWxfYmluZGluZycsICctaW1hZScsICc8aW5maWxlLm1hZT4nLCAnLW9tYWUnLCAnPG91dGZpbGUubWFlPic=

> <r_epik_Ionization_Penalty>
0.952

> <r_epik_Ionization_Penalty_Charging>
0.951999

> <r_epik_Ionization_Penalty_Neutral>
1.07667e-06

> <r_epik_State_Penalty>
0.996343

> <r_epik_Charging_Adjusted_Penalty>
1.94834

> <i_epik_Tot_Q>
1

> <i_epik_Tot_abs_Q>
1

> <r_epik_Metal_State_Penalty>
4.96724

> <b_epik_Metal_Only>
0

> <s_lp_Force_Field>
OPLS_2005

> <r_lp_Energy>
19.7378

> <b_lp_Chiralities_Consistent>
1

> <s_lp_Variant>
AV-unprocessed.smi:1288-3

> <Gold.Version>
5.8.1

> <Gold.Id.Protein>
6NUR|6NUR_protein|mol2

> <Gold.PLP.Fitness>
52.9553

> <Gold.PLP.PLP>
-51.6001

> <Gold.PLP.part.hbond>
-1.0000

> <Gold.PLP.part.metal>
0.0000

> <Gold.PLP.part.buried>
-6.1758

> <Gold.PLP.part.nonpolar>
-45.1042

> <Gold.PLP.part.repulsive>
0.0241

> <Gold.PLP.ligand.clash>
0.0000

> <Gold.PLP.ligand.torsion>
0.8910

> <Gold.PLP.Chemscore.Hbond>
1.0000

> <Gold.PLP.Chemscore.CHOScore>
0.0000

> <Gold.PLP.Chemscore.Metal>
0.0000

> <Gold.Chemscore.Hbonds>
donor molecule, donor type, donor heavy atom, donor atom, acceptor molecule, acceptor atom, score
      P1  H  6896  6909       L1    15  0.55

> <Gold.PLP.Chemscore.Internal.Correction>
0.1373

> <Gold.Rescore>
     Score         DG    S(hbond)    S(metal)    S(lipo)     H(rot)  DE(clash)    DE(int)     intcor
     17.36     -18.35       1.03        0.00     132.57       2.38       0.04       0.95       ----

> <Gold.Chemscore.Fitness>
17.3580

> <Gold.Chemscore.DG>
-18.3506

> <Gold.Chemscore.ZeroCoef>
-5.4800

> <Gold.Chemscore.Hbond>
1.0344

> <Gold.Chemscore.Metal>
0.0000

> <Gold.Chemscore.Lipo>
132.5705

> <Gold.Chemscore.Internal_Hbond>
0.0000

> <Gold.Chemscore.DEClash>
0.0383

> <Gold.Chemscore.DEInternal>
0.9543

> <Gold.Chemscore.Rot>
2.3809

> <Gold.Chemscore.Internal.Correction>
   9.000000E+99

> <Gold.Chemscore.Hbonds>
donor molecule, donor type, donor heavy atom, donor atom, acceptor molecule, acceptor atom, score
      P1  H  6896  6909       L1    15  0.28

> <Gold.Chemscore.Hbond.Weighted>
-3.4549

> <Gold.Chemscore.Metal.Weighted>
-0.0000

> <Gold.Chemscore.Lipo.Weighted>
-15.5107

> <Gold.Chemscore.Internal_Hbond.Weighted>
0.0000

> <Gold.Chemscore.DEClash.Weighted>
0.0383

> <Gold.Chemscore.DEInternal.Weighted>
0.9543

> <Gold.Chemscore.Rot.Weighted>
6.0951

> <Gold.Chemscore.Internal.Correction.Weighted>
   9.000000E+99

> <Gold.Protein.RotatedTorsions>
[ 6907 6896 6895 6894 ] final   94.44 input  -60.11 | X-H torsion
[ 7974 7965 7964 7962 ] final -142.01 input  175.53 | X-H torsion
[ 8008 7997 7996 7995 ] final  -58.54 input   59.86 | X-H torsion
[ 10167 10162 10161 10158 ] final  115.55 input  -65.29 | X-H torsion
[ 10718 10713 10712 10709 ] final -178.60 input   66.30 | X-H torsion
[ 10763 10752 10751 10750 ] final -119.58 input  -60.55 | X-H torsion
[ 11005 11000 10999 10996 ] final  123.78 input  -57.11 | X-H torsion

> <Gold.Protein.ActiveResidues>
 VAL166  LYS551  ARG553  GLY616  TRP617  ASP618  TYR619  PRO620  LYS621  CYS622 
 ASP623  PHE694  ASN695  SER759  ASP760  ASP761  ALA762  ILE779  LEU786  VAL792 
 PHE793  MET794  SER795  GLU796  ALA797  LYS798  CYS799  TRP800  GLU811  SER814 

> <Gold.Protein.RotatedAtoms>
  152.5449  134.1194  159.8391 H   0  0  0  0  0  0  0  0  0  0  0  0  # atno 6907 bound_to 6896
  151.1251  133.5069  159.2608 H   0  0  0  0  0  0  0  0  0  0  0  0  # atno 6908 bound_to 6896
  151.1736  135.0339  159.8817 H   0  0  0  0  0  0  0  0  0  0  0  0  # atno 6909 bound_to 6896
  144.8476  140.6010  143.5411 H   0  0  0  0  0  0  0  0  0  0  0  0  # atno 7974 bound_to 7965
  154.4313  140.1082  156.5973 H   0  0  0  0  0  0  0  0  0  0  0  0  # atno 8008 bound_to 7997
  155.5949  140.3492  155.4558 H   0  0  0  0  0  0  0  0  0  0  0  0  # atno 8009 bound_to 7997
  156.0218  140.1241  157.0339 H   0  0  0  0  0  0  0  0  0  0  0  0  # atno 8010 bound_to 7997
  139.6309  144.7114  151.2435 H   0  0  0  0  0  0  0  0  0  0  0  0  # atno 10167 bound_to 10162
  156.8467  130.9705  151.3096 H   0  0  0  0  0  0  0  0  0  0  0  0  # atno 10718 bound_to 10713
  154.8621  135.4233  154.2321 H   0  0  0  0  0  0  0  0  0  0  0  0  # atno 10763 bound_to 10752
  153.3304  135.6988  153.6958 H   0  0  0  0  0  0  0  0  0  0  0  0  # atno 10764 bound_to 10752
  153.5977  135.3543  155.2907 H   0  0  0  0  0  0  0  0  0  0  0  0  # atno 10765 bound_to 10752
  139.9328  134.9641  156.8310 H   0  0  0  0  0  0  0  0  0  0  0  0  # atno 11005 bound_to 11000
  145.4566  139.1517  143.3889 LP  0  0  0  0  0  0  0  0  0  0  0  0  # atno 17320 bound_to 7965
  146.2757  140.4694  142.8796 LP  0  0  0  0  0  0  0  0  0  0  0  0  # atno 17321 bound_to 7965
  140.7438  143.6482  150.8272 LP  0  0  0  0  0  0  0  0  0  0  0  0  # atno 17342 bound_to 10162
  140.0107  143.5646  152.2840 LP  0  0  0  0  0  0  0  0  0  0  0  0  # atno 17343 bound_to 10162
  157.6326  130.8741  149.9301 LP  0  0  0  0  0  0  0  0  0  0  0  0  # atno 17370 bound_to 10713
  156.0851  130.3669  150.0504 LP  0  0  0  0  0  0  0  0  0  0  0  0  # atno 17371 bound_to 10713
  140.6156  134.0042  155.7595 LP  0  0  0  0  0  0  0  0  0  0  0  0  # atno 17394 bound_to 11000
  141.0926  133.9893  157.3212 LP  0  0  0  0  0  0  0  0  0  0  0  0  # atno 17395 bound_to 11000

$$$$
