AV-unprocessed.smi:2050|AV-procd|sdf|8325|dock2
  -GOLD-   2272010593D 1   1.00000     0.00000
 Structure written by MMmdl.
 33 34  0  0  0  0  0  0  0  0  1 V2000
  144.7141  131.6996  150.3499 C   0  0  0  0  0  0  0  0  0  0  0  0
  145.7904  132.0868  151.3052 C   0  0  0  0  0  0  0  0  0  0  0  0
  146.5480  133.2154  151.4464 C   0  0  0  0  0  0  0  0  0  0  0  0
  147.3781  132.9064  152.5568 C   0  0  0  0  0  0  0  0  0  0  0  0
  148.3326  133.8407  153.0337 N   0  0  0  0  0  0  0  0  0  0  0  0
  149.0552  133.7691  154.1647 C   0  0  0  0  0  0  0  0  0  0  0  0
  148.9965  132.8545  154.9871 O   0  0  0  0  0  0  0  0  0  0  0  0
  149.8649  134.8306  154.2915 N   0  0  0  0  0  0  0  0  0  0  0  0
  150.7818  135.0712  155.4020 C   0  0  0  0  0  0  0  0  0  0  0  0
  150.9498  136.5744  155.6944 C   0  0  1  0  0  0  0  0  0  0  0  0
  151.9014  136.8365  156.8781 C   0  0  0  0  0  0  0  0  0  0  0  0
  152.2077  138.3362  156.9367 C   0  0  0  0  0  0  0  0  0  0  0  0
  152.2336  138.9003  155.1949 S   0  0  0  0  0  0  0  0  0  0  0  0
  151.3115  140.0366  155.0468 O   0  0  0  0  0  0  0  0  0  0  0  0
  153.6253  138.9884  154.7281 O   0  0  0  0  0  0  0  0  0  0  0  0
  151.4653  137.3900  154.4958 C   0  0  0  0  0  0  0  0  0  0  0  0
  147.1478  131.6992  153.0494 N   0  0  0  0  0  0  0  0  0  0  0  0
  146.1291  131.1676  152.2496 O   0  0  0  0  0  0  0  0  0  0  0  0
  144.5440  132.4860  149.6142 H   0  0  0  0  0  0  0  0  0  0  0  0
  143.7764  131.5202  150.8760 H   0  0  0  0  0  0  0  0  0  0  0  0
  144.9819  130.7884  149.8149 H   0  0  0  0  0  0  0  0  0  0  0  0
  146.5114  134.1144  150.8491 H   0  0  0  0  0  0  0  0  0  0  0  0
  148.4816  134.6503  152.4499 H   0  0  0  0  0  0  0  0  0  0  0  0
  149.8456  135.5296  153.5635 H   0  0  0  0  0  0  0  0  0  0  0  0
  150.3690  134.5736  156.2799 H   0  0  0  0  0  0  0  0  0  0  0  0
  151.7518  134.6053  155.2185 H   0  0  0  0  0  0  0  0  0  0  0  0
  149.9761  136.9813  155.9724 H   0  0  0  0  0  0  0  0  0  0  0  0
  151.4835  136.4799  157.8200 H   0  0  0  0  0  0  0  0  0  0  0  0
  152.8334  136.2929  156.7167 H   0  0  0  0  0  0  0  0  0  0  0  0
  151.4123  138.8732  157.4541 H   0  0  0  0  0  0  0  0  0  0  0  0
  153.1567  138.5616  157.4229 H   0  0  0  0  0  0  0  0  0  0  0  0
  152.2399  136.8451  153.9549 H   0  0  0  0  0  0  0  0  0  0  0  0
  150.6779  137.6604  153.7922 H   0  0  0  0  0  0  0  0  0  0  0  0
  1  2  1  0  0  0  0
  1 19  1  0  0  0  0
  1 20  1  0  0  0  0
  1 21  1  0  0  0  0
  2 18  1  0  0  0  0
  2  3  2  0  0  0  0
  3  4  1  0  0  0  0
  3 22  1  0  0  0  0
  4  5  1  0  0  0  0
  4 17  2  0  0  0  0
  5  6  1  0  0  0  0
  5 23  1  0  0  0  0
  6  7  2  0  0  0  0
  6  8  1  0  0  0  0
  8  9  1  0  0  0  0
  8 24  1  0  0  0  0
  9 10  1  0  0  0  0
  9 25  1  0  0  0  0
  9 26  1  0  0  0  0
 10 16  1  0  0  0  0
 10 11  1  0  0  0  0
 10 27  1  0  0  0  0
 11 12  1  0  0  0  0
 11 28  1  0  0  0  0
 11 29  1  0  0  0  0
 12 13  1  0  0  0  0
 12 30  1  0  0  0  0
 12 31  1  0  0  0  0
 13 14  2  0  0  0  0
 13 15  2  0  0  0  0
 13 16  1  0  0  0  0
 16 32  1  0  0  0  0
 16 33  1  0  0  0  0
 17 18  1  0  0  0  0
M  END
> <s_m_source_file>
AV-unprocessed.smi

> <i_m_source_file_index>
2050

> <i_lp_mmshare_version>
43012

> <i_f3d_flags>
0

> <s_epik_input>
W0NIM11jMVtjSF1jKG5vMSlbTkhdQyg9TylbTkhdW0NIMl1bQ0BASF0oW0NIMl0yKVtDSDJdW0NIMl1TMig9Tyk9Tw==

> <s_epik_cmdline>
J2VwaWtfcHl0aG9uJywgJy1waCcsICc3LjAnLCAnLXRuJywgJzgnLCAnLW1hJywgJzIwMCcsICctbWV0YWxfYmluZGluZycsICctaW1hZScsICc8aW5maWxlLm1hZT4nLCAnLW9tYWUnLCAnPG91dGZpbGUubWFlPic=

> <r_lp_tautomer_probability>
1

> <r_epik_Ionization_Penalty>
2.22143e-05

> <r_epik_Ionization_Penalty_Charging>
0

> <r_epik_Ionization_Penalty_Neutral>
2.22143e-05

> <r_epik_State_Penalty>
-0

> <r_epik_Charging_Adjusted_Penalty>
0

> <i_epik_Tot_Q>
0

> <i_epik_Tot_abs_Q>
0

> <r_epik_Metal_State_Penalty>
-0

> <b_epik_Metal_Only>
0

> <s_lp_Force_Field>
OPLS_2005

> <r_lp_Energy>
0.896814

> <b_lp_Chiralities_Consistent>
1

> <s_lp_Variant>
AV-unprocessed.smi:2050-2

> <Gold.Version>
5.8.1

> <Gold.Id.Protein>
6NUR|6NUR_protein|mol2

> <Gold.PLP.Fitness>
41.0852

> <Gold.PLP.PLP>
-30.1530

> <Gold.PLP.part.hbond>
-4.1043

> <Gold.PLP.part.metal>
0.0000

> <Gold.PLP.part.buried>
-5.6101

> <Gold.PLP.part.nonpolar>
-20.5851

> <Gold.PLP.part.repulsive>
0.3981

> <Gold.PLP.ligand.clash>
0.0000

> <Gold.PLP.ligand.torsion>
0.2069

> <Gold.PLP.Chemscore.Hbond>
3.7808

> <Gold.PLP.Chemscore.CHOScore>
0.0000

> <Gold.PLP.Chemscore.Metal>
0.0000

> <Gold.Chemscore.Hbonds>
donor molecule, donor type, donor heavy atom, donor atom, acceptor molecule, acceptor atom, score
      L1  H     5    23       P1  7948  0.75
      L1  H     8    24       P1  7948  0.48
      P1  H  7989  7998       L1    14  1.00
      P1  H  7997  8009       L1    15  0.98

> <Gold.PLP.Chemscore.Internal.Correction>
0.0036

> <Gold.Rescore>
     Score         DG    S(hbond)    S(metal)    S(lipo)     H(rot)  DE(clash)    DE(int)     intcor
     18.40     -19.89       3.75        0.00      45.88       1.36       0.00       1.49       ----

> <Gold.Chemscore.Fitness>
18.3985

> <Gold.Chemscore.DG>
-19.8929

> <Gold.Chemscore.ZeroCoef>
-5.4800

> <Gold.Chemscore.Hbond>
3.7480

> <Gold.Chemscore.Metal>
0.0000

> <Gold.Chemscore.Lipo>
45.8784

> <Gold.Chemscore.Internal_Hbond>
0.0000

> <Gold.Chemscore.DEClash>
0.0000

> <Gold.Chemscore.DEInternal>
1.4944

> <Gold.Chemscore.Rot>
1.3567

> <Gold.Chemscore.Internal.Correction>
   9.000000E+99

> <Gold.Chemscore.Hbonds>
donor molecule, donor type, donor heavy atom, donor atom, acceptor molecule, acceptor atom, score
      L1  H     5    23       P1  7948  0.09
      L1  H     8    24       P1  7948  0.02
      P1  H  7989  7998       L1    14  0.70
      P1  H  7997  8009       L1    15  0.47

> <Gold.Chemscore.Hbond.Weighted>
-12.5184

> <Gold.Chemscore.Metal.Weighted>
-0.0000

> <Gold.Chemscore.Lipo.Weighted>
-5.3678

> <Gold.Chemscore.Internal_Hbond.Weighted>
0.0000

> <Gold.Chemscore.DEClash.Weighted>
0.0000

> <Gold.Chemscore.DEInternal.Weighted>
1.4944

> <Gold.Chemscore.Rot.Weighted>
3.4732

> <Gold.Chemscore.Internal.Correction.Weighted>
   9.000000E+99

> <Gold.Protein.RotatedTorsions>
[ 6907 6896 6895 6894 ] final   87.23 input  -60.11 | X-H torsion
[ 7974 7965 7964 7962 ] final -152.33 input  175.53 | X-H torsion
[ 8008 7997 7996 7995 ] final -138.42 input   59.86 | X-H torsion
[ 10167 10162 10161 10158 ] final   52.64 input  -65.29 | X-H torsion
[ 10718 10713 10712 10709 ] final   78.27 input   66.30 | X-H torsion
[ 10763 10752 10751 10750 ] final  154.70 input  -60.55 | X-H torsion
[ 11005 11000 10999 10996 ] final  -25.06 input  -57.11 | X-H torsion

> <Gold.Protein.ActiveResidues>
 VAL166  LYS551  ARG553  GLY616  TRP617  ASP618  TYR619  PRO620  LYS621  CYS622 
 ASP623  PHE694  ASN695  SER759  ASP760  ASP761  ALA762  ILE779  LEU786  VAL792 
 PHE793  MET794  SER795  GLU796  ALA797  LYS798  CYS799  TRP800  GLU811  SER814 

> <Gold.Protein.RotatedAtoms>
  152.5408  134.2308  159.8823 H   0  0  0  0  0  0  0  0  0  0  0  0  # atno 6907 bound_to 6896
  151.2280  133.4459  159.2610 H   0  0  0  0  0  0  0  0  0  0  0  0  # atno 6908 bound_to 6896
  151.0742  134.9831  159.8380 H   0  0  0  0  0  0  0  0  0  0  0  0  # atno 6909 bound_to 6896
  144.7800  140.4676  143.5846 H   0  0  0  0  0  0  0  0  0  0  0  0  # atno 7974 bound_to 7965
  155.4281  140.0523  157.3020 H   0  0  0  0  0  0  0  0  0  0  0  0  # atno 8008 bound_to 7997
  154.4872  140.2105  155.9586 H   0  0  0  0  0  0  0  0  0  0  0  0  # atno 8009 bound_to 7997
  156.1292  140.3175  155.8328 H   0  0  0  0  0  0  0  0  0  0  0  0  # atno 8010 bound_to 7997
  140.2492  144.3498  150.6354 H   0  0  0  0  0  0  0  0  0  0  0  0  # atno 10167 bound_to 10162
  157.6739  130.9860  150.1763 H   0  0  0  0  0  0  0  0  0  0  0  0  # atno 10718 bound_to 10713
  154.1565  135.2812  155.3121 H   0  0  0  0  0  0  0  0  0  0  0  0  # atno 10763 bound_to 10752
  154.6178  135.5477  153.7546 H   0  0  0  0  0  0  0  0  0  0  0  0  # atno 10764 bound_to 10752
  153.0205  135.6431  154.1708 H   0  0  0  0  0  0  0  0  0  0  0  0  # atno 10765 bound_to 10752
  140.8903  133.7593  156.0412 H   0  0  0  0  0  0  0  0  0  0  0  0  # atno 11005 bound_to 11000
  145.6077  139.1510  143.3093 LP  0  0  0  0  0  0  0  0  0  0  0  0  # atno 17320 bound_to 7965
  146.2002  140.6195  142.9106 LP  0  0  0  0  0  0  0  0  0  0  0  0  # atno 17321 bound_to 7965
  140.6054  143.2167  151.6991 LP  0  0  0  0  0  0  0  0  0  0  0  0  # atno 17342 bound_to 10162
  139.5052  144.3727  152.0454 LP  0  0  0  0  0  0  0  0  0  0  0  0  # atno 17343 bound_to 10162
  156.2505  130.3700  149.8237 LP  0  0  0  0  0  0  0  0  0  0  0  0  # atno 17370 bound_to 10713
  156.6011  130.8547  151.3432 LP  0  0  0  0  0  0  0  0  0  0  0  0  # atno 17371 bound_to 10713
  140.8355  134.3128  157.5333 LP  0  0  0  0  0  0  0  0  0  0  0  0  # atno 17394 bound_to 11000
  139.8729  134.9387  156.3722 LP  0  0  0  0  0  0  0  0  0  0  0  0  # atno 17395 bound_to 11000

$$$$
