AV-unprocessed.smi:2061|AV-procd|sdf|8391|dock3
  -GOLD-   2272011 73D 1   1.00000     0.00000
 Structure written by MMmdl.
 45 46  0  0  0  0  0  0  0  0  3 V2000
  147.2708  136.7351  163.2521 C   0  0  0  0  0  0  0  0  0  0  0  0
  147.4589  136.2649  161.8508 C   0  0  0  0  0  0  0  0  0  0  0  0
  147.4167  135.0278  161.2718 C   0  0  0  0  0  0  0  0  0  0  0  0
  147.6829  135.3039  159.9042 C   0  0  0  0  0  0  0  0  0  0  0  0
  147.7313  134.2539  158.9494 N   0  0  0  0  0  0  0  0  0  0  0  0
  147.6194  134.3277  157.6107 C   0  0  0  0  0  0  0  0  0  0  0  0
  147.4240  135.4176  157.0590 O   0  0  0  0  0  0  0  0  0  0  0  0
  147.7507  133.1110  157.0130 N   0  5  0  0  0  0  0  0  0  0  0  0
  147.4082  132.8244  155.6186 C   0  0  0  0  0  0  0  0  0  0  0  0
  145.8746  132.9236  155.3849 C   0  0  1  0  0  0  0  0  0  0  0  0
  145.2670  134.3051  155.7354 C   0  0  0  0  0  0  0  0  0  0  0  0
  145.5265  132.4662  154.0041 N   0  3  1  0  0  0  0  0  0  0  0  0
  145.6318  133.5353  152.9808 C   0  0  0  0  0  0  0  0  0  0  0  0
  145.0653  133.0593  151.6287 C   0  0  2  0  0  0  0  0  0  0  0  0
  143.5287  132.9774  151.6044 C   0  0  0  0  0  0  0  0  0  0  0  0
  145.6767  131.8294  151.2378 O   0  0  0  0  0  0  0  0  0  0  0  0
  145.5725  130.7751  152.1919 C   0  0  1  0  0  0  0  0  0  0  0  0
  146.2819  129.5460  151.6131 C   0  0  0  0  0  0  0  0  0  0  0  0
  146.1980  131.2291  153.5217 C   0  0  0  0  0  0  0  0  0  0  0  0
  147.8711  136.5947  159.6711 N   0  0  0  0  0  0  0  0  0  0  0  0
  147.7275  137.2168  160.9168 O   0  0  0  0  0  0  0  0  0  0  0  0
  147.3789  135.9104  163.9567 H   0  0  0  0  0  0  0  0  0  0  0  0
  146.2781  137.1656  163.3835 H   0  0  0  0  0  0  0  0  0  0  0  0
  148.0077  137.4966  163.5084 H   0  0  0  0  0  0  0  0  0  0  0  0
  147.2266  134.0789  161.7507 H   0  0  0  0  0  0  0  0  0  0  0  0
  147.8788  133.3291  159.3258 H   0  0  0  0  0  0  0  0  0  0  0  0
  147.9150  133.5079  154.9371 H   0  0  0  0  0  0  0  0  0  0  0  0
  147.7461  131.8295  155.3235 H   0  0  0  0  0  0  0  0  0  0  0  0
  145.4199  132.2042  156.0680 H   0  0  0  0  0  0  0  0  0  0  0  0
  145.4010  134.5503  156.7904 H   0  0  0  0  0  0  0  0  0  0  0  0
  144.1927  134.3146  155.5505 H   0  0  0  0  0  0  0  0  0  0  0  0
  145.7060  135.1193  155.1560 H   0  0  0  0  0  0  0  0  0  0  0  0
  145.0964  134.4293  153.3040 H   0  0  0  0  0  0  0  0  0  0  0  0
  146.6790  133.8184  152.8663 H   0  0  0  0  0  0  0  0  0  0  0  0
  145.3519  133.7916  150.8733 H   0  0  0  0  0  0  0  0  0  0  0  0
  143.0876  133.9599  151.7745 H   0  0  0  0  0  0  0  0  0  0  0  0
  143.1362  132.3110  152.3720 H   0  0  0  0  0  0  0  0  0  0  0  0
  143.1739  132.6213  150.6371 H   0  0  0  0  0  0  0  0  0  0  0  0
  144.5245  130.5185  152.3480 H   0  0  0  0  0  0  0  0  0  0  0  0
  146.2259  128.7001  152.2986 H   0  0  0  0  0  0  0  0  0  0  0  0
  147.3355  129.7514  151.4204 H   0  0  0  0  0  0  0  0  0  0  0  0
  145.8256  129.2407  150.6711 H   0  0  0  0  0  0  0  0  0  0  0  0
  147.2642  131.4120  153.3808 H   0  0  0  0  0  0  0  0  0  0  0  0
  146.1037  130.4306  154.2583 H   0  0  0  0  0  0  0  0  0  0  0  0
  144.5414  132.2481  154.0549 H   0  0  0  0  0  0  0  0  0  0  0  0
  1  2  1  0  0  0  0
  1 22  1  0  0  0  0
  1 23  1  0  0  0  0
  1 24  1  0  0  0  0
  2 21  1  0  0  0  0
  2  3  2  0  0  0  0
  3  4  1  0  0  0  0
  3 25  1  0  0  0  0
  4  5  1  0  0  0  0
  4 20  2  0  0  0  0
  5  6  1  0  0  0  0
  5 26  1  0  0  0  0
  6  7  2  0  0  0  0
  6  8  1  0  0  0  0
  8  9  1  0  0  0  0
  9 10  1  0  0  0  0
  9 27  1  0  0  0  0
  9 28  1  0  0  0  0
 10 11  1  0  0  0  0
 10 12  1  0  0  0  0
 10 29  1  0  0  0  0
 11 30  1  0  0  0  0
 11 31  1  0  0  0  0
 11 32  1  0  0  0  0
 12 19  1  0  0  0  0
 12 13  1  0  0  0  0
 12 45  1  0  0  0  0
 13 14  1  0  0  0  0
 13 33  1  0  0  0  0
 13 34  1  0  0  0  0
 14 15  1  0  0  0  0
 14 16  1  0  0  0  0
 14 35  1  0  0  0  0
 15 36  1  0  0  0  0
 15 37  1  0  0  0  0
 15 38  1  0  0  0  0
 16 17  1  0  0  0  0
 17 18  1  0  0  0  0
 17 19  1  0  0  0  0
 17 39  1  0  0  0  0
 18 40  1  0  0  0  0
 18 41  1  0  0  0  0
 18 42  1  0  0  0  0
 19 43  1  0  0  0  0
 19 44  1  0  0  0  0
 20 21  1  0  0  0  0
M  CHG  1   8  -1
M  CHG  1  12   1
M  END
> <s_m_source_file>
AV-unprocessed.smi

> <i_m_source_file_index>
2061

> <i_lp_mmshare_version>
43012

> <i_f3d_flags>
0

> <s_epik_input>
W0NIM11jMVtjSF1jKG5vMSlbTkhdQyg9TylbTkhdW0NIMl1bQ0BIXShbQ0gzXSlOMltDSDJdW0NAQEhdKFtDSDNdKU9bQ0BASF0oW0NIM10pW0NIMl0y

> <s_epik_cmdline>
J2VwaWtfcHl0aG9uJywgJy1waCcsICc3LjAnLCAnLXRuJywgJzgnLCAnLW1hJywgJzIwMCcsICctbWV0YWxfYmluZGluZycsICctaW1hZScsICc8aW5maWxlLm1hZT4nLCAnLW9tYWUnLCAnPG91dGZpbGUubWFlPic=

> <r_epik_Ionization_Penalty>
6.8073

> <r_epik_Ionization_Penalty_Charging>
6.80729

> <r_epik_Ionization_Penalty_Neutral>
5.65391e-06

> <r_epik_State_Penalty>
7.47323

> <r_epik_Charging_Adjusted_Penalty>
14.2805

> <i_epik_Tot_Q>
0

> <i_epik_Tot_abs_Q>
2

> <r_epik_Metal_State_Penalty>
3.40035

> <b_epik_Metal_Only>
1

> <s_lp_Force_Field>
OPLS_2005

> <r_lp_Energy>
19.3707

> <b_lp_Chiralities_Consistent>
1

> <s_lp_Variant>
AV-unprocessed.smi:2061-32

> <Gold.Version>
5.8.1

> <Gold.Id.Protein>
6NUR|6NUR_protein|mol2

> <Gold.PLP.Fitness>
37.2758

> <Gold.PLP.PLP>
-27.2986

> <Gold.PLP.part.hbond>
-2.9641

> <Gold.PLP.part.metal>
0.0000

> <Gold.PLP.part.buried>
-5.4426

> <Gold.PLP.part.nonpolar>
-20.7436

> <Gold.PLP.part.repulsive>
0.1775

> <Gold.PLP.ligand.clash>
0.0000

> <Gold.PLP.ligand.torsion>
0.4569

> <Gold.PLP.Chemscore.Hbond>
3.5805

> <Gold.PLP.Chemscore.CHOScore>
0.0000

> <Gold.PLP.Chemscore.Metal>
0.0000

> <Gold.Chemscore.Hbonds>
donor molecule, donor type, donor heavy atom, donor atom, acceptor molecule, acceptor atom, score
      L1  H    12    45       P1 10957  1.92
      P1  H  6931  6943       L1    21  0.82
      P1  H  6934  6947       L1    21  0.88

> <Gold.PLP.Chemscore.Internal.Correction>
0.1495

> <Gold.Rescore>
     Score         DG    S(hbond)    S(metal)    S(lipo)     H(rot)  DE(clash)    DE(int)     intcor
     11.55     -15.68       1.88        0.00      67.59       1.56       0.16       3.98       ----

> <Gold.Chemscore.Fitness>
11.5458

> <Gold.Chemscore.DG>
-15.6815

> <Gold.Chemscore.ZeroCoef>
-5.4800

> <Gold.Chemscore.Hbond>
1.8784

> <Gold.Chemscore.Metal>
0.0000

> <Gold.Chemscore.Lipo>
67.5933

> <Gold.Chemscore.Internal_Hbond>
0.0000

> <Gold.Chemscore.DEClash>
0.1605

> <Gold.Chemscore.DEInternal>
3.9751

> <Gold.Chemscore.Rot>
1.5550

> <Gold.Chemscore.Internal.Correction>
   9.000000E+99

> <Gold.Chemscore.Hbonds>
donor molecule, donor type, donor heavy atom, donor atom, acceptor molecule, acceptor atom, score
      L1  H    12    45       P1 10957  0.23
      P1  H  6931  6943       L1    21  0.18
      P1  H  6934  6947       L1    21  0.83

> <Gold.Chemscore.Hbond.Weighted>
-6.2739

> <Gold.Chemscore.Metal.Weighted>
-0.0000

> <Gold.Chemscore.Lipo.Weighted>
-7.9084

> <Gold.Chemscore.Internal_Hbond.Weighted>
0.0000

> <Gold.Chemscore.DEClash.Weighted>
0.1605

> <Gold.Chemscore.DEInternal.Weighted>
3.9751

> <Gold.Chemscore.Rot.Weighted>
3.9809

> <Gold.Chemscore.Internal.Correction.Weighted>
   9.000000E+99

> <Gold.Protein.RotatedTorsions>
[ 6907 6896 6895 6894 ] final  -61.68 input  -60.11 | X-H torsion
[ 7974 7965 7964 7962 ] final  -19.34 input  175.53 | X-H torsion
[ 8008 7997 7996 7995 ] final  134.55 input   59.86 | X-H torsion
[ 10167 10162 10161 10158 ] final  -56.76 input  -65.29 | X-H torsion
[ 10718 10713 10712 10709 ] final  -72.02 input   66.30 | X-H torsion
[ 10763 10752 10751 10750 ] final  173.53 input  -60.55 | X-H torsion
[ 11005 11000 10999 10996 ] final -149.38 input  -57.11 | X-H torsion

> <Gold.Protein.ActiveResidues>
 VAL166  LYS551  ARG553  GLY616  TRP617  ASP618  TYR619  PRO620  LYS621  CYS622 
 ASP623  PHE694  ASN695  SER759  ASP760  ASP761  ALA762  ILE779  LEU786  VAL792 
 PHE793  MET794  SER795  GLU796  ALA797  LYS798  CYS799  TRP800  GLU811  SER814 

> <Gold.Protein.RotatedAtoms>
  150.7767  134.6672  159.6371 H   0  0  0  0  0  0  0  0  0  0  0  0  # atno 6907 bound_to 6896
  152.3840  134.6544  160.0141 H   0  0  0  0  0  0  0  0  0  0  0  0  # atno 6908 bound_to 6896
  151.6865  133.3275  159.3268 H   0  0  0  0  0  0  0  0  0  0  0  0  # atno 6909 bound_to 6896
  146.1846  140.4049  142.8481 H   0  0  0  0  0  0  0  0  0  0  0  0  # atno 7974 bound_to 7965
  156.2999  140.2493  156.3435 H   0  0  0  0  0  0  0  0  0  0  0  0  # atno 8008 bound_to 7997
  154.9033  140.0405  157.1924 H   0  0  0  0  0  0  0  0  0  0  0  0  # atno 8009 bound_to 7997
  154.8479  140.2901  155.5621 H   0  0  0  0  0  0  0  0  0  0  0  0  # atno 8010 bound_to 7997
  140.6298  143.2454  151.5270 H   0  0  0  0  0  0  0  0  0  0  0  0  # atno 10167 bound_to 10162
  156.0338  130.4363  150.2531 H   0  0  0  0  0  0  0  0  0  0  0  0  # atno 10718 bound_to 10713
  154.4413  135.2762  155.1845 H   0  0  0  0  0  0  0  0  0  0  0  0  # atno 10763 bound_to 10752
  154.3710  135.6108  153.5744 H   0  0  0  0  0  0  0  0  0  0  0  0  # atno 10764 bound_to 10752
  152.9841  135.5857  154.4741 H   0  0  0  0  0  0  0  0  0  0  0  0  # atno 10765 bound_to 10752
  140.7514  134.3402  157.5125 H   0  0  0  0  0  0  0  0  0  0  0  0  # atno 11005 bound_to 11000
  144.8374  140.6804  143.6251 LP  0  0  0  0  0  0  0  0  0  0  0  0  # atno 17320 bound_to 7965
  145.3976  139.1604  143.4195 LP  0  0  0  0  0  0  0  0  0  0  0  0  # atno 17321 bound_to 7965
  139.5513  144.2387  152.1536 LP  0  0  0  0  0  0  0  0  0  0  0  0  # atno 17342 bound_to 10162
  140.1628  144.5010  150.6623 LP  0  0  0  0  0  0  0  0  0  0  0  0  # atno 17343 bound_to 10162
  157.0631  131.0095  151.3215 LP  0  0  0  0  0  0  0  0  0  0  0  0  # atno 17370 bound_to 10713
  157.5055  130.7906  149.7649 LP  0  0  0  0  0  0  0  0  0  0  0  0  # atno 17371 bound_to 10713
  139.8787  134.9144  156.3107 LP  0  0  0  0  0  0  0  0  0  0  0  0  # atno 17394 bound_to 11000
  140.9747  133.7305  156.0585 LP  0  0  0  0  0  0  0  0  0  0  0  0  # atno 17395 bound_to 11000

$$$$
