AV-unprocessed.smi:1247|AV-procd|sdf|5247|dock9
  -GOLD-   22720 4353D 1   1.00000     0.00000
 Structure written by MMmdl.
 47 48  0  0  0  0  0  0  0  0  2 V2000
  151.8113  141.3465  158.1907 C   0  0  0  0  0  0  0  0  0  0  0  0
  151.4788  140.5362  156.9725 C   0  0  0  0  0  0  0  0  0  0  0  0
  150.2119  140.3837  156.3376 C   0  0  0  0  0  0  0  0  0  0  0  0
  150.4964  139.5471  155.2930 C   0  0  0  0  0  0  0  0  0  0  0  0
  149.6586  139.0668  154.3357 N   0  0  0  0  0  0  0  0  0  0  0  0
  148.4640  139.5460  153.9473 C   0  0  0  0  0  0  0  0  0  0  0  0
  147.8869  140.5158  154.4398 O   0  0  0  0  0  0  0  0  0  0  0  0
  147.9533  138.8197  152.9425 N   0  0  0  0  0  0  0  0  0  0  0  0
  146.6709  139.0765  152.2977 C   0  0  0  0  0  0  0  0  0  0  0  0
  146.3888  138.0549  151.1798 C   0  0  0  0  0  0  0  0  0  0  0  0
  146.2034  136.6809  151.7083 N   0  3  1  0  0  0  0  0  0  0  0  0
  145.4316  136.6584  152.9736 C   0  0  0  0  0  0  0  0  0  0  0  0
  145.3148  135.2256  153.5300 C   0  0  2  0  0  0  0  0  0  0  0  0
  146.6229  134.6958  154.1441 C   0  0  0  0  0  0  0  0  0  0  0  0
  144.7933  134.3499  152.5304 O   0  0  0  0  0  0  0  0  0  0  0  0
  145.5310  134.3250  151.3111 C   0  0  1  0  0  0  0  0  0  0  0  0
  144.8344  133.3464  150.3590 C   0  0  0  0  0  0  0  0  0  0  0  0
  145.6036  135.7466  150.7256 C   0  0  0  0  0  0  0  0  0  0  0  0
  151.8409  139.2433  155.3199 N   0  0  0  0  0  0  0  0  0  0  0  0
  152.6303  138.4056  154.4371 C   0  0  0  0  0  0  0  0  0  0  0  0
  152.4418  139.8540  156.3634 N   0  0  0  0  0  0  0  0  0  0  0  0
  150.9564  141.9398  158.5151 H   0  0  0  0  0  0  0  0  0  0  0  0
  152.6353  142.0333  157.9943 H   0  0  0  0  0  0  0  0  0  0  0  0
  152.1029  140.7028  159.0209 H   0  0  0  0  0  0  0  0  0  0  0  0
  149.2676  140.8260  156.6167 H   0  0  0  0  0  0  0  0  0  0  0  0
  149.9822  138.2374  153.8601 H   0  0  0  0  0  0  0  0  0  0  0  0
  148.4914  138.0385  152.5964 H   0  0  0  0  0  0  0  0  0  0  0  0
  145.8822  139.0743  153.0508 H   0  0  0  0  0  0  0  0  0  0  0  0
  146.6974  140.0836  151.8809 H   0  0  0  0  0  0  0  0  0  0  0  0
  145.4802  138.3659  150.6619 H   0  0  0  0  0  0  0  0  0  0  0  0
  147.1841  138.0558  150.4325 H   0  0  0  0  0  0  0  0  0  0  0  0
  145.9018  137.3062  153.7147 H   0  0  0  0  0  0  0  0  0  0  0  0
  144.4351  137.0627  152.7881 H   0  0  0  0  0  0  0  0  0  0  0  0
  144.5757  135.2409  154.3316 H   0  0  0  0  0  0  0  0  0  0  0  0
  146.9278  135.3101  154.9917 H   0  0  0  0  0  0  0  0  0  0  0  0
  147.4474  134.6975  153.4317 H   0  0  0  0  0  0  0  0  0  0  0  0
  146.4966  133.6756  154.5071 H   0  0  0  0  0  0  0  0  0  0  0  0
  146.5389  133.9535  151.4974 H   0  0  0  0  0  0  0  0  0  0  0  0
  145.3610  133.2820  149.4065 H   0  0  0  0  0  0  0  0  0  0  0  0
  143.8093  133.6565  150.1544 H   0  0  0  0  0  0  0  0  0  0  0  0
  144.7997  132.3444  150.7871 H   0  0  0  0  0  0  0  0  0  0  0  0
  144.6056  136.0948  150.4538 H   0  0  0  0  0  0  0  0  0  0  0  0
  146.1935  135.7289  149.8097 H   0  0  0  0  0  0  0  0  0  0  0  0
  152.0433  138.0953  153.5729 H   0  0  0  0  0  0  0  0  0  0  0  0
  152.9628  137.5177  154.9758 H   0  0  0  0  0  0  0  0  0  0  0  0
  153.5031  138.9577  154.0872 H   0  0  0  0  0  0  0  0  0  0  0  0
  147.1238  136.3302  151.9320 H   0  0  0  0  0  0  0  0  0  0  0  0
  1  2  1  0  0  0  0
  1 22  1  0  0  0  0
  1 23  1  0  0  0  0
  1 24  1  0  0  0  0
  2 21  2  0  0  0  0
  2  3  1  0  0  0  0
  3  4  2  0  0  0  0
  3 25  1  0  0  0  0
  4  5  1  0  0  0  0
  4 19  1  0  0  0  0
  5  6  1  0  0  0  0
  5 26  1  0  0  0  0
  6  7  2  0  0  0  0
  6  8  1  0  0  0  0
  8  9  1  0  0  0  0
  8 27  1  0  0  0  0
  9 10  1  0  0  0  0
  9 28  1  0  0  0  0
  9 29  1  0  0  0  0
 10 11  1  0  0  0  0
 10 30  1  0  0  0  0
 10 31  1  0  0  0  0
 11 18  1  0  0  0  0
 11 12  1  0  0  0  0
 11 47  1  0  0  0  0
 12 13  1  0  0  0  0
 12 32  1  0  0  0  0
 12 33  1  0  0  0  0
 13 14  1  0  0  0  0
 13 15  1  0  0  0  0
 13 34  1  0  0  0  0
 14 35  1  0  0  0  0
 14 36  1  0  0  0  0
 14 37  1  0  0  0  0
 15 16  1  0  0  0  0
 16 17  1  0  0  0  0
 16 18  1  0  0  0  0
 16 38  1  0  0  0  0
 17 39  1  0  0  0  0
 17 40  1  0  0  0  0
 17 41  1  0  0  0  0
 18 42  1  0  0  0  0
 18 43  1  0  0  0  0
 19 20  1  0  0  0  0
 19 21  1  0  0  0  0
 20 44  1  0  0  0  0
 20 45  1  0  0  0  0
 20 46  1  0  0  0  0
M  CHG  1  11   1
M  END
> <s_m_source_file>
AV-unprocessed.smi

> <i_m_source_file_index>
1247

> <i_lp_mmshare_version>
43012

> <i_f3d_flags>
0

> <s_epik_input>
W0NIM11jMVtjSF1jKG4objEpW0NIM10pW05IXUMoPU8pW05IXVtDSDJdW0NIMl1OMltDSDJdW0NAQEhdKFtDSDNdKU9bQ0BASF0oW0NIM10pW0NIMl0y

> <s_epik_cmdline>
J2VwaWtfcHl0aG9uJywgJy1waCcsICc3LjAnLCAnLXRuJywgJzgnLCAnLW1hJywgJzIwMCcsICctbWV0YWxfYmluZGluZycsICctaW1hZScsICc8aW5maWxlLm1hZT4nLCAnLW9tYWUnLCAnPG91dGZpbGUubWFlPic=

> <r_lp_tautomer_probability>
1

> <r_epik_Ionization_Penalty>
0.663902

> <r_epik_Ionization_Penalty_Charging>
0.663826

> <r_epik_Ionization_Penalty_Neutral>
7.65444e-05

> <r_epik_State_Penalty>
0.683414

> <r_epik_Charging_Adjusted_Penalty>
1.34724

> <i_epik_Tot_Q>
1

> <i_epik_Tot_abs_Q>
1

> <r_epik_Metal_State_Penalty>
0.683419

> <b_epik_Metal_Only>
0

> <s_lp_Force_Field>
OPLS_2005

> <r_lp_Energy>
19.2404

> <b_lp_Chiralities_Consistent>
1

> <s_lp_Variant>
AV-unprocessed.smi:1247-5

> <Gold.Version>
5.8.1

> <Gold.Id.Protein>
6NUR|6NUR_protein|mol2

> <Gold.PLP.Fitness>
46.6079

> <Gold.PLP.PLP>
-35.0931

> <Gold.PLP.part.hbond>
-4.2056

> <Gold.PLP.part.metal>
0.0000

> <Gold.PLP.part.buried>
0.0061

> <Gold.PLP.part.nonpolar>
-30.7180

> <Gold.PLP.part.repulsive>
0.3824

> <Gold.PLP.ligand.clash>
0.0000

> <Gold.PLP.ligand.torsion>
0.2510

> <Gold.PLP.Chemscore.Hbond>
4.0000

> <Gold.PLP.Chemscore.CHOScore>
0.0000

> <Gold.PLP.Chemscore.Metal>
0.0000

> <Gold.Chemscore.Hbonds>
donor molecule, donor type, donor heavy atom, donor atom, acceptor molecule, acceptor atom, score
      L1  H     8    27       P1  7948  1.00
      L1  H    11    47       P1  7948  2.00
      P1  H  7997  8009       L1    21  1.00

> <Gold.PLP.Chemscore.Internal.Correction>
0.0167

> <Gold.Rescore>
     Score         DG    S(hbond)    S(metal)    S(lipo)     H(rot)  DE(clash)    DE(int)     intcor
     17.96     -20.34       2.97        0.00      75.60       1.52       1.16       1.21       ----

> <Gold.Chemscore.Fitness>
17.9583

> <Gold.Chemscore.DG>
-20.3355

> <Gold.Chemscore.ZeroCoef>
-5.4800

> <Gold.Chemscore.Hbond>
2.9662

> <Gold.Chemscore.Metal>
0.0000

> <Gold.Chemscore.Lipo>
75.5982

> <Gold.Chemscore.Internal_Hbond>
0.0000

> <Gold.Chemscore.DEClash>
1.1636

> <Gold.Chemscore.DEInternal>
1.2136

> <Gold.Chemscore.Rot>
1.5221

> <Gold.Chemscore.Internal.Correction>
   9.000000E+99

> <Gold.Chemscore.Hbonds>
donor molecule, donor type, donor heavy atom, donor atom, acceptor molecule, acceptor atom, score
      L1  H     8    27       P1  7948  0.98
      L1  H    11    47       P1  7948  0.99
      P1  H  7997  8009       L1    21  0.98

> <Gold.Chemscore.Hbond.Weighted>
-9.9072

> <Gold.Chemscore.Metal.Weighted>
-0.0000

> <Gold.Chemscore.Lipo.Weighted>
-8.8450

> <Gold.Chemscore.Internal_Hbond.Weighted>
0.0000

> <Gold.Chemscore.DEClash.Weighted>
1.1636

> <Gold.Chemscore.DEInternal.Weighted>
1.2136

> <Gold.Chemscore.Rot.Weighted>
3.8967

> <Gold.Chemscore.Internal.Correction.Weighted>
   9.000000E+99

> <Gold.Protein.RotatedTorsions>
[ 6907 6896 6895 6894 ] final  126.93 input  -60.11 | X-H torsion
[ 7974 7965 7964 7962 ] final    2.93 input  175.53 | X-H torsion
[ 8008 7997 7996 7995 ] final -164.53 input   59.86 | X-H torsion
[ 10167 10162 10161 10158 ] final  164.93 input  -65.29 | X-H torsion
[ 10718 10713 10712 10709 ] final  -62.93 input   66.30 | X-H torsion
[ 10763 10752 10751 10750 ] final  -30.48 input  -60.55 | X-H torsion
[ 11005 11000 10999 10996 ] final   94.65 input  -57.11 | X-H torsion

> <Gold.Protein.ActiveResidues>
 VAL166  LYS551  ARG553  GLY616  TRP617  ASP618  TYR619  PRO620  LYS621  CYS622 
 ASP623  PHE694  ASN695  SER759  ASP760  ASP761  ALA762  ILE779  LEU786  VAL792 
 PHE793  MET794  SER795  GLU796  ALA797  LYS798  CYS799  TRP800  GLU811  SER814 

> <Gold.Protein.RotatedAtoms>
  152.3859  133.6610  159.6197 H   0  0  0  0  0  0  0  0  0  0  0  0  # atno 6907 bound_to 6896
  150.7778  133.9037  159.3357 H   0  0  0  0  0  0  0  0  0  0  0  0  # atno 6908 bound_to 6896
  151.6833  135.0959  160.0271 H   0  0  0  0  0  0  0  0  0  0  0  0  # atno 6909 bound_to 6896
  146.2444  140.0762  142.8359 H   0  0  0  0  0  0  0  0  0  0  0  0  # atno 7974 bound_to 7965
  155.8369  140.0942  157.1759 H   0  0  0  0  0  0  0  0  0  0  0  0  # atno 8008 bound_to 7997
  154.3981  140.1408  156.3742 H   0  0  0  0  0  0  0  0  0  0  0  0  # atno 8009 bound_to 7997
  155.8106  140.3450  155.5458 H   0  0  0  0  0  0  0  0  0  0  0  0  # atno 8010 bound_to 7997
  139.4897  144.4185  151.9215 H   0  0  0  0  0  0  0  0  0  0  0  0  # atno 10167 bound_to 10162
  156.0823  130.4215  150.1205 H   0  0  0  0  0  0  0  0  0  0  0  0  # atno 10718 bound_to 10713
  153.7817  135.6904  153.4887 H   0  0  0  0  0  0  0  0  0  0  0  0  # atno 10763 bound_to 10752
  153.1807  135.4507  155.0023 H   0  0  0  0  0  0  0  0  0  0  0  0  # atno 10764 bound_to 10752
  154.8079  135.3365  154.7319 H   0  0  0  0  0  0  0  0  0  0  0  0  # atno 10765 bound_to 10752
  139.8796  134.8856  156.3895 H   0  0  0  0  0  0  0  0  0  0  0  0  # atno 11005 bound_to 11000
  145.0773  140.9197  143.4846 LP  0  0  0  0  0  0  0  0  0  0  0  0  # atno 17320 bound_to 7965
  145.0908  139.2892  143.5736 LP  0  0  0  0  0  0  0  0  0  0  0  0  # atno 17321 bound_to 7965
  140.3628  144.2951  150.5931 LP  0  0  0  0  0  0  0  0  0  0  0  0  # atno 17342 bound_to 10162
  140.5387  143.2228  151.8120 LP  0  0  0  0  0  0  0  0  0  0  0  0  # atno 17343 bound_to 10162
  156.9234  130.9690  151.3545 LP  0  0  0  0  0  0  0  0  0  0  0  0  # atno 17370 bound_to 10713
  157.5944  130.8467  149.8708 LP  0  0  0  0  0  0  0  0  0  0  0  0  # atno 17371 bound_to 10713
  140.9343  133.7558  156.0064 LP  0  0  0  0  0  0  0  0  0  0  0  0  # atno 17394 bound_to 11000
  140.8294  134.3196  157.5354 LP  0  0  0  0  0  0  0  0  0  0  0  0  # atno 17395 bound_to 11000

$$$$
