AV-unprocessed.smi:290|AV-procd|sdf|2223|dock10
  -GOLD-   2262022 73D 1   1.00000     0.00000
 Structure written by MMmdl.
 59 62  0  0  0  0  0  0  0  0  2 V2000
  150.9199  140.9917  156.9066 C   0  0  0  0  0  0  0  0  0  0  0  0
  151.6732  140.1362  155.8771 C   0  0  2  0  0  0  0  0  0  0  0  0
  150.9136  140.0042  154.6786 O   0  0  0  0  0  0  0  0  0  0  0  0
  151.1414  138.7265  154.0903 C   0  0  0  0  0  0  0  0  0  0  0  0
  152.2427  138.0770  154.9235 C   0  0  0  0  0  0  0  0  0  0  0  0
  152.0307  138.6981  156.2986 C   0  0  1  0  0  0  0  0  0  0  0  0
  153.2594  138.6814  157.0008 O   0  0  0  0  0  0  0  0  0  0  0  0
  150.9321  137.9949  157.1427 C   0  0  0  0  0  0  0  0  0  0  0  0
  149.8517  137.4258  156.3532 N   0  0  0  0  0  0  0  0  0  0  0  0
  148.6468  138.0202  156.0492 C   0  0  0  0  0  0  0  0  0  0  0  0
  147.8367  137.2993  155.3219 N   0  0  0  0  0  0  0  0  0  0  0  0
  148.5323  136.1137  155.1241 C   0  0  0  0  0  0  0  0  0  0  0  0
  148.2458  134.9076  154.4347 C   0  0  0  0  0  0  0  0  0  0  0  0
  147.0812  134.7333  153.7723 N   0  0  0  0  0  0  0  0  0  0  0  0
  145.8893  135.0152  154.5561 C   0  0  0  0  0  0  0  0  0  0  0  0
  144.7193  134.4509  153.7425 C   0  0  0  0  0  0  0  0  0  0  0  0
  145.3603  133.4026  152.8058 C   0  0  1  0  0  0  0  0  0  0  0  0
  145.0780  133.5973  151.3492 N   0  3  2  0  0  0  0  0  0  0  0  0
  144.7839  134.9937  150.9350 C   0  0  0  0  0  0  0  0  0  0  0  0
  144.0880  132.6350  150.8006 C   0  0  0  0  0  0  0  0  0  0  0  0
  143.9044  132.7875  149.2808 C   0  0  0  0  0  0  0  0  0  0  0  0
  142.6921  132.1855  148.8788 O   0  0  0  0  0  0  0  0  0  0  0  0
  146.8596  133.4253  153.1709 C   0  0  1  0  0  0  0  0  0  0  0  0
  147.8636  133.0593  152.0589 C   0  0  0  0  0  0  0  0  0  0  0  0
  149.1844  133.9248  154.4496 N   0  0  0  0  0  0  0  0  0  0  0  0
  150.3352  134.1137  155.1030 C   0  0  0  0  0  0  0  0  0  0  0  0
  150.7399  135.1856  155.7885 N   0  0  0  0  0  0  0  0  0  0  0  0
  149.7981  136.1727  155.7690 C   0  0  0  0  0  0  0  0  0  0  0  0
  144.9927  132.4159  153.0867 H   0  0  0  0  0  0  0  0  0  0  0  0
  146.9903  132.6858  153.9632 H   0  0  0  0  0  0  0  0  0  0  0  0
  151.4783  141.0632  157.8402 H   0  0  0  0  0  0  0  0  0  0  0  0
  149.9354  140.5811  157.1303 H   0  0  0  0  0  0  0  0  0  0  0  0
  150.7722  142.0041  156.5306 H   0  0  0  0  0  0  0  0  0  0  0  0
  152.5903  140.6589  155.5981 H   0  0  0  0  0  0  0  0  0  0  0  0
  150.2206  138.1453  154.1493 H   0  0  0  0  0  0  0  0  0  0  0  0
  151.4172  138.8167  153.0396 H   0  0  0  0  0  0  0  0  0  0  0  0
  152.2123  136.9886  154.9029 H   0  0  0  0  0  0  0  0  0  0  0  0
  153.2112  138.3780  154.5201 H   0  0  0  0  0  0  0  0  0  0  0  0
  153.7510  137.9216  156.7281 H   0  0  0  0  0  0  0  0  0  0  0  0
  151.3667  137.1886  157.7344 H   0  0  0  0  0  0  0  0  0  0  0  0
  150.4956  138.6930  157.8580 H   0  0  0  0  0  0  0  0  0  0  0  0
  148.3895  139.0161  156.3801 H   0  0  0  0  0  0  0  0  0  0  0  0
  145.9440  134.5223  155.5281 H   0  0  0  0  0  0  0  0  0  0  0  0
  145.7776  136.0863  154.7281 H   0  0  0  0  0  0  0  0  0  0  0  0
  143.9736  133.9999  154.3979 H   0  0  0  0  0  0  0  0  0  0  0  0
  144.2152  135.2521  153.2063 H   0  0  0  0  0  0  0  0  0  0  0  0
  143.7562  135.2773  151.1615 H   0  0  0  0  0  0  0  0  0  0  0  0
  144.9175  135.0926  149.8575 H   0  0  0  0  0  0  0  0  0  0  0  0
  145.4470  135.7149  151.4109 H   0  0  0  0  0  0  0  0  0  0  0  0
  144.3934  131.6175  151.0481 H   0  0  0  0  0  0  0  0  0  0  0  0
  143.1181  132.7832  151.2786 H   0  0  0  0  0  0  0  0  0  0  0  0
  143.9175  133.8298  148.9646 H   0  0  0  0  0  0  0  0  0  0  0  0
  144.7217  132.2890  148.7591 H   0  0  0  0  0  0  0  0  0  0  0  0
  141.9768  132.7541  149.1222 H   0  0  0  0  0  0  0  0  0  0  0  0
  147.6142  132.0972  151.6111 H   0  0  0  0  0  0  0  0  0  0  0  0
  148.8746  132.9769  152.4590 H   0  0  0  0  0  0  0  0  0  0  0  0
  147.8928  133.8032  151.2636 H   0  0  0  0  0  0  0  0  0  0  0  0
  151.0317  133.2887  155.0709 H   0  0  0  0  0  0  0  0  0  0  0  0
  145.9439  133.3673  150.8819 H   0  0  0  0  0  0  0  0  0  0  0  0
  1  2  1  0  0  0  0
  1 31  1  0  0  0  0
  1 32  1  0  0  0  0
  1 33  1  0  0  0  0
  2  6  1  0  0  0  0
  2  3  1  0  0  0  0
  2 34  1  0  0  0  0
  3  4  1  0  0  0  0
  4  5  1  0  0  0  0
  4 35  1  0  0  0  0
  4 36  1  0  0  0  0
  5  6  1  0  0  0  0
  5 37  1  0  0  0  0
  5 38  1  0  0  0  0
  6  7  1  0  0  0  0
  6  8  1  0  0  0  0
  7 39  1  0  0  0  0
  8  9  1  0  0  0  0
  8 40  1  0  0  0  0
  8 41  1  0  0  0  0
  9 28  1  0  0  0  0
  9 10  1  0  0  0  0
 10 11  2  0  0  0  0
 10 42  1  0  0  0  0
 11 12  1  0  0  0  0
 12 28  2  0  0  0  0
 12 13  1  0  0  0  0
 13 14  1  0  0  0  0
 13 25  2  0  0  0  0
 14 23  1  0  0  0  0
 14 15  1  0  0  0  0
 15 16  1  0  0  0  0
 15 43  1  0  0  0  0
 15 44  1  0  0  0  0
 16 17  1  0  0  0  0
 16 45  1  0  0  0  0
 16 46  1  0  0  0  0
 17 29  1  0  0  0  0
 17 18  1  0  0  0  0
 17 23  1  0  0  0  0
 18 19  1  0  0  0  0
 18 20  1  0  0  0  0
 18 59  1  0  0  0  0
 19 47  1  0  0  0  0
 19 48  1  0  0  0  0
 19 49  1  0  0  0  0
 20 21  1  0  0  0  0
 20 50  1  0  0  0  0
 20 51  1  0  0  0  0
 21 22  1  0  0  0  0
 21 52  1  0  0  0  0
 21 53  1  0  0  0  0
 22 54  1  0  0  0  0
 23 30  1  0  0  0  0
 23 24  1  0  0  0  0
 24 55  1  0  0  0  0
 24 56  1  0  0  0  0
 24 57  1  0  0  0  0
 25 26  1  0  0  0  0
 26 27  2  0  0  0  0
 26 58  1  0  0  0  0
 27 28  1  0  0  0  0
M  CHG  1  18   1
M  END
> <s_m_source_file>
AV-unprocessed.smi

> <i_m_source_file_index>
290

> <i_lp_mmshare_version>
43012

> <i_f3d_flags>
0

> <s_epik_input>
W0NIMl0xW0NIMl1PW0NAQEhdKFtDSDNdKVtDQEBdMShbT0hdKVtDSDJdbihbY0hdbjIpYyhjMjMpbltjSF1uYzNONFtDSDJdW0NIMl1bQ0BIXShbQ0BIXTRbQ0gzXSlOKFtDSDNdKVtDSDJdW0NIMl1bT0hd

> <s_epik_cmdline>
J2VwaWtfcHl0aG9uJywgJy1waCcsICc3LjAnLCAnLXRuJywgJzgnLCAnLW1hJywgJzIwMCcsICctbWV0YWxfYmluZGluZycsICctaW1hZScsICc8aW5maWxlLm1hZT4nLCAnLW9tYWUnLCAnPG91dGZpbGUubWFlPic=

> <r_lp_tautomer_probability>
1

> <r_epik_Ionization_Penalty>
0.0036983

> <r_epik_Ionization_Penalty_Charging>
0.0032725

> <r_epik_Ionization_Penalty_Neutral>
0.000425798

> <r_epik_State_Penalty>
-0

> <r_epik_Charging_Adjusted_Penalty>
0.0032725

> <i_epik_Tot_Q>
1

> <i_epik_Tot_abs_Q>
1

> <r_epik_Metal_State_Penalty>
-0

> <b_epik_Metal_Only>
0

> <s_lp_Force_Field>
OPLS_2005

> <r_lp_Energy>
69.2508

> <b_lp_Chiralities_Consistent>
1

> <s_lp_Variant>
AV-unprocessed.smi:290-9

> <Gold.Version>
5.8.1

> <Gold.Id.Protein>
6NUR|6NUR_protein|mol2

> <Gold.PLP.Fitness>
45.6375

> <Gold.PLP.PLP>
-37.7983

> <Gold.PLP.part.hbond>
-5.0000

> <Gold.PLP.part.metal>
0.0000

> <Gold.PLP.part.buried>
-6.3084

> <Gold.PLP.part.nonpolar>
-27.2678

> <Gold.PLP.part.repulsive>
0.4213

> <Gold.PLP.ligand.clash>
0.0000

> <Gold.PLP.ligand.torsion>
2.0826

> <Gold.PLP.Chemscore.Hbond>
3.9500

> <Gold.PLP.Chemscore.CHOScore>
0.0000

> <Gold.PLP.Chemscore.Metal>
0.0000

> <Gold.Chemscore.Hbonds>
donor molecule, donor type, donor heavy atom, donor atom, acceptor molecule, acceptor atom, score
      L1  H    22    54       P1 10186  1.00
      P1  H  7989  7998       L1     3  0.80
      P1  H  7997  8009       L1     7  1.00
      P1  H 10785 10796       L1    22  0.81

> <Gold.PLP.Chemscore.Internal.Correction>
0.1543

> <Gold.Rescore>
     Score         DG    S(hbond)    S(metal)    S(lipo)     H(rot)  DE(clash)    DE(int)     intcor
     10.65     -15.46       2.85        0.00      84.07       3.67       0.27       4.54       ----

> <Gold.Chemscore.Fitness>
10.6497

> <Gold.Chemscore.DG>
-15.4578

> <Gold.Chemscore.ZeroCoef>
-5.4800

> <Gold.Chemscore.Hbond>
2.8522

> <Gold.Chemscore.Metal>
0.0000

> <Gold.Chemscore.Lipo>
84.0667

> <Gold.Chemscore.Internal_Hbond>
0.0000

> <Gold.Chemscore.DEClash>
0.2722

> <Gold.Chemscore.DEInternal>
4.5360

> <Gold.Chemscore.Rot>
3.6658

> <Gold.Chemscore.Internal.Correction>
   9.000000E+99

> <Gold.Chemscore.Hbonds>
donor molecule, donor type, donor heavy atom, donor atom, acceptor molecule, acceptor atom, score
      L1  H    22    54       P1 10186  0.98
      P1  H  7989  7998       L1     3  0.08
      P1  H  7997  8009       L1     7  0.38
      P1  H 10785 10796       L1    22  0.35

> <Gold.Chemscore.Hbond.Weighted>
-9.5264

> <Gold.Chemscore.Metal.Weighted>
-0.0000

> <Gold.Chemscore.Lipo.Weighted>
-9.8358

> <Gold.Chemscore.Internal_Hbond.Weighted>
0.0000

> <Gold.Chemscore.DEClash.Weighted>
0.2722

> <Gold.Chemscore.DEInternal.Weighted>
4.5360

> <Gold.Chemscore.Rot.Weighted>
9.3844

> <Gold.Chemscore.Internal.Correction.Weighted>
   9.000000E+99

> <Gold.Protein.RotatedTorsions>
[ 6907 6896 6895 6894 ] final  133.07 input  -60.11 | X-H torsion
[ 7974 7965 7964 7962 ] final   67.85 input  175.53 | X-H torsion
[ 8008 7997 7996 7995 ] final  167.94 input   59.86 | X-H torsion
[ 10167 10162 10161 10158 ] final   80.23 input  -65.29 | X-H torsion
[ 10718 10713 10712 10709 ] final  112.69 input   66.30 | X-H torsion
[ 10763 10752 10751 10750 ] final -151.06 input  -60.55 | X-H torsion
[ 11005 11000 10999 10996 ] final -163.41 input  -57.11 | X-H torsion

> <Gold.Protein.ActiveResidues>
 VAL166  LYS551  ARG553  GLY616  TRP617  ASP618  TYR619  PRO620  LYS621  CYS622 
 ASP623  PHE694  ASN695  SER759  ASP760  ASP761  ALA762  ILE779  LEU786  VAL792 
 PHE793  MET794  SER795  GLU796  ALA797  LYS798  CYS799  TRP800  GLU811  SER814 

> <Gold.Protein.RotatedAtoms>
  152.3258  133.5904  159.5775 H   0  0  0  0  0  0  0  0  0  0  0  0  # atno 6907 bound_to 6896
  150.7396  133.9942  159.3626 H   0  0  0  0  0  0  0  0  0  0  0  0  # atno 6908 bound_to 6896
  151.7822  135.0759  160.0426 H   0  0  0  0  0  0  0  0  0  0  0  0  # atno 6909 bound_to 6896
  145.8097  139.3026  143.1106 H   0  0  0  0  0  0  0  0  0  0  0  0  # atno 7974 bound_to 7965
  156.1590  140.1603  156.8644 H   0  0  0  0  0  0  0  0  0  0  0  0  # atno 8008 bound_to 7997
  154.5142  140.0793  156.8085 H   0  0  0  0  0  0  0  0  0  0  0  0  # atno 8009 bound_to 7997
  155.3745  140.3402  155.4246 H   0  0  0  0  0  0  0  0  0  0  0  0  # atno 8010 bound_to 7997
  139.9520  144.6020  150.8152 H   0  0  0  0  0  0  0  0  0  0  0  0  # atno 10167 bound_to 10162
  157.6379  131.0972  150.6932 H   0  0  0  0  0  0  0  0  0  0  0  0  # atno 10718 bound_to 10713
  154.8081  135.3269  154.7378 H   0  0  0  0  0  0  0  0  0  0  0  0  # atno 10763 bound_to 10752
  153.8033  135.6901  153.4856 H   0  0  0  0  0  0  0  0  0  0  0  0  # atno 10764 bound_to 10752
  153.1840  135.4576  155.0010 H   0  0  0  0  0  0  0  0  0  0  0  0  # atno 10765 bound_to 10752
  140.5984  134.4973  157.5202 H   0  0  0  0  0  0  0  0  0  0  0  0  # atno 11005 bound_to 11000
  145.9791  140.8698  143.0124 LP  0  0  0  0  0  0  0  0  0  0  0  0  # atno 17320 bound_to 7965
  144.6759  140.2054  143.7382 LP  0  0  0  0  0  0  0  0  0  0  0  0  # atno 17321 bound_to 7965
  140.7580  143.3098  151.2873 LP  0  0  0  0  0  0  0  0  0  0  0  0  # atno 17342 bound_to 10162
  139.6621  144.0171  152.2699 LP  0  0  0  0  0  0  0  0  0  0  0  0  # atno 17343 bound_to 10162
  156.7261  130.4695  149.5511 LP  0  0  0  0  0  0  0  0  0  0  0  0  # atno 17370 bound_to 10713
  156.1633  130.6388  151.0746 LP  0  0  0  0  0  0  0  0  0  0  0  0  # atno 17371 bound_to 10713
  139.9243  134.8086  156.1115 LP  0  0  0  0  0  0  0  0  0  0  0  0  # atno 17394 bound_to 11000
  141.0889  133.6723  156.2496 LP  0  0  0  0  0  0  0  0  0  0  0  0  # atno 17395 bound_to 11000

$$$$
