AV-unprocessed.smi:244|AV-procd|sdf|1865|dock7
  -GOLD-   2262020503D 1   1.00000     0.00000
 Structure written by MMmdl.
 57 61  0  0  0  0  0  0  0  0  2 V2000
  152.5792  144.4550  157.8241 C   0  0  0  0  0  0  0  0  0  0  0  0
  151.6040  143.7792  158.7111 N   0  3  2  0  0  0  0  0  0  0  0  0
  151.8900  143.9619  160.1578 C   0  0  0  0  0  0  0  0  0  0  0  0
  153.0469  143.0665  160.6383 C   0  0  0  0  0  0  0  0  0  0  0  0
  152.7658  141.5974  160.3003 C   0  0  2  0  0  0  0  0  0  0  0  0
  153.8714  140.7956  160.7002 O   0  0  0  0  0  0  0  0  0  0  0  0
  153.6277  139.4116  160.4717 C   0  0  0  0  0  0  0  0  0  0  0  0
  153.4008  139.1760  158.9700 C   0  0  0  0  0  0  0  0  0  0  0  0
  152.3137  140.0204  158.4795 N   0  0  0  0  0  0  0  0  0  0  0  0
  151.9781  139.7582  157.1955 C   0  0  0  0  0  0  0  0  0  0  0  0
  152.9259  139.3556  156.3086 N   0  0  0  0  0  0  0  0  0  0  0  0
  152.5899  139.1185  155.0367 C   0  0  0  0  0  0  0  0  0  0  0  0
  151.3935  139.2288  154.4545 N   0  0  0  0  0  0  0  0  0  0  0  0
  150.4438  139.6392  155.3438 C   0  0  0  0  0  0  0  0  0  0  0  0
  150.6513  139.9267  156.7210 C   0  0  0  0  0  0  0  0  0  0  0  0
  149.4622  140.3342  157.3108 N   0  0  0  0  0  0  0  0  0  0  0  0
  148.5957  140.2855  156.3357 C   0  0  0  0  0  0  0  0  0  0  0  0
  149.0973  139.8691  155.1221 N   0  0  0  0  0  0  0  0  0  0  0  0
  148.3585  139.7213  153.8774 C   0  0  0  0  0  0  0  0  0  0  0  0
  147.3016  138.5887  153.9017 C   0  0  0  0  0  0  0  0  0  0  0  0
  147.9905  137.3563  154.0223 O   0  0  0  0  0  0  0  0  0  0  0  0
  146.3197  138.7162  155.0872 C   0  0  0  0  0  0  0  0  0  0  0  0
  145.1519  137.7192  154.9832 C   0  0  0  0  0  0  0  0  0  0  0  0
  144.4866  137.8728  153.7355 O   0  0  0  0  0  0  0  0  0  0  0  0
  145.3274  137.5808  152.6262 C   0  0  0  0  0  0  0  0  0  0  0  0
  146.5038  138.5723  152.5823 C   0  0  0  0  0  0  0  0  0  0  0  0
  152.5302  141.4375  158.7824 C   0  0  1  0  0  0  0  0  0  0  0  0
  151.3591  142.3582  158.3502 C   0  0  0  0  0  0  0  0  0  0  0  0
  153.5763  144.0238  157.9116 H   0  0  0  0  0  0  0  0  0  0  0  0
  152.6468  145.5155  158.0680 H   0  0  0  0  0  0  0  0  0  0  0  0
  152.2670  144.3768  156.7823 H   0  0  0  0  0  0  0  0  0  0  0  0
  152.1037  145.0105  160.3685 H   0  0  0  0  0  0  0  0  0  0  0  0
  150.9867  143.7156  160.7175 H   0  0  0  0  0  0  0  0  0  0  0  0
  153.9845  143.3820  160.1795 H   0  0  0  0  0  0  0  0  0  0  0  0
  153.1788  143.1805  161.7146 H   0  0  0  0  0  0  0  0  0  0  0  0
  151.8783  141.2769  160.8504 H   0  0  0  0  0  0  0  0  0  0  0  0
  154.4869  138.8368  160.8173 H   0  0  0  0  0  0  0  0  0  0  0  0
  152.7666  139.0785  161.0533 H   0  0  0  0  0  0  0  0  0  0  0  0
  154.3204  139.3992  158.4269 H   0  0  0  0  0  0  0  0  0  0  0  0
  153.1658  138.1259  158.7893 H   0  0  0  0  0  0  0  0  0  0  0  0
  153.3942  138.7954  154.3922 H   0  0  0  0  0  0  0  0  0  0  0  0
  147.5569  140.5473  156.4766 H   0  0  0  0  0  0  0  0  0  0  0  0
  147.8771  140.6757  153.6597 H   0  0  0  0  0  0  0  0  0  0  0  0
  149.0748  139.5538  153.0714 H   0  0  0  0  0  0  0  0  0  0  0  0
  148.2649  137.0792  153.1614 H   0  0  0  0  0  0  0  0  0  0  0  0
  146.8352  138.5732  156.0374 H   0  0  0  0  0  0  0  0  0  0  0  0
  145.9113  139.7275  155.1078 H   0  0  0  0  0  0  0  0  0  0  0  0
  145.5006  136.6919  155.0989 H   0  0  0  0  0  0  0  0  0  0  0  0
  144.4371  137.9001  155.7861 H   0  0  0  0  0  0  0  0  0  0  0  0
  145.6817  136.5505  152.6845 H   0  0  0  0  0  0  0  0  0  0  0  0
  144.7398  137.6599  151.7115 H   0  0  0  0  0  0  0  0  0  0  0  0
  146.1054  139.5694  152.3895 H   0  0  0  0  0  0  0  0  0  0  0  0
  147.1588  138.3386  151.7418 H   0  0  0  0  0  0  0  0  0  0  0  0
  153.4340  141.7463  158.2551 H   0  0  0  0  0  0  0  0  0  0  0  0
  150.4376  142.0332  158.8352 H   0  0  0  0  0  0  0  0  0  0  0  0
  151.1783  142.2988  157.2763 H   0  0  0  0  0  0  0  0  0  0  0  0
  150.7303  144.2578  158.5438 H   0  0  0  0  0  0  0  0  0  0  0  0
  1  2  1  0  0  0  0
  1 29  1  0  0  0  0
  1 30  1  0  0  0  0
  1 31  1  0  0  0  0
  2 28  1  0  0  0  0
  2  3  1  0  0  0  0
  2 57  1  0  0  0  0
  3  4  1  0  0  0  0
  3 32  1  0  0  0  0
  3 33  1  0  0  0  0
  4  5  1  0  0  0  0
  4 34  1  0  0  0  0
  4 35  1  0  0  0  0
  5 27  1  0  0  0  0
  5  6  1  0  0  0  0
  5 36  1  0  0  0  0
  6  7  1  0  0  0  0
  7  8  1  0  0  0  0
  7 37  1  0  0  0  0
  7 38  1  0  0  0  0
  8  9  1  0  0  0  0
  8 39  1  0  0  0  0
  8 40  1  0  0  0  0
  9 10  1  0  0  0  0
  9 27  1  0  0  0  0
 10 15  1  0  0  0  0
 10 11  2  0  0  0  0
 11 12  1  0  0  0  0
 12 13  2  0  0  0  0
 12 41  1  0  0  0  0
 13 14  1  0  0  0  0
 14 18  1  0  0  0  0
 14 15  2  0  0  0  0
 15 16  1  0  0  0  0
 16 17  2  0  0  0  0
 17 18  1  0  0  0  0
 17 42  1  0  0  0  0
 18 19  1  0  0  0  0
 19 20  1  0  0  0  0
 19 43  1  0  0  0  0
 19 44  1  0  0  0  0
 20 26  1  0  0  0  0
 20 21  1  0  0  0  0
 20 22  1  0  0  0  0
 21 45  1  0  0  0  0
 22 23  1  0  0  0  0
 22 46  1  0  0  0  0
 22 47  1  0  0  0  0
 23 24  1  0  0  0  0
 23 48  1  0  0  0  0
 23 49  1  0  0  0  0
 24 25  1  0  0  0  0
 25 26  1  0  0  0  0
 25 50  1  0  0  0  0
 25 51  1  0  0  0  0
 26 52  1  0  0  0  0
 26 53  1  0  0  0  0
 27 28  1  0  0  0  0
 27 54  1  0  0  0  0
 28 55  1  0  0  0  0
 28 56  1  0  0  0  0
M  CHG  1   2   1
M  END
> <s_m_source_file>
AV-unprocessed.smi

> <i_m_source_file_index>
244

> <i_lp_mmshare_version>
43012

> <i_f3d_flags>
0

> <s_epik_input>
W0NIMl0xW0NIMl1OKFtDSDNdKVtDSDJdW0NAQEhdKFtDQEhdMTIpTihbQ0gyXVtDSDJdTzIpYyhuW2NIXW4zKWMoYzM0KW5bY0hdbjRbQ0gyXUM1KFtPSF0pW0NIMl1bQ0gyXU9bQ0gyXVtDSDJdNQ==

> <s_epik_cmdline>
J2VwaWtfcHl0aG9uJywgJy1waCcsICc3LjAnLCAnLXRuJywgJzgnLCAnLW1hJywgJzIwMCcsICctbWV0YWxfYmluZGluZycsICctaW1hZScsICc8aW5maWxlLm1hZT4nLCAnLW9tYWUnLCAnPG91dGZpbGUubWFlPic=

> <r_lp_tautomer_probability>
1

> <r_epik_Ionization_Penalty>
0.0136215

> <r_epik_Ionization_Penalty_Charging>
0.0131385

> <r_epik_Ionization_Penalty_Neutral>
0.000483022

> <r_epik_State_Penalty>
0.0104001

> <r_epik_Charging_Adjusted_Penalty>
0.0235387

> <i_epik_Tot_Q>
1

> <i_epik_Tot_abs_Q>
1

> <r_epik_Metal_State_Penalty>
0.0104469

> <b_epik_Metal_Only>
0

> <s_lp_Force_Field>
OPLS_2005

> <r_lp_Energy>
43.138

> <b_lp_Chiralities_Consistent>
1

> <s_lp_Variant>
AV-unprocessed.smi:244-2

> <Gold.Version>
5.8.1

> <Gold.Id.Protein>
6NUR|6NUR_protein|mol2

> <Gold.PLP.Fitness>
49.6898

> <Gold.PLP.PLP>
-42.0469

> <Gold.PLP.part.hbond>
-3.0000

> <Gold.PLP.part.metal>
0.0000

> <Gold.PLP.part.buried>
-4.6180

> <Gold.PLP.part.nonpolar>
-35.8019

> <Gold.PLP.part.repulsive>
0.6744

> <Gold.PLP.ligand.clash>
0.0000

> <Gold.PLP.ligand.torsion>
0.7386

> <Gold.PLP.Chemscore.Hbond>
3.0000

> <Gold.PLP.Chemscore.CHOScore>
0.0000

> <Gold.PLP.Chemscore.Metal>
0.0000

> <Gold.Chemscore.Hbonds>
donor molecule, donor type, donor heavy atom, donor atom, acceptor molecule, acceptor atom, score
      L1  H    21    45       P1  7948  1.00
      P1  H  7989  7998       L1    13  1.00
      P1  H  7997  8008       L1    11  1.00

> <Gold.PLP.Chemscore.Internal.Correction>
0.1202

> <Gold.Rescore>
     Score         DG    S(hbond)    S(metal)    S(lipo)     H(rot)  DE(clash)    DE(int)     intcor
     17.47     -18.93       1.93        0.00     105.58       2.09       0.17       1.28       ----

> <Gold.Chemscore.Fitness>
17.4703

> <Gold.Chemscore.DG>
-18.9284

> <Gold.Chemscore.ZeroCoef>
-5.4800

> <Gold.Chemscore.Hbond>
1.9307

> <Gold.Chemscore.Metal>
0.0000

> <Gold.Chemscore.Lipo>
105.5821

> <Gold.Chemscore.Internal_Hbond>
0.0000

> <Gold.Chemscore.DEClash>
0.1749

> <Gold.Chemscore.DEInternal>
1.2831

> <Gold.Chemscore.Rot>
2.0911

> <Gold.Chemscore.Internal.Correction>
   9.000000E+99

> <Gold.Chemscore.Hbonds>
donor molecule, donor type, donor heavy atom, donor atom, acceptor molecule, acceptor atom, score
      L1  H    21    45       P1  7948  1.00
      P1  H  7989  7998       L1    13  0.07
      P1  H  7997  8008       L1    11  0.65

> <Gold.Chemscore.Hbond.Weighted>
-6.4484

> <Gold.Chemscore.Metal.Weighted>
-0.0000

> <Gold.Chemscore.Lipo.Weighted>
-12.3531

> <Gold.Chemscore.Internal_Hbond.Weighted>
0.0000

> <Gold.Chemscore.DEClash.Weighted>
0.1749

> <Gold.Chemscore.DEInternal.Weighted>
1.2831

> <Gold.Chemscore.Rot.Weighted>
5.3531

> <Gold.Chemscore.Internal.Correction.Weighted>
   9.000000E+99

> <Gold.Protein.RotatedTorsions>
[ 6907 6896 6895 6894 ] final  168.96 input  -60.11 | X-H torsion
[ 7974 7965 7964 7962 ] final  -60.26 input  175.53 | X-H torsion
[ 8008 7997 7996 7995 ] final  -43.74 input   59.86 | X-H torsion
[ 10167 10162 10161 10158 ] final   40.16 input  -65.29 | X-H torsion
[ 10718 10713 10712 10709 ] final  -91.48 input   66.30 | X-H torsion
[ 10763 10752 10751 10750 ] final -156.65 input  -60.55 | X-H torsion
[ 11005 11000 10999 10996 ] final -131.20 input  -57.11 | X-H torsion

> <Gold.Protein.ActiveResidues>
 VAL166  LYS551  ARG553  GLY616  TRP617  ASP618  TYR619  PRO620  LYS621  CYS622 
 ASP623  PHE694  ASN695  SER759  ASP760  ASP761  ALA762  ILE779  LEU786  VAL792 
 PHE793  MET794  SER795  GLU796  ALA797  LYS798  CYS799  TRP800  GLU811  SER814 

> <Gold.Protein.RotatedAtoms>
  151.8395  133.3421  159.3638 H   0  0  0  0  0  0  0  0  0  0  0  0  # atno 6907 bound_to 6896
  150.7239  134.5405  159.5754 H   0  0  0  0  0  0  0  0  0  0  0  0  # atno 6908 bound_to 6896
  152.2876  134.7759  160.0435 H   0  0  0  0  0  0  0  0  0  0  0  0  # atno 6909 bound_to 6896
  145.8176  140.8560  143.0149 H   0  0  0  0  0  0  0  0  0  0  0  0  # atno 7974 bound_to 7965
  154.3997  140.1440  156.3569 H   0  0  0  0  0  0  0  0  0  0  0  0  # atno 8008 bound_to 7997
  155.8217  140.3469  155.5497 H   0  0  0  0  0  0  0  0  0  0  0  0  # atno 8009 bound_to 7997
  155.8281  140.0908  157.1799 H   0  0  0  0  0  0  0  0  0  0  0  0  # atno 8010 bound_to 7997
  140.3769  144.2031  150.6131 H   0  0  0  0  0  0  0  0  0  0  0  0  # atno 10167 bound_to 10162
  155.9994  130.4950  150.5481 H   0  0  0  0  0  0  0  0  0  0  0  0  # atno 10718 bound_to 10713
  154.7697  135.3141  154.8215 H   0  0  0  0  0  0  0  0  0  0  0  0  # atno 10763 bound_to 10752
  153.8954  135.6821  153.4762 H   0  0  0  0  0  0  0  0  0  0  0  0  # atno 10764 bound_to 10752
  153.1308  135.4781  154.9280 H   0  0  0  0  0  0  0  0  0  0  0  0  # atno 10765 bound_to 10752
  140.9279  134.1358  157.4259 H   0  0  0  0  0  0  0  0  0  0  0  0  # atno 11005 bound_to 11000
  144.6751  140.0486  143.7479 LP  0  0  0  0  0  0  0  0  0  0  0  0  # atno 17320 bound_to 7965
  145.9710  139.2870  143.1099 LP  0  0  0  0  0  0  0  0  0  0  0  0  # atno 17321 bound_to 7965
  140.4977  143.2327  151.8725 LP  0  0  0  0  0  0  0  0  0  0  0  0  # atno 17342 bound_to 10162
  139.4798  144.5095  151.8952 LP  0  0  0  0  0  0  0  0  0  0  0  0  # atno 17343 bound_to 10162
  157.3408  131.0716  151.1789 LP  0  0  0  0  0  0  0  0  0  0  0  0  # atno 17370 bound_to 10713
  157.2638  130.6671  149.5987 LP  0  0  0  0  0  0  0  0  0  0  0  0  # atno 17371 bound_to 10713
  139.8789  134.9995  156.5957 LP  0  0  0  0  0  0  0  0  0  0  0  0  # atno 17394 bound_to 11000
  140.7901  133.8589  155.8639 LP  0  0  0  0  0  0  0  0  0  0  0  0  # atno 17395 bound_to 11000

$$$$
