AV-unprocessed.smi:2001|AV-procd|sdf|8107|dock2
  -GOLD-   2272010333D 1   1.00000     0.00000
 Structure written by MMmdl.
 51 52  0  0  0  0  0  0  0  0  2 V2000
  150.1471  138.2793  158.6825 C   0  0  0  0  0  0  0  0  0  0  0  0
  151.4371  138.8408  158.8482 O   0  0  0  0  0  0  0  0  0  0  0  0
  152.4745  137.9270  158.5329 C   0  0  0  0  0  0  0  0  0  0  0  0
  152.9414  138.1444  157.0841 C   0  0  0  0  0  0  0  0  0  0  0  0
  151.8245  138.0700  156.1352 N   0  0  0  0  0  0  0  0  0  0  0  0
  151.0960  136.8945  156.2180 N   0  0  0  0  0  0  0  0  0  0  0  0
  150.0767  136.7049  155.4440 C   0  0  0  0  0  0  0  0  0  0  0  0
  149.2712  135.4530  155.4995 C   0  0  0  0  0  0  0  0  0  0  0  0
  149.0466  134.8681  156.5605 O   0  0  0  0  0  0  0  0  0  0  0  0
  148.8063  135.0130  154.3177 N   0  0  0  0  0  0  0  0  0  0  0  0
  147.9802  133.8262  154.1477 C   0  0  0  0  0  0  0  0  0  0  0  0
  148.7184  132.7755  153.3031 C   0  0  0  0  0  0  0  0  0  0  0  0
  147.8126  132.0515  152.3767 N   0  3  1  0  0  0  0  0  0  0  0  0
  147.3427  130.7656  152.9416 C   0  0  0  0  0  0  0  0  0  0  0  0
  146.5000  129.9980  151.9080 C   0  0  1  0  0  0  0  0  0  0  0  0
  145.9260  128.7009  152.4885 C   0  0  0  0  0  0  0  0  0  0  0  0
  145.4092  130.8136  151.4878 O   0  0  0  0  0  0  0  0  0  0  0  0
  145.7821  132.0716  150.9250 C   0  0  2  0  0  0  0  0  0  0  0  0
  146.4153  131.9227  149.5302 C   0  0  0  0  0  0  0  0  0  0  0  0
  146.6581  132.8626  151.9169 C   0  0  0  0  0  0  0  0  0  0  0  0
  149.6771  137.7146  154.4786 C   0  0  0  0  0  0  0  0  0  0  0  0
  150.3964  138.8560  154.4098 C   0  0  0  0  0  0  0  0  0  0  0  0
  151.5528  139.0972  155.2741 C   0  0  0  0  0  0  0  0  0  0  0  0
  152.2192  140.1308  155.2306 O   0  0  0  0  0  0  0  0  0  0  0  0
  149.3902  139.0213  158.9372 H   0  0  0  0  0  0  0  0  0  0  0  0
  150.0056  137.4163  159.3345 H   0  0  0  0  0  0  0  0  0  0  0  0
  149.9815  137.9696  157.6499 H   0  0  0  0  0  0  0  0  0  0  0  0
  153.3139  138.0859  159.2115 H   0  0  0  0  0  0  0  0  0  0  0  0
  152.1351  136.8993  158.6735 H   0  0  0  0  0  0  0  0  0  0  0  0
  153.4812  139.0892  156.9993 H   0  0  0  0  0  0  0  0  0  0  0  0
  153.6725  137.3755  156.8285 H   0  0  0  0  0  0  0  0  0  0  0  0
  149.0353  135.5433  153.4889 H   0  0  0  0  0  0  0  0  0  0  0  0
  147.7325  133.4337  155.1341 H   0  0  0  0  0  0  0  0  0  0  0  0
  147.0423  134.1041  153.6641 H   0  0  0  0  0  0  0  0  0  0  0  0
  149.4843  133.2888  152.7194 H   0  0  0  0  0  0  0  0  0  0  0  0
  149.2419  132.0621  153.9416 H   0  0  0  0  0  0  0  0  0  0  0  0
  148.1982  130.1568  153.2370 H   0  0  0  0  0  0  0  0  0  0  0  0
  146.7585  130.9559  153.8437 H   0  0  0  0  0  0  0  0  0  0  0  0
  147.1194  129.7384  151.0491 H   0  0  0  0  0  0  0  0  0  0  0  0
  146.7216  128.0332  152.8204 H   0  0  0  0  0  0  0  0  0  0  0  0
  145.3355  128.1678  151.7428 H   0  0  0  0  0  0  0  0  0  0  0  0
  145.2795  128.9021  153.3433 H   0  0  0  0  0  0  0  0  0  0  0  0
  144.8531  132.6263  150.7892 H   0  0  0  0  0  0  0  0  0  0  0  0
  146.5606  132.8987  149.0662 H   0  0  0  0  0  0  0  0  0  0  0  0
  145.7715  131.3394  148.8718 H   0  0  0  0  0  0  0  0  0  0  0  0
  147.3887  131.4341  149.5657 H   0  0  0  0  0  0  0  0  0  0  0  0
  146.0596  133.1515  152.7825 H   0  0  0  0  0  0  0  0  0  0  0  0
  146.9942  133.7862  151.4466 H   0  0  0  0  0  0  0  0  0  0  0  0
  148.8276  137.5641  153.8282 H   0  0  0  0  0  0  0  0  0  0  0  0
  150.1110  139.6153  153.6966 H   0  0  0  0  0  0  0  0  0  0  0  0
  148.3586  131.8199  151.5589 H   0  0  0  0  0  0  0  0  0  0  0  0
  1  2  1  0  0  0  0
  1 25  1  0  0  0  0
  1 26  1  0  0  0  0
  1 27  1  0  0  0  0
  2  3  1  0  0  0  0
  3  4  1  0  0  0  0
  3 28  1  0  0  0  0
  3 29  1  0  0  0  0
  4  5  1  0  0  0  0
  4 30  1  0  0  0  0
  4 31  1  0  0  0  0
  5 23  1  0  0  0  0
  5  6  1  0  0  0  0
  6  7  2  0  0  0  0
  7  8  1  0  0  0  0
  7 21  1  0  0  0  0
  8  9  2  0  0  0  0
  8 10  1  0  0  0  0
 10 11  1  0  0  0  0
 10 32  1  0  0  0  0
 11 12  1  0  0  0  0
 11 33  1  0  0  0  0
 11 34  1  0  0  0  0
 12 13  1  0  0  0  0
 12 35  1  0  0  0  0
 12 36  1  0  0  0  0
 13 20  1  0  0  0  0
 13 14  1  0  0  0  0
 13 51  1  0  0  0  0
 14 15  1  0  0  0  0
 14 37  1  0  0  0  0
 14 38  1  0  0  0  0
 15 16  1  0  0  0  0
 15 17  1  0  0  0  0
 15 39  1  0  0  0  0
 16 40  1  0  0  0  0
 16 41  1  0  0  0  0
 16 42  1  0  0  0  0
 17 18  1  0  0  0  0
 18 19  1  0  0  0  0
 18 20  1  0  0  0  0
 18 43  1  0  0  0  0
 19 44  1  0  0  0  0
 19 45  1  0  0  0  0
 19 46  1  0  0  0  0
 20 47  1  0  0  0  0
 20 48  1  0  0  0  0
 21 22  2  0  0  0  0
 21 49  1  0  0  0  0
 22 23  1  0  0  0  0
 22 50  1  0  0  0  0
 23 24  2  0  0  0  0
M  CHG  1  13   1
M  END
> <s_m_source_file>
AV-unprocessed.smi

> <i_m_source_file_index>
2001

> <i_lp_mmshare_version>
43012

> <i_f3d_flags>
0

> <s_epik_input>
W0NIM11PW0NIMl1bQ0gyXW4xbmMoW2NIXVtjSF1jMT1PKUMoPU8pW05IXVtDSDJdW0NIMl1OMltDSDJdW0NAQEhdKFtDSDNdKU9bQ0BASF0oW0NIM10pW0NIMl0y

> <s_epik_cmdline>
J2VwaWtfcHl0aG9uJywgJy1waCcsICc3LjAnLCAnLXRuJywgJzgnLCAnLW1hJywgJzIwMCcsICctbWV0YWxfYmluZGluZycsICctaW1hZScsICc8aW5maWxlLm1hZT4nLCAnLW9tYWUnLCAnPG91dGZpbGUubWFlPic=

> <r_lp_tautomer_probability>
1

> <r_epik_Ionization_Penalty>
0.724354

> <r_epik_Ionization_Penalty_Charging>
0.724348

> <r_epik_Ionization_Penalty_Neutral>
6.1656e-06

> <r_epik_State_Penalty>
0.749058

> <r_epik_Charging_Adjusted_Penalty>
1.47341

> <i_epik_Tot_Q>
1

> <i_epik_Tot_abs_Q>
1

> <r_epik_Metal_State_Penalty>
0.750779

> <b_epik_Metal_Only>
0

> <s_lp_Force_Field>
OPLS_2005

> <r_lp_Energy>
40.2428

> <b_lp_Chiralities_Consistent>
1

> <s_lp_Variant>
AV-unprocessed.smi:2001-6

> <Gold.Version>
5.8.1

> <Gold.Id.Protein>
6NUR|6NUR_protein|mol2

> <Gold.PLP.Fitness>
49.2344

> <Gold.PLP.PLP>
-39.5080

> <Gold.PLP.part.hbond>
-5.0000

> <Gold.PLP.part.metal>
0.0000

> <Gold.PLP.part.buried>
-2.4529

> <Gold.PLP.part.nonpolar>
-32.1436

> <Gold.PLP.part.repulsive>
0.2255

> <Gold.PLP.ligand.clash>
0.0000

> <Gold.PLP.ligand.torsion>
1.4963

> <Gold.PLP.Chemscore.Hbond>
4.1413

> <Gold.PLP.Chemscore.CHOScore>
0.0000

> <Gold.PLP.Chemscore.Metal>
0.0000

> <Gold.Chemscore.Hbonds>
donor molecule, donor type, donor heavy atom, donor atom, acceptor molecule, acceptor atom, score
      L1  H    10    32       P1  7948  1.00
      L1  H    13    51       P1 10747  1.00
      P1  H  7989  7998       L1    24  0.69
      P1  H  7997  8010       L1    24  0.31

> <Gold.PLP.Chemscore.Internal.Correction>
0.2952

> <Gold.Rescore>
     Score         DG    S(hbond)    S(metal)    S(lipo)     H(rot)  DE(clash)    DE(int)     intcor
     18.48     -20.21       2.74        0.00      93.05       2.07       0.08       1.64       ----

> <Gold.Chemscore.Fitness>
18.4835

> <Gold.Chemscore.DG>
-20.2111

> <Gold.Chemscore.ZeroCoef>
-5.4800

> <Gold.Chemscore.Hbond>
2.7393

> <Gold.Chemscore.Metal>
0.0000

> <Gold.Chemscore.Lipo>
93.0478

> <Gold.Chemscore.Internal_Hbond>
0.0000

> <Gold.Chemscore.DEClash>
0.0850

> <Gold.Chemscore.DEInternal>
1.6426

> <Gold.Chemscore.Rot>
2.0721

> <Gold.Chemscore.Internal.Correction>
   9.000000E+99

> <Gold.Chemscore.Hbonds>
donor molecule, donor type, donor heavy atom, donor atom, acceptor molecule, acceptor atom, score
      L1  H    10    32       P1  7948  0.70
      L1  H    13    51       P1 10747  0.99
      P1  H  7989  7998       L1    24  0.23
      P1  H  7997  8010       L1    24  0.30

> <Gold.Chemscore.Hbond.Weighted>
-9.1492

> <Gold.Chemscore.Metal.Weighted>
-0.0000

> <Gold.Chemscore.Lipo.Weighted>
-10.8866

> <Gold.Chemscore.Internal_Hbond.Weighted>
0.0000

> <Gold.Chemscore.DEClash.Weighted>
0.0850

> <Gold.Chemscore.DEInternal.Weighted>
1.6426

> <Gold.Chemscore.Rot.Weighted>
5.3047

> <Gold.Chemscore.Internal.Correction.Weighted>
   9.000000E+99

> <Gold.Protein.RotatedTorsions>
[ 6907 6896 6895 6894 ] final  176.06 input  -60.11 | X-H torsion
[ 7974 7965 7964 7962 ] final   -0.10 input  175.53 | X-H torsion
[ 8008 7997 7996 7995 ] final   95.00 input   59.86 | X-H torsion
[ 10167 10162 10161 10158 ] final  -11.11 input  -65.29 | X-H torsion
[ 10718 10713 10712 10709 ] final   12.37 input   66.30 | X-H torsion
[ 10763 10752 10751 10750 ] final  -40.47 input  -60.55 | X-H torsion
[ 11005 11000 10999 10996 ] final -157.09 input  -57.11 | X-H torsion

> <Gold.Protein.ActiveResidues>
 VAL166  LYS551  ARG553  GLY616  TRP617  ASP618  TYR619  PRO620  LYS621  CYS622 
 ASP623  PHE694  ASN695  SER759  ASP760  ASP761  ALA762  ILE779  LEU786  VAL792 
 PHE793  MET794  SER795  GLU796  ALA797  LYS798  CYS799  TRP800  GLU811  SER814 

> <Gold.Protein.RotatedAtoms>
  151.7262  133.3316  159.3328 H   0  0  0  0  0  0  0  0  0  0  0  0  # atno 6907 bound_to 6896
  150.7632  134.6404  159.6243 H   0  0  0  0  0  0  0  0  0  0  0  0  # atno 6908 bound_to 6896
  152.3621  134.6860  160.0255 H   0  0  0  0  0  0  0  0  0  0  0  0  # atno 6909 bound_to 6896
  146.2430  140.1219  142.8340 H   0  0  0  0  0  0  0  0  0  0  0  0  # atno 7974 bound_to 7965
  156.0641  140.3292  155.7497 H   0  0  0  0  0  0  0  0  0  0  0  0  # atno 8008 bound_to 7997
  155.5408  140.0601  157.2888 H   0  0  0  0  0  0  0  0  0  0  0  0  # atno 8009 bound_to 7997
  154.4496  140.1911  156.0578 H   0  0  0  0  0  0  0  0  0  0  0  0  # atno 8010 bound_to 7997
  140.7130  143.5675  150.9128 H   0  0  0  0  0  0  0  0  0  0  0  0  # atno 10167 bound_to 10162
  157.0092  130.6110  149.5706 H   0  0  0  0  0  0  0  0  0  0  0  0  # atno 10718 bound_to 10713
  153.9465  135.6755  153.4744 H   0  0  0  0  0  0  0  0  0  0  0  0  # atno 10763 bound_to 10752
  153.0906  135.4877  154.8678 H   0  0  0  0  0  0  0  0  0  0  0  0  # atno 10764 bound_to 10752
  154.7349  135.3147  154.8787 H   0  0  0  0  0  0  0  0  0  0  0  0  # atno 10765 bound_to 10752
  140.6684  134.4274  157.5232 H   0  0  0  0  0  0  0  0  0  0  0  0  # atno 11005 bound_to 11000
  145.0399  140.8937  143.5058 LP  0  0  0  0  0  0  0  0  0  0  0  0  # atno 17320 bound_to 7965
  145.1298  139.2639  143.5545 LP  0  0  0  0  0  0  0  0  0  0  0  0  # atno 17321 bound_to 7965
  139.9401  143.6392  152.3056 LP  0  0  0  0  0  0  0  0  0  0  0  0  # atno 17342 bound_to 10162
  139.6873  144.7650  151.1500 LP  0  0  0  0  0  0  0  0  0  0  0  0  # atno 17343 bound_to 10162
  156.0142  130.5236  150.8084 LP  0  0  0  0  0  0  0  0  0  0  0  0  # atno 17370 bound_to 10713
  157.5333  131.0937  150.9926 LP  0  0  0  0  0  0  0  0  0  0  0  0  # atno 17371 bound_to 10713
  139.8990  134.8602  156.1980 LP  0  0  0  0  0  0  0  0  0  0  0  0  # atno 17394 bound_to 11000
  141.0411  133.6937  156.1600 LP  0  0  0  0  0  0  0  0  0  0  0  0  # atno 17395 bound_to 11000

$$$$
