AV-unprocessed.smi:2600|AV-procd|sdf|10181|dock6
  -GOLD-   2272014193D 1   1.00000     0.00000
 Structure written by MMmdl.
 44 45  0  0  0  0  0  0  0  0  1 V2000
  147.5258  140.6545  153.9054 C   0  0  0  0  0  0  0  0  0  0  0  0
  148.9835  141.0384  154.2084 C   0  0  0  0  0  0  0  0  0  0  0  0
  149.8382  139.9362  154.8785 C   0  0  1  0  0  0  0  0  0  0  0  0
  149.1991  139.5935  156.2446 C   0  0  0  0  0  0  0  0  0  0  0  0
  149.9674  138.6801  153.9754 C   0  0  0  0  0  0  0  0  0  0  0  0
  150.9411  137.7482  154.5626 N   0  0  0  0  0  0  0  0  0  0  0  0
  150.6840  136.5357  155.1130 C   0  0  0  0  0  0  0  0  0  0  0  0
  151.4565  135.9677  155.8865 O   0  0  0  0  0  0  0  0  0  0  0  0
  149.5101  135.9927  154.7487 N   0  0  0  0  0  0  0  0  0  0  0  0
  148.9845  134.7232  155.2353 C   0  0  0  0  0  0  0  0  0  0  0  0
  150.0041  133.5869  155.0507 C   0  0  0  0  0  0  0  0  0  0  0  0
  149.3772  132.2894  154.6500 C   0  0  0  0  0  0  0  0  0  0  0  0
  148.1935  132.0500  154.0100 C   0  0  0  0  0  0  0  0  0  0  0  0
  148.1394  130.6334  153.8991 C   0  0  0  0  0  0  0  0  0  0  0  0
  149.1984  130.0426  154.4248 N   0  0  0  0  0  0  0  0  0  0  0  0
  149.9597  131.0561  154.8898 N   0  0  0  0  0  0  0  0  0  0  0  0
  151.2215  130.7459  155.5357 C   0  0  0  0  0  0  0  0  0  0  0  0
  152.2574  138.3849  154.6297 C   0  0  0  0  0  0  0  0  0  0  0  0
  152.1534  139.6094  155.5535 C   0  0  0  0  0  0  0  0  0  0  0  0
  151.1397  140.5025  155.0857 O   0  0  0  0  0  0  0  0  0  0  0  0
  147.0322  141.4481  153.3444 H   0  0  0  0  0  0  0  0  0  0  0  0
  146.9473  140.5004  154.8156 H   0  0  0  0  0  0  0  0  0  0  0  0
  147.4662  139.7451  153.3071 H   0  0  0  0  0  0  0  0  0  0  0  0
  149.4555  141.3279  153.2684 H   0  0  0  0  0  0  0  0  0  0  0  0
  148.9875  141.9340  154.8312 H   0  0  0  0  0  0  0  0  0  0  0  0
  148.1799  139.2277  156.1167 H   0  0  0  0  0  0  0  0  0  0  0  0
  149.1540  140.4724  156.8879 H   0  0  0  0  0  0  0  0  0  0  0  0
  149.7448  138.8237  156.7888 H   0  0  0  0  0  0  0  0  0  0  0  0
  148.9833  138.2438  153.8040 H   0  0  0  0  0  0  0  0  0  0  0  0
  150.3346  138.9491  152.9853 H   0  0  0  0  0  0  0  0  0  0  0  0
  148.9306  136.5098  154.1036 H   0  0  0  0  0  0  0  0  0  0  0  0
  148.7449  134.8382  156.2928 H   0  0  0  0  0  0  0  0  0  0  0  0
  148.0465  134.4913  154.7290 H   0  0  0  0  0  0  0  0  0  0  0  0
  150.7525  133.8707  154.3101 H   0  0  0  0  0  0  0  0  0  0  0  0
  150.5534  133.4438  155.9820 H   0  0  0  0  0  0  0  0  0  0  0  0
  147.4736  132.7799  153.6702 H   0  0  0  0  0  0  0  0  0  0  0  0
  147.3679  130.0218  153.4554 H   0  0  0  0  0  0  0  0  0  0  0  0
  151.4113  131.4445  156.3503 H   0  0  0  0  0  0  0  0  0  0  0  0
  152.0310  130.8165  154.8090 H   0  0  0  0  0  0  0  0  0  0  0  0
  151.2005  129.7351  155.9451 H   0  0  0  0  0  0  0  0  0  0  0  0
  153.0371  137.7126  154.9902 H   0  0  0  0  0  0  0  0  0  0  0  0
  152.5658  138.6930  153.6295 H   0  0  0  0  0  0  0  0  0  0  0  0
  151.9522  139.3047  156.5805 H   0  0  0  0  0  0  0  0  0  0  0  0
  153.1028  140.1446  155.5718 H   0  0  0  0  0  0  0  0  0  0  0  0
  1  2  1  0  0  0  0
  1 21  1  0  0  0  0
  1 22  1  0  0  0  0
  1 23  1  0  0  0  0
  2  3  1  0  0  0  0
  2 24  1  0  0  0  0
  2 25  1  0  0  0  0
  3 20  1  0  0  0  0
  3  4  1  0  0  0  0
  3  5  1  0  0  0  0
  4 26  1  0  0  0  0
  4 27  1  0  0  0  0
  4 28  1  0  0  0  0
  5  6  1  0  0  0  0
  5 29  1  0  0  0  0
  5 30  1  0  0  0  0
  6  7  1  0  0  0  0
  6 18  1  0  0  0  0
  7  8  2  0  0  0  0
  7  9  1  0  0  0  0
  9 10  1  0  0  0  0
  9 31  1  0  0  0  0
 10 11  1  0  0  0  0
 10 32  1  0  0  0  0
 10 33  1  0  0  0  0
 11 12  1  0  0  0  0
 11 34  1  0  0  0  0
 11 35  1  0  0  0  0
 12 16  1  0  0  0  0
 12 13  2  0  0  0  0
 13 14  1  0  0  0  0
 13 36  1  0  0  0  0
 14 15  2  0  0  0  0
 14 37  1  0  0  0  0
 15 16  1  0  0  0  0
 16 17  1  0  0  0  0
 17 38  1  0  0  0  0
 17 39  1  0  0  0  0
 17 40  1  0  0  0  0
 18 19  1  0  0  0  0
 18 41  1  0  0  0  0
 18 42  1  0  0  0  0
 19 20  1  0  0  0  0
 19 43  1  0  0  0  0
 19 44  1  0  0  0  0
M  END
> <s_m_source_file>
AV-unprocessed.smi

> <i_m_source_file_index>
2600

> <i_lp_mmshare_version>
43012

> <i_f3d_flags>
0

> <s_epik_input>
W0NIM11bQ0gyXVtDQEBdMShbQ0gzXSlbQ0gyXU4oW0NIMl1bQ0gyXU8xKUMoPU8pW05IXVtDSDJdW0NIMl1jMltjSF1bY0hdbm4yW0NIM10=

> <s_epik_cmdline>
J2VwaWtfcHl0aG9uJywgJy1waCcsICc3LjAnLCAnLXRuJywgJzgnLCAnLW1hJywgJzIwMCcsICctbWV0YWxfYmluZGluZycsICctaW1hZScsICc8aW5maWxlLm1hZT4nLCAnLW9tYWUnLCAnPG91dGZpbGUubWFlPic=

> <r_lp_tautomer_probability>
1

> <r_epik_Ionization_Penalty>
0.00252014

> <r_epik_Ionization_Penalty_Charging>
0

> <r_epik_Ionization_Penalty_Neutral>
0.00252014

> <r_epik_State_Penalty>
0.00172506

> <r_epik_Charging_Adjusted_Penalty>
0.00172506

> <i_epik_Tot_Q>
0

> <i_epik_Tot_abs_Q>
0

> <r_epik_Metal_State_Penalty>
-0

> <b_epik_Metal_Only>
0

> <s_lp_Force_Field>
OPLS_2005

> <r_lp_Energy>
28.913

> <b_lp_Chiralities_Consistent>
1

> <s_lp_Variant>
AV-unprocessed.smi:2600-1

> <Gold.Version>
5.8.1

> <Gold.Id.Protein>
6NUR|6NUR_protein|mol2

> <Gold.PLP.Fitness>
45.6526

> <Gold.PLP.PLP>
-39.6563

> <Gold.PLP.part.hbond>
-3.0000

> <Gold.PLP.part.metal>
0.0000

> <Gold.PLP.part.buried>
-2.4351

> <Gold.PLP.part.nonpolar>
-34.0767

> <Gold.PLP.part.repulsive>
0.2274

> <Gold.PLP.ligand.clash>
0.0000

> <Gold.PLP.ligand.torsion>
0.7488

> <Gold.PLP.Chemscore.Hbond>
2.4896

> <Gold.PLP.Chemscore.CHOScore>
0.0000

> <Gold.PLP.Chemscore.Metal>
0.0000

> <Gold.Chemscore.Hbonds>
donor molecule, donor type, donor heavy atom, donor atom, acceptor molecule, acceptor atom, score
      L1  H     9    31       P1  7948  0.22
      P1  H  7989  7998       L1    20  0.98
      P1  H 10752 10765       L1     8  1.00

> <Gold.PLP.Chemscore.Internal.Correction>
0.0251

> <Gold.Rescore>
     Score         DG    S(hbond)    S(metal)    S(lipo)     H(rot)  DE(clash)    DE(int)     intcor
     14.22     -16.77       1.70        0.00      80.31       1.47       0.51       2.04       ----

> <Gold.Chemscore.Fitness>
14.2243

> <Gold.Chemscore.DG>
-16.7724

> <Gold.Chemscore.ZeroCoef>
-5.4800

> <Gold.Chemscore.Hbond>
1.6972

> <Gold.Chemscore.Metal>
0.0000

> <Gold.Chemscore.Lipo>
80.3067

> <Gold.Chemscore.Internal_Hbond>
0.0000

> <Gold.Chemscore.DEClash>
0.5110

> <Gold.Chemscore.DEInternal>
2.0371

> <Gold.Chemscore.Rot>
1.4735

> <Gold.Chemscore.Internal.Correction>
   9.000000E+99

> <Gold.Chemscore.Hbonds>
donor molecule, donor type, donor heavy atom, donor atom, acceptor molecule, acceptor atom, score
      L1  H     9    31       P1  7948  0.22
      P1  H  7989  7998       L1    20  0.17
      P1  H 10752 10765       L1     8  0.74

> <Gold.Chemscore.Hbond.Weighted>
-5.6686

> <Gold.Chemscore.Metal.Weighted>
-0.0000

> <Gold.Chemscore.Lipo.Weighted>
-9.3959

> <Gold.Chemscore.Internal_Hbond.Weighted>
0.0000

> <Gold.Chemscore.DEClash.Weighted>
0.5110

> <Gold.Chemscore.DEInternal.Weighted>
2.0371

> <Gold.Chemscore.Rot.Weighted>
3.7721

> <Gold.Chemscore.Internal.Correction.Weighted>
   9.000000E+99

> <Gold.Protein.RotatedTorsions>
[ 6907 6896 6895 6894 ] final -175.55 input  -60.11 | X-H torsion
[ 7974 7965 7964 7962 ] final   67.21 input  175.53 | X-H torsion
[ 8008 7997 7996 7995 ] final -147.29 input   59.86 | X-H torsion
[ 10167 10162 10161 10158 ] final -140.83 input  -65.29 | X-H torsion
[ 10718 10713 10712 10709 ] final -109.36 input   66.30 | X-H torsion
[ 10763 10752 10751 10750 ] final -156.14 input  -60.55 | X-H torsion
[ 11005 11000 10999 10996 ] final -165.92 input  -57.11 | X-H torsion

> <Gold.Protein.ActiveResidues>
 VAL166  LYS551  ARG553  GLY616  TRP617  ASP618  TYR619  PRO620  LYS621  CYS622 
 ASP623  PHE694  ASN695  SER759  ASP760  ASP761  ALA762  ILE779  LEU786  VAL792 
 PHE793  MET794  SER795  GLU796  ALA797  LYS798  CYS799  TRP800  GLU811  SER814 

> <Gold.Protein.RotatedAtoms>
  151.5904  133.3367  159.3026 H   0  0  0  0  0  0  0  0  0  0  0  0  # atno 6907 bound_to 6896
  150.8263  134.7499  159.6827 H   0  0  0  0  0  0  0  0  0  0  0  0  # atno 6908 bound_to 6896
  152.4352  134.5706  159.9972 H   0  0  0  0  0  0  0  0  0  0  0  0  # atno 6909 bound_to 6896
  145.8173  139.3065  143.1064 H   0  0  0  0  0  0  0  0  0  0  0  0  # atno 7974 bound_to 7965
  155.5732  140.0636  157.2801 H   0  0  0  0  0  0  0  0  0  0  0  0  # atno 8008 bound_to 7997
  154.4354  140.1865  156.0946 H   0  0  0  0  0  0  0  0  0  0  0  0  # atno 8009 bound_to 7997
  156.0361  140.3301  155.7196 H   0  0  0  0  0  0  0  0  0  0  0  0  # atno 8010 bound_to 7997
  139.8244  143.7531  152.2666 H   0  0  0  0  0  0  0  0  0  0  0  0  # atno 10167 bound_to 10162
  156.0533  130.5760  150.8089 H   0  0  0  0  0  0  0  0  0  0  0  0  # atno 10718 bound_to 10713
  154.7735  135.3152  154.8141 H   0  0  0  0  0  0  0  0  0  0  0  0  # atno 10763 bound_to 10752
  153.8870  135.6829  153.4767 H   0  0  0  0  0  0  0  0  0  0  0  0  # atno 10764 bound_to 10752
  153.1353  135.4762  154.9348 H   0  0  0  0  0  0  0  0  0  0  0  0  # atno 10765 bound_to 10752
  140.5703  134.5244  157.5160 H   0  0  0  0  0  0  0  0  0  0  0  0  # atno 11005 bound_to 11000
  145.9713  140.8758  143.0161 LP  0  0  0  0  0  0  0  0  0  0  0  0  # atno 17320 bound_to 7965
  144.6751  140.1949  143.7393 LP  0  0  0  0  0  0  0  0  0  0  0  0  # atno 17321 bound_to 7965
  139.7719  144.7473  151.0212 LP  0  0  0  0  0  0  0  0  0  0  0  0  # atno 17342 bound_to 10162
  140.7811  143.4635  151.0244 LP  0  0  0  0  0  0  0  0  0  0  0  0  # atno 17343 bound_to 10162
  157.5480  131.0943  150.9736 LP  0  0  0  0  0  0  0  0  0  0  0  0  # atno 17370 bound_to 10713
  157.0003  130.5597  149.5311 LP  0  0  0  0  0  0  0  0  0  0  0  0  # atno 17371 bound_to 10713
  139.9365  134.7866  156.0789 LP  0  0  0  0  0  0  0  0  0  0  0  0  # atno 17394 bound_to 11000
  141.1060  133.6660  156.2865 LP  0  0  0  0  0  0  0  0  0  0  0  0  # atno 17395 bound_to 11000

$$$$
