AV-unprocessed.smi:431|AV-procd|sdf|2547|dock2
  -GOLD-   2262022513D 1   1.00000     0.00000
 Structure written by MMmdl.
 43 44  0  0  0  0  0  0  0  0  1 V2000
  148.8659  132.5570  154.4233 C   0  0  0  0  0  0  0  0  0  0  0  0
  149.7286  133.8143  154.2279 C   0  0  0  0  0  0  0  0  0  0  0  0
  149.7583  134.7632  155.4471 C   0  0  2  0  0  0  0  0  0  0  0  0
  148.3830  135.4144  155.6709 C   0  0  0  0  0  0  0  0  0  0  0  0
  150.8382  135.8460  155.3033 C   0  0  0  0  0  0  0  0  0  0  0  0
  151.7914  135.8795  156.0822 O   0  0  0  0  0  0  0  0  0  0  0  0
  150.6685  136.7334  154.3107 N   0  0  0  0  0  0  0  0  0  0  0  0
  151.5524  137.8626  154.0413 C   0  0  0  0  0  0  0  0  0  0  0  0
  151.7225  138.8100  155.2203 C   0  0  0  0  0  0  0  0  0  0  0  0
  150.9256  139.9638  155.3705 C   0  0  0  0  0  0  0  0  0  0  0  0
  151.1335  140.7983  156.4849 C   0  0  0  0  0  0  0  0  0  0  0  0
  152.1373  140.4605  157.4239 C   0  0  0  0  0  0  0  0  0  0  0  0
  152.3597  141.2785  158.5538 N   0  0  0  0  0  0  0  0  0  0  0  0
  151.4231  142.3862  158.7295 C   0  0  0  0  0  0  0  0  0  0  0  0
  151.9439  143.3653  159.7958 C   0  0  0  0  0  0  0  0  0  0  0  0
  152.2046  142.6654  161.0078 O   0  0  0  0  0  0  0  0  0  0  0  0
  153.2048  141.6669  160.8367 C   0  0  0  0  0  0  0  0  0  0  0  0
  152.7271  140.6263  159.8098 C   0  0  0  0  0  0  0  0  0  0  0  0
  152.9124  139.3590  157.2655 N   0  0  0  0  0  0  0  0  0  0  0  0
  152.7076  138.5613  156.1962 C   0  0  0  0  0  0  0  0  0  0  0  0
  148.8219  131.9738  153.5037 H   0  0  0  0  0  0  0  0  0  0  0  0
  147.8443  132.8188  154.6990 H   0  0  0  0  0  0  0  0  0  0  0  0
  149.2688  131.9079  155.2008 H   0  0  0  0  0  0  0  0  0  0  0  0
  150.7435  133.5167  153.9600 H   0  0  0  0  0  0  0  0  0  0  0  0
  149.3438  134.3613  153.3664 H   0  0  0  0  0  0  0  0  0  0  0  0
  149.9860  134.1666  156.3322 H   0  0  0  0  0  0  0  0  0  0  0  0
  148.3993  136.0969  156.5217 H   0  0  0  0  0  0  0  0  0  0  0  0
  147.6233  134.6594  155.8749 H   0  0  0  0  0  0  0  0  0  0  0  0
  148.0590  135.9797  154.7960 H   0  0  0  0  0  0  0  0  0  0  0  0
  149.8607  136.6311  153.7137 H   0  0  0  0  0  0  0  0  0  0  0  0
  152.5269  137.4969  153.7126 H   0  0  0  0  0  0  0  0  0  0  0  0
  151.1377  138.4276  153.2066 H   0  0  0  0  0  0  0  0  0  0  0  0
  150.1658  140.2136  154.6447 H   0  0  0  0  0  0  0  0  0  0  0  0
  150.5338  141.6890  156.5962 H   0  0  0  0  0  0  0  0  0  0  0  0
  151.2606  142.9310  157.8009 H   0  0  0  0  0  0  0  0  0  0  0  0
  150.4562  141.9833  159.0340 H   0  0  0  0  0  0  0  0  0  0  0  0
  152.8490  143.8689  159.4518 H   0  0  0  0  0  0  0  0  0  0  0  0
  151.2018  144.1408  159.9863 H   0  0  0  0  0  0  0  0  0  0  0  0
  154.1427  142.1256  160.5187 H   0  0  0  0  0  0  0  0  0  0  0  0
  153.3951  141.1868  161.7966 H   0  0  0  0  0  0  0  0  0  0  0  0
  151.8647  140.0849  160.2012 H   0  0  0  0  0  0  0  0  0  0  0  0
  153.5210  139.8979  159.6398 H   0  0  0  0  0  0  0  0  0  0  0  0
  153.3498  137.6960  156.1215 H   0  0  0  0  0  0  0  0  0  0  0  0
  1  2  1  0  0  0  0
  1 21  1  0  0  0  0
  1 22  1  0  0  0  0
  1 23  1  0  0  0  0
  2  3  1  0  0  0  0
  2 24  1  0  0  0  0
  2 25  1  0  0  0  0
  3  4  1  0  0  0  0
  3  5  1  0  0  0  0
  3 26  1  0  0  0  0
  4 27  1  0  0  0  0
  4 28  1  0  0  0  0
  4 29  1  0  0  0  0
  5  6  2  0  0  0  0
  5  7  1  0  0  0  0
  7  8  1  0  0  0  0
  7 30  1  0  0  0  0
  8  9  1  0  0  0  0
  8 31  1  0  0  0  0
  8 32  1  0  0  0  0
  9 20  1  0  0  0  0
  9 10  2  0  0  0  0
 10 11  1  0  0  0  0
 10 33  1  0  0  0  0
 11 12  2  0  0  0  0
 11 34  1  0  0  0  0
 12 13  1  0  0  0  0
 12 19  1  0  0  0  0
 13 18  1  0  0  0  0
 13 14  1  0  0  0  0
 14 15  1  0  0  0  0
 14 35  1  0  0  0  0
 14 36  1  0  0  0  0
 15 16  1  0  0  0  0
 15 37  1  0  0  0  0
 15 38  1  0  0  0  0
 16 17  1  0  0  0  0
 17 18  1  0  0  0  0
 17 39  1  0  0  0  0
 17 40  1  0  0  0  0
 18 41  1  0  0  0  0
 18 42  1  0  0  0  0
 19 20  2  0  0  0  0
 20 43  1  0  0  0  0
M  END
> <s_m_source_file>
AV-unprocessed.smi

> <i_m_source_file_index>
431

> <i_lp_mmshare_version>
43012

> <i_f3d_flags>
0

> <s_epik_input>
W0NIM11bQ0gyXVtDQEhdKFtDSDNdKUMoPU8pW05IXVtDSDJdYzFbY0hdW2NIXWMobltjSF0xKU4yW0NIMl1bQ0gyXU9bQ0gyXVtDSDJdMg==

> <s_epik_cmdline>
J2VwaWtfcHl0aG9uJywgJy1waCcsICc3LjAnLCAnLXRuJywgJzgnLCAnLW1hJywgJzIwMCcsICctbWV0YWxfYmluZGluZycsICctaW1hZScsICc8aW5maWxlLm1hZT4nLCAnLW9tYWUnLCAnPG91dGZpbGUubWFlPic=

> <r_lp_tautomer_probability>
1

> <r_epik_Ionization_Penalty>
0.00513882

> <r_epik_Ionization_Penalty_Charging>
0

> <r_epik_Ionization_Penalty_Neutral>
0.00513882

> <r_epik_State_Penalty>
0.00374265

> <r_epik_Charging_Adjusted_Penalty>
0.00374265

> <i_epik_Tot_Q>
0

> <i_epik_Tot_abs_Q>
0

> <r_epik_Metal_State_Penalty>
-0

> <b_epik_Metal_Only>
0

> <s_lp_Force_Field>
OPLS_2005

> <r_lp_Energy>
15.574

> <b_lp_Chiralities_Consistent>
1

> <s_lp_Variant>
AV-unprocessed.smi:431-1

> <Gold.Version>
5.8.1

> <Gold.Id.Protein>
6NUR|6NUR_protein|mol2

> <Gold.PLP.Fitness>
46.0013

> <Gold.PLP.PLP>
-38.2103

> <Gold.PLP.part.hbond>
-4.0000

> <Gold.PLP.part.metal>
0.0000

> <Gold.PLP.part.buried>
-2.6501

> <Gold.PLP.part.nonpolar>
-31.6187

> <Gold.PLP.part.repulsive>
0.1481

> <Gold.PLP.ligand.clash>
0.0000

> <Gold.PLP.ligand.torsion>
0.8034

> <Gold.PLP.Chemscore.Hbond>
3.0000

> <Gold.PLP.Chemscore.CHOScore>
0.0000

> <Gold.PLP.Chemscore.Metal>
0.0000

> <Gold.Chemscore.Hbonds>
donor molecule, donor type, donor heavy atom, donor atom, acceptor molecule, acceptor atom, score
      L1  H     7    30       P1  7948  0.93
      P1  H  7997  8009       L1    19  1.00
      P1  H 10752 10763       L1     6  1.00

> <Gold.PLP.Chemscore.Internal.Correction>
0.3977

> <Gold.Rescore>
     Score         DG    S(hbond)    S(metal)    S(lipo)     H(rot)  DE(clash)    DE(int)     intcor
     15.85     -18.28       1.86        0.00      92.12       1.64       0.04       2.39       ----

> <Gold.Chemscore.Fitness>
15.8495

> <Gold.Chemscore.DG>
-18.2788

> <Gold.Chemscore.ZeroCoef>
-5.4800

> <Gold.Chemscore.Hbond>
1.8625

> <Gold.Chemscore.Metal>
0.0000

> <Gold.Chemscore.Lipo>
92.1222

> <Gold.Chemscore.Internal_Hbond>
0.0000

> <Gold.Chemscore.DEClash>
0.0434

> <Gold.Chemscore.DEInternal>
2.3859

> <Gold.Chemscore.Rot>
1.6407

> <Gold.Chemscore.Internal.Correction>
   9.000000E+99

> <Gold.Chemscore.Hbonds>
donor molecule, donor type, donor heavy atom, donor atom, acceptor molecule, acceptor atom, score
      L1  H     7    30       P1  7948  0.34
      P1  H  7997  8009       L1    19  0.17
      P1  H 10752 10763       L1     6  0.45

> <Gold.Chemscore.Hbond.Weighted>
-6.2206

> <Gold.Chemscore.Metal.Weighted>
-0.0000

> <Gold.Chemscore.Lipo.Weighted>
-10.7783

> <Gold.Chemscore.Internal_Hbond.Weighted>
0.0000

> <Gold.Chemscore.DEClash.Weighted>
0.0434

> <Gold.Chemscore.DEInternal.Weighted>
2.3859

> <Gold.Chemscore.Rot.Weighted>
4.2001

> <Gold.Chemscore.Internal.Correction.Weighted>
   9.000000E+99

> <Gold.Protein.RotatedTorsions>
[ 6907 6896 6895 6894 ] final   10.18 input  -60.11 | X-H torsion
[ 7974 7965 7964 7962 ] final -129.57 input  175.53 | X-H torsion
[ 8008 7997 7996 7995 ] final  156.57 input   59.86 | X-H torsion
[ 10167 10162 10161 10158 ] final   21.34 input  -65.29 | X-H torsion
[ 10718 10713 10712 10709 ] final  154.54 input   66.30 | X-H torsion
[ 10763 10752 10751 10750 ] final   92.51 input  -60.55 | X-H torsion
[ 11005 11000 10999 10996 ] final  -36.78 input  -57.11 | X-H torsion

> <Gold.Protein.ActiveResidues>
 VAL166  LYS551  ARG553  GLY616  TRP617  ASP618  TYR619  PRO620  LYS621  CYS622 
 ASP623  PHE694  ASN695  SER759  ASP760  ASP761  ALA762  ILE779  LEU786  VAL792 
 PHE793  MET794  SER795  GLU796  ALA797  LYS798  CYS799  TRP800  GLU811  SER814 

> <Gold.Protein.RotatedAtoms>
  151.7341  135.0868  160.0304 H   0  0  0  0  0  0  0  0  0  0  0  0  # atno 6907 bound_to 6896
  152.3522  133.6189  159.5961 H   0  0  0  0  0  0  0  0  0  0  0  0  # atno 6908 bound_to 6896
  150.7547  133.9472  159.3516 H   0  0  0  0  0  0  0  0  0  0  0  0  # atno 6909 bound_to 6896
  144.9559  140.7395  143.4759 H   0  0  0  0  0  0  0  0  0  0  0  0  # atno 7974 bound_to 7965
  156.2415  140.1909  156.6975 H   0  0  0  0  0  0  0  0  0  0  0  0  # atno 8008 bound_to 7997
  154.6206  140.0609  156.9636 H   0  0  0  0  0  0  0  0  0  0  0  0  # atno 8009 bound_to 7997
  155.1868  140.3281  155.4368 H   0  0  0  0  0  0  0  0  0  0  0  0  # atno 8010 bound_to 7997
  140.5434  143.9637  150.6533 H   0  0  0  0  0  0  0  0  0  0  0  0  # atno 10167 bound_to 10162
  157.2302  131.0737  151.1858 H   0  0  0  0  0  0  0  0  0  0  0  0  # atno 10718 bound_to 10713
  153.2200  135.4359  155.0478 H   0  0  0  0  0  0  0  0  0  0  0  0  # atno 10763 bound_to 10752
  154.8245  135.3354  154.6942 H   0  0  0  0  0  0  0  0  0  0  0  0  # atno 10764 bound_to 10752
  153.7374  135.7007  153.5031 H   0  0  0  0  0  0  0  0  0  0  0  0  # atno 10765 bound_to 10752
  140.9901  133.7009  156.1836 H   0  0  0  0  0  0  0  0  0  0  0  0  # atno 11005 bound_to 11000
  145.2773  139.1931  143.4809 LP  0  0  0  0  0  0  0  0  0  0  0  0  # atno 17320 bound_to 7965
  146.3337  140.2730  142.8606 LP  0  0  0  0  0  0  0  0  0  0  0  0  # atno 17321 bound_to 7965
  140.3044  143.3239  152.0940 LP  0  0  0  0  0  0  0  0  0  0  0  0  # atno 17342 bound_to 10162
  139.4997  144.6676  151.6319 LP  0  0  0  0  0  0  0  0  0  0  0  0  # atno 17343 bound_to 10162
  157.3486  130.7070  149.6426 LP  0  0  0  0  0  0  0  0  0  0  0  0  # atno 17370 bound_to 10713
  155.9676  130.4259  150.4675 LP  0  0  0  0  0  0  0  0  0  0  0  0  # atno 17371 bound_to 10713
  140.7052  134.4520  157.5584 LP  0  0  0  0  0  0  0  0  0  0  0  0  # atno 17394 bound_to 11000
  139.8988  134.8604  156.1984 LP  0  0  0  0  0  0  0  0  0  0  0  0  # atno 17395 bound_to 11000

$$$$
