AV-unprocessed.smi:196|AV-procd|sdf|1539|dock2
  -GOLD-   2262019393D 1   1.00000     0.00000
 Structure written by MMmdl.
 47 50  0  0  0  0  0  0  0  0  1 V2000
  148.8874  139.3543  153.6983 C   0  0  0  0  0  0  0  0  0  0  0  0
  150.3021  138.8123  153.9560 C   0  0  1  0  0  0  0  0  0  0  0  0
  151.0133  139.7963  154.7025 O   0  0  0  0  0  0  0  0  0  0  0  0
  151.9693  139.1475  155.5216 C   0  0  0  0  0  0  0  0  0  0  0  0
  151.2048  137.9275  156.0118 C   0  0  0  0  0  0  0  0  0  0  0  0
  150.4124  137.4976  154.7793 C   0  0  2  0  0  0  0  0  0  0  0  0
  151.2193  136.5952  154.0415 O   0  0  0  0  0  0  0  0  0  0  0  0
  149.0776  136.7824  155.1178 C   0  0  0  0  0  0  0  0  0  0  0  0
  149.0117  136.2996  156.4888 N   0  0  0  0  0  0  0  0  0  0  0  0
  149.7686  135.2932  157.0461 C   0  0  0  0  0  0  0  0  0  0  0  0
  149.5172  135.0351  158.3007 N   0  0  0  0  0  0  0  0  0  0  0  0
  148.5197  135.9415  158.6364 C   0  0  0  0  0  0  0  0  0  0  0  0
  147.7944  136.2099  159.8276 C   0  0  0  0  0  0  0  0  0  0  0  0
  148.0027  135.4798  160.9563 N   0  0  0  0  0  0  0  0  0  0  0  0
  147.9457  134.0491  160.6771 C   0  0  0  0  0  0  0  0  0  0  0  0
  146.5374  133.5861  161.0836 C   0  0  2  0  0  0  0  0  0  0  0  0
  145.7734  133.3889  160.0085 F   0  0  0  0  0  0  0  0  0  0  0  0
  145.9690  134.7293  161.9350 C   0  0  0  0  0  0  0  0  0  0  0  0
  147.1766  135.6554  162.1598 C   0  0  2  0  0  0  0  0  0  0  0  0
  146.8433  137.0991  162.5924 C   0  0  0  0  0  0  0  0  0  0  0  0
  145.5843  137.5088  162.4186 N   0  0  0  0  0  0  0  0  0  0  0  0
  147.6888  137.8222  163.1169 O   0  0  0  0  0  0  0  0  0  0  0  0
  146.8541  137.1919  159.7829 N   0  0  0  0  0  0  0  0  0  0  0  0
  146.6541  137.8804  158.6553 C   0  0  0  0  0  0  0  0  0  0  0  0
  147.2625  137.7446  157.4752 N   0  0  0  0  0  0  0  0  0  0  0  0
  148.1938  136.7488  157.5110 C   0  0  0  0  0  0  0  0  0  0  0  0
  146.5737  132.6434  161.6302 H   0  0  0  0  0  0  0  0  0  0  0  0
  147.7656  135.2430  162.9812 H   0  0  0  0  0  0  0  0  0  0  0  0
  148.2894  138.6497  153.1204 H   0  0  0  0  0  0  0  0  0  0  0  0
  148.9316  140.2842  153.1312 H   0  0  0  0  0  0  0  0  0  0  0  0
  148.3626  139.5661  154.6301 H   0  0  0  0  0  0  0  0  0  0  0  0
  150.8068  138.7013  152.9944 H   0  0  0  0  0  0  0  0  0  0  0  0
  152.8351  138.8581  154.9241 H   0  0  0  0  0  0  0  0  0  0  0  0
  152.3068  139.7903  156.3348 H   0  0  0  0  0  0  0  0  0  0  0  0
  151.8524  137.1479  156.4159 H   0  0  0  0  0  0  0  0  0  0  0  0
  150.5245  138.2383  156.8057 H   0  0  0  0  0  0  0  0  0  0  0  0
  150.9764  136.6509  153.1299 H   0  0  0  0  0  0  0  0  0  0  0  0
  148.2346  137.4575  154.9691 H   0  0  0  0  0  0  0  0  0  0  0  0
  148.9176  135.9355  154.4492 H   0  0  0  0  0  0  0  0  0  0  0  0
  150.5146  134.7473  156.4871 H   0  0  0  0  0  0  0  0  0  0  0  0
  148.1751  133.7926  159.6404 H   0  0  0  0  0  0  0  0  0  0  0  0
  148.6972  133.5559  161.2952 H   0  0  0  0  0  0  0  0  0  0  0  0
  145.1701  135.2458  161.4005 H   0  0  0  0  0  0  0  0  0  0  0  0
  145.5526  134.3657  162.8749 H   0  0  0  0  0  0  0  0  0  0  0  0
  145.3159  138.4433  162.6899 H   0  0  0  0  0  0  0  0  0  0  0  0
  144.9040  136.8784  162.0195 H   0  0  0  0  0  0  0  0  0  0  0  0
  145.8966  138.6484  158.7049 H   0  0  0  0  0  0  0  0  0  0  0  0
  1  2  1  0  0  0  0
  1 29  1  0  0  0  0
  1 30  1  0  0  0  0
  1 31  1  0  0  0  0
  2  6  1  0  0  0  0
  2  3  1  0  0  0  0
  2 32  1  0  0  0  0
  3  4  1  0  0  0  0
  4  5  1  0  0  0  0
  4 33  1  0  0  0  0
  4 34  1  0  0  0  0
  5  6  1  0  0  0  0
  5 35  1  0  0  0  0
  5 36  1  0  0  0  0
  6  7  1  0  0  0  0
  6  8  1  0  0  0  0
  7 37  1  0  0  0  0
  8  9  1  0  0  0  0
  8 38  1  0  0  0  0
  8 39  1  0  0  0  0
  9 26  1  0  0  0  0
  9 10  1  0  0  0  0
 10 11  2  0  0  0  0
 10 40  1  0  0  0  0
 11 12  1  0  0  0  0
 12 26  2  0  0  0  0
 12 13  1  0  0  0  0
 13 14  1  0  0  0  0
 13 23  2  0  0  0  0
 14 19  1  0  0  0  0
 14 15  1  0  0  0  0
 15 16  1  0  0  0  0
 15 41  1  0  0  0  0
 15 42  1  0  0  0  0
 16 27  1  0  0  0  0
 16 17  1  0  0  0  0
 16 18  1  0  0  0  0
 18 19  1  0  0  0  0
 18 43  1  0  0  0  0
 18 44  1  0  0  0  0
 19 28  1  0  0  0  0
 19 20  1  0  0  0  0
 20 21  1  0  0  0  0
 20 22  2  0  0  0  0
 21 45  1  0  0  0  0
 21 46  1  0  0  0  0
 23 24  1  0  0  0  0
 24 25  2  0  0  0  0
 24 47  1  0  0  0  0
 25 26  1  0  0  0  0
M  END
> <s_m_source_file>
AV-unprocessed.smi

> <i_m_source_file_index>
196

> <i_lp_mmshare_version>
43012

> <i_f3d_flags>
0

> <s_epik_input>
W0NIMl0xW0NIMl1PW0NAQEhdKFtDSDNdKVtDQEBdMShbT0hdKVtDSDJdbihbY0hdbjIpYyhjMjMpbltjSF1uYzNONFtDSDJdW0NASF0oRilbQ0gyXVtDQEhdNEMoPU8pW05IMl0=

> <s_epik_cmdline>
J2VwaWtfcHl0aG9uJywgJy1waCcsICc3LjAnLCAnLXRuJywgJzgnLCAnLW1hJywgJzIwMCcsICctbWV0YWxfYmluZGluZycsICctaW1hZScsICc8aW5maWxlLm1hZT4nLCAnLW9tYWUnLCAnPG91dGZpbGUubWFlPic=

> <r_lp_tautomer_probability>
1

> <r_epik_Ionization_Penalty>
0.000857933

> <r_epik_Ionization_Penalty_Charging>
0

> <r_epik_Ionization_Penalty_Neutral>
0.000857933

> <r_epik_State_Penalty>
0.000462053

> <r_epik_Charging_Adjusted_Penalty>
0.000462053

> <i_epik_Tot_Q>
0

> <i_epik_Tot_abs_Q>
0

> <r_epik_Metal_State_Penalty>
-0

> <b_epik_Metal_Only>
0

> <s_lp_Force_Field>
OPLS_2005

> <r_lp_Energy>
50.8061

> <b_lp_Chiralities_Consistent>
1

> <s_lp_Variant>
AV-unprocessed.smi:196-12

> <Gold.Version>
5.8.1

> <Gold.Id.Protein>
6NUR|6NUR_protein|mol2

> <Gold.PLP.Fitness>
44.4308

> <Gold.PLP.PLP>
-33.1122

> <Gold.PLP.part.hbond>
-7.0325

> <Gold.PLP.part.metal>
0.0000

> <Gold.PLP.part.buried>
-1.4364

> <Gold.PLP.part.nonpolar>
-24.6161

> <Gold.PLP.part.repulsive>
0.3614

> <Gold.PLP.ligand.clash>
0.0000

> <Gold.PLP.ligand.torsion>
1.4328

> <Gold.PLP.Chemscore.Hbond>
4.6858

> <Gold.PLP.Chemscore.CHOScore>
0.0000

> <Gold.PLP.Chemscore.Metal>
0.0000

> <Gold.Chemscore.Hbonds>
donor molecule, donor type, donor heavy atom, donor atom, acceptor molecule, acceptor atom, score
      L1  H     7    37       P1  7949  0.90
      P1  H  6896  6907       L1    11  1.00
      P1  H  6931  6943       L1    22  0.34
      P1  H  6934  6947       L1    23  0.35
      P1  H  7989  7998       L1     3  1.00
      P1  H 10752 10763       L1     7  1.00

> <Gold.PLP.Chemscore.Internal.Correction>
0.1270

> <Gold.Rescore>
     Score         DG    S(hbond)    S(metal)    S(lipo)     H(rot)  DE(clash)    DE(int)     intcor
     10.87     -16.28       3.16        0.00      68.66       3.04       1.73       3.69       ----

> <Gold.Chemscore.Fitness>
10.8655

> <Gold.Chemscore.DG>
-16.2832

> <Gold.Chemscore.ZeroCoef>
-5.4800

> <Gold.Chemscore.Hbond>
3.1602

> <Gold.Chemscore.Metal>
0.0000

> <Gold.Chemscore.Lipo>
68.6646

> <Gold.Chemscore.Internal_Hbond>
0.0000

> <Gold.Chemscore.DEClash>
1.7326

> <Gold.Chemscore.DEInternal>
3.6851

> <Gold.Chemscore.Rot>
3.0413

> <Gold.Chemscore.Internal.Correction>
   9.000000E+99

> <Gold.Chemscore.Hbonds>
donor molecule, donor type, donor heavy atom, donor atom, acceptor molecule, acceptor atom, score
      L1  H     7    37       P1  7949  0.20
      P1  H  6896  6907       L1    11  0.97
      P1  H  6931  6943       L1    22  0.29
      P1  H  6934  6947       L1    23  0.02
      P1  H  7989  7998       L1     3  0.42
      P1  H 10752 10763       L1     7  0.73

> <Gold.Chemscore.Hbond.Weighted>
-10.5551

> <Gold.Chemscore.Metal.Weighted>
-0.0000

> <Gold.Chemscore.Lipo.Weighted>
-8.0338

> <Gold.Chemscore.Internal_Hbond.Weighted>
0.0000

> <Gold.Chemscore.DEClash.Weighted>
1.7326

> <Gold.Chemscore.DEInternal.Weighted>
3.6851

> <Gold.Chemscore.Rot.Weighted>
7.7856

> <Gold.Chemscore.Internal.Correction.Weighted>
   9.000000E+99

> <Gold.Protein.RotatedTorsions>
[ 6907 6896 6895 6894 ] final  -95.14 input  -60.11 | X-H torsion
[ 7974 7965 7964 7962 ] final  110.41 input  175.53 | X-H torsion
[ 8008 7997 7996 7995 ] final  159.23 input   59.86 | X-H torsion
[ 10167 10162 10161 10158 ] final   87.85 input  -65.29 | X-H torsion
[ 10718 10713 10712 10709 ] final -118.27 input   66.30 | X-H torsion
[ 10763 10752 10751 10750 ] final   39.41 input  -60.55 | X-H torsion
[ 11005 11000 10999 10996 ] final   29.16 input  -57.11 | X-H torsion

> <Gold.Protein.ActiveResidues>
 VAL166  LYS551  ARG553  GLY616  TRP617  ASP618  TYR619  PRO620  LYS621  CYS622 
 ASP623  PHE694  ASN695  SER759  ASP760  ASP761  ALA762  ILE779  LEU786  VAL792 
 PHE793  MET794  SER795  GLU796  ALA797  LYS798  CYS799  TRP800  GLU811  SER814 

> <Gold.Protein.RotatedAtoms>
  150.6957  134.1703  159.4209 H   0  0  0  0  0  0  0  0  0  0  0  0  # atno 6907 bound_to 6896
  151.9681  135.0088  160.0560 H   0  0  0  0  0  0  0  0  0  0  0  0  # atno 6908 bound_to 6896
  152.1866  133.4709  159.5023 H   0  0  0  0  0  0  0  0  0  0  0  0  # atno 6909 bound_to 6896
  145.2554  139.2723  143.4045 H   0  0  0  0  0  0  0  0  0  0  0  0  # atno 7974 bound_to 7965
  156.2252  140.1837  156.7380 H   0  0  0  0  0  0  0  0  0  0  0  0  # atno 8008 bound_to 7997
  154.5930  140.0648  156.9293 H   0  0  0  0  0  0  0  0  0  0  0  0  # atno 8009 bound_to 7997
  155.2304  140.3314  155.4306 H   0  0  0  0  0  0  0  0  0  0  0  0  # atno 8010 bound_to 7997
  139.8732  144.6481  150.8926 H   0  0  0  0  0  0  0  0  0  0  0  0  # atno 10167 bound_to 10162
  156.1094  130.6236  150.9269 H   0  0  0  0  0  0  0  0  0  0  0  0  # atno 10718 bound_to 10713
  152.9968  135.6221  154.2461 H   0  0  0  0  0  0  0  0  0  0  0  0  # atno 10763 bound_to 10752
  154.2201  135.2796  155.2929 H   0  0  0  0  0  0  0  0  0  0  0  0  # atno 10764 bound_to 10752
  154.5536  135.5726  153.7002 H   0  0  0  0  0  0  0  0  0  0  0  0  # atno 10765 bound_to 10752
  140.3079  134.2683  155.7740 H   0  0  0  0  0  0  0  0  0  0  0  0  # atno 11005 bound_to 11000
  146.3291  140.2956  142.8618 LP  0  0  0  0  0  0  0  0  0  0  0  0  # atno 17320 bound_to 7965
  144.9466  140.8134  143.5598 LP  0  0  0  0  0  0  0  0  0  0  0  0  # atno 17321 bound_to 7965
  140.7757  143.3646  151.1763 LP  0  0  0  0  0  0  0  0  0  0  0  0  # atno 17342 bound_to 10162
  139.7264  143.9141  152.3004 LP  0  0  0  0  0  0  0  0  0  0  0  0  # atno 17343 bound_to 10162
  157.6273  131.0924  150.8508 LP  0  0  0  0  0  0  0  0  0  0  0  0  # atno 17370 bound_to 10713
  156.8622  130.5117  149.5303 LP  0  0  0  0  0  0  0  0  0  0  0  0  # atno 17371 bound_to 10713
  141.2114  133.7689  156.9864 LP  0  0  0  0  0  0  0  0  0  0  0  0  # atno 17394 bound_to 11000
  140.1051  134.9511  157.1981 LP  0  0  0  0  0  0  0  0  0  0  0  0  # atno 17395 bound_to 11000

$$$$
