AV-unprocessed.smi:2489|AV-procd|sdf|9796|dock1
  -GOLD-   2272013433D 1   1.00000     0.00000
 Structure written by MMmdl.
 33 34  0  0  0  0  0  0  0  0  1 V2000
  153.7195  141.0974  160.7602 C   0  0  0  0  0  0  0  0  0  0  0  0
  153.2713  140.8131  159.4432 O   0  0  0  0  0  0  0  0  0  0  0  0
  152.5791  141.7970  158.7710 C   0  0  0  0  0  0  0  0  0  0  0  0
  152.8082  143.1324  159.1512 C   0  0  0  0  0  0  0  0  0  0  0  0
  152.1160  144.1566  158.4807 C   0  0  0  0  0  0  0  0  0  0  0  0
  151.2370  143.9239  157.4853 N   0  0  0  0  0  0  0  0  0  0  0  0
  151.0000  142.6456  157.1023 C   0  0  0  0  0  0  0  0  0  0  0  0
  150.0961  142.2892  156.0667 N   0  0  0  0  0  0  0  0  0  0  0  0
  150.1378  141.2217  155.2461 C   0  0  0  0  0  0  0  0  0  0  0  0
  151.0263  140.3695  155.2607 O   0  0  0  0  0  0  0  0  0  0  0  0
  149.0012  141.1033  154.2190 C   0  0  1  0  0  0  0  0  0  0  0  0
  148.0259  139.9406  154.4867 C   0  0  0  0  0  0  0  0  0  0  0  0
  146.6845  140.6243  154.6808 C   0  0  0  0  0  0  0  0  0  0  0  0
  146.8640  141.9282  153.9118 C   0  0  1  0  0  0  0  0  0  0  0  0
  145.8941  143.0403  154.3247 C   0  0  0  0  0  0  0  0  0  0  0  0
  148.1985  142.2848  154.2316 O   0  0  0  0  0  0  0  0  0  0  0  0
  151.6541  141.5578  157.7240 C   0  0  0  0  0  0  0  0  0  0  0  0
  154.2463  140.2294  161.1564 H   0  0  0  0  0  0  0  0  0  0  0  0
  152.8837  141.3091  161.4284 H   0  0  0  0  0  0  0  0  0  0  0  0
  154.4140  141.9386  160.7719 H   0  0  0  0  0  0  0  0  0  0  0  0
  153.5031  143.3685  159.9437 H   0  0  0  0  0  0  0  0  0  0  0  0
  152.2722  145.1906  158.7506 H   0  0  0  0  0  0  0  0  0  0  0  0
  149.3134  142.9137  155.9363 H   0  0  0  0  0  0  0  0  0  0  0  0
  149.4386  140.9931  153.2256 H   0  0  0  0  0  0  0  0  0  0  0  0
  147.9919  139.2807  153.6191 H   0  0  0  0  0  0  0  0  0  0  0  0
  148.2850  139.3292  155.3523 H   0  0  0  0  0  0  0  0  0  0  0  0
  145.8457  140.0284  154.3197 H   0  0  0  0  0  0  0  0  0  0  0  0
  146.5259  140.8290  155.7407 H   0  0  0  0  0  0  0  0  0  0  0  0
  146.7944  141.7435  152.8383 H   0  0  0  0  0  0  0  0  0  0  0  0
  144.8623  142.7558  154.1173 H   0  0  0  0  0  0  0  0  0  0  0  0
  146.1026  143.9607  153.7787 H   0  0  0  0  0  0  0  0  0  0  0  0
  145.9742  143.2597  155.3897 H   0  0  0  0  0  0  0  0  0  0  0  0
  151.4358  140.5556  157.3865 H   0  0  0  0  0  0  0  0  0  0  0  0
  1  2  1  0  0  0  0
  1 18  1  0  0  0  0
  1 19  1  0  0  0  0
  1 20  1  0  0  0  0
  2  3  1  0  0  0  0
  3 17  1  0  0  0  0
  3  4  2  0  0  0  0
  4  5  1  0  0  0  0
  4 21  1  0  0  0  0
  5  6  2  0  0  0  0
  5 22  1  0  0  0  0
  6  7  1  0  0  0  0
  7  8  1  0  0  0  0
  7 17  2  0  0  0  0
  8  9  1  0  0  0  0
  8 23  1  0  0  0  0
  9 10  2  0  0  0  0
  9 11  1  0  0  0  0
 11 16  1  0  0  0  0
 11 12  1  0  0  0  0
 11 24  1  0  0  0  0
 12 13  1  0  0  0  0
 12 25  1  0  0  0  0
 12 26  1  0  0  0  0
 13 14  1  0  0  0  0
 13 27  1  0  0  0  0
 13 28  1  0  0  0  0
 14 15  1  0  0  0  0
 14 16  1  0  0  0  0
 14 29  1  0  0  0  0
 15 30  1  0  0  0  0
 15 31  1  0  0  0  0
 15 32  1  0  0  0  0
 17 33  1  0  0  0  0
M  END
> <s_m_source_file>
AV-unprocessed.smi

> <i_m_source_file_index>
2489

> <i_lp_mmshare_version>
43012

> <i_f3d_flags>
0

> <s_epik_input>
W0NIM11PYzFbY0hdW2NIXW5jKFtjSF0xKVtOSF1DKD1PKVtDQEBIXTJbQ0gyXVtDSDJdW0NASF0oTzIpW0NIM10=

> <s_epik_cmdline>
J2VwaWtfcHl0aG9uJywgJy1waCcsICc3LjAnLCAnLXRuJywgJzgnLCAnLW1hJywgJzIwMCcsICctbWV0YWxfYmluZGluZycsICctaW1hZScsICc8aW5maWxlLm1hZT4nLCAnLW9tYWUnLCAnPG91dGZpbGUubWFlPic=

> <r_epik_Ionization_Penalty>
0.0871917

> <r_epik_Ionization_Penalty_Charging>
0

> <r_epik_Ionization_Penalty_Neutral>
0.0871917

> <r_epik_State_Penalty>
0.146479

> <r_epik_Charging_Adjusted_Penalty>
0.146479

> <i_epik_Tot_Q>
0

> <i_epik_Tot_abs_Q>
0

> <r_epik_Metal_State_Penalty>
0.067489

> <b_epik_Metal_Only>
0

> <s_lp_Force_Field>
OPLS_2005

> <r_lp_Energy>
22.1586

> <b_lp_Chiralities_Consistent>
1

> <s_lp_Variant>
AV-unprocessed.smi:2489-2

> <Gold.Version>
5.8.1

> <Gold.Id.Protein>
6NUR|6NUR_protein|mol2

> <Gold.PLP.Fitness>
40.0168

> <Gold.PLP.PLP>
-37.0384

> <Gold.PLP.part.hbond>
-3.0000

> <Gold.PLP.part.metal>
0.0000

> <Gold.PLP.part.buried>
-5.7926

> <Gold.PLP.part.nonpolar>
-30.6059

> <Gold.PLP.part.repulsive>
2.6071

> <Gold.PLP.ligand.clash>
0.0143

> <Gold.PLP.ligand.torsion>
0.6829

> <Gold.PLP.Chemscore.Hbond>
1.4460

> <Gold.PLP.Chemscore.CHOScore>
0.0000

> <Gold.PLP.Chemscore.Metal>
0.0000

> <Gold.Chemscore.Hbonds>
donor molecule, donor type, donor heavy atom, donor atom, acceptor molecule, acceptor atom, score
      L1  H     8    23       P1  8028  0.85
      P1  H  7989  7998       L1    10  0.60

> <Gold.PLP.Chemscore.Internal.Correction>
0.0205

> <Gold.Rescore>
     Score         DG    S(hbond)    S(metal)    S(lipo)     H(rot)  DE(clash)    DE(int)     intcor
     13.58     -15.73       0.97        0.00      86.79       1.23       0.07       2.07       ----

> <Gold.Chemscore.Fitness>
13.5826

> <Gold.Chemscore.DG>
-15.7285

> <Gold.Chemscore.ZeroCoef>
-5.4800

> <Gold.Chemscore.Hbond>
0.9682

> <Gold.Chemscore.Metal>
0.0000

> <Gold.Chemscore.Lipo>
86.7884

> <Gold.Chemscore.Internal_Hbond>
0.0000

> <Gold.Chemscore.DEClash>
0.0726

> <Gold.Chemscore.DEInternal>
2.0734

> <Gold.Chemscore.Rot>
1.2264

> <Gold.Chemscore.Internal.Correction>
   9.000000E+99

> <Gold.Chemscore.Hbonds>
donor molecule, donor type, donor heavy atom, donor atom, acceptor molecule, acceptor atom, score
      L1  H     8    23       P1  8028  0.83
      P1  H  7989  7998       L1    10  0.04

> <Gold.Chemscore.Hbond.Weighted>
-3.2338

> <Gold.Chemscore.Metal.Weighted>
-0.0000

> <Gold.Chemscore.Lipo.Weighted>
-10.1542

> <Gold.Chemscore.Internal_Hbond.Weighted>
0.0000

> <Gold.Chemscore.DEClash.Weighted>
0.0726

> <Gold.Chemscore.DEInternal.Weighted>
2.0734

> <Gold.Chemscore.Rot.Weighted>
3.1396

> <Gold.Chemscore.Internal.Correction.Weighted>
   9.000000E+99

> <Gold.Protein.RotatedTorsions>
[ 6907 6896 6895 6894 ] final -117.09 input  -60.11 | X-H torsion
[ 7974 7965 7964 7962 ] final   34.77 input  175.53 | X-H torsion
[ 8008 7997 7996 7995 ] final  -88.32 input   59.86 | X-H torsion
[ 10167 10162 10161 10158 ] final  120.17 input  -65.29 | X-H torsion
[ 10718 10713 10712 10709 ] final -133.11 input   66.30 | X-H torsion
[ 10763 10752 10751 10750 ] final -134.33 input  -60.55 | X-H torsion
[ 11005 11000 10999 10996 ] final -167.81 input  -57.11 | X-H torsion

> <Gold.Protein.ActiveResidues>
 VAL166  LYS551  ARG553  GLY616  TRP617  ASP618  TYR619  PRO620  LYS621  CYS622 
 ASP623  PHE694  ASN695  SER759  ASP760  ASP761  ALA762  ILE779  LEU786  VAL792 
 PHE793  MET794  SER795  GLU796  ALA797  LYS798  CYS799  TRP800  GLU811  SER814 

> <Gold.Protein.RotatedAtoms>
  150.8108  133.8425  159.3182 H   0  0  0  0  0  0  0  0  0  0  0  0  # atno 6907 bound_to 6896
  151.6211  135.1030  160.0111 H   0  0  0  0  0  0  0  0  0  0  0  0  # atno 6908 bound_to 6896
  152.4200  133.7061  159.6508 H   0  0  0  0  0  0  0  0  0  0  0  0  # atno 6909 bound_to 6896
  146.1330  139.6227  142.9214 H   0  0  0  0  0  0  0  0  0  0  0  0  # atno 7974 bound_to 7965
  154.6734  140.0555  157.0190 H   0  0  0  0  0  0  0  0  0  0  0  0  # atno 8008 bound_to 7997
  155.1056  140.3233  155.4516 H   0  0  0  0  0  0  0  0  0  0  0  0  # atno 8009 bound_to 7997
  156.2666  140.2023  156.6181 H   0  0  0  0  0  0  0  0  0  0  0  0  # atno 8010 bound_to 7997
  139.5999  144.7053  151.3087 H   0  0  0  0  0  0  0  0  0  0  0  0  # atno 10167 bound_to 10162
  156.2416  130.7099  151.0962 H   0  0  0  0  0  0  0  0  0  0  0  0  # atno 10718 bound_to 10713
  154.8720  135.3738  154.4718 H   0  0  0  0  0  0  0  0  0  0  0  0  # atno 10763 bound_to 10752
  153.5378  135.7027  153.5656 H   0  0  0  0  0  0  0  0  0  0  0  0  # atno 10764 bound_to 10752
  153.3832  135.3991  155.1836 H   0  0  0  0  0  0  0  0  0  0  0  0  # atno 10765 bound_to 10752
  140.5491  134.5446  157.5118 H   0  0  0  0  0  0  0  0  0  0  0  0  # atno 11005 bound_to 11000
  145.5219  141.0431  143.2431 LP  0  0  0  0  0  0  0  0  0  0  0  0  # atno 17320 bound_to 7965
  144.7710  139.6735  143.7195 LP  0  0  0  0  0  0  0  0  0  0  0  0  # atno 17321 bound_to 7965
  140.7241  143.7052  150.7813 LP  0  0  0  0  0  0  0  0  0  0  0  0  # atno 17342 bound_to 10162
  140.0626  143.5139  152.2620 LP  0  0  0  0  0  0  0  0  0  0  0  0  # atno 17343 bound_to 10162
  157.7177  131.0700  150.6260 LP  0  0  0  0  0  0  0  0  0  0  0  0  # atno 17370 bound_to 10713
  156.6334  130.4438  149.5778 LP  0  0  0  0  0  0  0  0  0  0  0  0  # atno 17371 bound_to 10713
  139.9464  134.7694  156.0551 LP  0  0  0  0  0  0  0  0  0  0  0  0  # atno 17394 bound_to 11000
  141.1182  133.6621  156.3148 LP  0  0  0  0  0  0  0  0  0  0  0  0  # atno 17395 bound_to 11000

$$$$
