AV-unprocessed.smi:1682|AV-procd|sdf|6744|dock6
  -GOLD-   22720 7493D 1   1.00000     0.00000
 Structure written by MMmdl.
 38 39  0  0  0  0  0  0  0  0  1 V2000
  154.8483  138.5337  161.0706 O   0  0  0  0  0  0  0  0  0  0  0  0
  155.2334  139.3546  161.9040 C   0  0  0  0  0  0  0  0  0  0  0  0
  154.8705  140.6462  161.8859 N   0  0  0  0  0  0  0  0  0  0  0  0
  153.9861  141.2521  160.8975 C   0  0  0  0  0  0  0  0  0  0  0  0
  152.9798  142.2138  161.5516 C   0  0  0  0  0  0  0  0  0  0  0  0
  152.5544  143.3257  160.6117 C   0  0  0  0  0  0  0  0  0  0  0  0
  151.7118  144.3653  161.0602 C   0  0  0  0  0  0  0  0  0  0  0  0
  151.3510  145.3769  160.1490 C   0  0  0  0  0  0  0  0  0  0  0  0
  151.8455  145.3110  158.8320 C   0  0  0  0  0  0  0  0  0  0  0  0
  152.6815  144.2314  158.4832 C   0  0  0  0  0  0  0  0  0  0  0  0
  153.0327  143.2560  159.3487 N   0  0  0  0  0  0  0  0  0  0  0  0
  156.1813  138.9237  163.0341 C   0  0  1  0  0  0  0  0  0  0  0  0
  157.4361  139.8174  163.0913 C   0  0  0  0  0  0  0  0  0  0  0  0
  157.2886  140.5769  164.3988 C   0  0  0  0  0  0  0  0  0  0  0  0
  158.0528  141.4812  164.7324 O   0  0  0  0  0  0  0  0  0  0  0  0
  156.2337  140.1384  165.0936 N   0  0  0  0  0  0  0  0  0  0  0  0
  155.7616  140.6598  166.3756 C   0  0  0  0  0  0  0  0  0  0  0  0
  155.3978  142.1541  166.3065 C   0  0  0  0  0  0  0  0  0  0  0  0
  156.4865  142.9118  166.1767 F   0  0  0  0  0  0  0  0  0  0  0  0
  154.6123  142.3598  165.2502 F   0  0  0  0  0  0  0  0  0  0  0  0
  154.7367  142.5214  167.4043 F   0  0  0  0  0  0  0  0  0  0  0  0
  155.5302  139.0534  164.4286 C   0  0  0  0  0  0  0  0  0  0  0  0
  155.2325  141.2530  162.6074 H   0  0  0  0  0  0  0  0  0  0  0  0
  154.5730  141.7716  160.1379 H   0  0  0  0  0  0  0  0  0  0  0  0
  153.4553  140.4498  160.3842 H   0  0  0  0  0  0  0  0  0  0  0  0
  152.0936  141.6658  161.8748 H   0  0  0  0  0  0  0  0  0  0  0  0
  153.4106  142.6558  162.4511 H   0  0  0  0  0  0  0  0  0  0  0  0
  151.3507  144.3898  162.0780 H   0  0  0  0  0  0  0  0  0  0  0  0
  150.7075  146.1884  160.4551 H   0  0  0  0  0  0  0  0  0  0  0  0
  151.5911  146.0693  158.1065 H   0  0  0  0  0  0  0  0  0  0  0  0
  153.0792  144.1494  157.4825 H   0  0  0  0  0  0  0  0  0  0  0  0
  156.4798  137.8864  162.8709 H   0  0  0  0  0  0  0  0  0  0  0  0
  158.3455  139.2165  163.1211 H   0  0  0  0  0  0  0  0  0  0  0  0
  157.5195  140.5126  162.2540 H   0  0  0  0  0  0  0  0  0  0  0  0
  154.8986  140.0808  166.7083 H   0  0  0  0  0  0  0  0  0  0  0  0
  156.5352  140.5070  167.1291 H   0  0  0  0  0  0  0  0  0  0  0  0
  154.4597  139.2618  164.3813 H   0  0  0  0  0  0  0  0  0  0  0  0
  155.6591  138.1342  165.0013 H   0  0  0  0  0  0  0  0  0  0  0  0
  1  2  2  0  0  0  0
  2  3  1  0  0  0  0
  2 12  1  0  0  0  0
  3  4  1  0  0  0  0
  3 23  1  0  0  0  0
  4  5  1  0  0  0  0
  4 24  1  0  0  0  0
  4 25  1  0  0  0  0
  5  6  1  0  0  0  0
  5 26  1  0  0  0  0
  5 27  1  0  0  0  0
  6 11  1  0  0  0  0
  6  7  2  0  0  0  0
  7  8  1  0  0  0  0
  7 28  1  0  0  0  0
  8  9  2  0  0  0  0
  8 29  1  0  0  0  0
  9 10  1  0  0  0  0
  9 30  1  0  0  0  0
 10 11  2  0  0  0  0
 10 31  1  0  0  0  0
 12 22  1  0  0  0  0
 12 13  1  0  0  0  0
 12 32  1  0  0  0  0
 13 14  1  0  0  0  0
 13 33  1  0  0  0  0
 13 34  1  0  0  0  0
 14 15  2  0  0  0  0
 14 16  1  0  0  0  0
 16 17  1  0  0  0  0
 16 22  1  0  0  0  0
 17 18  1  0  0  0  0
 17 35  1  0  0  0  0
 17 36  1  0  0  0  0
 18 19  1  0  0  0  0
 18 20  1  0  0  0  0
 18 21  1  0  0  0  0
 22 37  1  0  0  0  0
 22 38  1  0  0  0  0
M  END
> <s_m_source_file>
AV-unprocessed.smi

> <i_m_source_file_index>
1682

> <i_lp_mmshare_version>
43012

> <i_f3d_flags>
0

> <s_epik_input>
RkMoRikoRilbQ0gyXU4oW0NIMl0xKUMoPU8pW0NIMl1bQ0BIXTFDKD1PKVtOSF1bQ0gyXVtDSDJdYzJbY0hdW2NIXVtjSF1bY0hdbjI=

> <s_epik_cmdline>
J2VwaWtfcHl0aG9uJywgJy1waCcsICc3LjAnLCAnLXRuJywgJzgnLCAnLW1hJywgJzIwMCcsICctbWV0YWxfYmluZGluZycsICctaW1hZScsICc8aW5maWxlLm1hZT4nLCAnLW9tYWUnLCAnPG91dGZpbGUubWFlPic=

> <r_epik_Ionization_Penalty>
0.0252359

> <r_epik_Ionization_Penalty_Charging>
0

> <r_epik_Ionization_Penalty_Neutral>
0.0252359

> <r_epik_State_Penalty>
0.020532

> <r_epik_Charging_Adjusted_Penalty>
0.020532

> <i_epik_Tot_Q>
0

> <i_epik_Tot_abs_Q>
0

> <r_epik_Metal_State_Penalty>
0.0196899

> <b_epik_Metal_Only>
0

> <s_lp_Force_Field>
OPLS_2005

> <r_lp_Energy>
9.99714

> <b_lp_Chiralities_Consistent>
1

> <s_lp_Variant>
AV-unprocessed.smi:1682-2

> <Gold.Version>
5.8.1

> <Gold.Id.Protein>
6NUR|6NUR_protein|mol2

> <Gold.PLP.Fitness>
47.0875

> <Gold.PLP.PLP>
-47.8462

> <Gold.PLP.part.hbond>
-1.3617

> <Gold.PLP.part.metal>
0.0000

> <Gold.PLP.part.buried>
-6.9924

> <Gold.PLP.part.nonpolar>
-39.9122

> <Gold.PLP.part.repulsive>
0.0000

> <Gold.PLP.ligand.clash>
0.0000

> <Gold.PLP.ligand.torsion>
0.4782

> <Gold.PLP.Chemscore.Hbond>
0.0000

> <Gold.PLP.Chemscore.CHOScore>
0.0000

> <Gold.PLP.Chemscore.Metal>
0.0000

> <Gold.PLP.Chemscore.Internal.Correction>
0.1977

> <Gold.Rescore>
     Score         DG    S(hbond)    S(metal)    S(lipo)     H(rot)  DE(clash)    DE(int)     intcor
     11.02     -13.12       0.00        0.00     110.98       2.09       0.05       2.05       ----

> <Gold.Chemscore.Fitness>
11.0249

> <Gold.Chemscore.DG>
-13.1181

> <Gold.Chemscore.ZeroCoef>
-5.4800

> <Gold.Chemscore.Hbond>
0.0000

> <Gold.Chemscore.Metal>
0.0000

> <Gold.Chemscore.Lipo>
110.9784

> <Gold.Chemscore.Internal_Hbond>
0.0000

> <Gold.Chemscore.DEClash>
0.0463

> <Gold.Chemscore.DEInternal>
2.0468

> <Gold.Chemscore.Rot>
2.0884

> <Gold.Chemscore.Internal.Correction>
   9.000000E+99

> <Gold.Chemscore.Hbond.Weighted>
-0.0000

> <Gold.Chemscore.Metal.Weighted>
-0.0000

> <Gold.Chemscore.Lipo.Weighted>
-12.9845

> <Gold.Chemscore.Internal_Hbond.Weighted>
0.0000

> <Gold.Chemscore.DEClash.Weighted>
0.0463

> <Gold.Chemscore.DEInternal.Weighted>
2.0468

> <Gold.Chemscore.Rot.Weighted>
5.3464

> <Gold.Chemscore.Internal.Correction.Weighted>
   9.000000E+99

> <Gold.Protein.RotatedTorsions>
[ 6907 6896 6895 6894 ] final -130.59 input  -60.11 | X-H torsion
[ 7974 7965 7964 7962 ] final    7.80 input  175.53 | X-H torsion
[ 8008 7997 7996 7995 ] final -130.37 input   59.86 | X-H torsion
[ 10167 10162 10161 10158 ] final -174.24 input  -65.29 | X-H torsion
[ 10718 10713 10712 10709 ] final   29.04 input   66.30 | X-H torsion
[ 10763 10752 10751 10750 ] final  -68.09 input  -60.55 | X-H torsion
[ 11005 11000 10999 10996 ] final   53.19 input  -57.11 | X-H torsion

> <Gold.Protein.ActiveResidues>
 VAL166  LYS551  ARG553  GLY616  TRP617  ASP618  TYR619  PRO620  LYS621  CYS622 
 ASP623  PHE694  ASN695  SER759  ASP760  ASP761  ALA762  ILE779  LEU786  VAL792 
 PHE793  MET794  SER795  GLU796  ALA797  LYS798  CYS799  TRP800  GLU811  SER814 

> <Gold.Protein.RotatedAtoms>
  150.9415  133.6651  159.2789 H   0  0  0  0  0  0  0  0  0  0  0  0  # atno 6907 bound_to 6896
  151.4039  135.0974  159.9574 H   0  0  0  0  0  0  0  0  0  0  0  0  # atno 6908 bound_to 6896
  152.5071  133.8902  159.7445 H   0  0  0  0  0  0  0  0  0  0  0  0  # atno 6909 bound_to 6896
  146.2423  140.0029  142.8414 H   0  0  0  0  0  0  0  0  0  0  0  0  # atno 7974 bound_to 7965
  155.2946  140.0450  157.3025 H   0  0  0  0  0  0  0  0  0  0  0  0  # atno 8008 bound_to 7997
  154.5521  140.2321  155.8435 H   0  0  0  0  0  0  0  0  0  0  0  0  # atno 8009 bound_to 7997
  156.1976  140.3034  155.9466 H   0  0  0  0  0  0  0  0  0  0  0  0  # atno 8010 bound_to 7997
  139.5644  144.1790  152.1290 H   0  0  0  0  0  0  0  0  0  0  0  0  # atno 10167 bound_to 10162
  157.2414  130.7071  149.6360 H   0  0  0  0  0  0  0  0  0  0  0  0  # atno 10718 bound_to 10713
  154.3840  135.6068  153.5806 H   0  0  0  0  0  0  0  0  0  0  0  0  # atno 10763 bound_to 10752
  152.9788  135.5867  154.4377 H   0  0  0  0  0  0  0  0  0  0  0  0  # atno 10764 bound_to 10752
  154.4150  135.2845  155.1990 H   0  0  0  0  0  0  0  0  0  0  0  0  # atno 10765 bound_to 10752
  140.0787  134.5369  155.8969 H   0  0  0  0  0  0  0  0  0  0  0  0  # atno 11005 bound_to 11000
  145.1398  140.9565  143.4495 LP  0  0  0  0  0  0  0  0  0  0  0  0  # atno 17320 bound_to 7965
  145.0306  139.3344  143.6026 LP  0  0  0  0  0  0  0  0  0  0  0  0  # atno 17321 bound_to 7965
  140.1310  144.5288  150.6802 LP  0  0  0  0  0  0  0  0  0  0  0  0  # atno 17342 bound_to 10162
  140.6927  143.2385  151.5087 LP  0  0  0  0  0  0  0  0  0  0  0  0  # atno 17343 bound_to 10162
  155.9670  130.4457  150.5511 LP  0  0  0  0  0  0  0  0  0  0  0  0  # atno 17370 bound_to 10713
  157.3374  131.0710  151.1814 LP  0  0  0  0  0  0  0  0  0  0  0  0  # atno 17371 bound_to 10713
  141.2039  133.6635  156.6088 LP  0  0  0  0  0  0  0  0  0  0  0  0  # atno 17394 bound_to 11000
  140.3520  134.7761  157.4473 LP  0  0  0  0  0  0  0  0  0  0  0  0  # atno 17395 bound_to 11000

$$$$
