AV-unprocessed.smi:533|AV-procd|sdf|2855|dock9
  -GOLD-   2262023343D 1   1.00000     0.00000
 Structure written by MMmdl.
 35 36  0  0  0  0  0  0  0  0  2 V2000
  152.6942  144.2689  158.7474 C   0  0  0  0  0  0  0  0  0  0  0  0
  151.9075  144.5383  157.4616 C   0  0  0  0  0  0  0  0  0  0  0  0
  151.0255  143.4351  157.1344 N   0  0  0  0  0  0  0  0  0  0  0  0
  150.9971  142.1139  157.5637 C   0  0  0  0  0  0  0  0  0  0  0  0
  151.8614  141.5841  158.4304 N   0  0  0  0  0  0  0  0  0  0  0  0
  151.4267  140.2691  158.5207 C   0  0  0  0  0  0  0  0  0  0  0  0
  150.3439  140.0466  157.7276 C   0  0  0  0  0  0  0  0  0  0  0  0
  149.6697  138.7356  157.6067 C   0  0  0  0  0  0  0  0  0  0  0  0
  148.7002  138.5837  156.8665 O   0  0  0  0  0  0  0  0  0  0  0  0
  150.2568  137.7797  158.3948 N   0  5  0  0  0  0  0  0  0  0  0  0
  151.3496  137.9620  159.2155 C   0  0  0  0  0  0  0  0  0  0  0  0
  151.8088  137.0397  159.8894 O   0  0  0  0  0  0  0  0  0  0  0  0
  151.9466  139.1949  159.2907 N   0  0  0  0  0  0  0  0  0  0  0  0
  153.1111  139.4698  160.1381 C   0  0  0  0  0  0  0  0  0  0  0  0
  150.0507  141.2610  157.0994 N   0  0  0  0  0  0  0  0  0  0  0  0
  148.9829  141.5666  156.1501 C   0  0  0  0  0  0  0  0  0  0  0  0
  149.2169  140.9101  154.7814 C   0  0  0  0  0  0  0  0  0  0  0  0
  148.7786  141.7741  153.7459 O   0  0  0  0  0  0  0  0  0  0  0  0
  147.4550  142.2364  153.9430 C   0  0  0  0  0  0  0  0  0  0  0  0
  153.3533  145.1058  158.9790 H   0  0  0  0  0  0  0  0  0  0  0  0
  153.3128  143.3762  158.6514 H   0  0  0  0  0  0  0  0  0  0  0  0
  152.0258  144.1271  159.5973 H   0  0  0  0  0  0  0  0  0  0  0  0
  151.3118  145.4454  157.5681 H   0  0  0  0  0  0  0  0  0  0  0  0
  152.5929  144.7004  156.6292 H   0  0  0  0  0  0  0  0  0  0  0  0
  150.3058  143.6734  156.4678 H   0  0  0  0  0  0  0  0  0  0  0  0
  153.4574  138.6154  160.7201 H   0  0  0  0  0  0  0  0  0  0  0  0
  152.8764  140.2676  160.8435 H   0  0  0  0  0  0  0  0  0  0  0  0
  153.9467  139.8030  159.5221 H   0  0  0  0  0  0  0  0  0  0  0  0
  148.0240  141.2605  156.5644 H   0  0  0  0  0  0  0  0  0  0  0  0
  148.9111  142.6482  156.0338 H   0  0  0  0  0  0  0  0  0  0  0  0
  150.2774  140.6868  154.6574 H   0  0  0  0  0  0  0  0  0  0  0  0
  148.6772  139.9633  154.7265 H   0  0  0  0  0  0  0  0  0  0  0  0
  147.1703  142.8903  153.1187 H   0  0  0  0  0  0  0  0  0  0  0  0
  147.3701  142.8058  154.8693 H   0  0  0  0  0  0  0  0  0  0  0  0
  146.7477  141.4066  153.9744 H   0  0  0  0  0  0  0  0  0  0  0  0
  1  2  1  0  0  0  0
  1 20  1  0  0  0  0
  1 21  1  0  0  0  0
  1 22  1  0  0  0  0
  2  3  1  0  0  0  0
  2 23  1  0  0  0  0
  2 24  1  0  0  0  0
  3  4  1  0  0  0  0
  3 25  1  0  0  0  0
  4 15  1  0  0  0  0
  4  5  2  0  0  0  0
  5  6  1  0  0  0  0
  6 13  1  0  0  0  0
  6  7  2  0  0  0  0
  7  8  1  0  0  0  0
  7 15  1  0  0  0  0
  8  9  2  0  0  0  0
  8 10  1  0  0  0  0
 10 11  1  0  0  0  0
 11 12  2  0  0  0  0
 11 13  1  0  0  0  0
 13 14  1  0  0  0  0
 14 26  1  0  0  0  0
 14 27  1  0  0  0  0
 14 28  1  0  0  0  0
 15 16  1  0  0  0  0
 16 17  1  0  0  0  0
 16 29  1  0  0  0  0
 16 30  1  0  0  0  0
 17 18  1  0  0  0  0
 17 31  1  0  0  0  0
 17 32  1  0  0  0  0
 18 19  1  0  0  0  0
 19 33  1  0  0  0  0
 19 34  1  0  0  0  0
 19 35  1  0  0  0  0
M  CHG  1  10  -1
M  END
> <s_m_source_file>
AV-unprocessed.smi

> <i_m_source_file_index>
533

> <i_lp_mmshare_version>
43012

> <i_f3d_flags>
0

> <s_epik_input>
W0NIM11bQ0gyXVtOSF1jKG4xKW4oW0NIMl1bQ0gyXU9bQ0gzXSljKGMxMiljKD1PKVtuSF1jKD1PKW4yW0NIM10=

> <s_epik_cmdline>
J2VwaWtfcHl0aG9uJywgJy1waCcsICc3LjAnLCAnLXRuJywgJzgnLCAnLW1hJywgJzIwMCcsICctbWV0YWxfYmluZGluZycsICctaW1hZScsICc8aW5maWxlLm1hZT4nLCAnLW9tYWUnLCAnPG91dGZpbGUubWFlPic=

> <r_lp_tautomer_probability>
1

> <r_epik_Ionization_Penalty>
5.85583

> <r_epik_Ionization_Penalty_Charging>
1.37787e-08

> <r_epik_Ionization_Penalty_Neutral>
5.85583

> <r_epik_State_Penalty>
5.8557

> <r_epik_Charging_Adjusted_Penalty>
5.8557

> <i_epik_Tot_Q>
-1

> <i_epik_Tot_abs_Q>
1

> <r_epik_Metal_State_Penalty>
1.82051

> <b_epik_Metal_Only>
1

> <s_lp_Force_Field>
OPLS_2005

> <r_lp_Energy>
24.2596

> <b_lp_Chiralities_Consistent>
1

> <s_lp_Variant>
AV-unprocessed.smi:533-2

> <Gold.Version>
5.8.1

> <Gold.Id.Protein>
6NUR|6NUR_protein|mol2

> <Gold.PLP.Fitness>
41.5360

> <Gold.PLP.PLP>
-34.5070

> <Gold.PLP.part.hbond>
-3.3101

> <Gold.PLP.part.metal>
0.0000

> <Gold.PLP.part.buried>
-7.0596

> <Gold.PLP.part.nonpolar>
-25.1507

> <Gold.PLP.part.repulsive>
0.2046

> <Gold.PLP.ligand.clash>
0.0000

> <Gold.PLP.ligand.torsion>
0.4940

> <Gold.PLP.Chemscore.Hbond>
2.6720

> <Gold.PLP.Chemscore.CHOScore>
0.0000

> <Gold.PLP.Chemscore.Metal>
0.0000

> <Gold.Chemscore.Hbonds>
donor molecule, donor type, donor heavy atom, donor atom, acceptor molecule, acceptor atom, score
      L1  H     3    25       P1  8028  1.00
      P1  H  6896  6907       L1    12  1.00
      P1  H  8011  8017       L1    18  0.59

> <Gold.PLP.Chemscore.Internal.Correction>
0.0010

> <Gold.Rescore>
     Score         DG    S(hbond)    S(metal)    S(lipo)     H(rot)  DE(clash)    DE(int)     intcor
     14.45     -16.51       2.66        0.00      58.48       1.83       0.30       1.76       ----

> <Gold.Chemscore.Fitness>
14.4478

> <Gold.Chemscore.DG>
-16.5084

> <Gold.Chemscore.ZeroCoef>
-5.4800

> <Gold.Chemscore.Hbond>
2.6591

> <Gold.Chemscore.Metal>
0.0000

> <Gold.Chemscore.Lipo>
58.4841

> <Gold.Chemscore.Internal_Hbond>
0.0000

> <Gold.Chemscore.DEClash>
0.3023

> <Gold.Chemscore.DEInternal>
1.7583

> <Gold.Chemscore.Rot>
1.8342

> <Gold.Chemscore.Internal.Correction>
   9.000000E+99

> <Gold.Chemscore.Hbonds>
donor molecule, donor type, donor heavy atom, donor atom, acceptor molecule, acceptor atom, score
      L1  H     3    25       P1  8028  0.98
      P1  H  6896  6907       L1    12  1.00
      P1  H  8011  8017       L1    18  0.57

> <Gold.Chemscore.Hbond.Weighted>
-8.8814

> <Gold.Chemscore.Metal.Weighted>
-0.0000

> <Gold.Chemscore.Lipo.Weighted>
-6.8426

> <Gold.Chemscore.Internal_Hbond.Weighted>
0.0000

> <Gold.Chemscore.DEClash.Weighted>
0.3023

> <Gold.Chemscore.DEInternal.Weighted>
1.7583

> <Gold.Chemscore.Rot.Weighted>
4.6957

> <Gold.Chemscore.Internal.Correction.Weighted>
   9.000000E+99

> <Gold.Protein.RotatedTorsions>
[ 6907 6896 6895 6894 ] final    8.36 input  -60.11 | X-H torsion
[ 7974 7965 7964 7962 ] final -142.30 input  175.53 | X-H torsion
[ 8008 7997 7996 7995 ] final  -18.55 input   59.86 | X-H torsion
[ 10167 10162 10161 10158 ] final  -51.06 input  -65.29 | X-H torsion
[ 10718 10713 10712 10709 ] final   45.15 input   66.30 | X-H torsion
[ 10763 10752 10751 10750 ] final   23.76 input  -60.55 | X-H torsion
[ 11005 11000 10999 10996 ] final  -29.03 input  -57.11 | X-H torsion

> <Gold.Protein.ActiveResidues>
 VAL166  LYS551  ARG553  GLY616  TRP617  ASP618  TYR619  PRO620  LYS621  CYS622 
 ASP623  PHE694  ASN695  SER759  ASP760  ASP761  ALA762  ILE779  LEU786  VAL792 
 PHE793  MET794  SER795  GLU796  ALA797  LYS798  CYS799  TRP800  GLU811  SER814 

> <Gold.Protein.RotatedAtoms>
  151.7048  135.0923  160.0257 H   0  0  0  0  0  0  0  0  0  0  0  0  # atno 6907 bound_to 6896
  152.3698  133.6400  159.6087 H   0  0  0  0  0  0  0  0  0  0  0  0  # atno 6908 bound_to 6896
  150.7665  133.9205  159.3438 H   0  0  0  0  0  0  0  0  0  0  0  0  # atno 6909 bound_to 6896
  144.8454  140.5974  143.5425 H   0  0  0  0  0  0  0  0  0  0  0  0  # atno 7974 bound_to 7965
  154.4898  140.2112  155.9574 H   0  0  0  0  0  0  0  0  0  0  0  0  # atno 8008 bound_to 7997
  156.1289  140.3200  155.8287 H   0  0  0  0  0  0  0  0  0  0  0  0  # atno 8009 bound_to 7997
  155.4333  140.0505  157.3007 H   0  0  0  0  0  0  0  0  0  0  0  0  # atno 8010 bound_to 7997
  140.6607  143.2634  151.4449 H   0  0  0  0  0  0  0  0  0  0  0  0  # atno 10167 bound_to 10162
  157.4345  130.8044  149.7635 H   0  0  0  0  0  0  0  0  0  0  0  0  # atno 10718 bound_to 10713
  153.0814  135.6620  154.0037 H   0  0  0  0  0  0  0  0  0  0  0  0  # atno 10763 bound_to 10752
  153.9658  135.2969  155.3432 H   0  0  0  0  0  0  0  0  0  0  0  0  # atno 10764 bound_to 10752
  154.7214  135.5163  153.8889 H   0  0  0  0  0  0  0  0  0  0  0  0  # atno 10765 bound_to 10752
  140.9261  133.7368  156.0869 H   0  0  0  0  0  0  0  0  0  0  0  0  # atno 11005 bound_to 11000
  145.4609  139.1513  143.3867 LP  0  0  0  0  0  0  0  0  0  0  0  0  # atno 17320 bound_to 7965
  146.2739  140.4739  142.8803 LP  0  0  0  0  0  0  0  0  0  0  0  0  # atno 17321 bound_to 7965
  139.5840  144.1645  152.2005 LP  0  0  0  0  0  0  0  0  0  0  0  0  # atno 17342 bound_to 10162
  140.0979  144.5565  150.7009 LP  0  0  0  0  0  0  0  0  0  0  0  0  # atno 17343 bound_to 10162
  155.9925  130.3930  150.2938 LP  0  0  0  0  0  0  0  0  0  0  0  0  # atno 17370 bound_to 10713
  157.1098  131.0218  151.3053 LP  0  0  0  0  0  0  0  0  0  0  0  0  # atno 17371 bound_to 10713
  140.7925  134.3602  157.5461 LP  0  0  0  0  0  0  0  0  0  0  0  0  # atno 17394 bound_to 11000
  139.8786  134.9148  156.3117 LP  0  0  0  0  0  0  0  0  0  0  0  0  # atno 17395 bound_to 11000

$$$$
