AV-unprocessed.smi:52|AV-procd|sdf|512|dock6
  -GOLD-   2262016383D 1   1.00000     0.00000
 Structure written by MMmdl.
 26 27  0  0  0  0  0  0  0  0  2 V2000
  153.6335  136.0822  160.2104 O   0  0  0  0  0  0  0  0  0  0  0  0
  153.7122  137.1350  160.8819 C   0  0  0  0  0  0  0  0  0  0  0  0
  153.9029  137.1158  162.1180 O   0  5  0  0  0  0  0  0  0  0  0  0
  153.5752  138.4433  160.1902 C   0  0  0  0  0  0  0  0  0  0  0  0
  153.2531  138.6441  158.8715 C   0  0  0  0  0  0  0  0  0  0  0  0
  153.2276  139.9879  158.6135 O   0  0  0  0  0  0  0  0  0  0  0  0
  153.5410  140.5635  159.8059 C   0  0  0  0  0  0  0  0  0  0  0  0
  153.6197  142.0522  159.8913 C   0  0  0  0  0  0  0  0  0  0  0  0
  152.3098  142.6899  159.9717 N   0  0  0  0  0  0  0  0  0  0  0  0
  152.2272  143.7448  160.9690 C   0  0  0  0  0  0  0  0  0  0  0  0
  151.0231  144.6163  160.5846 C   0  0  0  0  0  0  0  0  0  0  0  0
  150.7258  144.2209  159.1288 C   0  0  1  0  0  0  0  0  0  0  0  0
  150.5901  145.3365  158.2741 O   0  0  0  0  0  0  0  0  0  0  0  0
  151.9191  143.3461  158.7419 C   0  0  0  0  0  0  0  0  0  0  0  0
  153.7569  139.6865  160.7839 N   0  0  0  0  0  0  0  0  0  0  0  0
  149.8105  143.6283  159.0912 H   0  0  0  0  0  0  0  0  0  0  0  0
  153.0302  137.9835  158.0468 H   0  0  0  0  0  0  0  0  0  0  0  0
  154.2309  142.3247  160.7528 H   0  0  0  0  0  0  0  0  0  0  0  0
  154.1469  142.4113  159.0066 H   0  0  0  0  0  0  0  0  0  0  0  0
  152.1363  143.3360  161.9760 H   0  0  0  0  0  0  0  0  0  0  0  0
  153.1315  144.3551  160.9415 H   0  0  0  0  0  0  0  0  0  0  0  0
  150.1631  144.4052  161.2213 H   0  0  0  0  0  0  0  0  0  0  0  0
  151.2659  145.6743  160.6919 H   0  0  0  0  0  0  0  0  0  0  0  0
  149.6793  145.4248  158.0381 H   0  0  0  0  0  0  0  0  0  0  0  0
  152.7380  143.9703  158.3791 H   0  0  0  0  0  0  0  0  0  0  0  0
  151.6732  142.6269  157.9599 H   0  0  0  0  0  0  0  0  0  0  0  0
  1  2  2  0  0  0  0
  2  3  1  0  0  0  0
  2  4  1  0  0  0  0
  4 15  1  0  0  0  0
  4  5  2  0  0  0  0
  5  6  1  0  0  0  0
  5 17  1  0  0  0  0
  6  7  1  0  0  0  0
  7  8  1  0  0  0  0
  7 15  2  0  0  0  0
  8  9  1  0  0  0  0
  8 18  1  0  0  0  0
  8 19  1  0  0  0  0
  9 14  1  0  0  0  0
  9 10  1  0  0  0  0
 10 11  1  0  0  0  0
 10 20  1  0  0  0  0
 10 21  1  0  0  0  0
 11 12  1  0  0  0  0
 11 22  1  0  0  0  0
 11 23  1  0  0  0  0
 12 16  1  0  0  0  0
 12 13  1  0  0  0  0
 12 14  1  0  0  0  0
 13 24  1  0  0  0  0
 14 25  1  0  0  0  0
 14 26  1  0  0  0  0
M  CHG  1   3  -1
M  END
> <s_m_source_file>
AV-unprocessed.smi

> <i_m_source_file_index>
52

> <i_lp_mmshare_version>
43012

> <i_f3d_flags>
0

> <s_epik_input>
Tz1DKFtPSF0pYzFbY0hdb2MobjEpW0NIMl1OMltDSDJdW0NIMl1bQ0BIXShbT0hdKVtDSDJdMg==

> <s_epik_cmdline>
J2VwaWtfcHl0aG9uJywgJy1waCcsICc3LjAnLCAnLXRuJywgJzgnLCAnLW1hJywgJzIwMCcsICctbWV0YWxfYmluZGluZycsICctaW1hZScsICc8aW5maWxlLm1hZT4nLCAnLW9tYWUnLCAnPG91dGZpbGUubWFlPic=

> <r_epik_Ionization_Penalty>
1.6537

> <r_epik_Ionization_Penalty_Charging>
0.000221913

> <r_epik_Ionization_Penalty_Neutral>
1.65348

> <r_epik_State_Penalty>
1.75577

> <r_epik_Charging_Adjusted_Penalty>
1.75599

> <i_epik_Tot_Q>
-1

> <i_epik_Tot_abs_Q>
1

> <r_epik_Metal_State_Penalty>
1.75577

> <b_epik_Metal_Only>
0

> <s_lp_Force_Field>
OPLS_2005

> <r_lp_Energy>
35.559

> <b_lp_Chiralities_Consistent>
1

> <s_lp_Variant>
AV-unprocessed.smi:52-6

> <Gold.Version>
5.8.1

> <Gold.Id.Protein>
6NUR|6NUR_protein|mol2

> <Gold.PLP.Fitness>
37.9225

> <Gold.PLP.PLP>
-27.7359

> <Gold.PLP.part.hbond>
-3.8025

> <Gold.PLP.part.metal>
0.0000

> <Gold.PLP.part.buried>
-4.8551

> <Gold.PLP.part.nonpolar>
-19.8795

> <Gold.PLP.part.repulsive>
0.0000

> <Gold.PLP.ligand.clash>
0.0000

> <Gold.PLP.ligand.torsion>
0.9078

> <Gold.PLP.Chemscore.Hbond>
4.0000

> <Gold.PLP.Chemscore.CHOScore>
0.0000

> <Gold.PLP.Chemscore.Metal>
0.0000

> <Gold.Chemscore.Hbonds>
donor molecule, donor type, donor heavy atom, donor atom, acceptor molecule, acceptor atom, score
      L1  H    13    24       P1  8029  1.00
      P1  H  6896  6909       L1     1  2.00
      P1  H  7997  8009       L1     6  0.82

> <Gold.PLP.Chemscore.Internal.Correction>
0.0021

> <Gold.Rescore>
     Score         DG    S(hbond)    S(metal)    S(lipo)     H(rot)  DE(clash)    DE(int)     intcor
     13.28     -14.10       1.77        0.00      65.73       1.95       0.08       0.75       ----

> <Gold.Chemscore.Fitness>
13.2776

> <Gold.Chemscore.DG>
-14.1001

> <Gold.Chemscore.ZeroCoef>
-5.4800

> <Gold.Chemscore.Hbond>
1.7726

> <Gold.Chemscore.Metal>
0.0000

> <Gold.Chemscore.Lipo>
65.7339

> <Gold.Chemscore.Internal_Hbond>
0.0000

> <Gold.Chemscore.DEClash>
0.0764

> <Gold.Chemscore.DEInternal>
0.7461

> <Gold.Chemscore.Rot>
1.9497

> <Gold.Chemscore.Internal.Correction>
   9.000000E+99

> <Gold.Chemscore.Hbonds>
donor molecule, donor type, donor heavy atom, donor atom, acceptor molecule, acceptor atom, score
      L1  H    13    24       P1  8029  0.25
      P1  H  6896  6909       L1     1  1.00
      P1  H  7997  8009       L1     6  0.17

> <Gold.Chemscore.Hbond.Weighted>
-5.9204

> <Gold.Chemscore.Metal.Weighted>
-0.0000

> <Gold.Chemscore.Lipo.Weighted>
-7.6909

> <Gold.Chemscore.Internal_Hbond.Weighted>
0.0000

> <Gold.Chemscore.DEClash.Weighted>
0.0764

> <Gold.Chemscore.DEInternal.Weighted>
0.7461

> <Gold.Chemscore.Rot.Weighted>
4.9912

> <Gold.Chemscore.Internal.Correction.Weighted>
   9.000000E+99

> <Gold.Protein.RotatedTorsions>
[ 6907 6896 6895 6894 ] final  164.01 input  -60.11 | X-H torsion
[ 7974 7965 7964 7962 ] final  161.62 input  175.53 | X-H torsion
[ 8008 7997 7996 7995 ] final  153.06 input   59.86 | X-H torsion
[ 10167 10162 10161 10158 ] final   31.15 input  -65.29 | X-H torsion
[ 10718 10713 10712 10709 ] final  -76.98 input   66.30 | X-H torsion
[ 10763 10752 10751 10750 ] final  142.89 input  -60.55 | X-H torsion
[ 11005 11000 10999 10996 ] final  -64.01 input  -57.11 | X-H torsion

> <Gold.Protein.ActiveResidues>
 VAL166  LYS551  ARG553  GLY616  TRP617  ASP618  TYR619  PRO620  LYS621  CYS622 
 ASP623  PHE694  ASN695  SER759  ASP760  ASP761  ALA762  ILE779  LEU786  VAL792 
 PHE793  MET794  SER795  GLU796  ALA797  LYS798  CYS799  TRP800  GLU811  SER814 

> <Gold.Protein.RotatedAtoms>
  151.9165  133.3574  159.3881 H   0  0  0  0  0  0  0  0  0  0  0  0  # atno 6907 bound_to 6896
  150.7046  134.4679  159.5420 H   0  0  0  0  0  0  0  0  0  0  0  0  # atno 6908 bound_to 6896
  152.2294  134.8336  160.0526 H   0  0  0  0  0  0  0  0  0  0  0  0  # atno 6909 bound_to 6896
  144.7676  139.7924  143.6309 H   0  0  0  0  0  0  0  0  0  0  0  0  # atno 7974 bound_to 7965
  156.2600  140.2004  156.6431 H   0  0  0  0  0  0  0  0  0  0  0  0  # atno 8008 bound_to 7997
  154.6594  140.0562  157.0070 H   0  0  0  0  0  0  0  0  0  0  0  0  # atno 8009 bound_to 7997
  155.1298  140.3232  155.4479 H   0  0  0  0  0  0  0  0  0  0  0  0  # atno 8010 bound_to 7997
  140.4614  144.0900  150.6214 H   0  0  0  0  0  0  0  0  0  0  0  0  # atno 10167 bound_to 10162
  156.0158  130.4479  150.3275 H   0  0  0  0  0  0  0  0  0  0  0  0  # atno 10718 bound_to 10713
  153.9633  135.2958  155.3432 H   0  0  0  0  0  0  0  0  0  0  0  0  # atno 10763 bound_to 10752
  154.7363  135.5045  153.9050 H   0  0  0  0  0  0  0  0  0  0  0  0  # atno 10764 bound_to 10752
  153.0936  135.6715  153.9917 H   0  0  0  0  0  0  0  0  0  0  0  0  # atno 10765 bound_to 10752
  141.1411  133.6659  156.5767 H   0  0  0  0  0  0  0  0  0  0  0  0  # atno 11005 bound_to 11000
  146.1797  139.4984  142.9874 LP  0  0  0  0  0  0  0  0  0  0  0  0  # atno 17320 bound_to 7965
  145.6421  141.0282  143.1806 LP  0  0  0  0  0  0  0  0  0  0  0  0  # atno 17321 bound_to 7965
  140.4088  143.2667  151.9858 LP  0  0  0  0  0  0  0  0  0  0  0  0  # atno 17342 bound_to 10162
  139.4807  144.5933  151.7734 LP  0  0  0  0  0  0  0  0  0  0  0  0  # atno 17343 bound_to 10162
  157.1374  131.0287  151.2943 LP  0  0  0  0  0  0  0  0  0  0  0  0  # atno 17370 bound_to 10713
  157.4500  130.7593  149.7143 LP  0  0  0  0  0  0  0  0  0  0  0  0  # atno 17371 bound_to 10713
  140.3870  134.7474  157.4697 LP  0  0  0  0  0  0  0  0  0  0  0  0  # atno 17394 bound_to 11000
  140.0595  134.6016  155.8766 LP  0  0  0  0  0  0  0  0  0  0  0  0  # atno 17395 bound_to 11000

$$$$
