AV-unprocessed.smi:2334|AV-procd|sdf|9322|dock7
  -GOLD-   2272012543D 1   1.00000     0.00000
 Structure written by MMmdl.
 50 52  0  0  0  0  0  0  0  0  2 V2000
  146.5493  142.5378  154.1721 C   0  0  0  0  0  0  0  0  0  0  0  0
  146.8019  141.1486  154.7346 C   0  0  0  0  0  0  0  0  0  0  0  0
  146.0162  140.1591  154.2540 N   0  3  0  0  0  0  0  0  0  0  0  0
  146.1075  138.8702  154.6442 C   0  0  0  0  0  0  0  0  0  0  0  0
  145.2174  137.9613  154.0551 N   0  0  0  0  0  0  0  0  0  0  0  0
  145.1646  136.6639  154.7075 C   0  0  0  0  0  0  0  0  0  0  0  0
  144.4969  135.7216  153.7017 C   0  0  0  0  0  0  0  0  0  0  0  0
  144.6572  136.4144  152.3432 C   0  0  0  0  0  0  0  0  0  0  0  0
  145.4453  137.6910  152.6453 C   0  0  0  0  0  0  0  0  0  0  0  0
  147.0754  138.5131  155.6091 C   0  0  0  0  0  0  0  0  0  0  0  0
  147.9205  139.5069  156.1411 C   0  0  0  0  0  0  0  0  0  0  0  0
  147.7838  140.8523  155.7145 C   0  0  0  0  0  0  0  0  0  0  0  0
  148.6234  141.8954  156.1965 N   0  0  0  0  0  0  0  0  0  0  0  0
  149.4825  141.8637  157.2299 C   0  0  0  0  0  0  0  0  0  0  0  0
  149.6579  140.8942  157.9671 O   0  0  0  0  0  0  0  0  0  0  0  0
  150.1142  143.0428  157.3645 N   0  0  0  0  0  0  0  0  0  0  0  0
  151.1260  143.4544  158.3498 C   0  0  0  0  0  0  0  0  0  0  0  0
  152.1132  144.3565  157.5777 C   0  0  0  0  0  0  0  0  0  0  0  0
  150.4736  144.2442  159.5137 C   0  0  0  0  0  0  0  0  0  0  0  0
  151.4528  144.4847  160.6772 C   0  0  0  0  0  0  0  0  0  0  0  0
  151.9929  143.2478  161.1254 O   0  0  0  0  0  0  0  0  0  0  0  0
  152.7600  142.5862  160.1272 C   0  0  0  0  0  0  0  0  0  0  0  0
  151.8662  142.2210  158.9284 C   0  0  0  0  0  0  0  0  0  0  0  0
  147.2057  143.2975  154.5942 H   0  0  0  0  0  0  0  0  0  0  0  0
  145.5210  142.8392  154.3738 H   0  0  0  0  0  0  0  0  0  0  0  0
  146.6944  142.5355  153.0914 H   0  0  0  0  0  0  0  0  0  0  0  0
  146.1707  136.3128  154.9412 H   0  0  0  0  0  0  0  0  0  0  0  0
  144.6021  136.7171  155.6401 H   0  0  0  0  0  0  0  0  0  0  0  0
  144.9547  134.7321  153.7181 H   0  0  0  0  0  0  0  0  0  0  0  0
  143.4384  135.6014  153.9355 H   0  0  0  0  0  0  0  0  0  0  0  0
  145.1695  135.7869  151.6131 H   0  0  0  0  0  0  0  0  0  0  0  0
  143.6761  136.6634  151.9369 H   0  0  0  0  0  0  0  0  0  0  0  0
  145.1107  138.5240  152.0261 H   0  0  0  0  0  0  0  0  0  0  0  0
  146.5055  137.5299  152.4478 H   0  0  0  0  0  0  0  0  0  0  0  0
  147.1776  137.4908  155.9420 H   0  0  0  0  0  0  0  0  0  0  0  0
  148.6701  139.2130  156.8597 H   0  0  0  0  0  0  0  0  0  0  0  0
  148.5082  142.7896  155.7424 H   0  0  0  0  0  0  0  0  0  0  0  0
  149.8682  143.7553  156.6930 H   0  0  0  0  0  0  0  0  0  0  0  0
  152.9186  144.7312  158.2079 H   0  0  0  0  0  0  0  0  0  0  0  0
  151.6073  145.2253  157.1547 H   0  0  0  0  0  0  0  0  0  0  0  0
  152.5778  143.8171  156.7513 H   0  0  0  0  0  0  0  0  0  0  0  0
  150.0773  145.1953  159.1561 H   0  0  0  0  0  0  0  0  0  0  0  0
  149.6219  143.6990  159.9190 H   0  0  0  0  0  0  0  0  0  0  0  0
  152.2557  145.1647  160.3908 H   0  0  0  0  0  0  0  0  0  0  0  0
  150.9294  144.9563  161.5090 H   0  0  0  0  0  0  0  0  0  0  0  0
  153.6019  143.2096  159.8241 H   0  0  0  0  0  0  0  0  0  0  0  0
  153.1851  141.6805  160.5603 H   0  0  0  0  0  0  0  0  0  0  0  0
  151.1549  141.4728  159.2762 H   0  0  0  0  0  0  0  0  0  0  0  0
  152.4594  141.7330  158.1543 H   0  0  0  0  0  0  0  0  0  0  0  0
  145.3138  140.4006  153.5545 H   0  0  0  0  0  0  0  0  0  0  0  0
  1  2  1  0  0  0  0
  1 24  1  0  0  0  0
  1 25  1  0  0  0  0
  1 26  1  0  0  0  0
  2 12  1  0  0  0  0
  2  3  2  0  0  0  0
  3  4  1  0  0  0  0
  3 50  1  0  0  0  0
  4  5  1  0  0  0  0
  4 10  2  0  0  0  0
  5  9  1  0  0  0  0
  5  6  1  0  0  0  0
  6  7  1  0  0  0  0
  6 27  1  0  0  0  0
  6 28  1  0  0  0  0
  7  8  1  0  0  0  0
  7 29  1  0  0  0  0
  7 30  1  0  0  0  0
  8  9  1  0  0  0  0
  8 31  1  0  0  0  0
  8 32  1  0  0  0  0
  9 33  1  0  0  0  0
  9 34  1  0  0  0  0
 10 11  1  0  0  0  0
 10 35  1  0  0  0  0
 11 12  2  0  0  0  0
 11 36  1  0  0  0  0
 12 13  1  0  0  0  0
 13 14  1  0  0  0  0
 13 37  1  0  0  0  0
 14 15  2  0  0  0  0
 14 16  1  0  0  0  0
 16 17  1  0  0  0  0
 16 38  1  0  0  0  0
 17 23  1  0  0  0  0
 17 18  1  0  0  0  0
 17 19  1  0  0  0  0
 18 39  1  0  0  0  0
 18 40  1  0  0  0  0
 18 41  1  0  0  0  0
 19 20  1  0  0  0  0
 19 42  1  0  0  0  0
 19 43  1  0  0  0  0
 20 21  1  0  0  0  0
 20 44  1  0  0  0  0
 20 45  1  0  0  0  0
 21 22  1  0  0  0  0
 22 23  1  0  0  0  0
 22 46  1  0  0  0  0
 22 47  1  0  0  0  0
 23 48  1  0  0  0  0
 23 49  1  0  0  0  0
M  CHG  1   3   1
M  END
> <s_m_source_file>
AV-unprocessed.smi

> <i_m_source_file_index>
2334

> <i_lp_mmshare_version>
43012

> <i_f3d_flags>
0

> <s_epik_input>
W0NIMl0xW0NIMl1bQ0gyXVtDSDJdTjFjKG5jMltDSDNdKVtjSF1bY0hdYzJbTkhdQyg9TylbTkhdQzMoW0NIM10pW0NIMl1bQ0gyXU9bQ0gyXVtDSDJdMw==

> <s_epik_cmdline>
J2VwaWtfcHl0aG9uJywgJy1waCcsICc3LjAnLCAnLXRuJywgJzgnLCAnLW1hJywgJzIwMCcsICctbWV0YWxfYmluZGluZycsICctaW1hZScsICc8aW5maWxlLm1hZT4nLCAnLW9tYWUnLCAnPG91dGZpbGUubWFlPic=

> <r_lp_tautomer_probability>
0.999994

> <r_epik_Ionization_Penalty>
0.526488

> <r_epik_Ionization_Penalty_Charging>
0.526468

> <r_epik_Ionization_Penalty_Neutral>
1.9901e-05

> <r_epik_State_Penalty>
0.534906

> <r_epik_Charging_Adjusted_Penalty>
1.06137

> <i_epik_Tot_Q>
1

> <i_epik_Tot_abs_Q>
1

> <r_epik_Metal_State_Penalty>
0.740533

> <b_epik_Metal_Only>
0

> <s_lp_Force_Field>
OPLS_2005

> <r_lp_Energy>
48.5671

> <b_lp_Chiralities_Consistent>
1

> <s_lp_Variant>
AV-unprocessed.smi:2334-2

> <Gold.Version>
5.8.1

> <Gold.Id.Protein>
6NUR|6NUR_protein|mol2

> <Gold.PLP.Fitness>
45.9747

> <Gold.PLP.PLP>
-35.4178

> <Gold.PLP.part.hbond>
-3.0506

> <Gold.PLP.part.metal>
0.0000

> <Gold.PLP.part.buried>
-7.6105

> <Gold.PLP.part.nonpolar>
-26.4331

> <Gold.PLP.part.repulsive>
0.3454

> <Gold.PLP.ligand.clash>
0.0098

> <Gold.PLP.ligand.torsion>
0.7237

> <Gold.PLP.Chemscore.Hbond>
4.0000

> <Gold.PLP.Chemscore.CHOScore>
0.0000

> <Gold.PLP.Chemscore.Metal>
0.0000

> <Gold.Chemscore.Hbonds>
donor molecule, donor type, donor heavy atom, donor atom, acceptor molecule, acceptor atom, score
      L1  H     3    50       P1 10175  2.00
      L1  H    13    37       P1  8028  1.00
      L1  H    16    38       P1  8028  1.00

> <Gold.PLP.Chemscore.Internal.Correction>
0.0142

> <Gold.Rescore>
     Score         DG    S(hbond)    S(metal)    S(lipo)     H(rot)  DE(clash)    DE(int)     intcor
     20.13     -23.64       2.91        0.00      97.94       1.18       0.18       3.32       ----

> <Gold.Chemscore.Fitness>
20.1322

> <Gold.Chemscore.DG>
-23.6366

> <Gold.Chemscore.ZeroCoef>
-5.4800

> <Gold.Chemscore.Hbond>
2.9088

> <Gold.Chemscore.Metal>
0.0000

> <Gold.Chemscore.Lipo>
97.9402

> <Gold.Chemscore.Internal_Hbond>
0.0000

> <Gold.Chemscore.DEClash>
0.1828

> <Gold.Chemscore.DEInternal>
3.3216

> <Gold.Chemscore.Rot>
1.1788

> <Gold.Chemscore.Internal.Correction>
   9.000000E+99

> <Gold.Chemscore.Hbonds>
donor molecule, donor type, donor heavy atom, donor atom, acceptor molecule, acceptor atom, score
      L1  H     3    50       P1 10175  0.98
      L1  H    13    37       P1  8028  0.94
      L1  H    16    38       P1  8028  0.99

> <Gold.Chemscore.Hbond.Weighted>
-9.7154

> <Gold.Chemscore.Metal.Weighted>
-0.0000

> <Gold.Chemscore.Lipo.Weighted>
-11.4590

> <Gold.Chemscore.Internal_Hbond.Weighted>
0.0000

> <Gold.Chemscore.DEClash.Weighted>
0.1828

> <Gold.Chemscore.DEInternal.Weighted>
3.3216

> <Gold.Chemscore.Rot.Weighted>
3.0178

> <Gold.Chemscore.Internal.Correction.Weighted>
   9.000000E+99

> <Gold.Protein.RotatedTorsions>
[ 6907 6896 6895 6894 ] final   76.04 input  -60.11 | X-H torsion
[ 7974 7965 7964 7962 ] final -140.04 input  175.53 | X-H torsion
[ 8008 7997 7996 7995 ] final  -90.06 input   59.86 | X-H torsion
[ 10167 10162 10161 10158 ] final  -25.12 input  -65.29 | X-H torsion
[ 10718 10713 10712 10709 ] final  -71.75 input   66.30 | X-H torsion
[ 10763 10752 10751 10750 ] final -132.16 input  -60.55 | X-H torsion
[ 11005 11000 10999 10996 ] final  -87.73 input  -57.11 | X-H torsion

> <Gold.Protein.ActiveResidues>
 VAL166  LYS551  ARG553  GLY616  TRP617  ASP618  TYR619  PRO620  LYS621  CYS622 
 ASP623  PHE694  ASN695  SER759  ASP760  ASP761  ALA762  ILE779  LEU786  VAL792 
 PHE793  MET794  SER795  GLU796  ALA797  LYS798  CYS799  TRP800  GLU811  SER814 

> <Gold.Protein.RotatedAtoms>
  152.5054  134.4029  159.9422 H   0  0  0  0  0  0  0  0  0  0  0  0  # atno 6907 bound_to 6896
  151.3994  133.3756  159.2738 H   0  0  0  0  0  0  0  0  0  0  0  0  # atno 6908 bound_to 6896
  150.9373  134.8805  159.7649 H   0  0  0  0  0  0  0  0  0  0  0  0  # atno 6909 bound_to 6896
  144.8629  140.6248  143.5317 H   0  0  0  0  0  0  0  0  0  0  0  0  # atno 7974 bound_to 7965
  154.6941  140.0534  157.0392 H   0  0  0  0  0  0  0  0  0  0  0  0  # atno 8008 bound_to 7997
  155.0776  140.3206  155.4592 H   0  0  0  0  0  0  0  0  0  0  0  0  # atno 8009 bound_to 7997
  156.2738  140.2070  156.5904 H   0  0  0  0  0  0  0  0  0  0  0  0  # atno 8010 bound_to 7997
  140.7287  143.4293  151.0828 H   0  0  0  0  0  0  0  0  0  0  0  0  # atno 10167 bound_to 10162
  156.0349  130.4358  150.2490 H   0  0  0  0  0  0  0  0  0  0  0  0  # atno 10718 bound_to 10713
  154.8745  135.3807  154.4365 H   0  0  0  0  0  0  0  0  0  0  0  0  # atno 10763 bound_to 10752
  153.5054  135.7030  153.5814 H   0  0  0  0  0  0  0  0  0  0  0  0  # atno 10764 bound_to 10752
  153.4128  135.3920  155.2027 H   0  0  0  0  0  0  0  0  0  0  0  0  # atno 10765 bound_to 10752
  141.1612  133.7528  156.9350 H   0  0  0  0  0  0  0  0  0  0  0  0  # atno 11005 bound_to 11000
  145.4277  139.1554  143.4039 LP  0  0  0  0  0  0  0  0  0  0  0  0  # atno 17320 bound_to 7965
  146.2874  140.4392  142.8752 LP  0  0  0  0  0  0  0  0  0  0  0  0  # atno 17321 bound_to 7965
  139.7947  143.8168  152.3156 LP  0  0  0  0  0  0  0  0  0  0  0  0  # atno 17342 bound_to 10162
  139.8164  144.7314  150.9630 LP  0  0  0  0  0  0  0  0  0  0  0  0  # atno 17343 bound_to 10162
  157.0590  131.0084  151.3228 LP  0  0  0  0  0  0  0  0  0  0  0  0  # atno 17370 bound_to 10713
  157.5084  130.7923  149.7679 LP  0  0  0  0  0  0  0  0  0  0  0  0  # atno 17371 bound_to 10713
  140.1361  134.9324  157.2403 LP  0  0  0  0  0  0  0  0  0  0  0  0  # atno 17394 bound_to 11000
  140.2894  134.3258  155.7319 LP  0  0  0  0  0  0  0  0  0  0  0  0  # atno 17395 bound_to 11000

$$$$
