AV-unprocessed.smi:2784|AV-procd|sdf|10745|dock2
  -GOLD-   2272015183D 1   1.00000     0.00000
 Structure written by MMmdl.
 30 31  0  0  0  0  0  0  0  0  2 V2000
  148.0579  145.0420  160.5617 C   0  0  0  0  0  0  0  0  0  0  0  0
  149.0252  144.0135  160.4250 O   0  0  0  0  0  0  0  0  0  0  0  0
  150.0028  144.2758  159.4264 C   0  0  1  0  0  0  0  0  0  0  0  0
  150.9427  145.4193  159.8364 C   0  0  0  0  0  0  0  0  0  0  0  0
  152.2841  145.0597  159.2086 C   0  0  0  0  0  0  0  0  0  0  0  0
  152.3572  143.5414  159.3548 C   0  0  0  0  0  0  0  0  0  0  0  0
  150.9057  143.0383  159.2257 C   0  0  2  0  0  0  0  0  0  0  0  0
  150.6704  142.4376  157.9139 N   0  0  0  0  0  0  0  0  0  0  0  0
  151.3620  141.4223  157.3763 C   0  0  0  0  0  0  0  0  0  0  0  0
  152.2943  140.9137  158.0032 O   0  0  0  0  0  0  0  0  0  0  0  0
  150.9336  141.0637  156.1449 N   0  5  0  0  0  0  0  0  0  0  0  0
  151.4898  140.0109  155.5240 C   0  0  0  0  0  0  0  0  0  0  0  0
  152.6075  139.3786  155.8863 N   0  0  0  0  0  0  0  0  0  0  0  0
  152.7841  138.3609  154.9616 C   0  0  0  0  0  0  0  0  0  0  0  0
  151.7463  138.4174  154.0719 C   0  0  0  0  0  0  0  0  0  0  0  0
  150.9216  139.4517  154.4181 O   0  0  0  0  0  0  0  0  0  0  0  0
  147.3351  144.7610  161.3276 H   0  0  0  0  0  0  0  0  0  0  0  0
  147.5135  145.1982  159.6294 H   0  0  0  0  0  0  0  0  0  0  0  0
  148.5133  145.9856  160.8640 H   0  0  0  0  0  0  0  0  0  0  0  0
  149.5154  144.5319  158.4831 H   0  0  0  0  0  0  0  0  0  0  0  0
  150.5797  146.3971  159.5189 H   0  0  0  0  0  0  0  0  0  0  0  0
  151.0504  145.4409  160.9219 H   0  0  0  0  0  0  0  0  0  0  0  0
  152.2819  145.3293  158.1515 H   0  0  0  0  0  0  0  0  0  0  0  0
  153.1226  145.5686  159.6845 H   0  0  0  0  0  0  0  0  0  0  0  0
  153.0427  143.0915  158.6353 H   0  0  0  0  0  0  0  0  0  0  0  0
  152.7322  143.2958  160.3491 H   0  0  0  0  0  0  0  0  0  0  0  0
  150.7067  142.2976  160.0028 H   0  0  0  0  0  0  0  0  0  0  0  0
  149.9151  142.8229  157.3662 H   0  0  0  0  0  0  0  0  0  0  0  0
  153.6231  137.6830  155.0110 H   0  0  0  0  0  0  0  0  0  0  0  0
  151.4665  137.8401  153.2036 H   0  0  0  0  0  0  0  0  0  0  0  0
  1  2  1  0  0  0  0
  1 17  1  0  0  0  0
  1 18  1  0  0  0  0
  1 19  1  0  0  0  0
  2  3  1  0  0  0  0
  3  7  1  0  0  0  0
  3  4  1  0  0  0  0
  3 20  1  0  0  0  0
  4  5  1  0  0  0  0
  4 21  1  0  0  0  0
  4 22  1  0  0  0  0
  5  6  1  0  0  0  0
  5 23  1  0  0  0  0
  5 24  1  0  0  0  0
  6  7  1  0  0  0  0
  6 25  1  0  0  0  0
  6 26  1  0  0  0  0
  7  8  1  0  0  0  0
  7 27  1  0  0  0  0
  8 28  1  0  0  0  0
  8  9  1  0  0  0  0
  9 11  1  0  0  0  0
  9 10  2  0  0  0  0
 11 12  1  0  0  0  0
 12 16  1  0  0  0  0
 12 13  2  0  0  0  0
 13 14  1  0  0  0  0
 14 29  1  0  0  0  0
 14 15  2  0  0  0  0
 15 30  1  0  0  0  0
 15 16  1  0  0  0  0
M  CHG  1  11  -1
M  END
> <s_m_source_file>
AV-unprocessed.smi

> <i_m_source_file_index>
2784

> <i_lp_mmshare_version>
43012

> <i_f3d_flags>
0

> <s_epik_input>
W0NIM11PW0NAQEhdMVtDSDJdW0NIMl1bQ0gyXVtDQEhdMVtOSF1DKD1PKVtOSF1jMm5bY0hdW2NIXW8y

> <s_epik_cmdline>
J2VwaWtfcHl0aG9uJywgJy1waCcsICc3LjAnLCAnLXRuJywgJzgnLCAnLW1hJywgJzIwMCcsICctbWV0YWxfYmluZGluZycsICctaW1hZScsICc8aW5maWxlLm1hZT4nLCAnLW9tYWUnLCAnPG91dGZpbGUubWFlPic=

> <r_lp_tautomer_probability>
0.107061

> <r_epik_Ionization_Penalty>
10.8857

> <r_epik_Ionization_Penalty_Charging>
7.67908

> <r_epik_Ionization_Penalty_Neutral>
3.20665

> <r_epik_State_Penalty>
5.80296

> <r_epik_Charging_Adjusted_Penalty>
13.482

> <i_epik_Tot_Q>
-1

> <i_epik_Tot_abs_Q>
1

> <r_epik_Metal_State_Penalty>
1.73217

> <b_epik_Metal_Only>
1

> <s_lp_Force_Field>
OPLS_2005

> <r_lp_Energy>
14.4725

> <b_lp_Chiralities_Consistent>
1

> <s_lp_Variant>
AV-unprocessed.smi:2784-20

> <Gold.Version>
5.8.1

> <Gold.Id.Protein>
6NUR|6NUR_protein|mol2

> <Gold.PLP.Fitness>
41.7731

> <Gold.PLP.PLP>
-33.1497

> <Gold.PLP.part.hbond>
-3.0000

> <Gold.PLP.part.metal>
0.0000

> <Gold.PLP.part.buried>
-6.7360

> <Gold.PLP.part.nonpolar>
-24.3870

> <Gold.PLP.part.repulsive>
0.3715

> <Gold.PLP.ligand.clash>
0.0000

> <Gold.PLP.ligand.torsion>
0.1005

> <Gold.PLP.Chemscore.Hbond>
1.9580

> <Gold.PLP.Chemscore.CHOScore>
0.9712

> <Gold.PLP.Chemscore.Metal>
0.0000

> <Gold.Chemscore.Hbonds>
donor molecule, donor type, donor heavy atom, donor atom, acceptor molecule, acceptor atom, score
      P1  H  6933  6944       L1     2  0.62
      P1  H  7989  7998       L1    16  0.30
      P1  H  7997  8009       L1    13  1.00
      L1  C    15    30       P1  7949  0.99

> <Gold.PLP.Chemscore.Internal.Correction>
0.0370

> <Gold.Rescore>
     Score         DG    S(hbond)    S(metal)    S(lipo)     H(rot)  DE(clash)    DE(int)     intcor
     12.10     -15.00       1.30        0.00      72.80       1.31       0.02       2.88       ----

> <Gold.Chemscore.Fitness>
12.0979

> <Gold.Chemscore.DG>
-14.9982

> <Gold.Chemscore.ZeroCoef>
-5.4800

> <Gold.Chemscore.Hbond>
1.3040

> <Gold.Chemscore.Metal>
0.0000

> <Gold.Chemscore.Lipo>
72.8015

> <Gold.Chemscore.Internal_Hbond>
0.0000

> <Gold.Chemscore.DEClash>
0.0174

> <Gold.Chemscore.DEInternal>
2.8829

> <Gold.Chemscore.Rot>
1.3106

> <Gold.Chemscore.Internal.Correction>
   9.000000E+99

> <Gold.Chemscore.Hbonds>
donor molecule, donor type, donor heavy atom, donor atom, acceptor molecule, acceptor atom, score
      P1  H  6933  6944       L1     2  0.52
      P1  H  7997  8009       L1    13  0.55

> <Gold.Chemscore.Hbond.Weighted>
-4.3555

> <Gold.Chemscore.Metal.Weighted>
-0.0000

> <Gold.Chemscore.Lipo.Weighted>
-8.5178

> <Gold.Chemscore.Internal_Hbond.Weighted>
0.0000

> <Gold.Chemscore.DEClash.Weighted>
0.0174

> <Gold.Chemscore.DEInternal.Weighted>
2.8829

> <Gold.Chemscore.Rot.Weighted>
3.3550

> <Gold.Chemscore.Internal.Correction.Weighted>
   9.000000E+99

> <Gold.Protein.RotatedTorsions>
[ 6907 6896 6895 6894 ] final  -56.30 input  -60.11 | X-H torsion
[ 7974 7965 7964 7962 ] final  120.62 input  175.53 | X-H torsion
[ 8008 7997 7996 7995 ] final -153.15 input   59.86 | X-H torsion
[ 10167 10162 10161 10158 ] final -119.38 input  -65.29 | X-H torsion
[ 10718 10713 10712 10709 ] final   33.93 input   66.30 | X-H torsion
[ 10763 10752 10751 10750 ] final  -55.12 input  -60.55 | X-H torsion
[ 11005 11000 10999 10996 ] final  -31.63 input  -57.11 | X-H torsion

> <Gold.Protein.ActiveResidues>
 VAL166  LYS551  ARG553  GLY616  TRP617  ASP618  TYR619  PRO620  LYS621  CYS622 
 ASP623  PHE694  ASN695  SER759  ASP760  ASP761  ALA762  ILE779  LEU786  VAL792 
 PHE793  MET794  SER795  GLU796  ALA797  LYS798  CYS799  TRP800  GLU811  SER814 

> <Gold.Protein.RotatedAtoms>
  150.8179  134.7371  159.6746 H   0  0  0  0  0  0  0  0  0  0  0  0  # atno 6907 bound_to 6896
  152.4297  134.5798  159.9954 H   0  0  0  0  0  0  0  0  0  0  0  0  # atno 6908 bound_to 6896
  151.5990  133.3321  159.3079 H   0  0  0  0  0  0  0  0  0  0  0  0  # atno 6909 bound_to 6896
  145.1290  139.3340  143.4675 H   0  0  0  0  0  0  0  0  0  0  0  0  # atno 7974 bound_to 7965
  155.6663  140.0728  157.2536 H   0  0  0  0  0  0  0  0  0  0  0  0  # atno 8008 bound_to 7997
  154.4132  140.1707  156.1881 H   0  0  0  0  0  0  0  0  0  0  0  0  # atno 8009 bound_to 7997
  155.9655  140.3366  155.6531 H   0  0  0  0  0  0  0  0  0  0  0  0  # atno 8010 bound_to 7997
  140.0473  143.5094  152.2100 H   0  0  0  0  0  0  0  0  0  0  0  0  # atno 10167 bound_to 10162
  157.3041  130.7365  149.6684 H   0  0  0  0  0  0  0  0  0  0  0  0  # atno 10718 bound_to 10713
  154.1857  135.6436  153.5046 H   0  0  0  0  0  0  0  0  0  0  0  0  # atno 10763 bound_to 10752
  153.0048  135.5416  154.6467 H   0  0  0  0  0  0  0  0  0  0  0  0  # atno 10764 bound_to 10752
  154.5843  135.2928  155.0673 H   0  0  0  0  0  0  0  0  0  0  0  0  # atno 10765 bound_to 10752
  140.9484  133.7235  156.1183 H   0  0  0  0  0  0  0  0  0  0  0  0  # atno 11005 bound_to 11000
  146.3515  140.1281  142.8598 LP  0  0  0  0  0  0  0  0  0  0  0  0  # atno 17320 bound_to 7965
  145.0656  140.9119  143.4912 LP  0  0  0  0  0  0  0  0  0  0  0  0  # atno 17321 bound_to 7965
  139.5975  144.7572  151.3250 LP  0  0  0  0  0  0  0  0  0  0  0  0  # atno 17342 bound_to 10162
  140.7233  143.7075  150.7796 LP  0  0  0  0  0  0  0  0  0  0  0  0  # atno 17343 bound_to 10162
  155.9673  130.4271  150.4729 LP  0  0  0  0  0  0  0  0  0  0  0  0  # atno 17370 bound_to 10713
  157.2715  131.0588  151.2256 LP  0  0  0  0  0  0  0  0  0  0  0  0  # atno 17371 bound_to 10713
  140.7636  134.3911  157.5521 LP  0  0  0  0  0  0  0  0  0  0  0  0  # atno 17394 bound_to 11000
  139.8840  134.8977  156.2730 LP  0  0  0  0  0  0  0  0  0  0  0  0  # atno 17395 bound_to 11000

$$$$
