AV-unprocessed.smi:633|AV-procd|sdf|3131|dock4
  -GOLD-   22720 0 53D 1   1.00000     0.00000
 Structure written by MMmdl.
 53 56  0  0  0  0  0  0  0  0  1 V2000
  152.0701  144.9184  158.7389 C   0  0  0  0  0  0  0  0  0  0  0  0
  152.5215  143.4696  158.5270 C   0  0  2  0  0  0  0  0  0  0  0  0
  151.4608  142.6346  157.7851 C   0  0  0  0  0  0  0  0  0  0  0  0
  151.8790  141.2369  157.7018 N   0  0  0  0  0  0  0  0  0  0  0  0
  151.1561  140.3789  156.8453 C   0  0  0  0  0  0  0  0  0  0  0  0
  151.7584  139.8852  155.6648 C   0  0  0  0  0  0  0  0  0  0  0  0
  151.0276  139.0241  154.8243 C   0  0  0  0  0  0  0  0  0  0  0  0
  149.7066  138.6693  155.1865 C   0  0  0  0  0  0  0  0  0  0  0  0
  148.8559  137.8148  154.4307 N   0  0  0  0  0  0  0  0  0  0  0  0
  147.5444  137.5625  154.5870 C   0  0  0  0  0  0  0  0  0  0  0  0
  146.8179  138.0598  155.4462 O   0  0  0  0  0  0  0  0  0  0  0  0
  147.1097  136.6882  153.6681 N   0  0  0  0  0  0  0  0  0  0  0  0
  145.7460  136.1793  153.5571 C   0  0  0  0  0  0  0  0  0  0  0  0
  145.6844  134.6656  153.6766 C   0  0  0  0  0  0  0  0  0  0  0  0
  146.8426  133.8714  154.2335 C   0  0  0  0  0  0  0  0  0  0  0  0
  146.4934  133.7725  152.7659 C   0  0  0  0  0  0  0  0  0  0  0  0
  145.0806  136.6373  152.2722 C   0  0  0  0  0  0  0  0  0  0  0  0
  143.9067  135.8848  151.6932 C   0  0  0  0  0  0  0  0  0  0  0  0
  145.2419  135.8664  150.9832 C   0  0  0  0  0  0  0  0  0  0  0  0
  149.1883  139.2241  156.3739 C   0  0  0  0  0  0  0  0  0  0  0  0
  149.8844  140.0521  157.1811 N   0  0  0  0  0  0  0  0  0  0  0  0
  152.2426  140.6663  158.9958 C   0  0  0  0  0  0  0  0  0  0  0  0
  153.2762  141.5595  159.7082 C   0  0  2  0  0  0  0  0  0  0  0  0
  153.5878  141.0623  161.1238 C   0  0  0  0  0  0  0  0  0  0  0  0
  152.7650  142.8862  159.8040 O   0  0  0  0  0  0  0  0  0  0  0  0
  151.8812  145.4138  157.7864 H   0  0  0  0  0  0  0  0  0  0  0  0
  152.8339  145.4911  159.2656 H   0  0  0  0  0  0  0  0  0  0  0  0
  151.1538  144.9638  159.3283 H   0  0  0  0  0  0  0  0  0  0  0  0
  153.4505  143.4771  157.9538 H   0  0  0  0  0  0  0  0  0  0  0  0
  150.5036  142.6934  158.3052 H   0  0  0  0  0  0  0  0  0  0  0  0
  151.3139  143.0417  156.7837 H   0  0  0  0  0  0  0  0  0  0  0  0
  152.7629  140.1681  155.3873 H   0  0  0  0  0  0  0  0  0  0  0  0
  151.4984  138.6695  153.9218 H   0  0  0  0  0  0  0  0  0  0  0  0
  149.2997  137.3547  153.6492 H   0  0  0  0  0  0  0  0  0  0  0  0
  147.7773  136.3361  152.9979 H   0  0  0  0  0  0  0  0  0  0  0  0
  145.1564  136.5944  154.3771 H   0  0  0  0  0  0  0  0  0  0  0  0
  144.6953  134.2947  153.9401 H   0  0  0  0  0  0  0  0  0  0  0  0
  147.7536  134.4068  154.4925 H   0  0  0  0  0  0  0  0  0  0  0  0
  146.6076  133.0178  154.8658 H   0  0  0  0  0  0  0  0  0  0  0  0
  146.0245  132.8540  152.4189 H   0  0  0  0  0  0  0  0  0  0  0  0
  147.1702  134.2463  152.0578 H   0  0  0  0  0  0  0  0  0  0  0  0
  145.0413  137.7201  152.1678 H   0  0  0  0  0  0  0  0  0  0  0  0
  143.5923  134.9727  152.1968 H   0  0  0  0  0  0  0  0  0  0  0  0
  143.1060  136.4709  151.2469 H   0  0  0  0  0  0  0  0  0  0  0  0
  145.3310  136.4400  150.0631 H   0  0  0  0  0  0  0  0  0  0  0  0
  145.8083  134.9376  151.0100 H   0  0  0  0  0  0  0  0  0  0  0  0
  148.1814  138.9952  156.6920 H   0  0  0  0  0  0  0  0  0  0  0  0
  151.3408  140.5770  159.6031 H   0  0  0  0  0  0  0  0  0  0  0  0
  152.6525  139.6627  158.8900 H   0  0  0  0  0  0  0  0  0  0  0  0
  154.2047  141.5746  159.1346 H   0  0  0  0  0  0  0  0  0  0  0  0
  153.9955  140.0513  161.1042 H   0  0  0  0  0  0  0  0  0  0  0  0
  152.6910  141.0503  161.7437 H   0  0  0  0  0  0  0  0  0  0  0  0
  154.3203  141.7069  161.6102 H   0  0  0  0  0  0  0  0  0  0  0  0
  1  2  1  0  0  0  0
  1 26  1  0  0  0  0
  1 27  1  0  0  0  0
  1 28  1  0  0  0  0
  2 25  1  0  0  0  0
  2  3  1  0  0  0  0
  2 29  1  0  0  0  0
  3  4  1  0  0  0  0
  3 30  1  0  0  0  0
  3 31  1  0  0  0  0
  4  5  1  0  0  0  0
  4 22  1  0  0  0  0
  5 21  1  0  0  0  0
  5  6  2  0  0  0  0
  6  7  1  0  0  0  0
  6 32  1  0  0  0  0
  7  8  2  0  0  0  0
  7 33  1  0  0  0  0
  8  9  1  0  0  0  0
  8 20  1  0  0  0  0
  9 10  1  0  0  0  0
  9 34  1  0  0  0  0
 10 11  2  0  0  0  0
 10 12  1  0  0  0  0
 12 13  1  0  0  0  0
 12 35  1  0  0  0  0
 13 14  1  0  0  0  0
 13 17  1  0  0  0  0
 13 36  1  0  0  0  0
 14 16  1  0  0  0  0
 14 15  1  0  0  0  0
 14 37  1  0  0  0  0
 15 16  1  0  0  0  0
 15 38  1  0  0  0  0
 15 39  1  0  0  0  0
 16 40  1  0  0  0  0
 16 41  1  0  0  0  0
 17 19  1  0  0  0  0
 17 18  1  0  0  0  0
 17 42  1  0  0  0  0
 18 19  1  0  0  0  0
 18 43  1  0  0  0  0
 18 44  1  0  0  0  0
 19 45  1  0  0  0  0
 19 46  1  0  0  0  0
 20 21  2  0  0  0  0
 20 47  1  0  0  0  0
 22 23  1  0  0  0  0
 22 48  1  0  0  0  0
 22 49  1  0  0  0  0
 23 24  1  0  0  0  0
 23 25  1  0  0  0  0
 23 50  1  0  0  0  0
 24 51  1  0  0  0  0
 24 52  1  0  0  0  0
 24 53  1  0  0  0  0
M  END
> <s_m_source_file>
AV-unprocessed.smi

> <i_m_source_file_index>
633

> <i_lp_mmshare_version>
43012

> <i_f3d_flags>
0

> <s_epik_input>
W0NIM11bQ0BASF0xW0NIMl1OKFtDSDJdW0NASF0oTzEpW0NIM10pYzJbY0hdW2NIXWMoW2NIXW4yKVtOSF1DKD1PKVtOSF1bQ0hdKFtDSF0zW0NIMl1bQ0gyXTMpW0NIXTRbQ0gyXVtDSDJdNA==

> <s_epik_cmdline>
J2VwaWtfcHl0aG9uJywgJy1waCcsICc3LjAnLCAnLXRuJywgJzgnLCAnLW1hJywgJzIwMCcsICctbWV0YWxfYmluZGluZycsICctaW1hZScsICc8aW5maWxlLm1hZT4nLCAnLW9tYWUnLCAnPG91dGZpbGUubWFlPic=

> <r_lp_tautomer_probability>
1

> <r_epik_Ionization_Penalty>
0.00291159

> <r_epik_Ionization_Penalty_Charging>
0

> <r_epik_Ionization_Penalty_Neutral>
0.00291159

> <r_epik_State_Penalty>
0.00200877

> <r_epik_Charging_Adjusted_Penalty>
0.00200877

> <i_epik_Tot_Q>
0

> <i_epik_Tot_abs_Q>
0

> <r_epik_Metal_State_Penalty>
-0

> <b_epik_Metal_Only>
0

> <s_lp_Force_Field>
OPLS_2005

> <r_lp_Energy>
40.0006

> <b_lp_Chiralities_Consistent>
1

> <s_lp_Variant>
AV-unprocessed.smi:633-2

> <Gold.Version>
5.8.1

> <Gold.Id.Protein>
6NUR|6NUR_protein|mol2

> <Gold.PLP.Fitness>
47.8446

> <Gold.PLP.PLP>
-42.5977

> <Gold.PLP.part.hbond>
-1.9519

> <Gold.PLP.part.metal>
0.0000

> <Gold.PLP.part.buried>
-5.5456

> <Gold.PLP.part.nonpolar>
-35.7538

> <Gold.PLP.part.repulsive>
0.0262

> <Gold.PLP.ligand.clash>
0.0000

> <Gold.PLP.ligand.torsion>
1.3331

> <Gold.PLP.Chemscore.Hbond>
1.8151

> <Gold.PLP.Chemscore.CHOScore>
0.0000

> <Gold.PLP.Chemscore.Metal>
0.0000

> <Gold.Chemscore.Hbonds>
donor molecule, donor type, donor heavy atom, donor atom, acceptor molecule, acceptor atom, score
      L1  H     9    34       P1  7948  0.71
      L1  H    12    35       P1  7948  1.00

> <Gold.PLP.Chemscore.Internal.Correction>
2.4677

> <Gold.Rescore>
     Score         DG    S(hbond)    S(metal)    S(lipo)     H(rot)  DE(clash)    DE(int)     intcor
     18.14     -20.90       1.77        0.00     111.83       1.40       0.05       2.72       ----

> <Gold.Chemscore.Fitness>
18.1360

> <Gold.Chemscore.DG>
-20.9021

> <Gold.Chemscore.ZeroCoef>
-5.4800

> <Gold.Chemscore.Hbond>
1.7749

> <Gold.Chemscore.Metal>
0.0000

> <Gold.Chemscore.Lipo>
111.8273

> <Gold.Chemscore.Internal_Hbond>
0.0000

> <Gold.Chemscore.DEClash>
0.0460

> <Gold.Chemscore.DEInternal>
2.7201

> <Gold.Chemscore.Rot>
1.4022

> <Gold.Chemscore.Internal.Correction>
   9.000000E+99

> <Gold.Chemscore.Hbonds>
donor molecule, donor type, donor heavy atom, donor atom, acceptor molecule, acceptor atom, score
      L1  H     9    34       P1  7948  0.69
      L1  H    12    35       P1  7948  0.99

> <Gold.Chemscore.Hbond.Weighted>
-5.9280

> <Gold.Chemscore.Metal.Weighted>
-0.0000

> <Gold.Chemscore.Lipo.Weighted>
-13.0838

> <Gold.Chemscore.Internal_Hbond.Weighted>
0.0000

> <Gold.Chemscore.DEClash.Weighted>
0.0460

> <Gold.Chemscore.DEInternal.Weighted>
2.7201

> <Gold.Chemscore.Rot.Weighted>
3.5897

> <Gold.Chemscore.Internal.Correction.Weighted>
   9.000000E+99

> <Gold.Protein.RotatedTorsions>
[ 6907 6896 6895 6894 ] final   67.51 input  -60.11 | X-H torsion
[ 7974 7965 7964 7962 ] final  145.99 input  175.53 | X-H torsion
[ 8008 7997 7996 7995 ] final -104.66 input   59.86 | X-H torsion
[ 10167 10162 10161 10158 ] final -159.29 input  -65.29 | X-H torsion
[ 10718 10713 10712 10709 ] final  -99.77 input   66.30 | X-H torsion
[ 10763 10752 10751 10750 ] final   -9.67 input  -60.55 | X-H torsion
[ 11005 11000 10999 10996 ] final   -0.73 input  -57.11 | X-H torsion

> <Gold.Protein.ActiveResidues>
 VAL166  LYS551  ARG553  GLY616  TRP617  ASP618  TYR619  PRO620  LYS621  CYS622 
 ASP623  PHE694  ASN695  SER759  ASP760  ASP761  ALA762  ILE779  LEU786  VAL792 
 PHE793  MET794  SER795  GLU796  ALA797  LYS798  CYS799  TRP800  GLU811  SER814 

> <Gold.Protein.RotatedAtoms>
  152.4556  134.5298  159.9807 H   0  0  0  0  0  0  0  0  0  0  0  0  # atno 6907 bound_to 6896
  151.5359  133.3435  159.2934 H   0  0  0  0  0  0  0  0  0  0  0  0  # atno 6908 bound_to 6896
  150.8500  134.7852  159.7064 H   0  0  0  0  0  0  0  0  0  0  0  0  # atno 6909 bound_to 6896
  144.8707  139.5851  143.5888 H   0  0  0  0  0  0  0  0  0  0  0  0  # atno 7974 bound_to 7965
  154.8885  140.0417  157.1825 H   0  0  0  0  0  0  0  0  0  0  0  0  # atno 8008 bound_to 7997
  154.8565  140.2937  155.5545 H   0  0  0  0  0  0  0  0  0  0  0  0  # atno 8009 bound_to 7997
  156.2997  140.2455  156.3532 H   0  0  0  0  0  0  0  0  0  0  0  0  # atno 8010 bound_to 7997
  139.6626  143.9885  152.2235 H   0  0  0  0  0  0  0  0  0  0  0  0  # atno 10167 bound_to 10162
  156.0143  130.5298  150.6720 H   0  0  0  0  0  0  0  0  0  0  0  0  # atno 10718 bound_to 10713
  153.4582  135.7016  153.6067 H   0  0  0  0  0  0  0  0  0  0  0  0  # atno 10763 bound_to 10752
  153.4372  135.3788  155.2207 H   0  0  0  0  0  0  0  0  0  0  0  0  # atno 10764 bound_to 10752
  154.8727  135.3965  154.4004 H   0  0  0  0  0  0  0  0  0  0  0  0  # atno 10765 bound_to 10752
  140.6395  133.9502  155.8318 H   0  0  0  0  0  0  0  0  0  0  0  0  # atno 11005 bound_to 11000
  146.2928  139.7189  142.9148 LP  0  0  0  0  0  0  0  0  0  0  0  0  # atno 17320 bound_to 7965
  145.4136  141.0399  143.3003 LP  0  0  0  0  0  0  0  0  0  0  0  0  # atno 17321 bound_to 7965
  139.9628  144.6546  150.8063 LP  0  0  0  0  0  0  0  0  0  0  0  0  # atno 17342 bound_to 10162
  140.7586  143.3111  151.2842 LP  0  0  0  0  0  0  0  0  0  0  0  0  # atno 17343 bound_to 10162
  157.4440  131.0864  151.0914 LP  0  0  0  0  0  0  0  0  0  0  0  0  # atno 17370 bound_to 10713
  157.1450  130.6159  149.5566 LP  0  0  0  0  0  0  0  0  0  0  0  0  # atno 17371 bound_to 10713
  141.0617  134.0336  157.3649 LP  0  0  0  0  0  0  0  0  0  0  0  0  # atno 17394 bound_to 11000
  139.9085  135.0185  156.7592 LP  0  0  0  0  0  0  0  0  0  0  0  0  # atno 17395 bound_to 11000

$$$$
