AV-unprocessed.smi:3057|AV-procd|sdf|11661|dock1
  -GOLD-   2272017 63D 1   1.00000     0.00000
 Structure written by MMmdl.
 40 42  0  0  0  0  0  0  0  0  1 V2000
  150.3681  140.8940  156.7805 C   0  0  0  0  0  0  0  0  0  0  0  0
  150.1395  139.3708  156.8194 C   0  0  1  0  0  0  0  0  0  0  0  0
  149.6626  138.8376  155.4561 C   0  0  0  0  0  0  0  0  0  0  0  0
  150.9437  138.3510  154.7631 C   0  0  0  0  0  0  0  0  0  0  0  0
  151.8720  138.0906  155.9383 C   0  0  0  0  0  0  0  0  0  0  0  0
  152.8861  137.3993  155.8588 O   0  0  0  0  0  0  0  0  0  0  0  0
  151.3817  138.6574  157.0480 N   0  0  0  0  0  0  0  0  0  0  0  0
  151.7579  138.3504  158.4302 C   0  0  1  0  0  0  0  0  0  0  0  0
  153.0140  139.1400  158.8359 C   0  0  0  0  0  0  0  0  0  0  0  0
  154.1150  138.8681  158.3553 O   0  0  0  0  0  0  0  0  0  0  0  0
  152.8255  140.1286  159.7213 N   0  0  0  0  0  0  0  0  0  0  0  0
  153.8797  140.9898  160.2403 C   0  0  0  0  0  0  0  0  0  0  0  0
  153.3221  141.9356  161.3132 C   0  0  0  0  0  0  0  0  0  0  0  0
  152.5045  143.0665  160.7180 C   0  0  0  0  0  0  0  0  0  0  0  0
  151.9916  144.0940  161.5383 C   0  0  0  0  0  0  0  0  0  0  0  0
  151.2378  145.1199  160.9360 C   0  0  0  0  0  0  0  0  0  0  0  0
  151.0258  145.0786  159.5445 C   0  0  0  0  0  0  0  0  0  0  0  0
  151.5790  144.0081  158.8139 C   0  0  0  0  0  0  0  0  0  0  0  0
  152.3042  143.0201  159.3815 N   0  0  0  0  0  0  0  0  0  0  0  0
  150.5572  138.7698  159.3149 C   0  0  0  0  0  0  0  0  0  0  0  0
  149.1145  138.8959  158.2216 S   0  0  0  0  0  0  0  0  0  0  0  0
  151.0845  141.1709  156.0063 H   0  0  0  0  0  0  0  0  0  0  0  0
  150.7476  141.2714  157.7299 H   0  0  0  0  0  0  0  0  0  0  0  0
  149.4371  141.4218  156.5721 H   0  0  0  0  0  0  0  0  0  0  0  0
  148.9810  137.9960  155.5896 H   0  0  0  0  0  0  0  0  0  0  0  0
  149.1360  139.5913  154.8693 H   0  0  0  0  0  0  0  0  0  0  0  0
  150.7784  137.4541  154.1655 H   0  0  0  0  0  0  0  0  0  0  0  0
  151.3747  139.1261  154.1286 H   0  0  0  0  0  0  0  0  0  0  0  0
  151.9281  137.2758  158.5216 H   0  0  0  0  0  0  0  0  0  0  0  0
  151.8904  140.2871  160.0678 H   0  0  0  0  0  0  0  0  0  0  0  0
  154.6830  140.3842  160.6637 H   0  0  0  0  0  0  0  0  0  0  0  0
  154.3068  141.5621  159.4159 H   0  0  0  0  0  0  0  0  0  0  0  0
  152.7023  141.3778  162.0166 H   0  0  0  0  0  0  0  0  0  0  0  0
  154.1401  142.3617  161.8963 H   0  0  0  0  0  0  0  0  0  0  0  0
  152.1706  144.0980  162.6036 H   0  0  0  0  0  0  0  0  0  0  0  0
  150.8298  145.9239  161.5306 H   0  0  0  0  0  0  0  0  0  0  0  0
  150.4532  145.8485  159.0490 H   0  0  0  0  0  0  0  0  0  0  0  0
  151.4357  143.9443  157.7453 H   0  0  0  0  0  0  0  0  0  0  0  0
  150.3708  138.0565  160.1176 H   0  0  0  0  0  0  0  0  0  0  0  0
  150.7057  139.7488  159.7739 H   0  0  0  0  0  0  0  0  0  0  0  0
  1  2  1  0  0  0  0
  1 22  1  0  0  0  0
  1 23  1  0  0  0  0
  1 24  1  0  0  0  0
  2  7  1  0  0  0  0
  2 21  1  0  0  0  0
  2  3  1  0  0  0  0
  3  4  1  0  0  0  0
  3 25  1  0  0  0  0
  3 26  1  0  0  0  0
  4  5  1  0  0  0  0
  4 27  1  0  0  0  0
  4 28  1  0  0  0  0
  5  6  2  0  0  0  0
  5  7  1  0  0  0  0
  7  8  1  0  0  0  0
  8  9  1  0  0  0  0
  8 20  1  0  0  0  0
  8 29  1  0  0  0  0
  9 10  2  0  0  0  0
  9 11  1  0  0  0  0
 11 12  1  0  0  0  0
 11 30  1  0  0  0  0
 12 13  1  0  0  0  0
 12 31  1  0  0  0  0
 12 32  1  0  0  0  0
 13 14  1  0  0  0  0
 13 33  1  0  0  0  0
 13 34  1  0  0  0  0
 14 19  1  0  0  0  0
 14 15  2  0  0  0  0
 15 16  1  0  0  0  0
 15 35  1  0  0  0  0
 16 17  2  0  0  0  0
 16 36  1  0  0  0  0
 17 18  1  0  0  0  0
 17 37  1  0  0  0  0
 18 19  2  0  0  0  0
 18 38  1  0  0  0  0
 20 21  1  0  0  0  0
 20 39  1  0  0  0  0
 20 40  1  0  0  0  0
M  END
> <s_m_source_file>
AV-unprocessed.smi

> <i_m_source_file_index>
3057

> <i_lp_mmshare_version>
43012

> <i_f3d_flags>
0

> <s_epik_input>
W0NIMl0xW0NIMl1DKD1PKU4oW0NAQF0xMltDSDNdKVtDQEhdKFtDSDJdUzIpQyg9TylbTkhdW0NIMl1bQ0gyXWMzW2NIXVtjSF1bY0hdW2NIXW4z

> <s_epik_cmdline>
J2VwaWtfcHl0aG9uJywgJy1waCcsICc3LjAnLCAnLXRuJywgJzgnLCAnLW1hJywgJzIwMCcsICctbWV0YWxfYmluZGluZycsICctaW1hZScsICc8aW5maWxlLm1hZT4nLCAnLW9tYWUnLCAnPG91dGZpbGUubWFlPic=

> <r_epik_Ionization_Penalty>
0.0249631

> <r_epik_Ionization_Penalty_Charging>
0

> <r_epik_Ionization_Penalty_Neutral>
0.0249631

> <r_epik_State_Penalty>
0.0202943

> <r_epik_Charging_Adjusted_Penalty>
0.0202943

> <i_epik_Tot_Q>
0

> <i_epik_Tot_abs_Q>
0

> <r_epik_Metal_State_Penalty>
0.0194661

> <b_epik_Metal_Only>
0

> <s_lp_Force_Field>
OPLS_2005

> <r_lp_Energy>
25.4312

> <b_lp_Chiralities_Consistent>
1

> <s_lp_Variant>
AV-unprocessed.smi:3057-1

> <Gold.Version>
5.8.1

> <Gold.Id.Protein>
6NUR|6NUR_protein|mol2

> <Gold.PLP.Fitness>
49.5117

> <Gold.PLP.PLP>
-48.6306

> <Gold.PLP.part.hbond>
-2.0000

> <Gold.PLP.part.metal>
0.0000

> <Gold.PLP.part.buried>
-7.4968

> <Gold.PLP.part.nonpolar>
-39.7396

> <Gold.PLP.part.repulsive>
0.1147

> <Gold.PLP.ligand.clash>
2.6868

> <Gold.PLP.ligand.torsion>
0.2444

> <Gold.PLP.Chemscore.Hbond>
1.3360

> <Gold.PLP.Chemscore.CHOScore>
0.0000

> <Gold.PLP.Chemscore.Metal>
0.0000

> <Gold.Chemscore.Hbonds>
donor molecule, donor type, donor heavy atom, donor atom, acceptor molecule, acceptor atom, score
      P1  H  7997  8008       L1    10  1.00
      P1  H 10752 10764       L1     6  0.39

> <Gold.PLP.Chemscore.Internal.Correction>
0.0488

> <Gold.Rescore>
     Score         DG    S(hbond)    S(metal)    S(lipo)     H(rot)  DE(clash)    DE(int)     intcor
     18.46     -20.00       1.32        0.00     119.85       1.53       0.01       1.53       ----

> <Gold.Chemscore.Fitness>
18.4603

> <Gold.Chemscore.DG>
-20.0011

> <Gold.Chemscore.ZeroCoef>
-5.4800

> <Gold.Chemscore.Hbond>
1.3249

> <Gold.Chemscore.Metal>
0.0000

> <Gold.Chemscore.Lipo>
119.8508

> <Gold.Chemscore.Internal_Hbond>
0.0000

> <Gold.Chemscore.DEClash>
0.0089

> <Gold.Chemscore.DEInternal>
1.5319

> <Gold.Chemscore.Rot>
1.5339

> <Gold.Chemscore.Internal.Correction>
   9.000000E+99

> <Gold.Chemscore.Hbonds>
donor molecule, donor type, donor heavy atom, donor atom, acceptor molecule, acceptor atom, score
      P1  H  7997  8008       L1    10  0.98
      P1  H 10752 10764       L1     6  0.39

> <Gold.Chemscore.Hbond.Weighted>
-4.4253

> <Gold.Chemscore.Metal.Weighted>
-0.0000

> <Gold.Chemscore.Lipo.Weighted>
-14.0225

> <Gold.Chemscore.Internal_Hbond.Weighted>
0.0000

> <Gold.Chemscore.DEClash.Weighted>
0.0089

> <Gold.Chemscore.DEInternal.Weighted>
1.5319

> <Gold.Chemscore.Rot.Weighted>
3.9267

> <Gold.Chemscore.Internal.Correction.Weighted>
   9.000000E+99

> <Gold.Protein.RotatedTorsions>
[ 6907 6896 6895 6894 ] final  178.57 input  -60.11 | X-H torsion
[ 7974 7965 7964 7962 ] final  -79.08 input  175.53 | X-H torsion
[ 8008 7997 7996 7995 ] final -110.21 input   59.86 | X-H torsion
[ 10167 10162 10161 10158 ] final   -2.24 input  -65.29 | X-H torsion
[ 10718 10713 10712 10709 ] final  -63.72 input   66.30 | X-H torsion
[ 10763 10752 10751 10750 ] final  -10.83 input  -60.55 | X-H torsion
[ 11005 11000 10999 10996 ] final   58.57 input  -57.11 | X-H torsion

> <Gold.Protein.ActiveResidues>
 VAL166  LYS551  ARG553  GLY616  TRP617  ASP618  TYR619  PRO620  LYS621  CYS622 
 ASP623  PHE694  ASN695  SER759  ASP760  ASP761  ALA762  ILE779  LEU786  VAL792 
 PHE793  MET794  SER795  GLU796  ALA797  LYS798  CYS799  TRP800  GLU811  SER814 

> <Gold.Protein.RotatedAtoms>
  151.6856  133.3311  159.3229 H   0  0  0  0  0  0  0  0  0  0  0  0  # atno 6907 bound_to 6896
  150.7802  134.6743  159.6418 H   0  0  0  0  0  0  0  0  0  0  0  0  # atno 6908 bound_to 6896
  152.3857  134.6524  160.0178 H   0  0  0  0  0  0  0  0  0  0  0  0  # atno 6909 bound_to 6896
  145.5780  140.9454  143.1359 H   0  0  0  0  0  0  0  0  0  0  0  0  # atno 7974 bound_to 7965
  154.9710  140.0397  157.2234 H   0  0  0  0  0  0  0  0  0  0  0  0  # atno 8008 bound_to 7997
  154.7801  140.2817  155.6048 H   0  0  0  0  0  0  0  0  0  0  0  0  # atno 8009 bound_to 7997
  156.2935  140.2593  156.2624 H   0  0  0  0  0  0  0  0  0  0  0  0  # atno 8010 bound_to 7997
  140.6843  143.6680  150.8209 H   0  0  0  0  0  0  0  0  0  0  0  0  # atno 10167 bound_to 10162
  156.0773  130.4224  150.1317 H   0  0  0  0  0  0  0  0  0  0  0  0  # atno 10718 bound_to 10713
  153.4749  135.7017  153.5971 H   0  0  0  0  0  0  0  0  0  0  0  0  # atno 10763 bound_to 10752
  153.4209  135.3825  155.2111 H   0  0  0  0  0  0  0  0  0  0  0  0  # atno 10764 bound_to 10752
  154.8724  135.3927  154.4192 H   0  0  0  0  0  0  0  0  0  0  0  0  # atno 10765 bound_to 10752
  140.0368  134.5932  155.9434 H   0  0  0  0  0  0  0  0  0  0  0  0  # atno 11005 bound_to 11000
  144.7407  139.7457  143.7312 LP  0  0  0  0  0  0  0  0  0  0  0  0  # atno 17320 bound_to 7965
  146.1737  139.4898  142.9911 LP  0  0  0  0  0  0  0  0  0  0  0  0  # atno 17321 bound_to 7965
  140.0385  143.5370  152.2728 LP  0  0  0  0  0  0  0  0  0  0  0  0  # atno 17342 bound_to 10162
  139.6189  144.7625  151.2785 LP  0  0  0  0  0  0  0  0  0  0  0  0  # atno 17343 bound_to 10162
  156.9355  130.9728  151.3525 LP  0  0  0  0  0  0  0  0  0  0  0  0  # atno 17370 bound_to 10713
  157.5875  130.8420  149.8611 LP  0  0  0  0  0  0  0  0  0  0  0  0  # atno 17371 bound_to 10713
  141.1861  133.6556  156.5227 LP  0  0  0  0  0  0  0  0  0  0  0  0  # atno 17394 bound_to 11000
  140.4134  134.7251  157.4849 LP  0  0  0  0  0  0  0  0  0  0  0  0  # atno 17395 bound_to 11000

$$$$
