AV-unprocessed.smi:337|AV-procd|sdf|2373|dock1
  -GOLD-   2262022293D 1   1.00000     0.00000
 Structure written by MMmdl.
 43 44  0  0  0  0  0  0  0  0  1 V2000
  148.0418  135.7122  156.6063 C   0  0  0  0  0  0  0  0  0  0  0  0
  149.1541  135.1009  155.7382 C   0  0  1  0  0  0  0  0  0  0  0  0
  148.6087  134.8448  154.4056 N   0  0  0  0  0  0  0  0  0  0  0  0
  148.2864  133.6337  153.9262 C   0  0  0  0  0  0  0  0  0  0  0  0
  147.8453  133.6858  152.6692 N   0  0  0  0  0  0  0  0  0  0  0  0
  148.3855  132.5840  154.5592 O   0  0  0  0  0  0  0  0  0  0  0  0
  150.3163  136.1017  155.6484 C   0  0  0  0  0  0  0  0  0  0  0  0
  150.9179  136.4547  156.6641 O   0  0  0  0  0  0  0  0  0  0  0  0
  150.6105  136.5600  154.4223 N   0  0  0  0  0  0  0  0  0  0  0  0
  151.6029  137.5906  154.1366 C   0  0  0  0  0  0  0  0  0  0  0  0
  151.6522  138.6970  155.1814 C   0  0  0  0  0  0  0  0  0  0  0  0
  150.6716  139.7096  155.2387 C   0  0  0  0  0  0  0  0  0  0  0  0
  150.7648  140.6961  156.2380 C   0  0  0  0  0  0  0  0  0  0  0  0
  151.8404  140.6496  157.1561 C   0  0  0  0  0  0  0  0  0  0  0  0
  151.9427  141.6218  158.1746 N   0  0  0  0  0  0  0  0  0  0  0  0
  152.1390  141.1583  159.5467 C   0  0  0  0  0  0  0  0  0  0  0  0
  152.5037  142.3385  160.4629 C   0  0  0  0  0  0  0  0  0  0  0  0
  151.5048  143.3483  160.3643 O   0  0  0  0  0  0  0  0  0  0  0  0
  151.4035  143.8641  159.0411 C   0  0  0  0  0  0  0  0  0  0  0  0
  151.0066  142.7385  158.0701 C   0  0  0  0  0  0  0  0  0  0  0  0
  152.7925  139.6862  157.0852 N   0  0  0  0  0  0  0  0  0  0  0  0
  152.6964  138.7407  156.1265 C   0  0  0  0  0  0  0  0  0  0  0  0
  148.3995  135.9246  157.6145 H   0  0  0  0  0  0  0  0  0  0  0  0
  147.2004  135.0249  156.6999 H   0  0  0  0  0  0  0  0  0  0  0  0
  147.6603  136.6438  156.1851 H   0  0  0  0  0  0  0  0  0  0  0  0
  149.4915  134.1637  156.1857 H   0  0  0  0  0  0  0  0  0  0  0  0
  148.4963  135.6444  153.7999 H   0  0  0  0  0  0  0  0  0  0  0  0
  147.5636  132.8413  152.1935 H   0  0  0  0  0  0  0  0  0  0  0  0
  147.7893  134.5774  152.1984 H   0  0  0  0  0  0  0  0  0  0  0  0
  150.0709  136.2134  153.6422 H   0  0  0  0  0  0  0  0  0  0  0  0
  152.5881  137.1331  154.0285 H   0  0  0  0  0  0  0  0  0  0  0  0
  151.3616  138.0395  153.1729 H   0  0  0  0  0  0  0  0  0  0  0  0
  149.8552  139.7358  154.5321 H   0  0  0  0  0  0  0  0  0  0  0  0
  150.0208  141.4773  156.2814 H   0  0  0  0  0  0  0  0  0  0  0  0
  151.2250  140.6799  159.9015 H   0  0  0  0  0  0  0  0  0  0  0  0
  152.9342  140.4126  159.5831 H   0  0  0  0  0  0  0  0  0  0  0  0
  152.5692  142.0033  161.4981 H   0  0  0  0  0  0  0  0  0  0  0  0
  153.4796  142.7497  160.1988 H   0  0  0  0  0  0  0  0  0  0  0  0
  150.6526  144.6542  159.0254 H   0  0  0  0  0  0  0  0  0  0  0  0
  152.3496  144.3190  158.7430 H   0  0  0  0  0  0  0  0  0  0  0  0
  150.9687  143.1408  157.0587 H   0  0  0  0  0  0  0  0  0  0  0  0
  150.0040  142.3787  158.3057 H   0  0  0  0  0  0  0  0  0  0  0  0
  153.4755  137.9924  156.1202 H   0  0  0  0  0  0  0  0  0  0  0  0
  1  2  1  0  0  0  0
  1 23  1  0  0  0  0
  1 24  1  0  0  0  0
  1 25  1  0  0  0  0
  2  3  1  0  0  0  0
  2  7  1  0  0  0  0
  2 26  1  0  0  0  0
  3  4  1  0  0  0  0
  3 27  1  0  0  0  0
  4  5  1  0  0  0  0
  4  6  2  0  0  0  0
  5 28  1  0  0  0  0
  5 29  1  0  0  0  0
  7  8  2  0  0  0  0
  7  9  1  0  0  0  0
  9 10  1  0  0  0  0
  9 30  1  0  0  0  0
 10 11  1  0  0  0  0
 10 31  1  0  0  0  0
 10 32  1  0  0  0  0
 11 22  1  0  0  0  0
 11 12  2  0  0  0  0
 12 13  1  0  0  0  0
 12 33  1  0  0  0  0
 13 14  2  0  0  0  0
 13 34  1  0  0  0  0
 14 15  1  0  0  0  0
 14 21  1  0  0  0  0
 15 20  1  0  0  0  0
 15 16  1  0  0  0  0
 16 17  1  0  0  0  0
 16 35  1  0  0  0  0
 16 36  1  0  0  0  0
 17 18  1  0  0  0  0
 17 37  1  0  0  0  0
 17 38  1  0  0  0  0
 18 19  1  0  0  0  0
 19 20  1  0  0  0  0
 19 39  1  0  0  0  0
 19 40  1  0  0  0  0
 20 41  1  0  0  0  0
 20 42  1  0  0  0  0
 21 22  2  0  0  0  0
 22 43  1  0  0  0  0
M  END
> <s_m_source_file>
AV-unprocessed.smi

> <i_m_source_file_index>
337

> <i_lp_mmshare_version>
43012

> <i_f3d_flags>
0

> <s_epik_input>
W05IMl1DKD1PKVtOSF1bQ0BASF0oW0NIM10pQyg9TylbTkhdW0NIMl1jMVtjSF1bY0hdYyhuW2NIXTEpTjJbQ0gyXVtDSDJdT1tDSDJdW0NIMl0y

> <s_epik_cmdline>
J2VwaWtfcHl0aG9uJywgJy1waCcsICc3LjAnLCAnLXRuJywgJzgnLCAnLW1hJywgJzIwMCcsICctbWV0YWxfYmluZGluZycsICctaW1hZScsICc8aW5maWxlLm1hZT4nLCAnLW9tYWUnLCAnPG91dGZpbGUubWFlPic=

> <r_lp_tautomer_probability>
1

> <r_epik_Ionization_Penalty>
0.0048357

> <r_epik_Ionization_Penalty_Charging>
0

> <r_epik_Ionization_Penalty_Neutral>
0.0048357

> <r_epik_State_Penalty>
0.0034696

> <r_epik_Charging_Adjusted_Penalty>
0.0034696

> <i_epik_Tot_Q>
0

> <i_epik_Tot_abs_Q>
0

> <r_epik_Metal_State_Penalty>
-0

> <b_epik_Metal_Only>
0

> <s_lp_Force_Field>
OPLS_2005

> <r_lp_Energy>
9.87941

> <b_lp_Chiralities_Consistent>
1

> <s_lp_Variant>
AV-unprocessed.smi:337-2

> <Gold.Version>
5.8.1

> <Gold.Id.Protein>
6NUR|6NUR_protein|mol2

> <Gold.PLP.Fitness>
44.3933

> <Gold.PLP.PLP>
-36.2455

> <Gold.PLP.part.hbond>
-5.3504

> <Gold.PLP.part.metal>
0.0000

> <Gold.PLP.part.buried>
-2.3625

> <Gold.PLP.part.nonpolar>
-28.6248

> <Gold.PLP.part.repulsive>
0.2029

> <Gold.PLP.ligand.clash>
0.0000

> <Gold.PLP.ligand.torsion>
0.7267

> <Gold.PLP.Chemscore.Hbond>
3.0460

> <Gold.PLP.Chemscore.CHOScore>
0.0000

> <Gold.PLP.Chemscore.Metal>
0.0000

> <Gold.Chemscore.Hbonds>
donor molecule, donor type, donor heavy atom, donor atom, acceptor molecule, acceptor atom, score
      L1  H     3    27       P1  7948  0.71
      L1  H     5    29       P1  7948  0.78
      L1  H     9    30       P1  7948  0.61
      P1  H  7997  8009       L1    21  0.90

> <Gold.PLP.Chemscore.Internal.Correction>
0.4631

> <Gold.Rescore>
     Score         DG    S(hbond)    S(metal)    S(lipo)     H(rot)  DE(clash)    DE(int)     intcor
     13.25     -15.29       2.24        0.00      78.03       2.66       0.04       2.00       ----

> <Gold.Chemscore.Fitness>
13.2507

> <Gold.Chemscore.DG>
-15.2930

> <Gold.Chemscore.ZeroCoef>
-5.4800

> <Gold.Chemscore.Hbond>
2.2415

> <Gold.Chemscore.Metal>
0.0000

> <Gold.Chemscore.Lipo>
78.0261

> <Gold.Chemscore.Internal_Hbond>
0.0000

> <Gold.Chemscore.DEClash>
0.0440

> <Gold.Chemscore.DEInternal>
1.9983

> <Gold.Chemscore.Rot>
2.6573

> <Gold.Chemscore.Internal.Correction>
   9.000000E+99

> <Gold.Chemscore.Hbonds>
donor molecule, donor type, donor heavy atom, donor atom, acceptor molecule, acceptor atom, score
      L1  H     3    27       P1  7948  0.67
      L1  H     5    29       P1  7948  0.37
      L1  H     9    30       P1  7948  0.05
      P1  H  7997  8009       L1    21  0.17

> <Gold.Chemscore.Hbond.Weighted>
-7.4867

> <Gold.Chemscore.Metal.Weighted>
-0.0000

> <Gold.Chemscore.Lipo.Weighted>
-9.1291

> <Gold.Chemscore.Internal_Hbond.Weighted>
0.0000

> <Gold.Chemscore.DEClash.Weighted>
0.0440

> <Gold.Chemscore.DEInternal.Weighted>
1.9983

> <Gold.Chemscore.Rot.Weighted>
6.8027

> <Gold.Chemscore.Internal.Correction.Weighted>
   9.000000E+99

> <Gold.Protein.RotatedTorsions>
[ 6907 6896 6895 6894 ] final -166.73 input  -60.11 | X-H torsion
[ 7974 7965 7964 7962 ] final  160.24 input  175.53 | X-H torsion
[ 8008 7997 7996 7995 ] final  163.65 input   59.86 | X-H torsion
[ 10167 10162 10161 10158 ] final -146.88 input  -65.29 | X-H torsion
[ 10718 10713 10712 10709 ] final  122.37 input   66.30 | X-H torsion
[ 10763 10752 10751 10750 ] final  -22.62 input  -60.55 | X-H torsion
[ 11005 11000 10999 10996 ] final  119.41 input  -57.11 | X-H torsion

> <Gold.Protein.ActiveResidues>
 VAL166  LYS551  ARG553  GLY616  TRP617  ASP618  TYR619  PRO620  LYS621  CYS622 
 ASP623  PHE694  ASN695  SER759  ASP760  ASP761  ALA762  ILE779  LEU786  VAL792 
 PHE793  MET794  SER795  GLU796  ALA797  LYS798  CYS799  TRP800  GLU811  SER814 

> <Gold.Protein.RotatedAtoms>
  151.4482  133.3624  159.2791 H   0  0  0  0  0  0  0  0  0  0  0  0  # atno 6907 bound_to 6896
  150.9109  134.8528  159.7435 H   0  0  0  0  0  0  0  0  0  0  0  0  # atno 6908 bound_to 6896
  152.4932  134.4412  159.9596 H   0  0  0  0  0  0  0  0  0  0  0  0  # atno 6909 bound_to 6896
  144.7747  139.7730  143.6283 H   0  0  0  0  0  0  0  0  0  0  0  0  # atno 7974 bound_to 7965
  156.1941  140.1718  156.8034 H   0  0  0  0  0  0  0  0  0  0  0  0  # atno 8008 bound_to 7997
  154.5507  140.0718  156.8695 H   0  0  0  0  0  0  0  0  0  0  0  0  # atno 8009 bound_to 7997
  155.3034  140.3363  155.4249 H   0  0  0  0  0  0  0  0  0  0  0  0  # atno 8010 bound_to 7997
  139.7672  143.8290  152.2618 H   0  0  0  0  0  0  0  0  0  0  0  0  # atno 10167 bound_to 10162
  157.5747  131.1080  150.8301 H   0  0  0  0  0  0  0  0  0  0  0  0  # atno 10718 bound_to 10713
  153.6549  135.6979  153.5196 H   0  0  0  0  0  0  0  0  0  0  0  0  # atno 10763 bound_to 10752
  153.2677  135.4224  155.0957 H   0  0  0  0  0  0  0  0  0  0  0  0  # atno 10764 bound_to 10752
  154.8467  135.3571  154.6093 H   0  0  0  0  0  0  0  0  0  0  0  0  # atno 10765 bound_to 10752
  139.9145  134.9628  156.7651 H   0  0  0  0  0  0  0  0  0  0  0  0  # atno 11005 bound_to 11000
  146.1919  139.5163  142.9800 LP  0  0  0  0  0  0  0  0  0  0  0  0  # atno 17320 bound_to 7965
  145.6220  141.0320  143.1909 LP  0  0  0  0  0  0  0  0  0  0  0  0  # atno 17321 bound_to 7965
  139.8314  144.7252  150.9446 LP  0  0  0  0  0  0  0  0  0  0  0  0  # atno 17342 bound_to 10162
  140.7811  143.4067  151.1060 LP  0  0  0  0  0  0  0  0  0  0  0  0  # atno 17343 bound_to 10162
  156.8763  130.5163  149.5293 LP  0  0  0  0  0  0  0  0  0  0  0  0  # atno 17370 bound_to 10713
  156.0792  130.5807  150.9531 LP  0  0  0  0  0  0  0  0  0  0  0  0  # atno 17371 bound_to 10713
  140.6666  133.9597  155.7834 LP  0  0  0  0  0  0  0  0  0  0  0  0  # atno 17394 bound_to 11000
  141.0606  134.0351  157.3663 LP  0  0  0  0  0  0  0  0  0  0  0  0  # atno 17395 bound_to 11000

$$$$
