AV-unprocessed.smi:2243|AV-procd|sdf|9071|dock9
  -GOLD-   2272012273D 1   1.00000     0.00000
 Structure written by MMmdl.
 33 34  0  0  0  0  0  0  0  0  2 V2000
  151.2752  140.4760  157.6170 C   0  0  0  0  0  0  0  0  0  0  0  0
  151.2675  141.9571  157.2008 C   0  0  1  0  0  0  0  0  0  0  0  0
  150.1793  142.1446  156.2386 N   0  0  0  0  0  0  0  0  0  0  0  0
  149.8752  141.3523  155.1986 C   0  0  0  0  0  0  0  0  0  0  0  0
  150.5563  140.3521  154.9613 O   0  0  0  0  0  0  0  0  0  0  0  0
  148.8025  141.7744  154.4920 N   0  5  0  0  0  0  0  0  0  0  0  0
  148.0360  140.8824  153.8441 C   0  0  0  0  0  0  0  0  0  0  0  0
  146.9317  141.1482  153.1441 N   0  0  0  0  0  0  0  0  0  0  0  0
  146.4880  139.9280  152.6583 C   0  0  0  0  0  0  0  0  0  0  0  0
  147.3604  138.9641  153.0844 C   0  0  0  0  0  0  0  0  0  0  0  0
  148.3435  139.5543  153.8295 O   0  0  0  0  0  0  0  0  0  0  0  0
  151.1148  142.9299  158.4018 C   0  0  0  0  0  0  0  0  0  0  0  0
  151.3198  144.4076  158.0049 C   0  0  0  0  0  0  0  0  0  0  0  0
  151.2307  145.3335  159.2282 C   0  0  0  0  0  0  0  0  0  0  0  0
  152.1878  144.9439  160.2054 O   0  0  0  0  0  0  0  0  0  0  0  0
  151.9626  143.6286  160.6964 C   0  0  0  0  0  0  0  0  0  0  0  0
  152.0888  142.6076  159.5537 C   0  0  0  0  0  0  0  0  0  0  0  0
  152.1460  140.2295  158.2233 H   0  0  0  0  0  0  0  0  0  0  0  0
  151.3065  139.8262  156.7416 H   0  0  0  0  0  0  0  0  0  0  0  0
  150.3826  140.2190  158.1882 H   0  0  0  0  0  0  0  0  0  0  0  0
  152.2255  142.1592  156.7189 H   0  0  0  0  0  0  0  0  0  0  0  0
  149.5892  142.9509  156.3819 H   0  0  0  0  0  0  0  0  0  0  0  0
  145.5973  139.8431  152.0538 H   0  0  0  0  0  0  0  0  0  0  0  0
  147.4227  137.8942  152.9555 H   0  0  0  0  0  0  0  0  0  0  0  0
  150.0987  142.8299  158.7870 H   0  0  0  0  0  0  0  0  0  0  0  0
  152.2932  144.5300  157.5280 H   0  0  0  0  0  0  0  0  0  0  0  0
  150.5743  144.7205  157.2739 H   0  0  0  0  0  0  0  0  0  0  0  0
  151.4301  146.3637  158.9325 H   0  0  0  0  0  0  0  0  0  0  0  0
  150.2275  145.3153  159.6570 H   0  0  0  0  0  0  0  0  0  0  0  0
  152.6978  143.4138  161.4720 H   0  0  0  0  0  0  0  0  0  0  0  0
  150.9795  143.5668  161.1658 H   0  0  0  0  0  0  0  0  0  0  0  0
  151.8993  141.6122  159.9540 H   0  0  0  0  0  0  0  0  0  0  0  0
  153.1142  142.6059  159.1815 H   0  0  0  0  0  0  0  0  0  0  0  0
  1  2  1  0  0  0  0
  1 18  1  0  0  0  0
  1 19  1  0  0  0  0
  1 20  1  0  0  0  0
  2  3  1  0  0  0  0
  2 12  1  0  0  0  0
  2 21  1  0  0  0  0
  3 22  1  0  0  0  0
  3  4  1  0  0  0  0
  4  6  1  0  0  0  0
  4  5  2  0  0  0  0
  6  7  1  0  0  0  0
  7 11  1  0  0  0  0
  7  8  2  0  0  0  0
  8  9  1  0  0  0  0
  9 23  1  0  0  0  0
  9 10  2  0  0  0  0
 10 24  1  0  0  0  0
 10 11  1  0  0  0  0
 12 17  1  0  0  0  0
 12 13  1  0  0  0  0
 12 25  1  0  0  0  0
 13 14  1  0  0  0  0
 13 26  1  0  0  0  0
 13 27  1  0  0  0  0
 14 15  1  0  0  0  0
 14 28  1  0  0  0  0
 14 29  1  0  0  0  0
 15 16  1  0  0  0  0
 16 17  1  0  0  0  0
 16 30  1  0  0  0  0
 16 31  1  0  0  0  0
 17 32  1  0  0  0  0
 17 33  1  0  0  0  0
M  CHG  1   6  -1
M  END
> <s_m_source_file>
AV-unprocessed.smi

> <i_m_source_file_index>
2243

> <i_lp_mmshare_version>
43012

> <i_f3d_flags>
0

> <s_epik_input>
W0NIMl0xW0NIMl1PW0NIMl1bQ0gyXVtDSF0xW0NASF0oW0NIM10pW05IXUMoPU8pW05IXWMybltjSF1bY0hdbzI=

> <s_epik_cmdline>
J2VwaWtfcHl0aG9uJywgJy1waCcsICc3LjAnLCAnLXRuJywgJzgnLCAnLW1hJywgJzIwMCcsICctbWV0YWxfYmluZGluZycsICctaW1hZScsICc8aW5maWxlLm1hZT4nLCAnLW9tYWUnLCAnPG91dGZpbGUubWFlPic=

> <r_lp_tautomer_probability>
0.107061

> <r_epik_Ionization_Penalty>
11.1403

> <r_epik_Ionization_Penalty_Charging>
7.81312

> <r_epik_Ionization_Penalty_Neutral>
3.32719

> <r_epik_State_Penalty>
5.94317

> <r_epik_Charging_Adjusted_Penalty>
13.7563

> <i_epik_Tot_Q>
-1

> <i_epik_Tot_abs_Q>
1

> <r_epik_Metal_State_Penalty>
1.86619

> <b_epik_Metal_Only>
1

> <s_lp_Force_Field>
OPLS_2005

> <r_lp_Energy>
6.4903

> <b_lp_Chiralities_Consistent>
1

> <s_lp_Variant>
AV-unprocessed.smi:2243-10

> <Gold.Version>
5.8.1

> <Gold.Id.Protein>
6NUR|6NUR_protein|mol2

> <Gold.PLP.Fitness>
42.1328

> <Gold.PLP.PLP>
-31.1111

> <Gold.PLP.part.hbond>
-2.7003

> <Gold.PLP.part.metal>
0.0000

> <Gold.PLP.part.buried>
-0.2539

> <Gold.PLP.part.nonpolar>
-28.8969

> <Gold.PLP.part.repulsive>
1.6782

> <Gold.PLP.ligand.clash>
0.0000

> <Gold.PLP.ligand.torsion>
0.4208

> <Gold.PLP.Chemscore.Hbond>
1.9516

> <Gold.PLP.Chemscore.CHOScore>
1.9971

> <Gold.PLP.Chemscore.Metal>
0.0000

> <Gold.Chemscore.Hbonds>
donor molecule, donor type, donor heavy atom, donor atom, acceptor molecule, acceptor atom, score
      L1  H     3    22       P1  8028  0.95
      P1  H  7989  7998       L1     5  1.00
      L1  C     9    23       P1 10175  1.00
      L1  C    10    24       P1  7948  1.00

> <Gold.PLP.Chemscore.Internal.Correction>
0.0171

> <Gold.Rescore>
     Score         DG    S(hbond)    S(metal)    S(lipo)     H(rot)  DE(clash)    DE(int)     intcor
     12.54     -16.80       1.55        0.00      81.14       1.31       0.82       3.44       ----

> <Gold.Chemscore.Fitness>
12.5433

> <Gold.Chemscore.DG>
-16.8039

> <Gold.Chemscore.ZeroCoef>
-5.4800

> <Gold.Chemscore.Hbond>
1.5493

> <Gold.Chemscore.Metal>
0.0000

> <Gold.Chemscore.Lipo>
81.1400

> <Gold.Chemscore.Internal_Hbond>
0.0000

> <Gold.Chemscore.DEClash>
0.8196

> <Gold.Chemscore.DEInternal>
3.4410

> <Gold.Chemscore.Rot>
1.3063

> <Gold.Chemscore.Internal.Correction>
   9.000000E+99

> <Gold.Chemscore.Hbonds>
donor molecule, donor type, donor heavy atom, donor atom, acceptor molecule, acceptor atom, score
      L1  H     3    22       P1  8028  0.85
      P1  H  7989  7998       L1     5  0.39

> <Gold.Chemscore.Hbond.Weighted>
-5.1748

> <Gold.Chemscore.Metal.Weighted>
-0.0000

> <Gold.Chemscore.Lipo.Weighted>
-9.4934

> <Gold.Chemscore.Internal_Hbond.Weighted>
0.0000

> <Gold.Chemscore.DEClash.Weighted>
0.8196

> <Gold.Chemscore.DEInternal.Weighted>
3.4410

> <Gold.Chemscore.Rot.Weighted>
3.3443

> <Gold.Chemscore.Internal.Correction.Weighted>
   9.000000E+99

> <Gold.Protein.RotatedTorsions>
[ 6907 6896 6895 6894 ] final   15.91 input  -60.11 | X-H torsion
[ 7974 7965 7964 7962 ] final -170.92 input  175.53 | X-H torsion
[ 8008 7997 7996 7995 ] final  -29.28 input   59.86 | X-H torsion
[ 10167 10162 10161 10158 ] final -171.15 input  -65.29 | X-H torsion
[ 10718 10713 10712 10709 ] final   91.38 input   66.30 | X-H torsion
[ 10763 10752 10751 10750 ] final  163.63 input  -60.55 | X-H torsion
[ 11005 11000 10999 10996 ] final  107.70 input  -57.11 | X-H torsion

> <Gold.Protein.ActiveResidues>
 VAL166  LYS551  ARG553  GLY616  TRP617  ASP618  TYR619  PRO620  LYS621  CYS622 
 ASP623  PHE694  ASN695  SER759  ASP760  ASP761  ALA762  ILE779  LEU786  VAL792 
 PHE793  MET794  SER795  GLU796  ALA797  LYS798  CYS799  TRP800  GLU811  SER814 

> <Gold.Protein.RotatedAtoms>
  151.8255  135.0638  160.0430 H   0  0  0  0  0  0  0  0  0  0  0  0  # atno 6907 bound_to 6896
  152.2919  133.5565  159.5571 H   0  0  0  0  0  0  0  0  0  0  0  0  # atno 6908 bound_to 6896
  150.7234  134.0332  159.3782 H   0  0  0  0  0  0  0  0  0  0  0  0  # atno 6909 bound_to 6896
  144.7163  140.2000  143.6339 H   0  0  0  0  0  0  0  0  0  0  0  0  # atno 7974 bound_to 7965
  154.4296  140.1822  156.1223 H   0  0  0  0  0  0  0  0  0  0  0  0  # atno 8008 bound_to 7997
  156.0133  140.3348  155.6938 H   0  0  0  0  0  0  0  0  0  0  0  0  # atno 8009 bound_to 7997
  155.6080  140.0647  157.2705 H   0  0  0  0  0  0  0  0  0  0  0  0  # atno 8010 bound_to 7997
  139.5819  144.1404  152.1526 H   0  0  0  0  0  0  0  0  0  0  0  0  # atno 10167 bound_to 10162
  157.6960  131.0405  150.3721 H   0  0  0  0  0  0  0  0  0  0  0  0  # atno 10718 bound_to 10713
  154.2967  135.2760  155.2630 H   0  0  0  0  0  0  0  0  0  0  0  0  # atno 10763 bound_to 10752
  154.5085  135.5789  153.6590 H   0  0  0  0  0  0  0  0  0  0  0  0  # atno 10764 bound_to 10752
  152.9906  135.6175  154.3135 H   0  0  0  0  0  0  0  0  0  0  0  0  # atno 10765 bound_to 10752
  139.8832  134.9408  156.5859 H   0  0  0  0  0  0  0  0  0  0  0  0  # atno 11005 bound_to 11000
  145.8689  139.2261  143.1673 LP  0  0  0  0  0  0  0  0  0  0  0  0  # atno 17320 bound_to 7965
  146.0103  140.8441  142.9974 LP  0  0  0  0  0  0  0  0  0  0  0  0  # atno 17321 bound_to 7965
  140.0959  144.5581  150.7022 LP  0  0  0  0  0  0  0  0  0  0  0  0  # atno 17342 bound_to 10162
  140.7096  143.2494  151.4621 LP  0  0  0  0  0  0  0  0  0  0  0  0  # atno 17343 bound_to 10162
  156.4144  130.3940  149.6868 LP  0  0  0  0  0  0  0  0  0  0  0  0  # atno 17370 bound_to 10713
  156.4141  130.7736  151.2751 LP  0  0  0  0  0  0  0  0  0  0  0  0  # atno 17371 bound_to 10713
  140.7992  133.8519  155.8712 LP  0  0  0  0  0  0  0  0  0  0  0  0  # atno 17394 bound_to 11000
  140.9608  134.1658  157.4655 LP  0  0  0  0  0  0  0  0  0  0  0  0  # atno 17395 bound_to 11000

$$$$
