AV-unprocessed.smi:1809|AV-procd|sdf|7315|dock3
  -GOLD-   22720 8573D 1   1.00000     0.00000
 Structure written by MMmdl.
 40 42  0  0  0  0  0  0  0  0  2 V2000
  150.8803  142.1916  156.7777 C   0  0  0  0  0  0  0  0  0  0  0  0
  150.4689  141.0251  155.9460 C   0  0  0  0  0  0  0  0  0  0  0  0
  151.1458  139.8702  155.9326 N   0  0  0  0  0  0  0  0  0  0  0  0
  150.5737  138.9349  155.0816 N   0  0  0  0  0  0  0  0  0  0  0  0
  149.4772  139.4133  154.4775 C   0  0  0  0  0  0  0  0  0  0  0  0
  148.6975  138.6682  153.5536 N   0  0  0  0  0  0  0  0  0  0  0  0
  147.3929  138.8108  153.2614 C   0  0  0  0  0  0  0  0  0  0  0  0
  146.6370  139.6443  153.7612 O   0  0  0  0  0  0  0  0  0  0  0  0
  146.9974  137.9177  152.3428 N   0  0  0  0  0  0  0  0  0  0  0  0
  145.6369  137.8014  151.8285 C   0  0  0  0  0  0  0  0  0  0  0  0
  144.8757  136.6159  152.4645 C   0  0  2  0  0  0  0  0  0  0  0  0
  145.6507  135.9611  153.6339 C   0  0  0  0  0  0  0  0  0  0  0  0
  146.7500  135.1444  153.0873 N   0  3  1  0  0  0  0  0  0  0  0  0
  147.6236  134.4322  154.0355 C   0  0  0  0  0  0  0  0  0  0  0  0
  148.2187  133.2645  153.2239 C   0  0  0  0  0  0  0  0  0  0  0  0
  147.4809  133.2755  151.8728 C   0  0  0  0  0  0  0  0  0  0  0  0
  146.2504  134.1326  152.1543 C   0  0  2  0  0  0  0  0  0  0  0  0
  145.5753  134.8335  150.9700 C   0  0  0  0  0  0  0  0  0  0  0  0
  144.5066  135.6354  151.4813 O   0  0  0  0  0  0  0  0  0  0  0  0
  149.0480  141.0600  154.9088 S   0  0  0  0  0  0  0  0  0  0  0  0
  151.9285  142.1061  157.0670 H   0  0  0  0  0  0  0  0  0  0  0  0
  150.2706  142.2383  157.6800 H   0  0  0  0  0  0  0  0  0  0  0  0
  150.7493  143.1170  156.2167 H   0  0  0  0  0  0  0  0  0  0  0  0
  149.1892  137.9324  153.0684 H   0  0  0  0  0  0  0  0  0  0  0  0
  147.6810  137.2682  151.9818 H   0  0  0  0  0  0  0  0  0  0  0  0
  145.1205  138.7436  152.0091 H   0  0  0  0  0  0  0  0  0  0  0  0
  145.6705  137.6844  150.7440 H   0  0  0  0  0  0  0  0  0  0  0  0
  143.9438  137.0045  152.8762 H   0  0  0  0  0  0  0  0  0  0  0  0
  146.0452  136.7178  154.3127 H   0  0  0  0  0  0  0  0  0  0  0  0
  144.9817  135.3260  154.2165 H   0  0  0  0  0  0  0  0  0  0  0  0
  148.3882  135.0964  154.4392 H   0  0  0  0  0  0  0  0  0  0  0  0
  147.0328  134.0464  154.8683 H   0  0  0  0  0  0  0  0  0  0  0  0
  149.2935  133.3812  153.0797 H   0  0  0  0  0  0  0  0  0  0  0  0
  148.0585  132.3217  153.7479 H   0  0  0  0  0  0  0  0  0  0  0  0
  148.1055  133.7495  151.1140 H   0  0  0  0  0  0  0  0  0  0  0  0
  147.2255  132.2751  151.5217 H   0  0  0  0  0  0  0  0  0  0  0  0
  145.5124  133.5150  152.6711 H   0  0  0  0  0  0  0  0  0  0  0  0
  146.2843  135.4410  150.4071 H   0  0  0  0  0  0  0  0  0  0  0  0
  145.1657  134.0985  150.2771 H   0  0  0  0  0  0  0  0  0  0  0  0
  147.3475  135.7584  152.5525 H   0  0  0  0  0  0  0  0  0  0  0  0
  1  2  1  0  0  0  0
  1 21  1  0  0  0  0
  1 22  1  0  0  0  0
  1 23  1  0  0  0  0
  2 20  1  0  0  0  0
  2  3  2  0  0  0  0
  3  4  1  0  0  0  0
  4  5  2  0  0  0  0
  5  6  1  0  0  0  0
  5 20  1  0  0  0  0
  6  7  1  0  0  0  0
  6 24  1  0  0  0  0
  7  8  2  0  0  0  0
  7  9  1  0  0  0  0
  9 10  1  0  0  0  0
  9 25  1  0  0  0  0
 10 11  1  0  0  0  0
 10 26  1  0  0  0  0
 10 27  1  0  0  0  0
 11 19  1  0  0  0  0
 11 12  1  0  0  0  0
 11 28  1  0  0  0  0
 12 13  1  0  0  0  0
 12 29  1  0  0  0  0
 12 30  1  0  0  0  0
 13 17  1  0  0  0  0
 13 14  1  0  0  0  0
 13 40  1  0  0  0  0
 14 15  1  0  0  0  0
 14 31  1  0  0  0  0
 14 32  1  0  0  0  0
 15 16  1  0  0  0  0
 15 33  1  0  0  0  0
 15 34  1  0  0  0  0
 16 17  1  0  0  0  0
 16 35  1  0  0  0  0
 16 36  1  0  0  0  0
 17 18  1  0  0  0  0
 17 37  1  0  0  0  0
 18 19  1  0  0  0  0
 18 38  1  0  0  0  0
 18 39  1  0  0  0  0
M  CHG  1  13   1
M  END
> <s_m_source_file>
AV-unprocessed.smi

> <i_m_source_file_index>
1809

> <i_lp_mmshare_version>
43012

> <i_f3d_flags>
0

> <s_epik_input>
W0NIM11jMW5uYyhzMSlbTkhdQyg9TylbTkhdW0NIMl1bQ0BIXShbQ0gyXTIpT1tDSDJdW0NAQEhdKE4yMylbQ0gyXVtDSDJdW0NIMl0z

> <s_epik_cmdline>
J2VwaWtfcHl0aG9uJywgJy1waCcsICc3LjAnLCAnLXRuJywgJzgnLCAnLW1hJywgJzIwMCcsICctbWV0YWxfYmluZGluZycsICctaW1hZScsICc8aW5maWxlLm1hZT4nLCAnLW9tYWUnLCAnPG91dGZpbGUubWFlPic=

> <r_lp_tautomer_probability>
1

> <r_epik_Ionization_Penalty>
0.112474

> <r_epik_Ionization_Penalty_Charging>
0.108916

> <r_epik_Ionization_Penalty_Neutral>
0.00355844

> <r_epik_State_Penalty>
0.0565397

> <r_epik_Charging_Adjusted_Penalty>
0.165456

> <i_epik_Tot_Q>
1

> <i_epik_Tot_abs_Q>
1

> <r_epik_Metal_State_Penalty>
0.422831

> <b_epik_Metal_Only>
0

> <s_lp_Force_Field>
OPLS_2005

> <r_lp_Energy>
36.9848

> <b_lp_Chiralities_Consistent>
1

> <s_lp_Variant>
AV-unprocessed.smi:1809-7

> <Gold.Version>
5.8.1

> <Gold.Id.Protein>
6NUR|6NUR_protein|mol2

> <Gold.PLP.Fitness>
39.1355

> <Gold.PLP.PLP>
-31.0641

> <Gold.PLP.part.hbond>
-4.0000

> <Gold.PLP.part.metal>
0.0000

> <Gold.PLP.part.buried>
-0.7564

> <Gold.PLP.part.nonpolar>
-26.4074

> <Gold.PLP.part.repulsive>
0.5949

> <Gold.PLP.ligand.clash>
1.6785

> <Gold.PLP.ligand.torsion>
0.9982

> <Gold.PLP.Chemscore.Hbond>
3.9120

> <Gold.PLP.Chemscore.CHOScore>
0.0000

> <Gold.PLP.Chemscore.Metal>
0.0000

> <Gold.Chemscore.Hbonds>
donor molecule, donor type, donor heavy atom, donor atom, acceptor molecule, acceptor atom, score
      L1  H     6    24       P1  7948  0.83
      L1  H     9    25       P1  7948  1.00
      L1  H    13    40       P1  7948  2.00

> <Gold.PLP.Chemscore.Internal.Correction>
0.0103

> <Gold.Rescore>
     Score         DG    S(hbond)    S(metal)    S(lipo)     H(rot)  DE(clash)    DE(int)     intcor
     15.22     -18.51       2.88        0.00      58.40       1.34       0.02       3.26       ----

> <Gold.Chemscore.Fitness>
15.2211

> <Gold.Chemscore.DG>
-18.5062

> <Gold.Chemscore.ZeroCoef>
-5.4800

> <Gold.Chemscore.Hbond>
2.8805

> <Gold.Chemscore.Metal>
0.0000

> <Gold.Chemscore.Lipo>
58.4048

> <Gold.Chemscore.Internal_Hbond>
0.0000

> <Gold.Chemscore.DEClash>
0.0240

> <Gold.Chemscore.DEInternal>
3.2611

> <Gold.Chemscore.Rot>
1.3391

> <Gold.Chemscore.Internal.Correction>
   9.000000E+99

> <Gold.Chemscore.Hbonds>
donor molecule, donor type, donor heavy atom, donor atom, acceptor molecule, acceptor atom, score
      L1  H     6    24       P1  7948  0.77
      L1  H     9    25       P1  7948  0.99
      L1  H    13    40       P1  7948  0.96

> <Gold.Chemscore.Hbond.Weighted>
-9.6209

> <Gold.Chemscore.Metal.Weighted>
-0.0000

> <Gold.Chemscore.Lipo.Weighted>
-6.8334

> <Gold.Chemscore.Internal_Hbond.Weighted>
0.0000

> <Gold.Chemscore.DEClash.Weighted>
0.0240

> <Gold.Chemscore.DEInternal.Weighted>
3.2611

> <Gold.Chemscore.Rot.Weighted>
3.4281

> <Gold.Chemscore.Internal.Correction.Weighted>
   9.000000E+99

> <Gold.Protein.RotatedTorsions>
[ 6907 6896 6895 6894 ] final   90.68 input  -60.11 | X-H torsion
[ 7974 7965 7964 7962 ] final   47.89 input  175.53 | X-H torsion
[ 8008 7997 7996 7995 ] final  120.16 input   59.86 | X-H torsion
[ 10167 10162 10161 10158 ] final -110.93 input  -65.29 | X-H torsion
[ 10718 10713 10712 10709 ] final   48.66 input   66.30 | X-H torsion
[ 10763 10752 10751 10750 ] final  -47.19 input  -60.55 | X-H torsion
[ 11005 11000 10999 10996 ] final  -45.41 input  -57.11 | X-H torsion

> <Gold.Protein.ActiveResidues>
 VAL166  LYS551  ARG553  GLY616  TRP617  ASP618  TYR619  PRO620  LYS621  CYS622 
 ASP623  PHE694  ASN695  SER759  ASP760  ASP761  ALA762  ILE779  LEU786  VAL792 
 PHE793  MET794  SER795  GLU796  ALA797  LYS798  CYS799  TRP800  GLU811  SER814 

> <Gold.Protein.RotatedAtoms>
  152.5446  134.1773  159.8621 H   0  0  0  0  0  0  0  0  0  0  0  0  # atno 6907 bound_to 6896
  151.1779  133.4736  159.2601 H   0  0  0  0  0  0  0  0  0  0  0  0  # atno 6908 bound_to 6896
  151.1208  135.0090  159.8593 H   0  0  0  0  0  0  0  0  0  0  0  0  # atno 6909 bound_to 6896
  146.0256  139.4702  142.9870 H   0  0  0  0  0  0  0  0  0  0  0  0  # atno 7974 bound_to 7965
  156.2630  140.2837  156.1105 H   0  0  0  0  0  0  0  0  0  0  0  0  # atno 8008 bound_to 7997
  155.1262  140.0393  157.2780 H   0  0  0  0  0  0  0  0  0  0  0  0  # atno 8009 bound_to 7997
  154.6633  140.2571  155.7091 H   0  0  0  0  0  0  0  0  0  0  0  0  # atno 8010 bound_to 7997
  140.1391  143.4294  152.1574 H   0  0  0  0  0  0  0  0  0  0  0  0  # atno 10167 bound_to 10162
  157.4709  130.8254  149.7986 H   0  0  0  0  0  0  0  0  0  0  0  0  # atno 10718 bound_to 10713
  154.0573  135.6623  153.4807 H   0  0  0  0  0  0  0  0  0  0  0  0  # atno 10763 bound_to 10752
  153.0440  135.5126  154.7693 H   0  0  0  0  0  0  0  0  0  0  0  0  # atno 10764 bound_to 10752
  154.6718  135.3031  154.9698 H   0  0  0  0  0  0  0  0  0  0  0  0  # atno 10765 bound_to 10752
  141.0513  133.6742  156.3009 H   0  0  0  0  0  0  0  0  0  0  0  0  # atno 11005 bound_to 11000
  145.7124  141.0102  143.1446 LP  0  0  0  0  0  0  0  0  0  0  0  0  # atno 17320 bound_to 7965
  144.7008  139.8773  143.7445 LP  0  0  0  0  0  0  0  0  0  0  0  0  # atno 17321 bound_to 7965
  139.5481  144.7315  151.4521 LP  0  0  0  0  0  0  0  0  0  0  0  0  # atno 17342 bound_to 10162
  140.6771  143.8165  150.7072 LP  0  0  0  0  0  0  0  0  0  0  0  0  # atno 17343 bound_to 10162
  156.0073  130.3850  150.2387 LP  0  0  0  0  0  0  0  0  0  0  0  0  # atno 17370 bound_to 10713
  157.0570  131.0079  151.3235 LP  0  0  0  0  0  0  0  0  0  0  0  0  # atno 17371 bound_to 10713
  140.6049  134.5517  157.5524 LP  0  0  0  0  0  0  0  0  0  0  0  0  # atno 17394 bound_to 11000
  139.9353  134.7887  156.0819 LP  0  0  0  0  0  0  0  0  0  0  0  0  # atno 17395 bound_to 11000

$$$$
