AV-unprocessed.smi:1510|AV-procd|sdf|6094|dock4
  -GOLD-   22720 6223D 1   1.00000     0.00000
 Structure written by MMmdl.
 32 33  0  0  0  0  0  0  0  0  2 V2000
  151.0902  137.1015  159.5994 O   0  0  0  0  0  0  0  0  0  0  0  0
  150.2360  137.8947  159.2008 C   0  0  0  0  0  0  0  0  0  0  0  0
  148.8151  137.4224  158.8544 C   0  0  0  0  0  0  0  0  0  0  0  0
  148.1914  136.5921  159.8954 N   0  0  0  0  0  0  0  0  0  0  0  0
  147.5813  137.3600  160.9774 N   0  5  0  0  0  0  0  0  0  0  0  0
  146.9537  136.6996  161.9863 C   0  0  0  0  0  0  0  0  0  0  0  0
  146.4026  137.2780  162.9201 O   0  0  0  0  0  0  0  0  0  0  0  0
  146.9442  135.2465  161.9515 C   0  0  0  0  0  0  0  0  0  0  0  0
  147.5392  134.5629  160.9541 C   0  0  0  0  0  0  0  0  0  0  0  0
  148.2200  135.2292  159.8506 C   0  0  0  0  0  0  0  0  0  0  0  0
  148.7769  134.6107  158.9432 O   0  0  0  0  0  0  0  0  0  0  0  0
  150.4753  139.2028  159.0212 N   0  0  0  0  0  0  0  0  0  0  0  0
  151.7442  139.8768  159.2765 C   0  0  0  0  0  0  0  0  0  0  0  0
  151.7752  141.2888  158.6671 C   0  0  2  0  0  0  0  0  0  0  0  0
  152.8684  142.2087  159.2136 C   0  0  0  0  0  0  0  0  0  0  0  0
  152.2769  143.5740  158.9498 C   0  0  0  0  0  0  0  0  0  0  0  0
  150.8018  143.3344  159.2564 C   0  0  0  0  0  0  0  0  0  0  0  0
  150.5511  141.9677  158.9378 O   0  0  0  0  0  0  0  0  0  0  0  0
  148.1825  138.2904  158.6599 H   0  0  0  0  0  0  0  0  0  0  0  0
  148.8642  136.8784  157.9095 H   0  0  0  0  0  0  0  0  0  0  0  0
  146.4515  134.7032  162.7444 H   0  0  0  0  0  0  0  0  0  0  0  0
  147.5091  133.4837  160.9696 H   0  0  0  0  0  0  0  0  0  0  0  0
  149.7162  139.7768  158.6845 H   0  0  0  0  0  0  0  0  0  0  0  0
  151.8673  139.9469  160.3573 H   0  0  0  0  0  0  0  0  0  0  0  0
  152.5856  139.2841  158.9136 H   0  0  0  0  0  0  0  0  0  0  0  0
  151.8736  141.2224  157.5822 H   0  0  0  0  0  0  0  0  0  0  0  0
  152.9967  142.0608  160.2869 H   0  0  0  0  0  0  0  0  0  0  0  0
  153.8338  142.0587  158.7296 H   0  0  0  0  0  0  0  0  0  0  0  0
  152.7186  144.3606  159.5620 H   0  0  0  0  0  0  0  0  0  0  0  0
  152.4060  143.8416  157.9002 H   0  0  0  0  0  0  0  0  0  0  0  0
  150.6054  143.4821  160.3190 H   0  0  0  0  0  0  0  0  0  0  0  0
  150.1467  144.0011  158.6952 H   0  0  0  0  0  0  0  0  0  0  0  0
  1  2  2  0  0  0  0
  2  3  1  0  0  0  0
  2 12  1  0  0  0  0
  3 19  1  0  0  0  0
  3 20  1  0  0  0  0
  3  4  1  0  0  0  0
  4  5  1  0  0  0  0
  4 10  1  0  0  0  0
  5  6  1  0  0  0  0
  6  7  2  0  0  0  0
  6  8  1  0  0  0  0
  8 21  1  0  0  0  0
  8  9  2  0  0  0  0
  9 22  1  0  0  0  0
  9 10  1  0  0  0  0
 10 11  2  0  0  0  0
 12 13  1  0  0  0  0
 12 23  1  0  0  0  0
 13 14  1  0  0  0  0
 13 24  1  0  0  0  0
 13 25  1  0  0  0  0
 14 18  1  0  0  0  0
 14 15  1  0  0  0  0
 14 26  1  0  0  0  0
 15 16  1  0  0  0  0
 15 27  1  0  0  0  0
 15 28  1  0  0  0  0
 16 17  1  0  0  0  0
 16 29  1  0  0  0  0
 16 30  1  0  0  0  0
 17 18  1  0  0  0  0
 17 31  1  0  0  0  0
 17 32  1  0  0  0  0
M  CHG  1   5  -1
M  END
> <s_m_source_file>
AV-unprocessed.smi

> <i_m_source_file_index>
1510

> <i_lp_mmshare_version>
43012

> <i_f3d_flags>
0

> <s_epik_input>
TzFbQ0gyXVtDSDJdW0NIMl1bQ0BIXTFbQ0gyXVtOSF1DKD1PKVtDSDJdbjJbbkhdYyg9TylbY0hdW2NIXWMyPU8=

> <s_epik_cmdline>
J2VwaWtfcHl0aG9uJywgJy1waCcsICc3LjAnLCAnLXRuJywgJzgnLCAnLW1hJywgJzIwMCcsICctbWV0YWxfYmluZGluZycsICctaW1hZScsICc8aW5maWxlLm1hZT4nLCAnLW9tYWUnLCAnPG91dGZpbGUubWFlPic=

> <r_lp_tautomer_probability>
1

> <r_epik_Ionization_Penalty>
0.0970799

> <r_epik_Ionization_Penalty_Charging>
0.0970799

> <r_epik_Ionization_Penalty_Neutral>
2.6859e-08

> <r_epik_State_Penalty>
0.0341592

> <r_epik_Charging_Adjusted_Penalty>
0.131239

> <i_epik_Tot_Q>
-1

> <i_epik_Tot_abs_Q>
1

> <r_epik_Metal_State_Penalty>
0.0341592

> <b_epik_Metal_Only>
0

> <s_lp_Force_Field>
OPLS_2005

> <r_lp_Energy>
32.5095

> <b_lp_Chiralities_Consistent>
1

> <s_lp_Variant>
AV-unprocessed.smi:1510-1

> <Gold.Version>
5.8.1

> <Gold.Id.Protein>
6NUR|6NUR_protein|mol2

> <Gold.PLP.Fitness>
44.4604

> <Gold.PLP.PLP>
-29.5647

> <Gold.PLP.part.hbond>
-4.0908

> <Gold.PLP.part.metal>
0.0000

> <Gold.PLP.part.buried>
-4.4521

> <Gold.PLP.part.nonpolar>
-22.2047

> <Gold.PLP.part.repulsive>
0.2264

> <Gold.PLP.ligand.clash>
0.0000

> <Gold.PLP.ligand.torsion>
0.6462

> <Gold.PLP.Chemscore.Hbond>
5.3920

> <Gold.PLP.Chemscore.CHOScore>
0.0000

> <Gold.PLP.Chemscore.Metal>
0.0000

> <Gold.Chemscore.Hbonds>
donor molecule, donor type, donor heavy atom, donor atom, acceptor molecule, acceptor atom, score
      P1  H  6896  6908       L1    11  0.79
      P1  H  6896  6909       L1     1  0.83
      P1  H  6931  6943       L1     5  1.57
      P1  H  6934  6947       L1     5  1.86

> <Gold.PLP.Chemscore.Internal.Correction>
0.0122

> <Gold.Rescore>
     Score         DG    S(hbond)    S(metal)    S(lipo)     H(rot)  DE(clash)    DE(int)     intcor
     15.98     -16.58       2.74        0.00      61.52       2.05       0.04       0.56       ----

> <Gold.Chemscore.Fitness>
15.9770

> <Gold.Chemscore.DG>
-16.5803

> <Gold.Chemscore.ZeroCoef>
-5.4800

> <Gold.Chemscore.Hbond>
2.7369

> <Gold.Chemscore.Metal>
0.0000

> <Gold.Chemscore.Lipo>
61.5199

> <Gold.Chemscore.Internal_Hbond>
0.0000

> <Gold.Chemscore.DEClash>
0.0418

> <Gold.Chemscore.DEInternal>
0.5616

> <Gold.Chemscore.Rot>
2.0463

> <Gold.Chemscore.Internal.Correction>
   9.000000E+99

> <Gold.Chemscore.Hbonds>
donor molecule, donor type, donor heavy atom, donor atom, acceptor molecule, acceptor atom, score
      P1  H  6896  6908       L1    11  0.68
      P1  H  6896  6909       L1     1  0.77
      P1  H  6931  6943       L1     5  0.18
      P1  H  6934  6947       L1     5  0.77

> <Gold.Chemscore.Hbond.Weighted>
-9.1411

> <Gold.Chemscore.Metal.Weighted>
-0.0000

> <Gold.Chemscore.Lipo.Weighted>
-7.1978

> <Gold.Chemscore.Internal_Hbond.Weighted>
0.0000

> <Gold.Chemscore.DEClash.Weighted>
0.0418

> <Gold.Chemscore.DEInternal.Weighted>
0.5616

> <Gold.Chemscore.Rot.Weighted>
5.2386

> <Gold.Chemscore.Internal.Correction.Weighted>
   9.000000E+99

> <Gold.Protein.RotatedTorsions>
[ 6907 6896 6895 6894 ] final  129.64 input  -60.11 | X-H torsion
[ 7974 7965 7964 7962 ] final -164.46 input  175.53 | X-H torsion
[ 8008 7997 7996 7995 ] final  -78.19 input   59.86 | X-H torsion
[ 10167 10162 10161 10158 ] final  152.27 input  -65.29 | X-H torsion
[ 10718 10713 10712 10709 ] final   17.33 input   66.30 | X-H torsion
[ 10763 10752 10751 10750 ] final  -35.01 input  -60.55 | X-H torsion
[ 11005 11000 10999 10996 ] final   27.69 input  -57.11 | X-H torsion

> <Gold.Protein.ActiveResidues>
 VAL166  LYS551  ARG553  GLY616  TRP617  ASP618  TYR619  PRO620  LYS621  CYS622 
 ASP623  PHE694  ASN695  SER759  ASP760  ASP761  ALA762  ILE779  LEU786  VAL792 
 PHE793  MET794  SER795  GLU796  ALA797  LYS798  CYS799  TRP800  GLU811  SER814 

> <Gold.Protein.RotatedAtoms>
  152.3605  133.6290  159.6010 H   0  0  0  0  0  0  0  0  0  0  0  0  # atno 6907 bound_to 6896
  150.7597  133.9432  159.3471 H   0  0  0  0  0  0  0  0  0  0  0  0  # atno 6908 bound_to 6896
  151.7270  135.0883  160.0345 H   0  0  0  0  0  0  0  0  0  0  0  0  # atno 6909 bound_to 6896
  144.7296  140.2958  143.6213 H   0  0  0  0  0  0  0  0  0  0  0  0  # atno 7974 bound_to 7965
  154.5666  140.0698  156.8901 H   0  0  0  0  0  0  0  0  0  0  0  0  # atno 8008 bound_to 7997
  155.2712  140.3365  155.4247 H   0  0  0  0  0  0  0  0  0  0  0  0  # atno 8009 bound_to 7997
  156.2085  140.1750  156.7732 H   0  0  0  0  0  0  0  0  0  0  0  0  # atno 8010 bound_to 7997
  139.4834  144.5371  151.7626 H   0  0  0  0  0  0  0  0  0  0  0  0  # atno 10167 bound_to 10162
  157.0805  130.6386  149.5825 H   0  0  0  0  0  0  0  0  0  0  0  0  # atno 10718 bound_to 10713
  153.8561  135.6844  153.4787 H   0  0  0  0  0  0  0  0  0  0  0  0  # atno 10763 bound_to 10752
  153.1369  135.4674  154.9433 H   0  0  0  0  0  0  0  0  0  0  0  0  # atno 10764 bound_to 10752
  154.7780  135.3259  154.7999 H   0  0  0  0  0  0  0  0  0  0  0  0  # atno 10765 bound_to 10752
  140.3236  134.2516  155.7713 H   0  0  0  0  0  0  0  0  0  0  0  0  # atno 11005 bound_to 11000
  145.7810  139.1891  143.2158 LP  0  0  0  0  0  0  0  0  0  0  0  0  # atno 17320 bound_to 7965
  146.0834  140.7738  142.9630 LP  0  0  0  0  0  0  0  0  0  0  0  0  # atno 17321 bound_to 7965
  140.4905  144.1317  150.5949 LP  0  0  0  0  0  0  0  0  0  0  0  0  # atno 17342 bound_to 10162
  140.4176  143.2627  151.9756 LP  0  0  0  0  0  0  0  0  0  0  0  0  # atno 17343 bound_to 10162
  155.9925  130.4983  150.7342 LP  0  0  0  0  0  0  0  0  0  0  0  0  # atno 17370 bound_to 10713
  157.4804  131.0902  151.0543 LP  0  0  0  0  0  0  0  0  0  0  0  0  # atno 17371 bound_to 10713
  141.2080  133.7788  157.0082 LP  0  0  0  0  0  0  0  0  0  0  0  0  # atno 17394 bound_to 11000
  140.0921  134.9586  157.1792 LP  0  0  0  0  0  0  0  0  0  0  0  0  # atno 17395 bound_to 11000

$$$$
