AV-unprocessed.smi:2928|AV-procd|sdf|11236|dock7
  -GOLD-   2272016133D 1   1.00000     0.00000
 Structure written by MMmdl.
 56 59  0  0  0  0  0  0  0  0  3 V2000
  147.6002  141.9589  154.0739 C   0  0  0  0  0  0  0  0  0  0  0  0
  148.4038  141.8616  155.3158 N   0  3  2  0  0  0  0  0  0  0  0  0
  149.8188  141.4662  155.1135 C   0  0  1  0  0  0  0  0  0  0  0  0
  150.6254  141.8274  156.3829 C   0  0  0  0  0  0  0  0  0  0  0  0
  150.0283  141.2546  157.6843 C   0  0  0  0  0  0  0  0  0  0  0  0
  148.4912  141.3777  157.7315 C   0  0  0  0  0  0  0  0  0  0  0  0
  147.7943  141.0428  156.3917 C   0  0  2  0  0  0  0  0  0  0  0  0
  147.7895  139.5385  156.0198 C   0  0  0  0  0  0  0  0  0  0  0  0
  149.1585  138.9833  155.5645 C   0  0  1  0  0  0  0  0  0  0  0  0
  148.9514  137.7258  154.8490 N   0  0  0  0  0  0  0  0  0  0  0  0
  149.2861  136.5110  155.3083 C   0  0  0  0  0  0  0  0  0  0  0  0
  149.8290  136.3193  156.3962 O   0  0  0  0  0  0  0  0  0  0  0  0
  148.9734  135.5492  154.4241 N   0  0  0  0  0  0  0  0  0  0  0  0
  149.1959  134.1488  154.5494 C   0  0  0  0  0  0  0  0  0  0  0  0
  150.1486  133.6405  155.4695 C   0  0  0  0  0  0  0  0  0  0  0  0
  150.2987  132.2502  155.6298 C   0  0  0  0  0  0  0  0  0  0  0  0
  149.4817  131.3871  154.8801 C   0  0  0  0  0  0  0  0  0  0  0  0
  148.5765  131.9011  154.0220 N   0  3  0  0  0  0  0  0  0  0  0  0
  148.3953  133.2290  153.8116 C   0  0  0  0  0  0  0  0  0  0  0  0
  147.4187  133.6217  152.8682 N   0  0  0  0  0  0  0  0  0  0  0  0
  146.3856  134.5845  153.2321 C   0  0  0  0  0  0  0  0  0  0  0  0
  145.3388  134.4780  152.1266 C   0  0  0  0  0  0  0  0  0  0  0  0
  145.3793  132.9933  151.7776 C   0  0  0  0  0  0  0  0  0  0  0  0
  146.8490  132.6110  151.9821 C   0  0  0  0  0  0  0  0  0  0  0  0
  149.9323  139.9854  154.6720 C   0  0  0  0  0  0  0  0  0  0  0  0
  147.4876  140.9960  153.5766 H   0  0  0  0  0  0  0  0  0  0  0  0
  148.0695  142.6481  153.3713 H   0  0  0  0  0  0  0  0  0  0  0  0
  146.6041  142.3427  154.2952 H   0  0  0  0  0  0  0  0  0  0  0  0
  150.2241  142.0785  154.3066 H   0  0  0  0  0  0  0  0  0  0  0  0
  151.6642  141.5129  156.2778 H   0  0  0  0  0  0  0  0  0  0  0  0
  150.6518  142.9143  156.4715 H   0  0  0  0  0  0  0  0  0  0  0  0
  150.3312  140.2195  157.8164 H   0  0  0  0  0  0  0  0  0  0  0  0
  150.4600  141.7744  158.5401 H   0  0  0  0  0  0  0  0  0  0  0  0
  148.0908  140.7592  158.5354 H   0  0  0  0  0  0  0  0  0  0  0  0
  148.2417  142.4062  157.9959 H   0  0  0  0  0  0  0  0  0  0  0  0
  146.7540  141.3539  156.4989 H   0  0  0  0  0  0  0  0  0  0  0  0
  147.4129  138.9496  156.8571 H   0  0  0  0  0  0  0  0  0  0  0  0
  147.0636  139.3925  155.2187 H   0  0  0  0  0  0  0  0  0  0  0  0
  149.7484  138.7564  156.4493 H   0  0  0  0  0  0  0  0  0  0  0  0
  148.5099  137.7859  153.9429 H   0  0  0  0  0  0  0  0  0  0  0  0
  148.6278  135.8587  153.5274 H   0  0  0  0  0  0  0  0  0  0  0  0
  150.7534  134.2996  156.0741 H   0  0  0  0  0  0  0  0  0  0  0  0
  151.0213  131.8535  156.3281 H   0  0  0  0  0  0  0  0  0  0  0  0
  149.5208  130.3090  154.9419 H   0  0  0  0  0  0  0  0  0  0  0  0
  145.9347  134.3194  154.1896 H   0  0  0  0  0  0  0  0  0  0  0  0
  146.7914  135.5938  153.3086 H   0  0  0  0  0  0  0  0  0  0  0  0
  144.3515  134.8176  152.4410 H   0  0  0  0  0  0  0  0  0  0  0  0
  145.6444  135.0716  151.2639 H   0  0  0  0  0  0  0  0  0  0  0  0
  144.7542  132.4365  152.4770 H   0  0  0  0  0  0  0  0  0  0  0  0
  145.0235  132.7828  150.7688 H   0  0  0  0  0  0  0  0  0  0  0  0
  147.3776  132.6414  151.0291 H   0  0  0  0  0  0  0  0  0  0  0  0
  146.9427  131.6041  152.3917 H   0  0  0  0  0  0  0  0  0  0  0  0
  149.5586  139.9082  153.6500 H   0  0  0  0  0  0  0  0  0  0  0  0
  150.9824  139.6967  154.6141 H   0  0  0  0  0  0  0  0  0  0  0  0
  148.4338  142.8052  155.6759 H   0  0  0  0  0  0  0  0  0  0  0  0
  147.9981  131.2486  153.4927 H   0  0  0  0  0  0  0  0  0  0  0  0
  1  2  1  0  0  0  0
  1 26  1  0  0  0  0
  1 27  1  0  0  0  0
  1 28  1  0  0  0  0
  2  7  1  0  0  0  0
  2  3  1  0  0  0  0
  2 55  1  0  0  0  0
  3 25  1  0  0  0  0
  3  4  1  0  0  0  0
  3 29  1  0  0  0  0
  4  5  1  0  0  0  0
  4 30  1  0  0  0  0
  4 31  1  0  0  0  0
  5  6  1  0  0  0  0
  5 32  1  0  0  0  0
  5 33  1  0  0  0  0
  6  7  1  0  0  0  0
  6 34  1  0  0  0  0
  6 35  1  0  0  0  0
  7  8  1  0  0  0  0
  7 36  1  0  0  0  0
  8  9  1  0  0  0  0
  8 37  1  0  0  0  0
  8 38  1  0  0  0  0
  9 10  1  0  0  0  0
  9 25  1  0  0  0  0
  9 39  1  0  0  0  0
 10 11  1  0  0  0  0
 10 40  1  0  0  0  0
 11 12  2  0  0  0  0
 11 13  1  0  0  0  0
 13 14  1  0  0  0  0
 13 41  1  0  0  0  0
 14 19  1  0  0  0  0
 14 15  2  0  0  0  0
 15 16  1  0  0  0  0
 15 42  1  0  0  0  0
 16 17  2  0  0  0  0
 16 43  1  0  0  0  0
 17 18  1  0  0  0  0
 17 44  1  0  0  0  0
 18 19  2  0  0  0  0
 18 56  1  0  0  0  0
 19 20  1  0  0  0  0
 20 24  1  0  0  0  0
 20 21  1  0  0  0  0
 21 22  1  0  0  0  0
 21 45  1  0  0  0  0
 21 46  1  0  0  0  0
 22 23  1  0  0  0  0
 22 47  1  0  0  0  0
 22 48  1  0  0  0  0
 23 24  1  0  0  0  0
 23 49  1  0  0  0  0
 23 50  1  0  0  0  0
 24 51  1  0  0  0  0
 24 52  1  0  0  0  0
 25 53  1  0  0  0  0
 25 54  1  0  0  0  0
M  CHG  1   2   1
M  CHG  1  18   1
M  END
> <s_m_source_file>
AV-unprocessed.smi

> <i_m_source_file_index>
2928

> <i_lp_mmshare_version>
43012

> <i_f3d_flags>
0

> <s_epik_input>
W0NIMl0xW0NIMl1bQ0gyXVtDQEhdKE4oW0NIM10pW0NIXTEyKVtDSDJdW0NASF0oW0NIMl0yKVtOSF1DKD1PKVtOSF1jM1tjSF1bY0hdW2NIXW5jM040W0NIMl1bQ0gyXVtDSDJdW0NIMl00

> <s_epik_cmdline>
J2VwaWtfcHl0aG9uJywgJy1waCcsICc3LjAnLCAnLXRuJywgJzgnLCAnLW1hJywgJzIwMCcsICctbWV0YWxfYmluZGluZycsICctaW1hZScsICc8aW5maWxlLm1hZT4nLCAnLW9tYWUnLCAnPG91dGZpbGUubWFlPic=

> <r_lp_tautomer_probability>
0.999994

> <r_epik_Ionization_Penalty>
1.2404

> <r_epik_Ionization_Penalty_Charging>
1.24038

> <r_epik_Ionization_Penalty_Neutral>
1.86539e-05

> <r_epik_State_Penalty>
1.30821

> <r_epik_Charging_Adjusted_Penalty>
2.54859

> <i_epik_Tot_Q>
2

> <i_epik_Tot_abs_Q>
2

> <r_epik_Metal_State_Penalty>
1.3782

> <b_epik_Metal_Only>
0

> <s_lp_Force_Field>
OPLS_2005

> <r_lp_Energy>
72.136

> <b_lp_Chiralities_Consistent>
1

> <s_lp_Variant>
AV-unprocessed.smi:2928-6

> <Gold.Version>
5.8.1

> <Gold.Id.Protein>
6NUR|6NUR_protein|mol2

> <Gold.PLP.Fitness>
44.6330

> <Gold.PLP.PLP>
-36.1580

> <Gold.PLP.part.hbond>
-2.1012

> <Gold.PLP.part.metal>
0.0000

> <Gold.PLP.part.buried>
-4.2054

> <Gold.PLP.part.nonpolar>
-30.6650

> <Gold.PLP.part.repulsive>
0.5561

> <Gold.PLP.ligand.clash>
0.0000

> <Gold.PLP.ligand.torsion>
0.3668

> <Gold.PLP.Chemscore.Hbond>
2.9440

> <Gold.PLP.Chemscore.CHOScore>
0.0000

> <Gold.PLP.Chemscore.Metal>
0.0000

> <Gold.Chemscore.Hbonds>
donor molecule, donor type, donor heavy atom, donor atom, acceptor molecule, acceptor atom, score
      L1  H     2    55       P1  8028  2.00
      L1  H    13    41       P1  7948  0.94

> <Gold.PLP.Chemscore.Internal.Correction>
0.3766

> <Gold.Rescore>
     Score         DG    S(hbond)    S(metal)    S(lipo)     H(rot)  DE(clash)    DE(int)     intcor
     16.55     -18.37       1.94        0.00      80.77       1.19       0.06       1.76       ----

> <Gold.Chemscore.Fitness>
16.5469

> <Gold.Chemscore.DG>
-18.3706

> <Gold.Chemscore.ZeroCoef>
-5.4800

> <Gold.Chemscore.Hbond>
1.9406

> <Gold.Chemscore.Metal>
0.0000

> <Gold.Chemscore.Lipo>
80.7694

> <Gold.Chemscore.Internal_Hbond>
0.0000

> <Gold.Chemscore.DEClash>
0.0622

> <Gold.Chemscore.DEInternal>
1.7615

> <Gold.Chemscore.Rot>
1.1879

> <Gold.Chemscore.Internal.Correction>
   9.000000E+99

> <Gold.Chemscore.Hbonds>
donor molecule, donor type, donor heavy atom, donor atom, acceptor molecule, acceptor atom, score
      L1  H     2    55       P1  8028  0.96
      L1  H    13    41       P1  7948  0.91

> <Gold.Chemscore.Hbond.Weighted>
-6.4816

> <Gold.Chemscore.Metal.Weighted>
-0.0000

> <Gold.Chemscore.Lipo.Weighted>
-9.4500

> <Gold.Chemscore.Internal_Hbond.Weighted>
0.0000

> <Gold.Chemscore.DEClash.Weighted>
0.0622

> <Gold.Chemscore.DEInternal.Weighted>
1.7615

> <Gold.Chemscore.Rot.Weighted>
3.0410

> <Gold.Chemscore.Internal.Correction.Weighted>
   9.000000E+99

> <Gold.Protein.RotatedTorsions>
[ 6907 6896 6895 6894 ] final  135.92 input  -60.11 | X-H torsion
[ 7974 7965 7964 7962 ] final  154.37 input  175.53 | X-H torsion
[ 8008 7997 7996 7995 ] final   73.53 input   59.86 | X-H torsion
[ 10167 10162 10161 10158 ] final -167.96 input  -65.29 | X-H torsion
[ 10718 10713 10712 10709 ] final   73.22 input   66.30 | X-H torsion
[ 10763 10752 10751 10750 ] final  134.24 input  -60.55 | X-H torsion
[ 11005 11000 10999 10996 ] final  -44.26 input  -57.11 | X-H torsion

> <Gold.Protein.ActiveResidues>
 VAL166  LYS551  ARG553  GLY616  TRP617  ASP618  TYR619  PRO620  LYS621  CYS622 
 ASP623  PHE694  ASN695  SER759  ASP760  ASP761  ALA762  ILE779  LEU786  VAL792 
 PHE793  MET794  SER795  GLU796  ALA797  LYS798  CYS799  TRP800  GLU811  SER814 

> <Gold.Protein.RotatedAtoms>
  152.2951  133.5599  159.5581 H   0  0  0  0  0  0  0  0  0  0  0  0  # atno 6907 bound_to 6896
  150.7252  134.0373  159.3762 H   0  0  0  0  0  0  0  0  0  0  0  0  # atno 6908 bound_to 6896
  151.8276  135.0632  160.0484 H   0  0  0  0  0  0  0  0  0  0  0  0  # atno 6909 bound_to 6896
  144.8093  139.6925  143.6148 H   0  0  0  0  0  0  0  0  0  0  0  0  # atno 7974 bound_to 7965
  155.7850  140.3481  155.5318 H   0  0  0  0  0  0  0  0  0  0  0  0  # atno 8008 bound_to 7997
  155.8690  140.0983  157.1583 H   0  0  0  0  0  0  0  0  0  0  0  0  # atno 8009 bound_to 7997
  154.4016  140.1344  156.4042 H   0  0  0  0  0  0  0  0  0  0  0  0  # atno 8010 bound_to 7997
  139.6015  144.1000  152.1748 H   0  0  0  0  0  0  0  0  0  0  0  0  # atno 10167 bound_to 10162
  157.6538  130.9618  150.1039 H   0  0  0  0  0  0  0  0  0  0  0  0  # atno 10718 bound_to 10713
  153.8203  135.3117  155.3409 H   0  0  0  0  0  0  0  0  0  0  0  0  # atno 10763 bound_to 10752
  154.8015  135.4723  154.0291 H   0  0  0  0  0  0  0  0  0  0  0  0  # atno 10764 bound_to 10752
  153.1698  135.6875  153.8714 H   0  0  0  0  0  0  0  0  0  0  0  0  # atno 10765 bound_to 10752
  141.0438  133.6769  156.2847 H   0  0  0  0  0  0  0  0  0  0  0  0  # atno 11005 bound_to 11000
  146.2389  139.5962  142.9505 LP  0  0  0  0  0  0  0  0  0  0  0  0  # atno 17320 bound_to 7965
  145.5362  141.0424  143.2356 LP  0  0  0  0  0  0  0  0  0  0  0  0  # atno 17321 bound_to 7965
  140.0597  144.5866  150.7272 LP  0  0  0  0  0  0  0  0  0  0  0  0  # atno 17342 bound_to 10162
  140.7253  143.2630  151.4140 LP  0  0  0  0  0  0  0  0  0  0  0  0  # atno 17343 bound_to 10162
  156.1954  130.3657  149.8856 LP  0  0  0  0  0  0  0  0  0  0  0  0  # atno 17370 bound_to 10713
  156.6774  130.8844  151.3571 LP  0  0  0  0  0  0  0  0  0  0  0  0  # atno 17371 bound_to 10713
  140.6184  134.5386  157.5544 LP  0  0  0  0  0  0  0  0  0  0  0  0  # atno 17394 bound_to 11000
  139.9296  134.7989  156.0968 LP  0  0  0  0  0  0  0  0  0  0  0  0  # atno 17395 bound_to 11000

$$$$
