AV-unprocessed.smi:1732|AV-procd|sdf|6977|dock10
  -GOLD-   22720 8193D 1   1.00000     0.00000
 Structure written by MMmdl.
 35 36  0  0  0  0  0  0  0  0  2 V2000
  155.2229  139.6903  159.3792 O   0  0  0  0  0  0  0  0  0  0  0  0
  154.5259  140.0719  160.3188 C   0  0  0  0  0  0  0  0  0  0  0  0
  154.2051  141.5579  160.4541 C   0  0  0  0  0  0  0  0  0  0  0  0
  153.1750  141.8807  159.5324 O   0  0  0  0  0  0  0  0  0  0  0  0
  153.0718  143.2694  159.2552 C   0  0  0  0  0  0  0  0  0  0  0  0
  152.4226  144.0012  160.4288 C   0  0  0  0  0  0  0  0  0  0  0  0
  151.8600  145.2929  159.8255 C   0  0  0  0  0  0  0  0  0  0  0  0
  151.6641  145.0180  158.3260 C   0  0  0  0  0  0  0  0  0  0  0  0
  152.1316  143.5778  158.0867 C   0  0  0  0  0  0  0  0  0  0  0  0
  153.9801  139.2781  161.2607 N   0  0  0  0  0  0  0  0  0  0  0  0
  154.0992  137.8887  161.4327 C   0  0  0  0  0  0  0  0  0  0  0  0
  154.4759  137.2812  162.5920 C   0  0  0  0  0  0  0  0  0  0  0  0
  154.5665  135.8320  162.7195 C   0  0  0  0  0  0  0  0  0  0  0  0
  155.0690  135.1222  163.9642 C   0  0  0  0  0  0  0  0  0  0  0  0
  154.2350  135.3064  164.9879 F   0  0  0  0  0  0  0  0  0  0  0  0
  155.1929  133.8118  163.7528 F   0  0  0  0  0  0  0  0  0  0  0  0
  156.2624  135.6029  164.3101 F   0  0  0  0  0  0  0  0  0  0  0  0
  154.2398  135.1809  161.5460 C   0  0  0  0  0  0  0  0  0  0  0  0
  153.8327  135.7032  160.3681 N   0  5  0  0  0  0  0  0  0  0  0  0
  153.7473  137.0594  160.2613 C   0  0  0  0  0  0  0  0  0  0  0  0
  153.3859  137.6020  159.2164 O   0  0  0  0  0  0  0  0  0  0  0  0
  153.8842  141.7752  161.4742 H   0  0  0  0  0  0  0  0  0  0  0  0
  155.1058  142.1416  160.2590 H   0  0  0  0  0  0  0  0  0  0  0  0
  154.0568  143.7032  159.0709 H   0  0  0  0  0  0  0  0  0  0  0  0
  151.6025  143.4019  160.8272 H   0  0  0  0  0  0  0  0  0  0  0  0
  153.1215  144.1876  161.2449 H   0  0  0  0  0  0  0  0  0  0  0  0
  150.9294  145.5867  160.3124 H   0  0  0  0  0  0  0  0  0  0  0  0
  152.5701  146.1098  159.9603 H   0  0  0  0  0  0  0  0  0  0  0  0
  150.6266  145.1536  158.0190 H   0  0  0  0  0  0  0  0  0  0  0  0
  152.2697  145.7120  157.7421 H   0  0  0  0  0  0  0  0  0  0  0  0
  152.6088  143.4506  157.1147 H   0  0  0  0  0  0  0  0  0  0  0  0
  151.2716  142.9073  158.1230 H   0  0  0  0  0  0  0  0  0  0  0  0
  153.3643  139.7282  161.9226 H   0  0  0  0  0  0  0  0  0  0  0  0
  154.7001  137.8627  163.4711 H   0  0  0  0  0  0  0  0  0  0  0  0
  154.3197  134.0728  161.5551 H   0  0  0  0  0  0  0  0  0  0  0  0
  1  2  2  0  0  0  0
  2  3  1  0  0  0  0
  2 10  1  0  0  0  0
  3  4  1  0  0  0  0
  3 22  1  0  0  0  0
  3 23  1  0  0  0  0
  4  5  1  0  0  0  0
  5  9  1  0  0  0  0
  5  6  1  0  0  0  0
  5 24  1  0  0  0  0
  6  7  1  0  0  0  0
  6 25  1  0  0  0  0
  6 26  1  0  0  0  0
  7  8  1  0  0  0  0
  7 27  1  0  0  0  0
  7 28  1  0  0  0  0
  8  9  1  0  0  0  0
  8 29  1  0  0  0  0
  8 30  1  0  0  0  0
  9 31  1  0  0  0  0
  9 32  1  0  0  0  0
 10 11  1  0  0  0  0
 10 33  1  0  0  0  0
 11 20  1  0  0  0  0
 11 12  2  0  0  0  0
 12 13  1  0  0  0  0
 12 34  1  0  0  0  0
 13 14  1  0  0  0  0
 13 18  2  0  0  0  0
 14 15  1  0  0  0  0
 14 16  1  0  0  0  0
 14 17  1  0  0  0  0
 18 19  1  0  0  0  0
 18 35  1  0  0  0  0
 19 20  1  0  0  0  0
 20 21  2  0  0  0  0
M  CHG  1  19  -1
M  END
> <s_m_source_file>
AV-unprocessed.smi

> <i_m_source_file_index>
1732

> <i_lp_mmshare_version>
43012

> <i_f3d_flags>
0

> <s_epik_input>
W0NIMl0xW0NIMl1bQ0gyXVtDSDJdW0NIXTFPW0NIMl1DKD1PKVtOSF1jMltjSF1jKEMoRikoRilGKVtjSF1bbkhdYzI9Tw==

> <s_epik_cmdline>
J2VwaWtfcHl0aG9uJywgJy1waCcsICc3LjAnLCAnLXRuJywgJzgnLCAnLW1hJywgJzIwMCcsICctbWV0YWxfYmluZGluZycsICctaW1hZScsICc8aW5maWxlLm1hZT4nLCAnLW9tYWUnLCAnPG91dGZpbGUubWFlPic=

> <r_epik_Ionization_Penalty>
2.40879

> <r_epik_Ionization_Penalty_Charging>
0.039975

> <r_epik_Ionization_Penalty_Neutral>
2.36882

> <r_epik_State_Penalty>
2.52443

> <r_epik_Charging_Adjusted_Penalty>
2.5644

> <i_epik_Tot_Q>
-1

> <i_epik_Tot_abs_Q>
1

> <r_epik_Metal_State_Penalty>
0.506326

> <b_epik_Metal_Only>
0

> <s_lp_Force_Field>
OPLS_2005

> <r_lp_Energy>
39.1091

> <b_lp_Chiralities_Consistent>
1

> <s_lp_Variant>
AV-unprocessed.smi:1732-2

> <Gold.Version>
5.8.1

> <Gold.Id.Protein>
6NUR|6NUR_protein|mol2

> <Gold.PLP.Fitness>
46.5950

> <Gold.PLP.PLP>
-39.4925

> <Gold.PLP.part.hbond>
-2.0000

> <Gold.PLP.part.metal>
0.0000

> <Gold.PLP.part.buried>
-3.8113

> <Gold.PLP.part.nonpolar>
-33.1998

> <Gold.PLP.part.repulsive>
0.0092

> <Gold.PLP.ligand.clash>
0.0000

> <Gold.PLP.ligand.torsion>
0.9833

> <Gold.PLP.Chemscore.Hbond>
3.0000

> <Gold.PLP.Chemscore.CHOScore>
0.0000

> <Gold.PLP.Chemscore.Metal>
0.0000

> <Gold.Chemscore.Hbonds>
donor molecule, donor type, donor heavy atom, donor atom, acceptor molecule, acceptor atom, score
      P1  H  6896  6909       L1    19  2.00
      P1  H  7997  8009       L1     1  0.88

> <Gold.PLP.Chemscore.Internal.Correction>
0.0693

> <Gold.Rescore>
     Score         DG    S(hbond)    S(metal)    S(lipo)     H(rot)  DE(clash)    DE(int)     intcor
     17.27     -18.70       1.91        0.00      93.00       1.58       0.00       1.42       ----

> <Gold.Chemscore.Fitness>
17.2727

> <Gold.Chemscore.DG>
-18.6961

> <Gold.Chemscore.ZeroCoef>
-5.4800

> <Gold.Chemscore.Hbond>
1.9086

> <Gold.Chemscore.Metal>
0.0000

> <Gold.Chemscore.Lipo>
93.0020

> <Gold.Chemscore.Internal_Hbond>
0.0000

> <Gold.Chemscore.DEClash>
0.0015

> <Gold.Chemscore.DEInternal>
1.4219

> <Gold.Chemscore.Rot>
1.5781

> <Gold.Chemscore.Internal.Correction>
   9.000000E+99

> <Gold.Chemscore.Hbonds>
donor molecule, donor type, donor heavy atom, donor atom, acceptor molecule, acceptor atom, score
      P1  H  6896  6909       L1    19  0.32
      P1  H  7997  8009       L1     1  0.82

> <Gold.Chemscore.Hbond.Weighted>
-6.3747

> <Gold.Chemscore.Metal.Weighted>
-0.0000

> <Gold.Chemscore.Lipo.Weighted>
-10.8812

> <Gold.Chemscore.Internal_Hbond.Weighted>
0.0000

> <Gold.Chemscore.DEClash.Weighted>
0.0015

> <Gold.Chemscore.DEInternal.Weighted>
1.4219

> <Gold.Chemscore.Rot.Weighted>
4.0399

> <Gold.Chemscore.Internal.Correction.Weighted>
   9.000000E+99

> <Gold.Protein.RotatedTorsions>
[ 6907 6896 6895 6894 ] final  168.42 input  -60.11 | X-H torsion
[ 7974 7965 7964 7962 ] final -124.18 input  175.53 | X-H torsion
[ 8008 7997 7996 7995 ] final   94.44 input   59.86 | X-H torsion
[ 10167 10162 10161 10158 ] final  105.88 input  -65.29 | X-H torsion
[ 10718 10713 10712 10709 ] final -117.85 input   66.30 | X-H torsion
[ 10763 10752 10751 10750 ] final   -5.98 input  -60.55 | X-H torsion
[ 11005 11000 10999 10996 ] final  -26.93 input  -57.11 | X-H torsion

> <Gold.Protein.ActiveResidues>
 VAL166  LYS551  ARG553  GLY616  TRP617  ASP618  TYR619  PRO620  LYS621  CYS622 
 ASP623  PHE694  ASN695  SER759  ASP760  ASP761  ALA762  ILE779  LEU786  VAL792 
 PHE793  MET794  SER795  GLU796  ALA797  LYS798  CYS799  TRP800  GLU811  SER814 

> <Gold.Protein.RotatedAtoms>
  151.8479  133.3435  159.3663 H   0  0  0  0  0  0  0  0  0  0  0  0  # atno 6907 bound_to 6896
  150.7215  134.5327  159.5717 H   0  0  0  0  0  0  0  0  0  0  0  0  # atno 6908 bound_to 6896
  152.2815  134.7824  160.0447 H   0  0  0  0  0  0  0  0  0  0  0  0  # atno 6909 bound_to 6896
  145.0108  140.7904  143.4440 H   0  0  0  0  0  0  0  0  0  0  0  0  # atno 7974 bound_to 7965
  156.0579  140.3300  155.7427 H   0  0  0  0  0  0  0  0  0  0  0  0  # atno 8008 bound_to 7997
  155.5500  140.0609  157.2869 H   0  0  0  0  0  0  0  0  0  0  0  0  # atno 8009 bound_to 7997
  154.4467  140.1896  156.0665 H   0  0  0  0  0  0  0  0  0  0  0  0  # atno 8010 bound_to 7997
  139.7055  144.7087  151.1113 H   0  0  0  0  0  0  0  0  0  0  0  0  # atno 10167 bound_to 10162
  156.1063  130.6213  150.9216 H   0  0  0  0  0  0  0  0  0  0  0  0  # atno 10718 bound_to 10713
  153.4060  135.7006  153.6392 H   0  0  0  0  0  0  0  0  0  0  0  0  # atno 10763 bound_to 10752
  153.4906  135.3673  155.2490 H   0  0  0  0  0  0  0  0  0  0  0  0  # atno 10764 bound_to 10752
  154.8714  135.4088  154.3404 H   0  0  0  0  0  0  0  0  0  0  0  0  # atno 10765 bound_to 10752
  140.9074  133.7484  156.0624 H   0  0  0  0  0  0  0  0  0  0  0  0  # atno 11005 bound_to 11000
  145.2026  139.2244  143.5185 LP  0  0  0  0  0  0  0  0  0  0  0  0  # atno 17320 bound_to 7965
  146.3469  140.1846  142.8589 LP  0  0  0  0  0  0  0  0  0  0  0  0  # atno 17321 bound_to 7965
  140.7720  143.5364  150.9363 LP  0  0  0  0  0  0  0  0  0  0  0  0  # atno 17342 bound_to 10162
  139.9047  143.6792  152.3125 LP  0  0  0  0  0  0  0  0  0  0  0  0  # atno 17343 bound_to 10162
  157.6240  131.0927  150.8568 LP  0  0  0  0  0  0  0  0  0  0  0  0  # atno 17370 bound_to 10713
  156.8686  130.5138  149.5298 LP  0  0  0  0  0  0  0  0  0  0  0  0  # atno 17371 bound_to 10713
  140.8154  134.3351  157.5399 LP  0  0  0  0  0  0  0  0  0  0  0  0  # atno 17394 bound_to 11000
  139.8751  134.9278  156.3435 LP  0  0  0  0  0  0  0  0  0  0  0  0  # atno 17395 bound_to 11000

$$$$
