AV-unprocessed.smi:3327|AV-procd|sdf|12790|dock8
  -GOLD-   2272019143D 1   1.00000     0.00000
 Structure written by MMmdl.
 40 41  0  0  0  0  0  0  0  0  1 V2000
  153.3998  142.6147  162.4374 C   0  0  0  0  0  0  0  0  0  0  0  0
  152.5157  142.8688  161.2085 C   0  0  1  0  0  0  0  0  0  0  0  0
  152.1889  144.3695  161.0452 C   0  0  0  0  0  0  0  0  0  0  0  0
  151.4030  144.6510  159.7505 C   0  0  0  0  0  0  0  0  0  0  0  0
  152.1034  144.0155  158.5370 C   0  0  0  0  0  0  0  0  0  0  0  0
  152.2601  142.5761  158.7856 N   0  0  0  0  0  0  0  0  0  0  0  0
  151.5857  141.5882  158.1474 C   0  0  0  0  0  0  0  0  0  0  0  0
  151.7406  140.3988  158.4322 O   0  0  0  0  0  0  0  0  0  0  0  0
  150.5936  141.9660  157.0334 C   0  0  0  0  0  0  0  0  0  0  0  0
  149.3927  141.1204  157.0118 N   0  0  0  0  0  0  0  0  0  0  0  0
  148.7390  141.1931  155.7142 C   0  0  0  0  0  0  0  0  0  0  0  0
  149.7748  140.9682  154.6030 C   0  0  0  0  0  0  0  0  0  0  0  0
  150.5074  139.7319  154.7978 N   0  0  0  0  0  0  0  0  0  0  0  0
  150.4421  138.5711  154.0560 C   0  0  0  0  0  0  0  0  0  0  0  0
  151.3090  137.6793  154.6198 C   0  0  0  0  0  0  0  0  0  0  0  0
  151.8657  138.3965  155.7156 C   0  0  0  0  0  0  0  0  0  0  0  0
  151.3835  139.6244  155.8200 N   0  0  0  0  0  0  0  0  0  0  0  0
  153.1608  142.3198  159.9177 C   0  0  0  0  0  0  0  0  0  0  0  0
  154.3641  143.1151  162.3433 H   0  0  0  0  0  0  0  0  0  0  0  0
  153.5891  141.5492  162.5708 H   0  0  0  0  0  0  0  0  0  0  0  0
  152.9220  142.9806  163.3465 H   0  0  0  0  0  0  0  0  0  0  0  0
  151.5763  142.3360  161.3650 H   0  0  0  0  0  0  0  0  0  0  0  0
  151.6267  144.7309  161.9067 H   0  0  0  0  0  0  0  0  0  0  0  0
  153.1183  144.9400  161.0234 H   0  0  0  0  0  0  0  0  0  0  0  0
  150.3922  144.2506  159.8397 H   0  0  0  0  0  0  0  0  0  0  0  0
  151.2992  145.7262  159.6034 H   0  0  0  0  0  0  0  0  0  0  0  0
  151.5540  144.2493  157.6266 H   0  0  0  0  0  0  0  0  0  0  0  0
  153.0886  144.4634  158.4003 H   0  0  0  0  0  0  0  0  0  0  0  0
  150.2918  143.0055  157.1726 H   0  0  0  0  0  0  0  0  0  0  0  0
  151.1019  141.8888  156.0713 H   0  0  0  0  0  0  0  0  0  0  0  0
  149.6183  140.1584  157.2213 H   0  0  0  0  0  0  0  0  0  0  0  0
  147.9526  140.4391  155.6538 H   0  0  0  0  0  0  0  0  0  0  0  0
  148.2684  142.1699  155.5913 H   0  0  0  0  0  0  0  0  0  0  0  0
  149.2858  140.9287  153.6285 H   0  0  0  0  0  0  0  0  0  0  0  0
  150.4874  141.7939  154.5667 H   0  0  0  0  0  0  0  0  0  0  0  0
  149.7907  138.4767  153.1995 H   0  0  0  0  0  0  0  0  0  0  0  0
  151.5142  136.6690  154.2984 H   0  0  0  0  0  0  0  0  0  0  0  0
  152.6007  138.0636  156.4337 H   0  0  0  0  0  0  0  0  0  0  0  0
  154.1183  142.8097  159.7343 H   0  0  0  0  0  0  0  0  0  0  0  0
  153.3914  141.2605  160.0382 H   0  0  0  0  0  0  0  0  0  0  0  0
  1  2  1  0  0  0  0
  1 19  1  0  0  0  0
  1 20  1  0  0  0  0
  1 21  1  0  0  0  0
  2 18  1  0  0  0  0
  2  3  1  0  0  0  0
  2 22  1  0  0  0  0
  3  4  1  0  0  0  0
  3 23  1  0  0  0  0
  3 24  1  0  0  0  0
  4  5  1  0  0  0  0
  4 25  1  0  0  0  0
  4 26  1  0  0  0  0
  5  6  1  0  0  0  0
  5 27  1  0  0  0  0
  5 28  1  0  0  0  0
  6  7  1  0  0  0  0
  6 18  1  0  0  0  0
  7  8  2  0  0  0  0
  7  9  1  0  0  0  0
  9 10  1  0  0  0  0
  9 29  1  0  0  0  0
  9 30  1  0  0  0  0
 10 11  1  0  0  0  0
 10 31  1  0  0  0  0
 11 12  1  0  0  0  0
 11 32  1  0  0  0  0
 11 33  1  0  0  0  0
 12 13  1  0  0  0  0
 12 34  1  0  0  0  0
 12 35  1  0  0  0  0
 13 17  1  0  0  0  0
 13 14  1  0  0  0  0
 14 15  2  0  0  0  0
 14 36  1  0  0  0  0
 15 16  1  0  0  0  0
 15 37  1  0  0  0  0
 16 17  2  0  0  0  0
 16 38  1  0  0  0  0
 18 39  1  0  0  0  0
 18 40  1  0  0  0  0
M  END
> <s_m_source_file>
AV-unprocessed.smi

> <i_m_source_file_index>
3327

> <i_lp_mmshare_version>
43012

> <i_f3d_flags>
0

> <s_epik_input>
W0NIM11bQ0BASF0xW0NIMl1bQ0gyXVtDSDJdTihbQ0gyXTEpQyg9TylbQ0gyXVtOSF1bQ0gyXVtDSDJdbjJbY0hdW2NIXVtjSF1uMg==

> <s_epik_cmdline>
J2VwaWtfcHl0aG9uJywgJy1waCcsICc3LjAnLCAnLXRuJywgJzgnLCAnLW1hJywgJzIwMCcsICctbWV0YWxfYmluZGluZycsICctaW1hZScsICc8aW5maWxlLm1hZT4nLCAnLW9tYWUnLCAnPG91dGZpbGUubWFlPic=

> <r_lp_tautomer_probability>
1

> <r_epik_Ionization_Penalty>
0.752964

> <r_epik_Ionization_Penalty_Charging>
0

> <r_epik_Ionization_Penalty_Neutral>
0.752964

> <r_epik_State_Penalty>
0.778238

> <r_epik_Charging_Adjusted_Penalty>
0.778238

> <i_epik_Tot_Q>
0

> <i_epik_Tot_abs_Q>
0

> <r_epik_Metal_State_Penalty>
0.776974

> <b_epik_Metal_Only>
0

> <s_lp_Force_Field>
OPLS_2005

> <r_lp_Energy>
25.5335

> <b_lp_Chiralities_Consistent>
1

> <s_lp_Variant>
AV-unprocessed.smi:3327-4

> <Gold.Version>
5.8.1

> <Gold.Id.Protein>
6NUR|6NUR_protein|mol2

> <Gold.PLP.Fitness>
49.2344

> <Gold.PLP.PLP>
-45.8494

> <Gold.PLP.part.hbond>
0.0000

> <Gold.PLP.part.metal>
0.0000

> <Gold.PLP.part.buried>
-3.3603

> <Gold.PLP.part.nonpolar>
-41.2418

> <Gold.PLP.part.repulsive>
0.0000

> <Gold.PLP.ligand.clash>
0.0000

> <Gold.PLP.ligand.torsion>
0.5504

> <Gold.PLP.Chemscore.Hbond>
0.0000

> <Gold.PLP.Chemscore.CHOScore>
1.4836

> <Gold.PLP.Chemscore.Metal>
0.0000

> <Gold.Chemscore.Hbonds>
donor molecule, donor type, donor heavy atom, donor atom, acceptor molecule, acceptor atom, score
      L1  C    14    36       P1  7948  0.57
      L1  C    14    36       P1  7957  0.90

> <Gold.PLP.Chemscore.Internal.Correction>
0.0352

> <Gold.Rescore>
     Score         DG    S(hbond)    S(metal)    S(lipo)     H(rot)  DE(clash)    DE(int)     intcor
     12.32     -14.09       0.00        0.00     111.39       1.73       0.06       1.71       ----

> <Gold.Chemscore.Fitness>
12.3154

> <Gold.Chemscore.DG>
-14.0854

> <Gold.Chemscore.ZeroCoef>
-5.4800

> <Gold.Chemscore.Hbond>
0.0000

> <Gold.Chemscore.Metal>
0.0000

> <Gold.Chemscore.Lipo>
111.3948

> <Gold.Chemscore.Internal_Hbond>
0.0000

> <Gold.Chemscore.DEClash>
0.0593

> <Gold.Chemscore.DEInternal>
1.7107

> <Gold.Chemscore.Rot>
1.7296

> <Gold.Chemscore.Internal.Correction>
   9.000000E+99

> <Gold.Chemscore.Hbond.Weighted>
-0.0000

> <Gold.Chemscore.Metal.Weighted>
-0.0000

> <Gold.Chemscore.Lipo.Weighted>
-13.0332

> <Gold.Chemscore.Internal_Hbond.Weighted>
0.0000

> <Gold.Chemscore.DEClash.Weighted>
0.0593

> <Gold.Chemscore.DEInternal.Weighted>
1.7107

> <Gold.Chemscore.Rot.Weighted>
4.4278

> <Gold.Chemscore.Internal.Correction.Weighted>
   9.000000E+99

> <Gold.Protein.RotatedTorsions>
[ 6907 6896 6895 6894 ] final   20.47 input  -60.11 | X-H torsion
[ 7974 7965 7964 7962 ] final -101.96 input  175.53 | X-H torsion
[ 8008 7997 7996 7995 ] final  -64.73 input   59.86 | X-H torsion
[ 10167 10162 10161 10158 ] final   19.77 input  -65.29 | X-H torsion
[ 10718 10713 10712 10709 ] final   96.37 input   66.30 | X-H torsion
[ 10763 10752 10751 10750 ] final   62.36 input  -60.55 | X-H torsion
[ 11005 11000 10999 10996 ] final  133.66 input  -57.11 | X-H torsion

> <Gold.Protein.ActiveResidues>
 VAL166  LYS551  ARG553  GLY616  TRP617  ASP618  TYR619  PRO620  LYS621  CYS622 
 ASP623  PHE694  ASN695  SER759  ASP760  ASP761  ALA762  ILE779  LEU786  VAL792 
 PHE793  MET794  SER795  GLU796  ALA797  LYS798  CYS799  TRP800  GLU811  SER814 

> <Gold.Protein.RotatedAtoms>
  151.8968  135.0394  160.0502 H   0  0  0  0  0  0  0  0  0  0  0  0  # atno 6907 bound_to 6896
  152.2391  133.5116  159.5268 H   0  0  0  0  0  0  0  0  0  0  0  0  # atno 6908 bound_to 6896
  150.7048  134.1030  159.4015 H   0  0  0  0  0  0  0  0  0  0  0  0  # atno 6909 bound_to 6896
  145.2749  140.9309  143.2965 H   0  0  0  0  0  0  0  0  0  0  0  0  # atno 7974 bound_to 7965
  154.4629  140.0948  156.6942 H   0  0  0  0  0  0  0  0  0  0  0  0  # atno 8008 bound_to 7997
  155.4942  140.3471  155.4341 H   0  0  0  0  0  0  0  0  0  0  0  0  # atno 8009 bound_to 7997
  156.0903  140.1395  156.9589 H   0  0  0  0  0  0  0  0  0  0  0  0  # atno 8010 bound_to 7997
  140.5554  143.9434  150.6606 H   0  0  0  0  0  0  0  0  0  0  0  0  # atno 10167 bound_to 10162
  157.6928  131.0576  150.4481 H   0  0  0  0  0  0  0  0  0  0  0  0  # atno 10718 bound_to 10713
  152.9980  135.5467  154.6181 H   0  0  0  0  0  0  0  0  0  0  0  0  # atno 10763 bound_to 10752
  154.5487  135.2825  155.1031 H   0  0  0  0  0  0  0  0  0  0  0  0  # atno 10764 bound_to 10752
  154.2279  135.6439  153.5218 H   0  0  0  0  0  0  0  0  0  0  0  0  # atno 10765 bound_to 10752
  139.9866  134.9530  156.9757 H   0  0  0  0  0  0  0  0  0  0  0  0  # atno 11005 bound_to 11000
  144.9303  139.4306  143.6498 LP  0  0  0  0  0  0  0  0  0  0  0  0  # atno 17320 bound_to 7965
  146.3235  139.8210  142.8927 LP  0  0  0  0  0  0  0  0  0  0  0  0  # atno 17321 bound_to 7965
  140.2871  143.3350  152.1098 LP  0  0  0  0  0  0  0  0  0  0  0  0  # atno 17342 bound_to 10162
  139.5046  144.6778  151.6085 LP  0  0  0  0  0  0  0  0  0  0  0  0  # atno 17343 bound_to 10162
  156.4834  130.4079  149.6448 LP  0  0  0  0  0  0  0  0  0  0  0  0  # atno 17370 bound_to 10713
  156.3485  130.7420  151.2376 LP  0  0  0  0  0  0  0  0  0  0  0  0  # atno 17371 bound_to 10713
  140.4991  134.1116  155.7247 LP  0  0  0  0  0  0  0  0  0  0  0  0  # atno 17394 bound_to 11000
  141.1530  133.8935  157.2051 LP  0  0  0  0  0  0  0  0  0  0  0  0  # atno 17395 bound_to 11000

$$$$
