AV-unprocessed.smi:2775|AV-procd|sdf|10701|dock1
  -GOLD-   2272015143D 1   1.00000     0.00000
 Structure written by MMmdl.
 43 46  0  0  0  0  0  0  0  0  2 V2000
  143.9781  132.6615  151.1167 C   0  0  0  0  0  0  0  0  0  0  0  0
  144.0502  134.0365  151.7524 C   0  0  0  0  0  0  0  0  0  0  0  0
  142.8858  134.6728  152.0074 N   0  3  0  0  0  0  0  0  0  0  0  0
  142.8250  135.8947  152.5759 C   0  0  0  0  0  0  0  0  0  0  0  0
  144.0117  136.5674  152.9261 C   0  0  0  0  0  0  0  0  0  0  0  0
  145.2631  135.9529  152.6663 C   0  0  0  0  0  0  0  0  0  0  0  0
  146.5138  136.5457  152.9940 N   0  0  0  0  0  0  0  0  0  0  0  0
  146.8002  137.5093  153.8904 C   0  0  0  0  0  0  0  0  0  0  0  0
  145.9771  138.0657  154.6133 O   0  0  0  0  0  0  0  0  0  0  0  0
  148.1027  137.8390  153.9340 N   0  0  0  0  0  0  0  0  0  0  0  0
  148.7367  138.8409  154.7925 C   0  0  1  0  0  0  0  0  0  0  0  0
  150.1625  139.1911  154.3269 C   0  0  2  0  0  0  0  0  0  0  0  0
  151.3370  138.8810  155.2149 C   0  0  0  0  0  0  0  0  0  0  0  0
  151.5969  140.2167  155.9171 C   0  0  0  0  0  0  0  0  0  0  0  0
  150.3588  140.9185  155.8277 O   0  0  0  0  0  0  0  0  0  0  0  0
  149.8113  140.6594  154.5385 C   0  0  2  0  0  0  0  0  0  0  0  0
  148.3206  140.3005  154.5099 C   0  0  0  0  0  0  0  0  0  0  0  0
  147.4556  140.7067  153.3014 C   0  0  0  0  0  0  0  0  0  0  0  0
  146.2929  140.9570  154.2657 C   0  0  0  0  0  0  0  0  0  0  0  0
  147.3123  141.0338  155.4060 C   0  0  0  0  0  0  0  0  0  0  0  0
  145.2757  134.6621  152.0815 C   0  0  0  0  0  0  0  0  0  0  0  0
  146.7752  133.8543  151.7659 Cl  0  0  0  0  0  0  0  0  0  0  0  0
  144.4821  132.6644  150.1498 H   0  0  0  0  0  0  0  0  0  0  0  0
  142.9451  132.3487  150.9592 H   0  0  0  0  0  0  0  0  0  0  0  0
  144.4616  131.9217  151.7552 H   0  0  0  0  0  0  0  0  0  0  0  0
  141.8342  136.2937  152.7378 H   0  0  0  0  0  0  0  0  0  0  0  0
  143.9334  137.5350  153.3963 H   0  0  0  0  0  0  0  0  0  0  0  0
  147.2935  136.2335  152.4328 H   0  0  0  0  0  0  0  0  0  0  0  0
  148.7212  137.3312  153.3176 H   0  0  0  0  0  0  0  0  0  0  0  0
  148.7140  138.6057  155.8589 H   0  0  0  0  0  0  0  0  0  0  0  0
  150.3229  138.9729  153.2692 H   0  0  0  0  0  0  0  0  0  0  0  0
  151.0846  138.1050  155.9383 H   0  0  0  0  0  0  0  0  0  0  0  0
  152.2102  138.5451  154.6551 H   0  0  0  0  0  0  0  0  0  0  0  0
  151.9147  140.0930  156.9526 H   0  0  0  0  0  0  0  0  0  0  0  0
  152.3653  140.7835  155.3892 H   0  0  0  0  0  0  0  0  0  0  0  0
  150.1698  141.3257  153.7528 H   0  0  0  0  0  0  0  0  0  0  0  0
  147.8042  141.6265  152.8294 H   0  0  0  0  0  0  0  0  0  0  0  0
  147.2709  139.9307  152.5587 H   0  0  0  0  0  0  0  0  0  0  0  0
  145.7442  141.8814  154.0840 H   0  0  0  0  0  0  0  0  0  0  0  0
  145.6225  140.1014  154.3524 H   0  0  0  0  0  0  0  0  0  0  0  0
  147.0246  140.4942  156.3085 H   0  0  0  0  0  0  0  0  0  0  0  0
  147.6166  142.0575  155.6290 H   0  0  0  0  0  0  0  0  0  0  0  0
  142.0122  134.2054  151.7637 H   0  0  0  0  0  0  0  0  0  0  0  0
  1  2  1  0  0  0  0
  1 23  1  0  0  0  0
  1 24  1  0  0  0  0
  1 25  1  0  0  0  0
  2 21  1  0  0  0  0
  2  3  2  0  0  0  0
  3  4  1  0  0  0  0
  3 43  1  0  0  0  0
  4  5  2  0  0  0  0
  4 26  1  0  0  0  0
  5  6  1  0  0  0  0
  5 27  1  0  0  0  0
  6  7  1  0  0  0  0
  6 21  2  0  0  0  0
  7  8  1  0  0  0  0
  7 28  1  0  0  0  0
  8  9  2  0  0  0  0
  8 10  1  0  0  0  0
 10 11  1  0  0  0  0
 10 29  1  0  0  0  0
 11 17  1  0  0  0  0
 11 12  1  0  0  0  0
 11 30  1  0  0  0  0
 12 16  1  0  0  0  0
 12 13  1  0  0  0  0
 12 31  1  0  0  0  0
 13 14  1  0  0  0  0
 13 32  1  0  0  0  0
 13 33  1  0  0  0  0
 14 15  1  0  0  0  0
 14 34  1  0  0  0  0
 14 35  1  0  0  0  0
 15 16  1  0  0  0  0
 16 17  1  0  0  0  0
 16 36  1  0  0  0  0
 17 20  1  0  0  0  0
 17 18  1  0  0  0  0
 18 19  1  0  0  0  0
 18 37  1  0  0  0  0
 18 38  1  0  0  0  0
 19 20  1  0  0  0  0
 19 39  1  0  0  0  0
 19 40  1  0  0  0  0
 20 41  1  0  0  0  0
 20 42  1  0  0  0  0
 21 22  1  0  0  0  0
M  CHG  1   3   1
M  END
> <s_m_source_file>
AV-unprocessed.smi

> <i_m_source_file_index>
2775

> <i_lp_mmshare_version>
43012

> <i_f3d_flags>
0

> <s_epik_input>
W0NIM11jMW5bY0hdW2NIXWMoYzFDbClbTkhdQyg9TylbTkhdW0NAQEhdMltDQEhdKFtDSDJdW0NIMl1PMylbQ0BASF0zQzI0W0NIMl1bQ0gyXVtDSDJdNA==

> <s_epik_cmdline>
J2VwaWtfcHl0aG9uJywgJy1waCcsICc3LjAnLCAnLXRuJywgJzgnLCAnLW1hJywgJzIwMCcsICctbWV0YWxfYmluZGluZycsICctaW1hZScsICc8aW5maWxlLm1hZT4nLCAnLW9tYWUnLCAnPG91dGZpbGUubWFlPic=

> <r_epik_Ionization_Penalty>
2.4104

> <r_epik_Ionization_Penalty_Charging>
2.41038

> <r_epik_Ionization_Penalty_Neutral>
1.9872e-05

> <r_epik_State_Penalty>
2.56896

> <r_epik_Charging_Adjusted_Penalty>
4.97934

> <i_epik_Tot_Q>
1

> <i_epik_Tot_abs_Q>
1

> <r_epik_Metal_State_Penalty>
2.57906

> <b_epik_Metal_Only>
0

> <s_lp_Force_Field>
OPLS_2005

> <r_lp_Energy>
60.4294

> <b_lp_Chiralities_Consistent>
1

> <s_lp_Variant>
AV-unprocessed.smi:2775-14

> <Gold.Version>
5.8.1

> <Gold.Id.Protein>
6NUR|6NUR_protein|mol2

> <Gold.PLP.Fitness>
38.4142

> <Gold.PLP.PLP>
-32.6325

> <Gold.PLP.part.hbond>
-2.8160

> <Gold.PLP.part.metal>
0.0000

> <Gold.PLP.part.buried>
-1.6869

> <Gold.PLP.part.nonpolar>
-28.5485

> <Gold.PLP.part.repulsive>
0.1470

> <Gold.PLP.ligand.clash>
0.0000

> <Gold.PLP.ligand.torsion>
0.2130

> <Gold.PLP.Chemscore.Hbond>
2.0042

> <Gold.PLP.Chemscore.CHOScore>
0.0000

> <Gold.PLP.Chemscore.Metal>
0.0000

> <Gold.Chemscore.Hbonds>
donor molecule, donor type, donor heavy atom, donor atom, acceptor molecule, acceptor atom, score
      L1  H     3    43       P1 10186  0.01
      L1  H     7    28       P1  7948  1.00
      L1  H    10    29       P1  7948  1.00

> <Gold.PLP.Chemscore.Internal.Correction>
0.1950

> <Gold.Rescore>
     Score         DG    S(hbond)    S(metal)    S(lipo)     H(rot)  DE(clash)    DE(int)     intcor
     18.81     -19.35       1.93        0.00      85.28       1.00       0.14       0.41       ----

> <Gold.Chemscore.Fitness>
18.8052

> <Gold.Chemscore.DG>
-19.3488

> <Gold.Chemscore.ZeroCoef>
-5.4800

> <Gold.Chemscore.Hbond>
1.9313

> <Gold.Chemscore.Metal>
0.0000

> <Gold.Chemscore.Lipo>
85.2837

> <Gold.Chemscore.Internal_Hbond>
0.0000

> <Gold.Chemscore.DEClash>
0.1358

> <Gold.Chemscore.DEInternal>
0.4079

> <Gold.Chemscore.Rot>
1.0000

> <Gold.Chemscore.Internal.Correction>
   9.000000E+99

> <Gold.Chemscore.Hbonds>
donor molecule, donor type, donor heavy atom, donor atom, acceptor molecule, acceptor atom, score
      L1  H     7    28       P1  7948  0.99
      L1  H    10    29       P1  7948  0.94

> <Gold.Chemscore.Hbond.Weighted>
-6.4506

> <Gold.Chemscore.Metal.Weighted>
-0.0000

> <Gold.Chemscore.Lipo.Weighted>
-9.9782

> <Gold.Chemscore.Internal_Hbond.Weighted>
0.0000

> <Gold.Chemscore.DEClash.Weighted>
0.1358

> <Gold.Chemscore.DEInternal.Weighted>
0.4079

> <Gold.Chemscore.Rot.Weighted>
2.5600

> <Gold.Chemscore.Internal.Correction.Weighted>
   9.000000E+99

> <Gold.Protein.RotatedTorsions>
[ 6907 6896 6895 6894 ] final   47.57 input  -60.11 | X-H torsion
[ 7974 7965 7964 7962 ] final   95.45 input  175.53 | X-H torsion
[ 8008 7997 7996 7995 ] final   84.38 input   59.86 | X-H torsion
[ 10167 10162 10161 10158 ] final -128.15 input  -65.29 | X-H torsion
[ 10718 10713 10712 10709 ] final   49.02 input   66.30 | X-H torsion
[ 10763 10752 10751 10750 ] final  -62.08 input  -60.55 | X-H torsion
[ 11005 11000 10999 10996 ] final -116.55 input  -57.11 | X-H torsion

> <Gold.Protein.ActiveResidues>
 VAL166  LYS551  ARG553  GLY616  TRP617  ASP618  TYR619  PRO620  LYS621  CYS622 
 ASP623  PHE694  ASN695  SER759  ASP760  ASP761  ALA762  ILE779  LEU786  VAL792 
 PHE793  MET794  SER795  GLU796  ALA797  LYS798  CYS799  TRP800  GLU811  SER814 

> <Gold.Protein.RotatedAtoms>
  152.2695  134.7948  160.0416 H   0  0  0  0  0  0  0  0  0  0  0  0  # atno 6907 bound_to 6896
  151.8565  133.3444  159.3698 H   0  0  0  0  0  0  0  0  0  0  0  0  # atno 6908 bound_to 6896
  150.7146  134.5175  159.5682 H   0  0  0  0  0  0  0  0  0  0  0  0  # atno 6909 bound_to 6896
  145.4520  139.2292  143.3034 H   0  0  0  0  0  0  0  0  0  0  0  0  # atno 7974 bound_to 7965
  155.9363  140.3411  155.6290 H   0  0  0  0  0  0  0  0  0  0  0  0  # atno 8008 bound_to 7997
  155.7095  140.0770  157.2395 H   0  0  0  0  0  0  0  0  0  0  0  0  # atno 8009 bound_to 7997
  154.4094  140.1625  156.2267 H   0  0  0  0  0  0  0  0  0  0  0  0  # atno 8010 bound_to 7997
  139.9533  143.6031  152.2468 H   0  0  0  0  0  0  0  0  0  0  0  0  # atno 10167 bound_to 10162
  157.4745  130.8276  149.8024 H   0  0  0  0  0  0  0  0  0  0  0  0  # atno 10718 bound_to 10713
  154.2944  135.6247  153.5398 H   0  0  0  0  0  0  0  0  0  0  0  0  # atno 10763 bound_to 10752
  152.9848  135.5663  154.5354 H   0  0  0  0  0  0  0  0  0  0  0  0  # atno 10764 bound_to 10752
  154.4971  135.2870  155.1426 H   0  0  0  0  0  0  0  0  0  0  0  0  # atno 10765 bound_to 10752
  141.0414  133.9830  157.2988 H   0  0  0  0  0  0  0  0  0  0  0  0  # atno 11005 bound_to 11000
  146.2499  140.5280  142.8898 LP  0  0  0  0  0  0  0  0  0  0  0  0  # atno 17320 bound_to 7965
  144.8055  140.6292  143.6449 LP  0  0  0  0  0  0  0  0  0  0  0  0  # atno 17321 bound_to 7965
  139.6611  144.7662  151.1961 LP  0  0  0  0  0  0  0  0  0  0  0  0  # atno 17342 bound_to 10162
  140.7576  143.6009  150.8701 LP  0  0  0  0  0  0  0  0  0  0  0  0  # atno 17343 bound_to 10162
  156.0090  130.3842  150.2331 LP  0  0  0  0  0  0  0  0  0  0  0  0  # atno 17370 bound_to 10713
  157.0515  131.0064  151.3252 LP  0  0  0  0  0  0  0  0  0  0  0  0  # atno 17371 bound_to 10713
  139.9279  135.0201  156.8297 LP  0  0  0  0  0  0  0  0  0  0  0  0  # atno 17394 bound_to 11000
  140.6227  133.9979  155.7626 LP  0  0  0  0  0  0  0  0  0  0  0  0  # atno 17395 bound_to 11000

$$$$
