AV-unprocessed.smi:2858|AV-procd|sdf|10999|dock4
  -GOLD-   2272015453D 1   1.00000     0.00000
 Structure written by MMmdl.
 40 41  0  0  0  0  0  0  0  0  2 V2000
  144.4063  137.1147  152.9033 O   0  0  0  0  0  0  0  0  0  0  0  0
  145.4155  137.7815  152.6903 C   0  0  0  0  0  0  0  0  0  0  0  0
  146.4923  137.8988  153.7799 C   0  0  0  0  0  0  0  0  0  0  0  0
  147.8010  138.3994  153.2849 N   0  3  2  0  0  0  0  0  0  0  0  0
  148.7747  138.6025  154.3862 C   0  0  0  0  0  0  0  0  0  0  0  0
  148.6428  139.9885  155.0398 C   0  0  0  0  0  0  0  0  0  0  0  0
  149.7246  140.9669  154.5532 C   0  0  0  0  0  0  0  0  0  0  0  0
  149.9317  142.0556  155.5012 N   0  0  0  0  0  0  0  0  0  0  0  0
  150.6599  141.9668  156.6237 C   0  0  0  0  0  0  0  0  0  0  0  0
  151.2296  140.9349  156.9812 O   0  0  0  0  0  0  0  0  0  0  0  0
  150.6637  143.1295  157.2983 N   0  0  0  0  0  0  0  0  0  0  0  0
  151.2808  143.4144  158.5447 C   0  0  0  0  0  0  0  0  0  0  0  0
  152.0440  142.4221  159.2118 C   0  0  0  0  0  0  0  0  0  0  0  0
  152.6698  142.7377  160.4330 C   0  0  0  0  0  0  0  0  0  0  0  0
  152.5281  144.0365  160.9525 C   0  0  0  0  0  0  0  0  0  0  0  0
  151.7692  144.9651  160.2172 C   0  0  0  0  0  0  0  0  0  0  0  0
  151.1695  144.6667  159.0449 N   0  0  0  0  0  0  0  0  0  0  0  0
  147.6404  139.5831  152.4065 C   0  0  0  0  0  0  0  0  0  0  0  0
  146.7788  139.2238  151.1832 C   0  0  0  0  0  0  0  0  0  0  0  0
  145.6073  138.4211  151.5252 N   0  0  0  0  0  0  0  0  0  0  0  0
  146.1161  138.5706  154.5531 H   0  0  0  0  0  0  0  0  0  0  0  0
  146.6309  136.9214  154.2441 H   0  0  0  0  0  0  0  0  0  0  0  0
  148.6668  137.8100  155.1283 H   0  0  0  0  0  0  0  0  0  0  0  0
  149.7857  138.5143  153.9851 H   0  0  0  0  0  0  0  0  0  0  0  0
  147.6572  140.4020  154.8215 H   0  0  0  0  0  0  0  0  0  0  0  0
  148.7061  139.8983  156.1237 H   0  0  0  0  0  0  0  0  0  0  0  0
  150.6657  140.4420  154.3798 H   0  0  0  0  0  0  0  0  0  0  0  0
  149.4315  141.4019  153.5972 H   0  0  0  0  0  0  0  0  0  0  0  0
  149.4952  142.9402  155.2842 H   0  0  0  0  0  0  0  0  0  0  0  0
  150.0665  143.8581  156.9361 H   0  0  0  0  0  0  0  0  0  0  0  0
  152.1691  141.4318  158.8003 H   0  0  0  0  0  0  0  0  0  0  0  0
  153.2538  141.9966  160.9585 H   0  0  0  0  0  0  0  0  0  0  0  0
  152.9943  144.3153  161.8860 H   0  0  0  0  0  0  0  0  0  0  0  0
  151.6425  145.9753  160.5771 H   0  0  0  0  0  0  0  0  0  0  0  0
  147.1705  140.3883  152.9737 H   0  0  0  0  0  0  0  0  0  0  0  0
  148.6042  139.9593  152.0658 H   0  0  0  0  0  0  0  0  0  0  0  0
  146.4595  140.1282  150.6647 H   0  0  0  0  0  0  0  0  0  0  0  0
  147.3743  138.6490  150.4729 H   0  0  0  0  0  0  0  0  0  0  0  0
  144.8884  138.3392  150.8198 H   0  0  0  0  0  0  0  0  0  0  0  0
  148.1753  137.6624  152.7045 H   0  0  0  0  0  0  0  0  0  0  0  0
  1  2  2  0  0  0  0
  2 20  1  0  0  0  0
  2  3  1  0  0  0  0
  3  4  1  0  0  0  0
  3 21  1  0  0  0  0
  3 22  1  0  0  0  0
  4  5  1  0  0  0  0
  4 18  1  0  0  0  0
  4 40  1  0  0  0  0
  5  6  1  0  0  0  0
  5 23  1  0  0  0  0
  5 24  1  0  0  0  0
  6  7  1  0  0  0  0
  6 25  1  0  0  0  0
  6 26  1  0  0  0  0
  7  8  1  0  0  0  0
  7 27  1  0  0  0  0
  7 28  1  0  0  0  0
  8  9  1  0  0  0  0
  8 29  1  0  0  0  0
  9 10  2  0  0  0  0
  9 11  1  0  0  0  0
 11 12  1  0  0  0  0
 11 30  1  0  0  0  0
 12 17  1  0  0  0  0
 12 13  2  0  0  0  0
 13 14  1  0  0  0  0
 13 31  1  0  0  0  0
 14 15  2  0  0  0  0
 14 32  1  0  0  0  0
 15 16  1  0  0  0  0
 15 33  1  0  0  0  0
 16 17  2  0  0  0  0
 16 34  1  0  0  0  0
 18 19  1  0  0  0  0
 18 35  1  0  0  0  0
 18 36  1  0  0  0  0
 19 20  1  0  0  0  0
 19 37  1  0  0  0  0
 19 38  1  0  0  0  0
 20 39  1  0  0  0  0
M  CHG  1   4   1
M  END
> <s_m_source_file>
AV-unprocessed.smi

> <i_m_source_file_index>
2858

> <i_lp_mmshare_version>
43012

> <i_f3d_flags>
0

> <s_epik_input>
Tz1DMVtDSDJdTihbQ0gyXVtDSDJdW05IXTEpW0NIMl1bQ0gyXVtDSDJdW05IXUMoPU8pW05IXWMyW2NIXVtjSF1bY0hdW2NIXW4y

> <s_epik_cmdline>
J2VwaWtfcHl0aG9uJywgJy1waCcsICc3LjAnLCAnLXRuJywgJzgnLCAnLW1hJywgJzIwMCcsICctbWV0YWxfYmluZGluZycsICctaW1hZScsICc8aW5maWxlLm1hZT4nLCAnLW9tYWUnLCAnPG91dGZpbGUubWFlPic=

> <r_epik_Ionization_Penalty>
0.11034

> <r_epik_Ionization_Penalty_Charging>
0.110189

> <r_epik_Ionization_Penalty_Neutral>
0.000150894

> <r_epik_State_Penalty>
0.0999426

> <r_epik_Charging_Adjusted_Penalty>
0.210132

> <i_epik_Tot_Q>
1

> <i_epik_Tot_abs_Q>
1

> <r_epik_Metal_State_Penalty>
0.172915

> <b_epik_Metal_Only>
0

> <s_lp_Force_Field>
OPLS_2005

> <r_lp_Energy>
23.7119

> <b_lp_Chiralities_Consistent>
1

> <s_lp_Variant>
AV-unprocessed.smi:2858-1

> <Gold.Version>
5.8.1

> <Gold.Id.Protein>
6NUR|6NUR_protein|mol2

> <Gold.PLP.Fitness>
49.4179

> <Gold.PLP.PLP>
-35.9515

> <Gold.PLP.part.hbond>
-5.0000

> <Gold.PLP.part.metal>
0.0000

> <Gold.PLP.part.buried>
-1.1773

> <Gold.PLP.part.nonpolar>
-30.4725

> <Gold.PLP.part.repulsive>
0.5310

> <Gold.PLP.ligand.clash>
0.0000

> <Gold.PLP.ligand.torsion>
0.7698

> <Gold.PLP.Chemscore.Hbond>
4.9920

> <Gold.PLP.Chemscore.CHOScore>
0.0000

> <Gold.PLP.Chemscore.Metal>
0.0000

> <Gold.Chemscore.Hbonds>
donor molecule, donor type, donor heavy atom, donor atom, acceptor molecule, acceptor atom, score
      L1  H     4    40       P1  7948  2.00
      L1  H     8    29       P1  8028  1.00
      L1  H    11    30       P1  8028  1.00
      L1  H    20    39       P1 10171  0.80

> <Gold.PLP.Chemscore.Internal.Correction>
0.0299

> <Gold.Rescore>
     Score         DG    S(hbond)    S(metal)    S(lipo)     H(rot)  DE(clash)    DE(int)     intcor
     19.18     -23.20       3.88        0.00      86.25       2.08       1.80       2.22       ----

> <Gold.Chemscore.Fitness>
19.1787

> <Gold.Chemscore.DG>
-23.1971

> <Gold.Chemscore.ZeroCoef>
-5.4800

> <Gold.Chemscore.Hbond>
3.8756

> <Gold.Chemscore.Metal>
0.0000

> <Gold.Chemscore.Lipo>
86.2513

> <Gold.Chemscore.Internal_Hbond>
0.0000

> <Gold.Chemscore.DEClash>
1.7953

> <Gold.Chemscore.DEInternal>
2.2232

> <Gold.Chemscore.Rot>
2.0777

> <Gold.Chemscore.Internal.Correction>
   9.000000E+99

> <Gold.Chemscore.Hbonds>
donor molecule, donor type, donor heavy atom, donor atom, acceptor molecule, acceptor atom, score
      L1  H     4    40       P1  7948  1.00
      L1  H     8    29       P1  8028  0.98
      L1  H    11    30       P1  8028  0.97
      L1  H    20    39       P1 10171  0.79

> <Gold.Chemscore.Hbond.Weighted>
-12.9445

> <Gold.Chemscore.Metal.Weighted>
-0.0000

> <Gold.Chemscore.Lipo.Weighted>
-10.0914

> <Gold.Chemscore.Internal_Hbond.Weighted>
0.0000

> <Gold.Chemscore.DEClash.Weighted>
1.7953

> <Gold.Chemscore.DEInternal.Weighted>
2.2232

> <Gold.Chemscore.Rot.Weighted>
5.3188

> <Gold.Chemscore.Internal.Correction.Weighted>
   9.000000E+99

> <Gold.Protein.RotatedTorsions>
[ 6907 6896 6895 6894 ] final  113.90 input  -60.11 | X-H torsion
[ 7974 7965 7964 7962 ] final    9.68 input  175.53 | X-H torsion
[ 8008 7997 7996 7995 ] final -179.11 input   59.86 | X-H torsion
[ 10167 10162 10161 10158 ] final    0.72 input  -65.29 | X-H torsion
[ 10718 10713 10712 10709 ] final  129.67 input   66.30 | X-H torsion
[ 10763 10752 10751 10750 ] final -163.43 input  -60.55 | X-H torsion
[ 11005 11000 10999 10996 ] final  -16.40 input  -57.11 | X-H torsion

> <Gold.Protein.ActiveResidues>
 VAL166  LYS551  ARG553  GLY616  TRP617  ASP618  TYR619  PRO620  LYS621  CYS622 
 ASP623  PHE694  ASN695  SER759  ASP760  ASP761  ALA762  ILE779  LEU786  VAL792 
 PHE793  MET794  SER795  GLU796  ALA797  LYS798  CYS799  TRP800  GLU811  SER814 

> <Gold.Protein.RotatedAtoms>
  152.4834  133.8311  159.7103 H   0  0  0  0  0  0  0  0  0  0  0  0  # atno 6907 bound_to 6896
  150.8901  133.7245  159.2914 H   0  0  0  0  0  0  0  0  0  0  0  0  # atno 6908 bound_to 6896
  151.4721  135.1050  159.9806 H   0  0  0  0  0  0  0  0  0  0  0  0  # atno 6909 bound_to 6896
  146.2400  139.9747  142.8443 H   0  0  0  0  0  0  0  0  0  0  0  0  # atno 7974 bound_to 7965
  156.0267  140.1273  157.0301 H   0  0  0  0  0  0  0  0  0  0  0  0  # atno 8008 bound_to 7997
  154.4333  140.1058  156.6111 H   0  0  0  0  0  0  0  0  0  0  0  0  # atno 8009 bound_to 7997
  155.5867  140.3469  155.4557 H   0  0  0  0  0  0  0  0  0  0  0  0  # atno 8010 bound_to 7997
  140.6716  143.7033  150.7934 H   0  0  0  0  0  0  0  0  0  0  0  0  # atno 10167 bound_to 10162
  157.5133  131.1097  150.9261 H   0  0  0  0  0  0  0  0  0  0  0  0  # atno 10718 bound_to 10713
  154.7123  135.3008  154.9178 H   0  0  0  0  0  0  0  0  0  0  0  0  # atno 10763 bound_to 10752
  154.0076  135.6699  153.4767 H   0  0  0  0  0  0  0  0  0  0  0  0  # atno 10764 bound_to 10752
  153.0765  135.5032  154.8328 H   0  0  0  0  0  0  0  0  0  0  0  0  # atno 10765 bound_to 10752
  140.8064  133.8174  155.9520 H   0  0  0  0  0  0  0  0  0  0  0  0  # atno 11005 bound_to 11000
  145.1648  140.9691  143.4356 LP  0  0  0  0  0  0  0  0  0  0  0  0  # atno 17320 bound_to 7965
  145.0082  139.3534  143.6133 LP  0  0  0  0  0  0  0  0  0  0  0  0  # atno 17321 bound_to 7965
  140.0719  143.5052  152.2575 LP  0  0  0  0  0  0  0  0  0  0  0  0  # atno 17342 bound_to 10162
  139.5987  144.7575  151.3224 LP  0  0  0  0  0  0  0  0  0  0  0  0  # atno 17343 bound_to 10162
  156.9894  130.5557  149.5302 LP  0  0  0  0  0  0  0  0  0  0  0  0  # atno 17370 bound_to 10713
  156.0303  130.5395  150.8517 LP  0  0  0  0  0  0  0  0  0  0  0  0  # atno 17371 bound_to 10713
  140.9242  134.2103  157.4906 LP  0  0  0  0  0  0  0  0  0  0  0  0  # atno 17394 bound_to 11000
  139.8717  134.9805  156.5080 LP  0  0  0  0  0  0  0  0  0  0  0  0  # atno 17395 bound_to 11000

$$$$
