AV-unprocessed.smi:1600|AV-procd|sdf|6430|dock8
  -GOLD-   22720 7 73D 1   1.00000     0.00000
 Structure written by MMmdl.
 46 47  0  0  0  0  0  0  0  0  2 V2000
  146.9163  142.4022  154.2229 C   0  0  0  0  0  0  0  0  0  0  0  0
  146.6776  140.9398  153.9887 C   0  0  0  0  0  0  0  0  0  0  0  0
  147.1238  140.1426  152.8947 C   0  0  0  0  0  0  0  0  0  0  0  0
  146.6226  138.9064  153.1990 C   0  0  0  0  0  0  0  0  0  0  0  0
  146.7401  137.7419  152.5071 N   0  0  0  0  0  0  0  0  0  0  0  0
  145.7848  136.8465  152.2012 C   0  0  0  0  0  0  0  0  0  0  0  0
  144.5968  136.9361  152.5109 O   0  0  0  0  0  0  0  0  0  0  0  0
  146.2894  135.8211  151.4994 N   0  0  0  0  0  0  0  0  0  0  0  0
  145.5344  134.6671  151.0194 C   0  0  0  0  0  0  0  0  0  0  0  0
  145.7644  133.4204  151.8951 C   0  0  1  0  0  0  0  0  0  0  0  0
  145.4145  132.1069  151.2039 C   0  0  0  0  0  0  0  0  0  0  0  0
  146.1744  131.0835  152.0401 C   0  0  0  0  0  0  0  0  0  0  0  0
  147.4575  131.7372  152.3823 N   0  3  2  0  0  0  0  0  0  0  0  0
  148.1411  131.2212  153.6020 C   0  0  0  0  0  0  0  0  0  0  0  0
  149.3573  132.0937  153.9668 C   0  0  0  0  0  0  0  0  0  0  0  0
  148.5961  129.7592  153.4264 C   0  0  0  0  0  0  0  0  0  0  0  0
  147.2149  133.2026  152.3611 C   0  0  0  0  0  0  0  0  0  0  0  0
  145.9334  138.9862  154.3888 N   0  0  0  0  0  0  0  0  0  0  0  0
  145.2333  137.9479  155.1199 C   0  0  0  0  0  0  0  0  0  0  0  0
  145.9700  140.2461  154.8735 N   0  0  0  0  0  0  0  0  0  0  0  0
  147.6832  142.7882  153.5507 H   0  0  0  0  0  0  0  0  0  0  0  0
  147.2473  142.5903  155.2448 H   0  0  0  0  0  0  0  0  0  0  0  0
  146.0064  142.9785  154.0544 H   0  0  0  0  0  0  0  0  0  0  0  0
  147.7121  140.4478  152.0426 H   0  0  0  0  0  0  0  0  0  0  0  0
  147.6733  137.5238  152.1902 H   0  0  0  0  0  0  0  0  0  0  0  0
  147.2780  135.8312  151.2934 H   0  0  0  0  0  0  0  0  0  0  0  0
  144.4781  134.9358  151.0423 H   0  0  0  0  0  0  0  0  0  0  0  0
  145.7698  134.4534  149.9755 H   0  0  0  0  0  0  0  0  0  0  0  0
  145.1344  133.4974  152.7831 H   0  0  0  0  0  0  0  0  0  0  0  0
  144.3415  131.9147  151.1748 H   0  0  0  0  0  0  0  0  0  0  0  0
  145.7884  132.1020  150.1787 H   0  0  0  0  0  0  0  0  0  0  0  0
  145.6127  130.8705  152.9515 H   0  0  0  0  0  0  0  0  0  0  0  0
  146.3265  130.1452  151.5056 H   0  0  0  0  0  0  0  0  0  0  0  0
  147.4302  131.2567  154.4290 H   0  0  0  0  0  0  0  0  0  0  0  0
  149.8670  131.7023  154.8480 H   0  0  0  0  0  0  0  0  0  0  0  0
  149.0771  133.1216  154.1956 H   0  0  0  0  0  0  0  0  0  0  0  0
  150.0824  132.1210  153.1525 H   0  0  0  0  0  0  0  0  0  0  0  0
  149.1403  129.4122  154.3053 H   0  0  0  0  0  0  0  0  0  0  0  0
  149.2573  129.6502  152.5658 H   0  0  0  0  0  0  0  0  0  0  0  0
  147.7542  129.0803  153.2912 H   0  0  0  0  0  0  0  0  0  0  0  0
  147.9297  133.6442  151.6667 H   0  0  0  0  0  0  0  0  0  0  0  0
  147.3663  133.6700  153.3349 H   0  0  0  0  0  0  0  0  0  0  0  0
  145.9540  137.2361  155.5231 H   0  0  0  0  0  0  0  0  0  0  0  0
  144.5501  137.4239  154.4512 H   0  0  0  0  0  0  0  0  0  0  0  0
  144.6597  138.3771  155.9423 H   0  0  0  0  0  0  0  0  0  0  0  0
  148.0735  131.5516  151.6036 H   0  0  0  0  0  0  0  0  0  0  0  0
  1  2  1  0  0  0  0
  1 21  1  0  0  0  0
  1 22  1  0  0  0  0
  1 23  1  0  0  0  0
  2 20  2  0  0  0  0
  2  3  1  0  0  0  0
  3  4  2  0  0  0  0
  3 24  1  0  0  0  0
  4  5  1  0  0  0  0
  4 18  1  0  0  0  0
  5  6  1  0  0  0  0
  5 25  1  0  0  0  0
  6  7  2  0  0  0  0
  6  8  1  0  0  0  0
  8  9  1  0  0  0  0
  8 26  1  0  0  0  0
  9 10  1  0  0  0  0
  9 27  1  0  0  0  0
  9 28  1  0  0  0  0
 10 17  1  0  0  0  0
 10 11  1  0  0  0  0
 10 29  1  0  0  0  0
 11 12  1  0  0  0  0
 11 30  1  0  0  0  0
 11 31  1  0  0  0  0
 12 13  1  0  0  0  0
 12 32  1  0  0  0  0
 12 33  1  0  0  0  0
 13 14  1  0  0  0  0
 13 17  1  0  0  0  0
 13 46  1  0  0  0  0
 14 15  1  0  0  0  0
 14 16  1  0  0  0  0
 14 34  1  0  0  0  0
 15 35  1  0  0  0  0
 15 36  1  0  0  0  0
 15 37  1  0  0  0  0
 16 38  1  0  0  0  0
 16 39  1  0  0  0  0
 16 40  1  0  0  0  0
 17 41  1  0  0  0  0
 17 42  1  0  0  0  0
 18 19  1  0  0  0  0
 18 20  1  0  0  0  0
 19 43  1  0  0  0  0
 19 44  1  0  0  0  0
 19 45  1  0  0  0  0
M  CHG  1  13   1
M  END
> <s_m_source_file>
AV-unprocessed.smi

> <i_m_source_file_index>
1600

> <i_lp_mmshare_version>
43012

> <i_f3d_flags>
0

> <s_epik_input>
W0NIM11jMVtjSF1jKG4objEpW0NIM10pW05IXUMoPU8pW05IXVtDSDJdW0NAQEhdMltDSDJdW0NIMl1OKFtDSDJdMilbQ0hdKFtDSDNdKVtDSDNd

> <s_epik_cmdline>
J2VwaWtfcHl0aG9uJywgJy1waCcsICc3LjAnLCAnLXRuJywgJzgnLCAnLW1hJywgJzIwMCcsICctbWV0YWxfYmluZGluZycsICctaW1hZScsICc8aW5maWxlLm1hZT4nLCAnLW9tYWUnLCAnPG91dGZpbGUubWFlPic=

> <r_lp_tautomer_probability>
1

> <r_epik_Ionization_Penalty>
0.000297652

> <r_epik_Ionization_Penalty_Charging>
0.000213653

> <r_epik_Ionization_Penalty_Neutral>
8.3999e-05

> <r_epik_State_Penalty>
-0

> <r_epik_Charging_Adjusted_Penalty>
0.000213653

> <i_epik_Tot_Q>
1

> <i_epik_Tot_abs_Q>
1

> <r_epik_Metal_State_Penalty>
-0

> <b_epik_Metal_Only>
0

> <s_lp_Force_Field>
OPLS_2005

> <r_lp_Energy>
32.7515

> <b_lp_Chiralities_Consistent>
1

> <s_lp_Variant>
AV-unprocessed.smi:1600-4

> <Gold.Version>
5.8.1

> <Gold.Id.Protein>
6NUR|6NUR_protein|mol2

> <Gold.PLP.Fitness>
39.8781

> <Gold.PLP.PLP>
-32.5021

> <Gold.PLP.part.hbond>
-3.0000

> <Gold.PLP.part.metal>
0.0000

> <Gold.PLP.part.buried>
-4.4394

> <Gold.PLP.part.nonpolar>
-27.2806

> <Gold.PLP.part.repulsive>
0.4320

> <Gold.PLP.ligand.clash>
0.0000

> <Gold.PLP.ligand.torsion>
0.7939

> <Gold.PLP.Chemscore.Hbond>
2.9760

> <Gold.PLP.Chemscore.CHOScore>
0.0000

> <Gold.PLP.Chemscore.Metal>
0.0000

> <Gold.Chemscore.Hbonds>
donor molecule, donor type, donor heavy atom, donor atom, acceptor molecule, acceptor atom, score
      L1  H     5    25       P1  7948  0.98
      L1  H     8    26       P1  7948  0.99
      L1  H    13    46       P1 10747  1.00

> <Gold.PLP.Chemscore.Internal.Correction>
0.0359

> <Gold.Rescore>
     Score         DG    S(hbond)    S(metal)    S(lipo)     H(rot)  DE(clash)    DE(int)     intcor
     18.73     -19.56       2.93        0.00      68.22       1.44       0.07       0.77       ----

> <Gold.Chemscore.Fitness>
18.7272

> <Gold.Chemscore.DG>
-19.5585

> <Gold.Chemscore.ZeroCoef>
-5.4800

> <Gold.Chemscore.Hbond>
2.9269

> <Gold.Chemscore.Metal>
0.0000

> <Gold.Chemscore.Lipo>
68.2156

> <Gold.Chemscore.Internal_Hbond>
0.0000

> <Gold.Chemscore.DEClash>
0.0657

> <Gold.Chemscore.DEInternal>
0.7656

> <Gold.Chemscore.Rot>
1.4369

> <Gold.Chemscore.Internal.Correction>
   9.000000E+99

> <Gold.Chemscore.Hbonds>
donor molecule, donor type, donor heavy atom, donor atom, acceptor molecule, acceptor atom, score
      L1  H     5    25       P1  7948  0.93
      L1  H     8    26       P1  7948  0.91
      L1  H    13    46       P1 10747  1.00

> <Gold.Chemscore.Hbond.Weighted>
-9.7758

> <Gold.Chemscore.Metal.Weighted>
-0.0000

> <Gold.Chemscore.Lipo.Weighted>
-7.9812

> <Gold.Chemscore.Internal_Hbond.Weighted>
0.0000

> <Gold.Chemscore.DEClash.Weighted>
0.0657

> <Gold.Chemscore.DEInternal.Weighted>
0.7656

> <Gold.Chemscore.Rot.Weighted>
3.6785

> <Gold.Chemscore.Internal.Correction.Weighted>
   9.000000E+99

> <Gold.Protein.RotatedTorsions>
[ 6907 6896 6895 6894 ] final -101.41 input  -60.11 | X-H torsion
[ 7974 7965 7964 7962 ] final -165.76 input  175.53 | X-H torsion
[ 8008 7997 7996 7995 ] final  -81.29 input   59.86 | X-H torsion
[ 10167 10162 10161 10158 ] final  135.31 input  -65.29 | X-H torsion
[ 10718 10713 10712 10709 ] final  -60.85 input   66.30 | X-H torsion
[ 10763 10752 10751 10750 ] final    5.76 input  -60.55 | X-H torsion
[ 11005 11000 10999 10996 ] final -116.09 input  -57.11 | X-H torsion

> <Gold.Protein.ActiveResidues>
 VAL166  LYS551  ARG553  GLY616  TRP617  ASP618  TYR619  PRO620  LYS621  CYS622 
 ASP623  PHE694  ASN695  SER759  ASP760  ASP761  ALA762  ILE779  LEU786  VAL792 
 PHE793  MET794  SER795  GLU796  ALA797  LYS798  CYS799  TRP800  GLU811  SER814 

> <Gold.Protein.RotatedAtoms>
  150.7154  134.0738  159.3873 H   0  0  0  0  0  0  0  0  0  0  0  0  # atno 6907 bound_to 6896
  151.8721  135.0483  160.0489 H   0  0  0  0  0  0  0  0  0  0  0  0  # atno 6908 bound_to 6896
  152.2635  133.5283  159.5432 H   0  0  0  0  0  0  0  0  0  0  0  0  # atno 6909 bound_to 6896
  144.7262  140.2766  143.6242 H   0  0  0  0  0  0  0  0  0  0  0  0  # atno 7974 bound_to 7965
  154.5968  140.0650  156.9315 H   0  0  0  0  0  0  0  0  0  0  0  0  # atno 8008 bound_to 7997
  155.2200  140.3329  155.4298 H   0  0  0  0  0  0  0  0  0  0  0  0  # atno 8009 bound_to 7997
  156.2292  140.1833  156.7269 H   0  0  0  0  0  0  0  0  0  0  0  0  # atno 8010 bound_to 7997
  139.5222  144.6523  151.5265 H   0  0  0  0  0  0  0  0  0  0  0  0  # atno 10167 bound_to 10162
  156.0962  130.4192  150.0912 H   0  0  0  0  0  0  0  0  0  0  0  0  # atno 10718 bound_to 10713
  153.2556  135.6918  153.7633 H   0  0  0  0  0  0  0  0  0  0  0  0  # atno 10763 bound_to 10752
  153.6711  135.3344  155.3154 H   0  0  0  0  0  0  0  0  0  0  0  0  # atno 10764 bound_to 10752
  154.8411  135.4500  154.1528 H   0  0  0  0  0  0  0  0  0  0  0  0  # atno 10765 bound_to 10752
  141.0445  133.9784  157.2941 H   0  0  0  0  0  0  0  0  0  0  0  0  # atno 11005 bound_to 11000
  145.7991  139.1957  143.2058 LP  0  0  0  0  0  0  0  0  0  0  0  0  # atno 17320 bound_to 7965
  146.0692  140.7888  142.9696 LP  0  0  0  0  0  0  0  0  0  0  0  0  # atno 17321 bound_to 7965
  140.6334  143.9032  150.6625 LP  0  0  0  0  0  0  0  0  0  0  0  0  # atno 17342 bound_to 10162
  140.2344  143.3711  152.1539 LP  0  0  0  0  0  0  0  0  0  0  0  0  # atno 17343 bound_to 10162
  156.8910  130.9588  151.3588 LP  0  0  0  0  0  0  0  0  0  0  0  0  # atno 17370 bound_to 10713
  157.6123  130.8592  149.8972 LP  0  0  0  0  0  0  0  0  0  0  0  0  # atno 17371 bound_to 10713
  139.9301  135.0200  156.8370 LP  0  0  0  0  0  0  0  0  0  0  0  0  # atno 17394 bound_to 11000
  140.6173  134.0027  155.7603 LP  0  0  0  0  0  0  0  0  0  0  0  0  # atno 17395 bound_to 11000

$$$$
