AV-unprocessed.smi:2482|AV-procd|sdf|9783|dock1
  -GOLD-   2272013423D 1   1.00000     0.00000
 Structure written by MMmdl.
 34 35  0  0  0  0  0  0  0  0  3 V2000
  153.6609  142.1694  162.5016 C   0  0  0  0  0  0  0  0  0  0  0  0
  153.1270  142.2172  161.0820 C   0  0  0  0  0  0  0  0  0  0  0  0
  152.5478  143.3811  160.7169 N   0  0  0  0  0  0  0  0  0  0  0  0
  152.0539  143.4714  159.4663 C   0  0  0  0  0  0  0  0  0  0  0  0
  152.1164  142.4195  158.5331 C   0  0  0  0  0  0  0  0  0  0  0  0
  152.7268  141.1988  158.8981 C   0  0  0  0  0  0  0  0  0  0  0  0
  152.7882  140.1842  158.0198 N   0  5  0  0  0  0  0  0  0  0  0  0
  151.6996  139.8634  157.2795 C   0  0  0  0  0  0  0  0  0  0  0  0
  150.8359  139.0154  157.5144 O   0  0  0  0  0  0  0  0  0  0  0  0
  151.6134  140.7233  155.9985 C   0  0  2  0  0  0  0  0  0  0  0  0
  150.3166  141.5580  155.8732 C   0  0  0  0  0  0  0  0  0  0  0  0
  149.1453  140.6885  155.6106 N   0  3  1  0  0  0  0  0  0  0  0  0
  147.8755  141.4426  155.5523 C   0  0  0  0  0  0  0  0  0  0  0  0
  149.3703  139.8493  154.4121 C   0  0  0  0  0  0  0  0  0  0  0  0
  150.6658  139.0360  154.5656 C   0  0  0  0  0  0  0  0  0  0  0  0
  151.7576  139.9184  154.8217 O   0  0  0  0  0  0  0  0  0  0  0  0
  153.2398  141.1017  160.2179 C   0  0  0  0  0  0  0  0  0  0  0  0
  153.9949  139.6429  160.7729 Cl  0  0  0  0  0  0  0  0  0  0  0  0
  154.7354  141.9847  162.4963 H   0  0  0  0  0  0  0  0  0  0  0  0
  153.1754  141.3699  163.0619 H   0  0  0  0  0  0  0  0  0  0  0  0
  153.4826  143.1070  163.0296 H   0  0  0  0  0  0  0  0  0  0  0  0
  151.5931  144.4109  159.1999 H   0  0  0  0  0  0  0  0  0  0  0  0
  151.7006  142.5521  157.5448 H   0  0  0  0  0  0  0  0  0  0  0  0
  152.4565  141.4156  156.0231 H   0  0  0  0  0  0  0  0  0  0  0  0
  150.1502  142.1407  156.7807 H   0  0  0  0  0  0  0  0  0  0  0  0
  150.4217  142.2765  155.0589 H   0  0  0  0  0  0  0  0  0  0  0  0
  147.8788  142.1520  154.7238 H   0  0  0  0  0  0  0  0  0  0  0  0
  147.7157  141.9964  156.4780 H   0  0  0  0  0  0  0  0  0  0  0  0
  147.0320  140.7646  155.4202 H   0  0  0  0  0  0  0  0  0  0  0  0
  148.5250  139.1752  154.2682 H   0  0  0  0  0  0  0  0  0  0  0  0
  149.4303  140.4839  153.5265 H   0  0  0  0  0  0  0  0  0  0  0  0
  150.5669  138.2902  155.3553 H   0  0  0  0  0  0  0  0  0  0  0  0
  150.8713  138.4866  153.6469 H   0  0  0  0  0  0  0  0  0  0  0  0
  149.0753  140.0588  156.3981 H   0  0  0  0  0  0  0  0  0  0  0  0
  1  2  1  0  0  0  0
  1 19  1  0  0  0  0
  1 20  1  0  0  0  0
  1 21  1  0  0  0  0
  2 17  1  0  0  0  0
  2  3  2  0  0  0  0
  3  4  1  0  0  0  0
  4  5  2  0  0  0  0
  4 22  1  0  0  0  0
  5  6  1  0  0  0  0
  5 23  1  0  0  0  0
  6  7  1  0  0  0  0
  6 17  2  0  0  0  0
  7  8  1  0  0  0  0
  8  9  2  0  0  0  0
  8 10  1  0  0  0  0
 10 16  1  0  0  0  0
 10 11  1  0  0  0  0
 10 24  1  0  0  0  0
 11 12  1  0  0  0  0
 11 25  1  0  0  0  0
 11 26  1  0  0  0  0
 12 13  1  0  0  0  0
 12 14  1  0  0  0  0
 12 34  1  0  0  0  0
 13 27  1  0  0  0  0
 13 28  1  0  0  0  0
 13 29  1  0  0  0  0
 14 15  1  0  0  0  0
 14 30  1  0  0  0  0
 14 31  1  0  0  0  0
 15 16  1  0  0  0  0
 15 32  1  0  0  0  0
 15 33  1  0  0  0  0
 17 18  1  0  0  0  0
M  CHG  1   7  -1
M  CHG  1  12   1
M  END
> <s_m_source_file>
AV-unprocessed.smi

> <i_m_source_file_index>
2482

> <i_lp_mmshare_version>
43012

> <i_f3d_flags>
0

> <s_epik_input>
W0NIM11jMW5bY0hdW2NIXWMoYzFDbClbTkhdQyg9TylbQ0BASF0yW0NIMl1OKFtDSDNdKVtDSDJdW0NIMl1PMg==

> <s_epik_cmdline>
J2VwaWtfcHl0aG9uJywgJy1waCcsICc3LjAnLCAnLXRuJywgJzgnLCAnLW1hJywgJzIwMCcsICctbWV0YWxfYmluZGluZycsICctaW1hZScsICc8aW5maWxlLm1hZT4nLCAnLW9tYWUnLCAnPG91dGZpbGUubWFlPic=

> <r_epik_Ionization_Penalty>
6.9249

> <r_epik_Ionization_Penalty_Charging>
6.74596

> <r_epik_Ionization_Penalty_Neutral>
0.178941

> <r_epik_State_Penalty>
6.78185

> <r_epik_Charging_Adjusted_Penalty>
13.5278

> <i_epik_Tot_Q>
0

> <i_epik_Tot_abs_Q>
2

> <r_epik_Metal_State_Penalty>
2.70608

> <b_epik_Metal_Only>
1

> <s_lp_Force_Field>
OPLS_2005

> <r_lp_Energy>
12.3895

> <b_lp_Chiralities_Consistent>
1

> <s_lp_Variant>
AV-unprocessed.smi:2482-9

> <Gold.Version>
5.8.1

> <Gold.Id.Protein>
6NUR|6NUR_protein|mol2

> <Gold.PLP.Fitness>
45.3605

> <Gold.PLP.PLP>
-38.2343

> <Gold.PLP.part.hbond>
-2.0000

> <Gold.PLP.part.metal>
0.0000

> <Gold.PLP.part.buried>
-4.6665

> <Gold.PLP.part.nonpolar>
-30.3806

> <Gold.PLP.part.repulsive>
0.1756

> <Gold.PLP.ligand.clash>
0.0000

> <Gold.PLP.ligand.torsion>
1.1445

> <Gold.PLP.Chemscore.Hbond>
2.9760

> <Gold.PLP.Chemscore.CHOScore>
0.0000

> <Gold.PLP.Chemscore.Metal>
0.0000

> <Gold.Chemscore.Hbonds>
donor molecule, donor type, donor heavy atom, donor atom, acceptor molecule, acceptor atom, score
      P1  H  7989  7998       L1    16  1.00
      P1  H  7997  8010       L1     7  1.90

> <Gold.PLP.Chemscore.Internal.Correction>
0.4873

> <Gold.Rescore>
     Score         DG    S(hbond)    S(metal)    S(lipo)     H(rot)  DE(clash)    DE(int)     intcor
     16.65     -19.31       1.44        0.00      98.96       1.00       0.14       2.52       ----

> <Gold.Chemscore.Fitness>
16.6473

> <Gold.Chemscore.DG>
-19.3064

> <Gold.Chemscore.ZeroCoef>
-5.4800

> <Gold.Chemscore.Hbond>
1.4395

> <Gold.Chemscore.Metal>
0.0000

> <Gold.Chemscore.Lipo>
98.9619

> <Gold.Chemscore.Internal_Hbond>
0.0000

> <Gold.Chemscore.DEClash>
0.1386

> <Gold.Chemscore.DEInternal>
2.5205

> <Gold.Chemscore.Rot>
1.0000

> <Gold.Chemscore.Internal.Correction>
   9.000000E+99

> <Gold.Chemscore.Hbonds>
donor molecule, donor type, donor heavy atom, donor atom, acceptor molecule, acceptor atom, score
      P1  H  7989  7998       L1    16  0.18
      P1  H  7997  8010       L1     7  0.66

> <Gold.Chemscore.Hbond.Weighted>
-4.8078

> <Gold.Chemscore.Metal.Weighted>
-0.0000

> <Gold.Chemscore.Lipo.Weighted>
-11.5785

> <Gold.Chemscore.Internal_Hbond.Weighted>
0.0000

> <Gold.Chemscore.DEClash.Weighted>
0.1386

> <Gold.Chemscore.DEInternal.Weighted>
2.5205

> <Gold.Chemscore.Rot.Weighted>
2.5600

> <Gold.Chemscore.Internal.Correction.Weighted>
   9.000000E+99

> <Gold.Protein.RotatedTorsions>
[ 6907 6896 6895 6894 ] final   90.88 input  -60.11 | X-H torsion
[ 7974 7965 7964 7962 ] final   75.63 input  175.53 | X-H torsion
[ 8008 7997 7996 7995 ] final   39.87 input   59.86 | X-H torsion
[ 10167 10162 10161 10158 ] final -125.20 input  -65.29 | X-H torsion
[ 10718 10713 10712 10709 ] final  -54.21 input   66.30 | X-H torsion
[ 10763 10752 10751 10750 ] final  -55.01 input  -60.55 | X-H torsion
[ 11005 11000 10999 10996 ] final -148.25 input  -57.11 | X-H torsion

> <Gold.Protein.ActiveResidues>
 VAL166  LYS551  ARG553  GLY616  TRP617  ASP618  TYR619  PRO620  LYS621  CYS622 
 ASP623  PHE694  ASN695  SER759  ASP760  ASP761  ALA762  ILE779  LEU786  VAL792 
 PHE793  MET794  SER795  GLU796  ALA797  LYS798  CYS799  TRP800  GLU811  SER814 

> <Gold.Protein.RotatedAtoms>
  152.5447  134.1744  159.8609 H   0  0  0  0  0  0  0  0  0  0  0  0  # atno 6907 bound_to 6896
  151.1751  133.4753  159.2601 H   0  0  0  0  0  0  0  0  0  0  0  0  # atno 6908 bound_to 6896
  151.1235  135.0103  159.8605 H   0  0  0  0  0  0  0  0  0  0  0  0  # atno 6909 bound_to 6896
  145.7131  139.2621  143.1639 H   0  0  0  0  0  0  0  0  0  0  0  0  # atno 7974 bound_to 7965
  155.2438  140.3347  155.4289 H   0  0  0  0  0  0  0  0  0  0  0  0  # atno 8008 bound_to 7997
  156.2244  140.1823  156.7442 H   0  0  0  0  0  0  0  0  0  0  0  0  # atno 8009 bound_to 7997
  154.5876  140.0643  156.9178 H   0  0  0  0  0  0  0  0  0  0  0  0  # atno 8010 bound_to 7997
  139.9847  143.5705  152.2365 H   0  0  0  0  0  0  0  0  0  0  0  0  # atno 10167 bound_to 10162
  156.1470  130.4152  150.0007 H   0  0  0  0  0  0  0  0  0  0  0  0  # atno 10718 bound_to 10713
  154.1839  135.6438  153.5041 H   0  0  0  0  0  0  0  0  0  0  0  0  # atno 10763 bound_to 10752
  153.0052  135.5412  154.6485 H   0  0  0  0  0  0  0  0  0  0  0  0  # atno 10764 bound_to 10752
  154.5856  135.2929  155.0660 H   0  0  0  0  0  0  0  0  0  0  0  0  # atno 10765 bound_to 10752
  140.7632  134.3274  157.5096 H   0  0  0  0  0  0  0  0  0  0  0  0  # atno 11005 bound_to 11000
  146.0694  140.7885  142.9695 LP  0  0  0  0  0  0  0  0  0  0  0  0  # atno 17320 bound_to 7965
  144.6936  140.3319  143.7214 LP  0  0  0  0  0  0  0  0  0  0  0  0  # atno 17321 bound_to 7965
  139.6384  144.7652  151.2390 LP  0  0  0  0  0  0  0  0  0  0  0  0  # atno 17342 bound_to 10162
  140.7476  143.6359  150.8380 LP  0  0  0  0  0  0  0  0  0  0  0  0  # atno 17343 bound_to 10162
  156.7876  130.9244  151.3646 LP  0  0  0  0  0  0  0  0  0  0  0  0  # atno 17370 bound_to 10713
  157.6625  130.8978  149.9860 LP  0  0  0  0  0  0  0  0  0  0  0  0  # atno 17371 bound_to 10713
  139.8767  134.9215  156.3277 LP  0  0  0  0  0  0  0  0  0  0  0  0  # atno 17394 bound_to 11000
  140.9643  133.7368  156.0445 LP  0  0  0  0  0  0  0  0  0  0  0  0  # atno 17395 bound_to 11000

$$$$
