AV-unprocessed.smi:1275|AV-procd|sdf|5342|dock6
  -GOLD-   22720 4473D 1   1.00000     0.00000
 Structure written by MMmdl.
 42 43  0  0  0  0  0  0  0  0  1 V2000
  155.0240  143.2182  167.9735 C   0  0  0  0  0  0  0  0  0  0  0  0
  154.6482  142.7759  166.6813 O   0  0  0  0  0  0  0  0  0  0  0  0
  155.0423  143.6795  165.6624 C   0  0  0  0  0  0  0  0  0  0  0  0
  154.1850  143.4373  164.4168 C   0  0  0  0  0  0  0  0  0  0  0  0
  154.7725  142.3902  163.6501 O   0  0  0  0  0  0  0  0  0  0  0  0
  154.1058  141.9402  162.5292 C   0  0  0  0  0  0  0  0  0  0  0  0
  153.0263  142.7006  162.0373 C   0  0  0  0  0  0  0  0  0  0  0  0
  152.3443  142.2529  160.8897 C   0  0  0  0  0  0  0  0  0  0  0  0
  152.7708  141.0577  160.2637 C   0  0  0  0  0  0  0  0  0  0  0  0
  152.1548  140.4943  159.1140 N   0  0  0  0  0  0  0  0  0  0  0  0
  152.6878  139.6685  158.1920 C   0  0  0  0  0  0  0  0  0  0  0  0
  153.8568  139.2831  158.2252 O   0  0  0  0  0  0  0  0  0  0  0  0
  151.8245  139.2971  157.2126 N   0  0  0  0  0  0  0  0  0  0  0  0
  152.0780  138.3393  156.1263 C   0  0  0  0  0  0  0  0  0  0  0  0
  152.1405  139.1208  154.8020 C   0  0  0  0  0  0  0  0  0  0  0  0
  150.9209  139.8334  154.6076 O   0  0  0  0  0  0  0  0  0  0  0  0
  150.6223  140.7479  155.6615 C   0  0  1  0  0  0  0  0  0  0  0  0
  149.3069  141.4574  155.3224 C   0  0  0  0  0  0  0  0  0  0  0  0
  150.5423  139.9729  156.9925 C   0  0  0  0  0  0  0  0  0  0  0  0
  153.8490  140.3604  160.8462 C   0  0  0  0  0  0  0  0  0  0  0  0
  154.5087  140.7850  161.9444 N   0  0  0  0  0  0  0  0  0  0  0  0
  154.7012  142.4904  168.7176 H   0  0  0  0  0  0  0  0  0  0  0  0
  154.5584  144.1748  168.2136 H   0  0  0  0  0  0  0  0  0  0  0  0
  156.1065  143.3251  168.0548 H   0  0  0  0  0  0  0  0  0  0  0  0
  154.9475  144.7139  165.9965 H   0  0  0  0  0  0  0  0  0  0  0  0
  156.0919  143.5085  165.4189 H   0  0  0  0  0  0  0  0  0  0  0  0
  153.1820  143.1393  164.7266 H   0  0  0  0  0  0  0  0  0  0  0  0
  154.0979  144.3568  163.8355 H   0  0  0  0  0  0  0  0  0  0  0  0
  152.7243  143.6109  162.5336 H   0  0  0  0  0  0  0  0  0  0  0  0
  151.5053  142.8241  160.5241 H   0  0  0  0  0  0  0  0  0  0  0  0
  151.1664  140.6772  159.0193 H   0  0  0  0  0  0  0  0  0  0  0  0
  152.9882  137.7529  156.2482 H   0  0  0  0  0  0  0  0  0  0  0  0
  151.2645  137.6134  156.0921 H   0  0  0  0  0  0  0  0  0  0  0  0
  152.9830  139.8140  154.7978 H   0  0  0  0  0  0  0  0  0  0  0  0
  152.2851  138.4364  153.9662 H   0  0  0  0  0  0  0  0  0  0  0  0
  151.4165  141.4945  155.7183 H   0  0  0  0  0  0  0  0  0  0  0  0
  149.0402  142.1795  156.0946 H   0  0  0  0  0  0  0  0  0  0  0  0
  148.4863  140.7454  155.2314 H   0  0  0  0  0  0  0  0  0  0  0  0
  149.3870  141.9960  154.3779 H   0  0  0  0  0  0  0  0  0  0  0  0
  149.7442  139.2300  156.9527 H   0  0  0  0  0  0  0  0  0  0  0  0
  150.2774  140.6512  157.8047 H   0  0  0  0  0  0  0  0  0  0  0  0
  154.2002  139.4347  160.4139 H   0  0  0  0  0  0  0  0  0  0  0  0
  1  2  1  0  0  0  0
  1 22  1  0  0  0  0
  1 23  1  0  0  0  0
  1 24  1  0  0  0  0
  2  3  1  0  0  0  0
  3  4  1  0  0  0  0
  3 25  1  0  0  0  0
  3 26  1  0  0  0  0
  4  5  1  0  0  0  0
  4 27  1  0  0  0  0
  4 28  1  0  0  0  0
  5  6  1  0  0  0  0
  6 21  1  0  0  0  0
  6  7  2  0  0  0  0
  7  8  1  0  0  0  0
  7 29  1  0  0  0  0
  8  9  2  0  0  0  0
  8 30  1  0  0  0  0
  9 10  1  0  0  0  0
  9 20  1  0  0  0  0
 10 11  1  0  0  0  0
 10 31  1  0  0  0  0
 11 12  2  0  0  0  0
 11 13  1  0  0  0  0
 13 19  1  0  0  0  0
 13 14  1  0  0  0  0
 14 15  1  0  0  0  0
 14 32  1  0  0  0  0
 14 33  1  0  0  0  0
 15 16  1  0  0  0  0
 15 34  1  0  0  0  0
 15 35  1  0  0  0  0
 16 17  1  0  0  0  0
 17 18  1  0  0  0  0
 17 19  1  0  0  0  0
 17 36  1  0  0  0  0
 18 37  1  0  0  0  0
 18 38  1  0  0  0  0
 18 39  1  0  0  0  0
 19 40  1  0  0  0  0
 19 41  1  0  0  0  0
 20 21  2  0  0  0  0
 20 42  1  0  0  0  0
M  END
> <s_m_source_file>
AV-unprocessed.smi

> <i_m_source_file_index>
1275

> <i_lp_mmshare_version>
43012

> <i_f3d_flags>
0

> <s_epik_input>
W0NIM11PW0NIMl1bQ0gyXU9jMVtjSF1bY0hdYyhbY0hdbjEpW05IXUMoPU8pTjJbQ0gyXVtDSDJdT1tDQEBIXShbQ0gzXSlbQ0gyXTI=

> <s_epik_cmdline>
J2VwaWtfcHl0aG9uJywgJy1waCcsICc3LjAnLCAnLXRuJywgJzgnLCAnLW1hJywgJzIwMCcsICctbWV0YWxfYmluZGluZycsICctaW1hZScsICc8aW5maWxlLm1hZT4nLCAnLW9tYWUnLCAnPG91dGZpbGUubWFlPic=

> <r_lp_tautomer_probability>
1

> <r_epik_Ionization_Penalty>
5.69099e-05

> <r_epik_Ionization_Penalty_Charging>
0

> <r_epik_Ionization_Penalty_Neutral>
5.69099e-05

> <r_epik_State_Penalty>
-0

> <r_epik_Charging_Adjusted_Penalty>
0

> <i_epik_Tot_Q>
0

> <i_epik_Tot_abs_Q>
0

> <r_epik_Metal_State_Penalty>
-0

> <b_epik_Metal_Only>
0

> <s_lp_Force_Field>
OPLS_2005

> <r_lp_Energy>
32.9839

> <b_lp_Chiralities_Consistent>
1

> <s_lp_Variant>
AV-unprocessed.smi:1275-1

> <Gold.Version>
5.8.1

> <Gold.Id.Protein>
6NUR|6NUR_protein|mol2

> <Gold.PLP.Fitness>
46.2702

> <Gold.PLP.PLP>
-43.4190

> <Gold.PLP.part.hbond>
-4.1672

> <Gold.PLP.part.metal>
0.0000

> <Gold.PLP.part.buried>
-2.3369

> <Gold.PLP.part.nonpolar>
-35.7800

> <Gold.PLP.part.repulsive>
0.2808

> <Gold.PLP.ligand.clash>
1.3541

> <Gold.PLP.ligand.torsion>
0.5824

> <Gold.PLP.Chemscore.Hbond>
1.7500

> <Gold.PLP.Chemscore.CHOScore>
0.0000

> <Gold.PLP.Chemscore.Metal>
0.0000

> <Gold.Chemscore.Hbonds>
donor molecule, donor type, donor heavy atom, donor atom, acceptor molecule, acceptor atom, score
      P1  H  7989  7998       L1    16  0.60
      P1  H  7997  8009       L1    12  1.00

> <Gold.PLP.Chemscore.Internal.Correction>
0.1200

> <Gold.Rescore>
     Score         DG    S(hbond)    S(metal)    S(lipo)     H(rot)  DE(clash)    DE(int)     intcor
     12.26     -15.85       0.98        0.00      96.21       1.62       1.66       1.93       ----

> <Gold.Chemscore.Fitness>
12.2598

> <Gold.Chemscore.DG>
-15.8525

> <Gold.Chemscore.ZeroCoef>
-5.4800

> <Gold.Chemscore.Hbond>
0.9753

> <Gold.Chemscore.Metal>
0.0000

> <Gold.Chemscore.Lipo>
96.2099

> <Gold.Chemscore.Internal_Hbond>
0.0000

> <Gold.Chemscore.DEClash>
1.6634

> <Gold.Chemscore.DEInternal>
1.9294

> <Gold.Chemscore.Rot>
1.6178

> <Gold.Chemscore.Internal.Correction>
   9.000000E+99

> <Gold.Chemscore.Hbonds>
donor molecule, donor type, donor heavy atom, donor atom, acceptor molecule, acceptor atom, score
      P1  H  7989  7998       L1    16  0.01
      P1  H  7997  8009       L1    12  0.83

> <Gold.Chemscore.Hbond.Weighted>
-3.2576

> <Gold.Chemscore.Metal.Weighted>
-0.0000

> <Gold.Chemscore.Lipo.Weighted>
-11.2566

> <Gold.Chemscore.Internal_Hbond.Weighted>
0.0000

> <Gold.Chemscore.DEClash.Weighted>
1.6634

> <Gold.Chemscore.DEInternal.Weighted>
1.9294

> <Gold.Chemscore.Rot.Weighted>
4.1416

> <Gold.Chemscore.Internal.Correction.Weighted>
   9.000000E+99

> <Gold.Protein.RotatedTorsions>
[ 6907 6896 6895 6894 ] final   88.71 input  -60.11 | X-H torsion
[ 7974 7965 7964 7962 ] final -139.95 input  175.53 | X-H torsion
[ 8008 7997 7996 7995 ] final  140.43 input   59.86 | X-H torsion
[ 10167 10162 10161 10158 ] final   17.23 input  -65.29 | X-H torsion
[ 10718 10713 10712 10709 ] final  151.54 input   66.30 | X-H torsion
[ 10763 10752 10751 10750 ] final -155.50 input  -60.55 | X-H torsion
[ 11005 11000 10999 10996 ] final -168.05 input  -57.11 | X-H torsion

> <Gold.Protein.ActiveResidues>
 VAL166  LYS551  ARG553  GLY616  TRP617  ASP618  TYR619  PRO620  LYS621  CYS622 
 ASP623  PHE694  ASN695  SER759  ASP760  ASP761  ALA762  ILE779  LEU786  VAL792 
 PHE793  MET794  SER795  GLU796  ALA797  LYS798  CYS799  TRP800  GLU811  SER814 

> <Gold.Protein.RotatedAtoms>
  152.5428  134.2079  159.8737 H   0  0  0  0  0  0  0  0  0  0  0  0  # atno 6907 bound_to 6896
  151.2063  133.4574  159.2605 H   0  0  0  0  0  0  0  0  0  0  0  0  # atno 6908 bound_to 6896
  151.0940  134.9945  159.8472 H   0  0  0  0  0  0  0  0  0  0  0  0  # atno 6909 bound_to 6896
  144.8636  140.6258  143.5312 H   0  0  0  0  0  0  0  0  0  0  0  0  # atno 7974 bound_to 7965
  156.2979  140.2341  156.4400 H   0  0  0  0  0  0  0  0  0  0  0  0  # atno 8008 bound_to 7997
  154.8194  140.0438  157.1421 H   0  0  0  0  0  0  0  0  0  0  0  0  # atno 8009 bound_to 7997
  154.9332  140.3019  155.5161 H   0  0  0  0  0  0  0  0  0  0  0  0  # atno 8010 bound_to 7997
  140.5741  143.9106  150.6736 H   0  0  0  0  0  0  0  0  0  0  0  0  # atno 10167 bound_to 10162
  157.2694  131.0814  151.1610 H   0  0  0  0  0  0  0  0  0  0  0  0  # atno 10718 bound_to 10713
  154.7782  135.3166  154.8046 H   0  0  0  0  0  0  0  0  0  0  0  0  # atno 10763 bound_to 10752
  153.8764  135.6839  153.4774 H   0  0  0  0  0  0  0  0  0  0  0  0  # atno 10764 bound_to 10752
  153.1411  135.4738  154.9434 H   0  0  0  0  0  0  0  0  0  0  0  0  # atno 10765 bound_to 10752
  140.5464  134.5472  157.5112 H   0  0  0  0  0  0  0  0  0  0  0  0  # atno 11005 bound_to 11000
  145.4265  139.1555  143.4045 LP  0  0  0  0  0  0  0  0  0  0  0  0  # atno 17320 bound_to 7965
  146.2879  140.4379  142.8751 LP  0  0  0  0  0  0  0  0  0  0  0  0  # atno 17321 bound_to 7965
  140.2589  143.3538  152.1340 LP  0  0  0  0  0  0  0  0  0  0  0  0  # atno 17342 bound_to 10162
  139.5133  144.6930  151.5707 LP  0  0  0  0  0  0  0  0  0  0  0  0  # atno 17343 bound_to 10162
  157.3088  130.6879  149.6204 LP  0  0  0  0  0  0  0  0  0  0  0  0  # atno 17370 bound_to 10713
  155.9663  130.4370  150.5156 LP  0  0  0  0  0  0  0  0  0  0  0  0  # atno 17371 bound_to 10713
  139.9478  134.7672  156.0521 LP  0  0  0  0  0  0  0  0  0  0  0  0  # atno 17394 bound_to 11000
  141.1197  133.6616  156.3184 LP  0  0  0  0  0  0  0  0  0  0  0  0  # atno 17395 bound_to 11000

$$$$
