AV-unprocessed.smi:1473|AV-procd|sdf|5971|dock10
  -GOLD-   22720 6 63D 1   1.00000     0.00000
 Structure written by MMmdl.
 32 33  0  0  0  0  0  0  0  0  3 V2000
  155.5718  136.6430  155.5161 N   0  5  0  0  0  0  0  0  0  0  0  0
  154.6356  137.1684  156.7294 S   0  0  0  0  0  0  0  0  0  0  0  0
  153.8561  136.0460  157.2734 O   0  0  0  0  0  0  0  0  0  0  0  0
  155.4175  137.9276  157.7213 O   0  0  0  0  0  0  0  0  0  0  0  0
  153.6730  138.1193  155.8178 N   0  5  0  0  0  0  0  0  0  0  0  0
  152.2194  137.9764  155.8067 C   0  0  0  0  0  0  0  0  0  0  0  0
  151.5243  139.3261  155.9171 C   0  0  0  0  0  0  0  0  0  0  0  0
  150.5471  139.7148  154.9747 C   0  0  0  0  0  0  0  0  0  0  0  0
  149.9424  140.9764  155.1203 C   0  0  0  0  0  0  0  0  0  0  0  0
  150.2421  141.8326  156.1187 N   0  0  0  0  0  0  0  0  0  0  0  0
  151.1750  141.4707  157.0339 C   0  0  0  0  0  0  0  0  0  0  0  0
  151.4752  142.3759  158.0753 N   0  0  0  0  0  0  0  0  0  0  0  0
  151.6814  143.7628  157.6656 C   0  0  0  0  0  0  0  0  0  0  0  0
  151.6942  144.6886  158.8944 C   0  0  0  0  0  0  0  0  0  0  0  0
  152.6669  144.2368  159.8310 O   0  0  0  0  0  0  0  0  0  0  0  0
  152.3787  142.9238  160.3000 C   0  0  0  0  0  0  0  0  0  0  0  0
  152.3976  141.9371  159.1206 C   0  0  0  0  0  0  0  0  0  0  0  0
  151.8424  140.2244  156.9620 C   0  0  0  0  0  0  0  0  0  0  0  0
  155.8658  137.4566  154.9629 H   0  0  0  0  0  0  0  0  0  0  0  0
  151.8675  137.4928  154.8944 H   0  0  0  0  0  0  0  0  0  0  0  0
  151.8652  137.3467  156.6241 H   0  0  0  0  0  0  0  0  0  0  0  0
  150.2636  139.0755  154.1497 H   0  0  0  0  0  0  0  0  0  0  0  0
  149.1945  141.3072  154.4151 H   0  0  0  0  0  0  0  0  0  0  0  0
  152.6319  143.8343  157.1354 H   0  0  0  0  0  0  0  0  0  0  0  0
  150.9089  144.1009  156.9766 H   0  0  0  0  0  0  0  0  0  0  0  0
  151.9385  145.7074  158.5931 H   0  0  0  0  0  0  0  0  0  0  0  0
  150.7099  144.7235  159.3642 H   0  0  0  0  0  0  0  0  0  0  0  0
  153.1267  142.6385  161.0396 H   0  0  0  0  0  0  0  0  0  0  0  0
  151.4109  142.9097  160.8038 H   0  0  0  0  0  0  0  0  0  0  0  0
  152.1206  140.9438  159.4762 H   0  0  0  0  0  0  0  0  0  0  0  0
  153.4051  141.8683  158.7081 H   0  0  0  0  0  0  0  0  0  0  0  0
  152.6014  139.9704  157.6894 H   0  0  0  0  0  0  0  0  0  0  0  0
  1  2  1  0  0  0  0
  1 19  1  0  0  0  0
  2  3  2  0  0  0  0
  2  4  2  0  0  0  0
  2  5  1  0  0  0  0
  5  6  1  0  0  0  0
  6  7  1  0  0  0  0
  6 20  1  0  0  0  0
  6 21  1  0  0  0  0
  7 18  1  0  0  0  0
  7  8  2  0  0  0  0
  8  9  1  0  0  0  0
  8 22  1  0  0  0  0
  9 10  2  0  0  0  0
  9 23  1  0  0  0  0
 10 11  1  0  0  0  0
 11 12  1  0  0  0  0
 11 18  2  0  0  0  0
 12 17  1  0  0  0  0
 12 13  1  0  0  0  0
 13 14  1  0  0  0  0
 13 24  1  0  0  0  0
 13 25  1  0  0  0  0
 14 15  1  0  0  0  0
 14 26  1  0  0  0  0
 14 27  1  0  0  0  0
 15 16  1  0  0  0  0
 16 17  1  0  0  0  0
 16 28  1  0  0  0  0
 16 29  1  0  0  0  0
 17 30  1  0  0  0  0
 17 31  1  0  0  0  0
 18 32  1  0  0  0  0
M  CHG  1   1  -1
M  CHG  1   5  -1
M  END
> <s_m_source_file>
AV-unprocessed.smi

> <i_m_source_file_index>
1473

> <i_lp_mmshare_version>
43012

> <i_f3d_flags>
0

> <s_epik_input>
W05IMl1TKD1PKSg9TylbTkhdW0NIMl1jMVtjSF1bY0hdbmMoW2NIXTEpTjJbQ0gyXVtDSDJdT1tDSDJdW0NIMl0y

> <s_epik_cmdline>
J2VwaWtfcHl0aG9uJywgJy1waCcsICc3LjAnLCAnLXRuJywgJzgnLCAnLW1hJywgJzIwMCcsICctbWV0YWxfYmluZGluZycsICctaW1hZScsICc8aW5maWxlLm1hZT4nLCAnLW9tYWUnLCAnPG91dGZpbGUubWFlPic=

> <r_lp_tautomer_probability>
1

> <r_epik_Ionization_Penalty>
9.31635

> <r_epik_Ionization_Penalty_Charging>
9.0542

> <r_epik_Ionization_Penalty_Neutral>
0.262148

> <r_epik_State_Penalty>
4.75451

> <r_epik_Charging_Adjusted_Penalty>
13.8087

> <i_epik_Tot_Q>
-2

> <i_epik_Tot_abs_Q>
2

> <r_epik_Metal_State_Penalty>
1.32914

> <b_epik_Metal_Only>
1

> <s_lp_Force_Field>
OPLS_2005

> <r_lp_Energy>
19.9679

> <b_lp_Chiralities_Consistent>
1

> <s_lp_Variant>
AV-unprocessed.smi:1473-6

> <Gold.Version>
5.8.1

> <Gold.Id.Protein>
6NUR|6NUR_protein|mol2

> <Gold.PLP.Fitness>
42.0151

> <Gold.PLP.PLP>
-32.5285

> <Gold.PLP.part.hbond>
-3.5377

> <Gold.PLP.part.metal>
0.0000

> <Gold.PLP.part.buried>
-2.3974

> <Gold.PLP.part.nonpolar>
-26.9718

> <Gold.PLP.part.repulsive>
0.1720

> <Gold.PLP.ligand.clash>
0.0000

> <Gold.PLP.ligand.torsion>
0.8775

> <Gold.PLP.Chemscore.Hbond>
3.2960

> <Gold.PLP.Chemscore.CHOScore>
0.0000

> <Gold.PLP.Chemscore.Metal>
0.0000

> <Gold.Chemscore.Hbonds>
donor molecule, donor type, donor heavy atom, donor atom, acceptor molecule, acceptor atom, score
      P1  H  7997  8009       L1     4  0.32
      P1  H  7997  8010       L1     5  0.94
      P1  H 10752 10763       L1     1  1.41
      P1  H 10752 10765       L1     3  0.01

> <Gold.PLP.Chemscore.Internal.Correction>
1.3536

> <Gold.Rescore>
     Score         DG    S(hbond)    S(metal)    S(lipo)     H(rot)  DE(clash)    DE(int)     intcor
     14.13     -15.02       1.58        0.00      77.15       1.86       0.04       0.84       ----

> <Gold.Chemscore.Fitness>
14.1331

> <Gold.Chemscore.DG>
-15.0192

> <Gold.Chemscore.ZeroCoef>
-5.4800

> <Gold.Chemscore.Hbond>
1.5795

> <Gold.Chemscore.Metal>
0.0000

> <Gold.Chemscore.Lipo>
77.1527

> <Gold.Chemscore.Internal_Hbond>
0.0000

> <Gold.Chemscore.DEClash>
0.0447

> <Gold.Chemscore.DEInternal>
0.8414

> <Gold.Chemscore.Rot>
1.8606

> <Gold.Chemscore.Internal.Correction>
   9.000000E+99

> <Gold.Chemscore.Hbonds>
donor molecule, donor type, donor heavy atom, donor atom, acceptor molecule, acceptor atom, score
      P1  H  7997  8009       L1     4  0.29
      P1  H  7997  8010       L1     5  0.19
      P1  H 10752 10763       L1     1  0.48

> <Gold.Chemscore.Hbond.Weighted>
-5.2754

> <Gold.Chemscore.Metal.Weighted>
-0.0000

> <Gold.Chemscore.Lipo.Weighted>
-9.0269

> <Gold.Chemscore.Internal_Hbond.Weighted>
0.0000

> <Gold.Chemscore.DEClash.Weighted>
0.0447

> <Gold.Chemscore.DEInternal.Weighted>
0.8414

> <Gold.Chemscore.Rot.Weighted>
4.7631

> <Gold.Chemscore.Internal.Correction.Weighted>
   9.000000E+99

> <Gold.Protein.RotatedTorsions>
[ 6907 6896 6895 6894 ] final -101.70 input  -60.11 | X-H torsion
[ 7974 7965 7964 7962 ] final  -22.30 input  175.53 | X-H torsion
[ 8008 7997 7996 7995 ] final   83.27 input   59.86 | X-H torsion
[ 10167 10162 10161 10158 ] final  -95.63 input  -65.29 | X-H torsion
[ 10718 10713 10712 10709 ] final   -2.60 input   66.30 | X-H torsion
[ 10763 10752 10751 10750 ] final -152.69 input  -60.55 | X-H torsion
[ 11005 11000 10999 10996 ] final  -20.56 input  -57.11 | X-H torsion

> <Gold.Protein.ActiveResidues>
 VAL166  LYS551  ARG553  GLY616  TRP617  ASP618  TYR619  PRO620  LYS621  CYS622 
 ASP623  PHE694  ASN695  SER759  ASP760  ASP761  ALA762  ILE779  LEU786  VAL792 
 PHE793  MET794  SER795  GLU796  ALA797  LYS798  CYS799  TRP800  GLU811  SER814 

> <Gold.Protein.RotatedAtoms>
  150.7165  134.0694  159.3858 H   0  0  0  0  0  0  0  0  0  0  0  0  # atno 6907 bound_to 6896
  151.8676  135.0499  160.0485 H   0  0  0  0  0  0  0  0  0  0  0  0  # atno 6908 bound_to 6896
  152.2668  133.5311  159.5452 H   0  0  0  0  0  0  0  0  0  0  0  0  # atno 6909 bound_to 6896
  146.1683  140.4460  142.8543 H   0  0  0  0  0  0  0  0  0  0  0  0  # atno 7974 bound_to 7965
  155.9217  140.3421  155.6178 H   0  0  0  0  0  0  0  0  0  0  0  0  # atno 8008 bound_to 7997
  155.7265  140.0790  157.2326 H   0  0  0  0  0  0  0  0  0  0  0  0  # atno 8009 bound_to 7997
  154.4071  140.1596  156.2448 H   0  0  0  0  0  0  0  0  0  0  0  0  # atno 8010 bound_to 7997
  140.3022  143.3155  152.0236 H   0  0  0  0  0  0  0  0  0  0  0  0  # atno 10167 bound_to 10162
  156.7884  130.5353  149.5739 H   0  0  0  0  0  0  0  0  0  0  0  0  # atno 10718 bound_to 10713
  154.7977  135.3230  154.7626 H   0  0  0  0  0  0  0  0  0  0  0  0  # atno 10763 bound_to 10752
  153.8300  135.6880  153.4820 H   0  0  0  0  0  0  0  0  0  0  0  0  # atno 10764 bound_to 10752
  153.1677  135.4635  154.9803 H   0  0  0  0  0  0  0  0  0  0  0  0  # atno 10765 bound_to 10752
  140.8476  133.7880  155.9930 H   0  0  0  0  0  0  0  0  0  0  0  0  # atno 11005 bound_to 11000
  144.8125  140.6411  143.6406 LP  0  0  0  0  0  0  0  0  0  0  0  0  # atno 17320 bound_to 7965
  145.4408  139.1536  143.3971 LP  0  0  0  0  0  0  0  0  0  0  0  0  # atno 17321 bound_to 7965
  139.4912  144.6447  151.6803 LP  0  0  0  0  0  0  0  0  0  0  0  0  # atno 17342 bound_to 10162
  140.5641  144.0219  150.6184 LP  0  0  0  0  0  0  0  0  0  0  0  0  # atno 17343 bound_to 10162
  156.1174  130.6085  151.0142 LP  0  0  0  0  0  0  0  0  0  0  0  0  # atno 17370 bound_to 10713
  157.6613  131.0880  150.7832 LP  0  0  0  0  0  0  0  0  0  0  0  0  # atno 17371 bound_to 10713
  140.8826  134.2593  157.5136 LP  0  0  0  0  0  0  0  0  0  0  0  0  # atno 17394 bound_to 11000
  139.8703  134.9622  156.4422 LP  0  0  0  0  0  0  0  0  0  0  0  0  # atno 17395 bound_to 11000

$$$$
