AV-unprocessed.smi:3110|AV-procd|sdf|11829|dock1
  -GOLD-   2272017203D 1   1.00000     0.00000
 Structure written by MMmdl.
 34 35  0  0  0  0  0  0  0  0  2 V2000
  150.1927  142.2737  158.8702 O   0  0  0  0  0  0  0  0  0  0  0  0
  150.7131  142.9535  157.9851 C   0  0  0  0  0  0  0  0  0  0  0  0
  151.2718  144.3443  158.3032 C   0  0  0  0  0  0  0  0  0  0  0  0
  152.3617  144.3255  159.3950 C   0  0  1  0  0  0  0  0  0  0  0  0
  151.7949  144.5543  160.7722 C   0  0  0  0  0  0  0  0  0  0  0  0
  152.1926  143.6374  161.6517 C   0  0  0  0  0  0  0  0  0  0  0  0
  153.1035  142.6100  161.0392 C   0  0  0  0  0  0  0  0  0  0  0  0
  153.1080  142.9714  159.5376 C   0  0  0  0  0  0  0  0  0  0  0  0
  150.8233  142.5413  156.7129 N   0  0  0  0  0  0  0  0  0  0  0  0
  150.3368  141.2636  156.2074 C   0  0  0  0  0  0  0  0  0  0  0  0
  151.4947  140.2897  155.9323 C   0  0  0  0  0  0  0  0  0  0  0  0
  151.0184  139.0300  155.3600 N   0  0  0  0  0  0  0  0  0  0  0  0
  151.2139  137.7649  155.8508 C   0  0  0  0  0  0  0  0  0  0  0  0
  150.5840  136.9087  154.9845 C   0  0  0  0  0  0  0  0  0  0  0  0
  150.0300  137.6874  154.0036 N   0  3  0  0  0  0  0  0  0  0  0  0
  150.2957  138.9774  154.2339 C   0  0  0  0  0  0  0  0  0  0  0  0
  151.6818  144.7584  157.3815 H   0  0  0  0  0  0  0  0  0  0  0  0
  150.4595  145.0077  158.6049 H   0  0  0  0  0  0  0  0  0  0  0  0
  153.0813  145.1257  159.2147 H   0  0  0  0  0  0  0  0  0  0  0  0
  151.1516  145.3921  160.9976 H   0  0  0  0  0  0  0  0  0  0  0  0
  151.9213  143.6172  162.6969 H   0  0  0  0  0  0  0  0  0  0  0  0
  154.0987  142.6922  161.4772 H   0  0  0  0  0  0  0  0  0  0  0  0
  152.7260  141.6020  161.2143 H   0  0  0  0  0  0  0  0  0  0  0  0
  152.5938  142.1870  158.9805 H   0  0  0  0  0  0  0  0  0  0  0  0
  154.1222  143.0306  159.1415 H   0  0  0  0  0  0  0  0  0  0  0  0
  151.2691  143.1588  156.0497 H   0  0  0  0  0  0  0  0  0  0  0  0
  149.6607  140.8383  156.9496 H   0  0  0  0  0  0  0  0  0  0  0  0
  149.7450  141.4237  155.3043 H   0  0  0  0  0  0  0  0  0  0  0  0
  152.2177  140.7221  155.2389 H   0  0  0  0  0  0  0  0  0  0  0  0
  152.0324  140.0594  156.8531 H   0  0  0  0  0  0  0  0  0  0  0  0
  151.7717  137.5729  156.7562 H   0  0  0  0  0  0  0  0  0  0  0  0
  150.4899  135.8324  154.9927 H   0  0  0  0  0  0  0  0  0  0  0  0
  149.9864  139.8123  153.6300 H   0  0  0  0  0  0  0  0  0  0  0  0
  149.4964  137.3400  153.2166 H   0  0  0  0  0  0  0  0  0  0  0  0
  1  2  2  0  0  0  0
  2  3  1  0  0  0  0
  2  9  1  0  0  0  0
  3  4  1  0  0  0  0
  3 17  1  0  0  0  0
  3 18  1  0  0  0  0
  4  8  1  0  0  0  0
  4  5  1  0  0  0  0
  4 19  1  0  0  0  0
  5  6  2  0  0  0  0
  5 20  1  0  0  0  0
  6  7  1  0  0  0  0
  6 21  1  0  0  0  0
  7  8  1  0  0  0  0
  7 22  1  0  0  0  0
  7 23  1  0  0  0  0
  8 24  1  0  0  0  0
  8 25  1  0  0  0  0
  9 10  1  0  0  0  0
  9 26  1  0  0  0  0
 10 11  1  0  0  0  0
 10 27  1  0  0  0  0
 10 28  1  0  0  0  0
 11 12  1  0  0  0  0
 11 29  1  0  0  0  0
 11 30  1  0  0  0  0
 12 16  1  0  0  0  0
 12 13  1  0  0  0  0
 13 14  2  0  0  0  0
 13 31  1  0  0  0  0
 14 15  1  0  0  0  0
 14 32  1  0  0  0  0
 15 16  2  0  0  0  0
 15 34  1  0  0  0  0
 16 33  1  0  0  0  0
M  CHG  1  15   1
M  END
> <s_m_source_file>
AV-unprocessed.smi

> <i_m_source_file_index>
3110

> <i_lp_mmshare_version>
43012

> <i_f3d_flags>
0

> <s_epik_input>
W0NIMl0xW0NIMl1bQ0hdPVtDSF1bQ0BIXTFbQ0gyXUMoPU8pW05IXVtDSDJdW0NIMl1uMltjSF1bY0hdbltjSF0y

> <s_epik_cmdline>
J2VwaWtfcHl0aG9uJywgJy1waCcsICc3LjAnLCAnLXRuJywgJzgnLCAnLW1hJywgJzIwMCcsICctbWV0YWxfYmluZGluZycsICctaW1hZScsICc8aW5maWxlLm1hZT4nLCAnLW9tYWUnLCAnPG91dGZpbGUubWFlPic=

> <r_lp_tautomer_probability>
1

> <r_epik_Ionization_Penalty>
0.271094

> <r_epik_Ionization_Penalty_Charging>
0

> <r_epik_Ionization_Penalty_Neutral>
0.271094

> <r_epik_State_Penalty>
0.263241

> <r_epik_Charging_Adjusted_Penalty>
0.263241

> <i_epik_Tot_Q>
1

> <i_epik_Tot_abs_Q>
1

> <r_epik_Metal_State_Penalty>
0.547832

> <b_epik_Metal_Only>
0

> <s_lp_Force_Field>
OPLS_2005

> <r_lp_Energy>
18.3702

> <b_lp_Chiralities_Consistent>
1

> <s_lp_Variant>
AV-unprocessed.smi:3110-2

> <Gold.Version>
5.8.1

> <Gold.Id.Protein>
6NUR|6NUR_protein|mol2

> <Gold.PLP.Fitness>
51.3563

> <Gold.PLP.PLP>
-43.4449

> <Gold.PLP.part.hbond>
-3.2415

> <Gold.PLP.part.metal>
0.0000

> <Gold.PLP.part.buried>
-3.7732

> <Gold.PLP.part.nonpolar>
-36.2914

> <Gold.PLP.part.repulsive>
0.1615

> <Gold.PLP.ligand.clash>
0.0000

> <Gold.PLP.ligand.torsion>
0.5510

> <Gold.PLP.Chemscore.Hbond>
2.0000

> <Gold.PLP.Chemscore.CHOScore>
0.9765

> <Gold.PLP.Chemscore.Metal>
0.0000

> <Gold.Chemscore.Hbonds>
donor molecule, donor type, donor heavy atom, donor atom, acceptor molecule, acceptor atom, score
      L1  H    15    34       P1  7948  2.00
      L1  C    16    33       P1  7957  1.00

> <Gold.PLP.Chemscore.Internal.Correction>
0.0838

> <Gold.Rescore>
     Score         DG    S(hbond)    S(metal)    S(lipo)     H(rot)  DE(clash)    DE(int)     intcor
     14.15     -14.49       0.92        0.00      96.55       2.10       0.00       0.34       ----

> <Gold.Chemscore.Fitness>
14.1469

> <Gold.Chemscore.DG>
-14.4869

> <Gold.Chemscore.ZeroCoef>
-5.4800

> <Gold.Chemscore.Hbond>
0.9213

> <Gold.Chemscore.Metal>
0.0000

> <Gold.Chemscore.Lipo>
96.5487

> <Gold.Chemscore.Internal_Hbond>
0.0000

> <Gold.Chemscore.DEClash>
0.0021

> <Gold.Chemscore.DEInternal>
0.3378

> <Gold.Chemscore.Rot>
2.0963

> <Gold.Chemscore.Internal.Correction>
   9.000000E+99

> <Gold.Chemscore.Hbonds>
donor molecule, donor type, donor heavy atom, donor atom, acceptor molecule, acceptor atom, score
      L1  H    15    34       P1  7948  0.88

> <Gold.Chemscore.Hbond.Weighted>
-3.0771

> <Gold.Chemscore.Metal.Weighted>
-0.0000

> <Gold.Chemscore.Lipo.Weighted>
-11.2962

> <Gold.Chemscore.Internal_Hbond.Weighted>
0.0000

> <Gold.Chemscore.DEClash.Weighted>
0.0021

> <Gold.Chemscore.DEInternal.Weighted>
0.3378

> <Gold.Chemscore.Rot.Weighted>
5.3665

> <Gold.Chemscore.Internal.Correction.Weighted>
   9.000000E+99

> <Gold.Protein.RotatedTorsions>
[ 6907 6896 6895 6894 ] final  -58.60 input  -60.11 | X-H torsion
[ 7974 7965 7964 7962 ] final -117.79 input  175.53 | X-H torsion
[ 8008 7997 7996 7995 ] final -152.10 input   59.86 | X-H torsion
[ 10167 10162 10161 10158 ] final  -58.39 input  -65.29 | X-H torsion
[ 10718 10713 10712 10709 ] final   19.39 input   66.30 | X-H torsion
[ 10763 10752 10751 10750 ] final   58.12 input  -60.55 | X-H torsion
[ 11005 11000 10999 10996 ] final  -22.94 input  -57.11 | X-H torsion

> <Gold.Protein.ActiveResidues>
 VAL166  LYS551  ARG553  GLY616  TRP617  ASP618  TYR619  PRO620  LYS621  CYS622 
 ASP623  PHE694  ASN695  SER759  ASP760  ASP761  ALA762  ILE779  LEU786  VAL792 
 PHE793  MET794  SER795  GLU796  ALA797  LYS798  CYS799  TRP800  GLU811  SER814 

> <Gold.Protein.RotatedAtoms>
  150.7995  134.7078  159.6586 H   0  0  0  0  0  0  0  0  0  0  0  0  # atno 6907 bound_to 6896
  152.4110  134.6121  160.0038 H   0  0  0  0  0  0  0  0  0  0  0  0  # atno 6908 bound_to 6896
  151.6364  133.3291  159.3156 H   0  0  0  0  0  0  0  0  0  0  0  0  # atno 6909 bound_to 6896
  145.0812  140.8427  143.4038 H   0  0  0  0  0  0  0  0  0  0  0  0  # atno 7974 bound_to 7965
  155.6498  140.0711  157.2591 H   0  0  0  0  0  0  0  0  0  0  0  0  # atno 8008 bound_to 7997
  154.4165  140.1735  156.1712 H   0  0  0  0  0  0  0  0  0  0  0  0  # atno 8009 bound_to 7997
  155.9786  140.3355  155.6645 H   0  0  0  0  0  0  0  0  0  0  0  0  # atno 8010 bound_to 7997
  140.6200  143.2416  151.5503 H   0  0  0  0  0  0  0  0  0  0  0  0  # atno 10167 bound_to 10162
  157.1098  130.6504  149.5894 H   0  0  0  0  0  0  0  0  0  0  0  0  # atno 10718 bound_to 10713
  152.9864  135.5618  154.5500 H   0  0  0  0  0  0  0  0  0  0  0  0  # atno 10763 bound_to 10752
  154.4939  135.2794  155.1477 H   0  0  0  0  0  0  0  0  0  0  0  0  # atno 10764 bound_to 10752
  154.2935  135.6321  153.5448 H   0  0  0  0  0  0  0  0  0  0  0  0  # atno 10765 bound_to 10752
  140.8705  133.7724  156.0181 H   0  0  0  0  0  0  0  0  0  0  0  0  # atno 11005 bound_to 11000
  145.1176  139.2715  143.5605 LP  0  0  0  0  0  0  0  0  0  0  0  0  # atno 17320 bound_to 7965
  146.3531  140.0791  142.8619 LP  0  0  0  0  0  0  0  0  0  0  0  0  # atno 17321 bound_to 7965
  139.5431  144.2594  152.1389 LP  0  0  0  0  0  0  0  0  0  0  0  0  # atno 17342 bound_to 10162
  140.1812  144.4842  150.6527 LP  0  0  0  0  0  0  0  0  0  0  0  0  # atno 17343 bound_to 10162
  155.9853  130.4882  150.7025 LP  0  0  0  0  0  0  0  0  0  0  0  0  # atno 17370 bound_to 10713
  157.4569  131.0879  151.0787 LP  0  0  0  0  0  0  0  0  0  0  0  0  # atno 17371 bound_to 10713
  140.8579  134.2876  157.5247 LP  0  0  0  0  0  0  0  0  0  0  0  0  # atno 17394 bound_to 11000
  139.8712  134.9502  156.4049 LP  0  0  0  0  0  0  0  0  0  0  0  0  # atno 17395 bound_to 11000

$$$$
