AV-unprocessed.smi:2143|AV-procd|sdf|8722|dock10
  -GOLD-   2272011493D 1   1.00000     0.00000
 Structure written by MMmdl.
 44 45  0  0  0  0  0  0  0  0  1 V2000
  144.7922  143.2802  155.2874 C   0  0  0  0  0  0  0  0  0  0  0  0
  146.1958  142.6649  155.1454 C   0  0  2  0  0  0  0  0  0  0  0  0
  146.3568  142.0534  153.7380 C   0  0  0  0  0  0  0  0  0  0  0  0
  147.7462  141.4362  153.5297 C   0  0  0  0  0  0  0  0  0  0  0  0
  148.0486  140.3853  154.6078 C   0  0  0  0  0  0  0  0  0  0  0  0
  147.9045  140.9616  156.0283 C   0  0  1  0  0  0  0  0  0  0  0  0
  148.9877  141.9124  156.2903 N   0  0  0  0  0  0  0  0  0  0  0  0
  150.2788  141.6100  156.4955 C   0  0  0  0  0  0  0  0  0  0  0  0
  150.7147  140.4580  156.4989 O   0  0  0  0  0  0  0  0  0  0  0  0
  151.2061  142.8026  156.7650 C   0  0  0  0  0  0  0  0  0  0  0  0
  151.5159  142.9863  158.1886 N   0  0  0  0  0  0  0  0  0  0  0  0
  151.9871  141.9186  158.9303 C   0  0  0  0  0  0  0  0  0  0  0  0
  152.3089  142.0053  160.2394 C   0  0  0  0  0  0  0  0  0  0  0  0
  152.1720  143.2634  160.9632 C   0  0  0  0  0  0  0  0  0  0  0  0
  152.4651  143.3861  162.1530 O   0  0  0  0  0  0  0  0  0  0  0  0
  151.6801  144.3374  160.1825 N   0  0  0  0  0  0  0  0  0  0  0  0
  151.5166  145.6381  160.7982 C   0  0  0  0  0  0  0  0  0  0  0  0
  151.3558  144.2428  158.8111 C   0  0  0  0  0  0  0  0  0  0  0  0
  150.9506  145.2161  158.1705 O   0  0  0  0  0  0  0  0  0  0  0  0
  146.5092  141.6078  156.2414 C   0  0  1  0  0  0  0  0  0  0  0  0
  146.3540  142.1567  157.6743 C   0  0  0  0  0  0  0  0  0  0  0  0
  144.0186  142.5117  155.2763 H   0  0  0  0  0  0  0  0  0  0  0  0
  144.5841  143.9710  154.4700 H   0  0  0  0  0  0  0  0  0  0  0  0
  144.6904  143.8472  156.2123 H   0  0  0  0  0  0  0  0  0  0  0  0
  146.9162  143.4788  155.2383 H   0  0  0  0  0  0  0  0  0  0  0  0
  145.5952  141.2880  153.5810 H   0  0  0  0  0  0  0  0  0  0  0  0
  146.1851  142.8159  152.9775 H   0  0  0  0  0  0  0  0  0  0  0  0
  147.8040  140.9789  152.5415 H   0  0  0  0  0  0  0  0  0  0  0  0
  148.5037  142.2205  153.5495 H   0  0  0  0  0  0  0  0  0  0  0  0
  147.3616  139.5460  154.4902 H   0  0  0  0  0  0  0  0  0  0  0  0
  149.0504  139.9782  154.4643 H   0  0  0  0  0  0  0  0  0  0  0  0
  147.9911  140.1208  156.7188 H   0  0  0  0  0  0  0  0  0  0  0  0
  148.7282  142.8879  156.3161 H   0  0  0  0  0  0  0  0  0  0  0  0
  152.1281  142.6870  156.1921 H   0  0  0  0  0  0  0  0  0  0  0  0
  150.7269  143.7004  156.3721 H   0  0  0  0  0  0  0  0  0  0  0  0
  152.1103  140.9648  158.4381 H   0  0  0  0  0  0  0  0  0  0  0  0
  152.6758  141.1319  160.7581 H   0  0  0  0  0  0  0  0  0  0  0  0
  150.5125  145.9954  160.5611 H   0  0  0  0  0  0  0  0  0  0  0  0
  152.2824  146.2891  160.3735 H   0  0  0  0  0  0  0  0  0  0  0  0
  151.6225  145.5777  161.8808 H   0  0  0  0  0  0  0  0  0  0  0  0
  145.7755  140.8068  156.1362 H   0  0  0  0  0  0  0  0  0  0  0  0
  146.9545  143.0534  157.8299 H   0  0  0  0  0  0  0  0  0  0  0  0
  146.6665  141.4162  158.4112 H   0  0  0  0  0  0  0  0  0  0  0  0
  145.3178  142.4078  157.8988 H   0  0  0  0  0  0  0  0  0  0  0  0
  1  2  1  0  0  0  0
  1 22  1  0  0  0  0
  1 23  1  0  0  0  0
  1 24  1  0  0  0  0
  2 20  1  0  0  0  0
  2  3  1  0  0  0  0
  2 25  1  0  0  0  0
  3  4  1  0  0  0  0
  3 26  1  0  0  0  0
  3 27  1  0  0  0  0
  4  5  1  0  0  0  0
  4 28  1  0  0  0  0
  4 29  1  0  0  0  0
  5  6  1  0  0  0  0
  5 30  1  0  0  0  0
  5 31  1  0  0  0  0
  6  7  1  0  0  0  0
  6 20  1  0  0  0  0
  6 32  1  0  0  0  0
  7  8  1  0  0  0  0
  7 33  1  0  0  0  0
  8  9  2  0  0  0  0
  8 10  1  0  0  0  0
 10 11  1  0  0  0  0
 10 34  1  0  0  0  0
 10 35  1  0  0  0  0
 11 18  1  0  0  0  0
 11 12  1  0  0  0  0
 12 13  2  0  0  0  0
 12 36  1  0  0  0  0
 13 14  1  0  0  0  0
 13 37  1  0  0  0  0
 14 15  2  0  0  0  0
 14 16  1  0  0  0  0
 16 17  1  0  0  0  0
 16 18  1  0  0  0  0
 17 38  1  0  0  0  0
 17 39  1  0  0  0  0
 17 40  1  0  0  0  0
 18 19  2  0  0  0  0
 20 21  1  0  0  0  0
 20 41  1  0  0  0  0
 21 42  1  0  0  0  0
 21 43  1  0  0  0  0
 21 44  1  0  0  0  0
M  END
> <s_m_source_file>
AV-unprocessed.smi

> <i_m_source_file_index>
2143

> <i_lp_mmshare_version>
43012

> <i_f3d_flags>
0

> <s_epik_input>
W0NIM11bQ0BASF0xW0NIMl1bQ0gyXVtDSDJdW0NASF0oW0NASF0xW0NIM10pW05IXUMoPU8pW0NIMl1uMltjSF1bY0hdYyg9TyluKFtDSDNdKWMyPU8=

> <s_epik_cmdline>
J2VwaWtfcHl0aG9uJywgJy1waCcsICc3LjAnLCAnLXRuJywgJzgnLCAnLW1hJywgJzIwMCcsICctbWV0YWxfYmluZGluZycsICctaW1hZScsICc8aW5maWxlLm1hZT4nLCAnLW9tYWUnLCAnPG91dGZpbGUubWFlPic=

> <r_lp_tautomer_probability>
1

> <r_epik_Ionization_Penalty>
3.18445e-08

> <r_epik_Ionization_Penalty_Charging>
1.27977e-08

> <r_epik_Ionization_Penalty_Neutral>
1.90469e-08

> <r_epik_State_Penalty>
-0

> <r_epik_Charging_Adjusted_Penalty>
1.27977e-08

> <i_epik_Tot_Q>
0

> <i_epik_Tot_abs_Q>
0

> <r_epik_Metal_State_Penalty>
-0

> <b_epik_Metal_Only>
0

> <s_lp_Force_Field>
OPLS_2005

> <r_lp_Energy>
19.1403

> <b_lp_Chiralities_Consistent>
1

> <s_lp_Variant>
AV-unprocessed.smi:2143-1

> <Gold.Version>
5.8.1

> <Gold.Id.Protein>
6NUR|6NUR_protein|mol2

> <Gold.PLP.Fitness>
40.8543

> <Gold.PLP.PLP>
-38.8517

> <Gold.PLP.part.hbond>
-1.0000

> <Gold.PLP.part.metal>
0.0000

> <Gold.PLP.part.buried>
-2.7444

> <Gold.PLP.part.nonpolar>
-34.9037

> <Gold.PLP.part.repulsive>
0.3674

> <Gold.PLP.ligand.clash>
0.0000

> <Gold.PLP.ligand.torsion>
0.5040

> <Gold.PLP.Chemscore.Hbond>
1.0000

> <Gold.PLP.Chemscore.CHOScore>
0.0000

> <Gold.PLP.Chemscore.Metal>
0.0000

> <Gold.Chemscore.Hbonds>
donor molecule, donor type, donor heavy atom, donor atom, acceptor molecule, acceptor atom, score
      L1  H     7    33       P1  8028  1.00

> <Gold.PLP.Chemscore.Internal.Correction>
0.0107

> <Gold.Rescore>
     Score         DG    S(hbond)    S(metal)    S(lipo)     H(rot)  DE(clash)    DE(int)     intcor
     11.27     -13.72       0.96        0.00      76.11       1.51       1.99       0.46       ----

> <Gold.Chemscore.Fitness>
11.2707

> <Gold.Chemscore.DG>
-13.7179

> <Gold.Chemscore.ZeroCoef>
-5.4800

> <Gold.Chemscore.Hbond>
0.9601

> <Gold.Chemscore.Metal>
0.0000

> <Gold.Chemscore.Lipo>
76.1061

> <Gold.Chemscore.Internal_Hbond>
0.0000

> <Gold.Chemscore.DEClash>
1.9896

> <Gold.Chemscore.DEInternal>
0.4575

> <Gold.Chemscore.Rot>
1.5131

> <Gold.Chemscore.Internal.Correction>
   9.000000E+99

> <Gold.Chemscore.Hbonds>
donor molecule, donor type, donor heavy atom, donor atom, acceptor molecule, acceptor atom, score
      L1  H     7    33       P1  8028  0.94

> <Gold.Chemscore.Hbond.Weighted>
-3.2069

> <Gold.Chemscore.Metal.Weighted>
-0.0000

> <Gold.Chemscore.Lipo.Weighted>
-8.9044

> <Gold.Chemscore.Internal_Hbond.Weighted>
0.0000

> <Gold.Chemscore.DEClash.Weighted>
1.9896

> <Gold.Chemscore.DEInternal.Weighted>
0.4575

> <Gold.Chemscore.Rot.Weighted>
3.8734

> <Gold.Chemscore.Internal.Correction.Weighted>
   9.000000E+99

> <Gold.Protein.RotatedTorsions>
[ 6907 6896 6895 6894 ] final   20.87 input  -60.11 | X-H torsion
[ 7974 7965 7964 7962 ] final    2.65 input  175.53 | X-H torsion
[ 8008 7997 7996 7995 ] final   12.33 input   59.86 | X-H torsion
[ 10167 10162 10161 10158 ] final  -98.18 input  -65.29 | X-H torsion
[ 10718 10713 10712 10709 ] final   83.25 input   66.30 | X-H torsion
[ 10763 10752 10751 10750 ] final   57.84 input  -60.55 | X-H torsion
[ 11005 11000 10999 10996 ] final -101.20 input  -57.11 | X-H torsion

> <Gold.Protein.ActiveResidues>
 VAL166  LYS551  ARG553  GLY616  TRP617  ASP618  TYR619  PRO620  LYS621  CYS622 
 ASP623  PHE694  ASN695  SER759  ASP760  ASP761  ALA762  ILE779  LEU786  VAL792 
 PHE793  MET794  SER795  GLU796  ALA797  LYS798  CYS799  TRP800  GLU811  SER814 

> <Gold.Protein.RotatedAtoms>
  151.9031  135.0370  160.0507 H   0  0  0  0  0  0  0  0  0  0  0  0  # atno 6907 bound_to 6896
  152.2342  133.5078  159.5241 H   0  0  0  0  0  0  0  0  0  0  0  0  # atno 6908 bound_to 6896
  150.7034  134.1093  159.4037 H   0  0  0  0  0  0  0  0  0  0  0  0  # atno 6909 bound_to 6896
  146.2444  140.0803  142.8357 H   0  0  0  0  0  0  0  0  0  0  0  0  # atno 7974 bound_to 7965
  154.8192  140.2881  155.5799 H   0  0  0  0  0  0  0  0  0  0  0  0  # atno 8008 bound_to 7997
  156.2996  140.2553  156.3026 H   0  0  0  0  0  0  0  0  0  0  0  0  # atno 8009 bound_to 7997
  154.9358  140.0382  157.2061 H   0  0  0  0  0  0  0  0  0  0  0  0  # atno 8010 bound_to 7997
  140.2757  143.3315  152.0491 H   0  0  0  0  0  0  0  0  0  0  0  0  # atno 10167 bound_to 10162
  157.6875  131.0082  150.2495 H   0  0  0  0  0  0  0  0  0  0  0  0  # atno 10718 bound_to 10713
  152.9858  135.5628  154.5455 H   0  0  0  0  0  0  0  0  0  0  0  0  # atno 10763 bound_to 10752
  154.4902  135.2792  155.1505 H   0  0  0  0  0  0  0  0  0  0  0  0  # atno 10764 bound_to 10752
  154.2977  135.6313  153.5465 H   0  0  0  0  0  0  0  0  0  0  0  0  # atno 10765 bound_to 10752
  141.1240  133.8459  157.1201 H   0  0  0  0  0  0  0  0  0  0  0  0  # atno 11005 bound_to 11000
  145.0738  140.9174  143.4866 LP  0  0  0  0  0  0  0  0  0  0  0  0  # atno 17320 bound_to 7965
  145.0943  139.2868  143.5719 LP  0  0  0  0  0  0  0  0  0  0  0  0  # atno 17321 bound_to 7965
  139.4976  144.6626  151.6429 LP  0  0  0  0  0  0  0  0  0  0  0  0  # atno 17342 bound_to 10162
  140.5853  143.9874  150.6292 LP  0  0  0  0  0  0  0  0  0  0  0  0  # atno 17343 bound_to 10162
  156.3094  130.3770  149.7675 LP  0  0  0  0  0  0  0  0  0  0  0  0  # atno 17370 bound_to 10713
  156.5280  130.8245  151.3227 LP  0  0  0  0  0  0  0  0  0  0  0  0  # atno 17371 bound_to 10713
  140.0222  134.9940  157.0615 LP  0  0  0  0  0  0  0  0  0  0  0  0  # atno 17394 bound_to 11000
  140.4421  134.1670  155.7174 LP  0  0  0  0  0  0  0  0  0  0  0  0  # atno 17395 bound_to 11000

$$$$
