AV-unprocessed.smi:112|AV-procd|sdf|1084|dock9
  -GOLD-   2262018183D 1   1.00000     0.00000
 Structure written by MMmdl.
 54 57  0  0  0  0  0  0  0  0  3 V2000
  148.1813  135.9059  155.0240 C   0  0  0  0  0  0  0  0  0  0  0  0
  148.1780  134.4218  154.6935 C   0  0  0  0  0  0  0  0  0  0  0  0
  147.6994  133.9478  153.5208 C   0  0  0  0  0  0  0  0  0  0  0  0
  147.6762  132.6072  153.1862 N   0  0  0  0  0  0  0  0  0  0  0  0
  147.1744  132.1725  151.8274 C   0  0  1  0  0  0  0  0  0  0  0  0
  145.8600  131.4049  151.8983 C   0  0  0  0  0  0  0  0  0  0  0  0
  145.3334  131.6801  150.5067 C   0  0  1  0  0  0  0  0  0  0  0  0
  143.9396  131.4584  150.4232 O   0  0  0  0  0  0  0  0  0  0  0  0
  145.7891  133.1305  150.2317 C   0  0  1  0  0  0  0  0  0  0  0  0
  144.7731  134.2242  150.6224 C   0  0  0  0  0  0  0  0  0  0  0  0
  144.0251  134.6110  149.4895 O   0  0  0  0  0  0  0  0  0  0  0  0
  146.9471  133.3095  151.0554 O   0  0  0  0  0  0  0  0  0  0  0  0
  148.2187  131.6587  154.0793 C   0  0  0  0  0  0  0  0  0  0  0  0
  148.2315  130.4567  153.8046 O   0  0  0  0  0  0  0  0  0  0  0  0
  148.7334  132.1215  155.3123 N   0  0  0  0  0  0  0  0  0  0  0  0
  149.2778  131.1311  156.2699 C   0  0  0  0  0  0  0  0  0  0  0  0
  150.7239  131.4315  156.7221 C   0  0  0  0  0  0  0  0  0  0  0  0
  150.9038  132.2003  157.6673 O   0  0  0  0  0  0  0  0  0  0  0  0
  151.7365  130.8280  156.0509 N   0  0  0  0  0  0  0  0  0  0  0  0
  151.5262  129.8816  154.9416 C   0  0  0  0  0  0  0  0  0  0  0  0
  152.9308  129.4324  154.4826 C   0  0  0  0  0  0  0  0  0  0  0  0
  153.8458  130.1960  155.3932 C   0  0  0  0  0  0  0  0  0  0  0  0
  155.2505  130.1588  155.3946 C   0  0  0  0  0  0  0  0  0  0  0  0
  155.9556  130.9564  156.3296 C   0  0  0  0  0  0  0  0  0  0  0  0
  157.4316  130.9435  156.3598 N   0  3  0  0  0  0  0  0  0  0  0  0
  158.0248  130.2724  155.5214 O   0  0  0  0  0  0  0  0  0  0  0  0
  158.0008  131.6045  157.2224 O   0  5  0  0  0  0  0  0  0  0  0  0
  155.2226  131.7682  157.2357 C   0  0  0  0  0  0  0  0  0  0  0  0
  153.8108  131.7923  157.2211 C   0  0  0  0  0  0  0  0  0  0  0  0
  153.1287  130.9884  156.2819 C   0  0  0  0  0  0  0  0  0  0  0  0
  148.7257  133.4895  155.6810 C   0  0  0  0  0  0  0  0  0  0  0  0
  149.1595  133.8472  156.7780 O   0  0  0  0  0  0  0  0  0  0  0  0
  147.7482  136.5010  154.2195 H   0  0  0  0  0  0  0  0  0  0  0  0
  149.2003  136.2580  155.1884 H   0  0  0  0  0  0  0  0  0  0  0  0
  147.6025  136.0974  155.9283 H   0  0  0  0  0  0  0  0  0  0  0  0
  147.3199  134.6593  152.8035 H   0  0  0  0  0  0  0  0  0  0  0  0
  147.9515  131.5865  151.3371 H   0  0  0  0  0  0  0  0  0  0  0  0
  146.0281  130.3492  152.1126 H   0  0  0  0  0  0  0  0  0  0  0  0
  145.2015  131.8284  152.6566 H   0  0  0  0  0  0  0  0  0  0  0  0
  145.8318  131.0122  149.8022 H   0  0  0  0  0  0  0  0  0  0  0  0
  143.5147  132.2816  150.2361 H   0  0  0  0  0  0  0  0  0  0  0  0
  146.0547  133.2314  149.1783 H   0  0  0  0  0  0  0  0  0  0  0  0
  144.0556  133.8485  151.3514 H   0  0  0  0  0  0  0  0  0  0  0  0
  145.2602  135.0906  151.0682 H   0  0  0  0  0  0  0  0  0  0  0  0
  144.5431  134.4451  148.7166 H   0  0  0  0  0  0  0  0  0  0  0  0
  148.6351  131.0633  157.1485 H   0  0  0  0  0  0  0  0  0  0  0  0
  149.2463  130.1292  155.8397 H   0  0  0  0  0  0  0  0  0  0  0  0
  150.9441  129.0202  155.2715 H   0  0  0  0  0  0  0  0  0  0  0  0
  150.9937  130.3613  154.1191 H   0  0  0  0  0  0  0  0  0  0  0  0
  153.0752  128.3592  154.6099 H   0  0  0  0  0  0  0  0  0  0  0  0
  153.1219  129.6946  153.4417 H   0  0  0  0  0  0  0  0  0  0  0  0
  155.7703  129.5289  154.6879 H   0  0  0  0  0  0  0  0  0  0  0  0
  155.7395  132.3854  157.9556 H   0  0  0  0  0  0  0  0  0  0  0  0
  153.2933  132.4245  157.9250 H   0  0  0  0  0  0  0  0  0  0  0  0
  1  2  1  0  0  0  0
  1 33  1  0  0  0  0
  1 34  1  0  0  0  0
  1 35  1  0  0  0  0
  2 31  1  0  0  0  0
  2  3  2  0  0  0  0
  3  4  1  0  0  0  0
  3 36  1  0  0  0  0
  4  5  1  0  0  0  0
  4 13  1  0  0  0  0
  5 12  1  0  0  0  0
  5  6  1  0  0  0  0
  5 37  1  0  0  0  0
  6  7  1  0  0  0  0
  6 38  1  0  0  0  0
  6 39  1  0  0  0  0
  7  8  1  0  0  0  0
  7  9  1  0  0  0  0
  7 40  1  0  0  0  0
  8 41  1  0  0  0  0
  9 10  1  0  0  0  0
  9 12  1  0  0  0  0
  9 42  1  0  0  0  0
 10 11  1  0  0  0  0
 10 43  1  0  0  0  0
 10 44  1  0  0  0  0
 11 45  1  0  0  0  0
 13 14  2  0  0  0  0
 13 15  1  0  0  0  0
 15 16  1  0  0  0  0
 15 31  1  0  0  0  0
 16 17  1  0  0  0  0
 16 46  1  0  0  0  0
 16 47  1  0  0  0  0
 17 18  2  0  0  0  0
 17 19  1  0  0  0  0
 19 30  1  0  0  0  0
 19 20  1  0  0  0  0
 20 21  1  0  0  0  0
 20 48  1  0  0  0  0
 20 49  1  0  0  0  0
 21 22  1  0  0  0  0
 21 50  1  0  0  0  0
 21 51  1  0  0  0  0
 22 30  2  0  0  0  0
 22 23  1  0  0  0  0
 23 24  2  0  0  0  0
 23 52  1  0  0  0  0
 24 25  1  0  0  0  0
 24 28  1  0  0  0  0
 25 26  2  0  0  0  0
 25 27  1  0  0  0  0
 28 29  2  0  0  0  0
 28 53  1  0  0  0  0
 29 30  1  0  0  0  0
 29 54  1  0  0  0  0
 31 32  2  0  0  0  0
M  CHG  1  25   1
M  CHG  1  27  -1
M  END
> <s_m_source_file>
AV-unprocessed.smi

> <i_m_source_file_index>
112

> <i_lp_mmshare_version>
43012

> <i_f3d_flags>
0

> <s_epik_input>
W09IXVtDSDJdW0NAQEhdKE8xKVtDQEhdKFtPSF0pW0NIMl1bQ0BIXTFuKFtjSF1jMltDSDNdKWMoPU8pbihjMj1PKVtDSDJdQyg9TylOKFtDSDJdW0NIMl0zKWMoYzM0KVtjSF1bY0hdYyhbY0hdNClbTitdKD1PKVtPLV0=

> <s_epik_cmdline>
J2VwaWtfcHl0aG9uJywgJy1waCcsICc3LjAnLCAnLXRuJywgJzgnLCAnLW1hJywgJzIwMCcsICctbWV0YWxfYmluZGluZycsICctaW1hZScsICc8aW5maWxlLm1hZT4nLCAnLW9tYWUnLCAnPG91dGZpbGUubWFlPic=

> <r_lp_tautomer_probability>
1

> <r_epik_Ionization_Penalty>
2.5696e-07

> <r_epik_Ionization_Penalty_Charging>
1.04886e-08

> <r_epik_Ionization_Penalty_Neutral>
2.46472e-07

> <r_epik_State_Penalty>
-0

> <r_epik_Charging_Adjusted_Penalty>
1.04886e-08

> <i_epik_Tot_Q>
0

> <i_epik_Tot_abs_Q>
2

> <r_epik_Metal_State_Penalty>
-0

> <b_epik_Metal_Only>
0

> <s_epik_Chemistry_Notes>
This compound contains an acetal/aminal-like group ( X-CH(R)-Y where X, Y are N, S, or O) that may be acid/base labile, releasing an aldehyde.

> <s_lp_Force_Field>
OPLS_2005

> <r_lp_Energy>
61.1797

> <b_lp_Chiralities_Consistent>
1

> <s_lp_Variant>
AV-unprocessed.smi:112-2

> <Gold.Version>
5.8.1

> <Gold.Id.Protein>
6NUR|6NUR_protein|mol2

> <Gold.PLP.Fitness>
44.8425

> <Gold.PLP.PLP>
-37.8408

> <Gold.PLP.part.hbond>
-3.8748

> <Gold.PLP.part.metal>
0.0000

> <Gold.PLP.part.buried>
1.4385

> <Gold.PLP.part.nonpolar>
-34.6876

> <Gold.PLP.part.repulsive>
0.3081

> <Gold.PLP.ligand.clash>
0.0000

> <Gold.PLP.ligand.torsion>
1.0432

> <Gold.PLP.Chemscore.Hbond>
2.2860

> <Gold.PLP.Chemscore.CHOScore>
0.7317

> <Gold.PLP.Chemscore.Metal>
0.0000

> <Gold.Chemscore.Hbonds>
donor molecule, donor type, donor heavy atom, donor atom, acceptor molecule, acceptor atom, score
      L1  H    11    45       P1  7921  1.00
      P1  H  6896  6908       L1    18  1.00
      P1  H 10785 10796       L1     8  0.32
      L1  C     3    36       P1  7948  0.72

> <Gold.PLP.Chemscore.Internal.Correction>
0.0349

> <Gold.Rescore>
     Score         DG    S(hbond)    S(metal)    S(lipo)     H(rot)  DE(clash)    DE(int)     intcor
      7.12     -14.04       2.07        0.00      86.13       3.29       1.56       5.37       ----

> <Gold.Chemscore.Fitness>
7.1159

> <Gold.Chemscore.DG>
-14.0392

> <Gold.Chemscore.ZeroCoef>
-5.4800

> <Gold.Chemscore.Hbond>
2.0683

> <Gold.Chemscore.Metal>
0.0000

> <Gold.Chemscore.Lipo>
86.1348

> <Gold.Chemscore.Internal_Hbond>
0.0000

> <Gold.Chemscore.DEClash>
1.5582

> <Gold.Chemscore.DEInternal>
5.3651

> <Gold.Chemscore.Rot>
3.2916

> <Gold.Chemscore.Internal.Correction>
   9.000000E+99

> <Gold.Chemscore.Hbonds>
donor molecule, donor type, donor heavy atom, donor atom, acceptor molecule, acceptor atom, score
      L1  H    11    45       P1  7921  0.93
      P1  H  6896  6908       L1    18  0.97
      P1  H 10785 10796       L1     8  0.12

> <Gold.Chemscore.Hbond.Weighted>
-6.9080

> <Gold.Chemscore.Metal.Weighted>
-0.0000

> <Gold.Chemscore.Lipo.Weighted>
-10.0778

> <Gold.Chemscore.Internal_Hbond.Weighted>
0.0000

> <Gold.Chemscore.DEClash.Weighted>
1.5582

> <Gold.Chemscore.DEInternal.Weighted>
5.3651

> <Gold.Chemscore.Rot.Weighted>
8.4265

> <Gold.Chemscore.Internal.Correction.Weighted>
   9.000000E+99

> <Gold.Protein.RotatedTorsions>
[ 6907 6896 6895 6894 ] final   76.42 input  -60.11 | X-H torsion
[ 7974 7965 7964 7962 ] final  126.69 input  175.53 | X-H torsion
[ 8008 7997 7996 7995 ] final -136.61 input   59.86 | X-H torsion
[ 10167 10162 10161 10158 ] final  102.42 input  -65.29 | X-H torsion
[ 10718 10713 10712 10709 ] final    6.18 input   66.30 | X-H torsion
[ 10763 10752 10751 10750 ] final  -77.24 input  -60.55 | X-H torsion
[ 11005 11000 10999 10996 ] final   26.48 input  -57.11 | X-H torsion

> <Gold.Protein.ActiveResidues>
 VAL166  LYS551  ARG553  GLY616  TRP617  ASP618  TYR619  PRO620  LYS621  CYS622 
 ASP623  PHE694  ASN695  SER759  ASP760  ASP761  ALA762  ILE779  LEU786  VAL792 
 PHE793  MET794  SER795  GLU796  ALA797  LYS798  CYS799  TRP800  GLU811  SER814 

> <Gold.Protein.RotatedAtoms>
  152.5072  134.3972  159.9403 H   0  0  0  0  0  0  0  0  0  0  0  0  # atno 6907 bound_to 6896
  151.3934  133.3775  159.2731 H   0  0  0  0  0  0  0  0  0  0  0  0  # atno 6908 bound_to 6896
  150.9415  134.8845  159.7674 H   0  0  0  0  0  0  0  0  0  0  0  0  # atno 6909 bound_to 6896
  145.0589  139.3821  143.5016 H   0  0  0  0  0  0  0  0  0  0  0  0  # atno 7974 bound_to 7965
  155.3980  140.0504  157.3038 H   0  0  0  0  0  0  0  0  0  0  0  0  # atno 8008 bound_to 7997
  154.5004  140.2154  155.9319 H   0  0  0  0  0  0  0  0  0  0  0  0  # atno 8009 bound_to 7997
  156.1460  140.3145  155.8576 H   0  0  0  0  0  0  0  0  0  0  0  0  # atno 8010 bound_to 7997
  139.7352  144.7026  151.0660 H   0  0  0  0  0  0  0  0  0  0  0  0  # atno 10167 bound_to 10162
  156.9184  130.5782  149.5647 H   0  0  0  0  0  0  0  0  0  0  0  0  # atno 10718 bound_to 10713
  154.5104  135.5770  153.6600 H   0  0  0  0  0  0  0  0  0  0  0  0  # atno 10763 bound_to 10752
  152.9896  135.6157  154.2887 H   0  0  0  0  0  0  0  0  0  0  0  0  # atno 10764 bound_to 10752
  154.2801  135.2851  155.2680 H   0  0  0  0  0  0  0  0  0  0  0  0  # atno 10765 bound_to 10752
  140.3365  134.2380  155.7695 H   0  0  0  0  0  0  0  0  0  0  0  0  # atno 11005 bound_to 11000
  146.3523  140.0277  142.8653 LP  0  0  0  0  0  0  0  0  0  0  0  0  # atno 17320 bound_to 7965
  145.1434  140.9583  143.4475 LP  0  0  0  0  0  0  0  0  0  0  0  0  # atno 17321 bound_to 7965
  140.7777  143.4993  150.9791 LP  0  0  0  0  0  0  0  0  0  0  0  0  # atno 17342 bound_to 10162
  139.8682  143.7227  152.3168 LP  0  0  0  0  0  0  0  0  0  0  0  0  # atno 17343 bound_to 10162
  156.0502  130.5573  150.8973 LP  0  0  0  0  0  0  0  0  0  0  0  0  # atno 17370 bound_to 10713
  157.5923  131.0944  150.9098 LP  0  0  0  0  0  0  0  0  0  0  0  0  # atno 17371 bound_to 10713
  141.2050  133.7872  157.0258 LP  0  0  0  0  0  0  0  0  0  0  0  0  # atno 17394 bound_to 11000
  140.0816  134.9644  157.1634 LP  0  0  0  0  0  0  0  0  0  0  0  0  # atno 17395 bound_to 11000

$$$$
