AV-unprocessed.smi:299|AV-procd|sdf|2267|dock10
  -GOLD-   2262022153D 1   1.00000     0.00000
 Structure written by MMmdl.
 42 43  0  0  0  0  0  0  0  0  2 V2000
  143.9838  135.4450  151.3899 C   0  0  0  0  0  0  0  0  0  0  0  0
  145.5114  135.5788  151.2064 C   0  0  2  0  0  0  0  0  0  0  0  0
  146.1708  134.2467  150.7904 C   0  0  0  0  0  0  0  0  0  0  0  0
  146.2367  133.2464  151.9540 C   0  0  0  0  0  0  0  0  0  0  0  0
  146.9310  133.8899  153.1603 C   0  0  0  0  0  0  0  0  0  0  0  0
  146.2532  135.2130  153.5521 C   0  0  0  0  0  0  0  0  0  0  0  0
  146.2052  136.1533  152.3987 N   0  3  2  0  0  0  0  0  0  0  0  0
  145.7398  137.5181  152.7592 C   0  0  0  0  0  0  0  0  0  0  0  0
  146.4881  138.6167  151.9855 C   0  0  0  0  0  0  0  0  0  0  0  0
  147.4608  139.4008  152.8825 C   0  0  0  0  0  0  0  0  0  0  0  0
  148.6376  138.6097  153.2210 N   0  0  0  0  0  0  0  0  0  0  0  0
  149.7227  139.0725  153.8617 C   0  0  0  0  0  0  0  0  0  0  0  0
  149.8366  140.2351  154.2491 O   0  0  0  0  0  0  0  0  0  0  0  0
  150.8557  138.0729  154.0972 C   0  0  0  0  0  0  0  0  0  0  0  0
  151.6486  138.4485  155.2527 N   0  0  0  0  0  0  0  0  0  0  0  0
  152.1905  139.6169  155.6020 C   0  0  0  0  0  0  0  0  0  0  0  0
  152.8623  139.5232  156.7395 N   0  0  0  0  0  0  0  0  0  0  0  0
  152.7021  138.1934  157.0913 N   0  0  0  0  0  0  0  0  0  0  0  0
  151.9833  137.5503  156.2127 N   0  0  0  0  0  0  0  0  0  0  0  0
  143.5227  135.0440  150.4868 H   0  0  0  0  0  0  0  0  0  0  0  0
  143.5134  136.4089  151.5831 H   0  0  0  0  0  0  0  0  0  0  0  0
  143.7199  134.7778  152.2098 H   0  0  0  0  0  0  0  0  0  0  0  0
  145.6702  136.2743  150.3809 H   0  0  0  0  0  0  0  0  0  0  0  0
  145.6369  133.8060  149.9477 H   0  0  0  0  0  0  0  0  0  0  0  0
  147.1833  134.4440  150.4353 H   0  0  0  0  0  0  0  0  0  0  0  0
  145.2328  132.9236  152.2312 H   0  0  0  0  0  0  0  0  0  0  0  0
  146.7752  132.3493  151.6465 H   0  0  0  0  0  0  0  0  0  0  0  0
  146.9224  133.2018  154.0062 H   0  0  0  0  0  0  0  0  0  0  0  0
  147.9798  134.0742  152.9226 H   0  0  0  0  0  0  0  0  0  0  0  0
  145.2470  135.0275  153.9291 H   0  0  0  0  0  0  0  0  0  0  0  0
  146.8119  135.6552  154.3759 H   0  0  0  0  0  0  0  0  0  0  0  0
  144.6784  137.6059  152.5229 H   0  0  0  0  0  0  0  0  0  0  0  0
  145.8326  137.6736  153.8351 H   0  0  0  0  0  0  0  0  0  0  0  0
  147.0461  138.1849  151.1552 H   0  0  0  0  0  0  0  0  0  0  0  0
  145.7620  139.3023  151.5464 H   0  0  0  0  0  0  0  0  0  0  0  0
  147.7645  140.3320  152.4009 H   0  0  0  0  0  0  0  0  0  0  0  0
  146.9652  139.6793  153.8130 H   0  0  0  0  0  0  0  0  0  0  0  0
  148.6318  137.6392  152.9402 H   0  0  0  0  0  0  0  0  0  0  0  0
  150.4475  137.0750  154.2628 H   0  0  0  0  0  0  0  0  0  0  0  0
  151.4976  138.0172  153.2165 H   0  0  0  0  0  0  0  0  0  0  0  0
  152.0988  140.5255  155.0255 H   0  0  0  0  0  0  0  0  0  0  0  0
  147.1642  136.2704  152.1038 H   0  0  0  0  0  0  0  0  0  0  0  0
  1  2  1  0  0  0  0
  1 20  1  0  0  0  0
  1 21  1  0  0  0  0
  1 22  1  0  0  0  0
  2  7  1  0  0  0  0
  2  3  1  0  0  0  0
  2 23  1  0  0  0  0
  3  4  1  0  0  0  0
  3 24  1  0  0  0  0
  3 25  1  0  0  0  0
  4  5  1  0  0  0  0
  4 26  1  0  0  0  0
  4 27  1  0  0  0  0
  5  6  1  0  0  0  0
  5 28  1  0  0  0  0
  5 29  1  0  0  0  0
  6  7  1  0  0  0  0
  6 30  1  0  0  0  0
  6 31  1  0  0  0  0
  7  8  1  0  0  0  0
  7 42  1  0  0  0  0
  8  9  1  0  0  0  0
  8 32  1  0  0  0  0
  8 33  1  0  0  0  0
  9 10  1  0  0  0  0
  9 34  1  0  0  0  0
  9 35  1  0  0  0  0
 10 11  1  0  0  0  0
 10 36  1  0  0  0  0
 10 37  1  0  0  0  0
 11 12  1  0  0  0  0
 11 38  1  0  0  0  0
 12 13  2  0  0  0  0
 12 14  1  0  0  0  0
 14 15  1  0  0  0  0
 14 39  1  0  0  0  0
 14 40  1  0  0  0  0
 15 19  1  0  0  0  0
 15 16  1  0  0  0  0
 16 17  2  0  0  0  0
 16 41  1  0  0  0  0
 17 18  1  0  0  0  0
 18 19  2  0  0  0  0
M  CHG  1   7   1
M  END
> <s_m_source_file>
AV-unprocessed.smi

> <i_m_source_file_index>
299

> <i_lp_mmshare_version>
43012

> <i_f3d_flags>
0

> <s_epik_input>
W0NIM11bQ0BASF0xW0NIMl1bQ0gyXVtDSDJdW0NIMl1OMVtDSDJdW0NIMl1bQ0gyXVtOSF1DKD1PKVtDSDJdbjJbY0hdbm5uMg==

> <s_epik_cmdline>
J2VwaWtfcHl0aG9uJywgJy1waCcsICc3LjAnLCAnLXRuJywgJzgnLCAnLW1hJywgJzIwMCcsICctbWV0YWxfYmluZGluZycsICctaW1hZScsICc8aW5maWxlLm1hZT4nLCAnLW9tYWUnLCAnPG91dGZpbGUubWFlPic=

> <r_lp_tautomer_probability>
1

> <r_epik_Ionization_Penalty>
0.000544863

> <r_epik_Ionization_Penalty_Charging>
0.000543475

> <r_epik_Ionization_Penalty_Neutral>
1.38784e-06

> <r_epik_State_Penalty>
0.000340025

> <r_epik_Charging_Adjusted_Penalty>
0.0008835

> <i_epik_Tot_Q>
1

> <i_epik_Tot_abs_Q>
1

> <r_epik_Metal_State_Penalty>
-0

> <b_epik_Metal_Only>
0

> <s_lp_Force_Field>
OPLS_2005

> <r_lp_Energy>
22.352

> <b_lp_Chiralities_Consistent>
1

> <s_lp_Variant>
AV-unprocessed.smi:299-3

> <Gold.Version>
5.8.1

> <Gold.Id.Protein>
6NUR|6NUR_protein|mol2

> <Gold.PLP.Fitness>
45.8820

> <Gold.PLP.PLP>
-33.7750

> <Gold.PLP.part.hbond>
-5.0000

> <Gold.PLP.part.metal>
0.0000

> <Gold.PLP.part.buried>
-0.3811

> <Gold.PLP.part.nonpolar>
-28.4409

> <Gold.PLP.part.repulsive>
0.3615

> <Gold.PLP.ligand.clash>
0.0000

> <Gold.PLP.ligand.torsion>
1.3092

> <Gold.PLP.Chemscore.Hbond>
4.8800

> <Gold.PLP.Chemscore.CHOScore>
0.0000

> <Gold.PLP.Chemscore.Metal>
0.0000

> <Gold.Chemscore.Hbonds>
donor molecule, donor type, donor heavy atom, donor atom, acceptor molecule, acceptor atom, score
      L1  H     7    42       P1  7948  2.00
      L1  H    11    38       P1  7948  1.00
      P1  H  7989  7998       L1    13  0.86
      P1  H  7997  8010       L1    17  1.00

> <Gold.PLP.Chemscore.Internal.Correction>
0.0854

> <Gold.Rescore>
     Score         DG    S(hbond)    S(metal)    S(lipo)     H(rot)  DE(clash)    DE(int)     intcor
     14.20     -19.93       4.57        0.00      58.06       2.97       2.71       3.02       ----

> <Gold.Chemscore.Fitness>
14.1970

> <Gold.Chemscore.DG>
-19.9343

> <Gold.Chemscore.ZeroCoef>
-5.4800

> <Gold.Chemscore.Hbond>
4.5686

> <Gold.Chemscore.Metal>
0.0000

> <Gold.Chemscore.Lipo>
58.0612

> <Gold.Chemscore.Internal_Hbond>
0.0000

> <Gold.Chemscore.DEClash>
2.7141

> <Gold.Chemscore.DEInternal>
3.0232

> <Gold.Chemscore.Rot>
2.9680

> <Gold.Chemscore.Internal.Correction>
   9.000000E+99

> <Gold.Chemscore.Hbonds>
donor molecule, donor type, donor heavy atom, donor atom, acceptor molecule, acceptor atom, score
      L1  H     7    42       P1  7948  1.00
      L1  H    11    38       P1  7948  0.98
      P1  H  7989  7998       L1    13  0.40
      P1  H  7997  8010       L1    17  0.83

> <Gold.Chemscore.Hbond.Weighted>
-15.2591

> <Gold.Chemscore.Metal.Weighted>
-0.0000

> <Gold.Chemscore.Lipo.Weighted>
-6.7932

> <Gold.Chemscore.Internal_Hbond.Weighted>
0.0000

> <Gold.Chemscore.DEClash.Weighted>
2.7141

> <Gold.Chemscore.DEInternal.Weighted>
3.0232

> <Gold.Chemscore.Rot.Weighted>
7.5980

> <Gold.Chemscore.Internal.Correction.Weighted>
   9.000000E+99

> <Gold.Protein.RotatedTorsions>
[ 6907 6896 6895 6894 ] final -144.95 input  -60.11 | X-H torsion
[ 7974 7965 7964 7962 ] final -122.59 input  175.53 | X-H torsion
[ 8008 7997 7996 7995 ] final   55.64 input   59.86 | X-H torsion
[ 10167 10162 10161 10158 ] final    6.11 input  -65.29 | X-H torsion
[ 10718 10713 10712 10709 ] final -114.64 input   66.30 | X-H torsion
[ 10763 10752 10751 10750 ] final   94.00 input  -60.55 | X-H torsion
[ 11005 11000 10999 10996 ] final  122.38 input  -57.11 | X-H torsion

> <Gold.Protein.ActiveResidues>
 VAL166  LYS551  ARG553  GLY616  TRP617  ASP618  TYR619  PRO620  LYS621  CYS622 
 ASP623  PHE694  ASN695  SER759  ASP760  ASP761  ALA762  ILE779  LEU786  VAL792 
 PHE793  MET794  SER795  GLU796  ALA797  LYS798  CYS799  TRP800  GLU811  SER814 

> <Gold.Protein.RotatedAtoms>
  151.1211  133.5103  159.2601 H   0  0  0  0  0  0  0  0  0  0  0  0  # atno 6907 bound_to 6896
  151.1860  135.0381  159.8822 H   0  0  0  0  0  0  0  0  0  0  0  0  # atno 6908 bound_to 6896
  152.5456  134.1057  159.8390 H   0  0  0  0  0  0  0  0  0  0  0  0  # atno 6909 bound_to 6896
  145.0278  140.8042  143.4342 H   0  0  0  0  0  0  0  0  0  0  0  0  # atno 7974 bound_to 7965
  155.5044  140.3475  155.4377 H   0  0  0  0  0  0  0  0  0  0  0  0  # atno 8008 bound_to 7997
  156.0891  140.1406  156.9642 H   0  0  0  0  0  0  0  0  0  0  0  0  # atno 8009 bound_to 7997
  154.4624  140.0930  156.6907 H   0  0  0  0  0  0  0  0  0  0  0  0  # atno 8010 bound_to 7997
  140.6446  143.7693  150.7479 H   0  0  0  0  0  0  0  0  0  0  0  0  # atno 10167 bound_to 10162
  156.0843  130.6038  150.8801 H   0  0  0  0  0  0  0  0  0  0  0  0  # atno 10718 bound_to 10713
  153.2366  135.4305  155.0653 H   0  0  0  0  0  0  0  0  0  0  0  0  # atno 10763 bound_to 10752
  154.8321  135.3392  154.6710 H   0  0  0  0  0  0  0  0  0  0  0  0  # atno 10764 bound_to 10752
  153.7135  135.7021  153.5087 H   0  0  0  0  0  0  0  0  0  0  0  0  # atno 10765 bound_to 10752
  139.9266  134.9641  156.8100 H   0  0  0  0  0  0  0  0  0  0  0  0  # atno 11005 bound_to 11000
  145.1811  139.2351  143.5292 LP  0  0  0  0  0  0  0  0  0  0  0  0  # atno 17320 bound_to 7965
  146.3494  140.1585  142.8591 LP  0  0  0  0  0  0  0  0  0  0  0  0  # atno 17321 bound_to 7965
  140.1332  143.4507  152.2241 LP  0  0  0  0  0  0  0  0  0  0  0  0  # atno 17342 bound_to 10162
  139.5656  144.7433  151.4032 LP  0  0  0  0  0  0  0  0  0  0  0  0  # atno 17343 bound_to 10162
  157.5972  131.0942  150.9021 LP  0  0  0  0  0  0  0  0  0  0  0  0  # atno 17370 bound_to 10713
  156.9186  130.5306  149.5279 LP  0  0  0  0  0  0  0  0  0  0  0  0  # atno 17371 bound_to 10713
  140.6320  133.9897  155.7666 LP  0  0  0  0  0  0  0  0  0  0  0  0  # atno 17394 bound_to 11000
  141.0827  134.0038  157.3361 LP  0  0  0  0  0  0  0  0  0  0  0  0  # atno 17395 bound_to 11000

$$$$
