AV-unprocessed.smi:157|AV-procd|sdf|1313|dock2
  -GOLD-   2262019 03D 1   1.00000     0.00000
 Structure written by MMmdl.
 36 38  0  0  0  0  0  0  0  0  2 V2000
  149.7236  137.7085  154.1308 O   0  0  0  0  0  0  0  0  0  0  0  0
  151.0812  137.4648  154.4309 C   0  0  0  0  0  0  0  0  0  0  0  0
  151.6041  138.5477  155.3860 C   0  0  1  0  0  0  0  0  0  0  0  0
  150.5976  138.8817  156.3366 O   0  0  0  0  0  0  0  0  0  0  0  0
  151.1866  139.4187  157.4840 C   0  0  2  0  0  0  0  0  0  0  0  0
  150.9817  140.9026  157.4844 N   0  0  0  0  0  0  0  0  0  0  0  0
  150.2024  141.6181  156.6444 C   0  0  0  0  0  0  0  0  0  0  0  0
  150.2036  142.9200  156.8753 N   0  3  0  0  0  0  0  0  0  0  0  0
  151.0410  143.1258  157.9510 C   0  0  0  0  0  0  0  0  0  0  0  0
  151.5072  141.8613  158.3195 C   0  0  0  0  0  0  0  0  0  0  0  0
  152.3831  141.4916  159.3516 N   0  0  0  0  0  0  0  0  0  0  0  0
  152.6664  142.2721  160.3432 C   0  0  0  0  0  0  0  0  0  0  0  0
  152.2823  143.5854  160.5562 N   0  0  0  0  0  0  0  0  0  0  0  0
  152.3744  144.6106  159.5317 C   0  0  0  0  0  0  0  0  0  0  0  0
  151.2803  144.5134  158.4600 C   0  0  2  0  0  0  0  0  0  0  0  0
  150.1051  145.1171  158.9608 O   0  0  0  0  0  0  0  0  0  0  0  0
  152.6850  139.0965  157.4167 C   0  0  0  0  0  0  0  0  0  0  0  0
  152.7425  138.0787  156.2928 C   0  0  2  0  0  0  0  0  0  0  0  0
  153.9965  138.1132  155.6431 O   0  0  0  0  0  0  0  0  0  0  0  0
  151.9115  139.4425  154.8406 H   0  0  0  0  0  0  0  0  0  0  0  0
  150.6871  139.0592  158.3843 H   0  0  0  0  0  0  0  0  0  0  0  0
  151.5930  145.1255  157.6132 H   0  0  0  0  0  0  0  0  0  0  0  0
  152.5415  137.0778  156.6780 H   0  0  0  0  0  0  0  0  0  0  0  0
  149.4787  137.1732  153.3912 H   0  0  0  0  0  0  0  0  0  0  0  0
  151.2054  136.4667  154.8524 H   0  0  0  0  0  0  0  0  0  0  0  0
  151.6350  137.4922  153.4922 H   0  0  0  0  0  0  0  0  0  0  0  0
  149.6285  141.1673  155.8544 H   0  0  0  0  0  0  0  0  0  0  0  0
  153.2986  141.8950  161.1485 H   0  0  0  0  0  0  0  0  0  0  0  0
  152.3935  143.9772  161.4807 H   0  0  0  0  0  0  0  0  0  0  0  0
  152.3747  145.5967  159.9977 H   0  0  0  0  0  0  0  0  0  0  0  0
  153.3486  144.5034  159.0520 H   0  0  0  0  0  0  0  0  0  0  0  0
  149.6262  145.4940  158.2390 H   0  0  0  0  0  0  0  0  0  0  0  0
  153.2485  139.9966  157.1623 H   0  0  0  0  0  0  0  0  0  0  0  0
  153.0474  138.7108  158.3700 H   0  0  0  0  0  0  0  0  0  0  0  0
  154.5993  137.5638  156.1207 H   0  0  0  0  0  0  0  0  0  0  0  0
  149.6913  143.6224  156.3568 H   0  0  0  0  0  0  0  0  0  0  0  0
  1  2  1  0  0  0  0
  1 24  1  0  0  0  0
  2  3  1  0  0  0  0
  2 25  1  0  0  0  0
  2 26  1  0  0  0  0
  3 20  1  0  0  0  0
  3 18  1  0  0  0  0
  3  4  1  0  0  0  0
  4  5  1  0  0  0  0
  5 21  1  0  0  0  0
  5  6  1  0  0  0  0
  5 17  1  0  0  0  0
  6 10  1  0  0  0  0
  6  7  1  0  0  0  0
  7  8  2  0  0  0  0
  7 27  1  0  0  0  0
  8  9  1  0  0  0  0
  8 36  1  0  0  0  0
  9 15  1  0  0  0  0
  9 10  2  0  0  0  0
 10 11  1  0  0  0  0
 11 12  2  0  0  0  0
 12 13  1  0  0  0  0
 12 28  1  0  0  0  0
 13 14  1  0  0  0  0
 13 29  1  0  0  0  0
 14 15  1  0  0  0  0
 14 30  1  0  0  0  0
 14 31  1  0  0  0  0
 15 22  1  0  0  0  0
 15 16  1  0  0  0  0
 16 32  1  0  0  0  0
 17 18  1  0  0  0  0
 17 33  1  0  0  0  0
 17 34  1  0  0  0  0
 18 23  1  0  0  0  0
 18 19  1  0  0  0  0
 19 35  1  0  0  0  0
M  CHG  1   8   1
M  END
> <s_m_source_file>
AV-unprocessed.smi

> <i_m_source_file_index>
157

> <i_lp_mmshare_version>
43012

> <i_f3d_flags>
0

> <s_epik_input>
W09IXVtDSDJdW0NASF0xT1tDQEhdKFtDSDJdW0NAQEhdMVtPSF0pbihbY0hdbjIpYyhjMjMpTj1bQ0hdW05IXVtDSDJdW0NASF0zW09IXQ==

> <s_epik_cmdline>
J2VwaWtfcHl0aG9uJywgJy1waCcsICc3LjAnLCAnLXRuJywgJzgnLCAnLW1hJywgJzIwMCcsICctbWV0YWxfYmluZGluZycsICctaW1hZScsICc8aW5maWxlLm1hZT4nLCAnLW9tYWUnLCAnPG91dGZpbGUubWFlPic=

> <r_epik_Ionization_Penalty>
1.68594

> <r_epik_Ionization_Penalty_Charging>
0

> <r_epik_Ionization_Penalty_Neutral>
1.68594

> <r_epik_State_Penalty>
1.79006

> <r_epik_Charging_Adjusted_Penalty>
1.79006

> <i_epik_Tot_Q>
1

> <i_epik_Tot_abs_Q>
1

> <r_epik_Metal_State_Penalty>
5.85324

> <b_epik_Metal_Only>
0

> <s_epik_Chemistry_Notes>
This compound has an imine and may undergo hydrolysis. This compound contains an acetal/aminal-like group ( X-CH(R)-Y where X, Y are N, S, or O) that may be acid/base labile, releasing an aldehyde.

> <s_lp_Force_Field>
OPLS_2005

> <r_lp_Energy>
52.2724

> <b_lp_Chiralities_Consistent>
1

> <s_lp_Variant>
AV-unprocessed.smi:157-23

> <Gold.Version>
5.8.1

> <Gold.Id.Protein>
6NUR|6NUR_protein|mol2

> <Gold.PLP.Fitness>
48.3435

> <Gold.PLP.PLP>
-35.8100

> <Gold.PLP.part.hbond>
-4.5179

> <Gold.PLP.part.metal>
0.0000

> <Gold.PLP.part.buried>
-5.4328

> <Gold.PLP.part.nonpolar>
-26.8003

> <Gold.PLP.part.repulsive>
0.0793

> <Gold.PLP.ligand.clash>
0.0000

> <Gold.PLP.ligand.torsion>
0.3770

> <Gold.PLP.Chemscore.Hbond>
4.4224

> <Gold.PLP.Chemscore.CHOScore>
0.0000

> <Gold.PLP.Chemscore.Metal>
0.0000

> <Gold.Chemscore.Hbonds>
donor molecule, donor type, donor heavy atom, donor atom, acceptor molecule, acceptor atom, score
      L1  H     1    24       P1  7948  1.00
      L1  H     8    36       P1  8028  1.98
      L1  H    16    32       P1  8029  1.00
      P1  H  7997  8009       L1    19  0.36

> <Gold.PLP.Chemscore.Internal.Correction>
0.0205

> <Gold.Rescore>
     Score         DG    S(hbond)    S(metal)    S(lipo)     H(rot)  DE(clash)    DE(int)     intcor
     12.61     -12.99       2.99        0.00      59.07       3.67       0.09       0.29       ----

> <Gold.Chemscore.Fitness>
12.6103

> <Gold.Chemscore.DG>
-12.9928

> <Gold.Chemscore.ZeroCoef>
-5.4800

> <Gold.Chemscore.Hbond>
2.9900

> <Gold.Chemscore.Metal>
0.0000

> <Gold.Chemscore.Lipo>
59.0685

> <Gold.Chemscore.Internal_Hbond>
0.0000

> <Gold.Chemscore.DEClash>
0.0901

> <Gold.Chemscore.DEInternal>
0.2924

> <Gold.Chemscore.Rot>
3.6659

> <Gold.Chemscore.Internal.Correction>
   9.000000E+99

> <Gold.Chemscore.Hbonds>
donor molecule, donor type, donor heavy atom, donor atom, acceptor molecule, acceptor atom, score
      L1  H     1    24       P1  7948  0.91
      L1  H     8    36       P1  8028  0.92
      L1  H    16    32       P1  8029  0.51
      P1  H  7997  8009       L1    19  0.07

> <Gold.Chemscore.Hbond.Weighted>
-9.9866

> <Gold.Chemscore.Metal.Weighted>
-0.0000

> <Gold.Chemscore.Lipo.Weighted>
-6.9110

> <Gold.Chemscore.Internal_Hbond.Weighted>
0.0000

> <Gold.Chemscore.DEClash.Weighted>
0.0901

> <Gold.Chemscore.DEInternal.Weighted>
0.2924

> <Gold.Chemscore.Rot.Weighted>
9.3848

> <Gold.Chemscore.Internal.Correction.Weighted>
   9.000000E+99

> <Gold.Protein.RotatedTorsions>
[ 6907 6896 6895 6894 ] final   43.38 input  -60.11 | X-H torsion
[ 7974 7965 7964 7962 ] final   20.44 input  175.53 | X-H torsion
[ 8008 7997 7996 7995 ] final -135.01 input   59.86 | X-H torsion
[ 10167 10162 10161 10158 ] final   12.65 input  -65.29 | X-H torsion
[ 10718 10713 10712 10709 ] final   95.89 input   66.30 | X-H torsion
[ 10763 10752 10751 10750 ] final -173.59 input  -60.55 | X-H torsion
[ 11005 11000 10999 10996 ] final -139.80 input  -57.11 | X-H torsion

> <Gold.Protein.ActiveResidues>
 VAL166  LYS551  ARG553  GLY616  TRP617  ASP618  TYR619  PRO620  LYS621  CYS622 
 ASP623  PHE694  ASN695  SER759  ASP760  ASP761  ALA762  ILE779  LEU786  VAL792 
 PHE793  MET794  SER795  GLU796  ALA797  LYS798  CYS799  TRP800  GLU811  SER814 

> <Gold.Protein.RotatedAtoms>
  152.2196  134.8426  160.0487 H   0  0  0  0  0  0  0  0  0  0  0  0  # atno 6907 bound_to 6896
  151.9214  133.3581  159.3906 H   0  0  0  0  0  0  0  0  0  0  0  0  # atno 6908 bound_to 6896
  150.6996  134.4556  159.5401 H   0  0  0  0  0  0  0  0  0  0  0  0  # atno 6909 bound_to 6896
  146.2111  139.8170  142.8688 H   0  0  0  0  0  0  0  0  0  0  0  0  # atno 7974 bound_to 7965
  155.3716  140.0488  157.3045 H   0  0  0  0  0  0  0  0  0  0  0  0  # atno 8008 bound_to 7997
  154.5127  140.2197  155.9088 H   0  0  0  0  0  0  0  0  0  0  0  0  # atno 8009 bound_to 7997
  156.1601  140.3118  155.8798 H   0  0  0  0  0  0  0  0  0  0  0  0  # atno 8010 bound_to 7997
  140.6054  143.8518  150.7008 H   0  0  0  0  0  0  0  0  0  0  0  0  # atno 10167 bound_to 10162
  157.6933  131.0560  150.4408 H   0  0  0  0  0  0  0  0  0  0  0  0  # atno 10718 bound_to 10713
  154.6061  135.2859  155.0483 H   0  0  0  0  0  0  0  0  0  0  0  0  # atno 10763 bound_to 10752
  154.1730  135.6469  153.5018 H   0  0  0  0  0  0  0  0  0  0  0  0  # atno 10764 bound_to 10752
  153.0176  135.5405  154.6798 H   0  0  0  0  0  0  0  0  0  0  0  0  # atno 10765 bound_to 10752
  140.8485  134.2315  157.4773 H   0  0  0  0  0  0  0  0  0  0  0  0  # atno 11005 bound_to 11000
  145.3136  141.0226  143.3540 LP  0  0  0  0  0  0  0  0  0  0  0  0  # atno 17320 bound_to 7965
  144.8917  139.4765  143.6674 LP  0  0  0  0  0  0  0  0  0  0  0  0  # atno 17321 bound_to 7965
  140.2074  143.3910  152.1745 LP  0  0  0  0  0  0  0  0  0  0  0  0  # atno 17342 bound_to 10162
  139.5321  144.7170  151.5019 LP  0  0  0  0  0  0  0  0  0  0  0  0  # atno 17343 bound_to 10162
  156.4766  130.4064  149.6486 LP  0  0  0  0  0  0  0  0  0  0  0  0  # atno 17370 bound_to 10713
  156.3547  130.7450  151.2414 LP  0  0  0  0  0  0  0  0  0  0  0  0  # atno 17371 bound_to 10713
  139.8704  134.9671  156.4586 LP  0  0  0  0  0  0  0  0  0  0  0  0  # atno 17394 bound_to 11000
  140.8817  133.7913  155.9473 LP  0  0  0  0  0  0  0  0  0  0  0  0  # atno 17395 bound_to 11000

$$$$
