AV-unprocessed.smi:1263|AV-procd|sdf|5312|dock7
  -GOLD-   22720 4433D 1   1.00000     0.00000
 Structure written by MMmdl.
 43 45  0  0  0  0  0  0  0  0  1 V2000
  145.9746  132.7261  151.4259 C   0  0  0  0  0  0  0  0  0  0  0  0
  147.0037  133.2013  152.2869 O   0  0  0  0  0  0  0  0  0  0  0  0
  147.7886  132.2767  152.9494 C   0  0  0  0  0  0  0  0  0  0  0  0
  147.4780  130.9616  152.8265 N   0  0  0  0  0  0  0  0  0  0  0  0
  148.2466  130.0568  153.4666 C   0  0  0  0  0  0  0  0  0  0  0  0
  149.3596  130.4094  154.2514 C   0  0  0  0  0  0  0  0  0  0  0  0
  149.6834  131.7725  154.3815 C   0  0  0  0  0  0  0  0  0  0  0  0
  148.8771  132.7358  153.7277 C   0  0  0  0  0  0  0  0  0  0  0  0
  149.1280  134.1349  153.7749 N   0  0  0  0  0  0  0  0  0  0  0  0
  149.7032  134.8519  154.7553 C   0  0  0  0  0  0  0  0  0  0  0  0
  150.0830  134.4011  155.8360 O   0  0  0  0  0  0  0  0  0  0  0  0
  149.7950  136.1451  154.4138 N   0  0  0  0  0  0  0  0  0  0  0  0
  150.3550  137.2118  155.2396 C   0  0  0  0  0  0  0  0  0  0  0  0
  149.2538  138.2108  155.6289 C   0  0  0  0  0  0  0  0  0  0  0  0
  149.8458  139.4304  156.3567 C   0  0  0  0  0  0  0  0  0  0  0  0
  150.8399  140.0906  155.5100 N   0  0  0  0  0  0  0  0  0  0  0  0
  151.3441  141.2634  156.2054 C   0  0  0  0  0  0  0  0  0  0  0  0
  151.4717  141.1821  157.7094 C   0  0  0  0  0  0  0  0  0  0  0  0
  150.3799  142.0207  157.0895 C   0  0  0  0  0  0  0  0  0  0  0  0
  151.9542  139.1792  155.2481 C   0  0  0  0  0  0  0  0  0  0  0  0
  151.4607  137.9484  154.4674 C   0  0  0  0  0  0  0  0  0  0  0  0
  145.4530  133.5751  150.9840 H   0  0  0  0  0  0  0  0  0  0  0  0
  145.2387  132.1342  151.9722 H   0  0  0  0  0  0  0  0  0  0  0  0
  146.3818  132.1273  150.6099 H   0  0  0  0  0  0  0  0  0  0  0  0
  147.9700  129.0201  153.3431 H   0  0  0  0  0  0  0  0  0  0  0  0
  149.9549  129.6511  154.7381 H   0  0  0  0  0  0  0  0  0  0  0  0
  150.5486  132.0484  154.9639 H   0  0  0  0  0  0  0  0  0  0  0  0
  148.7788  134.6608  152.9868 H   0  0  0  0  0  0  0  0  0  0  0  0
  149.4481  136.4168  153.5055 H   0  0  0  0  0  0  0  0  0  0  0  0
  150.7906  136.8062  156.1545 H   0  0  0  0  0  0  0  0  0  0  0  0
  148.7203  138.5463  154.7380 H   0  0  0  0  0  0  0  0  0  0  0  0
  148.5155  137.7233  156.2666 H   0  0  0  0  0  0  0  0  0  0  0  0
  149.0464  140.1328  156.5958 H   0  0  0  0  0  0  0  0  0  0  0  0
  150.2972  139.1253  157.3023 H   0  0  0  0  0  0  0  0  0  0  0  0
  152.0956  141.8765  155.7101 H   0  0  0  0  0  0  0  0  0  0  0  0
  151.1761  140.2549  158.1967 H   0  0  0  0  0  0  0  0  0  0  0  0
  152.3075  141.7045  158.1703 H   0  0  0  0  0  0  0  0  0  0  0  0
  150.4878  143.1024  157.1377 H   0  0  0  0  0  0  0  0  0  0  0  0
  149.3590  141.6507  157.1655 H   0  0  0  0  0  0  0  0  0  0  0  0
  152.7181  139.6954  154.6656 H   0  0  0  0  0  0  0  0  0  0  0  0
  152.4203  138.8720  156.1859 H   0  0  0  0  0  0  0  0  0  0  0  0
  152.2960  137.2738  154.2768 H   0  0  0  0  0  0  0  0  0  0  0  0
  151.0894  138.2651  153.4913 H   0  0  0  0  0  0  0  0  0  0  0  0
  1  2  1  0  0  0  0
  1 22  1  0  0  0  0
  1 23  1  0  0  0  0
  1 24  1  0  0  0  0
  2  3  1  0  0  0  0
  3  8  1  0  0  0  0
  3  4  2  0  0  0  0
  4  5  1  0  0  0  0
  5  6  2  0  0  0  0
  5 25  1  0  0  0  0
  6  7  1  0  0  0  0
  6 26  1  0  0  0  0
  7  8  2  0  0  0  0
  7 27  1  0  0  0  0
  8  9  1  0  0  0  0
  9 10  1  0  0  0  0
  9 28  1  0  0  0  0
 10 11  2  0  0  0  0
 10 12  1  0  0  0  0
 12 13  1  0  0  0  0
 12 29  1  0  0  0  0
 13 21  1  0  0  0  0
 13 14  1  0  0  0  0
 13 30  1  0  0  0  0
 14 15  1  0  0  0  0
 14 31  1  0  0  0  0
 14 32  1  0  0  0  0
 15 16  1  0  0  0  0
 15 33  1  0  0  0  0
 15 34  1  0  0  0  0
 16 17  1  0  0  0  0
 16 20  1  0  0  0  0
 17 19  1  0  0  0  0
 17 18  1  0  0  0  0
 17 35  1  0  0  0  0
 18 19  1  0  0  0  0
 18 36  1  0  0  0  0
 18 37  1  0  0  0  0
 19 38  1  0  0  0  0
 19 39  1  0  0  0  0
 20 21  1  0  0  0  0
 20 40  1  0  0  0  0
 20 41  1  0  0  0  0
 21 42  1  0  0  0  0
 21 43  1  0  0  0  0
M  END
> <s_m_source_file>
AV-unprocessed.smi

> <i_m_source_file_index>
1263

> <i_lp_mmshare_version>
43012

> <i_f3d_flags>
0

> <s_epik_input>
W0NIM11PYzFuW2NIXVtjSF1bY0hdYzFbTkhdQyg9TylbTkhdW0NIXTJbQ0gyXVtDSDJdTihbQ0gyXVtDSDJdMilbQ0hdM1tDSDJdW0NIMl0z

> <s_epik_cmdline>
J2VwaWtfcHl0aG9uJywgJy1waCcsICc3LjAnLCAnLXRuJywgJzgnLCAnLW1hJywgJzIwMCcsICctbWV0YWxfYmluZGluZycsICctaW1hZScsICc8aW5maWxlLm1hZT4nLCAnLW9tYWUnLCAnPG91dGZpbGUubWFlPic=

> <r_lp_tautomer_probability>
1

> <r_epik_Ionization_Penalty>
1.02543

> <r_epik_Ionization_Penalty_Charging>
0

> <r_epik_Ionization_Penalty_Neutral>
1.02543

> <r_epik_State_Penalty>
1.07599

> <r_epik_Charging_Adjusted_Penalty>
1.07599

> <i_epik_Tot_Q>
0

> <i_epik_Tot_abs_Q>
0

> <r_epik_Metal_State_Penalty>
1.07599

> <b_epik_Metal_Only>
0

> <s_lp_Force_Field>
OPLS_2005

> <r_lp_Energy>
24.353

> <b_lp_Chiralities_Consistent>
1

> <s_lp_Variant>
AV-unprocessed.smi:1263-3

> <Gold.Version>
5.8.1

> <Gold.Id.Protein>
6NUR|6NUR_protein|mol2

> <Gold.PLP.Fitness>
38.9765

> <Gold.PLP.PLP>
-34.1688

> <Gold.PLP.part.hbond>
-2.3415

> <Gold.PLP.part.metal>
0.0000

> <Gold.PLP.part.buried>
-5.2565

> <Gold.PLP.part.nonpolar>
-27.3003

> <Gold.PLP.part.repulsive>
0.8991

> <Gold.PLP.ligand.clash>
0.3400

> <Gold.PLP.ligand.torsion>
0.8115

> <Gold.PLP.Chemscore.Hbond>
1.8664

> <Gold.PLP.Chemscore.CHOScore>
0.0000

> <Gold.PLP.Chemscore.Metal>
0.0000

> <Gold.Chemscore.Hbonds>
donor molecule, donor type, donor heavy atom, donor atom, acceptor molecule, acceptor atom, score
      L1  H     9    28       P1  7948  0.76
      L1  H    12    29       P1  7948  1.00

> <Gold.PLP.Chemscore.Internal.Correction>
1.1715

> <Gold.Rescore>
     Score         DG    S(hbond)    S(metal)    S(lipo)     H(rot)  DE(clash)    DE(int)     intcor
     12.77     -14.91       1.33        0.00      73.39       1.41       0.03       2.11       ----

> <Gold.Chemscore.Fitness>
12.7721

> <Gold.Chemscore.DG>
-14.9099

> <Gold.Chemscore.ZeroCoef>
-5.4800

> <Gold.Chemscore.Hbond>
1.3298

> <Gold.Chemscore.Metal>
0.0000

> <Gold.Chemscore.Lipo>
73.3857

> <Gold.Chemscore.Internal_Hbond>
0.0000

> <Gold.Chemscore.DEClash>
0.0316

> <Gold.Chemscore.DEInternal>
2.1063

> <Gold.Chemscore.Rot>
1.4053

> <Gold.Chemscore.Internal.Correction>
   9.000000E+99

> <Gold.Chemscore.Hbonds>
donor molecule, donor type, donor heavy atom, donor atom, acceptor molecule, acceptor atom, score
      L1  H     9    28       P1  7948  0.11
      L1  H    12    29       P1  7948  0.74

> <Gold.Chemscore.Hbond.Weighted>
-4.4414

> <Gold.Chemscore.Metal.Weighted>
-0.0000

> <Gold.Chemscore.Lipo.Weighted>
-8.5861

> <Gold.Chemscore.Internal_Hbond.Weighted>
0.0000

> <Gold.Chemscore.DEClash.Weighted>
0.0316

> <Gold.Chemscore.DEInternal.Weighted>
2.1063

> <Gold.Chemscore.Rot.Weighted>
3.5977

> <Gold.Chemscore.Internal.Correction.Weighted>
   9.000000E+99

> <Gold.Protein.RotatedTorsions>
[ 6907 6896 6895 6894 ] final  162.29 input  -60.11 | X-H torsion
[ 7974 7965 7964 7962 ] final   24.54 input  175.53 | X-H torsion
[ 8008 7997 7996 7995 ] final  174.53 input   59.86 | X-H torsion
[ 10167 10162 10161 10158 ] final -158.44 input  -65.29 | X-H torsion
[ 10718 10713 10712 10709 ] final  -74.72 input   66.30 | X-H torsion
[ 10763 10752 10751 10750 ] final    5.37 input  -60.55 | X-H torsion
[ 11005 11000 10999 10996 ] final  -89.42 input  -57.11 | X-H torsion

> <Gold.Protein.ActiveResidues>
 VAL166  LYS551  ARG553  GLY616  TRP617  ASP618  TYR619  PRO620  LYS621  CYS622 
 ASP623  PHE694  ASN695  SER759  ASP760  ASP761  ALA762  ILE779  LEU786  VAL792 
 PHE793  MET794  SER795  GLU796  ALA797  LYS798  CYS799  TRP800  GLU811  SER814 

> <Gold.Protein.RotatedAtoms>
  151.9427  133.3642  159.3970 H   0  0  0  0  0  0  0  0  0  0  0  0  # atno 6907 bound_to 6896
  150.6995  134.4422  159.5307 H   0  0  0  0  0  0  0  0  0  0  0  0  # atno 6908 bound_to 6896
  152.2082  134.8526  160.0551 H   0  0  0  0  0  0  0  0  0  0  0  0  # atno 6909 bound_to 6896
  146.1933  139.7591  142.8816 H   0  0  0  0  0  0  0  0  0  0  0  0  # atno 7974 bound_to 7965
  156.0964  140.1432  156.9525 H   0  0  0  0  0  0  0  0  0  0  0  0  # atno 8008 bound_to 7997
  154.4674  140.0921  156.7103 H   0  0  0  0  0  0  0  0  0  0  0  0  # atno 8009 bound_to 7997
  155.4833  140.3445  155.4345 H   0  0  0  0  0  0  0  0  0  0  0  0  # atno 8010 bound_to 7997
  139.6692  143.9775  152.2273 H   0  0  0  0  0  0  0  0  0  0  0  0  # atno 10167 bound_to 10162
  156.0232  130.4424  150.2935 H   0  0  0  0  0  0  0  0  0  0  0  0  # atno 10718 bound_to 10713
  153.2602  135.6922  153.7586 H   0  0  0  0  0  0  0  0  0  0  0  0  # atno 10763 bound_to 10752
  153.6648  135.3354  155.3138 H   0  0  0  0  0  0  0  0  0  0  0  0  # atno 10764 bound_to 10752
  154.8427  135.4486  154.1590 H   0  0  0  0  0  0  0  0  0  0  0  0  # atno 10765 bound_to 10752
  141.1585  133.7629  156.9593 H   0  0  0  0  0  0  0  0  0  0  0  0  # atno 11005 bound_to 11000
  145.3725  141.0345  143.3223 LP  0  0  0  0  0  0  0  0  0  0  0  0  # atno 17320 bound_to 7965
  144.8529  139.5294  143.6848 LP  0  0  0  0  0  0  0  0  0  0  0  0  # atno 17321 bound_to 7965
  139.9535  144.6605  150.8149 LP  0  0  0  0  0  0  0  0  0  0  0  0  # atno 17342 bound_to 10162
  140.7611  143.3167  151.2717 LP  0  0  0  0  0  0  0  0  0  0  0  0  # atno 17343 bound_to 10162
  157.1039  131.0203  151.3075 LP  0  0  0  0  0  0  0  0  0  0  0  0  # atno 17370 bound_to 10713
  157.4758  130.7736  149.7367 LP  0  0  0  0  0  0  0  0  0  0  0  0  # atno 17371 bound_to 10713
  140.1204  134.9420  157.2195 LP  0  0  0  0  0  0  0  0  0  0  0  0  # atno 17394 bound_to 11000
  140.3079  134.3057  155.7273 LP  0  0  0  0  0  0  0  0  0  0  0  0  # atno 17395 bound_to 11000

$$$$
