AV-unprocessed.smi:2510|AV-procd|sdf|9876|dock3
  -GOLD-   2272013513D 1   1.00000     0.00000
 Structure written by MMmdl.
 48 49  0  0  0  0  0  0  0  0  1 V2000
  146.8610  139.4069  152.9362 C   0  0  0  0  0  0  0  0  0  0  0  0
  147.8367  138.3517  153.4897 C   0  0  0  0  0  0  0  0  0  0  0  0
  148.5325  138.6743  154.8433 C   0  0  0  0  0  0  0  0  0  0  0  0
  147.4568  138.9070  155.9267 C   0  0  0  0  0  0  0  0  0  0  0  0
  146.6718  137.6495  156.3354 C   0  0  0  0  0  0  0  0  0  0  0  0
  149.7271  137.7801  155.2811 C   0  0  1  0  0  0  0  0  0  0  0  0
  149.7242  136.4193  154.7583 N   0  0  0  0  0  0  0  0  0  0  0  0
  149.9415  135.3211  155.4972 C   0  0  0  0  0  0  0  0  0  0  0  0
  150.1187  135.3466  156.7148 O   0  0  0  0  0  0  0  0  0  0  0  0
  149.9588  133.9890  154.7473 C   0  0  0  0  0  0  0  0  0  0  0  0
  148.6643  133.7995  154.0019 C   0  0  0  0  0  0  0  0  0  0  0  0
  148.2944  132.7253  153.1382 C   0  0  0  0  0  0  0  0  0  0  0  0
  147.0277  133.0376  152.7318 C   0  0  0  0  0  0  0  0  0  0  0  0
  146.0761  132.3281  151.8299 C   0  0  0  0  0  0  0  0  0  0  0  0
  146.7136  134.2317  153.3384 N   0  0  0  0  0  0  0  0  0  0  0  0
  147.7049  134.7081  154.1134 N   0  0  0  0  0  0  0  0  0  0  0  0
  150.6789  138.6975  154.5077 C   0  0  2  0  0  0  0  0  0  0  0  0
  152.1092  138.8850  154.9982 C   0  0  0  0  0  0  0  0  0  0  0  0
  149.6129  139.7879  154.7216 C   0  0  2  0  0  0  0  0  0  0  0  0
  149.7958  140.4952  155.9443 O   0  0  0  0  0  0  0  0  0  0  0  0
  150.8153  141.4771  155.8730 C   0  0  0  0  0  0  0  0  0  0  0  0
  145.8388  134.7259  153.2341 H   0  0  0  0  0  0  0  0  0  0  0  0
  146.3528  139.0229  152.0517 H   0  0  0  0  0  0  0  0  0  0  0  0
  147.3755  140.3179  152.6322 H   0  0  0  0  0  0  0  0  0  0  0  0
  146.0928  139.6801  153.6566 H   0  0  0  0  0  0  0  0  0  0  0  0
  147.2847  137.4155  153.5679 H   0  0  0  0  0  0  0  0  0  0  0  0
  148.5903  138.1546  152.7272 H   0  0  0  0  0  0  0  0  0  0  0  0
  147.8907  139.3712  156.8117 H   0  0  0  0  0  0  0  0  0  0  0  0
  146.7349  139.6441  155.5741 H   0  0  0  0  0  0  0  0  0  0  0  0
  145.8858  137.9032  157.0468 H   0  0  0  0  0  0  0  0  0  0  0  0
  147.3115  136.9076  156.8122 H   0  0  0  0  0  0  0  0  0  0  0  0
  146.1957  137.1794  155.4748 H   0  0  0  0  0  0  0  0  0  0  0  0
  149.9188  137.8367  156.3557 H   0  0  0  0  0  0  0  0  0  0  0  0
  149.5798  136.3079  153.7653 H   0  0  0  0  0  0  0  0  0  0  0  0
  150.8102  133.9722  154.0654 H   0  0  0  0  0  0  0  0  0  0  0  0
  150.1139  133.1725  155.4537 H   0  0  0  0  0  0  0  0  0  0  0  0
  148.8718  131.8548  152.8644 H   0  0  0  0  0  0  0  0  0  0  0  0
  146.5245  131.4199  151.4262 H   0  0  0  0  0  0  0  0  0  0  0  0
  145.7893  132.9633  150.9914 H   0  0  0  0  0  0  0  0  0  0  0  0
  145.1703  132.0465  152.3673 H   0  0  0  0  0  0  0  0  0  0  0  0
  150.6887  138.4221  153.4516 H   0  0  0  0  0  0  0  0  0  0  0  0
  152.1411  139.1546  156.0541 H   0  0  0  0  0  0  0  0  0  0  0  0
  152.6195  139.6685  154.4383 H   0  0  0  0  0  0  0  0  0  0  0  0
  152.6861  137.9681  154.8783 H   0  0  0  0  0  0  0  0  0  0  0  0
  149.4573  140.4412  153.8610 H   0  0  0  0  0  0  0  0  0  0  0  0
  150.9331  141.9526  156.8465 H   0  0  0  0  0  0  0  0  0  0  0  0
  150.5589  142.2522  155.1500 H   0  0  0  0  0  0  0  0  0  0  0  0
  151.7743  141.0420  155.5921 H   0  0  0  0  0  0  0  0  0  0  0  0
  1  2  1  0  0  0  0
  1 23  1  0  0  0  0
  1 24  1  0  0  0  0
  1 25  1  0  0  0  0
  2  3  1  0  0  0  0
  2 26  1  0  0  0  0
  2 27  1  0  0  0  0
  3 19  1  0  0  0  0
  3  4  1  0  0  0  0
  3  6  1  0  0  0  0
  4  5  1  0  0  0  0
  4 28  1  0  0  0  0
  4 29  1  0  0  0  0
  5 30  1  0  0  0  0
  5 31  1  0  0  0  0
  5 32  1  0  0  0  0
  6  7  1  0  0  0  0
  6 17  1  0  0  0  0
  6 33  1  0  0  0  0
  7  8  1  0  0  0  0
  7 34  1  0  0  0  0
  8  9  2  0  0  0  0
  8 10  1  0  0  0  0
 10 11  1  0  0  0  0
 10 35  1  0  0  0  0
 10 36  1  0  0  0  0
 11 16  2  0  0  0  0
 11 12  1  0  0  0  0
 12 13  2  0  0  0  0
 12 37  1  0  0  0  0
 13 14  1  0  0  0  0
 13 15  1  0  0  0  0
 14 38  1  0  0  0  0
 14 39  1  0  0  0  0
 14 40  1  0  0  0  0
 15 22  1  0  0  0  0
 15 16  1  0  0  0  0
 17 18  1  0  0  0  0
 17 19  1  0  0  0  0
 17 41  1  0  0  0  0
 18 42  1  0  0  0  0
 18 43  1  0  0  0  0
 18 44  1  0  0  0  0
 19 20  1  0  0  0  0
 19 45  1  0  0  0  0
 20 21  1  0  0  0  0
 21 46  1  0  0  0  0
 21 47  1  0  0  0  0
 21 48  1  0  0  0  0
M  END
> <s_m_source_file>
AV-unprocessed.smi

> <i_m_source_file_index>
2510

> <i_lp_mmshare_version>
43012

> <i_f3d_flags>
0

> <s_epik_input>
W0NIM11PW0NAQEhdMVtDQEhdKFtDSDNdKVtDQEBIXShDMShbQ0gyXVtDSDNdKVtDSDJdW0NIM10pW05IXUMoPU8pW0NIMl1jMltjSF1jKFtDSDNdKVtuSF1uMg==

> <s_epik_cmdline>
J2VwaWtfcHl0aG9uJywgJy1waCcsICc3LjAnLCAnLXRuJywgJzgnLCAnLW1hJywgJzIwMCcsICctbWV0YWxfYmluZGluZycsICctaW1hZScsICc8aW5maWxlLm1hZT4nLCAnLW9tYWUnLCAnPG91dGZpbGUubWFlPic=

> <r_lp_tautomer_probability>
0.5

> <r_epik_Ionization_Penalty>
9.73156e-05

> <r_epik_Ionization_Penalty_Charging>
0

> <r_epik_Ionization_Penalty_Neutral>
9.73156e-05

> <r_epik_State_Penalty>
0.41068

> <r_epik_Charging_Adjusted_Penalty>
0.41068

> <i_epik_Tot_Q>
0

> <i_epik_Tot_abs_Q>
0

> <r_epik_Metal_State_Penalty>
0.410699

> <b_epik_Metal_Only>
0

> <s_lp_Force_Field>
OPLS_2005

> <r_lp_Energy>
28.6218

> <b_lp_Chiralities_Consistent>
1

> <s_lp_Variant>
AV-unprocessed.smi:2510-7

> <Gold.Version>
5.8.1

> <Gold.Id.Protein>
6NUR|6NUR_protein|mol2

> <Gold.PLP.Fitness>
32.3662

> <Gold.PLP.PLP>
-29.4135

> <Gold.PLP.part.hbond>
-1.1520

> <Gold.PLP.part.metal>
0.0000

> <Gold.PLP.part.buried>
-2.4498

> <Gold.PLP.part.nonpolar>
-27.0295

> <Gold.PLP.part.repulsive>
1.3572

> <Gold.PLP.ligand.clash>
0.0000

> <Gold.PLP.ligand.torsion>
0.3765

> <Gold.PLP.Chemscore.Hbond>
1.0000

> <Gold.PLP.Chemscore.CHOScore>
0.0000

> <Gold.PLP.Chemscore.Metal>
0.0000

> <Gold.Chemscore.Hbonds>
donor molecule, donor type, donor heavy atom, donor atom, acceptor molecule, acceptor atom, score
      L1  H     7    34       P1  7948  1.00

> <Gold.PLP.Chemscore.Internal.Correction>
0.7057

> <Gold.Rescore>
     Score         DG    S(hbond)    S(metal)    S(lipo)     H(rot)  DE(clash)    DE(int)     intcor
      9.58     -12.57       0.91        0.00      74.35       1.81       0.05       2.94       ----

> <Gold.Chemscore.Fitness>
9.5842

> <Gold.Chemscore.DG>
-12.5712

> <Gold.Chemscore.ZeroCoef>
-5.4800

> <Gold.Chemscore.Hbond>
0.9062

> <Gold.Chemscore.Metal>
0.0000

> <Gold.Chemscore.Lipo>
74.3465

> <Gold.Chemscore.Internal_Hbond>
0.0000

> <Gold.Chemscore.DEClash>
0.0479

> <Gold.Chemscore.DEInternal>
2.9390

> <Gold.Chemscore.Rot>
1.8102

> <Gold.Chemscore.Internal.Correction>
   9.000000E+99

> <Gold.Chemscore.Hbonds>
donor molecule, donor type, donor heavy atom, donor atom, acceptor molecule, acceptor atom, score
      L1  H     7    34       P1  7948  0.59

> <Gold.Chemscore.Hbond.Weighted>
-3.0267

> <Gold.Chemscore.Metal.Weighted>
-0.0000

> <Gold.Chemscore.Lipo.Weighted>
-8.6985

> <Gold.Chemscore.Internal_Hbond.Weighted>
0.0000

> <Gold.Chemscore.DEClash.Weighted>
0.0479

> <Gold.Chemscore.DEInternal.Weighted>
2.9390

> <Gold.Chemscore.Rot.Weighted>
4.6341

> <Gold.Chemscore.Internal.Correction.Weighted>
   9.000000E+99

> <Gold.Protein.RotatedTorsions>
[ 6907 6896 6895 6894 ] final  -66.72 input  -60.11 | X-H torsion
[ 7974 7965 7964 7962 ] final  117.43 input  175.53 | X-H torsion
[ 8008 7997 7996 7995 ] final  -93.57 input   59.86 | X-H torsion
[ 10167 10162 10161 10158 ] final -108.25 input  -65.29 | X-H torsion
[ 10718 10713 10712 10709 ] final -147.39 input   66.30 | X-H torsion
[ 10763 10752 10751 10750 ] final  177.16 input  -60.55 | X-H torsion
[ 11005 11000 10999 10996 ] final   19.55 input  -57.11 | X-H torsion

> <Gold.Protein.ActiveResidues>
 VAL166  LYS551  ARG553  GLY616  TRP617  ASP618  TYR619  PRO620  LYS621  CYS622 
 ASP623  PHE694  ASN695  SER759  ASP760  ASP761  ALA762  ILE779  LEU786  VAL792 
 PHE793  MET794  SER795  GLU796  ALA797  LYS798  CYS799  TRP800  GLU811  SER814 

> <Gold.Protein.RotatedAtoms>
  150.7449  134.5981  159.6022 H   0  0  0  0  0  0  0  0  0  0  0  0  # atno 6907 bound_to 6896
  152.3350  134.7207  160.0288 H   0  0  0  0  0  0  0  0  0  0  0  0  # atno 6908 bound_to 6896
  151.7678  133.3303  159.3472 H   0  0  0  0  0  0  0  0  0  0  0  0  # atno 6909 bound_to 6896
  145.1675  139.3120  143.4485 H   0  0  0  0  0  0  0  0  0  0  0  0  # atno 7974 bound_to 7965
  154.7374  140.0497  157.0781 H   0  0  0  0  0  0  0  0  0  0  0  0  # atno 8008 bound_to 7997
  155.0223  140.3148  155.4770 H   0  0  0  0  0  0  0  0  0  0  0  0  # atno 8009 bound_to 7997
  156.2856  140.2165  156.5341 H   0  0  0  0  0  0  0  0  0  0  0  0  # atno 8010 bound_to 7997
  140.1682  143.4064  152.1374 H   0  0  0  0  0  0  0  0  0  0  0  0  # atno 10167 bound_to 10162
  156.4069  130.7962  151.2177 H   0  0  0  0  0  0  0  0  0  0  0  0  # atno 10718 bound_to 10713
  154.4907  135.2779  155.1499 H   0  0  0  0  0  0  0  0  0  0  0  0  # atno 10763 bound_to 10752
  154.3171  135.6217  153.5495 H   0  0  0  0  0  0  0  0  0  0  0  0  # atno 10764 bound_to 10752
  152.9887  135.5734  154.5328 H   0  0  0  0  0  0  0  0  0  0  0  0  # atno 10765 bound_to 10752
  140.4124  134.1604  155.7668 H   0  0  0  0  0  0  0  0  0  0  0  0  # atno 11005 bound_to 11000
  146.3473  140.1808  142.8589 LP  0  0  0  0  0  0  0  0  0  0  0  0  # atno 17320 bound_to 7965
  145.0267  140.8838  143.5134 LP  0  0  0  0  0  0  0  0  0  0  0  0  # atno 17321 bound_to 7965
  139.5350  144.7200  151.4925 LP  0  0  0  0  0  0  0  0  0  0  0  0  # atno 17342 bound_to 10162
  140.6599  143.8520  150.6876 LP  0  0  0  0  0  0  0  0  0  0  0  0  # atno 17343 bound_to 10162
  157.7506  131.0269  150.3984 LP  0  0  0  0  0  0  0  0  0  0  0  0  # atno 17370 bound_to 10713
  156.4274  130.3965  149.6783 LP  0  0  0  0  0  0  0  0  0  0  0  0  # atno 17371 bound_to 10713
  141.1816  133.8402  157.1238 LP  0  0  0  0  0  0  0  0  0  0  0  0  # atno 17394 bound_to 11000
  140.0258  134.9925  157.0683 LP  0  0  0  0  0  0  0  0  0  0  0  0  # atno 17395 bound_to 11000

$$$$
