AV-unprocessed.smi:2124|AV-procd|sdf|8664|dock7
  -GOLD-   2272011413D 1   1.00000     0.00000
 Structure written by MMmdl.
 47 49  0  0  0  0  0  0  0  0  1 V2000
  151.2384  142.1459  156.4293 C   0  0  0  0  0  0  0  0  0  0  0  0
  150.3257  141.4155  155.4685 C   0  0  0  0  0  0  0  0  0  0  0  0
  149.3399  142.2171  154.9177 N   0  0  0  0  0  0  0  0  0  0  0  0
  148.4682  141.6410  154.0110 C   0  0  0  0  0  0  0  0  0  0  0  0
  147.4428  142.5982  153.4292 C   0  0  0  0  0  0  0  0  0  0  0  0
  148.5625  140.3271  153.6827 C   0  0  0  0  0  0  0  0  0  0  0  0
  147.6449  139.6639  152.6547 C   0  0  0  0  0  0  0  0  0  0  0  0
  146.6395  138.6764  153.2481 C   0  0  0  0  0  0  0  0  0  0  0  0
  145.6037  139.0842  153.7721 O   0  0  0  0  0  0  0  0  0  0  0  0
  146.9449  137.3776  153.1117 N   0  0  0  0  0  0  0  0  0  0  0  0
  146.0363  136.2591  153.3353 C   0  0  2  0  0  0  0  0  0  0  0  0
  146.6631  135.2712  154.3317 C   0  0  0  0  0  0  0  0  0  0  0  0
  145.7065  135.5967  151.9765 C   0  0  1  0  0  0  0  0  0  0  0  0
  144.6818  134.4428  152.0503 C   0  0  0  0  0  0  0  0  0  0  0  0
  143.6628  134.8149  150.9561 C   0  0  1  0  0  0  0  0  0  0  0  0
  142.8049  135.9969  151.4448 C   0  0  0  0  0  0  0  0  0  0  0  0
  143.7870  137.1802  151.3733 C   0  0  0  0  0  0  0  0  0  0  0  0
  145.0892  136.5123  150.8868 C   0  0  2  0  0  0  0  0  0  0  0  0
  144.5446  135.4801  149.9058 C   0  0  0  0  0  0  0  0  0  0  0  0
  149.6284  139.5162  154.3184 C   0  0  0  0  0  0  0  0  0  0  0  0
  149.7687  138.3215  154.0611 O   0  0  0  0  0  0  0  0  0  0  0  0
  150.4959  140.1526  155.2206 N   0  0  0  0  0  0  0  0  0  0  0  0
  149.2363  143.1989  155.1306 H   0  0  0  0  0  0  0  0  0  0  0  0
  152.1393  141.5641  156.6277 H   0  0  0  0  0  0  0  0  0  0  0  0
  150.7273  142.3203  157.3764 H   0  0  0  0  0  0  0  0  0  0  0  0
  151.5414  143.1086  156.0157 H   0  0  0  0  0  0  0  0  0  0  0  0
  147.5568  142.6690  152.3475 H   0  0  0  0  0  0  0  0  0  0  0  0
  147.5505  143.6020  153.8419 H   0  0  0  0  0  0  0  0  0  0  0  0
  146.4320  142.2541  153.6486 H   0  0  0  0  0  0  0  0  0  0  0  0
  148.2621  139.1354  151.9274 H   0  0  0  0  0  0  0  0  0  0  0  0
  147.1012  140.4080  152.0719 H   0  0  0  0  0  0  0  0  0  0  0  0
  147.8349  137.1522  152.6912 H   0  0  0  0  0  0  0  0  0  0  0  0
  145.1082  136.6308  153.7728 H   0  0  0  0  0  0  0  0  0  0  0  0
  145.9943  134.4339  154.5312 H   0  0  0  0  0  0  0  0  0  0  0  0
  146.8726  135.7566  155.2857 H   0  0  0  0  0  0  0  0  0  0  0  0
  147.6011  134.8644  153.9525 H   0  0  0  0  0  0  0  0  0  0  0  0
  146.6372  135.1984  151.5675 H   0  0  0  0  0  0  0  0  0  0  0  0
  145.1644  133.4900  151.8289 H   0  0  0  0  0  0  0  0  0  0  0  0
  144.2079  134.3527  153.0286 H   0  0  0  0  0  0  0  0  0  0  0  0
  143.0763  133.9681  150.5989 H   0  0  0  0  0  0  0  0  0  0  0  0
  141.9554  136.1639  150.7814 H   0  0  0  0  0  0  0  0  0  0  0  0
  142.4168  135.8390  152.4517 H   0  0  0  0  0  0  0  0  0  0  0  0
  143.4434  137.9157  150.6447 H   0  0  0  0  0  0  0  0  0  0  0  0
  143.8946  137.6972  152.3262 H   0  0  0  0  0  0  0  0  0  0  0  0
  145.7996  137.2146  150.4493 H   0  0  0  0  0  0  0  0  0  0  0  0
  145.3114  134.8173  149.5007 H   0  0  0  0  0  0  0  0  0  0  0  0
  143.9808  135.9203  149.0812 H   0  0  0  0  0  0  0  0  0  0  0  0
  1 24  1  0  0  0  0
  1 25  1  0  0  0  0
  1 26  1  0  0  0  0
  1  2  1  0  0  0  0
  2  3  1  0  0  0  0
  2 22  2  0  0  0  0
  3  4  1  0  0  0  0
  3 23  1  0  0  0  0
  4  6  2  0  0  0  0
  4  5  1  0  0  0  0
  5 27  1  0  0  0  0
  5 28  1  0  0  0  0
  5 29  1  0  0  0  0
  6 20  1  0  0  0  0
  6  7  1  0  0  0  0
  7  8  1  0  0  0  0
  7 30  1  0  0  0  0
  7 31  1  0  0  0  0
  8  9  2  0  0  0  0
  8 10  1  0  0  0  0
 10 11  1  0  0  0  0
 10 32  1  0  0  0  0
 11 12  1  0  0  0  0
 11 13  1  0  0  0  0
 11 33  1  0  0  0  0
 12 34  1  0  0  0  0
 12 35  1  0  0  0  0
 12 36  1  0  0  0  0
 13 18  1  0  0  0  0
 13 14  1  0  0  0  0
 13 37  1  0  0  0  0
 14 15  1  0  0  0  0
 14 38  1  0  0  0  0
 14 39  1  0  0  0  0
 15 19  1  0  0  0  0
 15 16  1  0  0  0  0
 15 40  1  0  0  0  0
 16 17  1  0  0  0  0
 16 41  1  0  0  0  0
 16 42  1  0  0  0  0
 17 18  1  0  0  0  0
 17 43  1  0  0  0  0
 17 44  1  0  0  0  0
 18 19  1  0  0  0  0
 18 45  1  0  0  0  0
 19 46  1  0  0  0  0
 19 47  1  0  0  0  0
 20 21  2  0  0  0  0
 20 22  1  0  0  0  0
M  END
> <s_m_source_file>
AV-unprocessed.smi

> <i_m_source_file_index>
2124

> <i_lp_mmshare_version>
43012

> <i_f3d_flags>
0

> <s_epik_input>
W0NIM11jMW5jKFtDSDNdKWMoYyg9TylbbkhdMSlbQ0gyXUMoPU8pW05IXVtDQEhdKFtDSDNdKVtDQEhdKFtDSDJdW0NASF0yMylbQ0BIXShbQ0gyXTMpW0NIMl1bQ0gyXTI=

> <s_epik_cmdline>
J2VwaWtfcHl0aG9uJywgJy1waCcsICc3LjAnLCAnLXRuJywgJzgnLCAnLW1hJywgJzIwMCcsICctbWV0YWxfYmluZGluZycsICctaW1hZScsICc8aW5maWxlLm1hZT4nLCAnLW9tYWUnLCAnPG91dGZpbGUubWFlPic=

> <r_lp_tautomer_probability>
0.156392

> <r_epik_Ionization_Penalty>
0.0139374

> <r_epik_Ionization_Penalty_Charging>
0.0138122

> <r_epik_Ionization_Penalty_Neutral>
0.000125146

> <r_epik_State_Penalty>
1.15342

> <r_epik_Charging_Adjusted_Penalty>
1.16723

> <i_epik_Tot_Q>
0

> <i_epik_Tot_abs_Q>
0

> <r_epik_Metal_State_Penalty>
1.3173

> <b_epik_Metal_Only>
0

> <s_lp_Force_Field>
OPLS_2005

> <r_lp_Energy>
54.2082

> <b_lp_Chiralities_Consistent>
1

> <s_lp_Variant>
AV-unprocessed.smi:2124-15

> <Gold.Version>
5.8.1

> <Gold.Id.Protein>
6NUR|6NUR_protein|mol2

> <Gold.PLP.Fitness>
43.2109

> <Gold.PLP.PLP>
-36.9960

> <Gold.PLP.part.hbond>
-2.7240

> <Gold.PLP.part.metal>
0.0000

> <Gold.PLP.part.buried>
-3.8625

> <Gold.PLP.part.nonpolar>
-30.4456

> <Gold.PLP.part.repulsive>
0.5764

> <Gold.PLP.ligand.clash>
0.0000

> <Gold.PLP.ligand.torsion>
0.4478

> <Gold.PLP.Chemscore.Hbond>
2.3591

> <Gold.PLP.Chemscore.CHOScore>
0.0000

> <Gold.PLP.Chemscore.Metal>
0.0000

> <Gold.Chemscore.Hbonds>
donor molecule, donor type, donor heavy atom, donor atom, acceptor molecule, acceptor atom, score
      L1  H     3    23       P1  8028  1.00
      L1  H    10    32       P1  7948  1.00
      P1  H  7989  7998       L1    22  0.05

> <Gold.PLP.Chemscore.Internal.Correction>
0.0331

> <Gold.Rescore>
     Score         DG    S(hbond)    S(metal)    S(lipo)     H(rot)  DE(clash)    DE(int)     intcor
     15.88     -16.33       1.99        0.00      72.05       1.65       0.17       0.28       ----

> <Gold.Chemscore.Fitness>
15.8825

> <Gold.Chemscore.DG>
-16.3307

> <Gold.Chemscore.ZeroCoef>
-5.4800

> <Gold.Chemscore.Hbond>
1.9919

> <Gold.Chemscore.Metal>
0.0000

> <Gold.Chemscore.Lipo>
72.0538

> <Gold.Chemscore.Internal_Hbond>
0.0000

> <Gold.Chemscore.DEClash>
0.1702

> <Gold.Chemscore.DEInternal>
0.2779

> <Gold.Chemscore.Rot>
1.6534

> <Gold.Chemscore.Internal.Correction>
   9.000000E+99

> <Gold.Chemscore.Hbonds>
donor molecule, donor type, donor heavy atom, donor atom, acceptor molecule, acceptor atom, score
      L1  H     3    23       P1  8028  1.00
      L1  H    10    32       P1  7948  0.99

> <Gold.Chemscore.Hbond.Weighted>
-6.6530

> <Gold.Chemscore.Metal.Weighted>
-0.0000

> <Gold.Chemscore.Lipo.Weighted>
-8.4303

> <Gold.Chemscore.Internal_Hbond.Weighted>
0.0000

> <Gold.Chemscore.DEClash.Weighted>
0.1702

> <Gold.Chemscore.DEInternal.Weighted>
0.2779

> <Gold.Chemscore.Rot.Weighted>
4.2326

> <Gold.Chemscore.Internal.Correction.Weighted>
   9.000000E+99

> <Gold.Protein.RotatedTorsions>
[ 6907 6896 6895 6894 ] final  -15.56 input  -60.11 | X-H torsion
[ 7974 7965 7964 7962 ] final -124.91 input  175.53 | X-H torsion
[ 8008 7997 7996 7995 ] final  -65.46 input   59.86 | X-H torsion
[ 10167 10162 10161 10158 ] final   92.72 input  -65.29 | X-H torsion
[ 10718 10713 10712 10709 ] final   93.03 input   66.30 | X-H torsion
[ 10763 10752 10751 10750 ] final  -41.00 input  -60.55 | X-H torsion
[ 11005 11000 10999 10996 ] final -142.99 input  -57.11 | X-H torsion

> <Gold.Protein.ActiveResidues>
 VAL166  LYS551  ARG553  GLY616  TRP617  ASP618  TYR619  PRO620  LYS621  CYS622 
 ASP623  PHE694  ASN695  SER759  ASP760  ASP761  ALA762  ILE779  LEU786  VAL792 
 PHE793  MET794  SER795  GLU796  ALA797  LYS798  CYS799  TRP800  GLU811  SER814 

> <Gold.Protein.RotatedAtoms>
  151.3221  135.0821  159.9308 H   0  0  0  0  0  0  0  0  0  0  0  0  # atno 6907 bound_to 6896
  152.5254  133.9629  159.7736 H   0  0  0  0  0  0  0  0  0  0  0  0  # atno 6908 bound_to 6896
  150.9952  133.6058  159.2733 H   0  0  0  0  0  0  0  0  0  0  0  0  # atno 6909 bound_to 6896
  145.0031  140.7838  143.4484 H   0  0  0  0  0  0  0  0  0  0  0  0  # atno 7974 bound_to 7965
  154.4673  140.0932  156.7053 H   0  0  0  0  0  0  0  0  0  0  0  0  # atno 8008 bound_to 7997
  155.4822  140.3468  155.4323 H   0  0  0  0  0  0  0  0  0  0  0  0  # atno 8009 bound_to 7997
  156.0978  140.1414  156.9496 H   0  0  0  0  0  0  0  0  0  0  0  0  # atno 8010 bound_to 7997
  139.8250  144.6714  150.9471 H   0  0  0  0  0  0  0  0  0  0  0  0  # atno 10167 bound_to 10162
  157.6956  131.0464  150.3972 H   0  0  0  0  0  0  0  0  0  0  0  0  # atno 10718 bound_to 10713
  153.9553  135.6746  153.4744 H   0  0  0  0  0  0  0  0  0  0  0  0  # atno 10763 bound_to 10752
  153.0864  135.4896  154.8603 H   0  0  0  0  0  0  0  0  0  0  0  0  # atno 10764 bound_to 10752
  154.7303  135.3136  154.8862 H   0  0  0  0  0  0  0  0  0  0  0  0  # atno 10765 bound_to 10752
  140.8170  134.2677  157.4917 H   0  0  0  0  0  0  0  0  0  0  0  0  # atno 11005 bound_to 11000
  145.2126  139.2197  143.5135 LP  0  0  0  0  0  0  0  0  0  0  0  0  # atno 17320 bound_to 7965
  146.3456  140.1967  142.8589 LP  0  0  0  0  0  0  0  0  0  0  0  0  # atno 17321 bound_to 7965
  140.7811  143.4055  151.1078 LP  0  0  0  0  0  0  0  0  0  0  0  0  # atno 17342 bound_to 10162
  139.7713  143.8490  152.3121 LP  0  0  0  0  0  0  0  0  0  0  0  0  # atno 17343 bound_to 10162
  156.4369  130.3983  149.6723 LP  0  0  0  0  0  0  0  0  0  0  0  0  # atno 17370 bound_to 10713
  156.3920  130.7632  151.2634 LP  0  0  0  0  0  0  0  0  0  0  0  0  # atno 17371 bound_to 10713
  139.8710  134.9514  156.4085 LP  0  0  0  0  0  0  0  0  0  0  0  0  # atno 17394 bound_to 11000
  140.9139  133.7692  155.9824 LP  0  0  0  0  0  0  0  0  0  0  0  0  # atno 17395 bound_to 11000

$$$$
