AV-unprocessed.smi:1829|AV-procd|sdf|7429|dock10
  -GOLD-   22720 9113D 1   1.00000     0.00000
 Structure written by MMmdl.
 45 47  0  0  0  0  0  0  0  0  1 V2000
  154.7416  134.5017  164.5560 C   0  0  0  0  0  0  0  0  0  0  0  0
  154.8877  134.2929  163.0404 C   0  0  0  0  0  0  0  0  0  0  0  0
  156.2309  133.6356  162.6861 C   0  0  0  0  0  0  0  0  0  0  0  0
  154.6783  135.5901  162.2690 C   0  0  0  0  0  0  0  0  0  0  0  0
  154.6513  135.5771  160.8580 C   0  0  0  0  0  0  0  0  0  0  0  0
  154.4637  136.7731  160.1381 C   0  0  0  0  0  0  0  0  0  0  0  0
  154.2977  137.9964  160.8205 C   0  0  0  0  0  0  0  0  0  0  0  0
  154.1064  139.2852  160.0366 C   0  0  1  0  0  0  0  0  0  0  0  0
  155.1153  139.4726  159.0631 O   0  0  0  0  0  0  0  0  0  0  0  0
  152.7160  139.3343  159.3725 C   0  0  0  0  0  0  0  0  0  0  0  0
  152.3194  140.6860  159.0000 N   0  0  0  0  0  0  0  0  0  0  0  0
  151.7841  141.1177  157.8296 C   0  0  0  0  0  0  0  0  0  0  0  0
  151.5175  140.1709  156.6935 C   0  0  0  0  0  0  0  0  0  0  0  0
  150.9483  140.7842  155.5540 O   0  0  0  0  0  0  0  0  0  0  0  0
  151.5123  142.4240  157.7685 N   0  0  0  0  0  0  0  0  0  0  0  0
  151.9087  142.8788  159.0104 C   0  0  0  0  0  0  0  0  0  0  0  0
  151.8796  144.1781  159.5662 C   0  0  0  0  0  0  0  0  0  0  0  0
  152.3446  144.4035  160.8786 C   0  0  0  0  0  0  0  0  0  0  0  0
  152.8440  143.3359  161.6524 C   0  0  0  0  0  0  0  0  0  0  0  0
  152.8818  142.0337  161.1175 C   0  0  0  0  0  0  0  0  0  0  0  0
  152.4169  141.8146  159.8069 C   0  0  0  0  0  0  0  0  0  0  0  0
  154.3272  138.0114  162.2318 C   0  0  0  0  0  0  0  0  0  0  0  0
  154.5154  136.8157  162.9511 C   0  0  0  0  0  0  0  0  0  0  0  0
  153.7668  134.9245  164.8013 H   0  0  0  0  0  0  0  0  0  0  0  0
  155.5052  135.1754  164.9459 H   0  0  0  0  0  0  0  0  0  0  0  0
  154.8336  133.5561  165.0910 H   0  0  0  0  0  0  0  0  0  0  0  0
  154.1029  133.5984  162.7373 H   0  0  0  0  0  0  0  0  0  0  0  0
  156.3007  133.4406  161.6154 H   0  0  0  0  0  0  0  0  0  0  0  0
  156.3478  132.6822  163.2021 H   0  0  0  0  0  0  0  0  0  0  0  0
  157.0749  134.2669  162.9655 H   0  0  0  0  0  0  0  0  0  0  0  0
  154.7770  134.6494  160.3191 H   0  0  0  0  0  0  0  0  0  0  0  0
  154.4503  136.7463  159.0582 H   0  0  0  0  0  0  0  0  0  0  0  0
  154.1919  140.1208  160.7326 H   0  0  0  0  0  0  0  0  0  0  0  0
  155.9459  139.2303  159.4430 H   0  0  0  0  0  0  0  0  0  0  0  0
  152.6840  138.6860  158.4970 H   0  0  0  0  0  0  0  0  0  0  0  0
  151.9649  138.9452  160.0614 H   0  0  0  0  0  0  0  0  0  0  0  0
  152.4507  139.6942  156.3939 H   0  0  0  0  0  0  0  0  0  0  0  0
  150.8435  139.3858  157.0372 H   0  0  0  0  0  0  0  0  0  0  0  0
  150.0310  140.5606  155.5194 H   0  0  0  0  0  0  0  0  0  0  0  0
  151.4987  145.0022  158.9814 H   0  0  0  0  0  0  0  0  0  0  0  0
  152.3177  145.4005  161.2933 H   0  0  0  0  0  0  0  0  0  0  0  0
  153.1983  143.5171  162.6566 H   0  0  0  0  0  0  0  0  0  0  0  0
  153.2637  141.2133  161.7068 H   0  0  0  0  0  0  0  0  0  0  0  0
  154.2094  138.9417  162.7678 H   0  0  0  0  0  0  0  0  0  0  0  0
  154.5361  136.8450  164.0307 H   0  0  0  0  0  0  0  0  0  0  0  0
  1  2  1  0  0  0  0
  1 24  1  0  0  0  0
  1 25  1  0  0  0  0
  1 26  1  0  0  0  0
  2  3  1  0  0  0  0
  2  4  1  0  0  0  0
  2 27  1  0  0  0  0
  3 28  1  0  0  0  0
  3 29  1  0  0  0  0
  3 30  1  0  0  0  0
  4 23  1  0  0  0  0
  4  5  2  0  0  0  0
  5  6  1  0  0  0  0
  5 31  1  0  0  0  0
  6  7  2  0  0  0  0
  6 32  1  0  0  0  0
  7  8  1  0  0  0  0
  7 22  1  0  0  0  0
  8  9  1  0  0  0  0
  8 10  1  0  0  0  0
  8 33  1  0  0  0  0
  9 34  1  0  0  0  0
 10 11  1  0  0  0  0
 10 35  1  0  0  0  0
 10 36  1  0  0  0  0
 11 21  1  0  0  0  0
 11 12  1  0  0  0  0
 12 13  1  0  0  0  0
 12 15  2  0  0  0  0
 13 14  1  0  0  0  0
 13 37  1  0  0  0  0
 13 38  1  0  0  0  0
 14 39  1  0  0  0  0
 15 16  1  0  0  0  0
 16 21  2  0  0  0  0
 16 17  1  0  0  0  0
 17 18  2  0  0  0  0
 17 40  1  0  0  0  0
 18 19  1  0  0  0  0
 18 41  1  0  0  0  0
 19 20  2  0  0  0  0
 19 42  1  0  0  0  0
 20 21  1  0  0  0  0
 20 43  1  0  0  0  0
 22 23  2  0  0  0  0
 22 44  1  0  0  0  0
 23 45  1  0  0  0  0
M  END
> <s_m_source_file>
AV-unprocessed.smi

> <i_m_source_file_index>
1829

> <i_lp_mmshare_version>
43012

> <i_f3d_flags>
0

> <s_epik_input>
W0NIM11bQ0hdKFtDSDNdKWMxW2NIXVtjSF1jKFtjSF1bY0hdMSlbQ0BIXShbT0hdKVtDSDJdbihjKG4yKVtDSDJdW09IXSljKGMyMylbY0hdW2NIXVtjSF1bY0hdMw==

> <s_epik_cmdline>
J2VwaWtfcHl0aG9uJywgJy1waCcsICc3LjAnLCAnLXRuJywgJzgnLCAnLW1hJywgJzIwMCcsICctbWV0YWxfYmluZGluZycsICctaW1hZScsICc8aW5maWxlLm1hZT4nLCAnLW9tYWUnLCAnPG91dGZpbGUubWFlPic=

> <r_epik_Ionization_Penalty>
0.0634718

> <r_epik_Ionization_Penalty_Charging>
0

> <r_epik_Ionization_Penalty_Neutral>
0.0634718

> <r_epik_State_Penalty>
0.0551572

> <r_epik_Charging_Adjusted_Penalty>
0.0551572

> <i_epik_Tot_Q>
0

> <i_epik_Tot_abs_Q>
0

> <r_epik_Metal_State_Penalty>
5.78034e-05

> <b_epik_Metal_Only>
0

> <s_lp_Force_Field>
OPLS_2005

> <r_lp_Energy>
13.3672

> <b_lp_Chiralities_Consistent>
1

> <s_lp_Variant>
AV-unprocessed.smi:1829-2

> <Gold.Version>
5.8.1

> <Gold.Id.Protein>
6NUR|6NUR_protein|mol2

> <Gold.PLP.Fitness>
51.0267

> <Gold.PLP.PLP>
-46.6181

> <Gold.PLP.part.hbond>
-2.0000

> <Gold.PLP.part.metal>
0.0000

> <Gold.PLP.part.buried>
-4.5828

> <Gold.PLP.part.nonpolar>
-39.1781

> <Gold.PLP.part.repulsive>
0.0472

> <Gold.PLP.ligand.clash>
0.0000

> <Gold.PLP.ligand.torsion>
0.4929

> <Gold.PLP.Chemscore.Hbond>
1.7680

> <Gold.PLP.Chemscore.CHOScore>
0.0000

> <Gold.PLP.Chemscore.Metal>
0.0000

> <Gold.Chemscore.Hbonds>
donor molecule, donor type, donor heavy atom, donor atom, acceptor molecule, acceptor atom, score
      P1  H  7989  7998       L1    14  0.55
      P1  H  7997  8008       L1     9  1.00

> <Gold.PLP.Chemscore.Internal.Correction>
0.0904

> <Gold.Rescore>
     Score         DG    S(hbond)    S(metal)    S(lipo)     H(rot)  DE(clash)    DE(int)     intcor
     20.51     -20.99       1.88        0.00     137.46       2.68       0.00       0.48       ----

> <Gold.Chemscore.Fitness>
20.5073

> <Gold.Chemscore.DG>
-20.9859

> <Gold.Chemscore.ZeroCoef>
-5.4800

> <Gold.Chemscore.Hbond>
1.8783

> <Gold.Chemscore.Metal>
0.0000

> <Gold.Chemscore.Lipo>
137.4640

> <Gold.Chemscore.Internal_Hbond>
0.0000

> <Gold.Chemscore.DEClash>
0.0000

> <Gold.Chemscore.DEInternal>
0.4786

> <Gold.Chemscore.Rot>
2.6761

> <Gold.Chemscore.Internal.Correction>
   9.000000E+99

> <Gold.Chemscore.Hbonds>
donor molecule, donor type, donor heavy atom, donor atom, acceptor molecule, acceptor atom, score
      P1  H  7989  7998       L1    14  0.32
      P1  H  7997  8008       L1     9  0.96

> <Gold.Chemscore.Hbond.Weighted>
-6.2734

> <Gold.Chemscore.Metal.Weighted>
-0.0000

> <Gold.Chemscore.Lipo.Weighted>
-16.0833

> <Gold.Chemscore.Internal_Hbond.Weighted>
0.0000

> <Gold.Chemscore.DEClash.Weighted>
0.0000

> <Gold.Chemscore.DEInternal.Weighted>
0.4786

> <Gold.Chemscore.Rot.Weighted>
6.8507

> <Gold.Chemscore.Internal.Correction.Weighted>
   9.000000E+99

> <Gold.Protein.RotatedTorsions>
[ 6907 6896 6895 6894 ] final  -40.88 input  -60.11 | X-H torsion
[ 7974 7965 7964 7962 ] final   82.81 input  175.53 | X-H torsion
[ 8008 7997 7996 7995 ] final -112.37 input   59.86 | X-H torsion
[ 10167 10162 10161 10158 ] final   76.21 input  -65.29 | X-H torsion
[ 10718 10713 10712 10709 ] final   93.85 input   66.30 | X-H torsion
[ 10763 10752 10751 10750 ] final  -83.43 input  -60.55 | X-H torsion
[ 11005 11000 10999 10996 ] final   35.68 input  -57.11 | X-H torsion

> <Gold.Protein.ActiveResidues>
 VAL166  LYS551  ARG553  GLY616  TRP617  ASP618  TYR619  PRO620  LYS621  CYS622 
 ASP623  PHE694  ASN695  SER759  ASP760  ASP761  ALA762  ILE779  LEU786  VAL792 
 PHE793  MET794  SER795  GLU796  ALA797  LYS798  CYS799  TRP800  GLU811  SER814 

> <Gold.Protein.RotatedAtoms>
  150.9733  134.9102  159.7800 H   0  0  0  0  0  0  0  0  0  0  0  0  # atno 6907 bound_to 6896
  152.5197  134.3511  159.9261 H   0  0  0  0  0  0  0  0  0  0  0  0  # atno 6908 bound_to 6896
  151.3519  133.3881  159.2715 H   0  0  0  0  0  0  0  0  0  0  0  0  # atno 6909 bound_to 6896
  145.6201  139.2384  143.2143 H   0  0  0  0  0  0  0  0  0  0  0  0  # atno 7974 bound_to 7965
  155.0042  140.0394  157.2372 H   0  0  0  0  0  0  0  0  0  0  0  0  # atno 8008 bound_to 7997
  154.7517  140.2768  155.6264 H   0  0  0  0  0  0  0  0  0  0  0  0  # atno 8009 bound_to 7997
  156.2886  140.2645  156.2272 H   0  0  0  0  0  0  0  0  0  0  0  0  # atno 8010 bound_to 7997
  139.9947  144.5731  150.7788 H   0  0  0  0  0  0  0  0  0  0  0  0  # atno 10167 bound_to 10162
  157.6952  131.0492  150.4097 H   0  0  0  0  0  0  0  0  0  0  0  0  # atno 10718 bound_to 10713
  154.5876  135.5556  153.7247 H   0  0  0  0  0  0  0  0  0  0  0  0  # atno 10763 bound_to 10752
  153.0105  135.6335  154.1894 H   0  0  0  0  0  0  0  0  0  0  0  0  # atno 10764 bound_to 10752
  154.1835  135.2886  155.3024 H   0  0  0  0  0  0  0  0  0  0  0  0  # atno 10765 bound_to 10752
  140.2402  134.3423  155.7928 H   0  0  0  0  0  0  0  0  0  0  0  0  # atno 11005 bound_to 11000
  146.1438  140.7021  142.9354 LP  0  0  0  0  0  0  0  0  0  0  0  0  # atno 17320 bound_to 7965
  144.7234  140.4448  143.6991 LP  0  0  0  0  0  0  0  0  0  0  0  0  # atno 17321 bound_to 7965
  140.7441  143.2856  151.3472 LP  0  0  0  0  0  0  0  0  0  0  0  0  # atno 17342 bound_to 10162
  139.6314  144.0713  152.2480 LP  0  0  0  0  0  0  0  0  0  0  0  0  # atno 17343 bound_to 10162
  156.4482  130.4006  149.6653 LP  0  0  0  0  0  0  0  0  0  0  0  0  # atno 17370 bound_to 10713
  156.3812  130.7580  151.2573 LP  0  0  0  0  0  0  0  0  0  0  0  0  # atno 17371 bound_to 10713
  141.2211  133.7295  156.8873 LP  0  0  0  0  0  0  0  0  0  0  0  0  # atno 17394 bound_to 11000
  140.1661  134.9132  157.2775 LP  0  0  0  0  0  0  0  0  0  0  0  0  # atno 17395 bound_to 11000

$$$$
