AV-unprocessed.smi:212|AV-procd|sdf|1619|dock4
  -GOLD-   2262019553D 1   1.00000     0.00000
 Structure written by MMmdl.
 65 68  0  0  0  0  0  0  0  0  2 V2000
  147.0668  142.0597  154.1827 C   0  0  0  0  0  0  0  0  0  0  0  0
  147.4214  140.8528  155.0677 C   0  0  2  0  0  0  0  0  0  0  0  0
  147.8391  141.2775  156.4918 C   0  0  0  0  0  0  0  0  0  0  0  0
  149.1838  141.9159  156.5044 N   0  3  1  0  0  0  0  0  0  0  0  0
  149.5957  142.4342  157.8380 C   0  0  0  0  0  0  0  0  0  0  0  0
  151.0063  143.0793  157.8692 C   0  0  0  0  0  0  0  0  0  0  0  0
  151.0959  144.0803  159.0343 C   0  0  0  0  0  0  0  0  0  0  0  0
  152.1387  142.0404  157.9754 C   0  0  0  0  0  0  0  0  0  0  0  0
  151.2077  143.8418  156.6967 O   0  0  0  0  0  0  0  0  0  0  0  0
  150.2161  141.0329  155.9014 C   0  0  0  0  0  0  0  0  0  0  0  0
  149.8158  140.5854  154.4836 C   0  0  0  0  0  0  0  0  0  0  0  0
  148.4650  140.0250  154.4602 N   0  0  0  0  0  0  0  0  0  0  0  0
  148.3105  138.6845  154.6107 C   0  0  0  0  0  0  0  0  0  0  0  0
  149.2999  137.9432  155.1754 N   0  0  0  0  0  0  0  0  0  0  0  0
  149.1435  136.6266  155.3412 C   0  0  0  0  0  0  0  0  0  0  0  0
  148.0971  135.8644  155.0189 N   0  0  0  0  0  0  0  0  0  0  0  0
  147.1019  136.6000  154.4472 C   0  0  0  0  0  0  0  0  0  0  0  0
  147.1300  138.0021  154.2043 C   0  0  0  0  0  0  0  0  0  0  0  0
  145.9509  138.4004  153.5878 N   0  0  0  0  0  0  0  0  0  0  0  0
  145.2642  137.2969  153.4743 C   0  0  0  0  0  0  0  0  0  0  0  0
  145.8695  136.1688  153.9838 N   0  0  0  0  0  0  0  0  0  0  0  0
  145.3251  134.8167  153.9936 C   0  0  0  0  0  0  0  0  0  0  0  0
  144.3436  134.5149  152.8297 C   0  0  2  0  0  0  0  0  0  0  0  0
  142.8831  134.7881  153.2634 C   0  0  0  0  0  0  0  0  0  0  0  0
  142.5744  134.1774  154.4987 O   0  0  0  0  0  0  0  0  0  0  0  0
  144.5457  133.0837  152.2581 C   0  0  2  0  0  0  0  0  0  0  0  0
  145.8342  132.8983  151.4724 C   0  0  0  0  0  0  0  0  0  0  0  0
  145.5665  131.6140  150.6941 C   0  0  0  0  0  0  0  0  0  0  0  0
  144.1581  131.5680  150.4934 O   0  0  0  0  0  0  0  0  0  0  0  0
  143.5367  132.6388  151.1951 C   0  0  0  0  0  0  0  0  0  0  0  0
  146.2500  142.6350  154.6194 H   0  0  0  0  0  0  0  0  0  0  0  0
  146.7448  141.7338  153.1932 H   0  0  0  0  0  0  0  0  0  0  0  0
  147.9110  142.7369  154.0525 H   0  0  0  0  0  0  0  0  0  0  0  0
  146.5066  140.2683  155.1704 H   0  0  0  0  0  0  0  0  0  0  0  0
  147.0822  141.9475  156.8940 H   0  0  0  0  0  0  0  0  0  0  0  0
  147.8577  140.4033  157.1447 H   0  0  0  0  0  0  0  0  0  0  0  0
  148.8382  143.1155  158.2294 H   0  0  0  0  0  0  0  0  0  0  0  0
  149.6167  141.5922  158.5318 H   0  0  0  0  0  0  0  0  0  0  0  0
  150.9725  143.5798  159.9955 H   0  0  0  0  0  0  0  0  0  0  0  0
  150.3230  144.8465  158.9624 H   0  0  0  0  0  0  0  0  0  0  0  0
  152.0613  144.5880  159.0534 H   0  0  0  0  0  0  0  0  0  0  0  0
  152.0143  141.4110  158.8572 H   0  0  0  0  0  0  0  0  0  0  0  0
  153.1135  142.5237  158.0525 H   0  0  0  0  0  0  0  0  0  0  0  0
  152.1742  141.3867  157.1031 H   0  0  0  0  0  0  0  0  0  0  0  0
  150.4436  144.3790  156.5506 H   0  0  0  0  0  0  0  0  0  0  0  0
  151.1716  141.5562  155.8503 H   0  0  0  0  0  0  0  0  0  0  0  0
  150.3656  140.1656  156.5460 H   0  0  0  0  0  0  0  0  0  0  0  0
  149.8444  141.4399  153.8071 H   0  0  0  0  0  0  0  0  0  0  0  0
  150.5404  139.8718  154.0888 H   0  0  0  0  0  0  0  0  0  0  0  0
  149.9739  136.1104  155.7999 H   0  0  0  0  0  0  0  0  0  0  0  0
  144.2864  137.2791  153.0155 H   0  0  0  0  0  0  0  0  0  0  0  0
  146.1635  134.1203  153.9555 H   0  0  0  0  0  0  0  0  0  0  0  0
  144.8451  134.6416  154.9564 H   0  0  0  0  0  0  0  0  0  0  0  0
  144.5835  135.2279  152.0389 H   0  0  0  0  0  0  0  0  0  0  0  0
  142.6848  135.8585  153.3261 H   0  0  0  0  0  0  0  0  0  0  0  0
  142.1880  134.3752  152.5319 H   0  0  0  0  0  0  0  0  0  0  0  0
  142.7863  133.2580  154.4419 H   0  0  0  0  0  0  0  0  0  0  0  0
  144.5184  132.3556  153.0700 H   0  0  0  0  0  0  0  0  0  0  0  0
  145.9770  133.7278  150.7785 H   0  0  0  0  0  0  0  0  0  0  0  0
  146.7256  132.8262  152.0932 H   0  0  0  0  0  0  0  0  0  0  0  0
  146.1053  131.5838  149.7469 H   0  0  0  0  0  0  0  0  0  0  0  0
  145.8614  130.7428  151.2804 H   0  0  0  0  0  0  0  0  0  0  0  0
  142.5855  132.3224  151.6237 H   0  0  0  0  0  0  0  0  0  0  0  0
  143.3410  133.4441  150.4855 H   0  0  0  0  0  0  0  0  0  0  0  0
  149.1241  142.7211  155.8979 H   0  0  0  0  0  0  0  0  0  0  0  0
  1  2  1  0  0  0  0
  1 31  1  0  0  0  0
  1 32  1  0  0  0  0
  1 33  1  0  0  0  0
  2 12  1  0  0  0  0
  2  3  1  0  0  0  0
  2 34  1  0  0  0  0
  3  4  1  0  0  0  0
  3 35  1  0  0  0  0
  3 36  1  0  0  0  0
  4  5  1  0  0  0  0
  4 10  1  0  0  0  0
  4 65  1  0  0  0  0
  5  6  1  0  0  0  0
  5 37  1  0  0  0  0
  5 38  1  0  0  0  0
  6  7  1  0  0  0  0
  6  8  1  0  0  0  0
  6  9  1  0  0  0  0
  7 39  1  0  0  0  0
  7 40  1  0  0  0  0
  7 41  1  0  0  0  0
  8 42  1  0  0  0  0
  8 43  1  0  0  0  0
  8 44  1  0  0  0  0
  9 45  1  0  0  0  0
 10 11  1  0  0  0  0
 10 46  1  0  0  0  0
 10 47  1  0  0  0  0
 11 12  1  0  0  0  0
 11 48  1  0  0  0  0
 11 49  1  0  0  0  0
 12 13  1  0  0  0  0
 13 18  1  0  0  0  0
 13 14  2  0  0  0  0
 14 15  1  0  0  0  0
 15 16  2  0  0  0  0
 15 50  1  0  0  0  0
 16 17  1  0  0  0  0
 17 21  1  0  0  0  0
 17 18  2  0  0  0  0
 18 19  1  0  0  0  0
 19 20  2  0  0  0  0
 20 21  1  0  0  0  0
 20 51  1  0  0  0  0
 21 22  1  0  0  0  0
 22 23  1  0  0  0  0
 22 52  1  0  0  0  0
 22 53  1  0  0  0  0
 23 24  1  0  0  0  0
 23 26  1  0  0  0  0
 23 54  1  0  0  0  0
 24 25  1  0  0  0  0
 24 55  1  0  0  0  0
 24 56  1  0  0  0  0
 25 57  1  0  0  0  0
 26 30  1  0  0  0  0
 26 27  1  0  0  0  0
 26 58  1  0  0  0  0
 27 28  1  0  0  0  0
 27 59  1  0  0  0  0
 27 60  1  0  0  0  0
 28 29  1  0  0  0  0
 28 61  1  0  0  0  0
 28 62  1  0  0  0  0
 29 30  1  0  0  0  0
 30 63  1  0  0  0  0
 30 64  1  0  0  0  0
M  CHG  1   4   1
M  END
> <s_m_source_file>
AV-unprocessed.smi

> <i_m_source_file_index>
212

> <i_lp_mmshare_version>
43012

> <i_f3d_flags>
0

> <s_epik_input>
W0NIM11bQ0BASF0xW0NIMl1OKFtDSDJdQyhbQ0gzXSkoW0NIM10pW09IXSlbQ0gyXVtDSDJdTjFjKG5bY0hdbjIpYyhjMjMpbltjSF1uM1tDSDJdW0NASF0oW0NIMl1bT0hdKVtDQEBIXTRbQ0gyXVtDSDJdT1tDSDJdNA==

> <s_epik_cmdline>
J2VwaWtfcHl0aG9uJywgJy1waCcsICc3LjAnLCAnLXRuJywgJzgnLCAnLW1hJywgJzIwMCcsICctbWV0YWxfYmluZGluZycsICctaW1hZScsICc8aW5maWxlLm1hZT4nLCAnLW9tYWUnLCAnPG91dGZpbGUubWFlPic=

> <r_lp_tautomer_probability>
1

> <r_epik_Ionization_Penalty>
0.00182193

> <r_epik_Ionization_Penalty_Charging>
0.00173996

> <r_epik_Ionization_Penalty_Neutral>
8.19718e-05

> <r_epik_State_Penalty>
-0

> <r_epik_Charging_Adjusted_Penalty>
0.00173996

> <i_epik_Tot_Q>
1

> <i_epik_Tot_abs_Q>
1

> <r_epik_Metal_State_Penalty>
-0

> <b_epik_Metal_Only>
0

> <s_lp_Force_Field>
OPLS_2005

> <r_lp_Energy>
58.2747

> <b_lp_Chiralities_Consistent>
1

> <s_lp_Variant>
AV-unprocessed.smi:212-3

> <Gold.Version>
5.8.1

> <Gold.Id.Protein>
6NUR|6NUR_protein|mol2

> <Gold.PLP.Fitness>
50.7845

> <Gold.PLP.PLP>
-41.3723

> <Gold.PLP.part.hbond>
-4.0316

> <Gold.PLP.part.metal>
0.0000

> <Gold.PLP.part.buried>
-6.9406

> <Gold.PLP.part.nonpolar>
-31.8885

> <Gold.PLP.part.repulsive>
1.0596

> <Gold.PLP.ligand.clash>
0.0000

> <Gold.PLP.ligand.torsion>
2.0515

> <Gold.PLP.Chemscore.Hbond>
4.2751

> <Gold.PLP.Chemscore.CHOScore>
0.0000

> <Gold.PLP.Chemscore.Metal>
0.0000

> <Gold.Chemscore.Hbonds>
donor molecule, donor type, donor heavy atom, donor atom, acceptor molecule, acceptor atom, score
      L1  H     4    65       P1  8028  1.98
      L1  H     9    45       P1  8028  1.00
      L1  H    25    57       P1 10957  1.00

> <Gold.PLP.Chemscore.Internal.Correction>
0.6898

> <Gold.Rescore>
     Score         DG    S(hbond)    S(metal)    S(lipo)     H(rot)  DE(clash)    DE(int)     intcor
     14.67     -18.05       2.84        0.00     100.61       3.40       0.24       3.14       ----

> <Gold.Chemscore.Fitness>
14.6708

> <Gold.Chemscore.DG>
-18.0457

> <Gold.Chemscore.ZeroCoef>
-5.4800

> <Gold.Chemscore.Hbond>
2.8427

> <Gold.Chemscore.Metal>
0.0000

> <Gold.Chemscore.Lipo>
100.6123

> <Gold.Chemscore.Internal_Hbond>
0.0000

> <Gold.Chemscore.DEClash>
0.2370

> <Gold.Chemscore.DEInternal>
3.1379

> <Gold.Chemscore.Rot>
3.3986

> <Gold.Chemscore.Internal.Correction>
   9.000000E+99

> <Gold.Chemscore.Hbonds>
donor molecule, donor type, donor heavy atom, donor atom, acceptor molecule, acceptor atom, score
      L1  H     4    65       P1  8028  0.88
      L1  H     9    45       P1  8028  0.96
      L1  H    25    57       P1 10957  0.92
      P1  H 10785 10796       L1    29  0.03

> <Gold.Chemscore.Hbond.Weighted>
-9.4945

> <Gold.Chemscore.Metal.Weighted>
-0.0000

> <Gold.Chemscore.Lipo.Weighted>
-11.7716

> <Gold.Chemscore.Internal_Hbond.Weighted>
0.0000

> <Gold.Chemscore.DEClash.Weighted>
0.2370

> <Gold.Chemscore.DEInternal.Weighted>
3.1379

> <Gold.Chemscore.Rot.Weighted>
8.7005

> <Gold.Chemscore.Internal.Correction.Weighted>
   9.000000E+99

> <Gold.Protein.RotatedTorsions>
[ 6907 6896 6895 6894 ] final   27.61 input  -60.11 | X-H torsion
[ 7974 7965 7964 7962 ] final   21.00 input  175.53 | X-H torsion
[ 8008 7997 7996 7995 ] final  -33.13 input   59.86 | X-H torsion
[ 10167 10162 10161 10158 ] final  -31.39 input  -65.29 | X-H torsion
[ 10718 10713 10712 10709 ] final  172.42 input   66.30 | X-H torsion
[ 10763 10752 10751 10750 ] final   65.08 input  -60.55 | X-H torsion
[ 11005 11000 10999 10996 ] final  166.45 input  -57.11 | X-H torsion

> <Gold.Protein.ActiveResidues>
 VAL166  LYS551  ARG553  GLY616  TRP617  ASP618  TYR619  PRO620  LYS621  CYS622 
 ASP623  PHE694  ASN695  SER759  ASP760  ASP761  ALA762  ILE779  LEU786  VAL792 
 PHE793  MET794  SER795  GLU796  ALA797  LYS798  CYS799  TRP800  GLU811  SER814 

> <Gold.Protein.RotatedAtoms>
  152.0049  134.9908  160.0566 H   0  0  0  0  0  0  0  0  0  0  0  0  # atno 6907 bound_to 6896
  152.1484  133.4502  159.4810 H   0  0  0  0  0  0  0  0  0  0  0  0  # atno 6908 bound_to 6896
  150.6873  134.2137  159.4412 H   0  0  0  0  0  0  0  0  0  0  0  0  # atno 6909 bound_to 6896
  146.2089  139.8089  142.8704 H   0  0  0  0  0  0  0  0  0  0  0  0  # atno 7974 bound_to 7965
  154.4158  140.1719  156.1838 H   0  0  0  0  0  0  0  0  0  0  0  0  # atno 8008 bound_to 7997
  155.9660  140.3389  155.6509 H   0  0  0  0  0  0  0  0  0  0  0  0  # atno 8009 bound_to 7997
  155.6687  140.0709  157.2518 H   0  0  0  0  0  0  0  0  0  0  0  0  # atno 8010 bound_to 7997
  140.7237  143.3774  151.1663 H   0  0  0  0  0  0  0  0  0  0  0  0  # atno 10167 bound_to 10162
  156.9792  131.0113  151.2886 H   0  0  0  0  0  0  0  0  0  0  0  0  # atno 10718 bound_to 10713
  153.0081  135.5370  154.6611 H   0  0  0  0  0  0  0  0  0  0  0  0  # atno 10763 bound_to 10752
  154.5819  135.2851  155.0726 H   0  0  0  0  0  0  0  0  0  0  0  0  # atno 10764 bound_to 10752
  154.1852  135.6509  153.5097 H   0  0  0  0  0  0  0  0  0  0  0  0  # atno 10765 bound_to 10752
  140.2666  134.7860  157.3637 H   0  0  0  0  0  0  0  0  0  0  0  0  # atno 11005 bound_to 11000
  145.3217  141.0245  143.3497 LP  0  0  0  0  0  0  0  0  0  0  0  0  # atno 17320 bound_to 7965
  144.8862  139.4836  143.6699 LP  0  0  0  0  0  0  0  0  0  0  0  0  # atno 17321 bound_to 7965
  139.7357  143.9003  152.3034 LP  0  0  0  0  0  0  0  0  0  0  0  0  # atno 17342 bound_to 10162
  139.8807  144.7019  150.8881 LP  0  0  0  0  0  0  0  0  0  0  0  0  # atno 17343 bound_to 10162
  157.5538  130.8200  149.8179 LP  0  0  0  0  0  0  0  0  0  0  0  0  # atno 17370 bound_to 10713
  156.0251  130.3782  150.1846 LP  0  0  0  0  0  0  0  0  0  0  0  0  # atno 17371 bound_to 10713
  140.1414  134.4967  155.8029 LP  0  0  0  0  0  0  0  0  0  0  0  0  # atno 17394 bound_to 11000
  141.2183  133.6826  156.7216 LP  0  0  0  0  0  0  0  0  0  0  0  0  # atno 17395 bound_to 11000

$$$$
