AV-unprocessed.smi:1997|AV-procd|sdf|8086|dock10
  -GOLD-   2272010303D 1   1.00000     0.00000
 Structure written by MMmdl.
 37 39  0  0  0  0  0  0  0  0  1 V2000
  144.7542  136.7178  153.4467 O   0  0  0  0  0  0  0  0  0  0  0  0
  145.9251  136.6492  153.0714 C   0  0  0  0  0  0  0  0  0  0  0  0
  146.8598  137.5971  153.2600 N   0  0  0  0  0  0  0  0  0  0  0  0
  146.7223  138.8518  153.9108 C   0  0  0  0  0  0  0  0  0  0  0  0
  146.4542  138.9887  155.2167 N   0  0  0  0  0  0  0  0  0  0  0  0
  146.3747  140.3227  155.5916 N   0  0  0  0  0  0  0  0  0  0  0  0
  146.5859  141.1533  154.5638 C   0  0  0  0  0  0  0  0  0  0  0  0
  146.5524  142.6374  154.7188 C   0  0  0  0  0  0  0  0  0  0  0  0
  145.3960  143.3373  155.3992 C   0  0  0  0  0  0  0  0  0  0  0  0
  145.5901  143.4781  153.9111 C   0  0  0  0  0  0  0  0  0  0  0  0
  146.9027  140.3566  153.0258 S   0  0  0  0  0  0  0  0  0  0  0  0
  146.4284  135.5976  152.4068 N   0  0  0  0  0  0  0  0  0  0  0  0
  145.6727  134.4101  152.0017 C   0  0  2  0  0  0  0  0  0  0  0  0
  146.6475  133.4636  151.2642 C   0  0  0  0  0  0  0  0  0  0  0  0
  146.1916  131.9941  151.2490 C   0  0  0  0  0  0  0  0  0  0  0  0
  144.8974  131.7231  150.4665 C   0  0  0  0  0  0  0  0  0  0  0  0
  143.6648  132.4431  151.0398 C   0  0  0  0  0  0  0  0  0  0  0  0
  143.6375  133.8546  150.6793 N   0  0  0  0  0  0  0  0  0  0  0  0
  144.5197  134.7965  151.0460 C   0  0  0  0  0  0  0  0  0  0  0  0
  144.4128  135.9473  150.6217 O   0  0  0  0  0  0  0  0  0  0  0  0
  147.7771  137.4013  152.8874 H   0  0  0  0  0  0  0  0  0  0  0  0
  147.5537  143.0289  154.8870 H   0  0  0  0  0  0  0  0  0  0  0  0
  144.5537  142.7356  155.7349 H   0  0  0  0  0  0  0  0  0  0  0  0
  145.6273  144.2007  156.0198 H   0  0  0  0  0  0  0  0  0  0  0  0
  145.9515  144.4342  153.5385 H   0  0  0  0  0  0  0  0  0  0  0  0
  144.8870  142.9595  153.2623 H   0  0  0  0  0  0  0  0  0  0  0  0
  147.3995  135.6288  152.1335 H   0  0  0  0  0  0  0  0  0  0  0  0
  145.2742  133.9204  152.8923 H   0  0  0  0  0  0  0  0  0  0  0  0
  146.8368  133.8109  150.2469 H   0  0  0  0  0  0  0  0  0  0  0  0
  147.6164  133.4910  151.7654 H   0  0  0  0  0  0  0  0  0  0  0  0
  146.9885  131.3883  150.8166 H   0  0  0  0  0  0  0  0  0  0  0  0
  146.0755  131.6413  152.2745 H   0  0  0  0  0  0  0  0  0  0  0  0
  145.0301  131.9827  149.4153 H   0  0  0  0  0  0  0  0  0  0  0  0
  144.7094  130.6492  150.4869 H   0  0  0  0  0  0  0  0  0  0  0  0
  142.7626  131.9896  150.6287 H   0  0  0  0  0  0  0  0  0  0  0  0
  143.6026  132.3225  152.1223 H   0  0  0  0  0  0  0  0  0  0  0  0
  142.8894  134.1427  150.0652 H   0  0  0  0  0  0  0  0  0  0  0  0
  1  2  2  0  0  0  0
  2  3  1  0  0  0  0
  2 12  1  0  0  0  0
  3  4  1  0  0  0  0
  3 21  1  0  0  0  0
  4 11  1  0  0  0  0
  4  5  2  0  0  0  0
  5  6  1  0  0  0  0
  6  7  2  0  0  0  0
  7  8  1  0  0  0  0
  7 11  1  0  0  0  0
  8 10  1  0  0  0  0
  8  9  1  0  0  0  0
  8 22  1  0  0  0  0
  9 10  1  0  0  0  0
  9 23  1  0  0  0  0
  9 24  1  0  0  0  0
 10 25  1  0  0  0  0
 10 26  1  0  0  0  0
 12 13  1  0  0  0  0
 12 27  1  0  0  0  0
 13 19  1  0  0  0  0
 13 14  1  0  0  0  0
 13 28  1  0  0  0  0
 14 15  1  0  0  0  0
 14 29  1  0  0  0  0
 14 30  1  0  0  0  0
 15 16  1  0  0  0  0
 15 31  1  0  0  0  0
 15 32  1  0  0  0  0
 16 17  1  0  0  0  0
 16 33  1  0  0  0  0
 16 34  1  0  0  0  0
 17 18  1  0  0  0  0
 17 35  1  0  0  0  0
 17 36  1  0  0  0  0
 18 19  1  0  0  0  0
 18 37  1  0  0  0  0
 19 20  2  0  0  0  0
M  END
> <s_m_source_file>
AV-unprocessed.smi

> <i_m_source_file_index>
1997

> <i_lp_mmshare_version>
43012

> <i_f3d_flags>
0

> <s_epik_input>
W0NIMl0xW0NIMl1bQ0hdMWMoczIpbm5jMltOSF1DKD1PKVtOSF1bQ0BASF0zW0NIMl1bQ0gyXVtDSDJdW0NIMl1bTkhdQzM9Tw==

> <s_epik_cmdline>
J2VwaWtfcHl0aG9uJywgJy1waCcsICc3LjAnLCAnLXRuJywgJzgnLCAnLW1hJywgJzIwMCcsICctbWV0YWxfYmluZGluZycsICctaW1hZScsICc8aW5maWxlLm1hZT4nLCAnLW9tYWUnLCAnPG91dGZpbGUubWFlPic=

> <r_lp_tautomer_probability>
1

> <r_epik_Ionization_Penalty>
0.000421558

> <r_epik_Ionization_Penalty_Charging>
0

> <r_epik_Ionization_Penalty_Neutral>
0.000421558

> <r_epik_State_Penalty>
-0

> <r_epik_Charging_Adjusted_Penalty>
0

> <i_epik_Tot_Q>
0

> <i_epik_Tot_abs_Q>
0

> <r_epik_Metal_State_Penalty>
0.200761

> <b_epik_Metal_Only>
0

> <s_lp_Force_Field>
OPLS_2005

> <r_lp_Energy>
8.57521

> <b_lp_Chiralities_Consistent>
1

> <s_lp_Variant>
AV-unprocessed.smi:1997-1

> <Gold.Version>
5.8.1

> <Gold.Id.Protein>
6NUR|6NUR_protein|mol2

> <Gold.PLP.Fitness>
40.6998

> <Gold.PLP.PLP>
-33.0039

> <Gold.PLP.part.hbond>
-3.0000

> <Gold.PLP.part.metal>
0.0000

> <Gold.PLP.part.buried>
-5.1372

> <Gold.PLP.part.nonpolar>
-27.9595

> <Gold.PLP.part.repulsive>
2.6720

> <Gold.PLP.ligand.clash>
0.0000

> <Gold.PLP.ligand.torsion>
0.7033

> <Gold.PLP.Chemscore.Hbond>
2.9920

> <Gold.PLP.Chemscore.CHOScore>
0.0000

> <Gold.PLP.Chemscore.Metal>
0.0000

> <Gold.Chemscore.Hbonds>
donor molecule, donor type, donor heavy atom, donor atom, acceptor molecule, acceptor atom, score
      L1  H     3    21       P1  7948  0.99
      L1  H    12    27       P1  7948  1.00
      L1  H    18    37       P1 10186  1.00

> <Gold.PLP.Chemscore.Internal.Correction>
0.1265

> <Gold.Rescore>
     Score         DG    S(hbond)    S(metal)    S(lipo)     H(rot)  DE(clash)    DE(int)     intcor
     18.30     -20.34       2.89        0.00      72.61       1.29       0.43       1.61       ----

> <Gold.Chemscore.Fitness>
18.3000

> <Gold.Chemscore.DG>
-20.3440

> <Gold.Chemscore.ZeroCoef>
-5.4800

> <Gold.Chemscore.Hbond>
2.8925

> <Gold.Chemscore.Metal>
0.0000

> <Gold.Chemscore.Lipo>
72.6112

> <Gold.Chemscore.Internal_Hbond>
0.0000

> <Gold.Chemscore.DEClash>
0.4304

> <Gold.Chemscore.DEInternal>
1.6136

> <Gold.Chemscore.Rot>
1.2860

> <Gold.Chemscore.Internal.Correction>
   9.000000E+99

> <Gold.Chemscore.Hbonds>
donor molecule, donor type, donor heavy atom, donor atom, acceptor molecule, acceptor atom, score
      L1  H     3    21       P1  7948  0.94
      L1  H    12    27       P1  7948  1.00
      L1  H    18    37       P1 10186  0.94

> <Gold.Chemscore.Hbond.Weighted>
-9.6608

> <Gold.Chemscore.Metal.Weighted>
-0.0000

> <Gold.Chemscore.Lipo.Weighted>
-8.4955

> <Gold.Chemscore.Internal_Hbond.Weighted>
0.0000

> <Gold.Chemscore.DEClash.Weighted>
0.4304

> <Gold.Chemscore.DEInternal.Weighted>
1.6136

> <Gold.Chemscore.Rot.Weighted>
3.2923

> <Gold.Chemscore.Internal.Correction.Weighted>
   9.000000E+99

> <Gold.Protein.RotatedTorsions>
[ 6907 6896 6895 6894 ] final  -77.74 input  -60.11 | X-H torsion
[ 7974 7965 7964 7962 ] final  142.70 input  175.53 | X-H torsion
[ 8008 7997 7996 7995 ] final   30.02 input   59.86 | X-H torsion
[ 10167 10162 10161 10158 ] final  163.77 input  -65.29 | X-H torsion
[ 10718 10713 10712 10709 ] final  112.37 input   66.30 | X-H torsion
[ 10763 10752 10751 10750 ] final   58.49 input  -60.55 | X-H torsion
[ 11005 11000 10999 10996 ] final   95.71 input  -57.11 | X-H torsion

> <Gold.Protein.ActiveResidues>
 VAL166  LYS551  ARG553  GLY616  TRP617  ASP618  TYR619  PRO620  LYS621  CYS622 
 ASP623  PHE694  ASN695  SER759  ASP760  ASP761  ALA762  ILE779  LEU786  VAL792 
 PHE793  MET794  SER795  GLU796  ALA797  LYS798  CYS799  TRP800  GLU811  SER814 

> <Gold.Protein.RotatedAtoms>
  150.6990  134.4376  159.5277 H   0  0  0  0  0  0  0  0  0  0  0  0  # atno 6907 bound_to 6896
  152.2092  134.8514  160.0508 H   0  0  0  0  0  0  0  0  0  0  0  0  # atno 6908 bound_to 6896
  151.9406  133.3602  159.4000 H   0  0  0  0  0  0  0  0  0  0  0  0  # atno 6909 bound_to 6896
  144.8985  139.5457  143.5765 H   0  0  0  0  0  0  0  0  0  0  0  0  # atno 7974 bound_to 7965
  155.0837  140.3213  155.4594 H   0  0  0  0  0  0  0  0  0  0  0  0  # atno 8008 bound_to 7997
  156.2760  140.2090  156.5910 H   0  0  0  0  0  0  0  0  0  0  0  0  # atno 8009 bound_to 7997
  154.6958  140.0512  157.0396 H   0  0  0  0  0  0  0  0  0  0  0  0  # atno 8010 bound_to 7997
  139.4879  144.4303  151.9079 H   0  0  0  0  0  0  0  0  0  0  0  0  # atno 10167 bound_to 10162
  157.6396  131.0966  150.6886 H   0  0  0  0  0  0  0  0  0  0  0  0  # atno 10718 bound_to 10713
  152.9872  135.5605  154.5560 H   0  0  0  0  0  0  0  0  0  0  0  0  # atno 10763 bound_to 10752
  154.4988  135.2796  155.1440 H   0  0  0  0  0  0  0  0  0  0  0  0  # atno 10764 bound_to 10752
  154.2879  135.6332  153.5426 H   0  0  0  0  0  0  0  0  0  0  0  0  # atno 10765 bound_to 10752
  139.8787  134.8913  156.4051 H   0  0  0  0  0  0  0  0  0  0  0  0  # atno 11005 bound_to 11000
  146.3095  139.7695  142.9031 LP  0  0  0  0  0  0  0  0  0  0  0  0  # atno 17320 bound_to 7965
  145.3658  141.0334  143.3259 LP  0  0  0  0  0  0  0  0  0  0  0  0  # atno 17321 bound_to 7965
  140.3750  144.2807  150.5915 LP  0  0  0  0  0  0  0  0  0  0  0  0  # atno 17342 bound_to 10162
  140.5284  143.2249  151.8277 LP  0  0  0  0  0  0  0  0  0  0  0  0  # atno 17343 bound_to 10162
  156.7212  130.4681  149.5522 LP  0  0  0  0  0  0  0  0  0  0  0  0  # atno 17370 bound_to 10713
  156.1664  130.6408  151.0783 LP  0  0  0  0  0  0  0  0  0  0  0  0  # atno 17371 bound_to 10713
  140.9240  133.7625  155.9941 LP  0  0  0  0  0  0  0  0  0  0  0  0  # atno 17394 bound_to 11000
  140.8407  134.3069  157.5314 LP  0  0  0  0  0  0  0  0  0  0  0  0  # atno 17395 bound_to 11000

$$$$
