AV-unprocessed.smi:2881|AV-procd|sdf|11061|dock8
  -GOLD-   2272015533D 1   1.00000     0.00000
 Structure written by MMmdl.
 40 42  0  0  0  0  0  0  0  0  1 V2000
  146.4106  134.0518  162.7426 C   0  0  0  0  0  0  0  0  0  0  0  0
  146.8181  135.1733  161.8489 C   0  0  0  0  0  0  0  0  0  0  0  0
  146.8489  135.2781  160.4871 C   0  0  0  0  0  0  0  0  0  0  0  0
  147.3243  136.6010  160.2445 C   0  0  0  0  0  0  0  0  0  0  0  0
  147.5356  137.2792  158.9170 C   0  0  0  0  0  0  0  0  0  0  0  0
  149.0307  137.3301  158.6055 C   0  0  0  0  0  0  0  0  0  0  0  0
  149.8300  136.7174  159.3131 O   0  0  0  0  0  0  0  0  0  0  0  0
  149.3852  138.0365  157.5212 N   0  0  0  0  0  0  0  0  0  0  0  0
  150.7285  138.0950  156.9451 C   0  0  2  0  0  0  0  0  0  0  0  0
  151.5479  139.3018  157.4649 C   0  0  2  0  0  0  0  0  0  0  0  0
  150.7509  140.6188  157.3487 C   0  0  0  0  0  0  0  0  0  0  0  0
  150.7106  140.8530  155.8283 C   0  0  0  0  0  0  0  0  0  0  0  0
  151.5129  139.6573  155.2721 C   0  0  1  0  0  0  0  0  0  0  0  0
  152.5749  139.4873  156.3522 C   0  0  0  0  0  0  0  0  0  0  0  0
  150.7388  138.3223  155.4050 C   0  0  2  0  0  0  0  0  0  0  0  0
  149.3800  138.2516  154.6681 C   0  0  0  0  0  0  0  0  0  0  0  0
  149.5513  138.5079  153.2906 O   0  0  0  0  0  0  0  0  0  0  0  0
  147.5746  137.2604  161.3679 N   0  0  0  0  0  0  0  0  0  0  0  0
  147.2605  136.3810  162.3372 N   0  0  0  0  0  0  0  0  0  0  0  0
  147.3536  136.6148  163.3156 H   0  0  0  0  0  0  0  0  0  0  0  0
  146.2378  133.1405  162.1698 H   0  0  0  0  0  0  0  0  0  0  0  0
  145.4900  134.2955  163.2731 H   0  0  0  0  0  0  0  0  0  0  0  0
  147.1838  133.8423  163.4822 H   0  0  0  0  0  0  0  0  0  0  0  0
  146.5653  134.5252  159.7664 H   0  0  0  0  0  0  0  0  0  0  0  0
  147.0118  136.7542  158.1166 H   0  0  0  0  0  0  0  0  0  0  0  0
  147.1344  138.2930  158.9400 H   0  0  0  0  0  0  0  0  0  0  0  0
  148.6535  138.5081  157.0092 H   0  0  0  0  0  0  0  0  0  0  0  0
  151.2764  137.1792  157.1751 H   0  0  0  0  0  0  0  0  0  0  0  0
  151.9741  139.1410  158.4557 H   0  0  0  0  0  0  0  0  0  0  0  0
  149.7574  140.5747  157.7949 H   0  0  0  0  0  0  0  0  0  0  0  0
  151.2880  141.4311  157.8403 H   0  0  0  0  0  0  0  0  0  0  0  0
  149.6959  140.9128  155.4377 H   0  0  0  0  0  0  0  0  0  0  0  0
  151.2061  141.7923  155.5800 H   0  0  0  0  0  0  0  0  0  0  0  0
  151.9114  139.8295  154.2719 H   0  0  0  0  0  0  0  0  0  0  0  0
  153.2052  140.3687  156.4851 H   0  0  0  0  0  0  0  0  0  0  0  0
  153.2131  138.6147  156.2017 H   0  0  0  0  0  0  0  0  0  0  0  0
  151.3654  137.5404  154.9717 H   0  0  0  0  0  0  0  0  0  0  0  0
  148.9480  137.2561  154.7728 H   0  0  0  0  0  0  0  0  0  0  0  0
  148.6518  138.9527  155.0744 H   0  0  0  0  0  0  0  0  0  0  0  0
  149.1502  137.8046  152.8030 H   0  0  0  0  0  0  0  0  0  0  0  0
  1  2  1  0  0  0  0
  1 21  1  0  0  0  0
  1 22  1  0  0  0  0
  1 23  1  0  0  0  0
  2 19  1  0  0  0  0
  2  3  2  0  0  0  0
  3  4  1  0  0  0  0
  3 24  1  0  0  0  0
  4  5  1  0  0  0  0
  4 18  2  0  0  0  0
  5  6  1  0  0  0  0
  5 25  1  0  0  0  0
  5 26  1  0  0  0  0
  6  7  2  0  0  0  0
  6  8  1  0  0  0  0
  8  9  1  0  0  0  0
  8 27  1  0  0  0  0
  9 15  1  0  0  0  0
  9 10  1  0  0  0  0
  9 28  1  0  0  0  0
 10 14  1  0  0  0  0
 10 11  1  0  0  0  0
 10 29  1  0  0  0  0
 11 12  1  0  0  0  0
 11 30  1  0  0  0  0
 11 31  1  0  0  0  0
 12 13  1  0  0  0  0
 12 32  1  0  0  0  0
 12 33  1  0  0  0  0
 13 14  1  0  0  0  0
 13 15  1  0  0  0  0
 13 34  1  0  0  0  0
 14 35  1  0  0  0  0
 14 36  1  0  0  0  0
 15 16  1  0  0  0  0
 15 37  1  0  0  0  0
 16 17  1  0  0  0  0
 16 38  1  0  0  0  0
 16 39  1  0  0  0  0
 17 40  1  0  0  0  0
 18 19  1  0  0  0  0
 19 20  1  0  0  0  0
M  END
> <s_m_source_file>
AV-unprocessed.smi

> <i_m_source_file_index>
2881

> <i_lp_mmshare_version>
43012

> <i_f3d_flags>
0

> <s_epik_input>
W0NIM11jMVtjSF1jKG5bbkhdMSlbQ0gyXUMoPU8pW05IXVtDQEhdKFtDQEBIXTIzKVtDQEhdKFtDSDJdW09IXSlbQ0BASF0oW0NIMl0zKVtDSDJdW0NIMl0y

> <s_epik_cmdline>
J2VwaWtfcHl0aG9uJywgJy1waCcsICc3LjAnLCAnLXRuJywgJzgnLCAnLW1hJywgJzIwMCcsICctbWV0YWxfYmluZGluZycsICctaW1hZScsICc8aW5maWxlLm1hZT4nLCAnLW9tYWUnLCAnPG91dGZpbGUubWFlPic=

> <r_lp_tautomer_probability>
0.5

> <r_epik_Ionization_Penalty>
9.4349e-05

> <r_epik_Ionization_Penalty_Charging>
0

> <r_epik_Ionization_Penalty_Neutral>
9.4349e-05

> <r_epik_State_Penalty>
0.41068

> <r_epik_Charging_Adjusted_Penalty>
0.41068

> <i_epik_Tot_Q>
0

> <i_epik_Tot_abs_Q>
0

> <r_epik_Metal_State_Penalty>
0.4107

> <b_epik_Metal_Only>
0

> <s_lp_Force_Field>
OPLS_2005

> <r_lp_Energy>
48.5283

> <b_lp_Chiralities_Consistent>
1

> <s_lp_Variant>
AV-unprocessed.smi:2881-7

> <Gold.Version>
5.8.1

> <Gold.Id.Protein>
6NUR|6NUR_protein|mol2

> <Gold.PLP.Fitness>
39.1144

> <Gold.PLP.PLP>
-28.8759

> <Gold.PLP.part.hbond>
-5.0000

> <Gold.PLP.part.metal>
0.0000

> <Gold.PLP.part.buried>
-1.3482

> <Gold.PLP.part.nonpolar>
-23.3436

> <Gold.PLP.part.repulsive>
0.2002

> <Gold.PLP.ligand.clash>
0.0000

> <Gold.PLP.ligand.torsion>
0.6360

> <Gold.PLP.Chemscore.Hbond>
3.8320

> <Gold.PLP.Chemscore.CHOScore>
0.0000

> <Gold.PLP.Chemscore.Metal>
0.0000

> <Gold.Chemscore.Hbonds>
donor molecule, donor type, donor heavy atom, donor atom, acceptor molecule, acceptor atom, score
      L1  H    17    40       P1  7948  1.00
      P1  H  6896  6907       L1     7  0.78
      P1  H  6931  6943       L1    18  0.91
      P1  H  6934  6947       L1    18  0.85

> <Gold.PLP.Chemscore.Internal.Correction>
0.0144

> <Gold.Rescore>
     Score         DG    S(hbond)    S(metal)    S(lipo)     H(rot)  DE(clash)    DE(int)     intcor
     17.29     -18.74       3.13        0.00      73.73       2.28       0.74       0.71       ----

> <Gold.Chemscore.Fitness>
17.2903

> <Gold.Chemscore.DG>
-18.7392

> <Gold.Chemscore.ZeroCoef>
-5.4800

> <Gold.Chemscore.Hbond>
3.1310

> <Gold.Chemscore.Metal>
0.0000

> <Gold.Chemscore.Lipo>
73.7349

> <Gold.Chemscore.Internal_Hbond>
0.0000

> <Gold.Chemscore.DEClash>
0.7385

> <Gold.Chemscore.DEInternal>
0.7104

> <Gold.Chemscore.Rot>
2.2755

> <Gold.Chemscore.Internal.Correction>
   9.000000E+99

> <Gold.Chemscore.Hbonds>
donor molecule, donor type, donor heavy atom, donor atom, acceptor molecule, acceptor atom, score
      L1  H    17    40       P1  7948  0.98
      P1  H  6896  6907       L1     7  0.77
      P1  H  6931  6943       L1    18  0.63
      P1  H  6934  6947       L1    18  0.38

> <Gold.Chemscore.Hbond.Weighted>
-10.4575

> <Gold.Chemscore.Metal.Weighted>
-0.0000

> <Gold.Chemscore.Lipo.Weighted>
-8.6270

> <Gold.Chemscore.Internal_Hbond.Weighted>
0.0000

> <Gold.Chemscore.DEClash.Weighted>
0.7385

> <Gold.Chemscore.DEInternal.Weighted>
0.7104

> <Gold.Chemscore.Rot.Weighted>
5.8252

> <Gold.Chemscore.Internal.Correction.Weighted>
   9.000000E+99

> <Gold.Protein.RotatedTorsions>
[ 6907 6896 6895 6894 ] final  -42.89 input  -60.11 | X-H torsion
[ 7974 7965 7964 7962 ] final  -68.42 input  175.53 | X-H torsion
[ 8008 7997 7996 7995 ] final -176.99 input   59.86 | X-H torsion
[ 10167 10162 10161 10158 ] final -140.18 input  -65.29 | X-H torsion
[ 10718 10713 10712 10709 ] final  158.73 input   66.30 | X-H torsion
[ 10763 10752 10751 10750 ] final  124.08 input  -60.55 | X-H torsion
[ 11005 11000 10999 10996 ] final  126.99 input  -57.11 | X-H torsion

> <Gold.Protein.ActiveResidues>
 VAL166  LYS551  ARG553  GLY616  TRP617  ASP618  TYR619  PRO620  LYS621  CYS622 
 ASP623  PHE694  ASN695  SER759  ASP760  ASP761  ALA762  ILE779  LEU786  VAL792 
 PHE793  MET794  SER795  GLU796  ALA797  LYS798  CYS799  TRP800  GLU811  SER814 

> <Gold.Protein.RotatedAtoms>
  150.9501  134.8902  159.7666 H   0  0  0  0  0  0  0  0  0  0  0  0  # atno 6907 bound_to 6896
  152.5116  134.3818  159.9364 H   0  0  0  0  0  0  0  0  0  0  0  0  # atno 6908 bound_to 6896
  151.3834  133.3773  159.2747 H   0  0  0  0  0  0  0  0  0  0  0  0  # atno 6909 bound_to 6896
  145.7167  140.9056  143.0652 H   0  0  0  0  0  0  0  0  0  0  0  0  # atno 7974 bound_to 7965
  156.0015  140.1221  157.0542 H   0  0  0  0  0  0  0  0  0  0  0  0  # atno 8008 bound_to 7997
  154.4244  140.1106  156.5772 H   0  0  0  0  0  0  0  0  0  0  0  0  # atno 8009 bound_to 7997
  155.6206  140.3472  155.4653 H   0  0  0  0  0  0  0  0  0  0  0  0  # atno 8010 bound_to 7997
  139.8307  143.7451  152.2666 H   0  0  0  0  0  0  0  0  0  0  0  0  # atno 10167 bound_to 10162
  157.1738  131.0616  151.2168 H   0  0  0  0  0  0  0  0  0  0  0  0  # atno 10718 bound_to 10713
  153.6557  135.3355  155.3113 H   0  0  0  0  0  0  0  0  0  0  0  0  # atno 10763 bound_to 10752
  154.8527  135.4351  154.1857 H   0  0  0  0  0  0  0  0  0  0  0  0  # atno 10764 bound_to 10752
  153.2811  135.7009  153.7460 H   0  0  0  0  0  0  0  0  0  0  0  0  # atno 10765 bound_to 10752
  139.9484  134.9626  156.8789 H   0  0  0  0  0  0  0  0  0  0  0  0  # atno 11005 bound_to 11000
  144.6927  139.9147  143.7465 LP  0  0  0  0  0  0  0  0  0  0  0  0  # atno 17320 bound_to 7965
  146.0663  139.3654  143.0550 LP  0  0  0  0  0  0  0  0  0  0  0  0  # atno 17321 bound_to 7965
  139.7657  144.7492  151.0298 LP  0  0  0  0  0  0  0  0  0  0  0  0  # atno 17342 bound_to 10162
  140.7807  143.4701  151.0159 LP  0  0  0  0  0  0  0  0  0  0  0  0  # atno 17343 bound_to 10162
  157.4017  130.7337  149.6772 LP  0  0  0  0  0  0  0  0  0  0  0  0  # atno 17370 bound_to 10713
  155.9734  130.4119  150.4004 LP  0  0  0  0  0  0  0  0  0  0  0  0  # atno 17371 bound_to 10713
  140.5777  134.0382  155.7453 LP  0  0  0  0  0  0  0  0  0  0  0  0  # atno 17394 bound_to 11000
  141.1141  133.9569  157.2855 LP  0  0  0  0  0  0  0  0  0  0  0  0  # atno 17395 bound_to 11000

$$$$
