AV-unprocessed.smi:3267|AV-procd|sdf|12504|dock3
  -GOLD-   2272018413D 1   1.00000     0.00000
 Structure written by MMmdl.
 38 39  0  0  0  0  0  0  0  0  1 V2000
  144.5545  135.3209  153.0707 C   0  0  0  0  0  0  0  0  0  0  0  0
  145.0423  136.3744  152.0662 C   0  0  2  0  0  0  0  0  0  0  0  0
  145.0508  135.8310  150.6165 C   0  0  0  0  0  0  0  0  0  0  0  0
  145.1944  134.3881  150.5754 N   0  0  0  0  0  0  0  0  0  0  0  0
  144.3227  133.4535  150.0580 C   0  0  0  0  0  0  0  0  0  0  0  0
  144.8835  132.2239  150.2530 C   0  0  0  0  0  0  0  0  0  0  0  0
  146.1133  132.5136  150.9077 C   0  0  0  0  0  0  0  0  0  0  0  0
  146.2959  133.8101  151.1008 N   0  0  0  0  0  0  0  0  0  0  0  0
  146.3743  136.8277  152.4590 N   0  0  0  0  0  0  0  0  0  0  0  0
  146.6353  137.9051  153.2128 C   0  0  0  0  0  0  0  0  0  0  0  0
  145.7718  138.6478  153.6803 O   0  0  0  0  0  0  0  0  0  0  0  0
  147.9517  138.0782  153.3920 N   0  0  0  0  0  0  0  0  0  0  0  0
  148.5539  139.1508  154.1753 C   0  0  0  0  0  0  0  0  0  0  0  0
  150.0763  138.9737  154.2940 C   0  0  2  0  0  0  0  0  0  0  0  0
  150.4896  137.6852  155.0020 C   0  0  0  0  0  0  0  0  0  0  0  0
  151.8626  138.0478  155.5193 C   0  0  0  0  0  0  0  0  0  0  0  0
  151.6655  139.5038  155.9305 C   0  0  0  0  0  0  0  0  0  0  0  0
  150.6448  140.0197  155.0791 O   0  0  0  0  0  0  0  0  0  0  0  0
  143.5441  134.9901  152.8275 H   0  0  0  0  0  0  0  0  0  0  0  0
  144.5329  135.7235  154.0841 H   0  0  0  0  0  0  0  0  0  0  0  0
  145.2010  134.4425  153.0735 H   0  0  0  0  0  0  0  0  0  0  0  0
  144.3577  137.2223  152.1389 H   0  0  0  0  0  0  0  0  0  0  0  0
  144.1352  136.0960  150.0853 H   0  0  0  0  0  0  0  0  0  0  0  0
  145.8640  136.2719  150.0377 H   0  0  0  0  0  0  0  0  0  0  0  0
  143.3859  133.7387  149.6021 H   0  0  0  0  0  0  0  0  0  0  0  0
  144.4769  131.2638  149.9720 H   0  0  0  0  0  0  0  0  0  0  0  0
  146.8735  131.8255  151.2462 H   0  0  0  0  0  0  0  0  0  0  0  0
  147.1554  136.2802  152.1284 H   0  0  0  0  0  0  0  0  0  0  0  0
  148.5835  137.4136  152.9698 H   0  0  0  0  0  0  0  0  0  0  0  0
  148.3229  140.1020  153.6950 H   0  0  0  0  0  0  0  0  0  0  0  0
  148.0999  139.1876  155.1672 H   0  0  0  0  0  0  0  0  0  0  0  0
  150.5441  138.9994  153.3083 H   0  0  0  0  0  0  0  0  0  0  0  0
  149.8214  137.4717  155.8375 H   0  0  0  0  0  0  0  0  0  0  0  0
  150.4968  136.8198  154.3390 H   0  0  0  0  0  0  0  0  0  0  0  0
  152.1946  137.4130  156.3413 H   0  0  0  0  0  0  0  0  0  0  0  0
  152.5957  137.9798  154.7145 H   0  0  0  0  0  0  0  0  0  0  0  0
  151.3177  139.5649  156.9621 H   0  0  0  0  0  0  0  0  0  0  0  0
  152.5841  140.0850  155.8486 H   0  0  0  0  0  0  0  0  0  0  0  0
  1  2  1  0  0  0  0
  1 19  1  0  0  0  0
  1 20  1  0  0  0  0
  1 21  1  0  0  0  0
  2  3  1  0  0  0  0
  2  9  1  0  0  0  0
  2 22  1  0  0  0  0
  3  4  1  0  0  0  0
  3 23  1  0  0  0  0
  3 24  1  0  0  0  0
  4  8  1  0  0  0  0
  4  5  1  0  0  0  0
  5  6  2  0  0  0  0
  5 25  1  0  0  0  0
  6  7  1  0  0  0  0
  6 26  1  0  0  0  0
  7  8  2  0  0  0  0
  7 27  1  0  0  0  0
  9 10  1  0  0  0  0
  9 28  1  0  0  0  0
 10 11  2  0  0  0  0
 10 12  1  0  0  0  0
 12 13  1  0  0  0  0
 12 29  1  0  0  0  0
 13 14  1  0  0  0  0
 13 30  1  0  0  0  0
 13 31  1  0  0  0  0
 14 18  1  0  0  0  0
 14 15  1  0  0  0  0
 14 32  1  0  0  0  0
 15 16  1  0  0  0  0
 15 33  1  0  0  0  0
 15 34  1  0  0  0  0
 16 17  1  0  0  0  0
 16 35  1  0  0  0  0
 16 36  1  0  0  0  0
 17 18  1  0  0  0  0
 17 37  1  0  0  0  0
 17 38  1  0  0  0  0
M  END
> <s_m_source_file>
AV-unprocessed.smi

> <i_m_source_file_index>
3267

> <i_lp_mmshare_version>
43012

> <i_f3d_flags>
0

> <s_epik_input>
bjFbY0hdW2NIXVtjSF1uMVtDSDJdW0NAQEhdKFtDSDNdKVtOSF1DKD1PKVtOSF1bQ0gyXVtDQEBIXTJbQ0gyXVtDSDJdW0NIMl1PMg==

> <s_epik_cmdline>
J2VwaWtfcHl0aG9uJywgJy1waCcsICc3LjAnLCAnLXRuJywgJzgnLCAnLW1hJywgJzIwMCcsICctbWV0YWxfYmluZGluZycsICctaW1hZScsICc8aW5maWxlLm1hZT4nLCAnLW9tYWUnLCAnPG91dGZpbGUubWFlPic=

> <r_lp_tautomer_probability>
1

> <r_epik_Ionization_Penalty>
6.24796e-05

> <r_epik_Ionization_Penalty_Charging>
0

> <r_epik_Ionization_Penalty_Neutral>
6.24796e-05

> <r_epik_State_Penalty>
-0

> <r_epik_Charging_Adjusted_Penalty>
0

> <i_epik_Tot_Q>
0

> <i_epik_Tot_abs_Q>
0

> <r_epik_Metal_State_Penalty>
-0

> <b_epik_Metal_Only>
0

> <s_lp_Force_Field>
OPLS_2005

> <r_lp_Energy>
17.87

> <b_lp_Chiralities_Consistent>
1

> <s_lp_Variant>
AV-unprocessed.smi:3267-1

> <Gold.Version>
5.8.1

> <Gold.Id.Protein>
6NUR|6NUR_protein|mol2

> <Gold.PLP.Fitness>
46.0028

> <Gold.PLP.PLP>
-32.9483

> <Gold.PLP.part.hbond>
-2.9821

> <Gold.PLP.part.metal>
0.0000

> <Gold.PLP.part.buried>
-4.4615

> <Gold.PLP.part.nonpolar>
-26.3741

> <Gold.PLP.part.repulsive>
0.4646

> <Gold.PLP.ligand.clash>
0.0000

> <Gold.PLP.ligand.torsion>
0.8290

> <Gold.PLP.Chemscore.Hbond>
2.8960

> <Gold.PLP.Chemscore.CHOScore>
2.0000

> <Gold.PLP.Chemscore.Metal>
0.0000

> <Gold.Chemscore.Hbonds>
donor molecule, donor type, donor heavy atom, donor atom, acceptor molecule, acceptor atom, score
      L1  H     9    28       P1  7948  0.93
      L1  H    12    29       P1  7948  1.00
      P1  H  7989  7998       L1    18  0.67
      L1  C     5    25       P1 10186  1.00
      L1  C     7    27       P1 10747  1.00

> <Gold.PLP.Chemscore.Internal.Correction>
0.0245

> <Gold.Rescore>
     Score         DG    S(hbond)    S(metal)    S(lipo)     H(rot)  DE(clash)    DE(int)     intcor
     16.67     -17.67       2.66        0.00      69.28       1.87       0.04       0.96       ----

> <Gold.Chemscore.Fitness>
16.6729

> <Gold.Chemscore.DG>
-17.6678

> <Gold.Chemscore.ZeroCoef>
-5.4800

> <Gold.Chemscore.Hbond>
2.6574

> <Gold.Chemscore.Metal>
0.0000

> <Gold.Chemscore.Lipo>
69.2769

> <Gold.Chemscore.Internal_Hbond>
0.0000

> <Gold.Chemscore.DEClash>
0.0396

> <Gold.Chemscore.DEInternal>
0.9552

> <Gold.Chemscore.Rot>
1.8724

> <Gold.Chemscore.Internal.Correction>
   9.000000E+99

> <Gold.Chemscore.Hbonds>
donor molecule, donor type, donor heavy atom, donor atom, acceptor molecule, acceptor atom, score
      L1  H     9    28       P1  7948  0.91
      L1  H    12    29       P1  7948  0.97
      P1  H  7989  7998       L1    18  0.03

> <Gold.Chemscore.Hbond.Weighted>
-8.8756

> <Gold.Chemscore.Metal.Weighted>
-0.0000

> <Gold.Chemscore.Lipo.Weighted>
-8.1054

> <Gold.Chemscore.Internal_Hbond.Weighted>
0.0000

> <Gold.Chemscore.DEClash.Weighted>
0.0396

> <Gold.Chemscore.DEInternal.Weighted>
0.9552

> <Gold.Chemscore.Rot.Weighted>
4.7933

> <Gold.Chemscore.Internal.Correction.Weighted>
   9.000000E+99

> <Gold.Protein.RotatedTorsions>
[ 6907 6896 6895 6894 ] final   25.87 input  -60.11 | X-H torsion
[ 7974 7965 7964 7962 ] final  -40.56 input  175.53 | X-H torsion
[ 8008 7997 7996 7995 ] final  -89.72 input   59.86 | X-H torsion
[ 10167 10162 10161 10158 ] final -115.49 input  -65.29 | X-H torsion
[ 10718 10713 10712 10709 ] final -169.71 input   66.30 | X-H torsion
[ 10763 10752 10751 10750 ] final  175.30 input  -60.55 | X-H torsion
[ 11005 11000 10999 10996 ] final   37.70 input  -57.11 | X-H torsion

> <Gold.Protein.ActiveResidues>
 VAL166  LYS551  ARG553  GLY616  TRP617  ASP618  TYR619  PRO620  LYS621  CYS622 
 ASP623  PHE694  ASN695  SER759  ASP760  ASP761  ALA762  ILE779  LEU786  VAL792 
 PHE793  MET794  SER795  GLU796  ALA797  LYS798  CYS799  TRP800  GLU811  SER814 

> <Gold.Protein.RotatedAtoms>
  151.9790  135.0038  160.0556 H   0  0  0  0  0  0  0  0  0  0  0  0  # atno 6907 bound_to 6896
  152.1713  133.4641  159.4919 H   0  0  0  0  0  0  0  0  0  0  0  0  # atno 6908 bound_to 6896
  150.6902  134.1867  159.4312 H   0  0  0  0  0  0  0  0  0  0  0  0  # atno 6909 bound_to 6896
  146.0293  140.6751  142.9140 H   0  0  0  0  0  0  0  0  0  0  0  0  # atno 7974 bound_to 7965
  154.6900  140.0538  157.0353 H   0  0  0  0  0  0  0  0  0  0  0  0  # atno 8008 bound_to 7997
  155.0830  140.3211  155.4577 H   0  0  0  0  0  0  0  0  0  0  0  0  # atno 8009 bound_to 7997
  156.2725  140.2061  156.5958 H   0  0  0  0  0  0  0  0  0  0  0  0  # atno 8010 bound_to 7997
  140.0896  143.4712  152.1878 H   0  0  0  0  0  0  0  0  0  0  0  0  # atno 10167 bound_to 10162
  156.7156  130.9250  151.3093 H   0  0  0  0  0  0  0  0  0  0  0  0  # atno 10718 bound_to 10713
  154.4657  135.2769  155.1680 H   0  0  0  0  0  0  0  0  0  0  0  0  # atno 10763 bound_to 10752
  154.3450  135.6162  153.5618 H   0  0  0  0  0  0  0  0  0  0  0  0  # atno 10764 bound_to 10752
  152.9859  135.5797  154.5027 H   0  0  0  0  0  0  0  0  0  0  0  0  # atno 10765 bound_to 10752
  140.2200  134.3653  155.8009 H   0  0  0  0  0  0  0  0  0  0  0  0  # atno 11005 bound_to 11000
  144.7023  140.3707  143.7146 LP  0  0  0  0  0  0  0  0  0  0  0  0  # atno 17320 bound_to 7965
  145.7066  139.1674  143.2562 LP  0  0  0  0  0  0  0  0  0  0  0  0  # atno 17321 bound_to 7965
  139.5732  144.7474  151.3834 LP  0  0  0  0  0  0  0  0  0  0  0  0  # atno 17342 bound_to 10162
  140.7036  143.7571  150.7443 LP  0  0  0  0  0  0  0  0  0  0  0  0  # atno 17343 bound_to 10162
  157.6919  130.9242  150.0536 LP  0  0  0  0  0  0  0  0  0  0  0  0  # atno 17370 bound_to 10713
  156.1631  130.3644  149.9271 LP  0  0  0  0  0  0  0  0  0  0  0  0  # atno 17371 bound_to 10713
  141.2223  133.7188  156.8559 LP  0  0  0  0  0  0  0  0  0  0  0  0  # atno 17394 bound_to 11000
  140.1860  134.8999  157.3005 LP  0  0  0  0  0  0  0  0  0  0  0  0  # atno 17395 bound_to 11000

$$$$
