AV-unprocessed.smi:2252|AV-procd|sdf|9105|dock5
  -GOLD-   2272012303D 1   1.00000     0.00000
 Structure written by MMmdl.
 45 47  0  0  0  0  0  0  0  0  2 V2000
  151.8051  145.1985  158.8241 C   0  0  0  0  0  0  0  0  0  0  0  0
  152.0789  143.7967  159.0758 N   0  0  0  0  0  0  0  0  0  0  0  0
  153.0336  143.2967  159.9514 C   0  0  0  0  0  0  0  0  0  0  0  0
  152.9516  141.9268  159.8839 C   0  0  0  0  0  0  0  0  0  0  0  0
  151.9588  141.5687  158.9784 N   0  0  0  0  0  0  0  0  0  0  0  0
  151.4794  142.7232  158.5257 C   0  0  0  0  0  0  0  0  0  0  0  0
  150.3660  142.8233  157.5303 C   0  0  0  0  0  0  0  0  0  0  0  0
  150.7075  142.1326  156.1994 C   0  0  0  0  0  0  0  0  0  0  0  0
  149.5976  142.1954  155.2560 N   0  0  0  0  0  0  0  0  0  0  0  0
  148.5918  141.3094  155.1907 C   0  0  0  0  0  0  0  0  0  0  0  0
  148.4981  140.3367  155.9399 O   0  0  0  0  0  0  0  0  0  0  0  0
  147.5165  141.5643  154.1240 C   0  0  2  0  0  0  0  0  0  0  0  0
  146.1375  141.6170  154.8156 C   0  0  0  0  0  0  0  0  0  0  0  0
  145.2040  142.7915  154.6173 C   0  0  0  0  0  0  0  0  0  0  0  0
  145.8748  142.5838  155.9508 C   0  0  0  0  0  0  0  0  0  0  0  0
  147.5508  140.5284  153.0525 N   0  3  0  0  0  0  0  0  0  0  0  0
  147.4968  139.1285  153.5248 C   0  0  0  0  0  0  0  0  0  0  0  0
  147.0492  138.2895  152.3236 C   0  0  0  0  0  0  0  0  0  0  0  0
  146.4440  139.2844  151.3282 C   0  0  0  0  0  0  0  0  0  0  0  0
  146.4801  140.6388  152.0376 C   0  0  0  0  0  0  0  0  0  0  0  0
  152.3800  145.8232  159.5082 H   0  0  0  0  0  0  0  0  0  0  0  0
  150.7439  145.4023  158.9695 H   0  0  0  0  0  0  0  0  0  0  0  0
  152.0832  145.4493  157.8002 H   0  0  0  0  0  0  0  0  0  0  0  0
  153.6747  143.9396  160.5366 H   0  0  0  0  0  0  0  0  0  0  0  0
  153.5238  141.1784  160.4120 H   0  0  0  0  0  0  0  0  0  0  0  0
  149.4549  142.4010  157.9544 H   0  0  0  0  0  0  0  0  0  0  0  0
  150.1584  143.8808  157.3621 H   0  0  0  0  0  0  0  0  0  0  0  0
  151.5998  142.5768  155.7545 H   0  0  0  0  0  0  0  0  0  0  0  0
  150.9394  141.0819  156.3758 H   0  0  0  0  0  0  0  0  0  0  0  0
  149.5922  142.9728  154.6112 H   0  0  0  0  0  0  0  0  0  0  0  0
  147.7131  142.5332  153.6603 H   0  0  0  0  0  0  0  0  0  0  0  0
  145.6629  140.6423  154.9189 H   0  0  0  0  0  0  0  0  0  0  0  0
  145.5518  143.6229  154.0073 H   0  0  0  0  0  0  0  0  0  0  0  0
  144.1391  142.5783  154.5502 H   0  0  0  0  0  0  0  0  0  0  0  0
  145.2570  142.2345  156.7756 H   0  0  0  0  0  0  0  0  0  0  0  0
  146.6676  143.2773  156.2246 H   0  0  0  0  0  0  0  0  0  0  0  0
  148.4573  138.7972  153.9210 H   0  0  0  0  0  0  0  0  0  0  0  0
  146.7559  139.0423  154.3212 H   0  0  0  0  0  0  0  0  0  0  0  0
  147.9012  137.7808  151.8713 H   0  0  0  0  0  0  0  0  0  0  0  0
  146.3314  137.5248  152.6232 H   0  0  0  0  0  0  0  0  0  0  0  0
  147.0552  139.3195  150.4256 H   0  0  0  0  0  0  0  0  0  0  0  0
  145.4318  139.0099  151.0295 H   0  0  0  0  0  0  0  0  0  0  0  0
  145.5243  140.8162  152.5336 H   0  0  0  0  0  0  0  0  0  0  0  0
  146.6542  141.4596  151.3409 H   0  0  0  0  0  0  0  0  0  0  0  0
  148.4266  140.6332  152.5598 H   0  0  0  0  0  0  0  0  0  0  0  0
  1  2  1  0  0  0  0
  1 21  1  0  0  0  0
  1 22  1  0  0  0  0
  1 23  1  0  0  0  0
  2  6  1  0  0  0  0
  2  3  1  0  0  0  0
  3  4  2  0  0  0  0
  3 24  1  0  0  0  0
  4  5  1  0  0  0  0
  4 25  1  0  0  0  0
  5  6  2  0  0  0  0
  6  7  1  0  0  0  0
  7  8  1  0  0  0  0
  7 26  1  0  0  0  0
  7 27  1  0  0  0  0
  8  9  1  0  0  0  0
  8 28  1  0  0  0  0
  8 29  1  0  0  0  0
  9 10  1  0  0  0  0
  9 30  1  0  0  0  0
 10 11  2  0  0  0  0
 10 12  1  0  0  0  0
 12 13  1  0  0  0  0
 12 16  1  0  0  0  0
 12 31  1  0  0  0  0
 13 15  1  0  0  0  0
 13 14  1  0  0  0  0
 13 32  1  0  0  0  0
 14 15  1  0  0  0  0
 14 33  1  0  0  0  0
 14 34  1  0  0  0  0
 15 35  1  0  0  0  0
 15 36  1  0  0  0  0
 16 20  1  0  0  0  0
 16 17  1  0  0  0  0
 16 45  1  0  0  0  0
 17 18  1  0  0  0  0
 17 37  1  0  0  0  0
 17 38  1  0  0  0  0
 18 19  1  0  0  0  0
 18 39  1  0  0  0  0
 18 40  1  0  0  0  0
 19 20  1  0  0  0  0
 19 41  1  0  0  0  0
 19 42  1  0  0  0  0
 20 43  1  0  0  0  0
 20 44  1  0  0  0  0
M  CHG  1  16   1
M  END
> <s_m_source_file>
AV-unprocessed.smi

> <i_m_source_file_index>
2252

> <i_lp_mmshare_version>
43012

> <i_f3d_flags>
0

> <s_epik_input>
W0NIM11uMVtjSF1bY0hdbmMxW0NIMl1bQ0gyXVtOSF1DKD1PKVtDQEhdKFtDSF0yW0NIMl1bQ0gyXTIpTjNbQ0gyXVtDSDJdW0NIMl1bQ0gyXTM=

> <s_epik_cmdline>
J2VwaWtfcHl0aG9uJywgJy1waCcsICc3LjAnLCAnLXRuJywgJzgnLCAnLW1hJywgJzIwMCcsICctbWV0YWxfYmluZGluZycsICctaW1hZScsICc8aW5maWxlLm1hZT4nLCAnLW9tYWUnLCAnPG91dGZpbGUubWFlPic=

> <r_lp_tautomer_probability>
1

> <r_epik_Ionization_Penalty>
1.07437

> <r_epik_Ionization_Penalty_Charging>
1.07435

> <r_epik_Ionization_Penalty_Neutral>
2.35578e-05

> <r_epik_State_Penalty>
1.18204

> <r_epik_Charging_Adjusted_Penalty>
2.25639

> <i_epik_Tot_Q>
1

> <i_epik_Tot_abs_Q>
1

> <r_epik_Metal_State_Penalty>
0.433434

> <b_epik_Metal_Only>
0

> <s_lp_Force_Field>
OPLS_2005

> <r_lp_Energy>
33.5931

> <b_lp_Chiralities_Consistent>
1

> <s_lp_Variant>
AV-unprocessed.smi:2252-3

> <Gold.Version>
5.8.1

> <Gold.Id.Protein>
6NUR|6NUR_protein|mol2

> <Gold.PLP.Fitness>
44.8483

> <Gold.PLP.PLP>
-43.0130

> <Gold.PLP.part.hbond>
-2.0000

> <Gold.PLP.part.metal>
0.0000

> <Gold.PLP.part.buried>
3.6368

> <Gold.PLP.part.nonpolar>
-44.4784

> <Gold.PLP.part.repulsive>
0.3251

> <Gold.PLP.ligand.clash>
0.0000

> <Gold.PLP.ligand.torsion>
1.0451

> <Gold.PLP.Chemscore.Hbond>
0.9280

> <Gold.PLP.Chemscore.CHOScore>
0.0000

> <Gold.PLP.Chemscore.Metal>
0.0000

> <Gold.Chemscore.Hbonds>
donor molecule, donor type, donor heavy atom, donor atom, acceptor molecule, acceptor atom, score
      L1  H     9    30       P1  8028  0.14
      L1  H    16    45       P1  7957  0.98

> <Gold.PLP.Chemscore.Internal.Correction>
1.1415

> <Gold.Rescore>
     Score         DG    S(hbond)    S(metal)    S(lipo)     H(rot)  DE(clash)    DE(int)     intcor
     12.14     -16.45       0.79        0.00     113.83       1.95       3.11       1.21       ----

> <Gold.Chemscore.Fitness>
12.1361

> <Gold.Chemscore.DG>
-16.4544

> <Gold.Chemscore.ZeroCoef>
-5.4800

> <Gold.Chemscore.Hbond>
0.7918

> <Gold.Chemscore.Metal>
0.0000

> <Gold.Chemscore.Lipo>
113.8289

> <Gold.Chemscore.Internal_Hbond>
0.0000

> <Gold.Chemscore.DEClash>
3.1064

> <Gold.Chemscore.DEInternal>
1.2119

> <Gold.Chemscore.Rot>
1.9485

> <Gold.Chemscore.Internal.Correction>
   9.000000E+99

> <Gold.Chemscore.Hbonds>
donor molecule, donor type, donor heavy atom, donor atom, acceptor molecule, acceptor atom, score
      L1  H     9    30       P1  8028  0.15
      L1  H    16    45       P1  7957  0.92

> <Gold.Chemscore.Hbond.Weighted>
-2.6445

> <Gold.Chemscore.Metal.Weighted>
-0.0000

> <Gold.Chemscore.Lipo.Weighted>
-13.3180

> <Gold.Chemscore.Internal_Hbond.Weighted>
0.0000

> <Gold.Chemscore.DEClash.Weighted>
3.1064

> <Gold.Chemscore.DEInternal.Weighted>
1.2119

> <Gold.Chemscore.Rot.Weighted>
4.9881

> <Gold.Chemscore.Internal.Correction.Weighted>
   9.000000E+99

> <Gold.Protein.RotatedTorsions>
[ 6907 6896 6895 6894 ] final  -45.30 input  -60.11 | X-H torsion
[ 7974 7965 7964 7962 ] final -172.76 input  175.53 | X-H torsion
[ 8008 7997 7996 7995 ] final -141.94 input   59.86 | X-H torsion
[ 10167 10162 10161 10158 ] final  -58.95 input  -65.29 | X-H torsion
[ 10718 10713 10712 10709 ] final -142.42 input   66.30 | X-H torsion
[ 10763 10752 10751 10750 ] final -119.99 input  -60.55 | X-H torsion
[ 11005 11000 10999 10996 ] final -170.22 input  -57.11 | X-H torsion

> <Gold.Protein.ActiveResidues>
 VAL166  LYS551  ARG553  GLY616  TRP617  ASP618  TYR619  PRO620  LYS621  CYS622 
 ASP623  PHE694  ASN695  SER759  ASP760  ASP761  ALA762  ILE779  LEU786  VAL792 
 PHE793  MET794  SER795  GLU796  ALA797  LYS798  CYS799  TRP800  GLU811  SER814 

> <Gold.Protein.RotatedAtoms>
  150.9235  134.8652  159.7504 H   0  0  0  0  0  0  0  0  0  0  0  0  # atno 6907 bound_to 6896
  152.5004  134.4184  159.9482 H   0  0  0  0  0  0  0  0  0  0  0  0  # atno 6908 bound_to 6896
  151.4216  133.3657  159.2792 H   0  0  0  0  0  0  0  0  0  0  0  0  # atno 6909 bound_to 6896
  144.7143  140.1723  143.6366 H   0  0  0  0  0  0  0  0  0  0  0  0  # atno 7974 bound_to 7965
  155.4860  140.0564  157.2960 H   0  0  0  0  0  0  0  0  0  0  0  0  # atno 8008 bound_to 7997
  154.4641  140.2010  156.0116 H   0  0  0  0  0  0  0  0  0  0  0  0  # atno 8009 bound_to 7997
  156.0944  140.3228  155.7862 H   0  0  0  0  0  0  0  0  0  0  0  0  # atno 8010 bound_to 7997
  140.6166  143.2404  151.5583 H   0  0  0  0  0  0  0  0  0  0  0  0  # atno 10167 bound_to 10162
  156.3457  130.7661  151.1805 H   0  0  0  0  0  0  0  0  0  0  0  0  # atno 10718 bound_to 10713
  154.8632  135.4219  154.2387 H   0  0  0  0  0  0  0  0  0  0  0  0  # atno 10763 bound_to 10752
  153.3357  135.6991  153.6915 H   0  0  0  0  0  0  0  0  0  0  0  0  # atno 10764 bound_to 10752
  153.5914  135.3554  155.2885 H   0  0  0  0  0  0  0  0  0  0  0  0  # atno 10765 bound_to 10752
  140.5219  134.5701  157.5050 H   0  0  0  0  0  0  0  0  0  0  0  0  # atno 11005 bound_to 11000
  145.8932  139.2388  143.1537 LP  0  0  0  0  0  0  0  0  0  0  0  0  # atno 17320 bound_to 7965
  145.9883  140.8624  143.0079 LP  0  0  0  0  0  0  0  0  0  0  0  0  # atno 17321 bound_to 7965
  139.5403  144.2665  152.1337 LP  0  0  0  0  0  0  0  0  0  0  0  0  # atno 17342 bound_to 10162
  140.1876  144.4783  150.6495 LP  0  0  0  0  0  0  0  0  0  0  0  0  # atno 17343 bound_to 10162
  157.7453  131.0442  150.4781 LP  0  0  0  0  0  0  0  0  0  0  0  0  # atno 17370 bound_to 10713
  156.4968  130.4108  149.6375 LP  0  0  0  0  0  0  0  0  0  0  0  0  # atno 17371 bound_to 10713
  139.9601  134.7467  156.0255 LP  0  0  0  0  0  0  0  0  0  0  0  0  # atno 17394 bound_to 11000
  141.1329  133.6582  156.3514 LP  0  0  0  0  0  0  0  0  0  0  0  0  # atno 17395 bound_to 11000

$$$$
