AV-unprocessed.smi:72|AV-procd|sdf|715|dock1
  -GOLD-   2262017 43D 1   1.00000     0.00000
 Structure written by MMmdl.
 28 29  0  0  0  0  0  0  0  0  2 V2000
  149.3453  135.2015  158.3461 N   0  0  0  0  0  0  0  0  0  0  0  0
  149.4681  136.1532  157.5287 C   0  0  0  0  0  0  0  0  0  0  0  0
  148.6080  137.3110  157.6261 N   0  0  0  0  0  0  0  0  0  0  0  0
  148.7282  138.2304  156.7185 C   0  0  0  0  0  0  0  0  0  0  0  0
  149.6586  138.0999  155.6001 N   0  0  0  0  0  0  0  0  0  0  0  0
  149.8092  139.1978  154.5523 C   0  0  2  0  0  0  0  0  0  0  0  0
  150.7016  140.1762  155.0161 O   0  0  0  0  0  0  0  0  0  0  0  0
  150.0239  141.3671  155.4159 C   0  0  2  0  0  0  0  0  0  0  0  0
  149.6059  141.2940  156.9030 C   0  0  0  0  0  0  0  0  0  0  0  0
  148.8476  142.4345  157.2458 O   0  0  0  0  0  0  0  0  0  0  0  0
  148.8645  141.4011  154.4155 C   0  0  2  0  0  0  0  0  0  0  0  0
  147.7724  142.1874  154.8503 O   0  0  0  0  0  0  0  0  0  0  0  0
  148.4796  139.9360  154.2611 C   0  0  1  0  0  0  0  0  0  0  0  0
  148.0292  139.7121  152.9399 O   0  0  0  0  0  0  0  0  0  0  0  0
  150.5715  137.0080  155.6064 C   0  0  0  0  0  0  0  0  0  0  0  0
  151.4557  136.9797  154.7509 O   0  0  0  0  0  0  0  0  0  0  0  0
  150.4434  136.0468  156.5632 N   0  5  0  0  0  0  0  0  0  0  0  0
  150.2389  138.6901  153.6872 H   0  0  0  0  0  0  0  0  0  0  0  0
  150.6702  142.2327  155.2647 H   0  0  0  0  0  0  0  0  0  0  0  0
  149.2358  141.7967  153.4682 H   0  0  0  0  0  0  0  0  0  0  0  0
  147.7206  139.6547  154.9931 H   0  0  0  0  0  0  0  0  0  0  0  0
  148.6080  135.3644  159.0164 H   0  0  0  0  0  0  0  0  0  0  0  0
  148.1400  139.1476  156.7417 H   0  0  0  0  0  0  0  0  0  0  0  0
  148.9590  140.4346  157.0770 H   0  0  0  0  0  0  0  0  0  0  0  0
  150.4572  141.1815  157.5726 H   0  0  0  0  0  0  0  0  0  0  0  0
  148.8852  143.0465  156.5268 H   0  0  0  0  0  0  0  0  0  0  0  0
  148.1113  143.0044  155.1839 H   0  0  0  0  0  0  0  0  0  0  0  0
  148.7744  139.7767  152.3610 H   0  0  0  0  0  0  0  0  0  0  0  0
  1  2  2  0  0  0  0
  1 22  1  0  0  0  0
  2 17  1  0  0  0  0
  2  3  1  0  0  0  0
  3  4  2  0  0  0  0
  4  5  1  0  0  0  0
  4 23  1  0  0  0  0
  5  6  1  0  0  0  0
  5 15  1  0  0  0  0
  6 18  1  0  0  0  0
  6 13  1  0  0  0  0
  6  7  1  0  0  0  0
  7  8  1  0  0  0  0
  8 19  1  0  0  0  0
  8  9  1  0  0  0  0
  8 11  1  0  0  0  0
  9 10  1  0  0  0  0
  9 24  1  0  0  0  0
  9 25  1  0  0  0  0
 10 26  1  0  0  0  0
 11 20  1  0  0  0  0
 11 12  1  0  0  0  0
 11 13  1  0  0  0  0
 12 27  1  0  0  0  0
 13 21  1  0  0  0  0
 13 14  1  0  0  0  0
 14 28  1  0  0  0  0
 15 16  2  0  0  0  0
 15 17  1  0  0  0  0
M  CHG  1  17  -1
M  END
> <s_m_source_file>
AV-unprocessed.smi

> <i_m_source_file_index>
72

> <i_lp_mmshare_version>
43012

> <i_f3d_flags>
0

> <s_epik_input>
W05IMl1jMW5bY0hdbihjKD1PKW4xKVtDQEBIXTJPW0NASF0oW0NIMl1bT0hdKVtDQEBIXShbT0hdKVtDQEhdMltPSF0=

> <s_epik_cmdline>
J2VwaWtfcHl0aG9uJywgJy1waCcsICc3LjAnLCAnLXRuJywgJzgnLCAnLW1hJywgJzIwMCcsICctbWV0YWxfYmluZGluZycsICctaW1hZScsICc8aW5maWxlLm1hZT4nLCAnLW9tYWUnLCAnPG91dGZpbGUubWFlPic=

> <r_lp_tautomer_probability>
7.17554e-07

> <r_epik_Ionization_Penalty>
12.8705

> <r_epik_Ionization_Penalty_Charging>
5.64144

> <r_epik_Ionization_Penalty_Neutral>
7.22905

> <r_epik_State_Penalty>
3.30104

> <r_epik_Charging_Adjusted_Penalty>
8.94249

> <i_epik_Tot_Q>
-1

> <i_epik_Tot_abs_Q>
1

> <r_epik_Metal_State_Penalty>
0.529074

> <b_epik_Metal_Only>
1

> <s_epik_Chemistry_Notes>
This compound contains an acetal/aminal-like group ( X-CH(R)-Y where X, Y are N, S, or O) that may be acid/base labile, releasing an aldehyde.

> <s_lp_Force_Field>
OPLS_2005

> <r_lp_Energy>
34.2271

> <b_lp_Chiralities_Consistent>
1

> <s_lp_Variant>
AV-unprocessed.smi:72-53

> <Gold.Version>
5.8.1

> <Gold.Id.Protein>
6NUR|6NUR_protein|mol2

> <Gold.PLP.Fitness>
39.1451

> <Gold.PLP.PLP>
-22.4713

> <Gold.PLP.part.hbond>
-5.7751

> <Gold.PLP.part.metal>
0.0000

> <Gold.PLP.part.buried>
-5.3271

> <Gold.PLP.part.nonpolar>
-12.6125

> <Gold.PLP.part.repulsive>
0.1784

> <Gold.PLP.ligand.clash>
0.0000

> <Gold.PLP.ligand.torsion>
0.7110

> <Gold.PLP.Chemscore.Hbond>
6.0000

> <Gold.PLP.Chemscore.CHOScore>
0.0000

> <Gold.PLP.Chemscore.Metal>
0.0000

> <Gold.Chemscore.Hbonds>
donor molecule, donor type, donor heavy atom, donor atom, acceptor molecule, acceptor atom, score
      L1  H    10    26       P1  8028  1.00
      L1  H    12    27       P1  8028  1.00
      L1  H    14    28       P1  7957  0.88
      P1  H  6896  6908       L1     1  0.90
      P1  H  7989  7998       L1     7  0.90
      P1  H 10752 10763       L1    16  1.00

> <Gold.PLP.Chemscore.Internal.Correction>
0.0960

> <Gold.Rescore>
     Score         DG    S(hbond)    S(metal)    S(lipo)     H(rot)  DE(clash)    DE(int)     intcor
     13.32     -14.11       4.75        0.00      26.66       4.04       0.08       0.71       ----

> <Gold.Chemscore.Fitness>
13.3152

> <Gold.Chemscore.DG>
-14.1057

> <Gold.Chemscore.ZeroCoef>
-5.4800

> <Gold.Chemscore.Hbond>
4.7454

> <Gold.Chemscore.Metal>
0.0000

> <Gold.Chemscore.Lipo>
26.6580

> <Gold.Chemscore.Internal_Hbond>
0.0000

> <Gold.Chemscore.DEClash>
0.0772

> <Gold.Chemscore.DEInternal>
0.7133

> <Gold.Chemscore.Rot>
4.0403

> <Gold.Chemscore.Internal.Correction>
   9.000000E+99

> <Gold.Chemscore.Hbonds>
donor molecule, donor type, donor heavy atom, donor atom, acceptor molecule, acceptor atom, score
      L1  H    10    26       P1  8028  0.96
      L1  H    12    27       P1  8028  0.94
      L1  H    14    28       P1  7957  0.85
      P1  H  6896  6908       L1     1  0.18
      P1  H  7989  7998       L1     7  0.12
      P1  H 10752 10763       L1    16  0.94

> <Gold.Chemscore.Hbond.Weighted>
-15.8498

> <Gold.Chemscore.Metal.Weighted>
-0.0000

> <Gold.Chemscore.Lipo.Weighted>
-3.1190

> <Gold.Chemscore.Internal_Hbond.Weighted>
0.0000

> <Gold.Chemscore.DEClash.Weighted>
0.0772

> <Gold.Chemscore.DEInternal.Weighted>
0.7133

> <Gold.Chemscore.Rot.Weighted>
10.3431

> <Gold.Chemscore.Internal.Correction.Weighted>
   9.000000E+99

> <Gold.Protein.RotatedTorsions>
[ 6907 6896 6895 6894 ] final  172.45 input  -60.11 | X-H torsion
[ 7974 7965 7964 7962 ] final   31.45 input  175.53 | X-H torsion
[ 8008 7997 7996 7995 ] final  165.82 input   59.86 | X-H torsion
[ 10167 10162 10161 10158 ] final  136.24 input  -65.29 | X-H torsion
[ 10718 10713 10712 10709 ] final   39.73 input   66.30 | X-H torsion
[ 10763 10752 10751 10750 ] final   51.79 input  -60.55 | X-H torsion
[ 11005 11000 10999 10996 ] final  -47.71 input  -57.11 | X-H torsion

> <Gold.Protein.ActiveResidues>
 VAL166  LYS551  ARG553  GLY616  TRP617  ASP618  TYR619  PRO620  LYS621  CYS622 
 ASP623  PHE694  ASN695  SER759  ASP760  ASP761  ALA762  ILE779  LEU786  VAL792 
 PHE793  MET794  SER795  GLU796  ALA797  LYS798  CYS799  TRP800  GLU811  SER814 

> <Gold.Protein.RotatedAtoms>
  151.7841  133.3352  159.3479 H   0  0  0  0  0  0  0  0  0  0  0  0  # atno 6907 bound_to 6896
  150.7415  134.5903  159.5993 H   0  0  0  0  0  0  0  0  0  0  0  0  # atno 6908 bound_to 6896
  152.3255  134.7327  160.0354 H   0  0  0  0  0  0  0  0  0  0  0  0  # atno 6909 bound_to 6896
  146.1549  139.6656  142.9073 H   0  0  0  0  0  0  0  0  0  0  0  0  # atno 7974 bound_to 7965
  156.1770  140.1660  156.8345 H   0  0  0  0  0  0  0  0  0  0  0  0  # atno 8008 bound_to 7997
  154.5317  140.0755  156.8390 H   0  0  0  0  0  0  0  0  0  0  0  0  # atno 8009 bound_to 7997
  155.3393  140.3383  155.4241 H   0  0  0  0  0  0  0  0  0  0  0  0  # atno 8010 bound_to 7997
  139.5187  144.6475  151.5398 H   0  0  0  0  0  0  0  0  0  0  0  0  # atno 10167 bound_to 10162
  157.3739  130.7716  149.7140 H   0  0  0  0  0  0  0  0  0  0  0  0  # atno 10718 bound_to 10713
  152.9786  135.5834  154.4472 H   0  0  0  0  0  0  0  0  0  0  0  0  # atno 10763 bound_to 10752
  154.4066  135.2769  155.2065 H   0  0  0  0  0  0  0  0  0  0  0  0  # atno 10764 bound_to 10752
  154.3873  135.6133  153.5878 H   0  0  0  0  0  0  0  0  0  0  0  0  # atno 10765 bound_to 10752
  141.0657  133.6694  156.3336 H   0  0  0  0  0  0  0  0  0  0  0  0  # atno 11005 bound_to 11000
  145.4732  141.0436  143.2687 LP  0  0  0  0  0  0  0  0  0  0  0  0  # atno 17320 bound_to 7965
  144.7951  139.6250  143.7096 LP  0  0  0  0  0  0  0  0  0  0  0  0  # atno 17321 bound_to 7965
  140.6266  143.9157  150.6569 LP  0  0  0  0  0  0  0  0  0  0  0  0  # atno 17342 bound_to 10162
  140.2448  143.3637  152.1456 LP  0  0  0  0  0  0  0  0  0  0  0  0  # atno 17343 bound_to 10162
  155.9761  130.4080  150.3801 LP  0  0  0  0  0  0  0  0  0  0  0  0  # atno 17370 bound_to 10713
  157.1896  131.0412  151.2707 LP  0  0  0  0  0  0  0  0  0  0  0  0  # atno 17371 bound_to 10713
  140.5778  134.5776  157.5472 LP  0  0  0  0  0  0  0  0  0  0  0  0  # atno 17394 bound_to 11000
  139.9474  134.7677  156.0529 LP  0  0  0  0  0  0  0  0  0  0  0  0  # atno 17395 bound_to 11000

$$$$
