AV-unprocessed.smi:40|AV-procd|sdf|371|dock3
  -GOLD-   2262016213D 1   1.00000     0.00000
 Structure written by MMmdl.
 47 48  0  0  0  0  0  0  0  0  1 V2000
  148.7470  126.6451  150.4881 C   0  0  0  0  0  0  0  0  0  0  0  0
  148.1568  127.8043  151.2986 C   0  0  0  0  0  0  0  0  0  0  0  0
  148.7518  127.8998  152.7108 C   0  0  0  0  0  0  0  0  0  0  0  0
  147.8877  128.7421  153.6585 C   0  0  0  0  0  0  0  0  0  0  0  0
  147.7326  130.1908  153.1718 C   0  0  0  0  0  0  0  0  0  0  0  0
  148.6276  131.0506  153.8639 O   0  0  0  0  0  0  0  0  0  0  0  0
  148.4412  132.3878  153.8711 C   0  0  0  0  0  0  0  0  0  0  0  0
  147.5603  132.9629  153.2323 O   0  0  0  0  0  0  0  0  0  0  0  0
  149.3860  133.0618  154.7473 N   0  0  0  0  0  0  0  0  0  0  0  0
  149.5212  134.3828  155.0226 C   0  0  0  0  0  0  0  0  0  0  0  0
  150.6510  135.0458  154.8357 N   0  0  0  0  0  0  0  0  0  0  0  0
  150.8068  136.3818  155.0869 C   0  0  0  0  0  0  0  0  0  0  0  0
  151.9044  136.9187  154.9456 O   0  0  0  0  0  0  0  0  0  0  0  0
  149.6695  137.1058  155.5213 N   0  0  0  0  0  0  0  0  0  0  0  0
  149.8293  138.5837  155.8427 C   0  0  2  0  0  0  0  0  0  0  0  0
  148.5911  139.1200  156.2214 O   0  0  0  0  0  0  0  0  0  0  0  0
  148.0396  139.9262  155.1837 C   0  0  2  0  0  0  0  0  0  0  0  0
  147.1421  139.0836  154.2553 C   0  0  0  0  0  0  0  0  0  0  0  0
  149.2853  140.5247  154.5272 C   0  0  2  0  0  0  0  0  0  0  0  0
  149.0590  140.9219  153.1885 O   0  0  0  0  0  0  0  0  0  0  0  0
  150.3109  139.4016  154.6180 C   0  0  1  0  0  0  0  0  0  0  0  0
  151.5949  139.9552  154.8253 O   0  0  0  0  0  0  0  0  0  0  0  0
  148.4842  136.4194  155.7557 C   0  0  0  0  0  0  0  0  0  0  0  0
  148.3615  135.0970  155.5100 C   0  0  0  0  0  0  0  0  0  0  0  0
  147.1936  134.4655  155.7213 F   0  0  0  0  0  0  0  0  0  0  0  0
  150.5128  138.6059  156.6936 H   0  0  0  0  0  0  0  0  0  0  0  0
  147.4311  140.7129  155.6310 H   0  0  0  0  0  0  0  0  0  0  0  0
  149.6100  141.3867  155.1130 H   0  0  0  0  0  0  0  0  0  0  0  0
  150.2904  138.7840  153.7183 H   0  0  0  0  0  0  0  0  0  0  0  0
  148.3061  126.6030  149.4918 H   0  0  0  0  0  0  0  0  0  0  0  0
  148.5596  125.6882  150.9758 H   0  0  0  0  0  0  0  0  0  0  0  0
  149.8252  126.7571  150.3703 H   0  0  0  0  0  0  0  0  0  0  0  0
  148.3298  128.7393  150.7645 H   0  0  0  0  0  0  0  0  0  0  0  0
  147.0750  127.6818  151.3643 H   0  0  0  0  0  0  0  0  0  0  0  0
  148.8687  126.8972  153.1242 H   0  0  0  0  0  0  0  0  0  0  0  0
  149.7528  128.3294  152.6545 H   0  0  0  0  0  0  0  0  0  0  0  0
  146.9012  128.2873  153.7545 H   0  0  0  0  0  0  0  0  0  0  0  0
  148.3307  128.7343  154.6550 H   0  0  0  0  0  0  0  0  0  0  0  0
  147.8802  130.2580  152.0929 H   0  0  0  0  0  0  0  0  0  0  0  0
  146.7168  130.5347  153.3677 H   0  0  0  0  0  0  0  0  0  0  0  0
  150.0398  132.4387  155.1992 H   0  0  0  0  0  0  0  0  0  0  0  0
  146.6721  139.7047  153.4924 H   0  0  0  0  0  0  0  0  0  0  0  0
  146.3405  138.6070  154.8196 H   0  0  0  0  0  0  0  0  0  0  0  0
  147.7033  138.3025  153.7427 H   0  0  0  0  0  0  0  0  0  0  0  0
  149.3087  140.2088  152.6205 H   0  0  0  0  0  0  0  0  0  0  0  0
  152.1195  139.3201  155.2902 H   0  0  0  0  0  0  0  0  0  0  0  0
  147.6140  136.9273  156.1419 H   0  0  0  0  0  0  0  0  0  0  0  0
  1  2  1  0  0  0  0
  1 30  1  0  0  0  0
  1 31  1  0  0  0  0
  1 32  1  0  0  0  0
  2  3  1  0  0  0  0
  2 33  1  0  0  0  0
  2 34  1  0  0  0  0
  3  4  1  0  0  0  0
  3 35  1  0  0  0  0
  3 36  1  0  0  0  0
  4  5  1  0  0  0  0
  4 37  1  0  0  0  0
  4 38  1  0  0  0  0
  5  6  1  0  0  0  0
  5 39  1  0  0  0  0
  5 40  1  0  0  0  0
  6  7  1  0  0  0  0
  7  8  2  0  0  0  0
  7  9  1  0  0  0  0
  9 10  1  0  0  0  0
  9 41  1  0  0  0  0
 10 24  1  0  0  0  0
 10 11  2  0  0  0  0
 11 12  1  0  0  0  0
 12 13  2  0  0  0  0
 12 14  1  0  0  0  0
 14 15  1  0  0  0  0
 14 23  1  0  0  0  0
 15 26  1  0  0  0  0
 15 21  1  0  0  0  0
 15 16  1  0  0  0  0
 16 17  1  0  0  0  0
 17 27  1  0  0  0  0
 17 18  1  0  0  0  0
 17 19  1  0  0  0  0
 18 42  1  0  0  0  0
 18 43  1  0  0  0  0
 18 44  1  0  0  0  0
 19 28  1  0  0  0  0
 19 20  1  0  0  0  0
 19 21  1  0  0  0  0
 20 45  1  0  0  0  0
 21 29  1  0  0  0  0
 21 22  1  0  0  0  0
 22 46  1  0  0  0  0
 23 24  2  0  0  0  0
 23 47  1  0  0  0  0
 24 25  1  0  0  0  0
M  END
> <s_m_source_file>
AV-unprocessed.smi

> <i_m_source_file_index>
40

> <i_lp_mmshare_version>
43012

> <i_f3d_flags>
0

> <s_epik_input>
W0NIM11bQ0gyXVtDSDJdW0NIMl1bQ0gyXU9DKD1PKVtOSF1jMW5jKD1PKW4oW2NIXWMxRilbQ0BASF0yT1tDQEhdKFtDSDNdKVtDQEBIXShbT0hdKVtDQEhdMltPSF0=

> <s_epik_cmdline>
J2VwaWtfcHl0aG9uJywgJy1waCcsICc3LjAnLCAnLXRuJywgJzgnLCAnLW1hJywgJzIwMCcsICctbWV0YWxfYmluZGluZycsICctaW1hZScsICc8aW5maWxlLm1hZT4nLCAnLW9tYWUnLCAnPG91dGZpbGUubWFlPic=

> <r_lp_tautomer_probability>
1

> <r_epik_Ionization_Penalty>
2.29506e-06

> <r_epik_Ionization_Penalty_Charging>
8.26867e-09

> <r_epik_Ionization_Penalty_Neutral>
2.2868e-06

> <r_epik_State_Penalty>
-0

> <r_epik_Charging_Adjusted_Penalty>
8.26867e-09

> <i_epik_Tot_Q>
0

> <i_epik_Tot_abs_Q>
0

> <r_epik_Metal_State_Penalty>
-0

> <b_epik_Metal_Only>
0

> <s_epik_Chemistry_Notes>
This compound has an ester and may undergo hydrolysis at high or low pH. This compound contains an acetal/aminal-like group ( X-CH(R)-Y where X, Y are N, S, or O) that may be acid/base labile, releasing an aldehyde.

> <s_lp_Force_Field>
OPLS_2005

> <r_lp_Energy>
32.726

> <b_lp_Chiralities_Consistent>
1

> <s_lp_Variant>
AV-unprocessed.smi:40-5

> <Gold.Version>
5.8.1

> <Gold.Id.Protein>
6NUR|6NUR_protein|mol2

> <Gold.PLP.Fitness>
43.2334

> <Gold.PLP.PLP>
-33.9563

> <Gold.PLP.part.hbond>
-4.3890

> <Gold.PLP.part.metal>
0.0000

> <Gold.PLP.part.buried>
-7.3057

> <Gold.PLP.part.nonpolar>
-24.4413

> <Gold.PLP.part.repulsive>
0.4620

> <Gold.PLP.ligand.clash>
0.0000

> <Gold.PLP.ligand.torsion>
1.0165

> <Gold.PLP.Chemscore.Hbond>
3.7296

> <Gold.PLP.Chemscore.CHOScore>
0.0000

> <Gold.PLP.Chemscore.Metal>
0.0000

> <Gold.Chemscore.Hbonds>
donor molecule, donor type, donor heavy atom, donor atom, acceptor molecule, acceptor atom, score
      L1  H    20    45       P1  7957  0.67
      P1  H  7989  7998       L1    22  0.90
      P1  H  8011  8017       L1    20  1.00
      P1  H 10752 10765       L1    13  1.00

> <Gold.PLP.Chemscore.Internal.Correction>
0.1215

> <Gold.Rescore>
     Score         DG    S(hbond)    S(metal)    S(lipo)     H(rot)  DE(clash)    DE(int)     intcor
     11.04     -13.31       2.97        0.00      63.00       3.70       0.14       2.13       ----

> <Gold.Chemscore.Fitness>
11.0410

> <Gold.Chemscore.DG>
-13.3136

> <Gold.Chemscore.ZeroCoef>
-5.4800

> <Gold.Chemscore.Hbond>
2.9710

> <Gold.Chemscore.Metal>
0.0000

> <Gold.Chemscore.Lipo>
63.0044

> <Gold.Chemscore.Internal_Hbond>
0.0000

> <Gold.Chemscore.DEClash>
0.1383

> <Gold.Chemscore.DEInternal>
2.1343

> <Gold.Chemscore.Rot>
3.6957

> <Gold.Chemscore.Internal.Correction>
   9.000000E+99

> <Gold.Chemscore.Hbonds>
donor molecule, donor type, donor heavy atom, donor atom, acceptor molecule, acceptor atom, score
      L1  H    20    45       P1  7957  0.64
      P1  H  7989  7998       L1    22  0.17
      P1  H  8011  8017       L1    20  0.35
      P1  H 10752 10765       L1    13  0.43

> <Gold.Chemscore.Hbond.Weighted>
-9.9230

> <Gold.Chemscore.Metal.Weighted>
-0.0000

> <Gold.Chemscore.Lipo.Weighted>
-7.3715

> <Gold.Chemscore.Internal_Hbond.Weighted>
0.0000

> <Gold.Chemscore.DEClash.Weighted>
0.1383

> <Gold.Chemscore.DEInternal.Weighted>
2.1343

> <Gold.Chemscore.Rot.Weighted>
9.4610

> <Gold.Chemscore.Internal.Correction.Weighted>
   9.000000E+99

> <Gold.Protein.RotatedTorsions>
[ 6907 6896 6895 6894 ] final  -76.55 input  -60.11 | X-H torsion
[ 7974 7965 7964 7962 ] final  -53.22 input  175.53 | X-H torsion
[ 8008 7997 7996 7995 ] final  -30.37 input   59.86 | X-H torsion
[ 10167 10162 10161 10158 ] final -138.70 input  -65.29 | X-H torsion
[ 10718 10713 10712 10709 ] final  119.63 input   66.30 | X-H torsion
[ 10763 10752 10751 10750 ] final  170.68 input  -60.55 | X-H torsion
[ 11005 11000 10999 10996 ] final    1.85 input  -57.11 | X-H torsion

> <Gold.Protein.ActiveResidues>
 VAL166  LYS551  ARG553  GLY616  TRP617  ASP618  TYR619  PRO620  LYS621  CYS622 
 ASP623  PHE694  ASN695  SER759  ASP760  ASP761  ALA762  ILE779  LEU786  VAL792 
 PHE793  MET794  SER795  GLU796  ALA797  LYS798  CYS799  TRP800  GLU811  SER814 

> <Gold.Protein.RotatedAtoms>
  150.7024  134.4555  159.5355 H   0  0  0  0  0  0  0  0  0  0  0  0  # atno 6907 bound_to 6896
  152.2239  134.8384  160.0491 H   0  0  0  0  0  0  0  0  0  0  0  0  # atno 6908 bound_to 6896
  151.9224  133.3554  159.3938 H   0  0  0  0  0  0  0  0  0  0  0  0  # atno 6909 bound_to 6896
  145.8993  140.8007  142.9751 H   0  0  0  0  0  0  0  0  0  0  0  0  # atno 7974 bound_to 7965
  154.4253  140.1793  156.1396 H   0  0  0  0  0  0  0  0  0  0  0  0  # atno 8008 bound_to 7997
  156.0002  140.3360  155.6813 H   0  0  0  0  0  0  0  0  0  0  0  0  # atno 8009 bound_to 7997
  155.6253  140.0664  157.2656 H   0  0  0  0  0  0  0  0  0  0  0  0  # atno 8010 bound_to 7997
  139.8452  143.7270  152.2661 H   0  0  0  0  0  0  0  0  0  0  0  0  # atno 10167 bound_to 10162
  157.5948  131.1059  150.7923 H   0  0  0  0  0  0  0  0  0  0  0  0  # atno 10718 bound_to 10713
  154.4010  135.2755  155.2096 H   0  0  0  0  0  0  0  0  0  0  0  0  # atno 10763 bound_to 10752
  154.4122  135.6020  153.5963 H   0  0  0  0  0  0  0  0  0  0  0  0  # atno 10764 bound_to 10752
  152.9831  135.5952  154.4278 H   0  0  0  0  0  0  0  0  0  0  0  0  # atno 10765 bound_to 10752
  140.6108  133.9750  155.8176 H   0  0  0  0  0  0  0  0  0  0  0  0  # atno 11005 bound_to 11000
  144.6735  140.1652  143.7419 LP  0  0  0  0  0  0  0  0  0  0  0  0  # atno 17320 bound_to 7965
  145.8811  139.2323  143.1605 LP  0  0  0  0  0  0  0  0  0  0  0  0  # atno 17321 bound_to 7965
  139.7520  144.7531  151.0493 LP  0  0  0  0  0  0  0  0  0  0  0  0  # atno 17342 bound_to 10162
  140.7794  143.4849  150.9968 LP  0  0  0  0  0  0  0  0  0  0  0  0  # atno 17343 bound_to 10162
  156.8337  130.5024  149.5328 LP  0  0  0  0  0  0  0  0  0  0  0  0  # atno 17370 bound_to 10713
  156.1008  130.5968  150.9891 LP  0  0  0  0  0  0  0  0  0  0  0  0  # atno 17371 bound_to 10713
  141.0809  134.0064  157.3387 LP  0  0  0  0  0  0  0  0  0  0  0  0  # atno 17394 bound_to 11000
  139.9193  135.0199  156.8002 LP  0  0  0  0  0  0  0  0  0  0  0  0  # atno 17395 bound_to 11000

$$$$
