AV-unprocessed.smi:445|AV-procd|sdf|2589|dock10
  -GOLD-   2262022583D 1   1.00000     0.00000
 Structure written by MMmdl.
 44 45  0  0  0  0  0  0  0  0  3 V2000
  151.1271  141.4682  156.7754 C   0  0  0  0  0  0  0  0  0  0  0  0
  151.2233  142.2740  158.0836 C   0  0  2  0  0  0  0  0  0  0  0  0
  151.3181  143.7838  157.7827 C   0  0  0  0  0  0  0  0  0  0  0  0
  151.4058  144.6196  159.0682 C   0  0  0  0  0  0  0  0  0  0  0  0
  152.5898  144.1725  159.9359 C   0  0  0  0  0  0  0  0  0  0  0  0
  152.5013  142.6738  160.2575 C   0  0  0  0  0  0  0  0  0  0  0  0
  152.4058  141.8195  158.9755 C   0  0  1  0  0  0  0  0  0  0  0  0
  152.2618  140.4095  159.3313 N   0  0  0  0  0  0  0  0  0  0  0  0
  153.1224  139.4330  159.0066 C   0  0  0  0  0  0  0  0  0  0  0  0
  154.1622  139.6304  158.3766 O   0  0  0  0  0  0  0  0  0  0  0  0
  152.7533  138.0241  159.4921 C   0  0  0  0  0  0  0  0  0  0  0  0
  151.5646  137.4722  158.8171 N   0  0  0  0  0  0  0  0  0  0  0  0
  150.4371  137.2385  159.6242 C   0  0  0  0  0  0  0  0  0  0  0  0
  149.2941  136.7315  159.1303 C   0  0  0  0  0  0  0  0  0  0  0  0
  148.1493  136.4936  159.9834 N   0  3  0  0  0  0  0  0  0  0  0  0
  148.1499  136.9650  161.1161 O   0  0  0  0  0  0  0  0  0  0  0  0
  147.2125  135.8281  159.5519 O   0  5  0  0  0  0  0  0  0  0  0  0
  149.2449  136.4264  157.7153 C   0  0  0  0  0  0  0  0  0  0  0  0
  150.3228  136.6385  156.9176 C   0  0  0  0  0  0  0  0  0  0  0  0
  150.3167  136.3416  155.4673 C   0  0  0  0  0  0  0  0  0  0  0  0
  149.1151  136.0114  154.9771 N   0  0  0  0  0  0  0  0  0  0  0  0
  151.2804  136.3709  154.7019 O   0  0  0  0  0  0  0  0  0  0  0  0
  151.5863  137.1928  157.4761 C   0  0  0  0  0  0  0  0  0  0  0  0
  152.6117  137.4055  156.8230 O   0  0  0  0  0  0  0  0  0  0  0  0
  152.0392  141.5634  156.1853 H   0  0  0  0  0  0  0  0  0  0  0  0
  150.2967  141.8168  156.1610 H   0  0  0  0  0  0  0  0  0  0  0  0
  150.9635  140.4072  156.9649 H   0  0  0  0  0  0  0  0  0  0  0  0
  150.2981  142.1076  158.6381 H   0  0  0  0  0  0  0  0  0  0  0  0
  152.1941  143.9812  157.1629 H   0  0  0  0  0  0  0  0  0  0  0  0
  150.4524  144.1032  157.2015 H   0  0  0  0  0  0  0  0  0  0  0  0
  151.5061  145.6763  158.8186 H   0  0  0  0  0  0  0  0  0  0  0  0
  150.4784  144.5214  159.6341 H   0  0  0  0  0  0  0  0  0  0  0  0
  153.5255  144.3810  159.4156 H   0  0  0  0  0  0  0  0  0  0  0  0
  152.6133  144.7506  160.8602 H   0  0  0  0  0  0  0  0  0  0  0  0
  153.3723  142.3778  160.8437 H   0  0  0  0  0  0  0  0  0  0  0  0
  151.6299  142.4916  160.8883 H   0  0  0  0  0  0  0  0  0  0  0  0
  153.3268  141.9485  158.4031 H   0  0  0  0  0  0  0  0  0  0  0  0
  151.4362  140.1568  159.8549 H   0  0  0  0  0  0  0  0  0  0  0  0
  153.6182  137.3773  159.3382 H   0  0  0  0  0  0  0  0  0  0  0  0
  152.6035  138.0380  160.5735 H   0  0  0  0  0  0  0  0  0  0  0  0
  150.5718  137.4902  160.6664 H   0  0  0  0  0  0  0  0  0  0  0  0
  148.3252  136.0259  157.3165 H   0  0  0  0  0  0  0  0  0  0  0  0
  149.0099  135.7922  153.9972 H   0  0  0  0  0  0  0  0  0  0  0  0
  148.3153  135.9838  155.5931 H   0  0  0  0  0  0  0  0  0  0  0  0
  1  2  1  0  0  0  0
  1 25  1  0  0  0  0
  1 26  1  0  0  0  0
  1 27  1  0  0  0  0
  2  7  1  0  0  0  0
  2  3  1  0  0  0  0
  2 28  1  0  0  0  0
  3  4  1  0  0  0  0
  3 29  1  0  0  0  0
  3 30  1  0  0  0  0
  4  5  1  0  0  0  0
  4 31  1  0  0  0  0
  4 32  1  0  0  0  0
  5  6  1  0  0  0  0
  5 33  1  0  0  0  0
  5 34  1  0  0  0  0
  6  7  1  0  0  0  0
  6 35  1  0  0  0  0
  6 36  1  0  0  0  0
  7  8  1  0  0  0  0
  7 37  1  0  0  0  0
  8  9  1  0  0  0  0
  8 38  1  0  0  0  0
  9 10  2  0  0  0  0
  9 11  1  0  0  0  0
 11 12  1  0  0  0  0
 11 39  1  0  0  0  0
 11 40  1  0  0  0  0
 12 23  1  0  0  0  0
 12 13  1  0  0  0  0
 13 14  2  0  0  0  0
 13 41  1  0  0  0  0
 14 15  1  0  0  0  0
 14 18  1  0  0  0  0
 15 16  2  0  0  0  0
 15 17  1  0  0  0  0
 18 19  2  0  0  0  0
 18 42  1  0  0  0  0
 19 20  1  0  0  0  0
 19 23  1  0  0  0  0
 20 21  1  0  0  0  0
 20 22  2  0  0  0  0
 21 43  1  0  0  0  0
 21 44  1  0  0  0  0
 23 24  2  0  0  0  0
M  CHG  1  15   1
M  CHG  1  17  -1
M  END
> <s_m_source_file>
AV-unprocessed.smi

> <i_m_source_file_index>
445

> <i_lp_mmshare_version>
43012

> <i_f3d_flags>
0

> <s_epik_input>
W0NIM11bQ0BASF0xW0NIMl1bQ0gyXVtDSDJdW0NIMl1bQ0BIXTFbTkhdQyg9TylbQ0gyXW4yW2NIXWMoW04rXSg9TylbTy1dKVtjSF1jKGMyPU8pQyg9TylbTkgyXQ==

> <s_epik_cmdline>
J2VwaWtfcHl0aG9uJywgJy1waCcsICc3LjAnLCAnLXRuJywgJzgnLCAnLW1hJywgJzIwMCcsICctbWV0YWxfYmluZGluZycsICctaW1hZScsICc8aW5maWxlLm1hZT4nLCAnLW9tYWUnLCAnPG91dGZpbGUubWFlPic=

> <r_lp_tautomer_probability>
1

> <r_epik_Ionization_Penalty>
2.81321e-06

> <r_epik_Ionization_Penalty_Charging>
2.43777e-12

> <r_epik_Ionization_Penalty_Neutral>
2.81321e-06

> <r_epik_State_Penalty>
-0

> <r_epik_Charging_Adjusted_Penalty>
2.43777e-12

> <i_epik_Tot_Q>
0

> <i_epik_Tot_abs_Q>
2

> <r_epik_Metal_State_Penalty>
-0

> <b_epik_Metal_Only>
0

> <s_lp_Force_Field>
OPLS_2005

> <r_lp_Energy>
28.5082

> <b_lp_Chiralities_Consistent>
1

> <s_lp_Variant>
AV-unprocessed.smi:445-1

> <Gold.Version>
5.8.1

> <Gold.Id.Protein>
6NUR|6NUR_protein|mol2

> <Gold.PLP.Fitness>
52.7898

> <Gold.PLP.PLP>
-38.8369

> <Gold.PLP.part.hbond>
-5.0000

> <Gold.PLP.part.metal>
0.0000

> <Gold.PLP.part.buried>
-5.2837

> <Gold.PLP.part.nonpolar>
-29.2035

> <Gold.PLP.part.repulsive>
0.3255

> <Gold.PLP.ligand.clash>
0.0000

> <Gold.PLP.ligand.torsion>
0.1801

> <Gold.PLP.Chemscore.Hbond>
4.7600

> <Gold.PLP.Chemscore.CHOScore>
0.0000

> <Gold.PLP.Chemscore.Metal>
0.0000

> <Gold.Chemscore.Hbonds>
donor molecule, donor type, donor heavy atom, donor atom, acceptor molecule, acceptor atom, score
      L1  H    21    43       P1  7948  0.68
      P1  H  6931  6943       L1    16  1.00
      P1  H  6934  6947       L1    16  0.27
      P1  H  7997  8010       L1    10  0.71
      P1  H 10752 10765       L1    22  1.00

> <Gold.PLP.Chemscore.Internal.Correction>
0.0330

> <Gold.Rescore>
     Score         DG    S(hbond)    S(metal)    S(lipo)     H(rot)  DE(clash)    DE(int)     intcor
     25.00     -26.92       4.64        0.00      88.39       1.71       0.05       1.87       ----

> <Gold.Chemscore.Fitness>
25.0033

> <Gold.Chemscore.DG>
-26.9203

> <Gold.Chemscore.ZeroCoef>
-5.4800

> <Gold.Chemscore.Hbond>
4.6354

> <Gold.Chemscore.Metal>
0.0000

> <Gold.Chemscore.Lipo>
88.3908

> <Gold.Chemscore.Internal_Hbond>
0.0000

> <Gold.Chemscore.DEClash>
0.0489

> <Gold.Chemscore.DEInternal>
1.8681

> <Gold.Chemscore.Rot>
1.7123

> <Gold.Chemscore.Internal.Correction>
   9.000000E+99

> <Gold.Chemscore.Hbonds>
donor molecule, donor type, donor heavy atom, donor atom, acceptor molecule, acceptor atom, score
      L1  H    21    43       P1  7948  0.61
      P1  H  6931  6943       L1    16  0.99
      P1  H  6934  6947       L1    16  0.15
      P1  H  7997  8010       L1    10  0.70
      P1  H 10752 10765       L1    22  1.00

> <Gold.Chemscore.Hbond.Weighted>
-15.4821

> <Gold.Chemscore.Metal.Weighted>
-0.0000

> <Gold.Chemscore.Lipo.Weighted>
-10.3417

> <Gold.Chemscore.Internal_Hbond.Weighted>
0.0000

> <Gold.Chemscore.DEClash.Weighted>
0.0489

> <Gold.Chemscore.DEInternal.Weighted>
1.8681

> <Gold.Chemscore.Rot.Weighted>
4.3835

> <Gold.Chemscore.Internal.Correction.Weighted>
   9.000000E+99

> <Gold.Protein.RotatedTorsions>
[ 6907 6896 6895 6894 ] final   99.10 input  -60.11 | X-H torsion
[ 7974 7965 7964 7962 ] final -145.47 input  175.53 | X-H torsion
[ 8008 7997 7996 7995 ] final    4.98 input   59.86 | X-H torsion
[ 10167 10162 10161 10158 ] final -132.82 input  -65.29 | X-H torsion
[ 10718 10713 10712 10709 ] final   84.62 input   66.30 | X-H torsion
[ 10763 10752 10751 10750 ] final  165.00 input  -60.55 | X-H torsion
[ 11005 11000 10999 10996 ] final  102.17 input  -57.11 | X-H torsion

> <Gold.Protein.ActiveResidues>
 VAL166  LYS551  ARG553  GLY616  TRP617  ASP618  TYR619  PRO620  LYS621  CYS622 
 ASP623  PHE694  ASN695  SER759  ASP760  ASP761  ALA762  ILE779  LEU786  VAL792 
 PHE793  MET794  SER795  GLU796  ALA797  LYS798  CYS799  TRP800  GLU811  SER814 

> <Gold.Protein.RotatedAtoms>
  152.5398  134.0479  159.8096 H   0  0  0  0  0  0  0  0  0  0  0  0  # atno 6907 bound_to 6896
  151.0625  133.5525  159.2640 H   0  0  0  0  0  0  0  0  0  0  0  0  # atno 6908 bound_to 6896
  151.2418  135.0599  159.9082 H   0  0  0  0  0  0  0  0  0  0  0  0  # atno 6909 bound_to 6896
  144.8225  140.5579  143.5569 H   0  0  0  0  0  0  0  0  0  0  0  0  # atno 7974 bound_to 7965
  154.7226  140.2715  155.6527 H   0  0  0  0  0  0  0  0  0  0  0  0  # atno 8008 bound_to 7997
  156.2828  140.2731  156.1827 H   0  0  0  0  0  0  0  0  0  0  0  0  # atno 8009 bound_to 7997
  155.0486  140.0371  157.2525 H   0  0  0  0  0  0  0  0  0  0  0  0  # atno 8010 bound_to 7997
  139.9047  143.6566  152.2588 H   0  0  0  0  0  0  0  0  0  0  0  0  # atno 10167 bound_to 10162
  157.6901  131.0141  150.2700 H   0  0  0  0  0  0  0  0  0  0  0  0  # atno 10718 bound_to 10713
  154.3174  135.2756  155.2536 H   0  0  0  0  0  0  0  0  0  0  0  0  # atno 10763 bound_to 10752
  154.4905  135.5835  153.6459 H   0  0  0  0  0  0  0  0  0  0  0  0  # atno 10764 bound_to 10752
  152.9880  135.6133  154.3356 H   0  0  0  0  0  0  0  0  0  0  0  0  # atno 10765 bound_to 10752
  139.8776  134.9213  156.5017 H   0  0  0  0  0  0  0  0  0  0  0  0  # atno 11005 bound_to 11000
  145.5073  139.1480  143.3624 LP  0  0  0  0  0  0  0  0  0  0  0  0  # atno 17320 bound_to 7965
  146.2530  140.5214  142.8885 LP  0  0  0  0  0  0  0  0  0  0  0  0  # atno 17321 bound_to 7965
  139.6995  144.7637  151.1298 LP  0  0  0  0  0  0  0  0  0  0  0  0  # atno 17342 bound_to 10162
  140.7699  143.5478  150.9239 LP  0  0  0  0  0  0  0  0  0  0  0  0  # atno 17343 bound_to 10162
  156.3265  130.3794  149.7529 LP  0  0  0  0  0  0  0  0  0  0  0  0  # atno 17370 bound_to 10713
  156.5082  130.8160  151.3159 LP  0  0  0  0  0  0  0  0  0  0  0  0  # atno 17371 bound_to 10713
  140.8584  133.8078  155.9240 LP  0  0  0  0  0  0  0  0  0  0  0  0  # atno 17394 bound_to 11000
  140.9074  134.2303  157.5006 LP  0  0  0  0  0  0  0  0  0  0  0  0  # atno 17395 bound_to 11000

$$$$
