AV-unprocessed.smi:3002|AV-procd|sdf|11434|dock5
  -GOLD-   2272016363D 1   1.00000     0.00000
 Structure written by MMmdl.
 34 35  0  0  0  0  0  0  0  0  1 V2000
  149.2589  141.7132  157.0877 C   0  0  0  0  0  0  0  0  0  0  0  0
  150.5077  141.3094  157.8974 C   0  0  1  0  0  0  0  0  0  0  0  0
  151.5058  140.4877  157.0669 C   0  0  0  0  0  0  0  0  0  0  0  0
  152.5991  140.1685  157.5351 O   0  0  0  0  0  0  0  0  0  0  0  0
  151.1150  140.1514  155.8274 N   0  0  0  0  0  0  0  0  0  0  0  0
  151.9075  139.3744  154.8801 C   0  0  0  0  0  0  0  0  0  0  0  0
  151.8564  137.8605  155.1699 C   0  0  2  0  0  0  0  0  0  0  0  0
  150.5481  137.1871  154.7040 C   0  0  0  0  0  0  0  0  0  0  0  0
  150.4856  135.7774  155.2994 C   0  0  0  0  0  0  0  0  0  0  0  0
  151.2720  135.9059  156.9477 S   0  0  0  0  0  0  0  0  0  0  0  0
  150.2306  136.0434  157.9769 O   0  0  0  0  0  0  0  0  0  0  0  0
  152.3194  134.8799  157.0619 O   0  0  0  0  0  0  0  0  0  0  0  0
  152.0430  137.5454  156.6631 C   0  0  0  0  0  0  0  0  0  0  0  0
  151.1755  142.4595  158.4949 N   0  0  0  0  0  0  0  0  0  0  0  0
  150.8642  143.7564  158.4379 C   0  0  0  0  0  0  0  0  0  0  0  0
  151.6708  144.5365  159.1436 N   0  0  0  0  0  0  0  0  0  0  0  0
  152.5111  143.5897  159.6573 C   0  0  0  0  0  0  0  0  0  0  0  0
  152.2527  142.3294  159.3095 N   0  0  0  0  0  0  0  0  0  0  0  0
  148.7461  140.8352  156.6936 H   0  0  0  0  0  0  0  0  0  0  0  0
  149.5061  142.3573  156.2428 H   0  0  0  0  0  0  0  0  0  0  0  0
  148.5479  142.2518  157.7149 H   0  0  0  0  0  0  0  0  0  0  0  0
  150.1653  140.6776  158.7188 H   0  0  0  0  0  0  0  0  0  0  0  0
  150.2017  140.4515  155.5194 H   0  0  0  0  0  0  0  0  0  0  0  0
  151.5664  139.5762  153.8632 H   0  0  0  0  0  0  0  0  0  0  0  0
  152.9369  139.7298  154.9338 H   0  0  0  0  0  0  0  0  0  0  0  0
  152.6755  137.3745  154.6376 H   0  0  0  0  0  0  0  0  0  0  0  0
  149.6977  137.7634  155.0707 H   0  0  0  0  0  0  0  0  0  0  0  0
  150.4690  137.1585  153.6168 H   0  0  0  0  0  0  0  0  0  0  0  0
  149.4695  135.3936  155.3924 H   0  0  0  0  0  0  0  0  0  0  0  0
  151.0703  135.0789  154.7003 H   0  0  0  0  0  0  0  0  0  0  0  0
  153.0910  137.5242  156.9624 H   0  0  0  0  0  0  0  0  0  0  0  0
  151.5201  138.2695  157.2885 H   0  0  0  0  0  0  0  0  0  0  0  0
  150.0279  144.1379  157.8708 H   0  0  0  0  0  0  0  0  0  0  0  0
  153.3339  143.8362  160.3123 H   0  0  0  0  0  0  0  0  0  0  0  0
  1  2  1  0  0  0  0
  1 19  1  0  0  0  0
  1 20  1  0  0  0  0
  1 21  1  0  0  0  0
  2  3  1  0  0  0  0
  2 14  1  0  0  0  0
  2 22  1  0  0  0  0
  3  4  2  0  0  0  0
  3  5  1  0  0  0  0
  5  6  1  0  0  0  0
  5 23  1  0  0  0  0
  6  7  1  0  0  0  0
  6 24  1  0  0  0  0
  6 25  1  0  0  0  0
  7 13  1  0  0  0  0
  7  8  1  0  0  0  0
  7 26  1  0  0  0  0
  8  9  1  0  0  0  0
  8 27  1  0  0  0  0
  8 28  1  0  0  0  0
  9 10  1  0  0  0  0
  9 29  1  0  0  0  0
  9 30  1  0  0  0  0
 10 11  2  0  0  0  0
 10 12  2  0  0  0  0
 10 13  1  0  0  0  0
 13 31  1  0  0  0  0
 13 32  1  0  0  0  0
 14 18  1  0  0  0  0
 14 15  1  0  0  0  0
 15 16  2  0  0  0  0
 15 33  1  0  0  0  0
 16 17  1  0  0  0  0
 17 18  2  0  0  0  0
 17 34  1  0  0  0  0
M  END
> <s_m_source_file>
AV-unprocessed.smi

> <i_m_source_file_index>
3002

> <i_lp_mmshare_version>
43012

> <i_f3d_flags>
0

> <s_epik_input>
bjFbY0hdbltjSF1uMVtDQEhdKFtDSDNdKUMoPU8pW05IXVtDSDJdW0NAQEhdKFtDSDJdMilbQ0gyXVtDSDJdUzIoPU8pPU8=

> <s_epik_cmdline>
J2VwaWtfcHl0aG9uJywgJy1waCcsICc3LjAnLCAnLXRuJywgJzgnLCAnLW1hJywgJzIwMCcsICctbWV0YWxfYmluZGluZycsICctaW1hZScsICc8aW5maWxlLm1hZT4nLCAnLW9tYWUnLCAnPG91dGZpbGUubWFlPic=

> <r_lp_tautomer_probability>
1

> <r_epik_Ionization_Penalty>
1.1748e-05

> <r_epik_Ionization_Penalty_Charging>
0

> <r_epik_Ionization_Penalty_Neutral>
1.1748e-05

> <r_epik_State_Penalty>
-0

> <r_epik_Charging_Adjusted_Penalty>
0

> <i_epik_Tot_Q>
0

> <i_epik_Tot_abs_Q>
0

> <r_epik_Metal_State_Penalty>
-0

> <b_epik_Metal_Only>
0

> <s_lp_Force_Field>
OPLS_2005

> <r_lp_Energy>
11.4636

> <b_lp_Chiralities_Consistent>
1

> <s_lp_Variant>
AV-unprocessed.smi:3002-2

> <Gold.Version>
5.8.1

> <Gold.Id.Protein>
6NUR|6NUR_protein|mol2

> <Gold.PLP.Fitness>
37.9734

> <Gold.PLP.PLP>
-27.6730

> <Gold.PLP.part.hbond>
-3.7452

> <Gold.PLP.part.metal>
0.0000

> <Gold.PLP.part.buried>
-3.2821

> <Gold.PLP.part.nonpolar>
-21.3132

> <Gold.PLP.part.repulsive>
0.2024

> <Gold.PLP.ligand.clash>
0.5917

> <Gold.PLP.ligand.torsion>
0.4340

> <Gold.PLP.Chemscore.Hbond>
2.7440

> <Gold.PLP.Chemscore.CHOScore>
1.1417

> <Gold.PLP.Chemscore.Metal>
0.0000

> <Gold.Chemscore.Hbonds>
donor molecule, donor type, donor heavy atom, donor atom, acceptor molecule, acceptor atom, score
      P1  H  6896  6907       L1    11  0.58
      P1  H  7997  8010       L1     4  1.00
      P1  H 10752 10764       L1    12  0.68
      L1  C    15    33       P1  8028  1.00
      L1  C    15    33       P1  8029  0.07

> <Gold.PLP.Chemscore.Internal.Correction>
0.1029

> <Gold.Rescore>
     Score         DG    S(hbond)    S(metal)    S(lipo)     H(rot)  DE(clash)    DE(int)     intcor
      8.54     -11.65       2.48        0.00      34.36       2.39       0.09       3.01       ----

> <Gold.Chemscore.Fitness>
8.5402

> <Gold.Chemscore.DG>
-11.6471

> <Gold.Chemscore.ZeroCoef>
-5.4800

> <Gold.Chemscore.Hbond>
2.4784

> <Gold.Chemscore.Metal>
0.0000

> <Gold.Chemscore.Lipo>
34.3551

> <Gold.Chemscore.Internal_Hbond>
0.0000

> <Gold.Chemscore.DEClash>
0.0931

> <Gold.Chemscore.DEInternal>
3.0139

> <Gold.Chemscore.Rot>
2.3946

> <Gold.Chemscore.Internal.Correction>
   9.000000E+99

> <Gold.Chemscore.Hbonds>
donor molecule, donor type, donor heavy atom, donor atom, acceptor molecule, acceptor atom, score
      P1  H  6896  6907       L1    11  0.34
      P1  H  7997  8010       L1     4  0.94
      P1  H 10752 10764       L1    12  0.19

> <Gold.Chemscore.Hbond.Weighted>
-8.2777

> <Gold.Chemscore.Metal.Weighted>
-0.0000

> <Gold.Chemscore.Lipo.Weighted>
-4.0195

> <Gold.Chemscore.Internal_Hbond.Weighted>
0.0000

> <Gold.Chemscore.DEClash.Weighted>
0.0931

> <Gold.Chemscore.DEInternal.Weighted>
3.0139

> <Gold.Chemscore.Rot.Weighted>
6.1301

> <Gold.Chemscore.Internal.Correction.Weighted>
   9.000000E+99

> <Gold.Protein.RotatedTorsions>
[ 6907 6896 6895 6894 ] final  -54.42 input  -60.11 | X-H torsion
[ 7974 7965 7964 7962 ] final   35.95 input  175.53 | X-H torsion
[ 8008 7997 7996 7995 ] final   52.19 input   59.86 | X-H torsion
[ 10167 10162 10161 10158 ] final  -61.14 input  -65.29 | X-H torsion
[ 10718 10713 10712 10709 ] final  169.17 input   66.30 | X-H torsion
[ 10763 10752 10751 10750 ] final    0.34 input  -60.55 | X-H torsion
[ 11005 11000 10999 10996 ] final  105.03 input  -57.11 | X-H torsion

> <Gold.Protein.ActiveResidues>
 VAL166  LYS551  ARG553  GLY616  TRP617  ASP618  TYR619  PRO620  LYS621  CYS622 
 ASP623  PHE694  ASN695  SER759  ASP760  ASP761  ALA762  ILE779  LEU786  VAL792 
 PHE793  MET794  SER795  GLU796  ALA797  LYS798  CYS799  TRP800  GLU811  SER814 

> <Gold.Protein.RotatedAtoms>
  150.8339  134.7604  159.6876 H   0  0  0  0  0  0  0  0  0  0  0  0  # atno 6907 bound_to 6896
  152.4439  134.5531  159.9882 H   0  0  0  0  0  0  0  0  0  0  0  0  # atno 6908 bound_to 6896
  151.5686  133.3355  159.3021 H   0  0  0  0  0  0  0  0  0  0  0  0  # atno 6909 bound_to 6896
  146.1246  139.6078  142.9267 H   0  0  0  0  0  0  0  0  0  0  0  0  # atno 7974 bound_to 7965
  155.4478  140.3457  155.4297 H   0  0  0  0  0  0  0  0  0  0  0  0  # atno 8008 bound_to 7997
  156.1239  140.1495  156.9194 H   0  0  0  0  0  0  0  0  0  0  0  0  # atno 8009 bound_to 7997
  154.4844  140.0860  156.7431 H   0  0  0  0  0  0  0  0  0  0  0  0  # atno 8010 bound_to 7997
  140.6026  143.2365  151.5895 H   0  0  0  0  0  0  0  0  0  0  0  0  # atno 10167 bound_to 10162
  157.0265  131.0247  151.2758 H   0  0  0  0  0  0  0  0  0  0  0  0  # atno 10718 bound_to 10713
  153.3219  135.6969  153.7023 H   0  0  0  0  0  0  0  0  0  0  0  0  # atno 10763 bound_to 10752
  153.5860  135.3489  155.2893 H   0  0  0  0  0  0  0  0  0  0  0  0  # atno 10764 bound_to 10752
  154.8599  135.4306  154.2385 H   0  0  0  0  0  0  0  0  0  0  0  0  # atno 10765 bound_to 10752
  139.8798  134.9321  156.5451 H   0  0  0  0  0  0  0  0  0  0  0  0  # atno 11005 bound_to 11000
  145.5393  141.0422  143.2340 LP  0  0  0  0  0  0  0  0  0  0  0  0  # atno 17320 bound_to 7965
  144.7630  139.6912  143.7226 LP  0  0  0  0  0  0  0  0  0  0  0  0  # atno 17321 bound_to 7965
  139.5301  144.2940  152.1129 LP  0  0  0  0  0  0  0  0  0  0  0  0  # atno 17342 bound_to 10162
  140.2124  144.4550  150.6380 LP  0  0  0  0  0  0  0  0  0  0  0  0  # atno 17343 bound_to 10162
  157.5210  130.7998  149.7809 LP  0  0  0  0  0  0  0  0  0  0  0  0  # atno 17370 bound_to 10713
  156.0084  130.3844  150.2349 LP  0  0  0  0  0  0  0  0  0  0  0  0  # atno 17371 bound_to 10713
  140.8281  133.8300  155.8958 LP  0  0  0  0  0  0  0  0  0  0  0  0  # atno 17394 bound_to 11000
  140.9354  134.1968  157.4835 LP  0  0  0  0  0  0  0  0  0  0  0  0  # atno 17395 bound_to 11000

$$$$
