AV-unprocessed.smi:861|AV-procd|sdf|3973|dock6
  -GOLD-   22720 1453D 1   1.00000     0.00000
 Structure written by MMmdl.
 45 46  0  0  0  0  0  0  0  0  3 V2000
  145.8599  142.1762  155.6796 C   0  0  0  0  0  0  0  0  0  0  0  0
  146.5159  142.5791  154.3480 C   0  0  0  0  0  0  0  0  0  0  0  0
  145.6401  143.6039  153.6110 C   0  0  0  0  0  0  0  0  0  0  0  0
  146.8162  141.3683  153.4403 C   0  0  0  0  0  0  0  0  0  0  0  0
  147.4554  140.1752  154.1767 C   0  0  0  0  0  0  0  0  0  0  0  0
  148.9046  140.0365  153.8706 N   0  3  2  0  0  0  0  0  0  0  0  0
  149.4496  138.6878  154.1613 C   0  0  0  0  0  0  0  0  0  0  0  0
  149.6982  138.5014  155.6684 C   0  0  0  0  0  0  0  0  0  0  0  0
  150.5715  139.5242  156.1323 O   0  0  0  0  0  0  0  0  0  0  0  0
  150.0187  140.8276  155.9772 C   0  0  1  0  0  0  0  0  0  0  0  0
  151.0128  141.8443  156.5664 C   0  0  0  0  0  0  0  0  0  0  0  0
  150.3512  143.0147  157.1286 N   0  0  0  0  0  0  0  0  0  0  0  0
  150.8539  143.6797  158.2566 C   0  0  0  0  0  0  0  0  0  0  0  0
  152.0248  143.3002  158.9545 C   0  0  0  0  0  0  0  0  0  0  0  0
  152.4137  144.0627  160.0691 C   0  0  0  0  0  0  0  0  0  0  0  0
  151.6075  145.1592  160.4220 C   0  0  0  0  0  0  0  0  0  0  0  0
  150.4911  145.5051  159.7433 N   0  0  0  0  0  0  0  0  0  0  0  0
  150.1454  144.7559  158.6814 N   0  3  0  0  0  0  0  0  0  0  0  0
  149.7703  141.0835  154.4735 C   0  0  0  0  0  0  0  0  0  0  0  0
  144.9310  141.6294  155.5150 H   0  0  0  0  0  0  0  0  0  0  0  0
  145.6232  143.0557  156.2793 H   0  0  0  0  0  0  0  0  0  0  0  0
  146.5163  141.5492  156.2820 H   0  0  0  0  0  0  0  0  0  0  0  0
  147.4617  143.0716  154.5782 H   0  0  0  0  0  0  0  0  0  0  0  0
  144.6712  143.1790  153.3457 H   0  0  0  0  0  0  0  0  0  0  0  0
  146.1170  143.9445  152.6915 H   0  0  0  0  0  0  0  0  0  0  0  0
  145.4588  144.4838  154.2289 H   0  0  0  0  0  0  0  0  0  0  0  0
  145.8991  141.0435  152.9467 H   0  0  0  0  0  0  0  0  0  0  0  0
  147.4816  141.7010  152.6445 H   0  0  0  0  0  0  0  0  0  0  0  0
  147.2921  140.2544  155.2511 H   0  0  0  0  0  0  0  0  0  0  0  0
  146.9454  139.2662  153.8586 H   0  0  0  0  0  0  0  0  0  0  0  0
  148.7892  137.9101  153.7756 H   0  0  0  0  0  0  0  0  0  0  0  0
  150.3937  138.5773  153.6261 H   0  0  0  0  0  0  0  0  0  0  0  0
  148.7630  138.5167  156.2302 H   0  0  0  0  0  0  0  0  0  0  0  0
  150.1631  137.5329  155.8536 H   0  0  0  0  0  0  0  0  0  0  0  0
  149.0771  140.8899  156.5237 H   0  0  0  0  0  0  0  0  0  0  0  0
  151.5981  141.3712  157.3554 H   0  0  0  0  0  0  0  0  0  0  0  0
  151.7313  142.1616  155.8105 H   0  0  0  0  0  0  0  0  0  0  0  0
  149.5974  143.4346  156.6027 H   0  0  0  0  0  0  0  0  0  0  0  0
  152.6208  142.4508  158.6568 H   0  0  0  0  0  0  0  0  0  0  0  0
  153.2987  143.8159  160.6370 H   0  0  0  0  0  0  0  0  0  0  0  0
  151.8631  145.7761  161.2710 H   0  0  0  0  0  0  0  0  0  0  0  0
  150.7243  141.0739  153.9440 H   0  0  0  0  0  0  0  0  0  0  0  0
  149.3502  142.0764  154.3184 H   0  0  0  0  0  0  0  0  0  0  0  0
  148.9706  140.1462  152.8683 H   0  0  0  0  0  0  0  0  0  0  0  0
  149.3029  145.0116  158.1658 H   0  0  0  0  0  0  0  0  0  0  0  0
  1  2  1  0  0  0  0
  1 20  1  0  0  0  0
  1 21  1  0  0  0  0
  1 22  1  0  0  0  0
  2  3  1  0  0  0  0
  2  4  1  0  0  0  0
  2 23  1  0  0  0  0
  3 24  1  0  0  0  0
  3 25  1  0  0  0  0
  3 26  1  0  0  0  0
  4  5  1  0  0  0  0
  4 27  1  0  0  0  0
  4 28  1  0  0  0  0
  5  6  1  0  0  0  0
  5 29  1  0  0  0  0
  5 30  1  0  0  0  0
  6 19  1  0  0  0  0
  6  7  1  0  0  0  0
  6 44  1  0  0  0  0
  7  8  1  0  0  0  0
  7 31  1  0  0  0  0
  7 32  1  0  0  0  0
  8  9  1  0  0  0  0
  8 33  1  0  0  0  0
  8 34  1  0  0  0  0
  9 10  1  0  0  0  0
 10 11  1  0  0  0  0
 10 19  1  0  0  0  0
 10 35  1  0  0  0  0
 11 12  1  0  0  0  0
 11 36  1  0  0  0  0
 11 37  1  0  0  0  0
 12 13  1  0  0  0  0
 12 38  1  0  0  0  0
 13 18  1  0  0  0  0
 13 14  2  0  0  0  0
 14 15  1  0  0  0  0
 14 39  1  0  0  0  0
 15 16  2  0  0  0  0
 15 40  1  0  0  0  0
 16 17  1  0  0  0  0
 16 41  1  0  0  0  0
 17 18  2  0  0  0  0
 18 45  1  0  0  0  0
 19 42  1  0  0  0  0
 19 43  1  0  0  0  0
M  CHG  1   6   1
M  CHG  1  18   1
M  END
> <s_m_source_file>
AV-unprocessed.smi

> <i_m_source_file_index>
861

> <i_lp_mmshare_version>
43012

> <i_f3d_flags>
0

> <s_epik_input>
W0NIM11bQ0hdKFtDSDNdKVtDSDJdW0NIMl1OMVtDSDJdW0NIMl1PW0NASF0oW0NIMl0xKVtDSDJdW05IXWMyW2NIXVtjSF1bY0hdbm4y

> <s_epik_cmdline>
J2VwaWtfcHl0aG9uJywgJy1waCcsICc3LjAnLCAnLXRuJywgJzgnLCAnLW1hJywgJzIwMCcsICctbWV0YWxfYmluZGluZycsICctaW1hZScsICc8aW5maWxlLm1hZT4nLCAnLW9tYWUnLCAnPG91dGZpbGUubWFlPic=

> <r_lp_tautomer_probability>
0.966961

> <r_epik_Ionization_Penalty>
2.478

> <r_epik_Ionization_Penalty_Charging>
2.47799

> <r_epik_Ionization_Penalty_Neutral>
3.15286e-06

> <r_epik_State_Penalty>
2.10794

> <r_epik_Charging_Adjusted_Penalty>
4.58594

> <i_epik_Tot_Q>
2

> <i_epik_Tot_abs_Q>
2

> <r_epik_Metal_State_Penalty>
2.11378

> <b_epik_Metal_Only>
0

> <s_lp_Force_Field>
OPLS_2005

> <r_lp_Energy>
36.5784

> <b_lp_Chiralities_Consistent>
1

> <s_lp_Variant>
AV-unprocessed.smi:861-8

> <Gold.Version>
5.8.1

> <Gold.Id.Protein>
6NUR|6NUR_protein|mol2

> <Gold.PLP.Fitness>
52.5309

> <Gold.PLP.PLP>
-39.7405

> <Gold.PLP.part.hbond>
-4.6230

> <Gold.PLP.part.metal>
0.0000

> <Gold.PLP.part.buried>
-3.8002

> <Gold.PLP.part.nonpolar>
-32.1165

> <Gold.PLP.part.repulsive>
0.5366

> <Gold.PLP.ligand.clash>
0.0000

> <Gold.PLP.ligand.torsion>
1.1217

> <Gold.PLP.Chemscore.Hbond>
5.0000

> <Gold.PLP.Chemscore.CHOScore>
0.0000

> <Gold.PLP.Chemscore.Metal>
0.0000

> <Gold.Chemscore.Hbonds>
donor molecule, donor type, donor heavy atom, donor atom, acceptor molecule, acceptor atom, score
      L1  H     6    44       P1  7957  1.00
      L1  H    12    38       P1  8028  2.00
      L1  H    18    45       P1  8029  2.00

> <Gold.PLP.Chemscore.Internal.Correction>
0.0338

> <Gold.Rescore>
     Score         DG    S(hbond)    S(metal)    S(lipo)     H(rot)  DE(clash)    DE(int)     intcor
     17.28     -20.12       2.30        0.00      98.37       1.78       1.74       1.10       ----

> <Gold.Chemscore.Fitness>
17.2772

> <Gold.Chemscore.DG>
-20.1232

> <Gold.Chemscore.ZeroCoef>
-5.4800

> <Gold.Chemscore.Hbond>
2.2996

> <Gold.Chemscore.Metal>
0.0000

> <Gold.Chemscore.Lipo>
98.3660

> <Gold.Chemscore.Internal_Hbond>
0.0000

> <Gold.Chemscore.DEClash>
1.7439

> <Gold.Chemscore.DEInternal>
1.1020

> <Gold.Chemscore.Rot>
1.7759

> <Gold.Chemscore.Internal.Correction>
   9.000000E+99

> <Gold.Chemscore.Hbonds>
donor molecule, donor type, donor heavy atom, donor atom, acceptor molecule, acceptor atom, score
      L1  H     6    44       P1  7957  1.00
      L1  H    12    38       P1  8028  0.97
      L1  H    18    45       P1  8029  0.40

> <Gold.Chemscore.Hbond.Weighted>
-7.6805

> <Gold.Chemscore.Metal.Weighted>
-0.0000

> <Gold.Chemscore.Lipo.Weighted>
-11.5088

> <Gold.Chemscore.Internal_Hbond.Weighted>
0.0000

> <Gold.Chemscore.DEClash.Weighted>
1.7439

> <Gold.Chemscore.DEInternal.Weighted>
1.1020

> <Gold.Chemscore.Rot.Weighted>
4.5462

> <Gold.Chemscore.Internal.Correction.Weighted>
   9.000000E+99

> <Gold.Protein.RotatedTorsions>
[ 6907 6896 6895 6894 ] final  138.22 input  -60.11 | X-H torsion
[ 7974 7965 7964 7962 ] final  -15.65 input  175.53 | X-H torsion
[ 8008 7997 7996 7995 ] final    7.98 input   59.86 | X-H torsion
[ 10167 10162 10161 10158 ] final  -83.47 input  -65.29 | X-H torsion
[ 10718 10713 10712 10709 ] final   17.00 input   66.30 | X-H torsion
[ 10763 10752 10751 10750 ] final -126.96 input  -60.55 | X-H torsion
[ 11005 11000 10999 10996 ] final   77.02 input  -57.11 | X-H torsion

> <Gold.Protein.ActiveResidues>
 VAL166  LYS551  ARG553  GLY616  TRP617  ASP618  TYR619  PRO620  LYS621  CYS622 
 ASP623  PHE694  ASN695  SER759  ASP760  ASP761  ALA762  ILE779  LEU786  VAL792 
 PHE793  MET794  SER795  GLU796  ALA797  LYS798  CYS799  TRP800  GLU811  SER814 

> <Gold.Protein.RotatedAtoms>
  152.2691  133.5366  159.5427 H   0  0  0  0  0  0  0  0  0  0  0  0  # atno 6907 bound_to 6896
  150.7152  134.0723  159.3878 H   0  0  0  0  0  0  0  0  0  0  0  0  # atno 6908 bound_to 6896
  151.8639  135.0514  160.0523 H   0  0  0  0  0  0  0  0  0  0  0  0  # atno 6909 bound_to 6896
  146.2023  140.3523  142.8419 H   0  0  0  0  0  0  0  0  0  0  0  0  # atno 7974 bound_to 7965
  154.7608  140.2784  155.6215 H   0  0  0  0  0  0  0  0  0  0  0  0  # atno 8008 bound_to 7997
  156.2915  140.2660  156.2313 H   0  0  0  0  0  0  0  0  0  0  0  0  # atno 8009 bound_to 7997
  155.0019  140.0372  157.2353 H   0  0  0  0  0  0  0  0  0  0  0  0  # atno 8010 bound_to 7997
  140.4223  143.2580  151.8873 H   0  0  0  0  0  0  0  0  0  0  0  0  # atno 10167 bound_to 10162
  157.0759  130.6367  149.5816 H   0  0  0  0  0  0  0  0  0  0  0  0  # atno 10718 bound_to 10713
  154.8749  135.3978  154.3515 H   0  0  0  0  0  0  0  0  0  0  0  0  # atno 10763 bound_to 10752
  153.4300  135.7025  153.6242 H   0  0  0  0  0  0  0  0  0  0  0  0  # atno 10764 bound_to 10752
  153.4868  135.3757  155.2440 H   0  0  0  0  0  0  0  0  0  0  0  0  # atno 10765 bound_to 10752
  139.9272  134.7649  156.1469 H   0  0  0  0  0  0  0  0  0  0  0  0  # atno 11005 bound_to 11000
  144.8711  140.7273  143.6046 LP  0  0  0  0  0  0  0  0  0  0  0  0  # atno 17320 bound_to 7965
  145.3442  139.1723  143.4469 LP  0  0  0  0  0  0  0  0  0  0  0  0  # atno 17321 bound_to 7965
  139.4783  144.5424  151.8509 LP  0  0  0  0  0  0  0  0  0  0  0  0  # atno 17342 bound_to 10162
  140.4519  144.1843  150.5898 LP  0  0  0  0  0  0  0  0  0  0  0  0  # atno 17343 bound_to 10162
  155.9937  130.4999  150.7391 LP  0  0  0  0  0  0  0  0  0  0  0  0  # atno 17370 bound_to 10713
  157.4840  131.0905  151.0504 LP  0  0  0  0  0  0  0  0  0  0  0  0  # atno 17371 bound_to 10713
  141.0838  133.6743  156.2393 LP  0  0  0  0  0  0  0  0  0  0  0  0  # atno 17394 bound_to 11000
  140.6302  134.5272  157.5558 LP  0  0  0  0  0  0  0  0  0  0  0  0  # atno 17395 bound_to 11000

$$$$
