AV-unprocessed.smi:1881|AV-procd|sdf|7639|dock2
  -GOLD-   22720 9363D 1   1.00000     0.00000
 Structure written by MMmdl.
 50 51  0  0  0  0  0  0  0  0  1 V2000
  152.2494  141.4232  159.0536 C   0  0  0  0  0  0  0  0  0  0  0  0
  151.2955  141.4693  157.8376 C   0  0  0  0  0  0  0  0  0  0  0  0
  149.8735  141.2012  158.4011 C   0  0  0  0  0  0  0  0  0  0  0  0
  151.2307  142.8743  157.1864 C   0  0  0  0  0  0  0  0  0  0  0  0
  151.6555  140.3530  156.8029 C   0  0  0  0  0  0  0  0  0  0  0  0
  152.6176  139.6265  157.0633 O   0  0  0  0  0  0  0  0  0  0  0  0
  150.9533  140.1571  155.6504 N   0  0  0  0  0  0  0  0  0  0  0  0
  151.2463  139.0320  154.7459 C   0  0  0  0  0  0  0  0  0  0  0  0
  150.0901  138.0176  154.8205 C   0  0  0  0  0  0  0  0  0  0  0  0
  148.7443  138.6823  154.4495 C   0  0  0  0  0  0  0  0  0  0  0  0
  147.5692  137.7180  154.6594 C   0  0  0  0  0  0  0  0  0  0  0  0
  146.7343  137.9363  155.5379 O   0  0  0  0  0  0  0  0  0  0  0  0
  147.5164  136.6544  153.8429 N   0  0  0  0  0  0  0  0  0  0  0  0
  146.4839  135.6252  153.8696 C   0  0  0  0  0  0  0  0  0  0  0  0
  145.4108  135.8723  152.7967 C   0  0  0  0  0  0  0  0  0  0  0  0
  145.1998  134.6624  151.9061 C   0  0  0  0  0  0  0  0  0  0  0  0
  146.1098  133.5840  151.9288 C   0  0  0  0  0  0  0  0  0  0  0  0
  145.8654  132.4815  151.0872 C   0  0  0  0  0  0  0  0  0  0  0  0
  144.7259  132.4992  150.2599 C   0  0  0  0  0  0  0  0  0  0  0  0
  143.8774  133.6231  150.3126 C   0  0  0  0  0  0  0  0  0  0  0  0
  144.1025  134.6852  151.1160 N   0  0  0  0  0  0  0  0  0  0  0  0
  148.5403  139.9885  155.2503 C   0  0  0  0  0  0  0  0  0  0  0  0
  149.7822  140.8936  155.1556 C   0  0  0  0  0  0  0  0  0  0  0  0
  151.9429  142.1414  159.8148 H   0  0  0  0  0  0  0  0  0  0  0  0
  153.2842  141.6501  158.8118 H   0  0  0  0  0  0  0  0  0  0  0  0
  152.2428  140.4375  159.5211 H   0  0  0  0  0  0  0  0  0  0  0  0
  149.8086  140.2374  158.9088 H   0  0  0  0  0  0  0  0  0  0  0  0
  149.1171  141.2143  157.6144 H   0  0  0  0  0  0  0  0  0  0  0  0
  149.5844  141.9567  159.1330 H   0  0  0  0  0  0  0  0  0  0  0  0
  150.5714  143.5404  157.7439 H   0  0  0  0  0  0  0  0  0  0  0  0
  150.8424  142.8297  156.1680 H   0  0  0  0  0  0  0  0  0  0  0  0
  152.1906  143.3841  157.1588 H   0  0  0  0  0  0  0  0  0  0  0  0
  151.3551  139.4015  153.7251 H   0  0  0  0  0  0  0  0  0  0  0  0
  152.1874  138.5272  154.9664 H   0  0  0  0  0  0  0  0  0  0  0  0
  150.2909  137.1815  154.1497 H   0  0  0  0  0  0  0  0  0  0  0  0
  150.0465  137.6018  155.8284 H   0  0  0  0  0  0  0  0  0  0  0  0
  148.7889  138.9472  153.3914 H   0  0  0  0  0  0  0  0  0  0  0  0
  148.2444  136.5515  153.1509 H   0  0  0  0  0  0  0  0  0  0  0  0
  146.9321  134.6382  153.7427 H   0  0  0  0  0  0  0  0  0  0  0  0
  146.0284  135.6332  154.8603 H   0  0  0  0  0  0  0  0  0  0  0  0
  144.4623  136.1335  153.2685 H   0  0  0  0  0  0  0  0  0  0  0  0
  145.6887  136.7259  152.1767 H   0  0  0  0  0  0  0  0  0  0  0  0
  146.9746  133.5994  152.5761 H   0  0  0  0  0  0  0  0  0  0  0  0
  146.5393  131.6377  151.0770 H   0  0  0  0  0  0  0  0  0  0  0  0
  144.5070  131.6716  149.6013 H   0  0  0  0  0  0  0  0  0  0  0  0
  142.9942  133.6698  149.6929 H   0  0  0  0  0  0  0  0  0  0  0  0
  147.6677  140.5237  154.8741 H   0  0  0  0  0  0  0  0  0  0  0  0
  148.3350  139.7639  156.2979 H   0  0  0  0  0  0  0  0  0  0  0  0
  149.5953  141.8331  155.6581 H   0  0  0  0  0  0  0  0  0  0  0  0
  149.9516  141.1742  154.1150 H   0  0  0  0  0  0  0  0  0  0  0  0
  1  2  1  0  0  0  0
  1 24  1  0  0  0  0
  1 25  1  0  0  0  0
  1 26  1  0  0  0  0
  2  3  1  0  0  0  0
  2  4  1  0  0  0  0
  2  5  1  0  0  0  0
  3 27  1  0  0  0  0
  3 28  1  0  0  0  0
  3 29  1  0  0  0  0
  4 30  1  0  0  0  0
  4 31  1  0  0  0  0
  4 32  1  0  0  0  0
  5  6  2  0  0  0  0
  5  7  1  0  0  0  0
  7 23  1  0  0  0  0
  7  8  1  0  0  0  0
  8  9  1  0  0  0  0
  8 33  1  0  0  0  0
  8 34  1  0  0  0  0
  9 10  1  0  0  0  0
  9 35  1  0  0  0  0
  9 36  1  0  0  0  0
 10 11  1  0  0  0  0
 10 22  1  0  0  0  0
 10 37  1  0  0  0  0
 11 12  2  0  0  0  0
 11 13  1  0  0  0  0
 13 14  1  0  0  0  0
 13 38  1  0  0  0  0
 14 15  1  0  0  0  0
 14 39  1  0  0  0  0
 14 40  1  0  0  0  0
 15 16  1  0  0  0  0
 15 41  1  0  0  0  0
 15 42  1  0  0  0  0
 16 21  1  0  0  0  0
 16 17  2  0  0  0  0
 17 18  1  0  0  0  0
 17 43  1  0  0  0  0
 18 19  2  0  0  0  0
 18 44  1  0  0  0  0
 19 20  1  0  0  0  0
 19 45  1  0  0  0  0
 20 21  2  0  0  0  0
 20 46  1  0  0  0  0
 22 23  1  0  0  0  0
 22 47  1  0  0  0  0
 22 48  1  0  0  0  0
 23 49  1  0  0  0  0
 23 50  1  0  0  0  0
M  END
> <s_m_source_file>
AV-unprocessed.smi

> <i_m_source_file_index>
1881

> <i_lp_mmshare_version>
43012

> <i_f3d_flags>
0

> <s_epik_input>
W0NIM11DKFtDSDNdKShbQ0gzXSlDKD1PKU4xW0NIMl1bQ0gyXVtDSF0oW0NIMl1bQ0gyXTEpQyg9TylbTkhdW0NIMl1bQ0gyXWMyW2NIXVtjSF1bY0hdW2NIXW4y

> <s_epik_cmdline>
J2VwaWtfcHl0aG9uJywgJy1waCcsICc3LjAnLCAnLXRuJywgJzgnLCAnLW1hJywgJzIwMCcsICctbWV0YWxfYmluZGluZycsICctaW1hZScsICc8aW5maWxlLm1hZT4nLCAnLW9tYWUnLCAnPG91dGZpbGUubWFlPic=

> <r_epik_Ionization_Penalty>
0.0268423

> <r_epik_Ionization_Penalty_Charging>
0

> <r_epik_Ionization_Penalty_Neutral>
0.0268423

> <r_epik_State_Penalty>
0.0219354

> <r_epik_Charging_Adjusted_Penalty>
0.0219354

> <i_epik_Tot_Q>
0

> <i_epik_Tot_abs_Q>
0

> <r_epik_Metal_State_Penalty>
0.0209813

> <b_epik_Metal_Only>
0

> <s_lp_Force_Field>
OPLS_2005

> <r_lp_Energy>
36.1076

> <b_lp_Chiralities_Consistent>
1

> <s_lp_Variant>
AV-unprocessed.smi:1881-1

> <Gold.Version>
5.8.1

> <Gold.Id.Protein>
6NUR|6NUR_protein|mol2

> <Gold.PLP.Fitness>
44.1833

> <Gold.PLP.PLP>
-36.8879

> <Gold.PLP.part.hbond>
-1.8193

> <Gold.PLP.part.metal>
0.0000

> <Gold.PLP.part.buried>
-4.1862

> <Gold.PLP.part.nonpolar>
-30.3301

> <Gold.PLP.part.repulsive>
0.1674

> <Gold.PLP.ligand.clash>
0.0000

> <Gold.PLP.ligand.torsion>
0.8724

> <Gold.PLP.Chemscore.Hbond>
1.9750

> <Gold.PLP.Chemscore.CHOScore>
1.0000

> <Gold.PLP.Chemscore.Metal>
0.0000

> <Gold.Chemscore.Hbonds>
donor molecule, donor type, donor heavy atom, donor atom, acceptor molecule, acceptor atom, score
      L1  H    13    38       P1  7948  0.94
      P1  H  7997  8008       L1     6  1.00
      L1  C    20    46       P1 10186  1.00

> <Gold.PLP.Chemscore.Internal.Correction>
0.1151

> <Gold.Rescore>
     Score         DG    S(hbond)    S(metal)    S(lipo)     H(rot)  DE(clash)    DE(int)     intcor
     18.39     -19.39       1.96        0.00      96.95       1.55       0.19       0.80       ----

> <Gold.Chemscore.Fitness>
18.3932

> <Gold.Chemscore.DG>
-19.3883

> <Gold.Chemscore.ZeroCoef>
-5.4800

> <Gold.Chemscore.Hbond>
1.9564

> <Gold.Chemscore.Metal>
0.0000

> <Gold.Chemscore.Lipo>
96.9454

> <Gold.Chemscore.Internal_Hbond>
0.0000

> <Gold.Chemscore.DEClash>
0.1906

> <Gold.Chemscore.DEInternal>
0.8045

> <Gold.Chemscore.Rot>
1.5503

> <Gold.Chemscore.Internal.Correction>
   9.000000E+99

> <Gold.Chemscore.Hbonds>
donor molecule, donor type, donor heavy atom, donor atom, acceptor molecule, acceptor atom, score
      L1  H    13    38       P1  7948  0.90
      P1  H  7997  8008       L1     6  0.89

> <Gold.Chemscore.Hbond.Weighted>
-6.5344

> <Gold.Chemscore.Metal.Weighted>
-0.0000

> <Gold.Chemscore.Lipo.Weighted>
-11.3426

> <Gold.Chemscore.Internal_Hbond.Weighted>
0.0000

> <Gold.Chemscore.DEClash.Weighted>
0.1906

> <Gold.Chemscore.DEInternal.Weighted>
0.8045

> <Gold.Chemscore.Rot.Weighted>
3.9687

> <Gold.Chemscore.Internal.Correction.Weighted>
   9.000000E+99

> <Gold.Protein.RotatedTorsions>
[ 6907 6896 6895 6894 ] final -158.91 input  -60.11 | X-H torsion
[ 7974 7965 7964 7962 ] final  179.21 input  175.53 | X-H torsion
[ 8008 7997 7996 7995 ] final  -40.96 input   59.86 | X-H torsion
[ 10167 10162 10161 10158 ] final   89.28 input  -65.29 | X-H torsion
[ 10718 10713 10712 10709 ] final   77.91 input   66.30 | X-H torsion
[ 10763 10752 10751 10750 ] final -174.87 input  -60.55 | X-H torsion
[ 11005 11000 10999 10996 ] final   27.88 input  -57.11 | X-H torsion

> <Gold.Protein.ActiveResidues>
 VAL166  LYS551  ARG553  GLY616  TRP617  ASP618  TYR619  PRO620  LYS621  CYS622 
 ASP623  PHE694  ASN695  SER759  ASP760  ASP761  ALA762  ILE779  LEU786  VAL792 
 PHE793  MET794  SER795  GLU796  ALA797  LYS798  CYS799  TRP800  GLU811  SER814 

> <Gold.Protein.RotatedAtoms>
  151.3254  133.4022  159.2657 H   0  0  0  0  0  0  0  0  0  0  0  0  # atno 6907 bound_to 6896
  150.9999  134.9314  159.7958 H   0  0  0  0  0  0  0  0  0  0  0  0  # atno 6908 bound_to 6896
  152.5272  134.3219  159.9204 H   0  0  0  0  0  0  0  0  0  0  0  0  # atno 6909 bound_to 6896
  144.7148  140.0514  143.6435 H   0  0  0  0  0  0  0  0  0  0  0  0  # atno 7974 bound_to 7965
  154.4007  140.1512  156.3113 H   0  0  0  0  0  0  0  0  0  0  0  0  # atno 8008 bound_to 7997
  155.8613  140.3453  155.5737 H   0  0  0  0  0  0  0  0  0  0  0  0  # atno 8009 bound_to 7997
  155.7877  140.0852  157.2016 H   0  0  0  0  0  0  0  0  0  0  0  0  # atno 8010 bound_to 7997
  139.8588  144.6555  150.9082 H   0  0  0  0  0  0  0  0  0  0  0  0  # atno 10167 bound_to 10162
  157.6727  130.9844  150.1710 H   0  0  0  0  0  0  0  0  0  0  0  0  # atno 10718 bound_to 10713
  154.5911  135.2845  155.0634 H   0  0  0  0  0  0  0  0  0  0  0  0  # atno 10763 bound_to 10752
  154.1934  135.6437  153.5070 H   0  0  0  0  0  0  0  0  0  0  0  0  # atno 10764 bound_to 10752
  153.0122  135.5452  154.6597 H   0  0  0  0  0  0  0  0  0  0  0  0  # atno 10765 bound_to 10752
  140.3215  134.2538  155.7716 H   0  0  0  0  0  0  0  0  0  0  0  0  # atno 11005 bound_to 11000
  145.9941  139.3038  143.0967 LP  0  0  0  0  0  0  0  0  0  0  0  0  # atno 17320 bound_to 7965
  145.8869  140.9328  143.0572 LP  0  0  0  0  0  0  0  0  0  0  0  0  # atno 17321 bound_to 7965
  140.7778  143.3762  151.1559 LP  0  0  0  0  0  0  0  0  0  0  0  0  # atno 17342 bound_to 10162
  139.7394  143.8949  152.3045 LP  0  0  0  0  0  0  0  0  0  0  0  0  # atno 17343 bound_to 10162
  156.2464  130.3696  149.8280 LP  0  0  0  0  0  0  0  0  0  0  0  0  # atno 17370 bound_to 10713
  156.6065  130.8569  151.3444 LP  0  0  0  0  0  0  0  0  0  0  0  0  # atno 17371 bound_to 10713
  141.2085  133.7775  157.0053 LP  0  0  0  0  0  0  0  0  0  0  0  0  # atno 17394 bound_to 11000
  140.0937  134.9577  157.1817 LP  0  0  0  0  0  0  0  0  0  0  0  0  # atno 17395 bound_to 11000

$$$$
