AV-unprocessed.smi:2136|AV-procd|sdf|8702|dock3
  -GOLD-   2272011463D 1   1.00000     0.00000
 Structure written by MMmdl.
 42 43  0  0  0  0  0  0  0  0  1 V2000
  154.9004  140.2545  161.5657 C   0  0  0  0  0  0  0  0  0  0  0  0
  154.5088  139.8563  159.8114 S   0  0  0  0  0  0  0  0  0  0  0  0
  155.7389  139.9422  159.0096 O   0  0  0  0  0  0  0  0  0  0  0  0
  153.7415  138.6012  159.8209 O   0  0  0  0  0  0  0  0  0  0  0  0
  153.4296  141.1490  159.3301 N   0  0  0  0  0  0  0  0  0  0  0  0
  153.4662  142.3734  160.1661 C   0  0  0  0  0  0  0  0  0  0  0  0
  152.8246  143.5914  159.4890 C   0  0  0  0  0  0  0  0  0  0  0  0
  151.4119  143.2722  159.0141 C   0  0  0  0  0  0  0  0  0  0  0  0
  151.4944  142.1074  158.0319 C   0  0  0  0  0  0  0  0  0  0  0  0
  152.1198  140.8436  158.6711 C   0  0  1  0  0  0  0  0  0  0  0  0
  152.1424  139.7279  157.6113 C   0  0  0  0  0  0  0  0  0  0  0  0
  153.1730  139.0860  157.4049 O   0  0  0  0  0  0  0  0  0  0  0  0
  150.9964  139.5049  156.9491 N   0  0  0  0  0  0  0  0  0  0  0  0
  150.7944  138.4698  155.9437 C   0  0  0  0  0  0  0  0  0  0  0  0
  150.6157  139.0761  154.5424 C   0  0  0  0  0  0  0  0  0  0  0  0
  149.2304  139.6590  154.3455 C   0  0  0  0  0  0  0  0  0  0  0  0
  148.9917  141.0388  154.5117 C   0  0  0  0  0  0  0  0  0  0  0  0
  147.6873  141.5300  154.3106 C   0  0  0  0  0  0  0  0  0  0  0  0
  146.6748  140.6177  153.9514 C   0  0  0  0  0  0  0  0  0  0  0  0
  146.8920  139.2944  153.7911 N   0  0  0  0  0  0  0  0  0  0  0  0
  148.1457  138.8315  153.9856 C   0  0  0  0  0  0  0  0  0  0  0  0
  155.4649  139.4311  162.0023 H   0  0  0  0  0  0  0  0  0  0  0  0
  153.9741  140.3907  162.1232 H   0  0  0  0  0  0  0  0  0  0  0  0
  155.4983  141.1602  161.6285 H   0  0  0  0  0  0  0  0  0  0  0  0
  152.9653  142.1627  161.1118 H   0  0  0  0  0  0  0  0  0  0  0  0
  154.4987  142.6272  160.4040 H   0  0  0  0  0  0  0  0  0  0  0  0
  152.8027  144.4305  160.1850 H   0  0  0  0  0  0  0  0  0  0  0  0
  153.4369  143.9082  158.6435 H   0  0  0  0  0  0  0  0  0  0  0  0
  150.7727  143.0142  159.8593 H   0  0  0  0  0  0  0  0  0  0  0  0
  150.9688  144.1440  158.5319 H   0  0  0  0  0  0  0  0  0  0  0  0
  150.4934  141.8820  157.6607 H   0  0  0  0  0  0  0  0  0  0  0  0
  152.0770  142.4216  157.1638 H   0  0  0  0  0  0  0  0  0  0  0  0
  151.4460  140.5198  159.4666 H   0  0  0  0  0  0  0  0  0  0  0  0
  150.1963  140.0750  157.1832 H   0  0  0  0  0  0  0  0  0  0  0  0
  151.6655  137.8141  155.9555 H   0  0  0  0  0  0  0  0  0  0  0  0
  149.9354  137.8511  156.2089 H   0  0  0  0  0  0  0  0  0  0  0  0
  151.3492  139.8654  154.3751 H   0  0  0  0  0  0  0  0  0  0  0  0
  150.8000  138.3187  153.7791 H   0  0  0  0  0  0  0  0  0  0  0  0
  149.7919  141.7103  154.7870 H   0  0  0  0  0  0  0  0  0  0  0  0
  147.4670  142.5807  154.4278 H   0  0  0  0  0  0  0  0  0  0  0  0
  145.6634  140.9600  153.7894 H   0  0  0  0  0  0  0  0  0  0  0  0
  148.2881  137.7699  153.8469 H   0  0  0  0  0  0  0  0  0  0  0  0
  1  2  1  0  0  0  0
  1 22  1  0  0  0  0
  1 23  1  0  0  0  0
  1 24  1  0  0  0  0
  2  3  2  0  0  0  0
  2  4  2  0  0  0  0
  2  5  1  0  0  0  0
  5 10  1  0  0  0  0
  5  6  1  0  0  0  0
  6  7  1  0  0  0  0
  6 25  1  0  0  0  0
  6 26  1  0  0  0  0
  7  8  1  0  0  0  0
  7 27  1  0  0  0  0
  7 28  1  0  0  0  0
  8  9  1  0  0  0  0
  8 29  1  0  0  0  0
  8 30  1  0  0  0  0
  9 10  1  0  0  0  0
  9 31  1  0  0  0  0
  9 32  1  0  0  0  0
 10 11  1  0  0  0  0
 10 33  1  0  0  0  0
 11 12  2  0  0  0  0
 11 13  1  0  0  0  0
 13 14  1  0  0  0  0
 13 34  1  0  0  0  0
 14 15  1  0  0  0  0
 14 35  1  0  0  0  0
 14 36  1  0  0  0  0
 15 16  1  0  0  0  0
 15 37  1  0  0  0  0
 15 38  1  0  0  0  0
 16 21  1  0  0  0  0
 16 17  2  0  0  0  0
 17 18  1  0  0  0  0
 17 39  1  0  0  0  0
 18 19  2  0  0  0  0
 18 40  1  0  0  0  0
 19 20  1  0  0  0  0
 19 41  1  0  0  0  0
 20 21  2  0  0  0  0
 21 42  1  0  0  0  0
M  END
> <s_m_source_file>
AV-unprocessed.smi

> <i_m_source_file_index>
2136

> <i_lp_mmshare_version>
43012

> <i_f3d_flags>
0

> <s_epik_input>
W0NIM11TKD1PKSg9TylOMVtDSDJdW0NIMl1bQ0gyXVtDSDJdW0NASF0xQyg9TylbTkhdW0NIMl1bQ0gyXWMyW2NIXVtjSF1bY0hdbltjSF0y

> <s_epik_cmdline>
J2VwaWtfcHl0aG9uJywgJy1waCcsICc3LjAnLCAnLXRuJywgJzgnLCAnLW1hJywgJzIwMCcsICctbWV0YWxfYmluZGluZycsICctaW1hZScsICc8aW5maWxlLm1hZT4nLCAnLW9tYWUnLCAnPG91dGZpbGUubWFlPic=

> <r_epik_Ionization_Penalty>
0.0126915

> <r_epik_Ionization_Penalty_Charging>
0

> <r_epik_Ionization_Penalty_Neutral>
0.0126915

> <r_epik_State_Penalty>
0.0098379

> <r_epik_Charging_Adjusted_Penalty>
0.0098379

> <i_epik_Tot_Q>
0

> <i_epik_Tot_abs_Q>
0

> <r_epik_Metal_State_Penalty>
0.00962913

> <b_epik_Metal_Only>
0

> <s_lp_Force_Field>
OPLS_2005

> <r_lp_Energy>
4.41633

> <b_lp_Chiralities_Consistent>
1

> <s_lp_Variant>
AV-unprocessed.smi:2136-1

> <Gold.Version>
5.8.1

> <Gold.Id.Protein>
6NUR|6NUR_protein|mol2

> <Gold.PLP.Fitness>
50.1705

> <Gold.PLP.PLP>
-40.8028

> <Gold.PLP.part.hbond>
-2.0000

> <Gold.PLP.part.metal>
0.0000

> <Gold.PLP.part.buried>
-1.9811

> <Gold.PLP.part.nonpolar>
-36.1578

> <Gold.PLP.part.repulsive>
0.2414

> <Gold.PLP.ligand.clash>
0.0000

> <Gold.PLP.ligand.torsion>
1.7372

> <Gold.PLP.Chemscore.Hbond>
1.6000

> <Gold.PLP.Chemscore.CHOScore>
1.9806

> <Gold.PLP.Chemscore.Metal>
0.0000

> <Gold.Chemscore.Hbonds>
donor molecule, donor type, donor heavy atom, donor atom, acceptor molecule, acceptor atom, score
      P1  H  7997  8009       L1     3  0.67
      P1  H  7997  8010       L1    12  0.94
      L1  C    19    41       P1 10175  1.00
      L1  C    21    42       P1  7948  0.85

> <Gold.PLP.Chemscore.Internal.Correction>
2.1004

> <Gold.Rescore>
     Score         DG    S(hbond)    S(metal)    S(lipo)     H(rot)  DE(clash)    DE(int)     intcor
     13.47     -19.32       1.57        0.00     107.88       1.56       0.21       5.64       ----

> <Gold.Chemscore.Fitness>
13.4715

> <Gold.Chemscore.DG>
-19.3246

> <Gold.Chemscore.ZeroCoef>
-5.4800

> <Gold.Chemscore.Hbond>
1.5652

> <Gold.Chemscore.Metal>
0.0000

> <Gold.Chemscore.Lipo>
107.8769

> <Gold.Chemscore.Internal_Hbond>
0.0000

> <Gold.Chemscore.DEClash>
0.2123

> <Gold.Chemscore.DEInternal>
5.6408

> <Gold.Chemscore.Rot>
1.5643

> <Gold.Chemscore.Internal.Correction>
   9.000000E+99

> <Gold.Chemscore.Hbonds>
donor molecule, donor type, donor heavy atom, donor atom, acceptor molecule, acceptor atom, score
      P1  H  7997  8009       L1     3  0.68
      P1  H  7997  8010       L1    12  0.68

> <Gold.Chemscore.Hbond.Weighted>
-5.2276

> <Gold.Chemscore.Metal.Weighted>
-0.0000

> <Gold.Chemscore.Lipo.Weighted>
-12.6216

> <Gold.Chemscore.Internal_Hbond.Weighted>
0.0000

> <Gold.Chemscore.DEClash.Weighted>
0.2123

> <Gold.Chemscore.DEInternal.Weighted>
5.6408

> <Gold.Chemscore.Rot.Weighted>
4.0046

> <Gold.Chemscore.Internal.Correction.Weighted>
   9.000000E+99

> <Gold.Protein.RotatedTorsions>
[ 6907 6896 6895 6894 ] final -171.93 input  -60.11 | X-H torsion
[ 7974 7965 7964 7962 ] final   26.72 input  175.53 | X-H torsion
[ 8008 7997 7996 7995 ] final   70.79 input   59.86 | X-H torsion
[ 10167 10162 10161 10158 ] final -144.46 input  -65.29 | X-H torsion
[ 10718 10713 10712 10709 ] final  -66.98 input   66.30 | X-H torsion
[ 10763 10752 10751 10750 ] final -117.08 input  -60.55 | X-H torsion
[ 11005 11000 10999 10996 ] final  146.36 input  -57.11 | X-H torsion

> <Gold.Protein.ActiveResidues>
 VAL166  LYS551  ARG553  GLY616  TRP617  ASP618  TYR619  PRO620  LYS621  CYS622 
 ASP623  PHE694  ASN695  SER759  ASP760  ASP761  ALA762  ILE779  LEU786  VAL792 
 PHE793  MET794  SER795  GLU796  ALA797  LYS798  CYS799  TRP800  GLU811  SER814 

> <Gold.Protein.RotatedAtoms>
  151.5318  133.3448  159.2919 H   0  0  0  0  0  0  0  0  0  0  0  0  # atno 6907 bound_to 6896
  150.8589  134.7938  159.7078 H   0  0  0  0  0  0  0  0  0  0  0  0  # atno 6908 bound_to 6896
  152.4614  134.5183  159.9826 H   0  0  0  0  0  0  0  0  0  0  0  0  # atno 6909 bound_to 6896
  146.1822  139.7289  142.8892 H   0  0  0  0  0  0  0  0  0  0  0  0  # atno 7974 bound_to 7965
  155.7441  140.3490  155.5118 H   0  0  0  0  0  0  0  0  0  0  0  0  # atno 8008 bound_to 7997
  155.9066  140.1043  157.1332 H   0  0  0  0  0  0  0  0  0  0  0  0  # atno 8009 bound_to 7997
  154.4050  140.1276  156.4491 H   0  0  0  0  0  0  0  0  0  0  0  0  # atno 8010 bound_to 7997
  139.7897  143.7984  152.2648 H   0  0  0  0  0  0  0  0  0  0  0  0  # atno 10167 bound_to 10162
  156.0582  130.4270  150.1788 H   0  0  0  0  0  0  0  0  0  0  0  0  # atno 10718 bound_to 10713
  154.8542  135.4322  154.1923 H   0  0  0  0  0  0  0  0  0  0  0  0  # atno 10763 bound_to 10752
  153.2989  135.6967  153.7228 H   0  0  0  0  0  0  0  0  0  0  0  0  # atno 10764 bound_to 10752
  153.6366  135.3475  155.3033 H   0  0  0  0  0  0  0  0  0  0  0  0  # atno 10765 bound_to 10752
  140.0787  134.9110  157.1464 H   0  0  0  0  0  0  0  0  0  0  0  0  # atno 11005 bound_to 11000
  145.4042  141.0389  143.3053 LP  0  0  0  0  0  0  0  0  0  0  0  0  # atno 17320 bound_to 7965
  144.8335  139.5589  143.6933 LP  0  0  0  0  0  0  0  0  0  0  0  0  # atno 17321 bound_to 7965
  139.8071  144.7351  150.9746 LP  0  0  0  0  0  0  0  0  0  0  0  0  # atno 17342 bound_to 10162
  140.7820  143.4287  151.0728 LP  0  0  0  0  0  0  0  0  0  0  0  0  # atno 17343 bound_to 10162
  156.9860  130.9879  151.3426 LP  0  0  0  0  0  0  0  0  0  0  0  0  # atno 17370 bound_to 10713
  157.5570  130.8220  149.8217 LP  0  0  0  0  0  0  0  0  0  0  0  0  # atno 17371 bound_to 10713
  140.3520  134.2588  155.7197 LP  0  0  0  0  0  0  0  0  0  0  0  0  # atno 17394 bound_to 11000
  141.2039  133.7901  157.0317 LP  0  0  0  0  0  0  0  0  0  0  0  0  # atno 17395 bound_to 11000

$$$$
