AV-unprocessed.smi:2548|AV-procd|sdf|10007|dock3
  -GOLD-   2272014 53D 1   1.00000     0.00000
 Structure written by MMmdl.
 44 45  0  0  0  0  0  0  0  0  1 V2000
  147.1418  132.7835  151.9600 C   0  0  0  0  0  0  0  0  0  0  0  0
  147.9798  133.3592  153.0502 C   0  0  0  0  0  0  0  0  0  0  0  0
  149.1108  132.8976  153.6621 C   0  0  0  0  0  0  0  0  0  0  0  0
  149.4314  133.9054  154.6198 C   0  0  0  0  0  0  0  0  0  0  0  0
  150.5840  133.9306  155.5914 C   0  0  0  0  0  0  0  0  0  0  0  0
  150.6356  135.2380  156.3919 C   0  0  0  0  0  0  0  0  0  0  0  0
  150.5244  135.2379  157.6189 O   0  0  0  0  0  0  0  0  0  0  0  0
  150.8242  136.3551  155.6713 N   0  0  0  0  0  0  0  0  0  0  0  0
  150.9219  137.7138  156.2054 C   0  0  0  0  0  0  0  0  0  0  0  0
  151.3652  138.7744  155.1515 C   0  0  0  0  0  0  0  0  0  0  0  0
  152.8123  138.4505  154.7102 C   0  0  0  0  0  0  0  0  0  0  0  0
  150.4820  138.6872  153.8728 C   0  0  0  0  0  0  0  0  0  0  0  0
  148.9620  138.8850  154.0508 C   0  0  0  0  0  0  0  0  0  0  0  0
  148.4636  140.3400  154.0265 C   0  0  0  0  0  0  0  0  0  0  0  0
  149.2882  141.3709  154.8151 C   0  0  0  0  0  0  0  0  0  0  0  0
  150.0072  140.8375  156.0638 C   0  0  0  0  0  0  0  0  0  0  0  0
  151.3763  140.2110  155.7382 C   0  0  0  0  0  0  0  0  0  0  0  0
  148.5624  134.9069  154.6070 N   0  0  0  0  0  0  0  0  0  0  0  0
  147.6864  134.5646  153.6445 N   0  0  0  0  0  0  0  0  0  0  0  0
  146.9016  135.1550  153.4081 H   0  0  0  0  0  0  0  0  0  0  0  0
  147.4731  131.7768  151.7046 H   0  0  0  0  0  0  0  0  0  0  0  0
  147.2020  133.3968  151.0609 H   0  0  0  0  0  0  0  0  0  0  0  0
  146.0960  132.7265  152.2627 H   0  0  0  0  0  0  0  0  0  0  0  0
  149.6366  131.9771  153.4555 H   0  0  0  0  0  0  0  0  0  0  0  0
  150.5173  133.0980  156.2930 H   0  0  0  0  0  0  0  0  0  0  0  0
  151.5230  133.8047  155.0509 H   0  0  0  0  0  0  0  0  0  0  0  0
  150.9128  136.2578  154.6702 H   0  0  0  0  0  0  0  0  0  0  0  0
  149.9355  137.9759  156.5895 H   0  0  0  0  0  0  0  0  0  0  0  0
  151.5777  137.7089  157.0742 H   0  0  0  0  0  0  0  0  0  0  0  0
  153.1416  139.1128  153.9086 H   0  0  0  0  0  0  0  0  0  0  0  0
  152.8976  137.4280  154.3406 H   0  0  0  0  0  0  0  0  0  0  0  0
  153.5259  138.5631  155.5270 H   0  0  0  0  0  0  0  0  0  0  0  0
  150.8451  139.3845  153.1163 H   0  0  0  0  0  0  0  0  0  0  0  0
  150.6262  137.6970  153.4377 H   0  0  0  0  0  0  0  0  0  0  0  0
  148.4574  138.3631  153.2370 H   0  0  0  0  0  0  0  0  0  0  0  0
  148.6002  138.3915  154.9497 H   0  0  0  0  0  0  0  0  0  0  0  0
  148.3949  140.6789  152.9920 H   0  0  0  0  0  0  0  0  0  0  0  0
  147.4396  140.3472  154.4010 H   0  0  0  0  0  0  0  0  0  0  0  0
  150.0175  141.8349  154.1503 H   0  0  0  0  0  0  0  0  0  0  0  0
  148.6197  142.1807  155.1100 H   0  0  0  0  0  0  0  0  0  0  0  0
  150.1900  141.6863  156.7237 H   0  0  0  0  0  0  0  0  0  0  0  0
  149.3704  140.1605  156.6330 H   0  0  0  0  0  0  0  0  0  0  0  0
  151.9818  140.2250  156.6441 H   0  0  0  0  0  0  0  0  0  0  0  0
  151.9045  140.8765  155.0539 H   0  0  0  0  0  0  0  0  0  0  0  0
  1  2  1  0  0  0  0
  1 21  1  0  0  0  0
  1 22  1  0  0  0  0
  1 23  1  0  0  0  0
  2 19  1  0  0  0  0
  2  3  2  0  0  0  0
  3  4  1  0  0  0  0
  3 24  1  0  0  0  0
  4  5  1  0  0  0  0
  4 18  2  0  0  0  0
  5  6  1  0  0  0  0
  5 25  1  0  0  0  0
  5 26  1  0  0  0  0
  6  7  2  0  0  0  0
  6  8  1  0  0  0  0
  8  9  1  0  0  0  0
  8 27  1  0  0  0  0
  9 10  1  0  0  0  0
  9 28  1  0  0  0  0
  9 29  1  0  0  0  0
 10 17  1  0  0  0  0
 10 11  1  0  0  0  0
 10 12  1  0  0  0  0
 11 30  1  0  0  0  0
 11 31  1  0  0  0  0
 11 32  1  0  0  0  0
 12 13  1  0  0  0  0
 12 33  1  0  0  0  0
 12 34  1  0  0  0  0
 13 14  1  0  0  0  0
 13 35  1  0  0  0  0
 13 36  1  0  0  0  0
 14 15  1  0  0  0  0
 14 37  1  0  0  0  0
 14 38  1  0  0  0  0
 15 16  1  0  0  0  0
 15 39  1  0  0  0  0
 15 40  1  0  0  0  0
 16 17  1  0  0  0  0
 16 41  1  0  0  0  0
 16 42  1  0  0  0  0
 17 43  1  0  0  0  0
 17 44  1  0  0  0  0
 18 19  1  0  0  0  0
 19 20  1  0  0  0  0
M  END
> <s_m_source_file>
AV-unprocessed.smi

> <i_m_source_file_index>
2548

> <i_lp_mmshare_version>
43012

> <i_f3d_flags>
0

> <s_epik_input>
W0NIM11jMVtjSF1jKG5bbkhdMSlbQ0gyXUMoPU8pW05IXVtDSDJdQzIoW0NIM10pW0NIMl1bQ0gyXVtDSDJdW0NIMl1bQ0gyXVtDSDJdMg==

> <s_epik_cmdline>
J2VwaWtfcHl0aG9uJywgJy1waCcsICc3LjAnLCAnLXRuJywgJzgnLCAnLW1hJywgJzIwMCcsICctbWV0YWxfYmluZGluZycsICctaW1hZScsICc8aW5maWxlLm1hZT4nLCAnLW9tYWUnLCAnPG91dGZpbGUubWFlPic=

> <r_lp_tautomer_probability>
0.5

> <r_epik_Ionization_Penalty>
8.42262e-05

> <r_epik_Ionization_Penalty_Charging>
0

> <r_epik_Ionization_Penalty_Neutral>
8.42262e-05

> <r_epik_State_Penalty>
0.41068

> <r_epik_Charging_Adjusted_Penalty>
0.41068

> <i_epik_Tot_Q>
0

> <i_epik_Tot_abs_Q>
0

> <r_epik_Metal_State_Penalty>
0.410698

> <b_epik_Metal_Only>
0

> <s_lp_Force_Field>
OPLS_2005

> <r_lp_Energy>
22.9227

> <b_lp_Chiralities_Consistent>
1

> <s_lp_Variant>
AV-unprocessed.smi:2548-1

> <Gold.Version>
5.8.1

> <Gold.Id.Protein>
6NUR|6NUR_protein|mol2

> <Gold.PLP.Fitness>
37.6561

> <Gold.PLP.PLP>
-36.1755

> <Gold.PLP.part.hbond>
-2.0000

> <Gold.PLP.part.metal>
0.0000

> <Gold.PLP.part.buried>
-2.0221

> <Gold.PLP.part.nonpolar>
-33.0250

> <Gold.PLP.part.repulsive>
0.6350

> <Gold.PLP.ligand.clash>
0.0000

> <Gold.PLP.ligand.torsion>
0.0891

> <Gold.PLP.Chemscore.Hbond>
0.5440

> <Gold.PLP.Chemscore.CHOScore>
0.0000

> <Gold.PLP.Chemscore.Metal>
0.0000

> <Gold.Chemscore.Hbonds>
donor molecule, donor type, donor heavy atom, donor atom, acceptor molecule, acceptor atom, score
      P1  H  6896  6909       L1     7  0.53

> <Gold.PLP.Chemscore.Internal.Correction>
0.0267

> <Gold.Rescore>
     Score         DG    S(hbond)    S(metal)    S(lipo)     H(rot)  DE(clash)    DE(int)     intcor
     14.14     -14.51       0.78        0.00      88.82       1.55       0.05       0.32       ----

> <Gold.Chemscore.Fitness>
14.1361

> <Gold.Chemscore.DG>
-14.5061

> <Gold.Chemscore.ZeroCoef>
-5.4800

> <Gold.Chemscore.Hbond>
0.7783

> <Gold.Chemscore.Metal>
0.0000

> <Gold.Chemscore.Lipo>
88.8182

> <Gold.Chemscore.Internal_Hbond>
0.0000

> <Gold.Chemscore.DEClash>
0.0476

> <Gold.Chemscore.DEInternal>
0.3224

> <Gold.Chemscore.Rot>
1.5489

> <Gold.Chemscore.Internal.Correction>
   9.000000E+99

> <Gold.Chemscore.Hbonds>
donor molecule, donor type, donor heavy atom, donor atom, acceptor molecule, acceptor atom, score
      P1  H  6896  6909       L1     7  0.50

> <Gold.Chemscore.Hbond.Weighted>
-2.5996

> <Gold.Chemscore.Metal.Weighted>
-0.0000

> <Gold.Chemscore.Lipo.Weighted>
-10.3917

> <Gold.Chemscore.Internal_Hbond.Weighted>
0.0000

> <Gold.Chemscore.DEClash.Weighted>
0.0476

> <Gold.Chemscore.DEInternal.Weighted>
0.3224

> <Gold.Chemscore.Rot.Weighted>
3.9652

> <Gold.Chemscore.Internal.Correction.Weighted>
   9.000000E+99

> <Gold.Protein.RotatedTorsions>
[ 6907 6896 6895 6894 ] final   37.10 input  -60.11 | X-H torsion
[ 7974 7965 7964 7962 ] final   69.84 input  175.53 | X-H torsion
[ 8008 7997 7996 7995 ] final  154.33 input   59.86 | X-H torsion
[ 10167 10162 10161 10158 ] final   81.22 input  -65.29 | X-H torsion
[ 10718 10713 10712 10709 ] final  102.24 input   66.30 | X-H torsion
[ 10763 10752 10751 10750 ] final  -18.31 input  -60.55 | X-H torsion
[ 11005 11000 10999 10996 ] final -178.80 input  -57.11 | X-H torsion

> <Gold.Protein.ActiveResidues>
 VAL166  LYS551  ARG553  GLY616  TRP617  ASP618  TYR619  PRO620  LYS621  CYS622 
 ASP623  PHE694  ASN695  SER759  ASP760  ASP761  ALA762  ILE779  LEU786  VAL792 
 PHE793  MET794  SER795  GLU796  ALA797  LYS798  CYS799  TRP800  GLU811  SER814 

> <Gold.Protein.RotatedAtoms>
  152.1386  134.9080  160.0554 H   0  0  0  0  0  0  0  0  0  0  0  0  # atno 6907 bound_to 6896
  152.0157  133.3874  159.4246 H   0  0  0  0  0  0  0  0  0  0  0  0  # atno 6908 bound_to 6896
  150.6863  134.3603  159.4991 H   0  0  0  0  0  0  0  0  0  0  0  0  # atno 6909 bound_to 6896
  145.7855  139.2908  143.1240 H   0  0  0  0  0  0  0  0  0  0  0  0  # atno 7974 bound_to 7965
  156.2537  140.1969  156.6629 H   0  0  0  0  0  0  0  0  0  0  0  0  # atno 8008 bound_to 7997
  154.6451  140.0579  156.9916 H   0  0  0  0  0  0  0  0  0  0  0  0  # atno 8009 bound_to 7997
  155.1504  140.3251  155.4435 H   0  0  0  0  0  0  0  0  0  0  0  0  # atno 8010 bound_to 7997
  139.9415  144.6086  150.8247 H   0  0  0  0  0  0  0  0  0  0  0  0  # atno 10167 bound_to 10162
  157.6807  131.0748  150.5374 H   0  0  0  0  0  0  0  0  0  0  0  0  # atno 10718 bound_to 10713
  153.5873  135.7003  153.5438 H   0  0  0  0  0  0  0  0  0  0  0  0  # atno 10763 bound_to 10752
  153.3208  135.4074  155.1415 H   0  0  0  0  0  0  0  0  0  0  0  0  # atno 10764 bound_to 10752
  154.8607  135.3695  154.5404 H   0  0  0  0  0  0  0  0  0  0  0  0  # atno 10765 bound_to 10752
  140.4257  134.6565  157.4687 H   0  0  0  0  0  0  0  0  0  0  0  0  # atno 11005 bound_to 11000
  146.0030  140.8503  143.0009 LP  0  0  0  0  0  0  0  0  0  0  0  0  # atno 17320 bound_to 7965
  144.6789  140.2380  143.7347 LP  0  0  0  0  0  0  0  0  0  0  0  0  # atno 17321 bound_to 7965
  140.7609  143.3163  151.2726 LP  0  0  0  0  0  0  0  0  0  0  0  0  # atno 17342 bound_to 10162
  139.6701  144.0036  152.2747 LP  0  0  0  0  0  0  0  0  0  0  0  0  # atno 17343 bound_to 10162
  156.5682  130.4273  149.6031 LP  0  0  0  0  0  0  0  0  0  0  0  0  # atno 17370 bound_to 10713
  156.2763  130.7045  151.1857 LP  0  0  0  0  0  0  0  0  0  0  0  0  # atno 17371 bound_to 10713
  140.0169  134.6606  155.9297 LP  0  0  0  0  0  0  0  0  0  0  0  0  # atno 17394 bound_to 11000
  141.1766  133.6541  156.4853 LP  0  0  0  0  0  0  0  0  0  0  0  0  # atno 17395 bound_to 11000

$$$$
