AV-unprocessed.smi:924|AV-procd|sdf|4179|dock3
  -GOLD-   22720 2 83D 1   1.00000     0.00000
 Structure written by MMmdl.
 46 49  0  0  0  0  0  0  0  0  1 V2000
  148.8998  140.6286  154.9552 O   0  0  0  0  0  0  0  0  0  0  0  0
  149.9883  140.3391  155.4544 C   0  0  0  0  0  0  0  0  0  0  0  0
  150.8916  139.2706  154.8223 C   0  0  0  0  0  0  0  0  0  0  0  0
  150.9446  138.0243  155.6008 N   0  0  0  0  0  0  0  0  0  0  0  0
  150.0989  136.9713  155.2821 C   0  0  0  0  0  0  0  0  0  0  0  0
  150.0749  135.8011  155.9628 C   0  0  0  0  0  0  0  0  0  0  0  0
  150.9663  135.5890  157.0980 C   0  0  0  0  0  0  0  0  0  0  0  0
  151.0212  134.5645  157.7747 O   0  0  0  0  0  0  0  0  0  0  0  0
  151.7987  136.6728  157.3902 N   0  0  0  0  0  0  0  0  0  0  0  0
  151.8254  137.8832  156.6955 C   0  0  0  0  0  0  0  0  0  0  0  0
  152.5940  138.7787  157.0443 O   0  0  0  0  0  0  0  0  0  0  0  0
  150.4699  140.9303  156.5586 N   0  0  0  0  0  0  0  0  0  0  0  0
  149.8157  142.0022  157.3061 C   0  0  0  0  0  0  0  0  0  0  0  0
  150.7883  142.8044  158.2080 C   0  0  0  0  0  0  0  0  0  0  0  0
  151.4508  141.8871  159.2724 C   0  0  0  0  0  0  0  0  0  0  0  0
  152.3812  142.7110  160.1890 C   0  0  1  0  0  0  0  0  0  0  0  0
  153.4878  143.3729  159.3412 C   0  0  0  0  0  0  0  0  0  0  0  0
  152.8391  144.3083  158.2990 C   0  0  2  0  0  0  0  0  0  0  0  0
  152.0217  145.4003  159.0188 C   0  0  0  0  0  0  0  0  0  0  0  0
  150.9199  144.7316  159.8661 C   0  0  2  0  0  0  0  0  0  0  0  0
  151.5635  143.8000  160.9137 C   0  0  0  0  0  0  0  0  0  0  0  0
  149.9902  143.9109  158.9470 C   0  0  0  0  0  0  0  0  0  0  0  0
  151.9106  143.4882  157.3784 C   0  0  0  0  0  0  0  0  0  0  0  0
  152.4305  136.5734  158.1713 H   0  0  0  0  0  0  0  0  0  0  0  0
  150.5262  139.0540  153.8169 H   0  0  0  0  0  0  0  0  0  0  0  0
  151.8889  139.6901  154.6788 H   0  0  0  0  0  0  0  0  0  0  0  0
  149.4179  137.0879  154.4506 H   0  0  0  0  0  0  0  0  0  0  0  0
  149.3916  135.0184  155.6667 H   0  0  0  0  0  0  0  0  0  0  0  0
  151.3709  140.6278  156.8994 H   0  0  0  0  0  0  0  0  0  0  0  0
  149.2867  142.6751  156.6289 H   0  0  0  0  0  0  0  0  0  0  0  0
  149.0443  141.5395  157.9227 H   0  0  0  0  0  0  0  0  0  0  0  0
  150.6862  141.3902  159.8709 H   0  0  0  0  0  0  0  0  0  0  0  0
  152.0265  141.0939  158.7940 H   0  0  0  0  0  0  0  0  0  0  0  0
  152.8377  142.0510  160.9273 H   0  0  0  0  0  0  0  0  0  0  0  0
  154.1695  143.9346  159.9810 H   0  0  0  0  0  0  0  0  0  0  0  0
  154.0891  142.6111  158.8432 H   0  0  0  0  0  0  0  0  0  0  0  0
  153.6199  144.7775  157.6994 H   0  0  0  0  0  0  0  0  0  0  0  0
  152.6726  146.0042  159.6524 H   0  0  0  0  0  0  0  0  0  0  0  0
  151.5789  146.0822  158.2918 H   0  0  0  0  0  0  0  0  0  0  0  0
  150.3386  145.5011  160.3751 H   0  0  0  0  0  0  0  0  0  0  0  0
  150.7942  143.3435  161.5380 H   0  0  0  0  0  0  0  0  0  0  0  0
  152.2057  144.3716  161.5848 H   0  0  0  0  0  0  0  0  0  0  0  0
  149.5069  144.5732  158.2270 H   0  0  0  0  0  0  0  0  0  0  0  0
  149.1874  143.4675  159.5379 H   0  0  0  0  0  0  0  0  0  0  0  0
  152.5064  142.7462  156.8466 H   0  0  0  0  0  0  0  0  0  0  0  0
  151.4757  144.1348  156.6151 H   0  0  0  0  0  0  0  0  0  0  0  0
  1  2  2  0  0  0  0
  2  3  1  0  0  0  0
  2 12  1  0  0  0  0
  3  4  1  0  0  0  0
  3 25  1  0  0  0  0
  3 26  1  0  0  0  0
  4 10  1  0  0  0  0
  4  5  1  0  0  0  0
  5  6  2  0  0  0  0
  5 27  1  0  0  0  0
  6  7  1  0  0  0  0
  6 28  1  0  0  0  0
  7  8  2  0  0  0  0
  7  9  1  0  0  0  0
  9 24  1  0  0  0  0
  9 10  1  0  0  0  0
 10 11  2  0  0  0  0
 12 13  1  0  0  0  0
 12 29  1  0  0  0  0
 13 14  1  0  0  0  0
 13 30  1  0  0  0  0
 13 31  1  0  0  0  0
 14 22  1  0  0  0  0
 14 23  1  0  0  0  0
 14 15  1  0  0  0  0
 15 16  1  0  0  0  0
 15 32  1  0  0  0  0
 15 33  1  0  0  0  0
 16 21  1  0  0  0  0
 16 17  1  0  0  0  0
 16 34  1  0  0  0  0
 17 18  1  0  0  0  0
 17 35  1  0  0  0  0
 17 36  1  0  0  0  0
 18 19  1  0  0  0  0
 18 23  1  0  0  0  0
 18 37  1  0  0  0  0
 19 20  1  0  0  0  0
 19 38  1  0  0  0  0
 19 39  1  0  0  0  0
 20 21  1  0  0  0  0
 20 22  1  0  0  0  0
 20 40  1  0  0  0  0
 21 41  1  0  0  0  0
 21 42  1  0  0  0  0
 22 43  1  0  0  0  0
 22 44  1  0  0  0  0
 23 45  1  0  0  0  0
 23 46  1  0  0  0  0
M  END
> <s_m_source_file>
AV-unprocessed.smi

> <i_m_source_file_index>
924

> <i_lp_mmshare_version>
43012

> <i_f3d_flags>
0

> <s_epik_input>
Tz1jMVtuSF1jKD1PKVtjSF1bY0hdbjFbQ0gyXUMoPU8pW05IXVtDSDJdQzIzW0NIMl1bQ0BIXTRbQ0gyXVtDQEBIXShbQ0gyXTMpW0NIMl1bQ0BIXShbQ0gyXTQpW0NIMl0y

> <s_epik_cmdline>
J2VwaWtfcHl0aG9uJywgJy1waCcsICc3LjAnLCAnLXRuJywgJzgnLCAnLW1hJywgJzIwMCcsICctbWV0YWxfYmluZGluZycsICctaW1hZScsICc8aW5maWxlLm1hZT4nLCAnLW9tYWUnLCAnPG91dGZpbGUubWFlPic=

> <r_lp_tautomer_probability>
0.999537

> <r_epik_Ionization_Penalty>
0.00304541

> <r_epik_Ionization_Penalty_Charging>
0.00304539

> <r_epik_Ionization_Penalty_Neutral>
1.85865e-08

> <r_epik_State_Penalty>
0.00214042

> <r_epik_Charging_Adjusted_Penalty>
0.00518582

> <i_epik_Tot_Q>
0

> <i_epik_Tot_abs_Q>
0

> <r_epik_Metal_State_Penalty>
0.361861

> <b_epik_Metal_Only>
0

> <s_lp_Force_Field>
OPLS_2005

> <r_lp_Energy>
33.277

> <b_lp_Chiralities_Consistent>
1

> <s_lp_Variant>
AV-unprocessed.smi:924-1

> <Gold.Version>
5.8.1

> <Gold.Id.Protein>
6NUR|6NUR_protein|mol2

> <Gold.PLP.Fitness>
49.3535

> <Gold.PLP.PLP>
-44.5805

> <Gold.PLP.part.hbond>
-2.0000

> <Gold.PLP.part.metal>
0.0000

> <Gold.PLP.part.buried>
-4.4326

> <Gold.PLP.part.nonpolar>
-39.0522

> <Gold.PLP.part.repulsive>
0.3092

> <Gold.PLP.ligand.clash>
0.0000

> <Gold.PLP.ligand.torsion>
0.6210

> <Gold.PLP.Chemscore.Hbond>
1.0000

> <Gold.PLP.Chemscore.CHOScore>
1.0000

> <Gold.PLP.Chemscore.Metal>
0.0000

> <Gold.Chemscore.Hbonds>
donor molecule, donor type, donor heavy atom, donor atom, acceptor molecule, acceptor atom, score
      P1  H  6896  6909       L1     8  0.03
      P1  H  7997  8010       L1    11  0.42
      L1  C     5    27       P1  7948  0.47

> <Gold.PLP.Chemscore.Internal.Correction>
0.0149

> <Gold.Rescore>
     Score         DG    S(hbond)    S(metal)    S(lipo)     H(rot)  DE(clash)    DE(int)     intcor
     17.82     -19.34       1.08        0.00     130.01       1.94       0.76       0.75       ----

> <Gold.Chemscore.Fitness>
17.8233

> <Gold.Chemscore.DG>
-19.3382

> <Gold.Chemscore.ZeroCoef>
-5.4800

> <Gold.Chemscore.Hbond>
1.0829

> <Gold.Chemscore.Metal>
0.0000

> <Gold.Chemscore.Lipo>
130.0126

> <Gold.Chemscore.Internal_Hbond>
0.0000

> <Gold.Chemscore.DEClash>
0.7604

> <Gold.Chemscore.DEInternal>
0.7545

> <Gold.Chemscore.Rot>
1.9415

> <Gold.Chemscore.Internal.Correction>
   9.000000E+99

> <Gold.Chemscore.Hbonds>
donor molecule, donor type, donor heavy atom, donor atom, acceptor molecule, acceptor atom, score
      P1  H  6896  6909       L1     8  0.06
      P1  H  7997  8010       L1    11  0.41

> <Gold.Chemscore.Hbond.Weighted>
-3.6168

> <Gold.Chemscore.Metal.Weighted>
-0.0000

> <Gold.Chemscore.Lipo.Weighted>
-15.2115

> <Gold.Chemscore.Internal_Hbond.Weighted>
0.0000

> <Gold.Chemscore.DEClash.Weighted>
0.7604

> <Gold.Chemscore.DEInternal.Weighted>
0.7545

> <Gold.Chemscore.Rot.Weighted>
4.9701

> <Gold.Chemscore.Internal.Correction.Weighted>
   9.000000E+99

> <Gold.Protein.RotatedTorsions>
[ 6907 6896 6895 6894 ] final   57.08 input  -60.11 | X-H torsion
[ 7974 7965 7964 7962 ] final  160.48 input  175.53 | X-H torsion
[ 8008 7997 7996 7995 ] final   47.40 input   59.86 | X-H torsion
[ 10167 10162 10161 10158 ] final   -0.51 input  -65.29 | X-H torsion
[ 10718 10713 10712 10709 ] final   85.82 input   66.30 | X-H torsion
[ 10763 10752 10751 10750 ] final   51.49 input  -60.55 | X-H torsion
[ 11005 11000 10999 10996 ] final -124.40 input  -57.11 | X-H torsion

> <Gold.Protein.ActiveResidues>
 VAL166  LYS551  ARG553  GLY616  TRP617  ASP618  TYR619  PRO620  LYS621  CYS622 
 ASP623  PHE694  ASN695  SER759  ASP760  ASP761  ALA762  ILE779  LEU786  VAL792 
 PHE793  MET794  SER795  GLU796  ALA797  LYS798  CYS799  TRP800  GLU811  SER814 

> <Gold.Protein.RotatedAtoms>
  152.3697  134.6751  160.0179 H   0  0  0  0  0  0  0  0  0  0  0  0  # atno 6907 bound_to 6896
  151.7048  133.3306  159.3284 H   0  0  0  0  0  0  0  0  0  0  0  0  # atno 6908 bound_to 6896
  150.7665  134.6519  159.6337 H   0  0  0  0  0  0  0  0  0  0  0  0  # atno 6909 bound_to 6896
  144.7734  139.7764  143.6288 H   0  0  0  0  0  0  0  0  0  0  0  0  # atno 7974 bound_to 7965
  155.3685  140.3422  155.4242 H   0  0  0  0  0  0  0  0  0  0  0  0  # atno 8008 bound_to 7997
  156.1675  140.1621  156.8539 H   0  0  0  0  0  0  0  0  0  0  0  0  # atno 8009 bound_to 7997
  154.5200  140.0769  156.8136 H   0  0  0  0  0  0  0  0  0  0  0  0  # atno 8010 bound_to 7997
  140.6771  143.6885  150.8047 H   0  0  0  0  0  0  0  0  0  0  0  0  # atno 10167 bound_to 10162
  157.6920  131.0190  150.2880 H   0  0  0  0  0  0  0  0  0  0  0  0  # atno 10718 bound_to 10713
  152.9785  135.5844  154.4423 H   0  0  0  0  0  0  0  0  0  0  0  0  # atno 10763 bound_to 10752
  154.4023  135.2769  155.2091 H   0  0  0  0  0  0  0  0  0  0  0  0  # atno 10764 bound_to 10752
  154.3916  135.6124  153.5901 H   0  0  0  0  0  0  0  0  0  0  0  0  # atno 10765 bound_to 10752
  140.9844  134.0628  157.3728 H   0  0  0  0  0  0  0  0  0  0  0  0  # atno 11005 bound_to 11000
  146.1898  139.5132  142.9813 LP  0  0  0  0  0  0  0  0  0  0  0  0  # atno 17320 bound_to 7965
  145.6255  141.0314  143.1891 LP  0  0  0  0  0  0  0  0  0  0  0  0  # atno 17321 bound_to 7965
  140.0580  143.5183  152.2642 LP  0  0  0  0  0  0  0  0  0  0  0  0  # atno 17342 bound_to 10162
  139.6069  144.7598  151.3040 LP  0  0  0  0  0  0  0  0  0  0  0  0  # atno 17343 bound_to 10162
  156.3415  130.3816  149.7404 LP  0  0  0  0  0  0  0  0  0  0  0  0  # atno 17370 bound_to 10713
  156.4912  130.8086  151.3095 LP  0  0  0  0  0  0  0  0  0  0  0  0  # atno 17371 bound_to 10713
  139.8964  135.0145  156.7050 LP  0  0  0  0  0  0  0  0  0  0  0  0  # atno 17394 bound_to 11000
  140.7137  133.9201  155.8101 LP  0  0  0  0  0  0  0  0  0  0  0  0  # atno 17395 bound_to 11000

$$$$
