AV-unprocessed.smi:1809|AV-procd|sdf|7314|dock2
  -GOLD-   22720 8573D 1   1.00000     0.00000
 Structure written by MMmdl.
 40 42  0  0  0  0  0  0  0  0  2 V2000
  150.8773  142.1106  156.6229 C   0  0  0  0  0  0  0  0  0  0  0  0
  150.3994  141.0088  155.7401 C   0  0  0  0  0  0  0  0  0  0  0  0
  151.2239  140.1048  155.1956 N   0  0  0  0  0  0  0  0  0  0  0  0
  150.5502  139.1812  154.4078 N   0  0  0  0  0  0  0  0  0  0  0  0
  149.2349  139.4136  154.3808 C   0  0  0  0  0  0  0  0  0  0  0  0
  148.4205  138.5482  153.6086 N   0  0  0  0  0  0  0  0  0  0  0  0
  147.0861  138.4083  153.6570 C   0  0  0  0  0  0  0  0  0  0  0  0
  146.3316  139.0130  154.4187 O   0  0  0  0  0  0  0  0  0  0  0  0
  146.6597  137.5038  152.7645 N   0  0  0  0  0  0  0  0  0  0  0  0
  145.2687  137.1066  152.5749 C   0  0  0  0  0  0  0  0  0  0  0  0
  145.1522  135.6614  152.0591 C   0  0  1  0  0  0  0  0  0  0  0  0
  145.3860  135.5718  150.5388 C   0  0  0  0  0  0  0  0  0  0  0  0
  145.4089  134.1681  150.0645 N   0  3  2  0  0  0  0  0  0  0  0  0
  144.0946  133.5217  149.8542 C   0  0  0  0  0  0  0  0  0  0  0  0
  144.2989  132.0255  150.1402 C   0  0  0  0  0  0  0  0  0  0  0  0
  145.7932  131.8662  150.4384 C   0  0  0  0  0  0  0  0  0  0  0  0
  146.2364  133.2601  150.8851 C   0  0  2  0  0  0  0  0  0  0  0  0
  146.0016  133.4920  152.3949 C   0  0  0  0  0  0  0  0  0  0  0  0
  146.1410  134.8702  152.7083 O   0  0  0  0  0  0  0  0  0  0  0  0
  148.7015  140.8007  155.3308 S   0  0  0  0  0  0  0  0  0  0  0  0
  151.9379  141.9922  156.8472 H   0  0  0  0  0  0  0  0  0  0  0  0
  150.3202  142.1071  157.5598 H   0  0  0  0  0  0  0  0  0  0  0  0
  150.7292  143.0719  156.1308 H   0  0  0  0  0  0  0  0  0  0  0  0
  148.9124  137.9733  152.9403 H   0  0  0  0  0  0  0  0  0  0  0  0
  147.3458  137.0519  152.1775 H   0  0  0  0  0  0  0  0  0  0  0  0
  144.7257  137.2186  153.5151 H   0  0  0  0  0  0  0  0  0  0  0  0
  144.8083  137.7973  151.8679 H   0  0  0  0  0  0  0  0  0  0  0  0
  144.1593  135.2782  152.2999 H   0  0  0  0  0  0  0  0  0  0  0  0
  144.6303  136.1367  149.9912 H   0  0  0  0  0  0  0  0  0  0  0  0
  146.3496  136.0205  150.2943 H   0  0  0  0  0  0  0  0  0  0  0  0
  143.3403  133.9307  150.5274 H   0  0  0  0  0  0  0  0  0  0  0  0
  143.7569  133.6978  148.8326 H   0  0  0  0  0  0  0  0  0  0  0  0
  143.7097  131.7322  151.0101 H   0  0  0  0  0  0  0  0  0  0  0  0
  143.9840  131.3986  149.3054 H   0  0  0  0  0  0  0  0  0  0  0  0
  145.9994  131.0909  151.1774 H   0  0  0  0  0  0  0  0  0  0  0  0
  146.3183  131.5947  149.5215 H   0  0  0  0  0  0  0  0  0  0  0  0
  147.2898  133.4283  150.6573 H   0  0  0  0  0  0  0  0  0  0  0  0
  145.0145  133.1455  152.7057 H   0  0  0  0  0  0  0  0  0  0  0  0
  146.7270  132.9228  152.9763 H   0  0  0  0  0  0  0  0  0  0  0  0
  145.8393  134.1788  149.1506 H   0  0  0  0  0  0  0  0  0  0  0  0
  1  2  1  0  0  0  0
  1 21  1  0  0  0  0
  1 22  1  0  0  0  0
  1 23  1  0  0  0  0
  2 20  1  0  0  0  0
  2  3  2  0  0  0  0
  3  4  1  0  0  0  0
  4  5  2  0  0  0  0
  5  6  1  0  0  0  0
  5 20  1  0  0  0  0
  6  7  1  0  0  0  0
  6 24  1  0  0  0  0
  7  8  2  0  0  0  0
  7  9  1  0  0  0  0
  9 10  1  0  0  0  0
  9 25  1  0  0  0  0
 10 11  1  0  0  0  0
 10 26  1  0  0  0  0
 10 27  1  0  0  0  0
 11 19  1  0  0  0  0
 11 12  1  0  0  0  0
 11 28  1  0  0  0  0
 12 13  1  0  0  0  0
 12 29  1  0  0  0  0
 12 30  1  0  0  0  0
 13 17  1  0  0  0  0
 13 14  1  0  0  0  0
 13 40  1  0  0  0  0
 14 15  1  0  0  0  0
 14 31  1  0  0  0  0
 14 32  1  0  0  0  0
 15 16  1  0  0  0  0
 15 33  1  0  0  0  0
 15 34  1  0  0  0  0
 16 17  1  0  0  0  0
 16 35  1  0  0  0  0
 16 36  1  0  0  0  0
 17 18  1  0  0  0  0
 17 37  1  0  0  0  0
 18 19  1  0  0  0  0
 18 38  1  0  0  0  0
 18 39  1  0  0  0  0
M  CHG  1  13   1
M  END
> <s_m_source_file>
AV-unprocessed.smi

> <i_m_source_file_index>
1809

> <i_lp_mmshare_version>
43012

> <i_f3d_flags>
0

> <s_epik_input>
W0NIM11jMW5uYyhzMSlbTkhdQyg9TylbTkhdW0NIMl1bQ0BIXShbQ0gyXTIpT1tDSDJdW0NAQEhdKE4yMylbQ0gyXVtDSDJdW0NIMl0z

> <s_epik_cmdline>
J2VwaWtfcHl0aG9uJywgJy1waCcsICc3LjAnLCAnLXRuJywgJzgnLCAnLW1hJywgJzIwMCcsICctbWV0YWxfYmluZGluZycsICctaW1hZScsICc8aW5maWxlLm1hZT4nLCAnLW9tYWUnLCAnPG91dGZpbGUubWFlPic=

> <r_lp_tautomer_probability>
1

> <r_epik_Ionization_Penalty>
0.112474

> <r_epik_Ionization_Penalty_Charging>
0.108916

> <r_epik_Ionization_Penalty_Neutral>
0.00355844

> <r_epik_State_Penalty>
0.0565397

> <r_epik_Charging_Adjusted_Penalty>
0.165456

> <i_epik_Tot_Q>
1

> <i_epik_Tot_abs_Q>
1

> <r_epik_Metal_State_Penalty>
0.422831

> <b_epik_Metal_Only>
0

> <s_lp_Force_Field>
OPLS_2005

> <r_lp_Energy>
33.7816

> <b_lp_Chiralities_Consistent>
1

> <s_lp_Variant>
AV-unprocessed.smi:1809-6

> <Gold.Version>
5.8.1

> <Gold.Id.Protein>
6NUR|6NUR_protein|mol2

> <Gold.PLP.Fitness>
44.2551

> <Gold.PLP.PLP>
-35.6620

> <Gold.PLP.part.hbond>
-5.8994

> <Gold.PLP.part.metal>
0.0000

> <Gold.PLP.part.buried>
-4.7231

> <Gold.PLP.part.nonpolar>
-27.1970

> <Gold.PLP.part.repulsive>
0.5920

> <Gold.PLP.ligand.clash>
0.0000

> <Gold.PLP.ligand.torsion>
0.4443

> <Gold.PLP.Chemscore.Hbond>
3.1600

> <Gold.PLP.Chemscore.CHOScore>
0.0000

> <Gold.PLP.Chemscore.Metal>
0.0000

> <Gold.Chemscore.Hbonds>
donor molecule, donor type, donor heavy atom, donor atom, acceptor molecule, acceptor atom, score
      L1  H     6    24       P1  7948  0.98
      L1  H     9    25       P1  7948  1.00
      L1  H    13    40       P1  7921  1.00
      P1  H  7989  7998       L1     3  0.15

> <Gold.PLP.Chemscore.Internal.Correction>
0.0017

> <Gold.Rescore>
     Score         DG    S(hbond)    S(metal)    S(lipo)     H(rot)  DE(clash)    DE(int)     intcor
     19.52     -20.22       2.71        0.00      78.00       1.34       0.16       0.53       ----

> <Gold.Chemscore.Fitness>
19.5176

> <Gold.Chemscore.DG>
-20.2152

> <Gold.Chemscore.ZeroCoef>
-5.4800

> <Gold.Chemscore.Hbond>
2.7057

> <Gold.Chemscore.Metal>
0.0000

> <Gold.Chemscore.Lipo>
78.0008

> <Gold.Chemscore.Internal_Hbond>
0.0000

> <Gold.Chemscore.DEClash>
0.1628

> <Gold.Chemscore.DEInternal>
0.5347

> <Gold.Chemscore.Rot>
1.3391

> <Gold.Chemscore.Internal.Correction>
   9.000000E+99

> <Gold.Chemscore.Hbonds>
donor molecule, donor type, donor heavy atom, donor atom, acceptor molecule, acceptor atom, score
      L1  H     6    24       P1  7948  0.88
      L1  H     9    25       P1  7948  0.98
      L1  H    13    40       P1  7921  0.44

> <Gold.Chemscore.Hbond.Weighted>
-9.0372

> <Gold.Chemscore.Metal.Weighted>
-0.0000

> <Gold.Chemscore.Lipo.Weighted>
-9.1261

> <Gold.Chemscore.Internal_Hbond.Weighted>
0.0000

> <Gold.Chemscore.DEClash.Weighted>
0.1628

> <Gold.Chemscore.DEInternal.Weighted>
0.5347

> <Gold.Chemscore.Rot.Weighted>
3.4281

> <Gold.Chemscore.Internal.Correction.Weighted>
   9.000000E+99

> <Gold.Protein.RotatedTorsions>
[ 6907 6896 6895 6894 ] final  142.17 input  -60.11 | X-H torsion
[ 7974 7965 7964 7962 ] final  127.06 input  175.53 | X-H torsion
[ 8008 7997 7996 7995 ] final -168.77 input   59.86 | X-H torsion
[ 10167 10162 10161 10158 ] final  -61.00 input  -65.29 | X-H torsion
[ 10718 10713 10712 10709 ] final -152.98 input   66.30 | X-H torsion
[ 10763 10752 10751 10750 ] final   93.70 input  -60.55 | X-H torsion
[ 11005 11000 10999 10996 ] final   30.73 input  -57.11 | X-H torsion

> <Gold.Protein.ActiveResidues>
 VAL166  LYS551  ARG553  GLY616  TRP617  ASP618  TYR619  PRO620  LYS621  CYS622 
 ASP623  PHE694  ASN695  SER759  ASP760  ASP761  ALA762  ILE779  LEU786  VAL792 
 PHE793  MET794  SER795  GLU796  ALA797  LYS798  CYS799  TRP800  GLU811  SER814 

> <Gold.Protein.RotatedAtoms>
  152.2220  133.4990  159.5167 H   0  0  0  0  0  0  0  0  0  0  0  0  # atno 6907 bound_to 6896
  150.7015  134.1330  159.4086 H   0  0  0  0  0  0  0  0  0  0  0  0  # atno 6908 bound_to 6896
  151.9251  135.0281  160.0575 H   0  0  0  0  0  0  0  0  0  0  0  0  # atno 6909 bound_to 6896
  145.0547  139.3853  143.5036 H   0  0  0  0  0  0  0  0  0  0  0  0  # atno 7974 bound_to 7965
  155.8959  140.1032  157.1385 H   0  0  0  0  0  0  0  0  0  0  0  0  # atno 8008 bound_to 7997
  154.4020  140.1302  156.4439 H   0  0  0  0  0  0  0  0  0  0  0  0  # atno 8009 bound_to 7997
  155.7479  140.3465  155.5138 H   0  0  0  0  0  0  0  0  0  0  0  0  # atno 8010 bound_to 7997
  140.6034  143.2367  151.5876 H   0  0  0  0  0  0  0  0  0  0  0  0  # atno 10167 bound_to 10162
  156.4797  130.8297  151.2524 H   0  0  0  0  0  0  0  0  0  0  0  0  # atno 10718 bound_to 10713
  153.2333  135.4316  155.0619 H   0  0  0  0  0  0  0  0  0  0  0  0  # atno 10763 bound_to 10752
  154.8307  135.3385  154.6756 H   0  0  0  0  0  0  0  0  0  0  0  0  # atno 10764 bound_to 10752
  153.7182  135.7018  153.5076 H   0  0  0  0  0  0  0  0  0  0  0  0  # atno 10765 bound_to 10752
  140.2913  134.2861  155.7775 H   0  0  0  0  0  0  0  0  0  0  0  0  # atno 11005 bound_to 11000
  146.3520  140.0216  142.8658 LP  0  0  0  0  0  0  0  0  0  0  0  0  # atno 17320 bound_to 7965
  145.1483  140.9609  143.4448 LP  0  0  0  0  0  0  0  0  0  0  0  0  # atno 17321 bound_to 7965
  139.5308  144.2923  152.1142 LP  0  0  0  0  0  0  0  0  0  0  0  0  # atno 17342 bound_to 10162
  140.2108  144.4564  150.6386 LP  0  0  0  0  0  0  0  0  0  0  0  0  # atno 17343 bound_to 10162
  157.7484  131.0049  150.3093 LP  0  0  0  0  0  0  0  0  0  0  0  0  # atno 17370 bound_to 10713
  156.3534  130.3835  149.7310 LP  0  0  0  0  0  0  0  0  0  0  0  0  # atno 17371 bound_to 10713
  141.2145  133.7587  156.9629 LP  0  0  0  0  0  0  0  0  0  0  0  0  # atno 17394 bound_to 11000
  140.1193  134.9427  157.2179 LP  0  0  0  0  0  0  0  0  0  0  0  0  # atno 17395 bound_to 11000

$$$$
