AV-unprocessed.smi:1885|AV-procd|sdf|7650|dock9
  -GOLD-   22720 9383D 1   1.00000     0.00000
 Structure written by MMmdl.
 43 45  0  0  0  0  0  0  0  0  1 V2000
  142.9982  146.5704  153.0281 C   0  0  0  0  0  0  0  0  0  0  0  0
  144.0226  145.7592  152.4716 O   0  0  0  0  0  0  0  0  0  0  0  0
  144.6044  144.8050  153.2784 C   0  0  0  0  0  0  0  0  0  0  0  0
  144.2893  144.6202  154.6482 C   0  0  0  0  0  0  0  0  0  0  0  0
  144.9347  143.6192  155.4002 C   0  0  0  0  0  0  0  0  0  0  0  0
  145.8968  142.7836  154.7983 C   0  0  0  0  0  0  0  0  0  0  0  0
  146.6003  141.7215  155.6227 C   0  0  0  0  0  0  0  0  0  0  0  0
  147.4455  140.9027  154.8309 O   0  0  0  0  0  0  0  0  0  0  0  0
  148.4932  140.3037  155.5751 C   0  0  0  0  0  0  0  0  0  0  0  0
  149.8378  140.8106  155.0341 C   0  0  2  0  0  0  0  0  0  0  0  0
  149.7993  140.7787  153.6209 O   0  0  0  0  0  0  0  0  0  0  0  0
  151.0298  139.9765  155.5423 C   0  0  0  0  0  0  0  0  0  0  0  0
  151.2666  140.1629  156.9622 N   0  0  0  0  0  0  0  0  0  0  0  0
  151.3424  139.2093  157.9107 C   0  0  0  0  0  0  0  0  0  0  0  0
  151.5692  139.6092  159.1590 N   0  0  0  0  0  0  0  0  0  0  0  0
  151.6506  140.9825  159.0026 C   0  0  0  0  0  0  0  0  0  0  0  0
  151.8789  142.0030  159.9531 C   0  0  0  0  0  0  0  0  0  0  0  0
  151.9205  143.3555  159.5542 C   0  0  0  0  0  0  0  0  0  0  0  0
  152.1405  144.3209  160.4781 F   0  0  0  0  0  0  0  0  0  0  0  0
  151.7341  143.7073  158.2008 C   0  0  0  0  0  0  0  0  0  0  0  0
  151.7755  145.0080  157.8267 F   0  0  0  0  0  0  0  0  0  0  0  0
  151.5047  142.7080  157.2359 C   0  0  0  0  0  0  0  0  0  0  0  0
  151.4646  141.3607  157.6389 C   0  0  0  0  0  0  0  0  0  0  0  0
  146.2201  142.9690  153.4385 C   0  0  0  0  0  0  0  0  0  0  0  0
  145.5749  143.9702  152.6876 C   0  0  0  0  0  0  0  0  0  0  0  0
  142.6398  147.2673  152.2708 H   0  0  0  0  0  0  0  0  0  0  0  0
  143.3680  147.1590  153.8687 H   0  0  0  0  0  0  0  0  0  0  0  0
  142.1470  145.9705  153.3528 H   0  0  0  0  0  0  0  0  0  0  0  0
  143.5563  145.2358  155.1471 H   0  0  0  0  0  0  0  0  0  0  0  0
  144.6867  143.4948  156.4440 H   0  0  0  0  0  0  0  0  0  0  0  0
  147.1841  142.2211  156.3972 H   0  0  0  0  0  0  0  0  0  0  0  0
  145.8555  141.1006  156.1231 H   0  0  0  0  0  0  0  0  0  0  0  0
  148.3943  140.5394  156.6361 H   0  0  0  0  0  0  0  0  0  0  0  0
  148.4316  139.2189  155.4712 H   0  0  0  0  0  0  0  0  0  0  0  0
  149.9664  141.8517  155.3336 H   0  0  0  0  0  0  0  0  0  0  0  0
  149.3496  139.9932  153.3499 H   0  0  0  0  0  0  0  0  0  0  0  0
  150.8500  138.9148  155.3687 H   0  0  0  0  0  0  0  0  0  0  0  0
  151.9396  140.2304  154.9960 H   0  0  0  0  0  0  0  0  0  0  0  0
  151.2268  138.1624  157.6704 H   0  0  0  0  0  0  0  0  0  0  0  0
  152.0234  141.7457  160.9918 H   0  0  0  0  0  0  0  0  0  0  0  0
  151.3621  142.9728  156.1987 H   0  0  0  0  0  0  0  0  0  0  0  0
  146.9637  142.3460  152.9635 H   0  0  0  0  0  0  0  0  0  0  0  0
  145.8296  144.1006  151.6460 H   0  0  0  0  0  0  0  0  0  0  0  0
  1  2  1  0  0  0  0
  1 26  1  0  0  0  0
  1 27  1  0  0  0  0
  1 28  1  0  0  0  0
  2  3  1  0  0  0  0
  3 25  1  0  0  0  0
  3  4  2  0  0  0  0
  4  5  1  0  0  0  0
  4 29  1  0  0  0  0
  5  6  2  0  0  0  0
  5 30  1  0  0  0  0
  6  7  1  0  0  0  0
  6 24  1  0  0  0  0
  7  8  1  0  0  0  0
  7 31  1  0  0  0  0
  7 32  1  0  0  0  0
  8  9  1  0  0  0  0
  9 10  1  0  0  0  0
  9 33  1  0  0  0  0
  9 34  1  0  0  0  0
 10 11  1  0  0  0  0
 10 12  1  0  0  0  0
 10 35  1  0  0  0  0
 11 36  1  0  0  0  0
 12 13  1  0  0  0  0
 12 37  1  0  0  0  0
 12 38  1  0  0  0  0
 13 23  1  0  0  0  0
 13 14  1  0  0  0  0
 14 15  2  0  0  0  0
 14 39  1  0  0  0  0
 15 16  1  0  0  0  0
 16 23  2  0  0  0  0
 16 17  1  0  0  0  0
 17 18  2  0  0  0  0
 17 40  1  0  0  0  0
 18 19  1  0  0  0  0
 18 20  1  0  0  0  0
 20 21  1  0  0  0  0
 20 22  2  0  0  0  0
 22 23  1  0  0  0  0
 22 41  1  0  0  0  0
 24 25  2  0  0  0  0
 24 42  1  0  0  0  0
 25 43  1  0  0  0  0
M  END
> <s_m_source_file>
AV-unprocessed.smi

> <i_m_source_file_index>
1885

> <i_lp_mmshare_version>
43012

> <i_f3d_flags>
0

> <s_epik_input>
W0NIM11PYzFbY0hdW2NIXWMoW2NIXVtjSF0xKVtDSDJdT1tDSDJdW0NASF0oW09IXSlbQ0gyXW4oW2NIXW4yKWMoYzIzKVtjSF1jKEYpYyhGKVtjSF0z

> <s_epik_cmdline>
J2VwaWtfcHl0aG9uJywgJy1waCcsICc3LjAnLCAnLXRuJywgJzgnLCAnLW1hJywgJzIwMCcsICctbWV0YWxfYmluZGluZycsICctaW1hZScsICc8aW5maWxlLm1hZT4nLCAnLW9tYWUnLCAnPG91dGZpbGUubWFlPic=

> <r_lp_tautomer_probability>
1

> <r_epik_Ionization_Penalty>
0.0160256

> <r_epik_Ionization_Penalty_Charging>
0

> <r_epik_Ionization_Penalty_Neutral>
0.0160256

> <r_epik_State_Penalty>
0.0126263

> <r_epik_Charging_Adjusted_Penalty>
0.0126263

> <i_epik_Tot_Q>
0

> <i_epik_Tot_abs_Q>
0

> <r_epik_Metal_State_Penalty>
1.27616e-05

> <b_epik_Metal_Only>
0

> <s_lp_Force_Field>
OPLS_2005

> <r_lp_Energy>
16.1682

> <b_lp_Chiralities_Consistent>
1

> <s_lp_Variant>
AV-unprocessed.smi:1885-1

> <Gold.Version>
5.8.1

> <Gold.Id.Protein>
6NUR|6NUR_protein|mol2

> <Gold.PLP.Fitness>
55.7118

> <Gold.PLP.PLP>
-53.0690

> <Gold.PLP.part.hbond>
-4.1146

> <Gold.PLP.part.metal>
0.0000

> <Gold.PLP.part.buried>
-5.3963

> <Gold.PLP.part.nonpolar>
-42.9062

> <Gold.PLP.part.repulsive>
0.1816

> <Gold.PLP.ligand.clash>
0.0000

> <Gold.PLP.ligand.torsion>
0.7350

> <Gold.PLP.Chemscore.Hbond>
1.3362

> <Gold.PLP.Chemscore.CHOScore>
0.0000

> <Gold.PLP.Chemscore.Metal>
0.0000

> <Gold.Chemscore.Hbonds>
donor molecule, donor type, donor heavy atom, donor atom, acceptor molecule, acceptor atom, score
      L1  H    11    36       P1  7957  0.03
      P1  H  7989  7998       L1    11  0.29
      P1  H  8011  8017       L1    11  0.88

> <Gold.PLP.Chemscore.Internal.Correction>
0.1043

> <Gold.Rescore>
     Score         DG    S(hbond)    S(metal)    S(lipo)     H(rot)  DE(clash)    DE(int)     intcor
     12.52     -14.01       0.79        0.00     114.54       2.93       0.73       0.75       ----

> <Gold.Chemscore.Fitness>
12.5243

> <Gold.Chemscore.DG>
-14.0061

> <Gold.Chemscore.ZeroCoef>
-5.4800

> <Gold.Chemscore.Hbond>
0.7889

> <Gold.Chemscore.Metal>
0.0000

> <Gold.Chemscore.Lipo>
114.5373

> <Gold.Chemscore.Internal_Hbond>
0.0000

> <Gold.Chemscore.DEClash>
0.7292

> <Gold.Chemscore.DEInternal>
0.7525

> <Gold.Chemscore.Rot>
2.9335

> <Gold.Chemscore.Internal.Correction>
   9.000000E+99

> <Gold.Chemscore.Hbonds>
donor molecule, donor type, donor heavy atom, donor atom, acceptor molecule, acceptor atom, score
      L1  H    11    36       P1  7957  0.04
      P1  H  7989  7998       L1    11  0.03
      P1  H  8011  8017       L1    11  0.79

> <Gold.Chemscore.Hbond.Weighted>
-2.6349

> <Gold.Chemscore.Metal.Weighted>
-0.0000

> <Gold.Chemscore.Lipo.Weighted>
-13.4009

> <Gold.Chemscore.Internal_Hbond.Weighted>
0.0000

> <Gold.Chemscore.DEClash.Weighted>
0.7292

> <Gold.Chemscore.DEInternal.Weighted>
0.7525

> <Gold.Chemscore.Rot.Weighted>
7.5097

> <Gold.Chemscore.Internal.Correction.Weighted>
   9.000000E+99

> <Gold.Protein.RotatedTorsions>
[ 6907 6896 6895 6894 ] final  -93.29 input  -60.11 | X-H torsion
[ 7974 7965 7964 7962 ] final  120.26 input  175.53 | X-H torsion
[ 8008 7997 7996 7995 ] final  -23.91 input   59.86 | X-H torsion
[ 10167 10162 10161 10158 ] final  120.58 input  -65.29 | X-H torsion
[ 10718 10713 10712 10709 ] final  -30.16 input   66.30 | X-H torsion
[ 10763 10752 10751 10750 ] final   56.50 input  -60.55 | X-H torsion
[ 11005 11000 10999 10996 ] final -152.95 input  -57.11 | X-H torsion

> <Gold.Protein.ActiveResidues>
 VAL166  LYS551  ARG553  GLY616  TRP617  ASP618  TYR619  PRO620  LYS621  CYS622 
 ASP623  PHE694  ASN695  SER759  ASP760  ASP761  ALA762  ILE779  LEU786  VAL792 
 PHE793  MET794  SER795  GLU796  ALA797  LYS798  CYS799  TRP800  GLU811  SER814 

> <Gold.Protein.RotatedAtoms>
  150.6920  134.1989  159.4314 H   0  0  0  0  0  0  0  0  0  0  0  0  # atno 6907 bound_to 6896
  151.9957  134.9953  160.0572 H   0  0  0  0  0  0  0  0  0  0  0  0  # atno 6908 bound_to 6896
  152.1626  133.4556  159.4905 H   0  0  0  0  0  0  0  0  0  0  0  0  # atno 6909 bound_to 6896
  145.1333  139.3313  143.4654 H   0  0  0  0  0  0  0  0  0  0  0  0  # atno 7974 bound_to 7965
  154.4559  140.1968  156.0382 H   0  0  0  0  0  0  0  0  0  0  0  0  # atno 8008 bound_to 7997
  156.0744  140.3280  155.7587 H   0  0  0  0  0  0  0  0  0  0  0  0  # atno 8009 bound_to 7997
  155.5212  140.0570  157.2897 H   0  0  0  0  0  0  0  0  0  0  0  0  # atno 8010 bound_to 7997
  139.5973  144.7046  151.3146 H   0  0  0  0  0  0  0  0  0  0  0  0  # atno 10167 bound_to 10162
  156.4033  130.4394  149.7306 H   0  0  0  0  0  0  0  0  0  0  0  0  # atno 10718 bound_to 10713
  152.9833  135.5674  154.5238 H   0  0  0  0  0  0  0  0  0  0  0  0  # atno 10763 bound_to 10752
  154.4722  135.2785  155.1636 H   0  0  0  0  0  0  0  0  0  0  0  0  # atno 10764 bound_to 10752
  154.3180  135.6275  153.5548 H   0  0  0  0  0  0  0  0  0  0  0  0  # atno 10765 bound_to 10752
  140.7134  134.3807  157.5194 H   0  0  0  0  0  0  0  0  0  0  0  0  # atno 11005 bound_to 11000
  146.3512  140.1341  142.8596 LP  0  0  0  0  0  0  0  0  0  0  0  0  # atno 17320 bound_to 7965
  145.0611  140.9088  143.4938 LP  0  0  0  0  0  0  0  0  0  0  0  0  # atno 17321 bound_to 7965
  140.7222  143.7104  150.7774 LP  0  0  0  0  0  0  0  0  0  0  0  0  # atno 17342 bound_to 10162
  140.0673  143.5095  152.2597 LP  0  0  0  0  0  0  0  0  0  0  0  0  # atno 17343 bound_to 10162
  156.4314  130.7817  151.2837 LP  0  0  0  0  0  0  0  0  0  0  0  0  # atno 17370 bound_to 10713
  157.7504  131.0153  150.3498 LP  0  0  0  0  0  0  0  0  0  0  0  0  # atno 17371 bound_to 10713
  139.8866  134.8905  156.2576 LP  0  0  0  0  0  0  0  0  0  0  0  0  # atno 17394 bound_to 11000
  141.0065  133.7120  156.1043 LP  0  0  0  0  0  0  0  0  0  0  0  0  # atno 17395 bound_to 11000

$$$$
