AV-unprocessed.smi:1645|AV-procd|sdf|6602|dock5
  -GOLD-   22720 7303D 1   1.00000     0.00000
 Structure written by MMmdl.
 55 58  0  0  0  0  0  0  0  0  2 V2000
  146.9899  136.1389  155.5470 O   0  0  0  0  0  0  0  0  0  0  0  0
  147.6504  136.1220  154.5089 C   0  0  0  0  0  0  0  0  0  0  0  0
  148.6706  136.9483  154.2230 N   0  0  0  0  0  0  0  0  0  0  0  0
  149.2580  137.9428  155.0504 C   0  0  0  0  0  0  0  0  0  0  0  0
  149.1429  137.9747  156.4594 C   0  0  0  0  0  0  0  0  0  0  0  0
  149.7972  138.9967  157.1738 C   0  0  0  0  0  0  0  0  0  0  0  0
  150.5575  139.9586  156.4681 C   0  0  0  0  0  0  0  0  0  0  0  0
  151.2280  140.9852  157.1686 N   0  0  0  0  0  0  0  0  0  0  0  0
  151.8208  140.6483  158.4657 C   0  0  0  0  0  0  0  0  0  0  0  0
  152.8164  141.7291  158.9209 C   0  0  0  0  0  0  0  0  0  0  0  0
  152.1640  143.1190  158.9143 C   0  0  0  0  0  0  0  0  0  0  0  0
  151.5691  143.4135  157.5295 C   0  0  0  0  0  0  0  0  0  0  0  0
  150.5950  142.3041  157.0978 C   0  0  0  0  0  0  0  0  0  0  0  0
  150.6678  139.9222  155.1174 N   0  0  0  0  0  0  0  0  0  0  0  0
  150.0418  138.9397  154.4368 C   0  0  0  0  0  0  0  0  0  0  0  0
  147.4140  135.2742  153.4979 N   0  0  0  0  0  0  0  0  0  0  0  0
  146.3681  134.2554  153.4843 C   0  0  2  0  0  0  0  0  0  0  0  0
  146.6988  133.0332  154.3477 C   0  0  0  0  0  0  0  0  0  0  0  0
  145.9806  131.8939  153.6272 C   0  0  0  0  0  0  0  0  0  0  0  0
  146.1732  132.2220  152.2074 N   0  3  1  0  0  0  0  0  0  0  0  0
  145.4752  131.3716  151.2085 C   0  0  0  0  0  0  0  0  0  0  0  0
  144.0870  131.8968  150.8253 C   0  0  0  0  0  0  0  0  0  0  0  0
  144.1860  133.3551  150.3766 C   0  0  0  0  0  0  0  0  0  0  0  0
  144.7171  134.1887  151.5429 C   0  0  0  0  0  0  0  0  0  0  0  0
  146.0945  133.7021  152.0606 C   0  0  1  0  0  0  0  0  0  0  0  0
  149.0508  136.8840  153.2901 H   0  0  0  0  0  0  0  0  0  0  0  0
  148.5817  137.2327  157.0057 H   0  0  0  0  0  0  0  0  0  0  0  0
  149.7032  139.0351  158.2489 H   0  0  0  0  0  0  0  0  0  0  0  0
  151.0259  140.5389  159.2048 H   0  0  0  0  0  0  0  0  0  0  0  0
  152.3392  139.6904  158.4049 H   0  0  0  0  0  0  0  0  0  0  0  0
  153.1899  141.4955  159.9180 H   0  0  0  0  0  0  0  0  0  0  0  0
  153.6821  141.7294  158.2573 H   0  0  0  0  0  0  0  0  0  0  0  0
  151.3784  143.1601  159.6697 H   0  0  0  0  0  0  0  0  0  0  0  0
  152.8966  143.8812  159.1809 H   0  0  0  0  0  0  0  0  0  0  0  0
  151.0572  144.3761  157.5400 H   0  0  0  0  0  0  0  0  0  0  0  0
  152.3726  143.4978  156.7967 H   0  0  0  0  0  0  0  0  0  0  0  0
  150.2336  142.5253  156.0944 H   0  0  0  0  0  0  0  0  0  0  0  0
  149.7210  142.3037  157.7506 H   0  0  0  0  0  0  0  0  0  0  0  0
  150.1702  138.9541  153.3643 H   0  0  0  0  0  0  0  0  0  0  0  0
  148.0052  135.3332  152.6817 H   0  0  0  0  0  0  0  0  0  0  0  0
  145.4588  134.6928  153.9012 H   0  0  0  0  0  0  0  0  0  0  0  0
  147.7738  132.8450  154.3483 H   0  0  0  0  0  0  0  0  0  0  0  0
  146.3779  133.1465  155.3837 H   0  0  0  0  0  0  0  0  0  0  0  0
  146.3913  130.9157  153.8791 H   0  0  0  0  0  0  0  0  0  0  0  0
  144.9157  131.8963  153.8658 H   0  0  0  0  0  0  0  0  0  0  0  0
  146.0983  131.3444  150.3136 H   0  0  0  0  0  0  0  0  0  0  0  0
  145.4149  130.3439  151.5689 H   0  0  0  0  0  0  0  0  0  0  0  0
  143.6692  131.2871  150.0234 H   0  0  0  0  0  0  0  0  0  0  0  0
  143.4042  131.8081  151.6713 H   0  0  0  0  0  0  0  0  0  0  0  0
  144.8438  133.4462  149.5113 H   0  0  0  0  0  0  0  0  0  0  0  0
  143.2058  133.7218  150.0699 H   0  0  0  0  0  0  0  0  0  0  0  0
  144.7827  135.2370  151.2507 H   0  0  0  0  0  0  0  0  0  0  0  0
  143.9774  134.1449  152.3436 H   0  0  0  0  0  0  0  0  0  0  0  0
  146.8720  133.9961  151.3537 H   0  0  0  0  0  0  0  0  0  0  0  0
  147.1515  132.0153  152.0656 H   0  0  0  0  0  0  0  0  0  0  0  0
  1  2  2  0  0  0  0
  2  3  1  0  0  0  0
  2 16  1  0  0  0  0
  3  4  1  0  0  0  0
  3 26  1  0  0  0  0
  4 15  1  0  0  0  0
  4  5  2  0  0  0  0
  5  6  1  0  0  0  0
  5 27  1  0  0  0  0
  6  7  2  0  0  0  0
  6 28  1  0  0  0  0
  7  8  1  0  0  0  0
  7 14  1  0  0  0  0
  8 13  1  0  0  0  0
  8  9  1  0  0  0  0
  9 10  1  0  0  0  0
  9 29  1  0  0  0  0
  9 30  1  0  0  0  0
 10 11  1  0  0  0  0
 10 31  1  0  0  0  0
 10 32  1  0  0  0  0
 11 12  1  0  0  0  0
 11 33  1  0  0  0  0
 11 34  1  0  0  0  0
 12 13  1  0  0  0  0
 12 35  1  0  0  0  0
 12 36  1  0  0  0  0
 13 37  1  0  0  0  0
 13 38  1  0  0  0  0
 14 15  2  0  0  0  0
 15 39  1  0  0  0  0
 16 17  1  0  0  0  0
 16 40  1  0  0  0  0
 17 25  1  0  0  0  0
 17 18  1  0  0  0  0
 17 41  1  0  0  0  0
 18 19  1  0  0  0  0
 18 42  1  0  0  0  0
 18 43  1  0  0  0  0
 19 20  1  0  0  0  0
 19 44  1  0  0  0  0
 19 45  1  0  0  0  0
 20 25  1  0  0  0  0
 20 21  1  0  0  0  0
 20 55  1  0  0  0  0
 21 22  1  0  0  0  0
 21 46  1  0  0  0  0
 21 47  1  0  0  0  0
 22 23  1  0  0  0  0
 22 48  1  0  0  0  0
 22 49  1  0  0  0  0
 23 24  1  0  0  0  0
 23 50  1  0  0  0  0
 23 51  1  0  0  0  0
 24 25  1  0  0  0  0
 24 52  1  0  0  0  0
 24 53  1  0  0  0  0
 25 54  1  0  0  0  0
M  CHG  1  20   1
M  END
> <s_m_source_file>
AV-unprocessed.smi

> <i_m_source_file_index>
1645

> <i_lp_mmshare_version>
43012

> <i_f3d_flags>
0

> <s_epik_input>
W0NIMl0xW0NIMl1bQ0gyXVtDSDJdW0NASF0oTjEyKVtDQEBIXShbQ0gyXVtDSDJdMilbTkhdQyg9TylbTkhdYzNbY0hdW2NIXWMobltjSF0zKU40W0NIMl1bQ0gyXVtDSDJdW0NIMl1bQ0gyXTQ=

> <s_epik_cmdline>
J2VwaWtfcHl0aG9uJywgJy1waCcsICc3LjAnLCAnLXRuJywgJzgnLCAnLW1hJywgJzIwMCcsICctbWV0YWxfYmluZGluZycsICctaW1hZScsICc8aW5maWxlLm1hZT4nLCAnLW9tYWUnLCAnPG91dGZpbGUubWFlPic=

> <r_lp_tautomer_probability>
1

> <r_epik_Ionization_Penalty>
0.0808019

> <r_epik_Ionization_Penalty_Charging>
0.000974069

> <r_epik_Ionization_Penalty_Neutral>
0.0798278

> <r_epik_State_Penalty>
0.0653665

> <r_epik_Charging_Adjusted_Penalty>
0.0663406

> <i_epik_Tot_Q>
1

> <i_epik_Tot_abs_Q>
1

> <r_epik_Metal_State_Penalty>
0.0585673

> <b_epik_Metal_Only>
0

> <s_lp_Force_Field>
OPLS_2005

> <r_lp_Energy>
57.6774

> <b_lp_Chiralities_Consistent>
1

> <s_lp_Variant>
AV-unprocessed.smi:1645-3

> <Gold.Version>
5.8.1

> <Gold.Id.Protein>
6NUR|6NUR_protein|mol2

> <Gold.PLP.Fitness>
45.1845

> <Gold.PLP.PLP>
-35.0342

> <Gold.PLP.part.hbond>
-2.3051

> <Gold.PLP.part.metal>
0.0000

> <Gold.PLP.part.buried>
-5.1190

> <Gold.PLP.part.nonpolar>
-28.0570

> <Gold.PLP.part.repulsive>
0.1080

> <Gold.PLP.ligand.clash>
0.0000

> <Gold.PLP.ligand.torsion>
0.8148

> <Gold.PLP.Chemscore.Hbond>
2.7908

> <Gold.PLP.Chemscore.CHOScore>
1.0000

> <Gold.PLP.Chemscore.Metal>
0.0000

> <Gold.Chemscore.Hbonds>
donor molecule, donor type, donor heavy atom, donor atom, acceptor molecule, acceptor atom, score
      L1  H     3    26       P1  7948  0.98
      L1  H    16    40       P1  7948  0.92
      P1  H  7989  7998       L1    14  0.76
      L1  C    15    39       P1  7957  1.00

> <Gold.PLP.Chemscore.Internal.Correction>
0.4074

> <Gold.Rescore>
     Score         DG    S(hbond)    S(metal)    S(lipo)     H(rot)  DE(clash)    DE(int)     intcor
     19.54     -21.78       2.10        0.00     105.21       1.17       0.36       1.89       ----

> <Gold.Chemscore.Fitness>
19.5367

> <Gold.Chemscore.DG>
-21.7836

> <Gold.Chemscore.ZeroCoef>
-5.4800

> <Gold.Chemscore.Hbond>
2.0950

> <Gold.Chemscore.Metal>
0.0000

> <Gold.Chemscore.Lipo>
105.2096

> <Gold.Chemscore.Internal_Hbond>
0.0000

> <Gold.Chemscore.DEClash>
0.3558

> <Gold.Chemscore.DEInternal>
1.8911

> <Gold.Chemscore.Rot>
1.1731

> <Gold.Chemscore.Internal.Correction>
   9.000000E+99

> <Gold.Chemscore.Hbonds>
donor molecule, donor type, donor heavy atom, donor atom, acceptor molecule, acceptor atom, score
      L1  H     3    26       P1  7948  0.90
      L1  H    16    40       P1  7948  0.83
      P1  H  7989  7998       L1    14  0.17

> <Gold.Chemscore.Hbond.Weighted>
-6.9974

> <Gold.Chemscore.Metal.Weighted>
-0.0000

> <Gold.Chemscore.Lipo.Weighted>
-12.3095

> <Gold.Chemscore.Internal_Hbond.Weighted>
0.0000

> <Gold.Chemscore.DEClash.Weighted>
0.3558

> <Gold.Chemscore.DEInternal.Weighted>
1.8911

> <Gold.Chemscore.Rot.Weighted>
3.0032

> <Gold.Chemscore.Internal.Correction.Weighted>
   9.000000E+99

> <Gold.Protein.RotatedTorsions>
[ 6907 6896 6895 6894 ] final  -30.88 input  -60.11 | X-H torsion
[ 7974 7965 7964 7962 ] final  167.39 input  175.53 | X-H torsion
[ 8008 7997 7996 7995 ] final -168.03 input   59.86 | X-H torsion
[ 10167 10162 10161 10158 ] final   75.36 input  -65.29 | X-H torsion
[ 10718 10713 10712 10709 ] final -133.43 input   66.30 | X-H torsion
[ 10763 10752 10751 10750 ] final    6.82 input  -60.55 | X-H torsion
[ 11005 11000 10999 10996 ] final   -4.31 input  -57.11 | X-H torsion

> <Gold.Protein.ActiveResidues>
 VAL166  LYS551  ARG553  GLY616  TRP617  ASP618  TYR619  PRO620  LYS621  CYS622 
 ASP623  PHE694  ASN695  SER759  ASP760  ASP761  ALA762  ILE779  LEU786  VAL792 
 PHE793  MET794  SER795  GLU796  ALA797  LYS798  CYS799  TRP800  GLU811  SER814 

> <Gold.Protein.RotatedAtoms>
  151.0995  134.9964  159.8441 H   0  0  0  0  0  0  0  0  0  0  0  0  # atno 6907 bound_to 6896
  152.5436  134.1967  159.8706 H   0  0  0  0  0  0  0  0  0  0  0  0  # atno 6908 bound_to 6896
  151.2009  133.4567  159.2629 H   0  0  0  0  0  0  0  0  0  0  0  0  # atno 6909 bound_to 6896
  144.7426  139.8755  143.6392 H   0  0  0  0  0  0  0  0  0  0  0  0  # atno 7974 bound_to 7965
  155.8858  140.1016  157.1453 H   0  0  0  0  0  0  0  0  0  0  0  0  # atno 8008 bound_to 7997
  154.4010  140.1320  156.4317 H   0  0  0  0  0  0  0  0  0  0  0  0  # atno 8009 bound_to 7997
  155.7590  140.3463  155.5191 H   0  0  0  0  0  0  0  0  0  0  0  0  # atno 8010 bound_to 7997
  140.0038  144.5666  150.7715 H   0  0  0  0  0  0  0  0  0  0  0  0  # atno 10167 bound_to 10162
  156.2448  130.7118  151.0994 H   0  0  0  0  0  0  0  0  0  0  0  0  # atno 10718 bound_to 10713
  153.2433  135.6906  153.7759 H   0  0  0  0  0  0  0  0  0  0  0  0  # atno 10763 bound_to 10752
  153.6880  135.3317  155.3196 H   0  0  0  0  0  0  0  0  0  0  0  0  # atno 10764 bound_to 10752
  154.8364  135.4538  154.1363 H   0  0  0  0  0  0  0  0  0  0  0  0  # atno 10765 bound_to 10752
  140.6789  133.9171  155.8542 H   0  0  0  0  0  0  0  0  0  0  0  0  # atno 11005 bound_to 11000
  146.1249  139.4274  143.0205 LP  0  0  0  0  0  0  0  0  0  0  0  0  # atno 17320 bound_to 7965
  145.7249  141.0062  143.1382 LP  0  0  0  0  0  0  0  0  0  0  0  0  # atno 17321 bound_to 7965
  140.7408  143.2810  151.3599 LP  0  0  0  0  0  0  0  0  0  0  0  0  # atno 17342 bound_to 10162
  139.6253  144.0826  152.2428 LP  0  0  0  0  0  0  0  0  0  0  0  0  # atno 17343 bound_to 10162
  157.7190  131.0693  150.6211 LP  0  0  0  0  0  0  0  0  0  0  0  0  # atno 17370 bound_to 10713
  156.6286  130.4426  149.5795 LP  0  0  0  0  0  0  0  0  0  0  0  0  # atno 17371 bound_to 10713
  141.0334  134.0724  157.3988 LP  0  0  0  0  0  0  0  0  0  0  0  0  # atno 17394 bound_to 11000
  139.8958  135.0143  156.7020 LP  0  0  0  0  0  0  0  0  0  0  0  0  # atno 17395 bound_to 11000

$$$$
