AV-unprocessed.smi:1389|AV-procd|sdf|5652|dock3
  -GOLD-   22720 5273D 1   1.00000     0.00000
 Structure written by MMmdl.
 53 55  0  0  0  0  0  0  0  0  3 V2000
  149.0554  138.9987  154.4728 C   0  0  0  0  0  0  0  0  0  0  0  0
  150.5581  138.7639  154.7667 C   0  0  2  0  0  0  0  0  0  0  0  0
  150.7983  137.3126  155.2689 C   0  0  0  0  0  0  0  0  0  0  0  0
  150.0211  136.3095  154.5428 N   0  0  0  0  0  0  0  0  0  0  0  0
  150.0047  134.9960  154.8134 C   0  0  0  0  0  0  0  0  0  0  0  0
  150.6301  134.4850  155.7421 O   0  0  0  0  0  0  0  0  0  0  0  0
  149.2372  134.3245  153.9385 N   0  0  0  0  0  0  0  0  0  0  0  0
  148.9960  132.9219  153.8857 C   0  0  0  0  0  0  0  0  0  0  0  0
  149.8057  131.9839  154.5758 C   0  0  0  0  0  0  0  0  0  0  0  0
  149.5034  130.6100  154.4993 C   0  0  0  0  0  0  0  0  0  0  0  0
  148.3919  130.1945  153.7437 C   0  0  0  0  0  0  0  0  0  0  0  0
  147.6315  131.1131  153.1117 N   0  3  0  0  0  0  0  0  0  0  0  0
  147.8798  132.4454  153.1515 C   0  0  0  0  0  0  0  0  0  0  0  0
  147.0208  133.3185  152.4617 N   0  0  0  0  0  0  0  0  0  0  0  0
  146.1521  132.7051  151.4702 C   0  0  0  0  0  0  0  0  0  0  0  0
  145.0818  133.7550  151.1619 C   0  0  0  0  0  0  0  0  0  0  0  0
  145.0733  134.6791  152.3858 C   0  0  0  0  0  0  0  0  0  0  0  0
  146.1563  134.1190  153.3122 C   0  0  0  0  0  0  0  0  0  0  0  0
  151.1167  139.7738  155.7293 N   0  3  0  0  0  0  0  0  0  0  0  0
  150.6486  141.1639  155.4650 C   0  0  0  0  0  0  0  0  0  0  0  0
  151.2671  142.1656  156.4539 C   0  0  0  0  0  0  0  0  0  0  0  0
  150.9458  141.7835  157.7814 O   0  0  0  0  0  0  0  0  0  0  0  0
  151.4938  140.5134  158.0952 C   0  0  0  0  0  0  0  0  0  0  0  0
  150.8979  139.4414  157.1663 C   0  0  0  0  0  0  0  0  0  0  0  0
  148.6473  138.2467  153.7989 H   0  0  0  0  0  0  0  0  0  0  0  0
  148.8742  139.9487  153.9713 H   0  0  0  0  0  0  0  0  0  0  0  0
  148.4631  138.9750  155.3881 H   0  0  0  0  0  0  0  0  0  0  0  0
  151.0906  138.8855  153.8220 H   0  0  0  0  0  0  0  0  0  0  0  0
  151.8340  137.0130  155.1229 H   0  0  0  0  0  0  0  0  0  0  0  0
  150.6138  137.2527  156.3430 H   0  0  0  0  0  0  0  0  0  0  0  0
  149.4742  136.6400  153.7609 H   0  0  0  0  0  0  0  0  0  0  0  0
  148.8612  134.8608  153.1702 H   0  0  0  0  0  0  0  0  0  0  0  0
  150.6472  132.2962  155.1751 H   0  0  0  0  0  0  0  0  0  0  0  0
  150.1140  129.8853  155.0181 H   0  0  0  0  0  0  0  0  0  0  0  0
  148.0860  129.1644  153.6315 H   0  0  0  0  0  0  0  0  0  0  0  0
  146.7111  132.4278  150.5759 H   0  0  0  0  0  0  0  0  0  0  0  0
  145.6847  131.8034  151.8683 H   0  0  0  0  0  0  0  0  0  0  0  0
  145.3532  134.3223  150.2707 H   0  0  0  0  0  0  0  0  0  0  0  0
  144.1093  133.2967  150.9801 H   0  0  0  0  0  0  0  0  0  0  0  0
  145.3198  135.6978  152.0836 H   0  0  0  0  0  0  0  0  0  0  0  0
  144.1008  134.7055  152.8779 H   0  0  0  0  0  0  0  0  0  0  0  0
  145.7040  133.4979  154.0867 H   0  0  0  0  0  0  0  0  0  0  0  0
  146.7161  134.9157  153.8031 H   0  0  0  0  0  0  0  0  0  0  0  0
  150.9211  141.4920  154.4643 H   0  0  0  0  0  0  0  0  0  0  0  0
  149.5602  141.2011  155.5315 H   0  0  0  0  0  0  0  0  0  0  0  0
  152.3496  142.2239  156.3262 H   0  0  0  0  0  0  0  0  0  0  0  0
  150.8724  143.1650  156.2705 H   0  0  0  0  0  0  0  0  0  0  0  0
  152.5816  140.5407  158.0129 H   0  0  0  0  0  0  0  0  0  0  0  0
  151.2612  140.2788  159.1341 H   0  0  0  0  0  0  0  0  0  0  0  0
  149.8292  139.3334  157.3576 H   0  0  0  0  0  0  0  0  0  0  0  0
  151.3747  138.4978  157.4264 H   0  0  0  0  0  0  0  0  0  0  0  0
  152.1177  139.7754  155.5927 H   0  0  0  0  0  0  0  0  0  0  0  0
  146.8273  130.7863  152.5757 H   0  0  0  0  0  0  0  0  0  0  0  0
  1  2  1  0  0  0  0
  1 25  1  0  0  0  0
  1 26  1  0  0  0  0
  1 27  1  0  0  0  0
  2  3  1  0  0  0  0
  2 19  1  0  0  0  0
  2 28  1  0  0  0  0
  3  4  1  0  0  0  0
  3 29  1  0  0  0  0
  3 30  1  0  0  0  0
  4  5  1  0  0  0  0
  4 31  1  0  0  0  0
  5  6  2  0  0  0  0
  5  7  1  0  0  0  0
  7  8  1  0  0  0  0
  7 32  1  0  0  0  0
  8 13  1  0  0  0  0
  8  9  2  0  0  0  0
  9 10  1  0  0  0  0
  9 33  1  0  0  0  0
 10 11  2  0  0  0  0
 10 34  1  0  0  0  0
 11 12  1  0  0  0  0
 11 35  1  0  0  0  0
 12 13  2  0  0  0  0
 12 53  1  0  0  0  0
 13 14  1  0  0  0  0
 14 18  1  0  0  0  0
 14 15  1  0  0  0  0
 15 16  1  0  0  0  0
 15 36  1  0  0  0  0
 15 37  1  0  0  0  0
 16 17  1  0  0  0  0
 16 38  1  0  0  0  0
 16 39  1  0  0  0  0
 17 18  1  0  0  0  0
 17 40  1  0  0  0  0
 17 41  1  0  0  0  0
 18 42  1  0  0  0  0
 18 43  1  0  0  0  0
 19 24  1  0  0  0  0
 19 20  1  0  0  0  0
 19 52  1  0  0  0  0
 20 21  1  0  0  0  0
 20 44  1  0  0  0  0
 20 45  1  0  0  0  0
 21 22  1  0  0  0  0
 21 46  1  0  0  0  0
 21 47  1  0  0  0  0
 22 23  1  0  0  0  0
 23 24  1  0  0  0  0
 23 48  1  0  0  0  0
 23 49  1  0  0  0  0
 24 50  1  0  0  0  0
 24 51  1  0  0  0  0
M  CHG  1  12   1
M  CHG  1  19   1
M  END
> <s_m_source_file>
AV-unprocessed.smi

> <i_m_source_file_index>
1389

> <i_lp_mmshare_version>
43012

> <i_f3d_flags>
0

> <s_epik_input>
W0NIMl0xW0NIMl1PW0NIMl1bQ0gyXU4xW0NASF0oW0NIM10pW0NIMl1bTkhdQyg9TylbTkhdYzJbY0hdW2NIXVtjSF1uYzJOM1tDSDJdW0NIMl1bQ0gyXVtDSDJdMw==

> <s_epik_cmdline>
J2VwaWtfcHl0aG9uJywgJy1waCcsICc3LjAnLCAnLXRuJywgJzgnLCAnLW1hJywgJzIwMCcsICctbWV0YWxfYmluZGluZycsICctaW1hZScsICc8aW5maWxlLm1hZT4nLCAnLW9tYWUnLCAnPG91dGZpbGUubWFlPic=

> <r_lp_tautomer_probability>
0.999994

> <r_epik_Ionization_Penalty>
1.80872

> <r_epik_Ionization_Penalty_Charging>
1.8087

> <r_epik_Ionization_Penalty_Neutral>
2.02981e-05

> <r_epik_State_Penalty>
1.84892

> <r_epik_Charging_Adjusted_Penalty>
3.65762

> <i_epik_Tot_Q>
2

> <i_epik_Tot_abs_Q>
2

> <r_epik_Metal_State_Penalty>
1.9311

> <b_epik_Metal_Only>
0

> <s_lp_Force_Field>
OPLS_2005

> <r_lp_Energy>
59.2072

> <b_lp_Chiralities_Consistent>
1

> <s_lp_Variant>
AV-unprocessed.smi:1389-7

> <Gold.Version>
5.8.1

> <Gold.Id.Protein>
6NUR|6NUR_protein|mol2

> <Gold.PLP.Fitness>
41.7684

> <Gold.PLP.PLP>
-39.1552

> <Gold.PLP.part.hbond>
-3.1140

> <Gold.PLP.part.metal>
0.0000

> <Gold.PLP.part.buried>
-5.4481

> <Gold.PLP.part.nonpolar>
-31.4027

> <Gold.PLP.part.repulsive>
0.4116

> <Gold.PLP.ligand.clash>
0.9543

> <Gold.PLP.ligand.torsion>
0.8742

> <Gold.PLP.Chemscore.Hbond>
1.7460

> <Gold.PLP.Chemscore.CHOScore>
0.0000

> <Gold.PLP.Chemscore.Metal>
0.0000

> <Gold.Chemscore.Hbonds>
donor molecule, donor type, donor heavy atom, donor atom, acceptor molecule, acceptor atom, score
      L1  H     4    31       P1  7948  0.85
      L1  H     7    32       P1  7948  0.95

> <Gold.PLP.Chemscore.Internal.Correction>
0.0780

> <Gold.Rescore>
     Score         DG    S(hbond)    S(metal)    S(lipo)     H(rot)  DE(clash)    DE(int)     intcor
     12.02     -13.98       1.02        0.00      79.87       1.66       0.01       1.95       ----

> <Gold.Chemscore.Fitness>
12.0156

> <Gold.Chemscore.DG>
-13.9780

> <Gold.Chemscore.ZeroCoef>
-5.4800

> <Gold.Chemscore.Hbond>
1.0204

> <Gold.Chemscore.Metal>
0.0000

> <Gold.Chemscore.Lipo>
79.8680

> <Gold.Chemscore.Internal_Hbond>
0.0000

> <Gold.Chemscore.DEClash>
0.0149

> <Gold.Chemscore.DEInternal>
1.9476

> <Gold.Chemscore.Rot>
1.6620

> <Gold.Chemscore.Internal.Correction>
   9.000000E+99

> <Gold.Chemscore.Hbonds>
donor molecule, donor type, donor heavy atom, donor atom, acceptor molecule, acceptor atom, score
      L1  H     4    31       P1  7948  0.71
      L1  H     7    32       P1  7948  0.21

> <Gold.Chemscore.Hbond.Weighted>
-3.4082

> <Gold.Chemscore.Metal.Weighted>
-0.0000

> <Gold.Chemscore.Lipo.Weighted>
-9.3446

> <Gold.Chemscore.Internal_Hbond.Weighted>
0.0000

> <Gold.Chemscore.DEClash.Weighted>
0.0149

> <Gold.Chemscore.DEInternal.Weighted>
1.9476

> <Gold.Chemscore.Rot.Weighted>
4.2547

> <Gold.Chemscore.Internal.Correction.Weighted>
   9.000000E+99

> <Gold.Protein.RotatedTorsions>
[ 6907 6896 6895 6894 ] final -142.03 input  -60.11 | X-H torsion
[ 7974 7965 7964 7962 ] final -166.26 input  175.53 | X-H torsion
[ 8008 7997 7996 7995 ] final   85.23 input   59.86 | X-H torsion
[ 10167 10162 10161 10158 ] final   31.25 input  -65.29 | X-H torsion
[ 10718 10713 10712 10709 ] final   11.07 input   66.30 | X-H torsion
[ 10763 10752 10751 10750 ] final    6.07 input  -60.55 | X-H torsion
[ 11005 11000 10999 10996 ] final  125.53 input  -57.11 | X-H torsion

> <Gold.Protein.ActiveResidues>
 VAL166  LYS551  ARG553  GLY616  TRP617  ASP618  TYR619  PRO620  LYS621  CYS622 
 ASP623  PHE694  ASN695  SER759  ASP760  ASP761  ALA762  ILE779  LEU786  VAL792 
 PHE793  MET794  SER795  GLU796  ALA797  LYS798  CYS799  TRP800  GLU811  SER814 

> <Gold.Protein.RotatedAtoms>
  151.0816  133.5386  159.2620 H   0  0  0  0  0  0  0  0  0  0  0  0  # atno 6907 bound_to 6896
  151.2287  135.0545  159.8989 H   0  0  0  0  0  0  0  0  0  0  0  0  # atno 6908 bound_to 6896
  152.5424  134.0608  159.8205 H   0  0  0  0  0  0  0  0  0  0  0  0  # atno 6909 bound_to 6896
  144.7249  140.2692  143.6253 H   0  0  0  0  0  0  0  0  0  0  0  0  # atno 7974 bound_to 7965
  155.9473  140.3403  155.6378 H   0  0  0  0  0  0  0  0  0  0  0  0  # atno 8008 bound_to 7997
  155.6964  140.0755  157.2446 H   0  0  0  0  0  0  0  0  0  0  0  0  # atno 8009 bound_to 7997
  154.4114  140.1648  156.2130 H   0  0  0  0  0  0  0  0  0  0  0  0  # atno 8010 bound_to 7997
  140.4605  144.0914  150.6212 H   0  0  0  0  0  0  0  0  0  0  0  0  # atno 10167 bound_to 10162
  156.9902  130.6039  149.5685 H   0  0  0  0  0  0  0  0  0  0  0  0  # atno 10718 bound_to 10713
  153.2520  135.6914  153.7669 H   0  0  0  0  0  0  0  0  0  0  0  0  # atno 10763 bound_to 10752
  153.6760  135.3336  155.3166 H   0  0  0  0  0  0  0  0  0  0  0  0  # atno 10764 bound_to 10752
  154.8398  135.4511  154.1481 H   0  0  0  0  0  0  0  0  0  0  0  0  # atno 10765 bound_to 10752
  139.9411  134.9635  156.8571 H   0  0  0  0  0  0  0  0  0  0  0  0  # atno 11005 bound_to 11000
  145.8059  139.1983  143.2021 LP  0  0  0  0  0  0  0  0  0  0  0  0  # atno 17320 bound_to 7965
  146.0637  140.7944  142.9722 LP  0  0  0  0  0  0  0  0  0  0  0  0  # atno 17321 bound_to 7965
  140.4099  143.2662  151.9845 LP  0  0  0  0  0  0  0  0  0  0  0  0  # atno 17342 bound_to 10162
  139.4806  144.5924  151.7748 LP  0  0  0  0  0  0  0  0  0  0  0  0  # atno 17343 bound_to 10162
  156.0210  130.5305  150.8275 LP  0  0  0  0  0  0  0  0  0  0  0  0  # atno 17370 bound_to 10713
  157.5464  131.0942  150.9757 LP  0  0  0  0  0  0  0  0  0  0  0  0  # atno 17371 bound_to 10713
  140.5950  134.0225  155.7514 LP  0  0  0  0  0  0  0  0  0  0  0  0  # atno 17394 bound_to 11000
  141.1045  133.9715  157.3021 LP  0  0  0  0  0  0  0  0  0  0  0  0  # atno 17395 bound_to 11000

$$$$
