AV-unprocessed.smi:157|AV-procd|sdf|1292|dock10
  -GOLD-   2262018573D 1   1.00000     0.00000
 Structure written by MMmdl.
 35 37  0  0  0  0  0  0  0  0  1 V2000
  146.8577  131.3017  151.6682 O   0  0  0  0  0  0  0  0  0  0  0  0
  145.6860  131.3760  150.8841 C   0  0  0  0  0  0  0  0  0  0  0  0
  145.4217  132.8279  150.4484 C   0  0  2  0  0  0  0  0  0  0  0  0
  145.3267  133.6889  151.5792 O   0  0  0  0  0  0  0  0  0  0  0  0
  144.4617  134.7532  151.3091 C   0  0  1  0  0  0  0  0  0  0  0  0
  145.2294  136.0345  151.4189 N   0  0  0  0  0  0  0  0  0  0  0  0
  145.8916  136.6508  150.4306 C   0  0  0  0  0  0  0  0  0  0  0  0
  146.4829  137.7790  150.7850 N   0  0  0  0  0  0  0  0  0  0  0  0
  146.1753  137.9087  152.1382 C   0  0  0  0  0  0  0  0  0  0  0  0
  145.3953  136.8376  152.5509 C   0  0  0  0  0  0  0  0  0  0  0  0
  144.7920  136.4430  153.7296 N   0  0  0  0  0  0  0  0  0  0  0  0
  145.2305  136.9543  154.8364 C   0  0  0  0  0  0  0  0  0  0  0  0
  146.1796  137.9437  155.0496 N   0  0  0  0  0  0  0  0  0  0  0  0
  146.1741  139.2146  154.3454 C   0  0  0  0  0  0  0  0  0  0  0  0
  146.6583  139.1138  152.8932 C   0  0  1  0  0  0  0  0  0  0  0  0
  148.0707  139.0731  152.8758 O   0  0  0  0  0  0  0  0  0  0  0  0
  143.9335  134.5746  149.8819 C   0  0  0  0  0  0  0  0  0  0  0  0
  144.1371  133.0917  149.6503 C   0  0  2  0  0  0  0  0  0  0  0  0
  143.0353  132.3500  150.1395 O   0  0  0  0  0  0  0  0  0  0  0  0
  146.2705  133.1832  149.8613 H   0  0  0  0  0  0  0  0  0  0  0  0
  143.6817  134.7945  152.0697 H   0  0  0  0  0  0  0  0  0  0  0  0
  146.3632  140.0224  152.3678 H   0  0  0  0  0  0  0  0  0  0  0  0
  144.2645  132.8604  148.5923 H   0  0  0  0  0  0  0  0  0  0  0  0
  147.5348  130.8865  151.1560 H   0  0  0  0  0  0  0  0  0  0  0  0
  145.7725  130.7086  150.0265 H   0  0  0  0  0  0  0  0  0  0  0  0
  144.8513  131.0127  151.4839 H   0  0  0  0  0  0  0  0  0  0  0  0
  145.9379  136.2656  149.4228 H   0  0  0  0  0  0  0  0  0  0  0  0
  144.8154  136.5885  155.7766 H   0  0  0  0  0  0  0  0  0  0  0  0
  146.5753  138.0393  155.9736 H   0  0  0  0  0  0  0  0  0  0  0  0
  145.1460  139.5796  154.3473 H   0  0  0  0  0  0  0  0  0  0  0  0
  146.7582  139.9499  154.8996 H   0  0  0  0  0  0  0  0  0  0  0  0
  148.3702  139.5670  152.1277 H   0  0  0  0  0  0  0  0  0  0  0  0
  142.8993  134.9097  149.7935 H   0  0  0  0  0  0  0  0  0  0  0  0
  144.5492  135.1469  149.1859 H   0  0  0  0  0  0  0  0  0  0  0  0
  142.2406  132.7687  149.8458 H   0  0  0  0  0  0  0  0  0  0  0  0
  1  2  1  0  0  0  0
  1 24  1  0  0  0  0
  2  3  1  0  0  0  0
  2 25  1  0  0  0  0
  2 26  1  0  0  0  0
  3 20  1  0  0  0  0
  3 18  1  0  0  0  0
  3  4  1  0  0  0  0
  4  5  1  0  0  0  0
  5 21  1  0  0  0  0
  5  6  1  0  0  0  0
  5 17  1  0  0  0  0
  6 10  1  0  0  0  0
  6  7  1  0  0  0  0
  7  8  2  0  0  0  0
  7 27  1  0  0  0  0
  8  9  1  0  0  0  0
  9 15  1  0  0  0  0
  9 10  2  0  0  0  0
 10 11  1  0  0  0  0
 11 12  2  0  0  0  0
 12 13  1  0  0  0  0
 12 28  1  0  0  0  0
 13 14  1  0  0  0  0
 13 29  1  0  0  0  0
 14 15  1  0  0  0  0
 14 30  1  0  0  0  0
 14 31  1  0  0  0  0
 15 22  1  0  0  0  0
 15 16  1  0  0  0  0
 16 32  1  0  0  0  0
 17 18  1  0  0  0  0
 17 33  1  0  0  0  0
 17 34  1  0  0  0  0
 18 23  1  0  0  0  0
 18 19  1  0  0  0  0
 19 35  1  0  0  0  0
M  END
> <s_m_source_file>
AV-unprocessed.smi

> <i_m_source_file_index>
157

> <i_lp_mmshare_version>
43012

> <i_f3d_flags>
0

> <s_epik_input>
W09IXVtDSDJdW0NASF0xT1tDQEhdKFtDSDJdW0NAQEhdMVtPSF0pbihbY0hdbjIpYyhjMjMpTj1bQ0hdW05IXVtDSDJdW0NASF0zW09IXQ==

> <s_epik_cmdline>
J2VwaWtfcHl0aG9uJywgJy1waCcsICc3LjAnLCAnLXRuJywgJzgnLCAnLW1hJywgJzIwMCcsICctbWV0YWxfYmluZGluZycsICctaW1hZScsICc8aW5maWxlLm1hZT4nLCAnLW9tYWUnLCAnPG91dGZpbGUubWFlPic=

> <r_lp_tautomer_probability>
1

> <r_epik_Ionization_Penalty>
0.0357149

> <r_epik_Ionization_Penalty_Charging>
0.0355056

> <r_epik_Ionization_Penalty_Neutral>
0.000209255

> <r_epik_State_Penalty>
0.0296046

> <r_epik_Charging_Adjusted_Penalty>
0.0651102

> <i_epik_Tot_Q>
0

> <i_epik_Tot_abs_Q>
0

> <r_epik_Metal_State_Penalty>
3.03559e-05

> <b_epik_Metal_Only>
0

> <s_epik_Chemistry_Notes>
This compound has an imine and may undergo hydrolysis. This compound contains an acetal/aminal-like group ( X-CH(R)-Y where X, Y are N, S, or O) that may be acid/base labile, releasing an aldehyde.

> <s_lp_Force_Field>
OPLS_2005

> <r_lp_Energy>
45.9661

> <b_lp_Chiralities_Consistent>
1

> <s_lp_Variant>
AV-unprocessed.smi:157-2

> <Gold.Version>
5.8.1

> <Gold.Id.Protein>
6NUR|6NUR_protein|mol2

> <Gold.PLP.Fitness>
40.9798

> <Gold.PLP.PLP>
-27.5050

> <Gold.PLP.part.hbond>
-5.6888

> <Gold.PLP.part.metal>
0.0000

> <Gold.PLP.part.buried>
-2.0188

> <Gold.PLP.part.nonpolar>
-24.0044

> <Gold.PLP.part.repulsive>
2.4401

> <Gold.PLP.ligand.clash>
0.0000

> <Gold.PLP.ligand.torsion>
0.7522

> <Gold.PLP.Chemscore.Hbond>
3.9913

> <Gold.PLP.Chemscore.CHOScore>
1.0000

> <Gold.PLP.Chemscore.Metal>
0.0000

> <Gold.Chemscore.Hbonds>
donor molecule, donor type, donor heavy atom, donor atom, acceptor molecule, acceptor atom, score
      L1  H     1    24       P1 10747  1.00
      L1  H    16    32       P1  7957  0.99
      L1  H    19    35       P1 10186  0.89
      P1  H  7954  7966       L1     8  1.00
      L1  C     7    27       P1  7921  1.00

> <Gold.PLP.Chemscore.Internal.Correction>
0.0055

> <Gold.Rescore>
     Score         DG    S(hbond)    S(metal)    S(lipo)     H(rot)  DE(clash)    DE(int)     intcor
     10.13     -13.29       3.23        0.00      53.98       3.64       2.56       0.60       ----

> <Gold.Chemscore.Fitness>
10.1274

> <Gold.Chemscore.DG>
-13.2897

> <Gold.Chemscore.ZeroCoef>
-5.4800

> <Gold.Chemscore.Hbond>
3.2344

> <Gold.Chemscore.Metal>
0.0000

> <Gold.Chemscore.Lipo>
53.9782

> <Gold.Chemscore.Internal_Hbond>
0.0000

> <Gold.Chemscore.DEClash>
2.5589

> <Gold.Chemscore.DEInternal>
0.6035

> <Gold.Chemscore.Rot>
3.6362

> <Gold.Chemscore.Internal.Correction>
   9.000000E+99

> <Gold.Chemscore.Hbonds>
donor molecule, donor type, donor heavy atom, donor atom, acceptor molecule, acceptor atom, score
      L1  H     1    24       P1 10747  0.98
      L1  H    16    32       P1  7957  0.94
      L1  H    19    35       P1 10186  0.83
      P1  H  7954  7966       L1     8  0.64

> <Gold.Chemscore.Hbond.Weighted>
-10.8030

> <Gold.Chemscore.Metal.Weighted>
-0.0000

> <Gold.Chemscore.Lipo.Weighted>
-6.3155

> <Gold.Chemscore.Internal_Hbond.Weighted>
0.0000

> <Gold.Chemscore.DEClash.Weighted>
2.5589

> <Gold.Chemscore.DEInternal.Weighted>
0.6035

> <Gold.Chemscore.Rot.Weighted>
9.3087

> <Gold.Chemscore.Internal.Correction.Weighted>
   9.000000E+99

> <Gold.Protein.RotatedTorsions>
[ 6907 6896 6895 6894 ] final -154.15 input  -60.11 | X-H torsion
[ 7974 7965 7964 7962 ] final -119.68 input  175.53 | X-H torsion
[ 8008 7997 7996 7995 ] final  170.54 input   59.86 | X-H torsion
[ 10167 10162 10161 10158 ] final  -66.39 input  -65.29 | X-H torsion
[ 10718 10713 10712 10709 ] final  -29.48 input   66.30 | X-H torsion
[ 10763 10752 10751 10750 ] final  -76.02 input  -60.55 | X-H torsion
[ 11005 11000 10999 10996 ] final  -85.37 input  -57.11 | X-H torsion

> <Gold.Protein.ActiveResidues>
 VAL166  LYS551  ARG553  GLY616  TRP617  ASP618  TYR619  PRO620  LYS621  CYS622 
 ASP623  PHE694  ASN695  SER759  ASP760  ASP761  ALA762  ILE779  LEU786  VAL792 
 PHE793  MET794  SER795  GLU796  ALA797  LYS798  CYS799  TRP800  GLU811  SER814 

> <Gold.Protein.RotatedAtoms>
  151.2532  133.4339  159.2612 H   0  0  0  0  0  0  0  0  0  0  0  0  # atno 6907 bound_to 6896
  151.0598  134.9729  159.8265 H   0  0  0  0  0  0  0  0  0  0  0  0  # atno 6908 bound_to 6896
  152.5396  134.2483  159.8941 H   0  0  0  0  0  0  0  0  0  0  0  0  # atno 6909 bound_to 6896
  145.0598  140.8281  143.4159 H   0  0  0  0  0  0  0  0  0  0  0  0  # atno 7974 bound_to 7965
  156.1356  140.1535  156.8999 H   0  0  0  0  0  0  0  0  0  0  0  0  # atno 8008 bound_to 7997
  154.4944  140.0842  156.7704 H   0  0  0  0  0  0  0  0  0  0  0  0  # atno 8009 bound_to 7997
  155.4175  140.3421  155.4271 H   0  0  0  0  0  0  0  0  0  0  0  0  # atno 8010 bound_to 7997
  140.5660  143.2315  151.6633 H   0  0  0  0  0  0  0  0  0  0  0  0  # atno 10167 bound_to 10162
  156.4120  130.4410  149.7245 H   0  0  0  0  0  0  0  0  0  0  0  0  # atno 10718 bound_to 10713
  154.4943  135.5811  153.6483 H   0  0  0  0  0  0  0  0  0  0  0  0  # atno 10763 bound_to 10752
  152.9867  135.6120  154.3084 H   0  0  0  0  0  0  0  0  0  0  0  0  # atno 10764 bound_to 10752
  154.2986  135.2847  155.2601 H   0  0  0  0  0  0  0  0  0  0  0  0  # atno 10765 bound_to 10752
  141.1642  133.7396  156.9005 H   0  0  0  0  0  0  0  0  0  0  0  0  # atno 11005 bound_to 11000
  145.1423  139.2564  143.5483 LP  0  0  0  0  0  0  0  0  0  0  0  0  # atno 17320 bound_to 7965
  146.3523  140.1104  142.8604 LP  0  0  0  0  0  0  0  0  0  0  0  0  # atno 17321 bound_to 7965
  139.5093  144.3580  152.0589 LP  0  0  0  0  0  0  0  0  0  0  0  0  # atno 17342 bound_to 10162
  140.2712  144.3962  150.6150 LP  0  0  0  0  0  0  0  0  0  0  0  0  # atno 17343 bound_to 10162
  156.4220  130.7773  151.2791 LP  0  0  0  0  0  0  0  0  0  0  0  0  # atno 17370 bound_to 10713
  157.7507  131.0180  150.3607 LP  0  0  0  0  0  0  0  0  0  0  0  0  # atno 17371 bound_to 10713
  140.1586  134.9181  157.2685 LP  0  0  0  0  0  0  0  0  0  0  0  0  # atno 17394 bound_to 11000
  140.2638  134.3540  155.7397 LP  0  0  0  0  0  0  0  0  0  0  0  0  # atno 17395 bound_to 11000

$$$$
