AV-unprocessed.smi:2033|AV-procd|sdf|8262|dock1
  -GOLD-   2272010533D 1   1.00000     0.00000
 Structure written by MMmdl.
 32 33  0  0  0  0  0  0  0  0  2 V2000
  152.5428  142.6654  161.5696 C   0  0  0  0  0  0  0  0  0  0  0  0
  152.3162  141.9764  160.2680 C   0  0  0  0  0  0  0  0  0  0  0  0
  151.2388  142.1985  159.5111 N   0  0  0  0  0  0  0  0  0  0  0  0
  151.2510  141.4401  158.3493 N   0  0  0  0  0  0  0  0  0  0  0  0
  152.3294  140.6500  158.2482 C   0  0  0  0  0  0  0  0  0  0  0  0
  152.5334  139.8389  157.1973 N   0  5  0  0  0  0  0  0  0  0  0  0
  151.7179  139.9111  156.1207 C   0  0  0  0  0  0  0  0  0  0  0  0
  152.0701  140.0248  154.9442 O   0  0  0  0  0  0  0  0  0  0  0  0
  150.4124  139.8503  156.4258 N   0  0  0  0  0  0  0  0  0  0  0  0
  149.2972  139.9072  155.4762 C   0  0  1  0  0  0  0  0  0  0  0  0
  149.3396  141.2908  154.7874 C   0  0  0  0  0  0  0  0  0  0  0  0
  147.9887  141.7317  154.1969 C   0  0  0  0  0  0  0  0  0  0  0  0
  147.4702  140.8628  153.0407 C   0  0  0  0  0  0  0  0  0  0  0  0
  147.1932  139.4032  153.4393 C   0  0  0  0  0  0  0  0  0  0  0  0
  148.4175  138.6193  153.5351 N   0  0  0  0  0  0  0  0  0  0  0  0
  149.4252  138.8011  154.4023 C   0  0  0  0  0  0  0  0  0  0  0  0
  150.4347  138.1000  154.3344 O   0  0  0  0  0  0  0  0  0  0  0  0
  153.4436  140.8048  159.6065 S   0  0  0  0  0  0  0  0  0  0  0  0
  151.9510  142.1885  162.3510 H   0  0  0  0  0  0  0  0  0  0  0  0
  152.2522  143.7140  161.4980 H   0  0  0  0  0  0  0  0  0  0  0  0
  153.5958  142.6145  161.8468 H   0  0  0  0  0  0  0  0  0  0  0  0
  150.1721  139.7664  157.4022 H   0  0  0  0  0  0  0  0  0  0  0  0
  148.3607  139.7911  156.0245 H   0  0  0  0  0  0  0  0  0  0  0  0
  149.6262  142.0445  155.5223 H   0  0  0  0  0  0  0  0  0  0  0  0
  150.1161  141.3229  154.0210 H   0  0  0  0  0  0  0  0  0  0  0  0
  147.2409  141.7621  154.9904 H   0  0  0  0  0  0  0  0  0  0  0  0
  148.0848  142.7581  153.8416 H   0  0  0  0  0  0  0  0  0  0  0  0
  146.5407  141.3030  152.6779 H   0  0  0  0  0  0  0  0  0  0  0  0
  148.1650  140.8989  152.2005 H   0  0  0  0  0  0  0  0  0  0  0  0
  146.6278  139.3469  154.3705 H   0  0  0  0  0  0  0  0  0  0  0  0
  146.5725  138.9349  152.6751 H   0  0  0  0  0  0  0  0  0  0  0  0
  148.5283  137.8809  152.8556 H   0  0  0  0  0  0  0  0  0  0  0  0
  1  2  1  0  0  0  0
  1 19  1  0  0  0  0
  1 20  1  0  0  0  0
  1 21  1  0  0  0  0
  2 18  1  0  0  0  0
  2  3  2  0  0  0  0
  3  4  1  0  0  0  0
  4  5  2  0  0  0  0
  5  6  1  0  0  0  0
  5 18  1  0  0  0  0
  6  7  1  0  0  0  0
  7  8  2  0  0  0  0
  7  9  1  0  0  0  0
  9 10  1  0  0  0  0
  9 22  1  0  0  0  0
 10 16  1  0  0  0  0
 10 11  1  0  0  0  0
 10 23  1  0  0  0  0
 11 12  1  0  0  0  0
 11 24  1  0  0  0  0
 11 25  1  0  0  0  0
 12 13  1  0  0  0  0
 12 26  1  0  0  0  0
 12 27  1  0  0  0  0
 13 14  1  0  0  0  0
 13 28  1  0  0  0  0
 13 29  1  0  0  0  0
 14 15  1  0  0  0  0
 14 30  1  0  0  0  0
 14 31  1  0  0  0  0
 15 16  1  0  0  0  0
 15 32  1  0  0  0  0
 16 17  2  0  0  0  0
M  CHG  1   6  -1
M  END
> <s_m_source_file>
AV-unprocessed.smi

> <i_m_source_file_index>
2033

> <i_lp_mmshare_version>
43012

> <i_f3d_flags>
0

> <s_epik_input>
W0NIM11jMW5uYyhzMSlbTkhdQyg9TylbTkhdW0NAQEhdMltDSDJdW0NIMl1bQ0gyXVtDSDJdW05IXUMyPU8=

> <s_epik_cmdline>
J2VwaWtfcHl0aG9uJywgJy1waCcsICc3LjAnLCAnLXRuJywgJzgnLCAnLW1hJywgJzIwMCcsICctbWV0YWxfYmluZGluZycsICctaW1hZScsICc8aW5maWxlLm1hZT4nLCAnLW9tYWUnLCAnPG91dGZpbGUubWFlPic=

> <r_lp_tautomer_probability>
1

> <r_epik_Ionization_Penalty>
4.07233

> <r_epik_Ionization_Penalty_Charging>
3.9374

> <r_epik_Ionization_Penalty_Neutral>
0.134927

> <r_epik_State_Penalty>
3.93663

> <r_epik_Charging_Adjusted_Penalty>
7.87404

> <i_epik_Tot_Q>
-1

> <i_epik_Tot_abs_Q>
1

> <r_epik_Metal_State_Penalty>
0.602812

> <b_epik_Metal_Only>
1

> <s_lp_Force_Field>
OPLS_2005

> <r_lp_Energy>
8.77885

> <b_lp_Chiralities_Consistent>
1

> <s_lp_Variant>
AV-unprocessed.smi:2033-4

> <Gold.Version>
5.8.1

> <Gold.Id.Protein>
6NUR|6NUR_protein|mol2

> <Gold.PLP.Fitness>
43.9865

> <Gold.PLP.PLP>
-33.5862

> <Gold.PLP.part.hbond>
-4.2536

> <Gold.PLP.part.metal>
0.0000

> <Gold.PLP.part.buried>
-3.9867

> <Gold.PLP.part.nonpolar>
-26.0896

> <Gold.PLP.part.repulsive>
0.3580

> <Gold.PLP.ligand.clash>
0.0000

> <Gold.PLP.ligand.torsion>
0.4796

> <Gold.PLP.Chemscore.Hbond>
3.7840

> <Gold.PLP.Chemscore.CHOScore>
0.0000

> <Gold.PLP.Chemscore.Metal>
0.0000

> <Gold.Chemscore.Hbonds>
donor molecule, donor type, donor heavy atom, donor atom, acceptor molecule, acceptor atom, score
      L1  H    15    32       P1  7948  1.00
      P1  H  7989  7998       L1     8  0.80
      P1  H  7997  8010       L1     6  2.00

> <Gold.PLP.Chemscore.Internal.Correction>
0.0076

> <Gold.Rescore>
     Score         DG    S(hbond)    S(metal)    S(lipo)     H(rot)  DE(clash)    DE(int)     intcor
     13.52     -18.83       2.68        0.00      59.65       1.00       0.05       5.26       ----

> <Gold.Chemscore.Fitness>
13.5208

> <Gold.Chemscore.DG>
-18.8345

> <Gold.Chemscore.ZeroCoef>
-5.4800

> <Gold.Chemscore.Hbond>
2.6754

> <Gold.Chemscore.Metal>
0.0000

> <Gold.Chemscore.Lipo>
59.6460

> <Gold.Chemscore.Internal_Hbond>
0.0000

> <Gold.Chemscore.DEClash>
0.0492

> <Gold.Chemscore.DEInternal>
5.2644

> <Gold.Chemscore.Rot>
1.0000

> <Gold.Chemscore.Internal.Correction>
   9.000000E+99

> <Gold.Chemscore.Hbonds>
donor molecule, donor type, donor heavy atom, donor atom, acceptor molecule, acceptor atom, score
      L1  H    15    32       P1  7948  0.99
      P1  H  7989  7998       L1     8  0.80
      P1  H  7997  8010       L1     6  0.42

> <Gold.Chemscore.Hbond.Weighted>
-8.9359

> <Gold.Chemscore.Metal.Weighted>
-0.0000

> <Gold.Chemscore.Lipo.Weighted>
-6.9786

> <Gold.Chemscore.Internal_Hbond.Weighted>
0.0000

> <Gold.Chemscore.DEClash.Weighted>
0.0492

> <Gold.Chemscore.DEInternal.Weighted>
5.2644

> <Gold.Chemscore.Rot.Weighted>
2.5600

> <Gold.Chemscore.Internal.Correction.Weighted>
   9.000000E+99

> <Gold.Protein.RotatedTorsions>
[ 6907 6896 6895 6894 ] final  -30.64 input  -60.11 | X-H torsion
[ 7974 7965 7964 7962 ] final  -67.31 input  175.53 | X-H torsion
[ 8008 7997 7996 7995 ] final   53.24 input   59.86 | X-H torsion
[ 10167 10162 10161 10158 ] final  171.04 input  -65.29 | X-H torsion
[ 10718 10713 10712 10709 ] final  146.14 input   66.30 | X-H torsion
[ 10763 10752 10751 10750 ] final -115.17 input  -60.55 | X-H torsion
[ 11005 11000 10999 10996 ] final  -52.01 input  -57.11 | X-H torsion

> <Gold.Protein.ActiveResidues>
 VAL166  LYS551  ARG553  GLY616  TRP617  ASP618  TYR619  PRO620  LYS621  CYS622 
 ASP623  PHE694  ASN695  SER759  ASP760  ASP761  ALA762  ILE779  LEU786  VAL792 
 PHE793  MET794  SER795  GLU796  ALA797  LYS798  CYS799  TRP800  GLU811  SER814 

> <Gold.Protein.RotatedAtoms>
  151.1028  134.9982  159.8456 H   0  0  0  0  0  0  0  0  0  0  0  0  # atno 6907 bound_to 6896
  152.5438  134.1930  159.8691 H   0  0  0  0  0  0  0  0  0  0  0  0  # atno 6908 bound_to 6896
  151.1974  133.4586  159.2629 H   0  0  0  0  0  0  0  0  0  0  0  0  # atno 6909 bound_to 6896
  145.7307  140.8998  143.0581 H   0  0  0  0  0  0  0  0  0  0  0  0  # atno 7974 bound_to 7965
  155.4649  140.3463  155.4318 H   0  0  0  0  0  0  0  0  0  0  0  0  # atno 8008 bound_to 7997
  156.1137  140.1468  156.9332 H   0  0  0  0  0  0  0  0  0  0  0  0  # atno 8009 bound_to 7997
  154.4774  140.0880  156.7274 H   0  0  0  0  0  0  0  0  0  0  0  0  # atno 8010 bound_to 7997
  139.5035  144.3529  151.9904 H   0  0  0  0  0  0  0  0  0  0  0  0  # atno 10167 bound_to 10162
  157.3368  131.0929  151.1116 H   0  0  0  0  0  0  0  0  0  0  0  0  # atno 10718 bound_to 10713
  154.8470  135.4391  154.1621 H   0  0  0  0  0  0  0  0  0  0  0  0  # atno 10763 bound_to 10752
  153.2755  135.6949  153.7443 H   0  0  0  0  0  0  0  0  0  0  0  0  # atno 10764 bound_to 10752
  153.6667  135.3426  155.3117 H   0  0  0  0  0  0  0  0  0  0  0  0  # atno 10765 bound_to 10752
  141.0901  133.6634  156.3961 H   0  0  0  0  0  0  0  0  0  0  0  0  # atno 11005 bound_to 11000
  144.6893  139.9328  143.7472 LP  0  0  0  0  0  0  0  0  0  0  0  0  # atno 17320 bound_to 7965
  146.0540  139.3538  143.0622 LP  0  0  0  0  0  0  0  0  0  0  0  0  # atno 17321 bound_to 7965
  140.2966  144.3694  150.6072 LP  0  0  0  0  0  0  0  0  0  0  0  0  # atno 17342 bound_to 10162
  140.5906  143.2168  151.7261 LP  0  0  0  0  0  0  0  0  0  0  0  0  # atno 17343 bound_to 10162
  157.2343  130.6539  149.5863 LP  0  0  0  0  0  0  0  0  0  0  0  0  # atno 17370 bound_to 10713
  155.9702  130.4589  150.6015 LP  0  0  0  0  0  0  0  0  0  0  0  0  # atno 17371 bound_to 10713
  140.5271  134.6248  157.5337 LP  0  0  0  0  0  0  0  0  0  0  0  0  # atno 17394 bound_to 11000
  139.9726  134.7268  156.0012 LP  0  0  0  0  0  0  0  0  0  0  0  0  # atno 17395 bound_to 11000

$$$$
