AV-unprocessed.smi:2005|AV-procd|sdf|8125|dock1
  -GOLD-   2272010363D 1   1.00000     0.00000
 Structure written by MMmdl.
 39 40  0  0  0  0  0  0  0  0  1 V2000
  153.9334  132.3636  156.9068 C   0  0  0  0  0  0  0  0  0  0  0  0
  152.4923  131.8385  156.9748 C   0  0  0  0  0  0  0  0  0  0  0  0
  152.3763  130.3498  156.6161 C   0  0  0  0  0  0  0  0  0  0  0  0
  151.5439  132.6845  156.1835 C   0  0  0  0  0  0  0  0  0  0  0  0
  151.4020  134.0021  156.3817 N   0  0  0  0  0  0  0  0  0  0  0  0
  150.4714  134.5687  155.5222 N   0  0  0  0  0  0  0  0  0  0  0  0
  149.9344  133.6595  154.6976 C   0  0  0  0  0  0  0  0  0  0  0  0
  148.9574  133.9661  153.7138 N   0  0  0  0  0  0  0  0  0  0  0  0
  147.8096  133.3176  153.4486 C   0  0  0  0  0  0  0  0  0  0  0  0
  147.4104  132.3088  154.0311 O   0  0  0  0  0  0  0  0  0  0  0  0
  147.1321  133.9167  152.4582 N   0  0  0  0  0  0  0  0  0  0  0  0
  145.8366  133.4853  151.9412 C   0  0  2  0  0  0  0  0  0  0  0  0
  145.9516  132.0515  151.3894 C   0  0  0  0  0  0  0  0  0  0  0  0
  144.6271  131.5784  150.7687 C   0  0  0  0  0  0  0  0  0  0  0  0
  144.1498  132.5501  149.6763 C   0  0  1  0  0  0  0  0  0  0  0  0
  142.9018  132.1215  149.1740 O   0  0  0  0  0  0  0  0  0  0  0  0
  144.0190  133.9797  150.2279 C   0  0  0  0  0  0  0  0  0  0  0  0
  145.3417  134.4564  150.8491 C   0  0  0  0  0  0  0  0  0  0  0  0
  150.5235  132.0202  154.9116 S   0  0  0  0  0  0  0  0  0  0  0  0
  153.9907  133.3976  157.2482 H   0  0  0  0  0  0  0  0  0  0  0  0
  154.3221  132.3263  155.8887 H   0  0  0  0  0  0  0  0  0  0  0  0
  154.5971  131.7709  157.5371 H   0  0  0  0  0  0  0  0  0  0  0  0
  152.1844  131.9259  158.0175 H   0  0  0  0  0  0  0  0  0  0  0  0
  151.3566  129.9903  156.7561 H   0  0  0  0  0  0  0  0  0  0  0  0
  153.0295  129.7426  157.2432 H   0  0  0  0  0  0  0  0  0  0  0  0
  152.6535  130.1691  155.5770 H   0  0  0  0  0  0  0  0  0  0  0  0
  149.1470  134.7865  153.1577 H   0  0  0  0  0  0  0  0  0  0  0  0
  147.5357  134.7408  152.0374 H   0  0  0  0  0  0  0  0  0  0  0  0
  145.1111  133.4743  152.7571 H   0  0  0  0  0  0  0  0  0  0  0  0
  146.7383  132.0064  150.6348 H   0  0  0  0  0  0  0  0  0  0  0  0
  146.2476  131.3673  152.1855 H   0  0  0  0  0  0  0  0  0  0  0  0
  144.7511  130.5776  150.3534 H   0  0  0  0  0  0  0  0  0  0  0  0
  143.8706  131.4979  151.5508 H   0  0  0  0  0  0  0  0  0  0  0  0
  144.8624  132.5446  148.8507 H   0  0  0  0  0  0  0  0  0  0  0  0
  142.2596  132.7915  149.3523 H   0  0  0  0  0  0  0  0  0  0  0  0
  143.7178  134.6628  149.4329 H   0  0  0  0  0  0  0  0  0  0  0  0
  143.2321  134.0167  150.9827 H   0  0  0  0  0  0  0  0  0  0  0  0
  145.2087  135.4556  151.2654 H   0  0  0  0  0  0  0  0  0  0  0  0
  146.0955  134.5469  150.0659 H   0  0  0  0  0  0  0  0  0  0  0  0
  1  2  1  0  0  0  0
  1 20  1  0  0  0  0
  1 21  1  0  0  0  0
  1 22  1  0  0  0  0
  2  3  1  0  0  0  0
  2  4  1  0  0  0  0
  2 23  1  0  0  0  0
  3 24  1  0  0  0  0
  3 25  1  0  0  0  0
  3 26  1  0  0  0  0
  4 19  1  0  0  0  0
  4  5  2  0  0  0  0
  5  6  1  0  0  0  0
  6  7  2  0  0  0  0
  7  8  1  0  0  0  0
  7 19  1  0  0  0  0
  8  9  1  0  0  0  0
  8 27  1  0  0  0  0
  9 10  2  0  0  0  0
  9 11  1  0  0  0  0
 11 12  1  0  0  0  0
 11 28  1  0  0  0  0
 12 18  1  0  0  0  0
 12 13  1  0  0  0  0
 12 29  1  0  0  0  0
 13 14  1  0  0  0  0
 13 30  1  0  0  0  0
 13 31  1  0  0  0  0
 14 15  1  0  0  0  0
 14 32  1  0  0  0  0
 14 33  1  0  0  0  0
 15 16  1  0  0  0  0
 15 17  1  0  0  0  0
 15 34  1  0  0  0  0
 16 35  1  0  0  0  0
 17 18  1  0  0  0  0
 17 36  1  0  0  0  0
 17 37  1  0  0  0  0
 18 38  1  0  0  0  0
 18 39  1  0  0  0  0
M  END
> <s_m_source_file>
AV-unprocessed.smi

> <i_m_source_file_index>
2005

> <i_lp_mmshare_version>
43012

> <i_f3d_flags>
0

> <s_epik_input>
W0NIM11bQ0hdKFtDSDNdKWMxbm5jKHMxKVtOSF1DKD1PKVtOSF1bQ0BASF0yW0NIMl1bQ0gyXVtDQEBIXShbT0hdKVtDSDJdW0NIMl0y

> <s_epik_cmdline>
J2VwaWtfcHl0aG9uJywgJy1waCcsICc3LjAnLCAnLXRuJywgJzgnLCAnLW1hJywgJzIwMCcsICctbWV0YWxfYmluZGluZycsICctaW1hZScsICc8aW5maWxlLm1hZT4nLCAnLW9tYWUnLCAnPG91dGZpbGUubWFlPic=

> <r_lp_tautomer_probability>
1

> <r_epik_Ionization_Penalty>
0.000372581

> <r_epik_Ionization_Penalty_Charging>
0

> <r_epik_Ionization_Penalty_Neutral>
0.000372581

> <r_epik_State_Penalty>
-0

> <r_epik_Charging_Adjusted_Penalty>
0

> <i_epik_Tot_Q>
0

> <i_epik_Tot_abs_Q>
0

> <r_epik_Metal_State_Penalty>
0.186152

> <b_epik_Metal_Only>
0

> <s_lp_Force_Field>
OPLS_2005

> <r_lp_Energy>
0.700643

> <b_lp_Chiralities_Consistent>
1

> <s_lp_Variant>
AV-unprocessed.smi:2005-1

> <Gold.Version>
5.8.1

> <Gold.Id.Protein>
6NUR|6NUR_protein|mol2

> <Gold.PLP.Fitness>
43.4317

> <Gold.PLP.PLP>
-33.4263

> <Gold.PLP.part.hbond>
-5.0000

> <Gold.PLP.part.metal>
0.0000

> <Gold.PLP.part.buried>
-5.6754

> <Gold.PLP.part.nonpolar>
-23.4922

> <Gold.PLP.part.repulsive>
0.1266

> <Gold.PLP.ligand.clash>
0.0000

> <Gold.PLP.ligand.torsion>
0.4390

> <Gold.PLP.Chemscore.Hbond>
3.6013

> <Gold.PLP.Chemscore.CHOScore>
0.0000

> <Gold.PLP.Chemscore.Metal>
0.0000

> <Gold.Chemscore.Hbonds>
donor molecule, donor type, donor heavy atom, donor atom, acceptor molecule, acceptor atom, score
      L1  H     8    27       P1  7948  0.60
      L1  H    11    28       P1  7948  1.00
      L1  H    16    35       P1 10186  0.94
      P1  H 10785 10796       L1    16  0.96

> <Gold.PLP.Chemscore.Internal.Correction>
0.0797

> <Gold.Rescore>
     Score         DG    S(hbond)    S(metal)    S(lipo)     H(rot)  DE(clash)    DE(int)     intcor
     16.77     -17.29       2.46        0.00      68.21       1.72       0.07       0.45       ----

> <Gold.Chemscore.Fitness>
16.7670

> <Gold.Chemscore.DG>
-17.2859

> <Gold.Chemscore.ZeroCoef>
-5.4800

> <Gold.Chemscore.Hbond>
2.4644

> <Gold.Chemscore.Metal>
0.0000

> <Gold.Chemscore.Lipo>
68.2052

> <Gold.Chemscore.Internal_Hbond>
0.0000

> <Gold.Chemscore.DEClash>
0.0650

> <Gold.Chemscore.DEInternal>
0.4539

> <Gold.Chemscore.Rot>
1.7207

> <Gold.Chemscore.Internal.Correction>
   9.000000E+99

> <Gold.Chemscore.Hbonds>
donor molecule, donor type, donor heavy atom, donor atom, acceptor molecule, acceptor atom, score
      L1  H     8    27       P1  7948  0.04
      L1  H    11    28       P1  7948  0.69
      L1  H    16    35       P1 10186  0.90
      P1  H 10785 10796       L1    16  0.41

> <Gold.Chemscore.Hbond.Weighted>
-8.2310

> <Gold.Chemscore.Metal.Weighted>
-0.0000

> <Gold.Chemscore.Lipo.Weighted>
-7.9800

> <Gold.Chemscore.Internal_Hbond.Weighted>
0.0000

> <Gold.Chemscore.DEClash.Weighted>
0.0650

> <Gold.Chemscore.DEInternal.Weighted>
0.4539

> <Gold.Chemscore.Rot.Weighted>
4.4051

> <Gold.Chemscore.Internal.Correction.Weighted>
   9.000000E+99

> <Gold.Protein.RotatedTorsions>
[ 6907 6896 6895 6894 ] final   25.40 input  -60.11 | X-H torsion
[ 7974 7965 7964 7962 ] final -166.42 input  175.53 | X-H torsion
[ 8008 7997 7996 7995 ] final   -5.13 input   59.86 | X-H torsion
[ 10167 10162 10161 10158 ] final  -54.37 input  -65.29 | X-H torsion
[ 10718 10713 10712 10709 ] final  -86.36 input   66.30 | X-H torsion
[ 10763 10752 10751 10750 ] final   65.11 input  -60.55 | X-H torsion
[ 11005 11000 10999 10996 ] final  -54.77 input  -57.11 | X-H torsion

> <Gold.Protein.ActiveResidues>
 VAL166  LYS551  ARG553  GLY616  TRP617  ASP618  TYR619  PRO620  LYS621  CYS622 
 ASP623  PHE694  ASN695  SER759  ASP760  ASP761  ALA762  ILE779  LEU786  VAL792 
 PHE793  MET794  SER795  GLU796  ALA797  LYS798  CYS799  TRP800  GLU811  SER814 

> <Gold.Protein.RotatedAtoms>
  151.9720  135.0072  160.0552 H   0  0  0  0  0  0  0  0  0  0  0  0  # atno 6907 bound_to 6896
  152.1774  133.4679  159.4949 H   0  0  0  0  0  0  0  0  0  0  0  0  # atno 6908 bound_to 6896
  150.6911  134.1794  159.4285 H   0  0  0  0  0  0  0  0  0  0  0  0  # atno 6909 bound_to 6896
  144.7246  140.2669  143.6256 H   0  0  0  0  0  0  0  0  0  0  0  0  # atno 7974 bound_to 7965
  154.6071  140.2466  155.7716 H   0  0  0  0  0  0  0  0  0  0  0  0  # atno 8008 bound_to 7997
  156.2348  140.2954  156.0233 H   0  0  0  0  0  0  0  0  0  0  0  0  # atno 8009 bound_to 7997
  155.2113  140.0397  157.2924 H   0  0  0  0  0  0  0  0  0  0  0  0  # atno 8010 bound_to 7997
  140.6434  143.2521  151.4926 H   0  0  0  0  0  0  0  0  0  0  0  0  # atno 10167 bound_to 10162
  155.9990  130.4762  150.4702 H   0  0  0  0  0  0  0  0  0  0  0  0  # atno 10718 bound_to 10713
  153.0083  135.5369  154.6615 H   0  0  0  0  0  0  0  0  0  0  0  0  # atno 10763 bound_to 10752
  154.5823  135.2851  155.0723 H   0  0  0  0  0  0  0  0  0  0  0  0  # atno 10764 bound_to 10752
  154.1847  135.6510  153.5096 H   0  0  0  0  0  0  0  0  0  0  0  0  # atno 10765 bound_to 10752
  141.1042  133.6615  156.4369 H   0  0  0  0  0  0  0  0  0  0  0  0  # atno 11005 bound_to 11000
  145.8081  139.1992  143.2009 LP  0  0  0  0  0  0  0  0  0  0  0  0  # atno 17320 bound_to 7965
  146.0619  140.7961  142.9730 LP  0  0  0  0  0  0  0  0  0  0  0  0  # atno 17321 bound_to 7965
  139.5644  144.2079  152.1741 LP  0  0  0  0  0  0  0  0  0  0  0  0  # atno 17342 bound_to 10162
  140.1356  144.5249  150.6775 LP  0  0  0  0  0  0  0  0  0  0  0  0  # atno 17343 bound_to 10162
  157.2718  131.0588  151.2255 LP  0  0  0  0  0  0  0  0  0  0  0  0  # atno 17370 bound_to 10713
  157.3332  130.6996  149.6337 LP  0  0  0  0  0  0  0  0  0  0  0  0  # atno 17371 bound_to 10713
  140.4946  134.6543  157.5224 LP  0  0  0  0  0  0  0  0  0  0  0  0  # atno 17394 bound_to 11000
  139.9905  134.6993  155.9699 LP  0  0  0  0  0  0  0  0  0  0  0  0  # atno 17395 bound_to 11000

$$$$
