AV-unprocessed.smi:3132|AV-procd|sdf|11929|dock8
  -GOLD-   2272017313D 1   1.00000     0.00000
 Structure written by MMmdl.
 34 35  0  0  0  0  0  0  0  0  2 V2000
  150.2265  139.4271  157.9984 C   0  0  0  0  0  0  0  0  0  0  0  0
  150.4413  140.7609  157.2707 C   0  0  2  0  0  0  0  0  0  0  0  0
  151.0580  140.5438  155.8716 C   0  0  0  0  0  0  0  0  0  0  0  0
  150.1117  139.9650  154.9118 N   0  0  0  0  0  0  0  0  0  0  0  0
  148.8907  140.4678  154.5403 C   0  0  0  0  0  0  0  0  0  0  0  0
  148.3605  139.5802  153.6398 C   0  0  0  0  0  0  0  0  0  0  0  0
  149.2823  138.5782  153.4947 N   0  3  0  0  0  0  0  0  0  0  0  0
  150.3477  138.8153  154.2668 C   0  0  0  0  0  0  0  0  0  0  0  0
  151.2984  141.6165  158.0903 N   0  0  0  0  0  0  0  0  0  0  0  0
  152.5136  141.2901  158.5584 C   0  0  0  0  0  0  0  0  0  0  0  0
  153.0634  140.2140  158.3207 O   0  0  0  0  0  0  0  0  0  0  0  0
  153.1870  142.3209  159.4698 C   0  0  2  0  0  0  0  0  0  0  0  0
  153.4410  141.8212  160.9040 C   0  0  0  0  0  0  0  0  0  0  0  0
  152.4284  142.5856  161.7334 C   0  0  0  0  0  0  0  0  0  0  0  0
  152.2941  143.8782  160.9419 C   0  0  0  0  0  0  0  0  0  0  0  0
  152.3040  143.4351  159.5935 O   0  0  0  0  0  0  0  0  0  0  0  0
  149.5697  138.7703  157.4272 H   0  0  0  0  0  0  0  0  0  0  0  0
  149.7665  139.5813  158.9753 H   0  0  0  0  0  0  0  0  0  0  0  0
  151.1693  138.9011  158.1532 H   0  0  0  0  0  0  0  0  0  0  0  0
  149.4598  141.2243  157.1552 H   0  0  0  0  0  0  0  0  0  0  0  0
  151.4257  141.4847  155.4596 H   0  0  0  0  0  0  0  0  0  0  0  0
  151.9142  139.8702  155.9328 H   0  0  0  0  0  0  0  0  0  0  0  0
  148.4952  141.3895  154.9421 H   0  0  0  0  0  0  0  0  0  0  0  0
  147.4208  139.5856  153.1070 H   0  0  0  0  0  0  0  0  0  0  0  0
  151.2212  138.1946  154.3594 H   0  0  0  0  0  0  0  0  0  0  0  0
  150.9276  142.5217  158.3417 H   0  0  0  0  0  0  0  0  0  0  0  0
  154.1257  142.6572  159.0262 H   0  0  0  0  0  0  0  0  0  0  0  0
  153.3425  140.7416  161.0272 H   0  0  0  0  0  0  0  0  0  0  0  0
  154.4522  142.0914  161.2112 H   0  0  0  0  0  0  0  0  0  0  0  0
  151.4757  142.0543  161.7478 H   0  0  0  0  0  0  0  0  0  0  0  0
  152.7494  142.7452  162.7632 H   0  0  0  0  0  0  0  0  0  0  0  0
  151.3822  144.4264  161.1786 H   0  0  0  0  0  0  0  0  0  0  0  0
  153.1491  144.5329  161.1177 H   0  0  0  0  0  0  0  0  0  0  0  0
  149.1738  137.7711  152.8935 H   0  0  0  0  0  0  0  0  0  0  0  0
  1  2  1  0  0  0  0
  1 17  1  0  0  0  0
  1 18  1  0  0  0  0
  1 19  1  0  0  0  0
  2  3  1  0  0  0  0
  2  9  1  0  0  0  0
  2 20  1  0  0  0  0
  3  4  1  0  0  0  0
  3 21  1  0  0  0  0
  3 22  1  0  0  0  0
  4  8  1  0  0  0  0
  4  5  1  0  0  0  0
  5  6  2  0  0  0  0
  5 23  1  0  0  0  0
  6  7  1  0  0  0  0
  6 24  1  0  0  0  0
  7  8  2  0  0  0  0
  7 34  1  0  0  0  0
  8 25  1  0  0  0  0
  9 10  1  0  0  0  0
  9 26  1  0  0  0  0
 10 11  2  0  0  0  0
 10 12  1  0  0  0  0
 12 16  1  0  0  0  0
 12 13  1  0  0  0  0
 12 27  1  0  0  0  0
 13 14  1  0  0  0  0
 13 28  1  0  0  0  0
 13 29  1  0  0  0  0
 14 15  1  0  0  0  0
 14 30  1  0  0  0  0
 14 31  1  0  0  0  0
 15 16  1  0  0  0  0
 15 32  1  0  0  0  0
 15 33  1  0  0  0  0
M  CHG  1   7   1
M  END
> <s_m_source_file>
AV-unprocessed.smi

> <i_m_source_file_index>
3132

> <i_lp_mmshare_version>
43012

> <i_f3d_flags>
0

> <s_epik_input>
W2NIXTFuW2NIXVtjSF1uMVtDSDJdW0NAQEhdKFtDSDNdKVtOSF1DKD1PKVtDQEBIXTJbQ0gyXVtDSDJdW0NIMl1PMg==

> <s_epik_cmdline>
J2VwaWtfcHl0aG9uJywgJy1waCcsICc3LjAnLCAnLXRuJywgJzgnLCAnLW1hJywgJzIwMCcsICctbWV0YWxfYmluZGluZycsICctaW1hZScsICc8aW5maWxlLm1hZT4nLCAnLW9tYWUnLCAnPG91dGZpbGUubWFlPic=

> <r_lp_tautomer_probability>
1

> <r_epik_Ionization_Penalty>
0.250802

> <r_epik_Ionization_Penalty_Charging>
0

> <r_epik_Ionization_Penalty_Neutral>
0.250802

> <r_epik_State_Penalty>
0.242139

> <r_epik_Charging_Adjusted_Penalty>
0.242139

> <i_epik_Tot_Q>
1

> <i_epik_Tot_abs_Q>
1

> <r_epik_Metal_State_Penalty>
0.533361

> <b_epik_Metal_Only>
0

> <s_lp_Force_Field>
OPLS_2005

> <r_lp_Energy>
20.2127

> <b_lp_Chiralities_Consistent>
1

> <s_lp_Variant>
AV-unprocessed.smi:3132-1

> <Gold.Version>
5.8.1

> <Gold.Id.Protein>
6NUR|6NUR_protein|mol2

> <Gold.PLP.Fitness>
44.6604

> <Gold.PLP.PLP>
-35.9791

> <Gold.PLP.part.hbond>
-3.0000

> <Gold.PLP.part.metal>
0.0000

> <Gold.PLP.part.buried>
-2.2809

> <Gold.PLP.part.nonpolar>
-30.2975

> <Gold.PLP.part.repulsive>
0.1476

> <Gold.PLP.ligand.clash>
0.0000

> <Gold.PLP.ligand.torsion>
0.1355

> <Gold.PLP.Chemscore.Hbond>
2.9760

> <Gold.PLP.Chemscore.CHOScore>
0.0000

> <Gold.PLP.Chemscore.Metal>
0.0000

> <Gold.Chemscore.Hbonds>
donor molecule, donor type, donor heavy atom, donor atom, acceptor molecule, acceptor atom, score
      L1  H     7    34       P1  7948  2.00
      P1  H  7997  8008       L1    11  0.96

> <Gold.PLP.Chemscore.Internal.Correction>
0.0244

> <Gold.Rescore>
     Score         DG    S(hbond)    S(metal)    S(lipo)     H(rot)  DE(clash)    DE(int)     intcor
     14.04     -15.33       1.90        0.00      72.07       1.93       0.03       1.25       ----

> <Gold.Chemscore.Fitness>
14.0443

> <Gold.Chemscore.DG>
-15.3259

> <Gold.Chemscore.ZeroCoef>
-5.4800

> <Gold.Chemscore.Hbond>
1.9031

> <Gold.Chemscore.Metal>
0.0000

> <Gold.Chemscore.Lipo>
72.0731

> <Gold.Chemscore.Internal_Hbond>
0.0000

> <Gold.Chemscore.DEClash>
0.0272

> <Gold.Chemscore.DEInternal>
1.2544

> <Gold.Chemscore.Rot>
1.9308

> <Gold.Chemscore.Internal.Correction>
   9.000000E+99

> <Gold.Chemscore.Hbonds>
donor molecule, donor type, donor heavy atom, donor atom, acceptor molecule, acceptor atom, score
      L1  H     7    34       P1  7948  0.98
      P1  H  7997  8008       L1    11  0.88

> <Gold.Chemscore.Hbond.Weighted>
-6.3563

> <Gold.Chemscore.Metal.Weighted>
-0.0000

> <Gold.Chemscore.Lipo.Weighted>
-8.4325

> <Gold.Chemscore.Internal_Hbond.Weighted>
0.0000

> <Gold.Chemscore.DEClash.Weighted>
0.0272

> <Gold.Chemscore.DEInternal.Weighted>
1.2544

> <Gold.Chemscore.Rot.Weighted>
4.9429

> <Gold.Chemscore.Internal.Correction.Weighted>
   9.000000E+99

> <Gold.Protein.RotatedTorsions>
[ 6907 6896 6895 6894 ] final   94.38 input  -60.11 | X-H torsion
[ 7974 7965 7964 7962 ] final   -2.00 input  175.53 | X-H torsion
[ 8008 7997 7996 7995 ] final  -85.43 input   59.86 | X-H torsion
[ 10167 10162 10161 10158 ] final -132.09 input  -65.29 | X-H torsion
[ 10718 10713 10712 10709 ] final -143.91 input   66.30 | X-H torsion
[ 10763 10752 10751 10750 ] final   -5.11 input  -60.55 | X-H torsion
[ 11005 11000 10999 10996 ] final -164.58 input  -57.11 | X-H torsion

> <Gold.Protein.ActiveResidues>
 VAL166  LYS551  ARG553  GLY616  TRP617  ASP618  TYR619  PRO620  LYS621  CYS622 
 ASP623  PHE694  ASN695  SER759  ASP760  ASP761  ALA762  ILE779  LEU786  VAL792 
 PHE793  MET794  SER795  GLU796  ALA797  LYS798  CYS799  TRP800  GLU811  SER814 

> <Gold.Protein.RotatedAtoms>
  152.5449  134.1203  159.8395 H   0  0  0  0  0  0  0  0  0  0  0  0  # atno 6907 bound_to 6896
  151.1260  133.5063  159.2608 H   0  0  0  0  0  0  0  0  0  0  0  0  # atno 6908 bound_to 6896
  151.1727  135.0335  159.8813 H   0  0  0  0  0  0  0  0  0  0  0  0  # atno 6909 bound_to 6896
  146.2410  140.1505  142.8334 H   0  0  0  0  0  0  0  0  0  0  0  0  # atno 7974 bound_to 7965
  154.6406  140.0591  156.9841 H   0  0  0  0  0  0  0  0  0  0  0  0  # atno 8008 bound_to 7997
  155.1523  140.3275  155.4410 H   0  0  0  0  0  0  0  0  0  0  0  0  # atno 8009 bound_to 7997
  156.2529  140.1945  156.6634 H   0  0  0  0  0  0  0  0  0  0  0  0  # atno 8010 bound_to 7997
  139.9122  143.6481  152.2573 H   0  0  0  0  0  0  0  0  0  0  0  0  # atno 10167 bound_to 10162
  156.3637  130.7752  151.1923 H   0  0  0  0  0  0  0  0  0  0  0  0  # atno 10718 bound_to 10713
  153.3941  135.7003  153.6473 H   0  0  0  0  0  0  0  0  0  0  0  0  # atno 10763 bound_to 10752
  153.5034  135.3647  155.2551 H   0  0  0  0  0  0  0  0  0  0  0  0  # atno 10764 bound_to 10752
  154.8705  135.4117  154.3263 H   0  0  0  0  0  0  0  0  0  0  0  0  # atno 10765 bound_to 10752
  140.5853  134.5100  157.5185 H   0  0  0  0  0  0  0  0  0  0  0  0  # atno 11005 bound_to 11000
  145.0172  140.8763  143.5189 LP  0  0  0  0  0  0  0  0  0  0  0  0  # atno 17320 bound_to 7965
  145.1547  139.2493  143.5422 LP  0  0  0  0  0  0  0  0  0  0  0  0  # atno 17321 bound_to 7965
  139.6933  144.7644  151.1400 LP  0  0  0  0  0  0  0  0  0  0  0  0  # atno 17342 bound_to 10162
  140.7683  143.5559  150.9153 LP  0  0  0  0  0  0  0  0  0  0  0  0  # atno 17343 bound_to 10162
  157.7476  131.0392  150.4541 LP  0  0  0  0  0  0  0  0  0  0  0  0  # atno 17370 bound_to 10713
  156.4756  130.4062  149.6492 LP  0  0  0  0  0  0  0  0  0  0  0  0  # atno 17371 bound_to 10713
  139.9299  134.7984  156.0962 LP  0  0  0  0  0  0  0  0  0  0  0  0  # atno 17394 bound_to 11000
  141.0970  133.6692  156.2668 LP  0  0  0  0  0  0  0  0  0  0  0  0  # atno 17395 bound_to 11000

$$$$
