AV-unprocessed.smi:1372|AV-procd|sdf|5583|dock4
  -GOLD-   22720 5183D 1   1.00000     0.00000
 Structure written by MMmdl.
 41 43  0  0  0  0  0  0  0  0  1 V2000
  154.8559  137.4605  158.1095 C   0  0  0  0  0  0  0  0  0  0  0  0
  153.1150  136.8715  158.0469 S   0  0  0  0  0  0  0  0  0  0  0  0
  153.0673  135.6726  157.1958 O   0  0  0  0  0  0  0  0  0  0  0  0
  152.5973  136.8071  159.4222 O   0  0  0  0  0  0  0  0  0  0  0  0
  152.2801  138.2628  157.1631 C   0  0  0  0  0  0  0  0  0  0  0  0
  152.3812  139.5384  157.9522 C   0  0  0  0  0  0  0  0  0  0  0  0
  153.0146  139.5872  159.1258 N   0  0  0  0  0  0  0  0  0  0  0  0
  152.8871  140.9112  159.4931 C   0  0  0  0  0  0  0  0  0  0  0  0
  153.3574  141.5975  160.6356 C   0  0  0  0  0  0  0  0  0  0  0  0
  153.0998  142.9746  160.7970 C   0  0  0  0  0  0  0  0  0  0  0  0
  152.3697  143.6831  159.8207 C   0  0  0  0  0  0  0  0  0  0  0  0
  151.8907  143.0171  158.6760 C   0  0  0  0  0  0  0  0  0  0  0  0
  152.1509  141.6422  158.5200 C   0  0  0  0  0  0  0  0  0  0  0  0
  151.8269  140.7097  157.5391 N   0  0  0  0  0  0  0  0  0  0  0  0
  151.0471  140.9901  156.3395 C   0  0  0  0  0  0  0  0  0  0  0  0
  149.5570  141.2469  156.6405 C   0  0  1  0  0  0  0  0  0  0  0  0
  149.3690  142.5778  157.0786 O   0  0  0  0  0  0  0  0  0  0  0  0
  148.6885  140.9118  155.4385 C   0  0  0  0  0  0  0  0  0  0  0  0
  148.7255  139.6152  154.8819 C   0  0  0  0  0  0  0  0  0  0  0  0
  147.9315  139.3004  153.7620 C   0  0  0  0  0  0  0  0  0  0  0  0
  147.0976  140.2808  153.1908 C   0  0  0  0  0  0  0  0  0  0  0  0
  147.0587  141.5769  153.7395 C   0  0  0  0  0  0  0  0  0  0  0  0
  147.8527  141.8924  154.8593 C   0  0  0  0  0  0  0  0  0  0  0  0
  155.4705  136.7179  158.6181 H   0  0  0  0  0  0  0  0  0  0  0  0
  154.9026  138.4030  158.6549 H   0  0  0  0  0  0  0  0  0  0  0  0
  155.2290  137.6063  157.0960 H   0  0  0  0  0  0  0  0  0  0  0  0
  152.7474  138.3526  156.1853 H   0  0  0  0  0  0  0  0  0  0  0  0
  151.2318  138.0047  157.0141 H   0  0  0  0  0  0  0  0  0  0  0  0
  153.9177  141.0628  161.3881 H   0  0  0  0  0  0  0  0  0  0  0  0
  153.4643  143.4896  161.6737 H   0  0  0  0  0  0  0  0  0  0  0  0
  152.1770  144.7378  159.9516 H   0  0  0  0  0  0  0  0  0  0  0  0
  151.3308  143.5572  157.9270 H   0  0  0  0  0  0  0  0  0  0  0  0
  151.4924  141.8195  155.7914 H   0  0  0  0  0  0  0  0  0  0  0  0
  151.1373  140.1273  155.6781 H   0  0  0  0  0  0  0  0  0  0  0  0
  149.2543  140.6038  157.4681 H   0  0  0  0  0  0  0  0  0  0  0  0
  149.1613  143.1137  156.3284 H   0  0  0  0  0  0  0  0  0  0  0  0
  149.3647  138.8571  155.3105 H   0  0  0  0  0  0  0  0  0  0  0  0
  147.9632  138.3066  153.3402 H   0  0  0  0  0  0  0  0  0  0  0  0
  146.4891  140.0393  152.3316 H   0  0  0  0  0  0  0  0  0  0  0  0
  146.4204  142.3294  153.3007 H   0  0  0  0  0  0  0  0  0  0  0  0
  147.8199  142.8906  155.2713 H   0  0  0  0  0  0  0  0  0  0  0  0
  1  2  1  0  0  0  0
  1 24  1  0  0  0  0
  1 25  1  0  0  0  0
  1 26  1  0  0  0  0
  2  3  2  0  0  0  0
  2  4  2  0  0  0  0
  2  5  1  0  0  0  0
  5  6  1  0  0  0  0
  5 27  1  0  0  0  0
  5 28  1  0  0  0  0
  6 14  1  0  0  0  0
  6  7  2  0  0  0  0
  7  8  1  0  0  0  0
  8 13  2  0  0  0  0
  8  9  1  0  0  0  0
  9 10  2  0  0  0  0
  9 29  1  0  0  0  0
 10 11  1  0  0  0  0
 10 30  1  0  0  0  0
 11 12  2  0  0  0  0
 11 31  1  0  0  0  0
 12 13  1  0  0  0  0
 12 32  1  0  0  0  0
 13 14  1  0  0  0  0
 14 15  1  0  0  0  0
 15 16  1  0  0  0  0
 15 33  1  0  0  0  0
 15 34  1  0  0  0  0
 16 17  1  0  0  0  0
 16 18  1  0  0  0  0
 16 35  1  0  0  0  0
 17 36  1  0  0  0  0
 18 23  1  0  0  0  0
 18 19  2  0  0  0  0
 19 20  1  0  0  0  0
 19 37  1  0  0  0  0
 20 21  2  0  0  0  0
 20 38  1  0  0  0  0
 21 22  1  0  0  0  0
 21 39  1  0  0  0  0
 22 23  2  0  0  0  0
 22 40  1  0  0  0  0
 23 41  1  0  0  0  0
M  END
> <s_m_source_file>
AV-unprocessed.smi

> <i_m_source_file_index>
1372

> <i_lp_mmshare_version>
43012

> <i_f3d_flags>
0

> <s_epik_input>
W2NIXTFbY0hdW2NIXVtjSF1jKGMxMiluKGMobjIpW0NIMl1TKD1PKSg9TylbQ0gzXSlbQ0gyXVtDQEhdKFtPSF0pYzNbY0hdW2NIXVtjSF1bY0hdW2NIXTM=

> <s_epik_cmdline>
J2VwaWtfcHl0aG9uJywgJy1waCcsICc3LjAnLCAnLXRuJywgJzgnLCAnLW1hJywgJzIwMCcsICctbWV0YWxfYmluZGluZycsICctaW1hZScsICc8aW5maWxlLm1hZT4nLCAnLW9tYWUnLCAnPG91dGZpbGUubWFlPic=

> <r_epik_Ionization_Penalty>
0.0151431

> <r_epik_Ionization_Penalty_Charging>
0

> <r_epik_Ionization_Penalty_Neutral>
0.0151431

> <r_epik_State_Penalty>
0.0118835

> <r_epik_Charging_Adjusted_Penalty>
0.0118835

> <i_epik_Tot_Q>
0

> <i_epik_Tot_abs_Q>
0

> <r_epik_Metal_State_Penalty>
1.20034e-05

> <b_epik_Metal_Only>
0

> <s_lp_Force_Field>
OPLS_2005

> <r_lp_Energy>
10.2865

> <b_lp_Chiralities_Consistent>
1

> <s_lp_Variant>
AV-unprocessed.smi:1372-2

> <Gold.Version>
5.8.1

> <Gold.Id.Protein>
6NUR|6NUR_protein|mol2

> <Gold.PLP.Fitness>
50.8492

> <Gold.PLP.PLP>
-42.5038

> <Gold.PLP.part.hbond>
-3.0000

> <Gold.PLP.part.metal>
0.0000

> <Gold.PLP.part.buried>
-4.2172

> <Gold.PLP.part.nonpolar>
-34.9528

> <Gold.PLP.part.repulsive>
0.0000

> <Gold.PLP.ligand.clash>
0.0000

> <Gold.PLP.ligand.torsion>
0.4070

> <Gold.PLP.Chemscore.Hbond>
2.9920

> <Gold.PLP.Chemscore.CHOScore>
0.0000

> <Gold.PLP.Chemscore.Metal>
0.0000

> <Gold.Chemscore.Hbonds>
donor molecule, donor type, donor heavy atom, donor atom, acceptor molecule, acceptor atom, score
      L1  H    17    36       P1  8028  0.96
      P1  H  6896  6907       L1     4  1.00
      P1  H 10752 10763       L1     3  1.00

> <Gold.PLP.Chemscore.Internal.Correction>
0.1834

> <Gold.Rescore>
     Score         DG    S(hbond)    S(metal)    S(lipo)     H(rot)  DE(clash)    DE(int)     intcor
     20.93     -23.06       2.91        0.00     118.11       2.33       0.09       2.04       ----

> <Gold.Chemscore.Fitness>
20.9309

> <Gold.Chemscore.DG>
-23.0598

> <Gold.Chemscore.ZeroCoef>
-5.4800

> <Gold.Chemscore.Hbond>
2.9125

> <Gold.Chemscore.Metal>
0.0000

> <Gold.Chemscore.Lipo>
118.1075

> <Gold.Chemscore.Internal_Hbond>
0.0000

> <Gold.Chemscore.DEClash>
0.0918

> <Gold.Chemscore.DEInternal>
2.0370

> <Gold.Chemscore.Rot>
2.3306

> <Gold.Chemscore.Internal.Correction>
   9.000000E+99

> <Gold.Chemscore.Hbonds>
donor molecule, donor type, donor heavy atom, donor atom, acceptor molecule, acceptor atom, score
      L1  H    17    36       P1  8028  0.92
      P1  H  6896  6907       L1     4  0.93
      P1  H 10752 10763       L1     3  0.99

> <Gold.Chemscore.Hbond.Weighted>
-9.7276

> <Gold.Chemscore.Metal.Weighted>
-0.0000

> <Gold.Chemscore.Lipo.Weighted>
-13.8186

> <Gold.Chemscore.Internal_Hbond.Weighted>
0.0000

> <Gold.Chemscore.DEClash.Weighted>
0.0918

> <Gold.Chemscore.DEInternal.Weighted>
2.0370

> <Gold.Chemscore.Rot.Weighted>
5.9664

> <Gold.Chemscore.Internal.Correction.Weighted>
   9.000000E+99

> <Gold.Protein.RotatedTorsions>
[ 6907 6896 6895 6894 ] final   18.99 input  -60.11 | X-H torsion
[ 7974 7965 7964 7962 ] final  172.39 input  175.53 | X-H torsion
[ 8008 7997 7996 7995 ] final -175.41 input   59.86 | X-H torsion
[ 10167 10162 10161 10158 ] final   72.00 input  -65.29 | X-H torsion
[ 10718 10713 10712 10709 ] final  170.18 input   66.30 | X-H torsion
[ 10763 10752 10751 10750 ] final  118.61 input  -60.55 | X-H torsion
[ 11005 11000 10999 10996 ] final   39.36 input  -57.11 | X-H torsion

> <Gold.Protein.ActiveResidues>
 VAL166  LYS551  ARG553  GLY616  TRP617  ASP618  TYR619  PRO620  LYS621  CYS622 
 ASP623  PHE694  ASN695  SER759  ASP760  ASP761  ALA762  ILE779  LEU786  VAL792 
 PHE793  MET794  SER795  GLU796  ALA797  LYS798  CYS799  TRP800  GLU811  SER814 

> <Gold.Protein.RotatedAtoms>
  151.8739  135.0479  160.0481 H   0  0  0  0  0  0  0  0  0  0  0  0  # atno 6907 bound_to 6896
  152.2566  133.5256  159.5365 H   0  0  0  0  0  0  0  0  0  0  0  0  # atno 6908 bound_to 6896
  150.7102  134.0803  159.3938 H   0  0  0  0  0  0  0  0  0  0  0  0  # atno 6909 bound_to 6896
  144.7269  139.9491  143.6431 H   0  0  0  0  0  0  0  0  0  0  0  0  # atno 7974 bound_to 7965
  155.9822  140.1184  157.0716 H   0  0  0  0  0  0  0  0  0  0  0  0  # atno 8008 bound_to 7997
  154.4186  140.1142  156.5519 H   0  0  0  0  0  0  0  0  0  0  0  0  # atno 8009 bound_to 7997
  155.6455  140.3473  155.4732 H   0  0  0  0  0  0  0  0  0  0  0  0  # atno 8010 bound_to 7997
  140.0400  144.5397  150.7441 H   0  0  0  0  0  0  0  0  0  0  0  0  # atno 10167 bound_to 10162
  157.0119  131.0207  151.2800 H   0  0  0  0  0  0  0  0  0  0  0  0  # atno 10718 bound_to 10713
  153.5703  135.3503  155.2835 H   0  0  0  0  0  0  0  0  0  0  0  0  # atno 10763 bound_to 10752
  154.8683  135.4158  154.2733 H   0  0  0  0  0  0  0  0  0  0  0  0  # atno 10764 bound_to 10752
  153.3497  135.7054  153.6868 H   0  0  0  0  0  0  0  0  0  0  0  0  # atno 10765 bound_to 10752
  140.2035  134.3841  155.8084 H   0  0  0  0  0  0  0  0  0  0  0  0  # atno 11005 bound_to 11000
  146.0725  139.3714  143.0514 LP  0  0  0  0  0  0  0  0  0  0  0  0  # atno 17320 bound_to 7965
  145.7948  140.9798  143.1029 LP  0  0  0  0  0  0  0  0  0  0  0  0  # atno 17321 bound_to 7965
  140.7264  143.2641  151.4104 LP  0  0  0  0  0  0  0  0  0  0  0  0  # atno 17342 bound_to 10162
  139.6020  144.1276  152.2208 LP  0  0  0  0  0  0  0  0  0  0  0  0  # atno 17343 bound_to 10162
  157.5314  130.8061  149.7921 LP  0  0  0  0  0  0  0  0  0  0  0  0  # atno 17370 bound_to 10713
  156.0133  130.3824  150.2193 LP  0  0  0  0  0  0  0  0  0  0  0  0  # atno 17371 bound_to 10713
  141.2227  133.7106  156.8298 LP  0  0  0  0  0  0  0  0  0  0  0  0  # atno 17394 bound_to 11000
  140.2028  134.8885  157.3188 LP  0  0  0  0  0  0  0  0  0  0  0  0  # atno 17395 bound_to 11000

$$$$
