AV-unprocessed.smi:1528|AV-procd|sdf|6151|dock4
  -GOLD-   22720 6303D 1   1.00000     0.00000
 Structure written by MMmdl.
 34 35  0  0  0  0  0  0  0  0  1 V2000
  139.3173  140.5585  153.8704 C   0  0  0  0  0  0  0  0  0  0  0  0
  140.8149  140.5465  154.2053 C   0  0  0  0  0  0  0  0  0  0  0  0
  141.4626  139.3328  153.7219 N   0  0  0  0  0  0  0  0  0  0  0  0
  141.0534  138.0813  153.9863 C   0  0  0  0  0  0  0  0  0  0  0  0
  140.0829  137.8192  154.6968 O   0  0  0  0  0  0  0  0  0  0  0  0
  141.9014  136.9850  153.4086 C   0  0  0  0  0  0  0  0  0  0  0  0
  141.6505  135.6240  153.6888 C   0  0  0  0  0  0  0  0  0  0  0  0
  142.4950  134.6425  153.1355 C   0  0  0  0  0  0  0  0  0  0  0  0
  143.5803  135.0434  152.3208 C   0  0  0  0  0  0  0  0  0  0  0  0
  144.4398  134.0764  151.7553 N   0  0  0  0  0  0  0  0  0  0  0  0
  143.7999  133.0850  150.8938 C   0  0  0  0  0  0  0  0  0  0  0  0
  144.8602  132.2968  150.1052 C   0  0  0  0  0  0  0  0  0  0  0  0
  145.8032  131.7227  151.0043 O   0  0  0  0  0  0  0  0  0  0  0  0
  146.4945  132.7173  151.7521 C   0  0  0  0  0  0  0  0  0  0  0  0
  145.4915  133.5154  152.6017 C   0  0  0  0  0  0  0  0  0  0  0  0
  143.8223  136.3511  152.0577 N   0  0  0  0  0  0  0  0  0  0  0  0
  143.0114  137.2888  152.5918 C   0  0  0  0  0  0  0  0  0  0  0  0
  138.8523  141.4841  154.2098 H   0  0  0  0  0  0  0  0  0  0  0  0
  138.7956  139.7310  154.3523 H   0  0  0  0  0  0  0  0  0  0  0  0
  139.1529  140.4788  152.7954 H   0  0  0  0  0  0  0  0  0  0  0  0
  141.3034  141.4016  153.7374 H   0  0  0  0  0  0  0  0  0  0  0  0
  140.9646  140.6538  155.2810 H   0  0  0  0  0  0  0  0  0  0  0  0
  142.2846  139.4521  153.1480 H   0  0  0  0  0  0  0  0  0  0  0  0
  140.8247  135.3235  154.3172 H   0  0  0  0  0  0  0  0  0  0  0  0
  142.2937  133.6001  153.3316 H   0  0  0  0  0  0  0  0  0  0  0  0
  143.2158  132.4049  151.5151 H   0  0  0  0  0  0  0  0  0  0  0  0
  143.1072  133.5458  150.1914 H   0  0  0  0  0  0  0  0  0  0  0  0
  144.3863  131.4999  149.5319 H   0  0  0  0  0  0  0  0  0  0  0  0
  145.3713  132.9428  149.3893 H   0  0  0  0  0  0  0  0  0  0  0  0
  147.2283  132.2321  152.3954 H   0  0  0  0  0  0  0  0  0  0  0  0
  147.0462  133.3764  151.0799 H   0  0  0  0  0  0  0  0  0  0  0  0
  146.0185  134.3119  153.1283 H   0  0  0  0  0  0  0  0  0  0  0  0
  145.0419  132.8670  153.3549 H   0  0  0  0  0  0  0  0  0  0  0  0
  143.2593  138.3121  152.3499 H   0  0  0  0  0  0  0  0  0  0  0  0
  1  2  1  0  0  0  0
  1 18  1  0  0  0  0
  1 19  1  0  0  0  0
  1 20  1  0  0  0  0
  2  3  1  0  0  0  0
  2 21  1  0  0  0  0
  2 22  1  0  0  0  0
  3  4  1  0  0  0  0
  3 23  1  0  0  0  0
  4  5  2  0  0  0  0
  4  6  1  0  0  0  0
  6 17  1  0  0  0  0
  6  7  2  0  0  0  0
  7  8  1  0  0  0  0
  7 24  1  0  0  0  0
  8  9  2  0  0  0  0
  8 25  1  0  0  0  0
  9 10  1  0  0  0  0
  9 16  1  0  0  0  0
 10 15  1  0  0  0  0
 10 11  1  0  0  0  0
 11 12  1  0  0  0  0
 11 26  1  0  0  0  0
 11 27  1  0  0  0  0
 12 13  1  0  0  0  0
 12 28  1  0  0  0  0
 12 29  1  0  0  0  0
 13 14  1  0  0  0  0
 14 15  1  0  0  0  0
 14 30  1  0  0  0  0
 14 31  1  0  0  0  0
 15 32  1  0  0  0  0
 15 33  1  0  0  0  0
 16 17  2  0  0  0  0
 17 34  1  0  0  0  0
M  END
> <s_m_source_file>
AV-unprocessed.smi

> <i_m_source_file_index>
1528

> <i_lp_mmshare_version>
43012

> <i_f3d_flags>
0

> <s_epik_input>
W0NIM11bQ0gyXVtOSF1DKD1PKWMxW2NIXVtjSF1jKG5bY0hdMSlOMltDSDJdW0NIMl1PW0NIMl1bQ0gyXTI=

> <s_epik_cmdline>
J2VwaWtfcHl0aG9uJywgJy1waCcsICc3LjAnLCAnLXRuJywgJzgnLCAnLW1hJywgJzIwMCcsICctbWV0YWxfYmluZGluZycsICctaW1hZScsICc8aW5maWxlLm1hZT4nLCAnLW9tYWUnLCAnPG91dGZpbGUubWFlPic=

> <r_lp_tautomer_probability>
1

> <r_epik_Ionization_Penalty>
1.55122e-05

> <r_epik_Ionization_Penalty_Charging>
0

> <r_epik_Ionization_Penalty_Neutral>
1.55122e-05

> <r_epik_State_Penalty>
-0

> <r_epik_Charging_Adjusted_Penalty>
0

> <i_epik_Tot_Q>
0

> <i_epik_Tot_abs_Q>
0

> <r_epik_Metal_State_Penalty>
-0

> <b_epik_Metal_Only>
0

> <s_lp_Force_Field>
OPLS_2005

> <r_lp_Energy>
18.5854

> <b_lp_Chiralities_Consistent>
1

> <s_lp_Variant>
AV-unprocessed.smi:1528-1

> <Gold.Version>
5.8.1

> <Gold.Id.Protein>
6NUR|6NUR_protein|mol2

> <Gold.PLP.Fitness>
34.7858

> <Gold.PLP.PLP>
-27.0450

> <Gold.PLP.part.hbond>
-1.6209

> <Gold.PLP.part.metal>
0.0000

> <Gold.PLP.part.buried>
-3.1723

> <Gold.PLP.part.nonpolar>
-21.6640

> <Gold.PLP.part.repulsive>
0.5825

> <Gold.PLP.ligand.clash>
0.0000

> <Gold.PLP.ligand.torsion>
0.3202

> <Gold.PLP.Chemscore.Hbond>
0.9920

> <Gold.PLP.Chemscore.CHOScore>
1.6876

> <Gold.PLP.Chemscore.Metal>
0.0000

> <Gold.Chemscore.Hbonds>
donor molecule, donor type, donor heavy atom, donor atom, acceptor molecule, acceptor atom, score
      L1  H     3    23       P1 10175  1.00
      L1  C    17    34       P1 10171  0.53
      L1  C    17    34       P1 10175  1.00

> <Gold.PLP.Chemscore.Internal.Correction>
0.3424

> <Gold.Rescore>
     Score         DG    S(hbond)    S(metal)    S(lipo)     H(rot)  DE(clash)    DE(int)     intcor
     12.02     -12.46       0.97        0.00      57.93       1.18       0.22       0.22       ----

> <Gold.Chemscore.Fitness>
12.0244

> <Gold.Chemscore.DG>
-12.4586

> <Gold.Chemscore.ZeroCoef>
-5.4800

> <Gold.Chemscore.Hbond>
0.9683

> <Gold.Chemscore.Metal>
0.0000

> <Gold.Chemscore.Lipo>
57.9290

> <Gold.Chemscore.Internal_Hbond>
0.0000

> <Gold.Chemscore.DEClash>
0.2166

> <Gold.Chemscore.DEInternal>
0.2176

> <Gold.Chemscore.Rot>
1.1848

> <Gold.Chemscore.Internal.Correction>
   9.000000E+99

> <Gold.Chemscore.Hbonds>
donor molecule, donor type, donor heavy atom, donor atom, acceptor molecule, acceptor atom, score
      L1  H     3    23       P1 10175  0.92

> <Gold.Chemscore.Hbond.Weighted>
-3.2340

> <Gold.Chemscore.Metal.Weighted>
-0.0000

> <Gold.Chemscore.Lipo.Weighted>
-6.7777

> <Gold.Chemscore.Internal_Hbond.Weighted>
0.0000

> <Gold.Chemscore.DEClash.Weighted>
0.2166

> <Gold.Chemscore.DEInternal.Weighted>
0.2176

> <Gold.Chemscore.Rot.Weighted>
3.0331

> <Gold.Chemscore.Internal.Correction.Weighted>
   9.000000E+99

> <Gold.Protein.RotatedTorsions>
[ 6907 6896 6895 6894 ] final   90.94 input  -60.11 | X-H torsion
[ 7974 7965 7964 7962 ] final   79.42 input  175.53 | X-H torsion
[ 8008 7997 7996 7995 ] final  149.91 input   59.86 | X-H torsion
[ 10167 10162 10161 10158 ] final -163.68 input  -65.29 | X-H torsion
[ 10718 10713 10712 10709 ] final -118.88 input   66.30 | X-H torsion
[ 10763 10752 10751 10750 ] final -162.73 input  -60.55 | X-H torsion
[ 11005 11000 10999 10996 ] final  -13.50 input  -57.11 | X-H torsion

> <Gold.Protein.ActiveResidues>
 VAL166  LYS551  ARG553  GLY616  TRP617  ASP618  TYR619  PRO620  LYS621  CYS622 
 ASP623  PHE694  ASN695  SER759  ASP760  ASP761  ALA762  ILE779  LEU786  VAL792 
 PHE793  MET794  SER795  GLU796  ALA797  LYS798  CYS799  TRP800  GLU811  SER814 

> <Gold.Protein.RotatedAtoms>
  152.5447  134.1734  159.8605 H   0  0  0  0  0  0  0  0  0  0  0  0  # atno 6907 bound_to 6896
  151.1743  133.4758  159.2601 H   0  0  0  0  0  0  0  0  0  0  0  0  # atno 6908 bound_to 6896
  151.1243  135.0108  159.8608 H   0  0  0  0  0  0  0  0  0  0  0  0  # atno 6909 bound_to 6896
  145.6644  139.2480  143.1904 H   0  0  0  0  0  0  0  0  0  0  0  0  # atno 7974 bound_to 7965
  156.2736  140.2089  156.5934 H   0  0  0  0  0  0  0  0  0  0  0  0  # atno 8008 bound_to 7997
  154.6964  140.0525  157.0438 H   0  0  0  0  0  0  0  0  0  0  0  0  # atno 8009 bound_to 7997
  155.0795  140.3185  155.4609 H   0  0  0  0  0  0  0  0  0  0  0  0  # atno 8010 bound_to 7997
  139.6304  144.0451  152.2010 H   0  0  0  0  0  0  0  0  0  0  0  0  # atno 10167 bound_to 10162
  156.1139  130.6270  150.9346 H   0  0  0  0  0  0  0  0  0  0  0  0  # atno 10718 bound_to 10713
  154.7187  135.3021  154.9082 H   0  0  0  0  0  0  0  0  0  0  0  0  # atno 10763 bound_to 10752
  153.9960  135.6713  153.4760 H   0  0  0  0  0  0  0  0  0  0  0  0  # atno 10764 bound_to 10752
  153.0815  135.5006  154.8429 H   0  0  0  0  0  0  0  0  0  0  0  0  # atno 10765 bound_to 10752
  140.7767  133.8395  155.9255 H   0  0  0  0  0  0  0  0  0  0  0  0  # atno 11005 bound_to 11000
  146.1098  140.7442  142.9508 LP  0  0  0  0  0  0  0  0  0  0  0  0  # atno 17320 bound_to 7965
  144.7078  140.3921  143.7104 LP  0  0  0  0  0  0  0  0  0  0  0  0  # atno 17321 bound_to 7965
  140.0115  144.6220  150.7643 LP  0  0  0  0  0  0  0  0  0  0  0  0  # atno 17342 bound_to 10162
  140.7435  143.2848  151.3496 LP  0  0  0  0  0  0  0  0  0  0  0  0  # atno 17343 bound_to 10162
  157.6321  131.0920  150.8420 LP  0  0  0  0  0  0  0  0  0  0  0  0  # atno 17370 bound_to 10713
  156.8526  130.5086  149.5310 LP  0  0  0  0  0  0  0  0  0  0  0  0  # atno 17371 bound_to 10713
  140.9521  134.1765  157.4719 LP  0  0  0  0  0  0  0  0  0  0  0  0  # atno 17394 bound_to 11000
  139.8748  134.9913  156.5543 LP  0  0  0  0  0  0  0  0  0  0  0  0  # atno 17395 bound_to 11000

$$$$
