AV-unprocessed.smi:801|AV-procd|sdf|3790|dock2
  -GOLD-   22720 1223D 1   1.00000     0.00000
 Structure written by MMmdl.
 43 44  0  0  0  0  0  0  0  0  2 V2000
  149.2672  136.9217  158.3937 C   0  0  0  0  0  0  0  0  0  0  0  0
  149.7857  135.7595  157.7713 O   0  0  0  0  0  0  0  0  0  0  0  0
  149.7128  135.8240  156.3572 C   0  0  0  0  0  0  0  0  0  0  0  0
  150.6797  136.9078  155.8580 C   0  0  0  0  0  0  0  0  0  0  0  0
  151.6013  137.3415  156.9300 N   0  0  0  0  0  0  0  0  0  0  0  0
  151.5174  138.6722  157.4206 C   0  0  0  0  0  0  0  0  0  0  0  0
  150.5985  139.5533  156.8254 N   0  0  0  0  0  0  0  0  0  0  0  0
  150.8045  140.2425  155.6885 C   0  0  0  0  0  0  0  0  0  0  0  0
  149.7055  141.2238  155.2968 C   0  0  0  0  0  0  0  0  0  0  0  0
  151.8069  140.1296  154.9829 O   0  0  0  0  0  0  0  0  0  0  0  0
  152.3512  139.1032  158.4108 C   0  0  0  0  0  0  0  0  0  0  0  0
  152.3195  140.4235  158.8677 N   0  0  0  0  0  0  0  0  0  0  0  0
  153.0889  141.1159  159.8905 C   0  0  0  0  0  0  0  0  0  0  0  0
  152.5464  142.4946  160.2261 C   0  0  0  0  0  0  0  0  0  0  0  0
  152.0367  142.7724  161.5138 C   0  0  0  0  0  0  0  0  0  0  0  0
  151.5305  144.0517  161.8161 C   0  0  0  0  0  0  0  0  0  0  0  0
  151.5274  145.0588  160.8319 C   0  0  0  0  0  0  0  0  0  0  0  0
  152.0281  144.7851  159.5446 C   0  0  0  0  0  0  0  0  0  0  0  0
  152.5340  143.5058  159.2418 C   0  0  0  0  0  0  0  0  0  0  0  0
  153.3167  138.1376  158.9668 C   0  0  0  0  0  0  0  0  0  0  0  0
  154.0689  138.4440  159.8907 O   0  0  0  0  0  0  0  0  0  0  0  0
  153.3548  136.8913  158.4255 N   0  5  0  0  0  0  0  0  0  0  0  0
  152.5374  136.4763  157.4191 C   0  0  0  0  0  0  0  0  0  0  0  0
  152.6234  135.3446  156.9400 O   0  0  0  0  0  0  0  0  0  0  0  0
  149.3438  136.8226  159.4765 H   0  0  0  0  0  0  0  0  0  0  0  0
  148.2159  137.0682  158.1428 H   0  0  0  0  0  0  0  0  0  0  0  0
  149.8256  137.8106  158.0967 H   0  0  0  0  0  0  0  0  0  0  0  0
  149.9742  134.8571  155.9242 H   0  0  0  0  0  0  0  0  0  0  0  0
  148.6922  136.0572  156.0501 H   0  0  0  0  0  0  0  0  0  0  0  0
  151.2285  136.5453  154.9889 H   0  0  0  0  0  0  0  0  0  0  0  0
  150.1082  137.7491  155.4624 H   0  0  0  0  0  0  0  0  0  0  0  0
  149.7929  139.7983  157.3821 H   0  0  0  0  0  0  0  0  0  0  0  0
  149.6369  142.0278  156.0301 H   0  0  0  0  0  0  0  0  0  0  0  0
  148.7412  140.7173  155.2464 H   0  0  0  0  0  0  0  0  0  0  0  0
  149.9098  141.6664  154.3213 H   0  0  0  0  0  0  0  0  0  0  0  0
  151.6301  141.0124  158.4239 H   0  0  0  0  0  0  0  0  0  0  0  0
  153.1047  140.5043  160.7934 H   0  0  0  0  0  0  0  0  0  0  0  0
  154.1195  141.2301  159.5532 H   0  0  0  0  0  0  0  0  0  0  0  0
  152.0303  142.0054  162.2746 H   0  0  0  0  0  0  0  0  0  0  0  0
  151.1431  144.2597  162.8025 H   0  0  0  0  0  0  0  0  0  0  0  0
  151.1391  146.0397  161.0632 H   0  0  0  0  0  0  0  0  0  0  0  0
  152.0238  145.5566  158.7888 H   0  0  0  0  0  0  0  0  0  0  0  0
  152.9145  143.3049  158.2509 H   0  0  0  0  0  0  0  0  0  0  0  0
  1  2  1  0  0  0  0
  1 25  1  0  0  0  0
  1 26  1  0  0  0  0
  1 27  1  0  0  0  0
  2  3  1  0  0  0  0
  3  4  1  0  0  0  0
  3 28  1  0  0  0  0
  3 29  1  0  0  0  0
  4  5  1  0  0  0  0
  4 30  1  0  0  0  0
  4 31  1  0  0  0  0
  5 23  1  0  0  0  0
  5  6  1  0  0  0  0
  6  7  1  0  0  0  0
  6 11  2  0  0  0  0
  7  8  1  0  0  0  0
  7 32  1  0  0  0  0
  8  9  1  0  0  0  0
  8 10  2  0  0  0  0
  9 33  1  0  0  0  0
  9 34  1  0  0  0  0
  9 35  1  0  0  0  0
 11 12  1  0  0  0  0
 11 20  1  0  0  0  0
 12 13  1  0  0  0  0
 12 36  1  0  0  0  0
 13 14  1  0  0  0  0
 13 37  1  0  0  0  0
 13 38  1  0  0  0  0
 14 19  1  0  0  0  0
 14 15  2  0  0  0  0
 15 16  1  0  0  0  0
 15 39  1  0  0  0  0
 16 17  2  0  0  0  0
 16 40  1  0  0  0  0
 17 18  1  0  0  0  0
 17 41  1  0  0  0  0
 18 19  2  0  0  0  0
 18 42  1  0  0  0  0
 19 43  1  0  0  0  0
 20 21  2  0  0  0  0
 20 22  1  0  0  0  0
 22 23  1  0  0  0  0
 23 24  2  0  0  0  0
M  CHG  1  22  -1
M  END
> <s_m_source_file>
AV-unprocessed.smi

> <i_m_source_file_index>
801

> <i_lp_mmshare_version>
43012

> <i_f3d_flags>
0

> <s_epik_input>
W0NIM11PW0NIMl1bQ0gyXW4xYyhbTkhdQyg9TylbQ0gzXSljKGMoPU8pW25IXWMxPU8pW05IXVtDSDJdYzJbY0hdW2NIXVtjSF1bY0hdW2NIXTI=

> <s_epik_cmdline>
J2VwaWtfcHl0aG9uJywgJy1waCcsICc3LjAnLCAnLXRuJywgJzgnLCAnLW1hJywgJzIwMCcsICctbWV0YWxfYmluZGluZycsICctaW1hZScsICc8aW5maWxlLm1hZT4nLCAnLW9tYWUnLCAnPG91dGZpbGUubWFlPic=

> <r_lp_tautomer_probability>
0.999901

> <r_epik_Ionization_Penalty>
3.93073

> <r_epik_Ionization_Penalty_Charging>
1.379e-07

> <r_epik_Ionization_Penalty_Neutral>
3.93073

> <r_epik_State_Penalty>
3.9304

> <r_epik_Charging_Adjusted_Penalty>
3.9304

> <i_epik_Tot_Q>
-1

> <i_epik_Tot_abs_Q>
1

> <r_epik_Metal_State_Penalty>
0.600886

> <b_epik_Metal_Only>
1

> <s_lp_Force_Field>
OPLS_2005

> <r_lp_Energy>
31.5589

> <b_lp_Chiralities_Consistent>
1

> <s_lp_Variant>
AV-unprocessed.smi:801-2

> <Gold.Version>
5.8.1

> <Gold.Id.Protein>
6NUR|6NUR_protein|mol2

> <Gold.PLP.Fitness>
53.5158

> <Gold.PLP.PLP>
-45.9861

> <Gold.PLP.part.hbond>
-3.1644

> <Gold.PLP.part.metal>
0.0000

> <Gold.PLP.part.buried>
-6.6355

> <Gold.PLP.part.nonpolar>
-36.8278

> <Gold.PLP.part.repulsive>
0.1960

> <Gold.PLP.ligand.clash>
0.0000

> <Gold.PLP.ligand.torsion>
1.1984

> <Gold.PLP.Chemscore.Hbond>
2.9280

> <Gold.PLP.Chemscore.CHOScore>
0.0000

> <Gold.PLP.Chemscore.Metal>
0.0000

> <Gold.Chemscore.Hbonds>
donor molecule, donor type, donor heavy atom, donor atom, acceptor molecule, acceptor atom, score
      P1  H  6896  6909       L1     2  0.31
      P1  H  7989  7998       L1    10  0.91
      P1  H 10752 10763       L1    24  1.00

> <Gold.PLP.Chemscore.Internal.Correction>
1.1426

> <Gold.Rescore>
     Score         DG    S(hbond)    S(metal)    S(lipo)     H(rot)  DE(clash)    DE(int)     intcor
     17.15     -20.30       2.38        0.00     102.08       1.98       0.19       2.95       ----

> <Gold.Chemscore.Fitness>
17.1523

> <Gold.Chemscore.DG>
-20.2956

> <Gold.Chemscore.ZeroCoef>
-5.4800

> <Gold.Chemscore.Hbond>
2.3794

> <Gold.Chemscore.Metal>
0.0000

> <Gold.Chemscore.Lipo>
102.0805

> <Gold.Chemscore.Internal_Hbond>
0.0000

> <Gold.Chemscore.DEClash>
0.1897

> <Gold.Chemscore.DEInternal>
2.9535

> <Gold.Chemscore.Rot>
1.9824

> <Gold.Chemscore.Internal.Correction>
   9.000000E+99

> <Gold.Chemscore.Hbonds>
donor molecule, donor type, donor heavy atom, donor atom, acceptor molecule, acceptor atom, score
      P1  H  6896  6909       L1     2  0.12
      P1  H  7989  7998       L1    10  0.79
      P1  H 10752 10763       L1    24  0.78

> <Gold.Chemscore.Hbond.Weighted>
-7.9470

> <Gold.Chemscore.Metal.Weighted>
-0.0000

> <Gold.Chemscore.Lipo.Weighted>
-11.9434

> <Gold.Chemscore.Internal_Hbond.Weighted>
0.0000

> <Gold.Chemscore.DEClash.Weighted>
0.1897

> <Gold.Chemscore.DEInternal.Weighted>
2.9535

> <Gold.Chemscore.Rot.Weighted>
5.0749

> <Gold.Chemscore.Internal.Correction.Weighted>
   9.000000E+99

> <Gold.Protein.RotatedTorsions>
[ 6907 6896 6895 6894 ] final   51.59 input  -60.11 | X-H torsion
[ 7974 7965 7964 7962 ] final  171.60 input  175.53 | X-H torsion
[ 8008 7997 7996 7995 ] final  -25.36 input   59.86 | X-H torsion
[ 10167 10162 10161 10158 ] final -170.39 input  -65.29 | X-H torsion
[ 10718 10713 10712 10709 ] final  -16.72 input   66.30 | X-H torsion
[ 10763 10752 10751 10750 ] final  102.04 input  -60.55 | X-H torsion
[ 11005 11000 10999 10996 ] final  119.99 input  -57.11 | X-H torsion

> <Gold.Protein.ActiveResidues>
 VAL166  LYS551  ARG553  GLY616  TRP617  ASP618  TYR619  PRO620  LYS621  CYS622 
 ASP623  PHE694  ASN695  SER759  ASP760  ASP761  ALA762  ILE779  LEU786  VAL792 
 PHE793  MET794  SER795  GLU796  ALA797  LYS798  CYS799  TRP800  GLU811  SER814 

> <Gold.Protein.RotatedAtoms>
  152.3143  134.7459  160.0328 H   0  0  0  0  0  0  0  0  0  0  0  0  # atno 6907 bound_to 6896
  151.7929  133.3356  159.3512 H   0  0  0  0  0  0  0  0  0  0  0  0  # atno 6908 bound_to 6896
  150.7336  134.5756  159.5957 H   0  0  0  0  0  0  0  0  0  0  0  0  # atno 6909 bound_to 6896
  144.7290  139.9374  143.6427 H   0  0  0  0  0  0  0  0  0  0  0  0  # atno 7974 bound_to 7965
  154.4480  140.1928  156.0607 H   0  0  0  0  0  0  0  0  0  0  0  0  # atno 8008 bound_to 7997
  156.0585  140.3300  155.7406 H   0  0  0  0  0  0  0  0  0  0  0  0  # atno 8009 bound_to 7997
  155.5449  140.0589  157.2853 H   0  0  0  0  0  0  0  0  0  0  0  0  # atno 8010 bound_to 7997
  139.5864  144.1308  152.1581 H   0  0  0  0  0  0  0  0  0  0  0  0  # atno 10167 bound_to 10162
  156.5836  130.4780  149.6310 H   0  0  0  0  0  0  0  0  0  0  0  0  # atno 10718 bound_to 10713
  153.3344  135.4024  155.1522 H   0  0  0  0  0  0  0  0  0  0  0  0  # atno 10763 bound_to 10752
  154.8630  135.3618  154.5427 H   0  0  0  0  0  0  0  0  0  0  0  0  # atno 10764 bound_to 10752
  153.5868  135.7075  153.5499 H   0  0  0  0  0  0  0  0  0  0  0  0  # atno 10765 bound_to 10752
  139.9168  134.9632  156.7740 H   0  0  0  0  0  0  0  0  0  0  0  0  # atno 11005 bound_to 11000
  146.0811  139.3799  143.0464 LP  0  0  0  0  0  0  0  0  0  0  0  0  # atno 17320 bound_to 7965
  145.7839  140.9844  143.1084 LP  0  0  0  0  0  0  0  0  0  0  0  0  # atno 17321 bound_to 7965
  140.0873  144.5650  150.7080 LP  0  0  0  0  0  0  0  0  0  0  0  0  # atno 17342 bound_to 10162
  140.7135  143.2525  151.4506 LP  0  0  0  0  0  0  0  0  0  0  0  0  # atno 17343 bound_to 10162
  156.2610  130.6962  151.1731 LP  0  0  0  0  0  0  0  0  0  0  0  0  # atno 17370 bound_to 10713
  157.7321  131.0603  150.5647 LP  0  0  0  0  0  0  0  0  0  0  0  0  # atno 17371 bound_to 10713
  140.6598  133.9655  155.7799 LP  0  0  0  0  0  0  0  0  0  0  0  0  # atno 17394 bound_to 11000
  141.0651  134.0289  157.3605 LP  0  0  0  0  0  0  0  0  0  0  0  0  # atno 17395 bound_to 11000

$$$$
