AV-unprocessed.smi:3249|AV-procd|sdf|12420|dock3
  -GOLD-   2272018303D 1   1.00000     0.00000
 Structure written by MMmdl.
 44 45  0  0  0  0  0  0  0  0  2 V2000
  145.4827  144.4092  152.7223 C   0  0  0  0  0  0  0  0  0  0  0  0
  145.7443  143.5204  153.9038 C   0  0  0  0  0  0  0  0  0  0  0  0
  145.1623  143.5958  155.2009 C   0  0  0  0  0  0  0  0  0  0  0  0
  145.6108  142.6593  156.0201 N   0  0  0  0  0  0  0  0  0  0  0  0
  146.4919  141.9516  155.2785 N   0  0  0  0  0  0  0  0  0  0  0  0
  147.2020  140.8212  155.8635 C   0  0  1  0  0  0  0  0  0  0  0  0
  146.7179  139.5079  155.2198 C   0  0  0  0  0  0  0  0  0  0  0  0
  148.7431  140.9973  155.7906 C   0  0  1  0  0  0  0  0  0  0  0  0
  149.2680  141.1347  154.3499 C   0  0  0  0  0  0  0  0  0  0  0  0
  149.1641  142.1854  156.5667 N   0  3  0  0  0  0  0  0  0  0  0  0
  150.5905  142.2019  156.9529 C   0  0  0  0  0  0  0  0  0  0  0  0
  150.7896  142.7990  158.3541 C   0  0  2  0  0  0  0  0  0  0  0  0
  150.6835  144.3384  158.3685 C   0  0  0  0  0  0  0  0  0  0  0  0
  150.9884  144.8871  159.7672 C   0  0  0  0  0  0  0  0  0  0  0  0
  152.3368  144.3456  160.2529 C   0  0  0  0  0  0  0  0  0  0  0  0
  152.3687  142.8132  160.1400 C   0  0  0  0  0  0  0  0  0  0  0  0
  152.0892  142.4193  158.7997 O   0  0  0  0  0  0  0  0  0  0  0  0
  146.5930  142.4541  153.9978 C   0  0  0  0  0  0  0  0  0  0  0  0
  144.6415  145.0803  152.8977 H   0  0  0  0  0  0  0  0  0  0  0  0
  145.2507  143.8317  151.8273 H   0  0  0  0  0  0  0  0  0  0  0  0
  146.3466  145.0316  152.4892 H   0  0  0  0  0  0  0  0  0  0  0  0
  144.4312  144.3006  155.5693 H   0  0  0  0  0  0  0  0  0  0  0  0
  146.9196  140.7912  156.9173 H   0  0  0  0  0  0  0  0  0  0  0  0
  147.1219  138.6363  155.7345 H   0  0  0  0  0  0  0  0  0  0  0  0
  147.0143  139.4421  154.1726 H   0  0  0  0  0  0  0  0  0  0  0  0
  145.6310  139.4300  155.2618 H   0  0  0  0  0  0  0  0  0  0  0  0
  149.2130  140.1091  156.2174 H   0  0  0  0  0  0  0  0  0  0  0  0
  149.0749  140.2387  153.7596 H   0  0  0  0  0  0  0  0  0  0  0  0
  150.3466  141.2944  154.3411 H   0  0  0  0  0  0  0  0  0  0  0  0
  148.8030  141.9774  153.8373 H   0  0  0  0  0  0  0  0  0  0  0  0
  148.9806  143.0075  156.0093 H   0  0  0  0  0  0  0  0  0  0  0  0
  150.9649  141.1775  156.9407 H   0  0  0  0  0  0  0  0  0  0  0  0
  151.1675  142.7603  156.2146 H   0  0  0  0  0  0  0  0  0  0  0  0
  150.0498  142.3672  159.0309 H   0  0  0  0  0  0  0  0  0  0  0  0
  151.3864  144.7634  157.6508 H   0  0  0  0  0  0  0  0  0  0  0  0
  149.6884  144.6569  158.0575 H   0  0  0  0  0  0  0  0  0  0  0  0
  150.9982  145.9774  159.7557 H   0  0  0  0  0  0  0  0  0  0  0  0
  150.2012  144.5871  160.4598 H   0  0  0  0  0  0  0  0  0  0  0  0
  153.1413  144.7718  159.6523 H   0  0  0  0  0  0  0  0  0  0  0  0
  152.5183  144.6531  161.2831 H   0  0  0  0  0  0  0  0  0  0  0  0
  153.3532  142.4376  160.4190 H   0  0  0  0  0  0  0  0  0  0  0  0
  151.6496  142.3571  160.8222 H   0  0  0  0  0  0  0  0  0  0  0  0
  147.2538  142.0158  153.2643 H   0  0  0  0  0  0  0  0  0  0  0  0
  148.6009  142.2340  157.4038 H   0  0  0  0  0  0  0  0  0  0  0  0
  1  2  1  0  0  0  0
  1 19  1  0  0  0  0
  1 20  1  0  0  0  0
  1 21  1  0  0  0  0
  2 18  2  0  0  0  0
  2  3  1  0  0  0  0
  3  4  2  0  0  0  0
  3 22  1  0  0  0  0
  4  5  1  0  0  0  0
  5  6  1  0  0  0  0
  5 18  1  0  0  0  0
  6  7  1  0  0  0  0
  6  8  1  0  0  0  0
  6 23  1  0  0  0  0
  7 24  1  0  0  0  0
  7 25  1  0  0  0  0
  7 26  1  0  0  0  0
  8  9  1  0  0  0  0
  8 10  1  0  0  0  0
  8 27  1  0  0  0  0
  9 28  1  0  0  0  0
  9 29  1  0  0  0  0
  9 30  1  0  0  0  0
 10 11  1  0  0  0  0
 10 31  1  0  0  0  0
 10 44  1  0  0  0  0
 11 12  1  0  0  0  0
 11 32  1  0  0  0  0
 11 33  1  0  0  0  0
 12 17  1  0  0  0  0
 12 13  1  0  0  0  0
 12 34  1  0  0  0  0
 13 14  1  0  0  0  0
 13 35  1  0  0  0  0
 13 36  1  0  0  0  0
 14 15  1  0  0  0  0
 14 37  1  0  0  0  0
 14 38  1  0  0  0  0
 15 16  1  0  0  0  0
 15 39  1  0  0  0  0
 15 40  1  0  0  0  0
 16 17  1  0  0  0  0
 16 41  1  0  0  0  0
 16 42  1  0  0  0  0
 18 43  1  0  0  0  0
M  CHG  1  10   1
M  END
> <s_m_source_file>
AV-unprocessed.smi

> <i_m_source_file_index>
3249

> <i_lp_mmshare_version>
43012

> <i_f3d_flags>
0

> <s_epik_input>
W0NIM11jMVtjSF1ubihbY0hdMSlbQ0BIXShbQ0gzXSlbQ0BIXShbQ0gzXSlbTkhdW0NIMl1bQ0BASF0yW0NIMl1bQ0gyXVtDSDJdW0NIMl1PMg==

> <s_epik_cmdline>
J2VwaWtfcHl0aG9uJywgJy1waCcsICc3LjAnLCAnLXRuJywgJzgnLCAnLW1hJywgJzIwMCcsICctbWV0YWxfYmluZGluZycsICctaW1hZScsICc8aW5maWxlLm1hZT4nLCAnLW9tYWUnLCAnPG91dGZpbGUubWFlPic=

> <r_lp_tautomer_probability>
1

> <r_epik_Ionization_Penalty>
0.00659207

> <r_epik_Ionization_Penalty_Charging>
0.00656881

> <r_epik_Ionization_Penalty_Neutral>
2.32662e-05

> <r_epik_State_Penalty>
0.0048654

> <r_epik_Charging_Adjusted_Penalty>
0.0114342

> <i_epik_Tot_Q>
1

> <i_epik_Tot_abs_Q>
1

> <r_epik_Metal_State_Penalty>
-0

> <b_epik_Metal_Only>
0

> <s_lp_Force_Field>
OPLS_2005

> <r_lp_Energy>
19.2424

> <b_lp_Chiralities_Consistent>
1

> <s_lp_Variant>
AV-unprocessed.smi:3249-4

> <Gold.Version>
5.8.1

> <Gold.Id.Protein>
6NUR|6NUR_protein|mol2

> <Gold.PLP.Fitness>
43.5861

> <Gold.PLP.PLP>
-38.7220

> <Gold.PLP.part.hbond>
-1.0000

> <Gold.PLP.part.metal>
0.0000

> <Gold.PLP.part.buried>
-4.8303

> <Gold.PLP.part.nonpolar>
-33.2573

> <Gold.PLP.part.repulsive>
0.1453

> <Gold.PLP.ligand.clash>
0.0000

> <Gold.PLP.ligand.torsion>
0.6375

> <Gold.PLP.Chemscore.Hbond>
2.0000

> <Gold.PLP.Chemscore.CHOScore>
0.0000

> <Gold.PLP.Chemscore.Metal>
0.0000

> <Gold.Chemscore.Hbonds>
donor molecule, donor type, donor heavy atom, donor atom, acceptor molecule, acceptor atom, score
      L1  H    10    31       P1  8028  2.00

> <Gold.PLP.Chemscore.Internal.Correction>
0.1391

> <Gold.Rescore>
     Score         DG    S(hbond)    S(metal)    S(lipo)     H(rot)  DE(clash)    DE(int)     intcor
     16.29     -17.03       0.99        0.00     103.88       1.53       0.13       0.61       ----

> <Gold.Chemscore.Fitness>
16.2853

> <Gold.Chemscore.DG>
-17.0282

> <Gold.Chemscore.ZeroCoef>
-5.4800

> <Gold.Chemscore.Hbond>
0.9937

> <Gold.Chemscore.Metal>
0.0000

> <Gold.Chemscore.Lipo>
103.8839

> <Gold.Chemscore.Internal_Hbond>
0.0000

> <Gold.Chemscore.DEClash>
0.1332

> <Gold.Chemscore.DEInternal>
0.6097

> <Gold.Chemscore.Rot>
1.5333

> <Gold.Chemscore.Internal.Correction>
   9.000000E+99

> <Gold.Chemscore.Hbonds>
donor molecule, donor type, donor heavy atom, donor atom, acceptor molecule, acceptor atom, score
      L1  H    10    31       P1  8028  0.99

> <Gold.Chemscore.Hbond.Weighted>
-3.3190

> <Gold.Chemscore.Metal.Weighted>
-0.0000

> <Gold.Chemscore.Lipo.Weighted>
-12.1544

> <Gold.Chemscore.Internal_Hbond.Weighted>
0.0000

> <Gold.Chemscore.DEClash.Weighted>
0.1332

> <Gold.Chemscore.DEInternal.Weighted>
0.6097

> <Gold.Chemscore.Rot.Weighted>
3.9252

> <Gold.Chemscore.Internal.Correction.Weighted>
   9.000000E+99

> <Gold.Protein.RotatedTorsions>
[ 6907 6896 6895 6894 ] final    7.28 input  -60.11 | X-H torsion
[ 7974 7965 7964 7962 ] final  -15.20 input  175.53 | X-H torsion
[ 8008 7997 7996 7995 ] final -108.05 input   59.86 | X-H torsion
[ 10167 10162 10161 10158 ] final  -61.52 input  -65.29 | X-H torsion
[ 10718 10713 10712 10709 ] final  100.44 input   66.30 | X-H torsion
[ 10763 10752 10751 10750 ] final -167.94 input  -60.55 | X-H torsion
[ 11005 11000 10999 10996 ] final  115.16 input  -57.11 | X-H torsion

> <Gold.Protein.ActiveResidues>
 VAL166  LYS551  ARG553  GLY616  TRP617  ASP618  TYR619  PRO620  LYS621  CYS622 
 ASP623  PHE694  ASN695  SER759  ASP760  ASP761  ALA762  ILE779  LEU786  VAL792 
 PHE793  MET794  SER795  GLU796  ALA797  LYS798  CYS799  TRP800  GLU811  SER814 

> <Gold.Protein.RotatedAtoms>
  151.6873  135.0952  160.0226 H   0  0  0  0  0  0  0  0  0  0  0  0  # atno 6907 bound_to 6896
  152.3799  133.6528  159.6162 H   0  0  0  0  0  0  0  0  0  0  0  0  # atno 6908 bound_to 6896
  150.7739  133.9047  159.3393 H   0  0  0  0  0  0  0  0  0  0  0  0  # atno 6909 bound_to 6896
  146.2042  140.3459  142.8413 H   0  0  0  0  0  0  0  0  0  0  0  0  # atno 7974 bound_to 7965
  154.9385  140.0403  157.2085 H   0  0  0  0  0  0  0  0  0  0  0  0  # atno 8008 bound_to 7997
  154.8092  140.2865  155.5844 H   0  0  0  0  0  0  0  0  0  0  0  0  # atno 8009 bound_to 7997
  156.2969  140.2540  156.2976 H   0  0  0  0  0  0  0  0  0  0  0  0  # atno 8010 bound_to 7997
  140.6001  143.2359  151.5949 H   0  0  0  0  0  0  0  0  0  0  0  0  # atno 10167 bound_to 10162
  157.6854  131.0698  150.5100 H   0  0  0  0  0  0  0  0  0  0  0  0  # atno 10718 bound_to 10713
  154.6680  135.2935  154.9780 H   0  0  0  0  0  0  0  0  0  0  0  0  # atno 10763 bound_to 10752
  154.0816  135.6603  153.4843 H   0  0  0  0  0  0  0  0  0  0  0  0  # atno 10764 bound_to 10752
  153.0469  135.5199  154.7662 H   0  0  0  0  0  0  0  0  0  0  0  0  # atno 10765 bound_to 10752
  139.9001  134.9579  156.7003 H   0  0  0  0  0  0  0  0  0  0  0  0  # atno 11005 bound_to 11000
  144.8753  140.7328  143.6021 LP  0  0  0  0  0  0  0  0  0  0  0  0  # atno 17320 bound_to 7965
  145.3379  139.1740  143.4502 LP  0  0  0  0  0  0  0  0  0  0  0  0  # atno 17321 bound_to 7965
  139.5285  144.2987  152.1091 LP  0  0  0  0  0  0  0  0  0  0  0  0  # atno 17342 bound_to 10162
  140.2166  144.4508  150.6361 LP  0  0  0  0  0  0  0  0  0  0  0  0  # atno 17343 bound_to 10162
  156.5418  130.4210  149.6150 LP  0  0  0  0  0  0  0  0  0  0  0  0  # atno 17370 bound_to 10713
  156.2979  130.7160  151.2025 LP  0  0  0  0  0  0  0  0  0  0  0  0  # atno 17371 bound_to 10713
  140.7156  133.9185  155.8113 LP  0  0  0  0  0  0  0  0  0  0  0  0  # atno 17394 bound_to 11000
  141.0267  134.0814  157.4060 LP  0  0  0  0  0  0  0  0  0  0  0  0  # atno 17395 bound_to 11000

$$$$
