AV-unprocessed.smi:2327|AV-procd|sdf|9299|dock3
  -GOLD-   2272012523D 1   1.00000     0.00000
 Structure written by MMmdl.
 40 41  0  0  0  0  0  0  0  0  1 V2000
  145.2822  144.5174  152.9213 C   0  0  0  0  0  0  0  0  0  0  0  0
  145.6980  143.5083  153.9445 C   0  0  0  0  0  0  0  0  0  0  0  0
  145.2943  143.4433  155.2547 C   0  0  0  0  0  0  0  0  0  0  0  0
  146.0302  142.1063  156.0950 S   0  0  0  0  0  0  0  0  0  0  0  0
  146.8725  141.6756  154.6103 C   0  0  0  0  0  0  0  0  0  0  0  0
  147.8330  140.5295  154.5149 C   0  0  1  0  0  0  0  0  0  0  0  0
  147.4127  139.5133  153.4433 C   0  0  0  0  0  0  0  0  0  0  0  0
  149.3018  140.9798  154.3719 C   0  0  0  0  0  0  0  0  0  0  0  0
  149.6332  142.0619  155.2961 N   0  0  0  0  0  0  0  0  0  0  0  0
  150.5825  142.0228  156.2471 C   0  0  0  0  0  0  0  0  0  0  0  0
  151.2694  141.0312  156.4837 O   0  0  0  0  0  0  0  0  0  0  0  0
  150.7292  143.1660  156.9402 N   0  0  0  0  0  0  0  0  0  0  0  0
  151.6634  143.4527  158.0306 C   0  0  0  0  0  0  0  0  0  0  0  0
  151.6348  142.3014  159.0474 C   0  0  0  0  0  0  0  0  0  0  0  0
  152.4895  142.6384  160.2803 C   0  0  0  0  0  0  0  0  0  0  0  0
  152.0427  143.8564  160.8657 O   0  0  0  0  0  0  0  0  0  0  0  0
  152.1727  144.9715  159.9909 C   0  0  0  0  0  0  0  0  0  0  0  0
  151.2973  144.7667  158.7441 C   0  0  0  0  0  0  0  0  0  0  0  0
  146.5938  142.4957  153.5925 N   0  0  0  0  0  0  0  0  0  0  0  0
  144.5710  145.2340  153.3327 H   0  0  0  0  0  0  0  0  0  0  0  0
  144.8079  144.0370  152.0653 H   0  0  0  0  0  0  0  0  0  0  0  0
  146.1406  145.0792  152.5523 H   0  0  0  0  0  0  0  0  0  0  0  0
  144.6130  144.0993  155.7757 H   0  0  0  0  0  0  0  0  0  0  0  0
  147.7672  140.0036  155.4684 H   0  0  0  0  0  0  0  0  0  0  0  0
  146.4035  139.1432  153.6272 H   0  0  0  0  0  0  0  0  0  0  0  0
  148.0831  138.6537  153.4332 H   0  0  0  0  0  0  0  0  0  0  0  0
  147.4288  139.9577  152.4476 H   0  0  0  0  0  0  0  0  0  0  0  0
  149.9674  140.1423  154.5810 H   0  0  0  0  0  0  0  0  0  0  0  0
  149.5021  141.2754  153.3405 H   0  0  0  0  0  0  0  0  0  0  0  0
  149.1166  142.9222  155.1866 H   0  0  0  0  0  0  0  0  0  0  0  0
  150.0883  143.9117  156.7094 H   0  0  0  0  0  0  0  0  0  0  0  0
  152.6787  143.5253  157.6356 H   0  0  0  0  0  0  0  0  0  0  0  0
  150.6086  142.1128  159.3665 H   0  0  0  0  0  0  0  0  0  0  0  0
  151.9926  141.3804  158.5860 H   0  0  0  0  0  0  0  0  0  0  0  0
  152.4074  141.8426  161.0207 H   0  0  0  0  0  0  0  0  0  0  0  0
  153.5445  142.7166  160.0131 H   0  0  0  0  0  0  0  0  0  0  0  0
  151.8634  145.8725  160.5208 H   0  0  0  0  0  0  0  0  0  0  0  0
  153.2188  145.1093  159.7128 H   0  0  0  0  0  0  0  0  0  0  0  0
  151.4108  145.6164  158.0704 H   0  0  0  0  0  0  0  0  0  0  0  0
  150.2485  144.7453  159.0436 H   0  0  0  0  0  0  0  0  0  0  0  0
  1  2  1  0  0  0  0
  1 20  1  0  0  0  0
  1 21  1  0  0  0  0
  1 22  1  0  0  0  0
  2 19  1  0  0  0  0
  2  3  2  0  0  0  0
  3  4  1  0  0  0  0
  3 23  1  0  0  0  0
  4  5  1  0  0  0  0
  5  6  1  0  0  0  0
  5 19  2  0  0  0  0
  6  7  1  0  0  0  0
  6  8  1  0  0  0  0
  6 24  1  0  0  0  0
  7 25  1  0  0  0  0
  7 26  1  0  0  0  0
  7 27  1  0  0  0  0
  8  9  1  0  0  0  0
  8 28  1  0  0  0  0
  8 29  1  0  0  0  0
  9 10  1  0  0  0  0
  9 30  1  0  0  0  0
 10 11  2  0  0  0  0
 10 12  1  0  0  0  0
 12 13  1  0  0  0  0
 12 31  1  0  0  0  0
 13 18  1  0  0  0  0
 13 14  1  0  0  0  0
 13 32  1  0  0  0  0
 14 15  1  0  0  0  0
 14 33  1  0  0  0  0
 14 34  1  0  0  0  0
 15 16  1  0  0  0  0
 15 35  1  0  0  0  0
 15 36  1  0  0  0  0
 16 17  1  0  0  0  0
 17 18  1  0  0  0  0
 17 37  1  0  0  0  0
 17 38  1  0  0  0  0
 18 39  1  0  0  0  0
 18 40  1  0  0  0  0
M  END
> <s_m_source_file>
AV-unprocessed.smi

> <i_m_source_file_index>
2327

> <i_lp_mmshare_version>
43012

> <i_f3d_flags>
0

> <s_epik_input>
W0NIM11jMVtjSF1zYyhuMSlbQ0BIXShbQ0gzXSlbQ0gyXVtOSF1DKD1PKVtOSF1bQ0hdMltDSDJdW0NIMl1PW0NIMl1bQ0gyXTI=

> <s_epik_cmdline>
J2VwaWtfcHl0aG9uJywgJy1waCcsICc3LjAnLCAnLXRuJywgJzgnLCAnLW1hJywgJzIwMCcsICctbWV0YWxfYmluZGluZycsICctaW1hZScsICc8aW5maWxlLm1hZT4nLCAnLW9tYWUnLCAnPG91dGZpbGUubWFlPic=

> <r_epik_Ionization_Penalty>
0.0015425

> <r_epik_Ionization_Penalty_Charging>
0

> <r_epik_Ionization_Penalty_Neutral>
0.0015425

> <r_epik_State_Penalty>
0.000998134

> <r_epik_Charging_Adjusted_Penalty>
0.000998134

> <i_epik_Tot_Q>
0

> <i_epik_Tot_abs_Q>
0

> <r_epik_Metal_State_Penalty>
-0

> <b_epik_Metal_Only>
0

> <s_lp_Force_Field>
OPLS_2005

> <r_lp_Energy>
7.91954

> <b_lp_Chiralities_Consistent>
1

> <s_lp_Variant>
AV-unprocessed.smi:2327-2

> <Gold.Version>
5.8.1

> <Gold.Id.Protein>
6NUR|6NUR_protein|mol2

> <Gold.PLP.Fitness>
48.1276

> <Gold.PLP.PLP>
-42.6760

> <Gold.PLP.part.hbond>
-2.0000

> <Gold.PLP.part.metal>
0.0000

> <Gold.PLP.part.buried>
-5.3247

> <Gold.PLP.part.nonpolar>
-35.4428

> <Gold.PLP.part.repulsive>
0.5503

> <Gold.PLP.ligand.clash>
0.0000

> <Gold.PLP.ligand.torsion>
0.3151

> <Gold.PLP.Chemscore.Hbond>
1.9920

> <Gold.PLP.Chemscore.CHOScore>
0.0000

> <Gold.PLP.Chemscore.Metal>
0.0000

> <Gold.Chemscore.Hbonds>
donor molecule, donor type, donor heavy atom, donor atom, acceptor molecule, acceptor atom, score
      L1  H     9    30       P1  8028  0.99
      L1  H    12    31       P1  8028  1.00

> <Gold.PLP.Chemscore.Internal.Correction>
0.1058

> <Gold.Rescore>
     Score         DG    S(hbond)    S(metal)    S(lipo)     H(rot)  DE(clash)    DE(int)     intcor
     18.44     -20.39       1.91        0.00     106.32       1.53       0.23       1.72       ----

> <Gold.Chemscore.Fitness>
18.4415

> <Gold.Chemscore.DG>
-20.3884

> <Gold.Chemscore.ZeroCoef>
-5.4800

> <Gold.Chemscore.Hbond>
1.9140

> <Gold.Chemscore.Metal>
0.0000

> <Gold.Chemscore.Lipo>
106.3156

> <Gold.Chemscore.Internal_Hbond>
0.0000

> <Gold.Chemscore.DEClash>
0.2278

> <Gold.Chemscore.DEInternal>
1.7191

> <Gold.Chemscore.Rot>
1.5325

> <Gold.Chemscore.Internal.Correction>
   9.000000E+99

> <Gold.Chemscore.Hbonds>
donor molecule, donor type, donor heavy atom, donor atom, acceptor molecule, acceptor atom, score
      L1  H     9    30       P1  8028  0.94
      L1  H    12    31       P1  8028  0.98

> <Gold.Chemscore.Hbond.Weighted>
-6.3928

> <Gold.Chemscore.Metal.Weighted>
-0.0000

> <Gold.Chemscore.Lipo.Weighted>
-12.4389

> <Gold.Chemscore.Internal_Hbond.Weighted>
0.0000

> <Gold.Chemscore.DEClash.Weighted>
0.2278

> <Gold.Chemscore.DEInternal.Weighted>
1.7191

> <Gold.Chemscore.Rot.Weighted>
3.9233

> <Gold.Chemscore.Internal.Correction.Weighted>
   9.000000E+99

> <Gold.Protein.RotatedTorsions>
[ 6907 6896 6895 6894 ] final -140.94 input  -60.11 | X-H torsion
[ 7974 7965 7964 7962 ] final    1.89 input  175.53 | X-H torsion
[ 8008 7997 7996 7995 ] final  -57.97 input   59.86 | X-H torsion
[ 10167 10162 10161 10158 ] final -155.32 input  -65.29 | X-H torsion
[ 10718 10713 10712 10709 ] final  -99.35 input   66.30 | X-H torsion
[ 10763 10752 10751 10750 ] final    0.24 input  -60.55 | X-H torsion
[ 11005 11000 10999 10996 ] final  127.94 input  -57.11 | X-H torsion

> <Gold.Protein.ActiveResidues>
 VAL166  LYS551  ARG553  GLY616  TRP617  ASP618  TYR619  PRO620  LYS621  CYS622 
 ASP623  PHE694  ASN695  SER759  ASP760  ASP761  ALA762  ILE779  LEU786  VAL792 
 PHE793  MET794  SER795  GLU796  ALA797  LYS798  CYS799  TRP800  GLU811  SER814 

> <Gold.Protein.RotatedAtoms>
  151.0672  133.5495  159.2629 H   0  0  0  0  0  0  0  0  0  0  0  0  # atno 6907 bound_to 6896
  151.2448  135.0601  159.9049 H   0  0  0  0  0  0  0  0  0  0  0  0  # atno 6908 bound_to 6896
  152.5406  134.0441  159.8134 H   0  0  0  0  0  0  0  0  0  0  0  0  # atno 6909 bound_to 6896
  146.2442  140.0919  142.8351 H   0  0  0  0  0  0  0  0  0  0  0  0  # atno 7974 bound_to 7965
  154.4289  140.1095  156.5882 H   0  0  0  0  0  0  0  0  0  0  0  0  # atno 8008 bound_to 7997
  155.6040  140.3493  155.4583 H   0  0  0  0  0  0  0  0  0  0  0  0  # atno 8009 bound_to 7997
  156.0151  140.1227  157.0404 H   0  0  0  0  0  0  0  0  0  0  0  0  # atno 8010 bound_to 7997
  139.6941  143.9371  152.2399 H   0  0  0  0  0  0  0  0  0  0  0  0  # atno 10167 bound_to 10162
  156.0131  130.5278  150.6657 H   0  0  0  0  0  0  0  0  0  0  0  0  # atno 10718 bound_to 10713
  153.3232  135.6970  153.7012 H   0  0  0  0  0  0  0  0  0  0  0  0  # atno 10763 bound_to 10752
  153.5843  135.3492  155.2887 H   0  0  0  0  0  0  0  0  0  0  0  0  # atno 10764 bound_to 10752
  154.8602  135.4302  154.2402 H   0  0  0  0  0  0  0  0  0  0  0  0  # atno 10765 bound_to 10752
  139.9534  134.9618  156.8929 H   0  0  0  0  0  0  0  0  0  0  0  0  # atno 11005 bound_to 11000
  145.0643  140.9110  143.4920 LP  0  0  0  0  0  0  0  0  0  0  0  0  # atno 17320 bound_to 7965
  145.1041  139.2802  143.5671 LP  0  0  0  0  0  0  0  0  0  0  0  0  # atno 17321 bound_to 7965
  139.9196  144.6808  150.8476 LP  0  0  0  0  0  0  0  0  0  0  0  0  # atno 17342 bound_to 10162
  140.7691  143.3385  151.2259 LP  0  0  0  0  0  0  0  0  0  0  0  0  # atno 17343 bound_to 10162
  157.4390  131.0859  151.0963 LP  0  0  0  0  0  0  0  0  0  0  0  0  # atno 17370 bound_to 10713
  157.1513  130.6185  149.5583 LP  0  0  0  0  0  0  0  0  0  0  0  0  # atno 17371 bound_to 10713
  140.5665  134.0484  155.7416 LP  0  0  0  0  0  0  0  0  0  0  0  0  # atno 17394 bound_to 11000
  141.1201  133.9475  157.2746 LP  0  0  0  0  0  0  0  0  0  0  0  0  # atno 17395 bound_to 11000

$$$$
