AV-unprocessed.smi:1640|AV-procd|sdf|6554|dock3
  -GOLD-   22720 7233D 1   1.00000     0.00000
 Structure written by MMmdl.
 47 48  0  0  0  0  0  0  0  0  1 V2000
  145.7638  133.2480  162.5340 C   0  0  0  0  0  0  0  0  0  0  0  0
  146.9180  134.0395  161.8968 C   0  0  0  0  0  0  0  0  0  0  0  0
  147.2825  135.2506  162.7687 C   0  0  0  0  0  0  0  0  0  0  0  0
  146.6013  134.4823  160.4543 C   0  0  0  0  0  0  0  0  0  0  0  0
  147.8346  134.9177  159.6483 C   0  0  0  0  0  0  0  0  0  0  0  0
  148.1988  136.7004  159.9251 S   0  0  0  0  0  0  0  0  0  0  0  0
  146.9787  137.4756  159.6524 O   0  0  0  0  0  0  0  0  0  0  0  0
  148.8910  136.8546  161.2133 O   0  0  0  0  0  0  0  0  0  0  0  0
  149.3321  137.0543  158.6776 N   0  0  0  0  0  0  0  0  0  0  0  0
  149.8605  138.4138  158.5810 C   0  0  0  0  0  0  0  0  0  0  0  0
  150.7079  138.6230  157.3352 C   0  0  0  0  0  0  0  0  0  0  0  0
  150.2057  138.2272  156.0774 C   0  0  0  0  0  0  0  0  0  0  0  0
  151.0000  138.4137  154.9314 C   0  0  0  0  0  0  0  0  0  0  0  0
  152.2742  138.9888  155.0897 C   0  0  0  0  0  0  0  0  0  0  0  0
  152.7688  139.3712  156.2852 N   0  0  0  0  0  0  0  0  0  0  0  0
  152.0062  139.1953  157.3919 C   0  0  0  0  0  0  0  0  0  0  0  0
  152.5377  139.6253  158.6200 N   0  0  0  0  0  0  0  0  0  0  0  0
  153.7374  138.9296  159.0716 C   0  0  0  0  0  0  0  0  0  0  0  0
  154.1040  139.3904  160.4923 C   0  0  0  0  0  0  0  0  0  0  0  0
  154.2662  140.8059  160.5050 O   0  0  0  0  0  0  0  0  0  0  0  0
  153.0715  141.4867  160.1306 C   0  0  0  0  0  0  0  0  0  0  0  0
  152.6619  141.0745  158.7059 C   0  0  0  0  0  0  0  0  0  0  0  0
  144.8442  133.8337  162.5524 H   0  0  0  0  0  0  0  0  0  0  0  0
  146.0007  132.9704  163.5614 H   0  0  0  0  0  0  0  0  0  0  0  0
  145.5611  132.3246  161.9925 H   0  0  0  0  0  0  0  0  0  0  0  0
  147.7930  133.3889  161.8667 H   0  0  0  0  0  0  0  0  0  0  0  0
  146.4510  135.9526  162.8399 H   0  0  0  0  0  0  0  0  0  0  0  0
  148.1379  135.7885  162.3591 H   0  0  0  0  0  0  0  0  0  0  0  0
  147.5448  134.9424  163.7811 H   0  0  0  0  0  0  0  0  0  0  0  0
  146.0826  133.6810  159.9265 H   0  0  0  0  0  0  0  0  0  0  0  0
  145.9035  135.3202  160.4884 H   0  0  0  0  0  0  0  0  0  0  0  0
  148.7131  134.3436  159.9430 H   0  0  0  0  0  0  0  0  0  0  0  0
  147.6817  134.7720  158.5794 H   0  0  0  0  0  0  0  0  0  0  0  0
  150.0700  136.3533  158.6147 H   0  0  0  0  0  0  0  0  0  0  0  0
  149.0274  139.1170  158.6019 H   0  0  0  0  0  0  0  0  0  0  0  0
  150.4668  138.6300  159.4613 H   0  0  0  0  0  0  0  0  0  0  0  0
  149.2247  137.7839  155.9884 H   0  0  0  0  0  0  0  0  0  0  0  0
  150.6422  138.1213  153.9553 H   0  0  0  0  0  0  0  0  0  0  0  0
  152.9128  139.1475  154.2334 H   0  0  0  0  0  0  0  0  0  0  0  0
  153.5670  137.8525  159.0576 H   0  0  0  0  0  0  0  0  0  0  0  0
  154.5668  139.1375  158.3943 H   0  0  0  0  0  0  0  0  0  0  0  0
  153.3372  139.0931  161.2092 H   0  0  0  0  0  0  0  0  0  0  0  0
  155.0361  138.9233  160.8102 H   0  0  0  0  0  0  0  0  0  0  0  0
  152.2764  141.2661  160.8438 H   0  0  0  0  0  0  0  0  0  0  0  0
  153.2473  142.5616  160.1745 H   0  0  0  0  0  0  0  0  0  0  0  0
  153.4106  141.4156  157.9894 H   0  0  0  0  0  0  0  0  0  0  0  0
  151.7188  141.5508  158.4359 H   0  0  0  0  0  0  0  0  0  0  0  0
  1  2  1  0  0  0  0
  1 23  1  0  0  0  0
  1 24  1  0  0  0  0
  1 25  1  0  0  0  0
  2  3  1  0  0  0  0
  2  4  1  0  0  0  0
  2 26  1  0  0  0  0
  3 27  1  0  0  0  0
  3 28  1  0  0  0  0
  3 29  1  0  0  0  0
  4  5  1  0  0  0  0
  4 30  1  0  0  0  0
  4 31  1  0  0  0  0
  5  6  1  0  0  0  0
  5 32  1  0  0  0  0
  5 33  1  0  0  0  0
  6  7  2  0  0  0  0
  6  8  2  0  0  0  0
  6  9  1  0  0  0  0
  9 10  1  0  0  0  0
  9 34  1  0  0  0  0
 10 11  1  0  0  0  0
 10 35  1  0  0  0  0
 10 36  1  0  0  0  0
 11 16  1  0  0  0  0
 11 12  2  0  0  0  0
 12 13  1  0  0  0  0
 12 37  1  0  0  0  0
 13 14  2  0  0  0  0
 13 38  1  0  0  0  0
 14 15  1  0  0  0  0
 14 39  1  0  0  0  0
 15 16  2  0  0  0  0
 16 17  1  0  0  0  0
 17 22  1  0  0  0  0
 17 18  1  0  0  0  0
 18 19  1  0  0  0  0
 18 40  1  0  0  0  0
 18 41  1  0  0  0  0
 19 20  1  0  0  0  0
 19 42  1  0  0  0  0
 19 43  1  0  0  0  0
 20 21  1  0  0  0  0
 21 22  1  0  0  0  0
 21 44  1  0  0  0  0
 21 45  1  0  0  0  0
 22 46  1  0  0  0  0
 22 47  1  0  0  0  0
M  END
> <s_m_source_file>
AV-unprocessed.smi

> <i_m_source_file_index>
1640

> <i_lp_mmshare_version>
43012

> <i_f3d_flags>
0

> <s_epik_input>
W0NIM11bQ0hdKFtDSDNdKVtDSDJdW0NIMl1TKD1PKSg9TylbTkhdW0NIMl1jMVtjSF1bY0hdW2NIXW5jMU4yW0NIMl1bQ0gyXU9bQ0gyXVtDSDJdMg==

> <s_epik_cmdline>
J2VwaWtfcHl0aG9uJywgJy1waCcsICc3LjAnLCAnLXRuJywgJzgnLCAnLW1hJywgJzIwMCcsICctbWV0YWxfYmluZGluZycsICctaW1hZScsICc8aW5maWxlLm1hZT4nLCAnLW9tYWUnLCAnPG91dGZpbGUubWFlPic=

> <r_lp_tautomer_probability>
1

> <r_epik_Ionization_Penalty>
0.00729723

> <r_epik_Ionization_Penalty_Charging>
0

> <r_epik_Ionization_Penalty_Neutral>
0.00729723

> <r_epik_State_Penalty>
0.00542751

> <r_epik_Charging_Adjusted_Penalty>
0.00542751

> <i_epik_Tot_Q>
0

> <i_epik_Tot_abs_Q>
0

> <r_epik_Metal_State_Penalty>
0.0195039

> <b_epik_Metal_Only>
0

> <s_lp_Force_Field>
OPLS_2005

> <r_lp_Energy>
17.806

> <b_lp_Chiralities_Consistent>
1

> <s_lp_Variant>
AV-unprocessed.smi:1640-1

> <Gold.Version>
5.8.1

> <Gold.Id.Protein>
6NUR|6NUR_protein|mol2

> <Gold.PLP.Fitness>
43.4842

> <Gold.PLP.PLP>
-35.7937

> <Gold.PLP.part.hbond>
-2.8403

> <Gold.PLP.part.metal>
0.0000

> <Gold.PLP.part.buried>
-5.9239

> <Gold.PLP.part.nonpolar>
-27.7236

> <Gold.PLP.part.repulsive>
0.0000

> <Gold.PLP.ligand.clash>
0.0000

> <Gold.PLP.ligand.torsion>
0.7044

> <Gold.PLP.Chemscore.Hbond>
2.9280

> <Gold.PLP.Chemscore.CHOScore>
0.0000

> <Gold.PLP.Chemscore.Metal>
0.0000

> <Gold.Chemscore.Hbonds>
donor molecule, donor type, donor heavy atom, donor atom, acceptor molecule, acceptor atom, score
      P1  H  6931  6943       L1     8  1.00
      P1  H  6934  6947       L1     7  0.96
      P1  H  7997  8010       L1    15  0.99

> <Gold.PLP.Chemscore.Internal.Correction>
0.3154

> <Gold.Rescore>
     Score         DG    S(hbond)    S(metal)    S(lipo)     H(rot)  DE(clash)    DE(int)     intcor
     16.88     -19.35       2.56        0.00      89.02       1.99       0.32       2.15       ----

> <Gold.Chemscore.Fitness>
16.8827

> <Gold.Chemscore.DG>
-19.3498

> <Gold.Chemscore.ZeroCoef>
-5.4800

> <Gold.Chemscore.Hbond>
2.5563

> <Gold.Chemscore.Metal>
0.0000

> <Gold.Chemscore.Lipo>
89.0150

> <Gold.Chemscore.Internal_Hbond>
0.0000

> <Gold.Chemscore.DEClash>
0.3213

> <Gold.Chemscore.DEInternal>
2.1458

> <Gold.Chemscore.Rot>
1.9856

> <Gold.Chemscore.Internal.Correction>
   9.000000E+99

> <Gold.Chemscore.Hbonds>
donor molecule, donor type, donor heavy atom, donor atom, acceptor molecule, acceptor atom, score
      P1  H  6931  6943       L1     8  0.92
      P1  H  6934  6947       L1     7  0.31
      P1  H  7997  8010       L1    15  0.65

> <Gold.Chemscore.Hbond.Weighted>
-8.5380

> <Gold.Chemscore.Metal.Weighted>
-0.0000

> <Gold.Chemscore.Lipo.Weighted>
-10.4148

> <Gold.Chemscore.Internal_Hbond.Weighted>
0.0000

> <Gold.Chemscore.DEClash.Weighted>
0.3213

> <Gold.Chemscore.DEInternal.Weighted>
2.1458

> <Gold.Chemscore.Rot.Weighted>
5.0830

> <Gold.Chemscore.Internal.Correction.Weighted>
   9.000000E+99

> <Gold.Protein.RotatedTorsions>
[ 6907 6896 6895 6894 ] final   28.92 input  -60.11 | X-H torsion
[ 7974 7965 7964 7962 ] final   66.05 input  175.53 | X-H torsion
[ 8008 7997 7996 7995 ] final   96.89 input   59.86 | X-H torsion
[ 10167 10162 10161 10158 ] final   22.54 input  -65.29 | X-H torsion
[ 10718 10713 10712 10709 ] final   -3.35 input   66.30 | X-H torsion
[ 10763 10752 10751 10750 ] final   -7.66 input  -60.55 | X-H torsion
[ 11005 11000 10999 10996 ] final -145.14 input  -57.11 | X-H torsion

> <Gold.Protein.ActiveResidues>
 VAL166  LYS551  ARG553  GLY616  TRP617  ASP618  TYR619  PRO620  LYS621  CYS622 
 ASP623  PHE694  ASN695  SER759  ASP760  ASP761  ALA762  ILE779  LEU786  VAL792 
 PHE793  MET794  SER795  GLU796  ALA797  LYS798  CYS799  TRP800  GLU811  SER814 

> <Gold.Protein.RotatedAtoms>
  152.0240  134.9806  160.0570 H   0  0  0  0  0  0  0  0  0  0  0  0  # atno 6907 bound_to 6896
  152.1309  133.4403  159.4729 H   0  0  0  0  0  0  0  0  0  0  0  0  # atno 6908 bound_to 6896
  150.6856  134.2340  159.4489 H   0  0  0  0  0  0  0  0  0  0  0  0  # atno 6909 bound_to 6896
  145.8312  139.3140  143.0986 H   0  0  0  0  0  0  0  0  0  0  0  0  # atno 7974 bound_to 7965
  156.0843  140.3266  155.7734 H   0  0  0  0  0  0  0  0  0  0  0  0  # atno 8008 bound_to 7997
  155.5101  140.0576  157.2942 H   0  0  0  0  0  0  0  0  0  0  0  0  # atno 8009 bound_to 7997
  154.4600  140.1962  156.0287 H   0  0  0  0  0  0  0  0  0  0  0  0  # atno 8010 bound_to 7997
  140.5340  143.9792  150.6481 H   0  0  0  0  0  0  0  0  0  0  0  0  # atno 10167 bound_to 10162
  156.7773  130.5319  149.5757 H   0  0  0  0  0  0  0  0  0  0  0  0  # atno 10718 bound_to 10713
  153.4295  135.7011  153.6240 H   0  0  0  0  0  0  0  0  0  0  0  0  # atno 10763 bound_to 10752
  153.4661  135.3725  155.2365 H   0  0  0  0  0  0  0  0  0  0  0  0  # atno 10764 bound_to 10752
  154.8725  135.4032  154.3676 H   0  0  0  0  0  0  0  0  0  0  0  0  # atno 10765 bound_to 10752
  140.7953  134.2920  157.4998 H   0  0  0  0  0  0  0  0  0  0  0  0  # atno 11005 bound_to 11000
  145.9568  140.8866  143.0231 LP  0  0  0  0  0  0  0  0  0  0  0  0  # atno 17320 bound_to 7965
  144.6739  140.1757  143.7410 LP  0  0  0  0  0  0  0  0  0  0  0  0  # atno 17321 bound_to 7965
  140.3174  143.3159  152.0818 LP  0  0  0  0  0  0  0  0  0  0  0  0  # atno 17342 bound_to 10162
  139.4964  144.6596  151.6495 LP  0  0  0  0  0  0  0  0  0  0  0  0  # atno 17343 bound_to 10162
  156.1240  130.6130  151.0236 LP  0  0  0  0  0  0  0  0  0  0  0  0  # atno 17370 bound_to 10713
  157.6663  131.0871  150.7720 LP  0  0  0  0  0  0  0  0  0  0  0  0  # atno 17371 bound_to 10713
  139.8727  134.9398  156.3753 LP  0  0  0  0  0  0  0  0  0  0  0  0  # atno 17394 bound_to 11000
  140.9349  133.7554  156.0071 LP  0  0  0  0  0  0  0  0  0  0  0  0  # atno 17395 bound_to 11000

$$$$
