AV-unprocessed.smi:47|AV-procd|sdf|436|dock2
  -GOLD-   2262016303D 1   1.00000     0.00000
 Structure written by MMmdl.
 31 33  0  0  0  0  0  0  0  0  1 V2000
  145.3090  141.0746  154.5690 O   0  0  0  0  0  0  0  0  0  0  0  0
  146.5872  141.2858  154.0084 C   0  0  2  0  0  0  0  0  0  0  0  0
  147.2344  139.9909  153.5255 C   0  0  0  0  0  0  0  0  0  0  0  0
  148.6730  140.2466  153.5135 N   0  0  0  0  0  0  0  0  0  0  0  0
  148.9402  141.4111  154.3680 C   0  0  2  0  0  0  0  0  0  0  0  0
  150.0278  141.1876  155.3728 C   0  0  0  0  0  0  0  0  0  0  0  0
  150.9494  140.2497  155.1782 N   0  0  0  0  0  0  0  0  0  0  0  0
  151.7355  140.4045  156.2629 N   0  0  0  0  0  0  0  0  0  0  0  0
  151.2811  141.4047  157.0286 C   0  0  0  0  0  0  0  0  0  0  0  0
  151.8986  141.8422  158.2825 C   0  0  0  0  0  0  0  0  0  0  0  0
  152.7195  140.9602  159.0230 C   0  0  0  0  0  0  0  0  0  0  0  0
  153.3139  141.3802  160.2288 C   0  0  0  0  0  0  0  0  0  0  0  0
  153.0958  142.6862  160.7057 C   0  0  0  0  0  0  0  0  0  0  0  0
  152.2823  143.5724  159.9752 C   0  0  0  0  0  0  0  0  0  0  0  0
  151.6863  143.1528  158.7699 C   0  0  0  0  0  0  0  0  0  0  0  0
  150.1888  141.9521  156.4952 N   0  0  0  0  0  0  0  0  0  0  0  0
  147.6043  141.7895  155.0214 C   0  0  0  0  0  0  0  0  0  0  0  0
  146.5067  141.9923  153.1808 H   0  0  0  0  0  0  0  0  0  0  0  0
  149.2411  142.2368  153.7217 H   0  0  0  0  0  0  0  0  0  0  0  0
  152.5495  139.8319  156.4342 H   0  0  0  0  0  0  0  0  0  0  0  0
  144.6807  141.0048  153.8666 H   0  0  0  0  0  0  0  0  0  0  0  0
  147.0198  139.1875  154.2317 H   0  0  0  0  0  0  0  0  0  0  0  0
  146.8682  139.6772  152.5476 H   0  0  0  0  0  0  0  0  0  0  0  0
  148.9521  140.4756  152.5651 H   0  0  0  0  0  0  0  0  0  0  0  0
  152.8999  139.9533  158.6765 H   0  0  0  0  0  0  0  0  0  0  0  0
  153.9378  140.6991  160.7886 H   0  0  0  0  0  0  0  0  0  0  0  0
  153.5517  143.0080  161.6305 H   0  0  0  0  0  0  0  0  0  0  0  0
  152.1146  144.5754  160.3391 H   0  0  0  0  0  0  0  0  0  0  0  0
  151.0659  143.8490  158.2245 H   0  0  0  0  0  0  0  0  0  0  0  0
  147.5188  142.8552  155.2354 H   0  0  0  0  0  0  0  0  0  0  0  0
  147.4798  141.2474  155.9610 H   0  0  0  0  0  0  0  0  0  0  0  0
  1  2  1  0  0  0  0
  1 21  1  0  0  0  0
  2 18  1  0  0  0  0
  2 17  1  0  0  0  0
  2  3  1  0  0  0  0
  3  4  1  0  0  0  0
  3 22  1  0  0  0  0
  3 23  1  0  0  0  0
  4  5  1  0  0  0  0
  4 24  1  0  0  0  0
  5 19  1  0  0  0  0
  5  6  1  0  0  0  0
  5 17  1  0  0  0  0
  6 16  1  0  0  0  0
  6  7  2  0  0  0  0
  7  8  1  0  0  0  0
  8 20  1  0  0  0  0
  8  9  1  0  0  0  0
  9 10  1  0  0  0  0
  9 16  2  0  0  0  0
 10 15  1  0  0  0  0
 10 11  2  0  0  0  0
 11 12  1  0  0  0  0
 11 25  1  0  0  0  0
 12 13  2  0  0  0  0
 12 26  1  0  0  0  0
 13 14  1  0  0  0  0
 13 27  1  0  0  0  0
 14 15  2  0  0  0  0
 14 28  1  0  0  0  0
 15 29  1  0  0  0  0
 17 30  1  0  0  0  0
 17 31  1  0  0  0  0
M  END
> <s_m_source_file>
AV-unprocessed.smi

> <i_m_source_file_index>
47

> <i_lp_mmshare_version>
43012

> <i_f3d_flags>
0

> <s_epik_input>
W09IXVtDQEhdMVtDSDJdW05IXVtDQEBIXShbQ0gyXTEpYzJuW25IXWMobjIpLWMzW2NIXVtjSF1bY0hdW2NIXVtjSF0z

> <s_epik_cmdline>
J2VwaWtfcHl0aG9uJywgJy1waCcsICc3LjAnLCAnLXRuJywgJzgnLCAnLW1hJywgJzIwMCcsICctbWV0YWxfYmluZGluZycsICctaW1hZScsICc8aW5maWxlLm1hZT4nLCAnLW9tYWUnLCAnPG91dGZpbGUubWFlPic=

> <r_epik_Ionization_Penalty>
1.65981

> <r_epik_Ionization_Penalty_Charging>
0

> <r_epik_Ionization_Penalty_Neutral>
1.65981

> <r_epik_State_Penalty>
2.0492

> <r_epik_Charging_Adjusted_Penalty>
2.0492

> <i_epik_Tot_Q>
0

> <i_epik_Tot_abs_Q>
0

> <r_epik_Metal_State_Penalty>
2.54641

> <b_epik_Metal_Only>
0

> <s_lp_Force_Field>
OPLS_2005

> <r_lp_Energy>
26.3825

> <b_lp_Chiralities_Consistent>
1

> <s_lp_Variant>
AV-unprocessed.smi:47-14

> <Gold.Version>
5.8.1

> <Gold.Id.Protein>
6NUR|6NUR_protein|mol2

> <Gold.PLP.Fitness>
44.0666

> <Gold.PLP.PLP>
-36.8288

> <Gold.PLP.part.hbond>
-3.0000

> <Gold.PLP.part.metal>
0.0000

> <Gold.PLP.part.buried>
-4.8062

> <Gold.PLP.part.nonpolar>
-29.9483

> <Gold.PLP.part.repulsive>
0.3097

> <Gold.PLP.ligand.clash>
0.0000

> <Gold.PLP.ligand.torsion>
0.8520

> <Gold.PLP.Chemscore.Hbond>
2.9760

> <Gold.PLP.Chemscore.CHOScore>
0.0000

> <Gold.PLP.Chemscore.Metal>
0.0000

> <Gold.Chemscore.Hbonds>
donor molecule, donor type, donor heavy atom, donor atom, acceptor molecule, acceptor atom, score
      L1  H     1    21       P1 10175  1.00
      L1  H     4    24       P1  7957  1.00
      P1  H  7989  7998       L1     7  0.90

> <Gold.PLP.Chemscore.Internal.Correction>
0.0137

> <Gold.Rescore>
     Score         DG    S(hbond)    S(metal)    S(lipo)     H(rot)  DE(clash)    DE(int)     intcor
     18.82     -19.65       2.27        0.00      88.70       1.48       0.16       0.66       ----

> <Gold.Chemscore.Fitness>
18.8213

> <Gold.Chemscore.DG>
-19.6453

> <Gold.Chemscore.ZeroCoef>
-5.4800

> <Gold.Chemscore.Hbond>
2.2673

> <Gold.Chemscore.Metal>
0.0000

> <Gold.Chemscore.Lipo>
88.6997

> <Gold.Chemscore.Internal_Hbond>
0.0000

> <Gold.Chemscore.DEClash>
0.1604

> <Gold.Chemscore.DEInternal>
0.6636

> <Gold.Chemscore.Rot>
1.4786

> <Gold.Chemscore.Internal.Correction>
   9.000000E+99

> <Gold.Chemscore.Hbonds>
donor molecule, donor type, donor heavy atom, donor atom, acceptor molecule, acceptor atom, score
      L1  H     1    21       P1 10175  0.82
      L1  H     4    24       P1  7957  0.94
      P1  H  7989  7998       L1     7  0.17

> <Gold.Chemscore.Hbond.Weighted>
-7.5728

> <Gold.Chemscore.Metal.Weighted>
-0.0000

> <Gold.Chemscore.Lipo.Weighted>
-10.3779

> <Gold.Chemscore.Internal_Hbond.Weighted>
0.0000

> <Gold.Chemscore.DEClash.Weighted>
0.1604

> <Gold.Chemscore.DEInternal.Weighted>
0.6636

> <Gold.Chemscore.Rot.Weighted>
3.7853

> <Gold.Chemscore.Internal.Correction.Weighted>
   9.000000E+99

> <Gold.Protein.RotatedTorsions>
[ 6907 6896 6895 6894 ] final -178.92 input  -60.11 | X-H torsion
[ 7974 7965 7964 7962 ] final  170.32 input  175.53 | X-H torsion
[ 8008 7997 7996 7995 ] final -165.39 input   59.86 | X-H torsion
[ 10167 10162 10161 10158 ] final   64.30 input  -65.29 | X-H torsion
[ 10718 10713 10712 10709 ] final  -26.76 input   66.30 | X-H torsion
[ 10763 10752 10751 10750 ] final  -56.25 input  -60.55 | X-H torsion
[ 11005 11000 10999 10996 ] final  -54.27 input  -57.11 | X-H torsion

> <Gold.Protein.ActiveResidues>
 VAL166  LYS551  ARG553  GLY616  TRP617  ASP618  TYR619  PRO620  LYS621  CYS622 
 ASP623  PHE694  ASN695  SER759  ASP760  ASP761  ALA762  ILE779  LEU786  VAL792 
 PHE793  MET794  SER795  GLU796  ALA797  LYS798  CYS799  TRP800  GLU811  SER814 

> <Gold.Protein.RotatedAtoms>
  151.6450  133.3324  159.3138 H   0  0  0  0  0  0  0  0  0  0  0  0  # atno 6907 bound_to 6896
  150.7989  134.7072  159.6593 H   0  0  0  0  0  0  0  0  0  0  0  0  # atno 6908 bound_to 6896
  152.4079  134.6179  160.0094 H   0  0  0  0  0  0  0  0  0  0  0  0  # atno 6909 bound_to 6896
  144.7327  139.9184  143.6419 H   0  0  0  0  0  0  0  0  0  0  0  0  # atno 7974 bound_to 7965
  155.8491  140.0960  157.1686 H   0  0  0  0  0  0  0  0  0  0  0  0  # atno 8008 bound_to 7997
  154.3984  140.1386  156.3884 H   0  0  0  0  0  0  0  0  0  0  0  0  # atno 8009 bound_to 7997
  155.7981  140.3453  155.5389 H   0  0  0  0  0  0  0  0  0  0  0  0  # atno 8010 bound_to 7997
  140.1236  144.4708  150.6906 H   0  0  0  0  0  0  0  0  0  0  0  0  # atno 10167 bound_to 10162
  156.4470  130.4476  149.7015 H   0  0  0  0  0  0  0  0  0  0  0  0  # atno 10718 bound_to 10713
  154.2036  135.6406  153.5094 H   0  0  0  0  0  0  0  0  0  0  0  0  # atno 10763 bound_to 10752
  153.0006  135.5457  154.6289 H   0  0  0  0  0  0  0  0  0  0  0  0  # atno 10764 bound_to 10752
  154.5708  135.2916  155.0802 H   0  0  0  0  0  0  0  0  0  0  0  0  # atno 10765 bound_to 10752
  141.1017  133.6617  156.4296 H   0  0  0  0  0  0  0  0  0  0  0  0  # atno 11005 bound_to 11000
  146.0948  139.3940  143.0383 LP  0  0  0  0  0  0  0  0  0  0  0  0  # atno 17320 bound_to 7965
  145.7661  140.9916  143.1174 LP  0  0  0  0  0  0  0  0  0  0  0  0  # atno 17321 bound_to 7965
  140.6858  143.2349  151.5265 LP  0  0  0  0  0  0  0  0  0  0  0  0  # atno 17342 bound_to 10162
  139.5556  144.2285  152.1605 LP  0  0  0  0  0  0  0  0  0  0  0  0  # atno 17343 bound_to 10162
  156.3856  130.7601  151.2598 LP  0  0  0  0  0  0  0  0  0  0  0  0  # atno 17370 bound_to 10713
  157.7504  131.0283  150.4042 LP  0  0  0  0  0  0  0  0  0  0  0  0  # atno 17371 bound_to 10713
  140.5004  134.6491  157.5246 LP  0  0  0  0  0  0  0  0  0  0  0  0  # atno 17394 bound_to 11000
  139.9872  134.7043  155.9753 LP  0  0  0  0  0  0  0  0  0  0  0  0  # atno 17395 bound_to 11000

$$$$
