AV-unprocessed.smi:556|AV-procd|sdf|2912|dock3
  -GOLD-   2262023403D 1   1.00000     0.00000
 Structure written by MMmdl.
 38 39  0  0  0  0  0  0  0  0  1 V2000
  148.3905  141.7412  153.7682 C   0  0  0  0  0  0  0  0  0  0  0  0
  148.4658  140.6032  154.8002 C   0  0  2  0  0  0  0  0  0  0  0  0
  149.7416  140.6466  155.6680 C   0  0  0  0  0  0  0  0  0  0  0  0
  150.8795  140.2175  154.9357 O   0  0  0  0  0  0  0  0  0  0  0  0
  150.7375  138.8798  154.4844 C   0  0  0  0  0  0  0  0  0  0  0  0
  149.5541  138.8022  153.5106 C   0  0  0  0  0  0  0  0  0  0  0  0
  148.3162  139.2818  154.1479 N   0  0  0  0  0  0  0  0  0  0  0  0
  147.1731  138.5479  154.1007 C   0  0  0  0  0  0  0  0  0  0  0  0
  146.1679  138.8142  154.7614 O   0  0  0  0  0  0  0  0  0  0  0  0
  147.2302  137.4640  153.3093 N   0  0  0  0  0  0  0  0  0  0  0  0
  146.1414  136.5163  153.1190 C   0  0  0  0  0  0  0  0  0  0  0  0
  145.5837  136.6166  151.6934 C   0  0  0  0  0  0  0  0  0  0  0  0
  145.5163  135.2690  151.0310 C   0  0  0  0  0  0  0  0  0  0  0  0
  146.5113  134.2501  151.0216 C   0  0  0  0  0  0  0  0  0  0  0  0
  146.1420  133.1755  150.3439 N   0  0  0  0  0  0  0  0  0  0  0  0
  144.9028  133.4688  149.8994 N   0  0  0  0  0  0  0  0  0  0  0  0
  144.1817  132.4968  149.1063 C   0  0  0  0  0  0  0  0  0  0  0  0
  144.4996  134.7254  150.2975 C   0  0  0  0  0  0  0  0  0  0  0  0
  148.4308  142.7145  154.2578 H   0  0  0  0  0  0  0  0  0  0  0  0
  147.4604  141.6975  153.2009 H   0  0  0  0  0  0  0  0  0  0  0  0
  149.2171  141.6976  153.0586 H   0  0  0  0  0  0  0  0  0  0  0  0
  147.6553  140.7807  155.5076 H   0  0  0  0  0  0  0  0  0  0  0  0
  149.9172  141.6576  156.0364 H   0  0  0  0  0  0  0  0  0  0  0  0
  149.6213  140.0143  156.5492 H   0  0  0  0  0  0  0  0  0  0  0  0
  151.6567  138.5783  153.9819 H   0  0  0  0  0  0  0  0  0  0  0  0
  150.5982  138.2021  155.3286 H   0  0  0  0  0  0  0  0  0  0  0  0
  149.7573  139.4156  152.6324 H   0  0  0  0  0  0  0  0  0  0  0  0
  149.4757  137.7783  153.1433 H   0  0  0  0  0  0  0  0  0  0  0  0
  148.0877  137.2858  152.8071 H   0  0  0  0  0  0  0  0  0  0  0  0
  146.5018  135.5041  153.3097 H   0  0  0  0  0  0  0  0  0  0  0  0
  145.3551  136.7236  153.8468 H   0  0  0  0  0  0  0  0  0  0  0  0
  144.5934  137.0729  151.7248 H   0  0  0  0  0  0  0  0  0  0  0  0
  146.2054  137.2981  151.1111 H   0  0  0  0  0  0  0  0  0  0  0  0
  147.4869  134.2612  151.4849 H   0  0  0  0  0  0  0  0  0  0  0  0
  143.1759  132.8598  148.8930 H   0  0  0  0  0  0  0  0  0  0  0  0
  144.1096  131.5549  149.6512 H   0  0  0  0  0  0  0  0  0  0  0  0
  144.7053  132.3275  148.1650 H   0  0  0  0  0  0  0  0  0  0  0  0
  143.5327  135.1252  150.0291 H   0  0  0  0  0  0  0  0  0  0  0  0
  1  2  1  0  0  0  0
  1 19  1  0  0  0  0
  1 20  1  0  0  0  0
  1 21  1  0  0  0  0
  2  7  1  0  0  0  0
  2  3  1  0  0  0  0
  2 22  1  0  0  0  0
  3  4  1  0  0  0  0
  3 23  1  0  0  0  0
  3 24  1  0  0  0  0
  4  5  1  0  0  0  0
  5  6  1  0  0  0  0
  5 25  1  0  0  0  0
  5 26  1  0  0  0  0
  6  7  1  0  0  0  0
  6 27  1  0  0  0  0
  6 28  1  0  0  0  0
  7  8  1  0  0  0  0
  8  9  2  0  0  0  0
  8 10  1  0  0  0  0
 10 11  1  0  0  0  0
 10 29  1  0  0  0  0
 11 12  1  0  0  0  0
 11 30  1  0  0  0  0
 11 31  1  0  0  0  0
 12 13  1  0  0  0  0
 12 32  1  0  0  0  0
 12 33  1  0  0  0  0
 13 18  2  0  0  0  0
 13 14  1  0  0  0  0
 14 15  2  0  0  0  0
 14 34  1  0  0  0  0
 15 16  1  0  0  0  0
 16 17  1  0  0  0  0
 16 18  1  0  0  0  0
 17 35  1  0  0  0  0
 17 36  1  0  0  0  0
 17 37  1  0  0  0  0
 18 38  1  0  0  0  0
M  END
> <s_m_source_file>
AV-unprocessed.smi

> <i_m_source_file_index>
556

> <i_lp_mmshare_version>
43012

> <i_f3d_flags>
0

> <s_epik_input>
W0NIM11bQ0BASF0xW0NIMl1PW0NIMl1bQ0gyXU4xQyg9TylbTkhdW0NIMl1bQ0gyXWMyW2NIXW5uKFtDSDNdKVtjSF0y

> <s_epik_cmdline>
J2VwaWtfcHl0aG9uJywgJy1waCcsICc3LjAnLCAnLXRuJywgJzgnLCAnLW1hJywgJzIwMCcsICctbWV0YWxfYmluZGluZycsICctaW1hZScsICc8aW5maWxlLm1hZT4nLCAnLW9tYWUnLCAnPG91dGZpbGUubWFlPic=

> <r_lp_tautomer_probability>
1

> <r_epik_Ionization_Penalty>
0.000536334

> <r_epik_Ionization_Penalty_Charging>
0

> <r_epik_Ionization_Penalty_Neutral>
0.000536334

> <r_epik_State_Penalty>
-0

> <r_epik_Charging_Adjusted_Penalty>
0

> <i_epik_Tot_Q>
0

> <i_epik_Tot_abs_Q>
0

> <r_epik_Metal_State_Penalty>
-0

> <b_epik_Metal_Only>
0

> <s_lp_Force_Field>
OPLS_2005

> <r_lp_Energy>
29.3296

> <b_lp_Chiralities_Consistent>
1

> <s_lp_Variant>
AV-unprocessed.smi:556-1

> <Gold.Version>
5.8.1

> <Gold.Id.Protein>
6NUR|6NUR_protein|mol2

> <Gold.PLP.Fitness>
36.4702

> <Gold.PLP.PLP>
-28.1031

> <Gold.PLP.part.hbond>
-2.0000

> <Gold.PLP.part.metal>
0.0000

> <Gold.PLP.part.buried>
0.4884

> <Gold.PLP.part.nonpolar>
-27.3820

> <Gold.PLP.part.repulsive>
0.2996

> <Gold.PLP.ligand.clash>
2.1883

> <Gold.PLP.ligand.torsion>
0.6165

> <Gold.PLP.Chemscore.Hbond>
2.0000

> <Gold.PLP.Chemscore.CHOScore>
1.9249

> <Gold.PLP.Chemscore.Metal>
0.0000

> <Gold.Chemscore.Hbonds>
donor molecule, donor type, donor heavy atom, donor atom, acceptor molecule, acceptor atom, score
      L1  H    10    29       P1  7948  0.96
      P1  H  7989  7998       L1     4  0.90
      L1  C    14    34       P1  7948  0.79
      L1  C    18    38       P1 10186  0.70

> <Gold.PLP.Chemscore.Internal.Correction>
0.0137

> <Gold.Rescore>
     Score         DG    S(hbond)    S(metal)    S(lipo)     H(rot)  DE(clash)    DE(int)     intcor
     13.66     -15.53       1.67        0.00      68.90       1.40       1.15       0.71       ----

> <Gold.Chemscore.Fitness>
13.6646

> <Gold.Chemscore.DG>
-15.5288

> <Gold.Chemscore.ZeroCoef>
-5.4800

> <Gold.Chemscore.Hbond>
1.6680

> <Gold.Chemscore.Metal>
0.0000

> <Gold.Chemscore.Lipo>
68.9048

> <Gold.Chemscore.Internal_Hbond>
0.0000

> <Gold.Chemscore.DEClash>
1.1510

> <Gold.Chemscore.DEInternal>
0.7132

> <Gold.Chemscore.Rot>
1.4001

> <Gold.Chemscore.Internal.Correction>
   9.000000E+99

> <Gold.Chemscore.Hbonds>
donor molecule, donor type, donor heavy atom, donor atom, acceptor molecule, acceptor atom, score
      L1  H    10    29       P1  7948  0.92
      P1  H  7989  7998       L1     4  0.18

> <Gold.Chemscore.Hbond.Weighted>
-5.5712

> <Gold.Chemscore.Metal.Weighted>
-0.0000

> <Gold.Chemscore.Lipo.Weighted>
-8.0619

> <Gold.Chemscore.Internal_Hbond.Weighted>
0.0000

> <Gold.Chemscore.DEClash.Weighted>
1.1510

> <Gold.Chemscore.DEInternal.Weighted>
0.7132

> <Gold.Chemscore.Rot.Weighted>
3.5842

> <Gold.Chemscore.Internal.Correction.Weighted>
   9.000000E+99

> <Gold.Protein.RotatedTorsions>
[ 6907 6896 6895 6894 ] final    8.40 input  -60.11 | X-H torsion
[ 7974 7965 7964 7962 ] final   -7.75 input  175.53 | X-H torsion
[ 8008 7997 7996 7995 ] final    2.68 input   59.86 | X-H torsion
[ 10167 10162 10161 10158 ] final  104.89 input  -65.29 | X-H torsion
[ 10718 10713 10712 10709 ] final -175.92 input   66.30 | X-H torsion
[ 10763 10752 10751 10750 ] final  -54.04 input  -60.55 | X-H torsion
[ 11005 11000 10999 10996 ] final -150.47 input  -57.11 | X-H torsion

> <Gold.Protein.ActiveResidues>
 VAL166  LYS551  ARG553  GLY616  TRP617  ASP618  TYR619  PRO620  LYS621  CYS622 
 ASP623  PHE694  ASN695  SER759  ASP760  ASP761  ALA762  ILE779  LEU786  VAL792 
 PHE793  MET794  SER795  GLU796  ALA797  LYS798  CYS799  TRP800  GLU811  SER814 

> <Gold.Protein.RotatedAtoms>
  151.7055  135.0922  160.0258 H   0  0  0  0  0  0  0  0  0  0  0  0  # atno 6907 bound_to 6896
  152.3694  133.6395  159.6084 H   0  0  0  0  0  0  0  0  0  0  0  0  # atno 6908 bound_to 6896
  150.7662  133.9211  159.3439 H   0  0  0  0  0  0  0  0  0  0  0  0  # atno 6909 bound_to 6896
  146.2298  140.2367  142.8342 H   0  0  0  0  0  0  0  0  0  0  0  0  # atno 7974 bound_to 7965
  154.6945  140.2660  155.6780 H   0  0  0  0  0  0  0  0  0  0  0  0  # atno 8008 bound_to 7997
  156.2743  140.2784  156.1457 H   0  0  0  0  0  0  0  0  0  0  0  0  # atno 8009 bound_to 7997
  155.0851  140.0373  157.2641 H   0  0  0  0  0  0  0  0  0  0  0  0  # atno 8010 bound_to 7997
  139.7139  144.7072  151.0982 H   0  0  0  0  0  0  0  0  0  0  0  0  # atno 10167 bound_to 10162
  156.8070  130.9572  151.3117 H   0  0  0  0  0  0  0  0  0  0  0  0  # atno 10718 bound_to 10713
  154.1684  135.6463  153.5003 H   0  0  0  0  0  0  0  0  0  0  0  0  # atno 10763 bound_to 10752
  153.0091  135.5377  154.6638 H   0  0  0  0  0  0  0  0  0  0  0  0  # atno 10764 bound_to 10752
  154.5970  135.2940  155.0547 H   0  0  0  0  0  0  0  0  0  0  0  0  # atno 10765 bound_to 10752
  140.7398  134.3527  157.5150 H   0  0  0  0  0  0  0  0  0  0  0  0  # atno 11005 bound_to 11000
  144.9516  140.8184  143.5568 LP  0  0  0  0  0  0  0  0  0  0  0  0  # atno 17320 bound_to 7965
  145.2328  139.2107  143.5034 LP  0  0  0  0  0  0  0  0  0  0  0  0  # atno 17321 bound_to 7965
  140.7739  143.5256  150.9484 LP  0  0  0  0  0  0  0  0  0  0  0  0  # atno 17342 bound_to 10162
  139.8942  143.6916  152.3141 LP  0  0  0  0  0  0  0  0  0  0  0  0  # atno 17343 bound_to 10162
  157.6525  130.8896  149.9662 LP  0  0  0  0  0  0  0  0  0  0  0  0  # atno 17370 bound_to 10713
  156.1067  130.3652  150.0121 LP  0  0  0  0  0  0  0  0  0  0  0  0  # atno 17371 bound_to 10713
  139.8808  134.9073  156.2942 LP  0  0  0  0  0  0  0  0  0  0  0  0  # atno 17394 bound_to 11000
  140.9847  133.7246  156.0724 LP  0  0  0  0  0  0  0  0  0  0  0  0  # atno 17395 bound_to 11000

$$$$
