AV-unprocessed.smi:21|AV-procd|sdf|125|dock3
  -GOLD-   2262015303D 1   1.00000     0.00000
 Structure written by MMmdl.
 62 65  0  0  0  0  0  0  0  0  2 V2000
  146.0144  130.5524  151.4207 C   0  0  0  0  0  0  0  0  0  0  0  0
  146.5309  131.5371  152.3016 O   0  0  0  0  0  0  0  0  0  0  0  0
  145.8581  132.7843  152.2135 C   0  0  1  0  0  0  0  0  0  0  0  0
  145.9564  133.5390  153.5323 C   0  0  0  0  0  0  0  0  0  0  0  0
  145.7205  134.9935  153.1154 C   0  0  1  0  0  0  0  0  0  0  0  0
  146.3114  136.0172  154.1081 C   0  0  0  0  0  0  0  0  0  0  0  0
  145.5917  137.2892  154.1343 N   0  0  0  0  0  0  0  0  0  0  0  0
  144.4888  137.3741  155.0805 C   0  0  0  0  0  0  0  0  0  0  0  0
  146.3709  138.3919  154.1804 C   0  0  0  0  0  0  0  0  0  0  0  0
  146.5939  139.0408  153.0118 N   0  0  0  0  0  0  0  0  0  0  0  0
  147.3616  140.1349  152.9923 C   0  0  0  0  0  0  0  0  0  0  0  0
  147.9868  140.7348  154.0082 N   0  0  0  0  0  0  0  0  0  0  0  0
  147.7577  140.0856  155.1856 C   0  0  0  0  0  0  0  0  0  0  0  0
  146.9707  138.9133  155.3614 C   0  0  0  0  0  0  0  0  0  0  0  0
  146.9708  138.5377  156.6995 N   0  0  0  0  0  0  0  0  0  0  0  0
  147.7126  139.4397  157.2827 C   0  0  0  0  0  0  0  0  0  0  0  0
  148.2191  140.4109  156.4486 N   0  0  0  0  0  0  0  0  0  0  0  0
  149.0672  141.5285  156.8265 C   0  0  0  0  0  0  0  0  0  0  0  0
  150.4796  141.0934  157.3011 C   0  0  1  0  0  0  0  0  0  0  0  0
  151.4335  140.8204  156.1124 C   0  0  0  0  0  0  0  0  0  0  0  0
  150.7536  140.2059  155.0375 O   0  0  0  0  0  0  0  0  0  0  0  0
  151.1183  142.0636  158.3351 C   0  0  2  0  0  0  0  0  0  0  0  0
  151.3974  143.4789  157.8628 C   0  0  0  0  0  0  0  0  0  0  0  0
  152.2959  143.9929  158.9824 C   0  0  0  0  0  0  0  0  0  0  0  0
  153.0734  142.8700  159.3875 O   0  0  0  0  0  0  0  0  0  0  0  0
  152.4780  141.6625  158.9174 C   0  0  0  0  0  0  0  0  0  0  0  0
  146.3446  135.1159  151.7769 N   0  3  2  0  0  0  0  0  0  0  0  0
  145.6510  136.0582  150.8715 C   0  0  0  0  0  0  0  0  0  0  0  0
  146.5057  133.7534  151.2157 C   0  0  0  0  0  0  0  0  0  0  0  0
  144.8036  132.6421  151.9691 H   0  0  0  0  0  0  0  0  0  0  0  0
  144.6454  135.1447  153.0001 H   0  0  0  0  0  0  0  0  0  0  0  0
  146.5639  129.6205  151.5531 H   0  0  0  0  0  0  0  0  0  0  0  0
  146.1158  130.8536  150.3776 H   0  0  0  0  0  0  0  0  0  0  0  0
  144.9623  130.3525  151.6264 H   0  0  0  0  0  0  0  0  0  0  0  0
  145.2389  133.1879  154.2748 H   0  0  0  0  0  0  0  0  0  0  0  0
  146.9571  133.4244  153.9521 H   0  0  0  0  0  0  0  0  0  0  0  0
  146.2998  135.5931  155.1129 H   0  0  0  0  0  0  0  0  0  0  0  0
  147.3598  136.2019  153.8747 H   0  0  0  0  0  0  0  0  0  0  0  0
  143.9811  138.3370  155.0066 H   0  0  0  0  0  0  0  0  0  0  0  0
  144.8414  137.2482  156.1051 H   0  0  0  0  0  0  0  0  0  0  0  0
  143.7547  136.5946  154.8747 H   0  0  0  0  0  0  0  0  0  0  0  0
  147.4925  140.5970  152.0249 H   0  0  0  0  0  0  0  0  0  0  0  0
  147.9059  139.4254  158.3456 H   0  0  0  0  0  0  0  0  0  0  0  0
  149.1366  142.2002  155.9715 H   0  0  0  0  0  0  0  0  0  0  0  0
  148.5423  142.0740  157.6095 H   0  0  0  0  0  0  0  0  0  0  0  0
  150.3487  140.1414  157.8180 H   0  0  0  0  0  0  0  0  0  0  0  0
  151.8594  141.7454  155.7251 H   0  0  0  0  0  0  0  0  0  0  0  0
  152.2694  140.1913  156.4193 H   0  0  0  0  0  0  0  0  0  0  0  0
  149.9729  139.7918  155.3727 H   0  0  0  0  0  0  0  0  0  0  0  0
  150.4273  142.1598  159.1743 H   0  0  0  0  0  0  0  0  0  0  0  0
  151.9537  143.4923  156.9266 H   0  0  0  0  0  0  0  0  0  0  0  0
  150.4939  144.0756  157.7348 H   0  0  0  0  0  0  0  0  0  0  0  0
  152.9271  144.8238  158.6663 H   0  0  0  0  0  0  0  0  0  0  0  0
  151.6954  144.3260  159.8299 H   0  0  0  0  0  0  0  0  0  0  0  0
  152.3817  140.9344  159.7231 H   0  0  0  0  0  0  0  0  0  0  0  0
  153.1373  141.2395  158.1609 H   0  0  0  0  0  0  0  0  0  0  0  0
  144.6368  135.7204  150.6533 H   0  0  0  0  0  0  0  0  0  0  0  0
  146.1922  136.1482  149.9294 H   0  0  0  0  0  0  0  0  0  0  0  0
  145.5931  137.0502  151.3208 H   0  0  0  0  0  0  0  0  0  0  0  0
  147.5754  133.5558  151.1344 H   0  0  0  0  0  0  0  0  0  0  0  0
  146.0769  133.6487  150.2180 H   0  0  0  0  0  0  0  0  0  0  0  0
  147.2788  135.4716  151.9218 H   0  0  0  0  0  0  0  0  0  0  0  0
  1  2  1  0  0  0  0
  1 32  1  0  0  0  0
  1 33  1  0  0  0  0
  1 34  1  0  0  0  0
  2  3  1  0  0  0  0
  3 30  1  0  0  0  0
  3 29  1  0  0  0  0
  3  4  1  0  0  0  0
  4  5  1  0  0  0  0
  4 35  1  0  0  0  0
  4 36  1  0  0  0  0
  5 31  1  0  0  0  0
  5  6  1  0  0  0  0
  5 27  1  0  0  0  0
  6  7  1  0  0  0  0
  6 37  1  0  0  0  0
  6 38  1  0  0  0  0
  7  8  1  0  0  0  0
  7  9  1  0  0  0  0
  8 39  1  0  0  0  0
  8 40  1  0  0  0  0
  8 41  1  0  0  0  0
  9 14  1  0  0  0  0
  9 10  2  0  0  0  0
 10 11  1  0  0  0  0
 11 12  2  0  0  0  0
 11 42  1  0  0  0  0
 12 13  1  0  0  0  0
 13 17  1  0  0  0  0
 13 14  2  0  0  0  0
 14 15  1  0  0  0  0
 15 16  2  0  0  0  0
 16 17  1  0  0  0  0
 16 43  1  0  0  0  0
 17 18  1  0  0  0  0
 18 19  1  0  0  0  0
 18 44  1  0  0  0  0
 18 45  1  0  0  0  0
 19 20  1  0  0  0  0
 19 22  1  0  0  0  0
 19 46  1  0  0  0  0
 20 21  1  0  0  0  0
 20 47  1  0  0  0  0
 20 48  1  0  0  0  0
 21 49  1  0  0  0  0
 22 26  1  0  0  0  0
 22 23  1  0  0  0  0
 22 50  1  0  0  0  0
 23 24  1  0  0  0  0
 23 51  1  0  0  0  0
 23 52  1  0  0  0  0
 24 25  1  0  0  0  0
 24 53  1  0  0  0  0
 24 54  1  0  0  0  0
 25 26  1  0  0  0  0
 26 55  1  0  0  0  0
 26 56  1  0  0  0  0
 27 28  1  0  0  0  0
 27 29  1  0  0  0  0
 27 62  1  0  0  0  0
 28 57  1  0  0  0  0
 28 58  1  0  0  0  0
 28 59  1  0  0  0  0
 29 60  1  0  0  0  0
 29 61  1  0  0  0  0
M  CHG  1  27   1
M  END
> <s_m_source_file>
AV-unprocessed.smi

> <i_m_source_file_index>
21

> <i_lp_mmshare_version>
43012

> <i_f3d_flags>
0

> <s_epik_input>
W0NIM11PW0NASF0xW0NIMl1bQ0BIXShOKFtDSDNdKVtDSDJdMSlbQ0gyXU4oW0NIM10pYyhuW2NIXW4yKWMoYzIzKW5bY0hdbjNbQ0gyXVtDQEhdKFtDSDJdW09IXSlbQ0BASF00W0NIMl1bQ0gyXU9bQ0gyXTQ=

> <s_epik_cmdline>
J2VwaWtfcHl0aG9uJywgJy1waCcsICc3LjAnLCAnLXRuJywgJzgnLCAnLW1hJywgJzIwMCcsICctbWV0YWxfYmluZGluZycsICctaW1hZScsICc8aW5maWxlLm1hZT4nLCAnLW9tYWUnLCAnPG91dGZpbGUubWFlPic=

> <r_lp_tautomer_probability>
1

> <r_epik_Ionization_Penalty>
0.0157465

> <r_epik_Ionization_Penalty_Charging>
0.015354

> <r_epik_Ionization_Penalty_Neutral>
0.000392529

> <r_epik_State_Penalty>
0.0120612

> <r_epik_Charging_Adjusted_Penalty>
0.0274152

> <i_epik_Tot_Q>
1

> <i_epik_Tot_abs_Q>
1

> <r_epik_Metal_State_Penalty>
0.0121253

> <b_epik_Metal_Only>
0

> <s_lp_Force_Field>
OPLS_2005

> <r_lp_Energy>
61.1599

> <b_lp_Chiralities_Consistent>
1

> <s_lp_Variant>
AV-unprocessed.smi:21-5

> <Gold.Version>
5.8.1

> <Gold.Id.Protein>
6NUR|6NUR_protein|mol2

> <Gold.PLP.Fitness>
44.1772

> <Gold.PLP.PLP>
-36.3656

> <Gold.PLP.part.hbond>
-2.0000

> <Gold.PLP.part.metal>
0.0000

> <Gold.PLP.part.buried>
-6.7796

> <Gold.PLP.part.nonpolar>
-29.0979

> <Gold.PLP.part.repulsive>
0.6766

> <Gold.PLP.ligand.clash>
0.0000

> <Gold.PLP.ligand.torsion>
2.0673

> <Gold.PLP.Chemscore.Hbond>
3.0000

> <Gold.PLP.Chemscore.CHOScore>
0.6202

> <Gold.PLP.Chemscore.Metal>
0.0000

> <Gold.Chemscore.Hbonds>
donor molecule, donor type, donor heavy atom, donor atom, acceptor molecule, acceptor atom, score
      L1  H    27    62       P1  7948  2.00
      P1  H  7989  7998       L1    21  1.00
      L1  C    11    42       P1  7957  0.62

> <Gold.PLP.Chemscore.Internal.Correction>
1.0857

> <Gold.Rescore>
     Score         DG    S(hbond)    S(metal)    S(lipo)     H(rot)  DE(clash)    DE(int)     intcor
     10.98     -13.83       1.95        0.00      89.01       3.35       0.82       2.03       ----

> <Gold.Chemscore.Fitness>
10.9765

> <Gold.Chemscore.DG>
-13.8330

> <Gold.Chemscore.ZeroCoef>
-5.4800

> <Gold.Chemscore.Hbond>
1.9467

> <Gold.Chemscore.Metal>
0.0000

> <Gold.Chemscore.Lipo>
89.0132

> <Gold.Chemscore.Internal_Hbond>
0.0000

> <Gold.Chemscore.DEClash>
0.8229

> <Gold.Chemscore.DEInternal>
2.0337

> <Gold.Chemscore.Rot>
3.3452

> <Gold.Chemscore.Internal.Correction>
   9.000000E+99

> <Gold.Chemscore.Hbonds>
donor molecule, donor type, donor heavy atom, donor atom, acceptor molecule, acceptor atom, score
      L1  H    27    62       P1  7948  1.00
      P1  H  7989  7998       L1    21  0.45

> <Gold.Chemscore.Hbond.Weighted>
-6.5021

> <Gold.Chemscore.Metal.Weighted>
-0.0000

> <Gold.Chemscore.Lipo.Weighted>
-10.4145

> <Gold.Chemscore.Internal_Hbond.Weighted>
0.0000

> <Gold.Chemscore.DEClash.Weighted>
0.8229

> <Gold.Chemscore.DEInternal.Weighted>
2.0337

> <Gold.Chemscore.Rot.Weighted>
8.5636

> <Gold.Chemscore.Internal.Correction.Weighted>
   9.000000E+99

> <Gold.Protein.RotatedTorsions>
[ 6907 6896 6895 6894 ] final  121.19 input  -60.11 | X-H torsion
[ 7974 7965 7964 7962 ] final  100.78 input  175.53 | X-H torsion
[ 8008 7997 7996 7995 ] final  161.20 input   59.86 | X-H torsion
[ 10167 10162 10161 10158 ] final -173.00 input  -65.29 | X-H torsion
[ 10718 10713 10712 10709 ] final    8.89 input   66.30 | X-H torsion
[ 10763 10752 10751 10750 ] final   10.61 input  -60.55 | X-H torsion
[ 11005 11000 10999 10996 ] final  158.05 input  -57.11 | X-H torsion

> <Gold.Protein.ActiveResidues>
 VAL166  LYS551  ARG553  GLY616  TRP617  ASP618  TYR619  PRO620  LYS621  CYS622 
 ASP623  PHE694  ASN695  SER759  ASP760  ASP761  ALA762  ILE779  LEU786  VAL792 
 PHE793  MET794  SER795  GLU796  ALA797  LYS798  CYS799  TRP800  GLU811  SER814 

> <Gold.Protein.RotatedAtoms>
  152.4341  133.7329  159.6597 H   0  0  0  0  0  0  0  0  0  0  0  0  # atno 6907 bound_to 6896
  150.8223  133.8221  159.3140 H   0  0  0  0  0  0  0  0  0  0  0  0  # atno 6908 bound_to 6896
  151.5900  135.1056  160.0088 H   0  0  0  0  0  0  0  0  0  0  0  0  # atno 6909 bound_to 6896
  145.3810  139.2380  143.3403 H   0  0  0  0  0  0  0  0  0  0  0  0  # atno 7974 bound_to 7965
  156.2119  140.1783  156.7675 H   0  0  0  0  0  0  0  0  0  0  0  0  # atno 8008 bound_to 7997
  154.5735  140.0678  156.9029 H   0  0  0  0  0  0  0  0  0  0  0  0  # atno 8009 bound_to 7997
  155.2630  140.3337  155.4274 H   0  0  0  0  0  0  0  0  0  0  0  0  # atno 8010 bound_to 7997
  139.5712  144.1636  152.1387 H   0  0  0  0  0  0  0  0  0  0  0  0  # atno 10167 bound_to 10162
  156.9583  130.5923  149.5660 H   0  0  0  0  0  0  0  0  0  0  0  0  # atno 10718 bound_to 10713
  153.2014  135.6856  153.8227 H   0  0  0  0  0  0  0  0  0  0  0  0  # atno 10763 bound_to 10752
  153.7492  135.3226  155.3319 H   0  0  0  0  0  0  0  0  0  0  0  0  # atno 10764 bound_to 10752
  154.8173  135.4676  154.0781 H   0  0  0  0  0  0  0  0  0  0  0  0  # atno 10765 bound_to 10752
  140.1828  134.8463  157.2822 H   0  0  0  0  0  0  0  0  0  0  0  0  # atno 11005 bound_to 11000
  146.2842  140.4477  142.8764 LP  0  0  0  0  0  0  0  0  0  0  0  0  # atno 17320 bound_to 7965
  144.8508  140.6998  143.6170 LP  0  0  0  0  0  0  0  0  0  0  0  0  # atno 17321 bound_to 7965
  140.1170  144.5407  150.6888 LP  0  0  0  0  0  0  0  0  0  0  0  0  # atno 17342 bound_to 10162
  140.6997  143.2426  151.4900 LP  0  0  0  0  0  0  0  0  0  0  0  0  # atno 17343 bound_to 10162
  156.0333  130.5422  150.8589 LP  0  0  0  0  0  0  0  0  0  0  0  0  # atno 17370 bound_to 10713
  157.5675  131.0946  150.9468 LP  0  0  0  0  0  0  0  0  0  0  0  0  # atno 17371 bound_to 10713
  140.2248  134.3980  155.7549 LP  0  0  0  0  0  0  0  0  0  0  0  0  # atno 17394 bound_to 11000
  141.2223  133.7184  156.8547 LP  0  0  0  0  0  0  0  0  0  0  0  0  # atno 17395 bound_to 11000

$$$$
