AV-unprocessed.smi:1220|AV-procd|sdf|5115|dock7
  -GOLD-   22720 4173D 1   1.00000     0.00000
 Structure written by MMmdl.
 35 36  0  0  0  0  0  0  0  0  1 V2000
  145.1838  137.3608  152.6382 C   0  0  0  0  0  0  0  0  0  0  0  0
  145.4527  135.8586  152.4509 C   0  0  1  0  0  0  0  0  0  0  0  0
  145.3314  135.4006  150.9799 C   0  0  0  0  0  0  0  0  0  0  0  0
  145.2979  133.9566  150.8359 N   0  0  0  0  0  0  0  0  0  0  0  0
  144.2707  133.1644  150.3678 C   0  0  0  0  0  0  0  0  0  0  0  0
  144.7051  131.8706  150.4088 C   0  0  0  0  0  0  0  0  0  0  0  0
  146.0298  131.9746  150.9179 C   0  0  0  0  0  0  0  0  0  0  0  0
  146.3826  133.2248  151.1698 N   0  0  0  0  0  0  0  0  0  0  0  0
  146.7810  135.5424  152.9683 N   0  0  0  0  0  0  0  0  0  0  0  0
  147.0339  134.8034  154.0602 C   0  0  0  0  0  0  0  0  0  0  0  0
  146.1502  134.3079  154.7600 O   0  0  0  0  0  0  0  0  0  0  0  0
  148.5114  134.5870  154.4101 C   0  0  2  0  0  0  0  0  0  0  0  0
  148.8924  133.0909  154.4056 C   0  0  0  0  0  0  0  0  0  0  0  0
  150.2651  132.9387  155.0675 C   0  0  0  0  0  0  0  0  0  0  0  0
  150.3152  134.2058  156.3877 S   0  0  0  0  0  0  0  0  0  0  0  0
  149.9741  133.5823  157.6751 O   0  0  0  0  0  0  0  0  0  0  0  0
  151.5375  135.0095  156.2356 O   0  0  0  0  0  0  0  0  0  0  0  0
  148.8701  135.1639  155.7924 C   0  0  0  0  0  0  0  0  0  0  0  0
  144.1682  137.6255  152.3429 H   0  0  0  0  0  0  0  0  0  0  0  0
  145.8710  137.9638  152.0437 H   0  0  0  0  0  0  0  0  0  0  0  0
  145.3018  137.6526  153.6822 H   0  0  0  0  0  0  0  0  0  0  0  0
  144.7137  135.3199  153.0473 H   0  0  0  0  0  0  0  0  0  0  0  0
  144.4250  135.8106  150.5322 H   0  0  0  0  0  0  0  0  0  0  0  0
  146.1671  135.7796  150.3897 H   0  0  0  0  0  0  0  0  0  0  0  0
  143.3266  133.5820  150.0502 H   0  0  0  0  0  0  0  0  0  0  0  0
  144.1605  130.9846  150.1177 H   0  0  0  0  0  0  0  0  0  0  0  0
  146.7411  131.1847  151.1091 H   0  0  0  0  0  0  0  0  0  0  0  0
  147.5678  135.9116  152.4544 H   0  0  0  0  0  0  0  0  0  0  0  0
  149.1352  135.0882  153.6677 H   0  0  0  0  0  0  0  0  0  0  0  0
  148.1626  132.5174  154.9796 H   0  0  0  0  0  0  0  0  0  0  0  0
  148.8966  132.6796  153.3955 H   0  0  0  0  0  0  0  0  0  0  0  0
  150.4325  131.9469  155.4875 H   0  0  0  0  0  0  0  0  0  0  0  0
  151.0630  133.1582  154.3577 H   0  0  0  0  0  0  0  0  0  0  0  0
  149.1280  136.2222  155.7479 H   0  0  0  0  0  0  0  0  0  0  0  0
  148.0640  135.0373  156.5167 H   0  0  0  0  0  0  0  0  0  0  0  0
  1  2  1  0  0  0  0
  1 19  1  0  0  0  0
  1 20  1  0  0  0  0
  1 21  1  0  0  0  0
  2  3  1  0  0  0  0
  2  9  1  0  0  0  0
  2 22  1  0  0  0  0
  3  4  1  0  0  0  0
  3 23  1  0  0  0  0
  3 24  1  0  0  0  0
  4  8  1  0  0  0  0
  4  5  1  0  0  0  0
  5  6  2  0  0  0  0
  5 25  1  0  0  0  0
  6  7  1  0  0  0  0
  6 26  1  0  0  0  0
  7  8  2  0  0  0  0
  7 27  1  0  0  0  0
  9 10  1  0  0  0  0
  9 28  1  0  0  0  0
 10 11  2  0  0  0  0
 10 12  1  0  0  0  0
 12 18  1  0  0  0  0
 12 13  1  0  0  0  0
 12 29  1  0  0  0  0
 13 14  1  0  0  0  0
 13 30  1  0  0  0  0
 13 31  1  0  0  0  0
 14 15  1  0  0  0  0
 14 32  1  0  0  0  0
 14 33  1  0  0  0  0
 15 16  2  0  0  0  0
 15 17  2  0  0  0  0
 15 18  1  0  0  0  0
 18 34  1  0  0  0  0
 18 35  1  0  0  0  0
M  END
> <s_m_source_file>
AV-unprocessed.smi

> <i_m_source_file_index>
1220

> <i_lp_mmshare_version>
43012

> <i_f3d_flags>
0

> <s_epik_input>
bjFbY0hdW2NIXVtjSF1uMVtDSDJdW0NAQEhdKFtDSDNdKVtOSF1DKD1PKVtDQEBIXShbQ0gyXTIpW0NIMl1bQ0gyXVMyKD1PKT1P

> <s_epik_cmdline>
J2VwaWtfcHl0aG9uJywgJy1waCcsICc3LjAnLCAnLXRuJywgJzgnLCAnLW1hJywgJzIwMCcsICctbWV0YWxfYmluZGluZycsICctaW1hZScsICc8aW5maWxlLm1hZT4nLCAnLW9tYWUnLCAnPG91dGZpbGUubWFlPic=

> <r_lp_tautomer_probability>
1

> <r_epik_Ionization_Penalty>
0.000293905

> <r_epik_Ionization_Penalty_Charging>
0

> <r_epik_Ionization_Penalty_Neutral>
0.000293905

> <r_epik_State_Penalty>
-0

> <r_epik_Charging_Adjusted_Penalty>
0

> <i_epik_Tot_Q>
0

> <i_epik_Tot_abs_Q>
0

> <r_epik_Metal_State_Penalty>
-0

> <b_epik_Metal_Only>
0

> <s_lp_Force_Field>
OPLS_2005

> <r_lp_Energy>
2.06683

> <b_lp_Chiralities_Consistent>
1

> <s_lp_Variant>
AV-unprocessed.smi:1220-2

> <Gold.Version>
5.8.1

> <Gold.Id.Protein>
6NUR|6NUR_protein|mol2

> <Gold.PLP.Fitness>
42.4261

> <Gold.PLP.PLP>
-27.7966

> <Gold.PLP.part.hbond>
-3.0000

> <Gold.PLP.part.metal>
0.0000

> <Gold.PLP.part.buried>
-2.6480

> <Gold.PLP.part.nonpolar>
-22.2303

> <Gold.PLP.part.repulsive>
0.2485

> <Gold.PLP.ligand.clash>
0.0000

> <Gold.PLP.ligand.torsion>
0.1341

> <Gold.PLP.Chemscore.Hbond>
2.9600

> <Gold.PLP.Chemscore.CHOScore>
2.0000

> <Gold.PLP.Chemscore.Metal>
0.0000

> <Gold.Chemscore.Hbonds>
donor molecule, donor type, donor heavy atom, donor atom, acceptor molecule, acceptor atom, score
      L1  H     9    28       P1  7948  0.99
      P1  H  6896  6907       L1    16  1.00
      P1  H 10752 10765       L1    17  0.94
      L1  C     5    25       P1 10186  1.00
      L1  C     7    27       P1 10747  1.00

> <Gold.PLP.Chemscore.Internal.Correction>
0.0176

> <Gold.Rescore>
     Score         DG    S(hbond)    S(metal)    S(lipo)     H(rot)  DE(clash)    DE(int)     intcor
     17.40     -17.96       2.93        0.00      61.30       1.75       0.42       0.14       ----

> <Gold.Chemscore.Fitness>
17.4003

> <Gold.Chemscore.DG>
-17.9594

> <Gold.Chemscore.ZeroCoef>
-5.4800

> <Gold.Chemscore.Hbond>
2.9272

> <Gold.Chemscore.Metal>
0.0000

> <Gold.Chemscore.Lipo>
61.3004

> <Gold.Chemscore.Internal_Hbond>
0.0000

> <Gold.Chemscore.DEClash>
0.4237

> <Gold.Chemscore.DEInternal>
0.1353

> <Gold.Chemscore.Rot>
1.7460

> <Gold.Chemscore.Internal.Correction>
   9.000000E+99

> <Gold.Chemscore.Hbonds>
donor molecule, donor type, donor heavy atom, donor atom, acceptor molecule, acceptor atom, score
      L1  H     9    28       P1  7948  0.92
      P1  H  6896  6907       L1    16  0.95
      P1  H 10752 10765       L1    17  0.85

> <Gold.Chemscore.Hbond.Weighted>
-9.7769

> <Gold.Chemscore.Metal.Weighted>
-0.0000

> <Gold.Chemscore.Lipo.Weighted>
-7.1721

> <Gold.Chemscore.Internal_Hbond.Weighted>
0.0000

> <Gold.Chemscore.DEClash.Weighted>
0.4237

> <Gold.Chemscore.DEInternal.Weighted>
0.1353

> <Gold.Chemscore.Rot.Weighted>
4.4697

> <Gold.Chemscore.Internal.Correction.Weighted>
   9.000000E+99

> <Gold.Protein.RotatedTorsions>
[ 6907 6896 6895 6894 ] final -136.43 input  -60.11 | X-H torsion
[ 7974 7965 7964 7962 ] final -162.07 input  175.53 | X-H torsion
[ 8008 7997 7996 7995 ] final  118.49 input   59.86 | X-H torsion
[ 10167 10162 10161 10158 ] final  -55.06 input  -65.29 | X-H torsion
[ 10718 10713 10712 10709 ] final  171.89 input   66.30 | X-H torsion
[ 10763 10752 10751 10750 ] final -157.81 input  -60.55 | X-H torsion
[ 11005 11000 10999 10996 ] final   67.30 input  -57.11 | X-H torsion

> <Gold.Protein.ActiveResidues>
 VAL166  LYS551  ARG553  GLY616  TRP617  ASP618  TYR619  PRO620  LYS621  CYS622 
 ASP623  PHE694  ASN695  SER759  ASP760  ASP761  ALA762  ILE779  LEU786  VAL792 
 PHE793  MET794  SER795  GLU796  ALA797  LYS798  CYS799  TRP800  GLU811  SER814 

> <Gold.Protein.RotatedAtoms>
  151.0099  133.5975  159.2683 H   0  0  0  0  0  0  0  0  0  0  0  0  # atno 6907 bound_to 6896
  151.3130  135.0798  159.9289 H   0  0  0  0  0  0  0  0  0  0  0  0  # atno 6908 bound_to 6896
  152.5297  133.9761  159.7839 H   0  0  0  0  0  0  0  0  0  0  0  0  # atno 6909 bound_to 6896
  144.7369  140.3306  143.6154 H   0  0  0  0  0  0  0  0  0  0  0  0  # atno 7974 bound_to 7965
  156.2549  140.2873  156.0843 H   0  0  0  0  0  0  0  0  0  0  0  0  # atno 8008 bound_to 7997
  155.1532  140.0398  157.2843 H   0  0  0  0  0  0  0  0  0  0  0  0  # atno 8009 bound_to 7997
  154.6446  140.2530  155.7290 H   0  0  0  0  0  0  0  0  0  0  0  0  # atno 8010 bound_to 7997
  140.6396  143.2500  151.5026 H   0  0  0  0  0  0  0  0  0  0  0  0  # atno 10167 bound_to 10162
  156.9869  131.0136  151.2867 H   0  0  0  0  0  0  0  0  0  0  0  0  # atno 10718 bound_to 10713
  154.7606  135.3117  154.8385 H   0  0  0  0  0  0  0  0  0  0  0  0  # atno 10763 bound_to 10752
  153.9146  135.6802  153.4754 H   0  0  0  0  0  0  0  0  0  0  0  0  # atno 10764 bound_to 10752
  153.1207  135.4824  154.9122 H   0  0  0  0  0  0  0  0  0  0  0  0  # atno 10765 bound_to 10752
  139.9779  134.6792  156.0318 H   0  0  0  0  0  0  0  0  0  0  0  0  # atno 11005 bound_to 11000
  145.7476  139.1783  143.2340 LP  0  0  0  0  0  0  0  0  0  0  0  0  # atno 17320 bound_to 7965
  146.1086  140.7456  142.9514 LP  0  0  0  0  0  0  0  0  0  0  0  0  # atno 17321 bound_to 7965
  139.5605  144.2168  152.1683 LP  0  0  0  0  0  0  0  0  0  0  0  0  # atno 17342 bound_to 10162
  140.1434  144.5181  150.6730 LP  0  0  0  0  0  0  0  0  0  0  0  0  # atno 17343 bound_to 10162
  157.5487  130.8167  149.8117 LP  0  0  0  0  0  0  0  0  0  0  0  0  # atno 17370 bound_to 10713
  156.0222  130.3791  150.1927 LP  0  0  0  0  0  0  0  0  0  0  0  0  # atno 17371 bound_to 10713
  141.1454  133.6557  156.3853 LP  0  0  0  0  0  0  0  0  0  0  0  0  # atno 17394 bound_to 11000
  140.5156  134.6353  157.5300 LP  0  0  0  0  0  0  0  0  0  0  0  0  # atno 17395 bound_to 11000

$$$$
