AV-unprocessed.smi:78|AV-procd|sdf|776|dock4
  -GOLD-   2262017133D 1   1.00000     0.00000
 Structure written by MMmdl.
 56 59  0  0  0  0  0  0  0  0  1 V2000
  151.3864  139.1373  154.0697 C   0  0  0  0  0  0  0  0  0  0  0  0
  149.9960  139.7726  154.2368 C   0  0  0  0  0  0  0  0  0  0  0  0
  150.0203  140.8300  155.3503 C   0  0  0  0  0  0  0  0  0  0  0  0
  148.8927  138.7231  154.5111 C   0  0  0  0  0  0  0  0  0  0  0  0
  147.5820  139.2720  155.1437 C   0  0  1  0  0  0  0  0  0  0  0  0
  146.7479  140.1657  154.1985 C   0  0  0  0  0  0  0  0  0  0  0  0
  147.2921  140.8012  153.2974 O   0  0  0  0  0  0  0  0  0  0  0  0
  145.4208  140.2392  154.4053 N   0  0  0  0  0  0  0  0  0  0  0  0
  144.6692  139.5084  155.4295 C   0  0  0  0  0  0  0  0  0  0  0  0
  145.5647  138.7734  156.4508 C   0  0  0  0  0  0  0  0  0  0  0  0
  146.7662  138.2446  155.8124 N   0  0  0  0  0  0  0  0  0  0  0  0
  146.5426  137.0477  155.2104 C   0  0  0  0  0  0  0  0  0  0  0  0
  146.7915  135.8811  155.8627 N   0  0  0  0  0  0  0  0  0  0  0  0
  146.5811  134.7118  155.2513 C   0  0  0  0  0  0  0  0  0  0  0  0
  146.1431  134.4854  154.0109 N   0  0  0  0  0  0  0  0  0  0  0  0
  145.9030  135.6540  153.3499 C   0  0  0  0  0  0  0  0  0  0  0  0
  146.0725  136.9662  153.8727 C   0  0  0  0  0  0  0  0  0  0  0  0
  145.7126  137.9099  152.9195 N   0  0  0  0  0  0  0  0  0  0  0  0
  145.3452  137.1949  151.8910 C   0  0  0  0  0  0  0  0  0  0  0  0
  145.4552  135.8313  152.0528 N   0  0  0  0  0  0  0  0  0  0  0  0
  145.0973  134.8154  151.1069 C   0  0  0  0  0  0  0  0  0  0  0  0
  144.3703  133.5458  151.5594 C   0  0  0  0  0  0  0  0  0  0  0  0
  145.0912  132.7511  150.4456 C   0  0  0  0  0  0  0  0  0  0  0  0
  145.5821  131.3315  150.7927 C   0  0  0  0  0  0  0  0  0  0  0  0
  146.7584  131.3390  151.5771 O   0  0  0  0  0  0  0  0  0  0  0  0
  144.3340  132.6555  149.1070 C   0  0  0  0  0  0  0  0  0  0  0  0
  143.1176  131.9494  149.2466 O   0  0  0  0  0  0  0  0  0  0  0  0
  146.1468  133.8801  150.4961 C   0  0  0  0  0  0  0  0  0  0  0  0
  151.6615  138.5481  154.9449 H   0  0  0  0  0  0  0  0  0  0  0  0
  152.1518  139.9011  153.9306 H   0  0  0  0  0  0  0  0  0  0  0  0
  151.4276  138.4840  153.1984 H   0  0  0  0  0  0  0  0  0  0  0  0
  149.7619  140.2999  153.3124 H   0  0  0  0  0  0  0  0  0  0  0  0
  150.2572  140.3827  156.3161 H   0  0  0  0  0  0  0  0  0  0  0  0
  149.0544  141.3280  155.4415 H   0  0  0  0  0  0  0  0  0  0  0  0
  150.7663  141.5989  155.1472 H   0  0  0  0  0  0  0  0  0  0  0  0
  148.6534  138.2317  153.5669 H   0  0  0  0  0  0  0  0  0  0  0  0
  149.3017  137.9333  155.1412 H   0  0  0  0  0  0  0  0  0  0  0  0
  147.8879  139.9553  155.9360 H   0  0  0  0  0  0  0  0  0  0  0  0
  144.8856  140.8344  153.7896 H   0  0  0  0  0  0  0  0  0  0  0  0
  143.9885  140.1892  155.9409 H   0  0  0  0  0  0  0  0  0  0  0  0
  144.0463  138.7809  154.9081 H   0  0  0  0  0  0  0  0  0  0  0  0
  145.8803  139.4719  157.2265 H   0  0  0  0  0  0  0  0  0  0  0  0
  145.0000  137.9932  156.9642 H   0  0  0  0  0  0  0  0  0  0  0  0
  146.7973  133.8320  155.8392 H   0  0  0  0  0  0  0  0  0  0  0  0
  144.9879  137.6493  150.9785 H   0  0  0  0  0  0  0  0  0  0  0  0
  144.5316  135.3227  150.3236 H   0  0  0  0  0  0  0  0  0  0  0  0
  144.6574  133.2441  152.5679 H   0  0  0  0  0  0  0  0  0  0  0  0
  143.2850  133.5937  151.4660 H   0  0  0  0  0  0  0  0  0  0  0  0
  144.8236  130.7781  151.3469 H   0  0  0  0  0  0  0  0  0  0  0  0
  145.7891  130.7605  149.8869 H   0  0  0  0  0  0  0  0  0  0  0  0
  147.5027  131.2439  151.0024 H   0  0  0  0  0  0  0  0  0  0  0  0
  144.1001  133.6440  148.7114 H   0  0  0  0  0  0  0  0  0  0  0  0
  144.9409  132.1605  148.3483 H   0  0  0  0  0  0  0  0  0  0  0  0
  142.4047  132.5688  149.2093 H   0  0  0  0  0  0  0  0  0  0  0  0
  146.5220  134.2001  149.5235 H   0  0  0  0  0  0  0  0  0  0  0  0
  146.9722  133.6792  151.1808 H   0  0  0  0  0  0  0  0  0  0  0  0
  1  2  1  0  0  0  0
  1 29  1  0  0  0  0
  1 30  1  0  0  0  0
  1 31  1  0  0  0  0
  2  3  1  0  0  0  0
  2  4  1  0  0  0  0
  2 32  1  0  0  0  0
  3 33  1  0  0  0  0
  3 34  1  0  0  0  0
  3 35  1  0  0  0  0
  4  5  1  0  0  0  0
  4 36  1  0  0  0  0
  4 37  1  0  0  0  0
  5 11  1  0  0  0  0
  5  6  1  0  0  0  0
  5 38  1  0  0  0  0
  6  7  2  0  0  0  0
  6  8  1  0  0  0  0
  8  9  1  0  0  0  0
  8 39  1  0  0  0  0
  9 10  1  0  0  0  0
  9 40  1  0  0  0  0
  9 41  1  0  0  0  0
 10 11  1  0  0  0  0
 10 42  1  0  0  0  0
 10 43  1  0  0  0  0
 11 12  1  0  0  0  0
 12 17  1  0  0  0  0
 12 13  2  0  0  0  0
 13 14  1  0  0  0  0
 14 15  2  0  0  0  0
 14 44  1  0  0  0  0
 15 16  1  0  0  0  0
 16 20  1  0  0  0  0
 16 17  2  0  0  0  0
 17 18  1  0  0  0  0
 18 19  2  0  0  0  0
 19 20  1  0  0  0  0
 19 45  1  0  0  0  0
 20 21  1  0  0  0  0
 21 28  1  0  0  0  0
 21 22  1  0  0  0  0
 21 46  1  0  0  0  0
 22 23  1  0  0  0  0
 22 47  1  0  0  0  0
 22 48  1  0  0  0  0
 23 24  1  0  0  0  0
 23 26  1  0  0  0  0
 23 28  1  0  0  0  0
 24 25  1  0  0  0  0
 24 49  1  0  0  0  0
 24 50  1  0  0  0  0
 25 51  1  0  0  0  0
 26 27  1  0  0  0  0
 26 52  1  0  0  0  0
 26 53  1  0  0  0  0
 27 54  1  0  0  0  0
 28 55  1  0  0  0  0
 28 56  1  0  0  0  0
M  END
> <s_m_source_file>
AV-unprocessed.smi

> <i_m_source_file_index>
78

> <i_lp_mmshare_version>
43012

> <i_f3d_flags>
0

> <s_epik_input>
W0NIM11bQ0hdKFtDSDNdKVtDSDJdW0NAQEhdMUMoPU8pW05IXVtDSDJdW0NIMl1OMWMobltjSF1uMiljKGMyMyluW2NIXW4zW0NIXShbQ0gyXTQpW0NIMl1DNChbQ0gyXVtPSF0pW0NIMl1bT0hd

> <s_epik_cmdline>
J2VwaWtfcHl0aG9uJywgJy1waCcsICc3LjAnLCAnLXRuJywgJzgnLCAnLW1hJywgJzIwMCcsICctbWV0YWxfYmluZGluZycsICctaW1hZScsICc8aW5maWxlLm1hZT4nLCAnLW9tYWUnLCAnPG91dGZpbGUubWFlPic=

> <r_lp_tautomer_probability>
1

> <r_epik_Ionization_Penalty>
0.000550083

> <r_epik_Ionization_Penalty_Charging>
0

> <r_epik_Ionization_Penalty_Neutral>
0.000550083

> <r_epik_State_Penalty>
0.000250415

> <r_epik_Charging_Adjusted_Penalty>
0.000250415

> <i_epik_Tot_Q>
0

> <i_epik_Tot_abs_Q>
0

> <r_epik_Metal_State_Penalty>
-0

> <b_epik_Metal_Only>
0

> <s_lp_Force_Field>
OPLS_2005

> <r_lp_Energy>
48.678

> <b_lp_Chiralities_Consistent>
1

> <s_lp_Variant>
AV-unprocessed.smi:78-2

> <Gold.Version>
5.8.1

> <Gold.Id.Protein>
6NUR|6NUR_protein|mol2

> <Gold.PLP.Fitness>
48.0304

> <Gold.PLP.PLP>
-37.4259

> <Gold.PLP.part.hbond>
-5.0000

> <Gold.PLP.part.metal>
0.0000

> <Gold.PLP.part.buried>
-6.0935

> <Gold.PLP.part.nonpolar>
-27.3220

> <Gold.PLP.part.repulsive>
1.2935

> <Gold.PLP.ligand.clash>
0.0000

> <Gold.PLP.ligand.torsion>
1.7003

> <Gold.PLP.Chemscore.Hbond>
3.3901

> <Gold.PLP.Chemscore.CHOScore>
1.0000

> <Gold.PLP.Chemscore.Metal>
0.0000

> <Gold.Chemscore.Hbonds>
donor molecule, donor type, donor heavy atom, donor atom, acceptor molecule, acceptor atom, score
      L1  H     8    39       P1 10175  0.67
      L1  H    25    51       P1 10747  1.00
      L1  H    27    54       P1 10186  0.24
      P1  H 10785 10796       L1    27  1.00
      L1  C    19    45       P1 10171  0.59

> <Gold.PLP.Chemscore.Internal.Correction>
0.8349

> <Gold.Rescore>
     Score         DG    S(hbond)    S(metal)    S(lipo)     H(rot)  DE(clash)    DE(int)     intcor
      6.70     -14.92       2.83        0.00      81.45       3.72       2.06       6.16       ----

> <Gold.Chemscore.Fitness>
6.7014

> <Gold.Chemscore.DG>
-14.9228

> <Gold.Chemscore.ZeroCoef>
-5.4800

> <Gold.Chemscore.Hbond>
2.8281

> <Gold.Chemscore.Metal>
0.0000

> <Gold.Chemscore.Lipo>
81.4549

> <Gold.Chemscore.Internal_Hbond>
0.0000

> <Gold.Chemscore.DEClash>
2.0646

> <Gold.Chemscore.DEInternal>
6.1568

> <Gold.Chemscore.Rot>
3.7239

> <Gold.Chemscore.Internal.Correction>
   9.000000E+99

> <Gold.Chemscore.Hbonds>
donor molecule, donor type, donor heavy atom, donor atom, acceptor molecule, acceptor atom, score
      L1  H     8    39       P1 10175  0.63
      L1  H    25    51       P1 10747  1.00
      L1  H    27    54       P1 10186  0.25
      P1  H 10785 10796       L1    27  0.90

> <Gold.Chemscore.Hbond.Weighted>
-9.4458

> <Gold.Chemscore.Metal.Weighted>
-0.0000

> <Gold.Chemscore.Lipo.Weighted>
-9.5302

> <Gold.Chemscore.Internal_Hbond.Weighted>
0.0000

> <Gold.Chemscore.DEClash.Weighted>
2.0646

> <Gold.Chemscore.DEInternal.Weighted>
6.1568

> <Gold.Chemscore.Rot.Weighted>
9.5332

> <Gold.Chemscore.Internal.Correction.Weighted>
   9.000000E+99

> <Gold.Protein.RotatedTorsions>
[ 6907 6896 6895 6894 ] final -134.11 input  -60.11 | X-H torsion
[ 7974 7965 7964 7962 ] final  -32.90 input  175.53 | X-H torsion
[ 8008 7997 7996 7995 ] final   33.92 input   59.86 | X-H torsion
[ 10167 10162 10161 10158 ] final   70.52 input  -65.29 | X-H torsion
[ 10718 10713 10712 10709 ] final -126.26 input   66.30 | X-H torsion
[ 10763 10752 10751 10750 ] final  -51.25 input  -60.55 | X-H torsion
[ 11005 11000 10999 10996 ] final -151.07 input  -57.11 | X-H torsion

> <Gold.Protein.ActiveResidues>
 VAL166  LYS551  ARG553  GLY616  TRP617  ASP618  TYR619  PRO620  LYS621  CYS622 
 ASP623  PHE694  ASN695  SER759  ASP760  ASP761  ALA762  ILE779  LEU786  VAL792 
 PHE793  MET794  SER795  GLU796  ALA797  LYS798  CYS799  TRP800  GLU811  SER814 

> <Gold.Protein.RotatedAtoms>
  150.9820  133.6236  159.2720 H   0  0  0  0  0  0  0  0  0  0  0  0  # atno 6907 bound_to 6896
  151.3487  135.0879  159.9405 H   0  0  0  0  0  0  0  0  0  0  0  0  # atno 6908 bound_to 6896
  152.5218  133.9417  159.7684 H   0  0  0  0  0  0  0  0  0  0  0  0  # atno 6909 bound_to 6896
  146.0953  140.5850  142.8845 H   0  0  0  0  0  0  0  0  0  0  0  0  # atno 7974 bound_to 7965
  155.1465  140.3271  155.4440 H   0  0  0  0  0  0  0  0  0  0  0  0  # atno 8008 bound_to 7997
  156.2588  140.1984  156.6528 H   0  0  0  0  0  0  0  0  0  0  0  0  # atno 8009 bound_to 7997
  154.6504  140.0559  156.9936 H   0  0  0  0  0  0  0  0  0  0  0  0  # atno 8010 bound_to 7997
  140.0560  144.5272  150.7328 H   0  0  0  0  0  0  0  0  0  0  0  0  # atno 10167 bound_to 10162
  156.1749  130.6693  151.0229 H   0  0  0  0  0  0  0  0  0  0  0  0  # atno 10718 bound_to 10713
  154.1236  135.6531  153.4908 H   0  0  0  0  0  0  0  0  0  0  0  0  # atno 10763 bound_to 10752
  153.0217  135.5276  154.7072 H   0  0  0  0  0  0  0  0  0  0  0  0  # atno 10764 bound_to 10752
  154.6286  135.2973  155.0212 H   0  0  0  0  0  0  0  0  0  0  0  0  # atno 10765 bound_to 10752
  140.7335  134.3595  157.5162 H   0  0  0  0  0  0  0  0  0  0  0  0  # atno 11005 bound_to 11000
  144.7391  140.4891  143.6882 LP  0  0  0  0  0  0  0  0  0  0  0  0  # atno 17320 bound_to 7965
  145.5960  139.1499  143.3155 LP  0  0  0  0  0  0  0  0  0  0  0  0  # atno 17321 bound_to 7965
  140.7194  143.2574  151.4328 LP  0  0  0  0  0  0  0  0  0  0  0  0  # atno 17342 bound_to 10162
  139.5923  144.1472  152.2103 LP  0  0  0  0  0  0  0  0  0  0  0  0  # atno 17343 bound_to 10162
  157.6829  131.0833  150.7322 LP  0  0  0  0  0  0  0  0  0  0  0  0  # atno 17370 bound_to 10713
  156.7380  130.4730  149.5484 LP  0  0  0  0  0  0  0  0  0  0  0  0  # atno 17371 bound_to 10713
  139.8821  134.9034  156.2853 LP  0  0  0  0  0  0  0  0  0  0  0  0  # atno 17394 bound_to 11000
  140.9900  133.7214  156.0800 LP  0  0  0  0  0  0  0  0  0  0  0  0  # atno 17395 bound_to 11000

$$$$
