AV-unprocessed.smi:1913|AV-procd|sdf|7752|dock3
  -GOLD-   22720 9493D 1   1.00000     0.00000
 Structure written by MMmdl.
 40 42  0  0  0  0  0  0  0  0  1 V2000
  152.8628  137.3048  156.7487 C   0  0  0  0  0  0  0  0  0  0  0  0
  152.5337  137.6527  155.4116 O   0  0  0  0  0  0  0  0  0  0  0  0
  151.5824  138.6297  155.2112 C   0  0  0  0  0  0  0  0  0  0  0  0
  150.7306  138.6919  154.0838 C   0  0  0  0  0  0  0  0  0  0  0  0
  149.7775  139.7199  153.9662 C   0  0  0  0  0  0  0  0  0  0  0  0
  149.6504  140.7111  154.9703 C   0  0  0  0  0  0  0  0  0  0  0  0
  148.7130  141.7226  154.9177 O   0  0  0  0  0  0  0  0  0  0  0  0
  147.7530  141.6983  153.8721 C   0  0  0  0  0  0  0  0  0  0  0  0
  150.5098  140.6588  156.0955 C   0  0  0  0  0  0  0  0  0  0  0  0
  150.3801  141.6847  157.2214 C   0  0  2  0  0  0  0  0  0  0  0  0
  149.0704  142.2057  157.3327 O   0  0  0  0  0  0  0  0  0  0  0  0
  151.3527  142.8695  157.0470 C   0  0  0  0  0  0  0  0  0  0  0  0
  151.5278  143.6229  158.2761 N   0  0  0  0  0  0  0  0  0  0  0  0
  151.1227  144.8844  158.5174 C   0  0  0  0  0  0  0  0  0  0  0  0
  151.3585  145.3795  159.7290 N   0  0  0  0  0  0  0  0  0  0  0  0
  151.9931  144.3154  160.3466 C   0  0  0  0  0  0  0  0  0  0  0  0
  152.4975  144.1858  161.6604 C   0  0  0  0  0  0  0  0  0  0  0  0
  153.1079  142.9839  162.0760 C   0  0  0  0  0  0  0  0  0  0  0  0
  153.2245  141.8962  161.1867 C   0  0  0  0  0  0  0  0  0  0  0  0
  152.7312  142.0025  159.8723 C   0  0  0  0  0  0  0  0  0  0  0  0
  152.1207  143.2024  159.4621 C   0  0  0  0  0  0  0  0  0  0  0  0
  151.4611  139.6199  156.2041 C   0  0  0  0  0  0  0  0  0  0  0  0
  153.6377  136.5385  156.7398 H   0  0  0  0  0  0  0  0  0  0  0  0
  152.0016  136.8965  157.2795 H   0  0  0  0  0  0  0  0  0  0  0  0
  153.2535  138.1624  157.2986 H   0  0  0  0  0  0  0  0  0  0  0  0
  150.7846  137.9589  153.2936 H   0  0  0  0  0  0  0  0  0  0  0  0
  149.1479  139.7217  153.0900 H   0  0  0  0  0  0  0  0  0  0  0  0
  147.0303  142.4981  154.0323 H   0  0  0  0  0  0  0  0  0  0  0  0
  147.2024  140.7563  153.8582 H   0  0  0  0  0  0  0  0  0  0  0  0
  148.2185  141.8628  152.8996 H   0  0  0  0  0  0  0  0  0  0  0  0
  150.5799  141.2011  158.1778 H   0  0  0  0  0  0  0  0  0  0  0  0
  149.0303  143.0181  156.8514 H   0  0  0  0  0  0  0  0  0  0  0  0
  152.3279  142.5250  156.7002 H   0  0  0  0  0  0  0  0  0  0  0  0
  150.9770  143.5557  156.2865 H   0  0  0  0  0  0  0  0  0  0  0  0
  150.6160  145.4687  157.7631 H   0  0  0  0  0  0  0  0  0  0  0  0
  152.4127  145.0118  162.3508 H   0  0  0  0  0  0  0  0  0  0  0  0
  153.4878  142.8959  163.0833 H   0  0  0  0  0  0  0  0  0  0  0  0
  153.6917  140.9793  161.5148 H   0  0  0  0  0  0  0  0  0  0  0  0
  152.8123  141.1693  159.1900 H   0  0  0  0  0  0  0  0  0  0  0  0
  152.1028  139.5670  157.0714 H   0  0  0  0  0  0  0  0  0  0  0  0
  1  2  1  0  0  0  0
  1 23  1  0  0  0  0
  1 24  1  0  0  0  0
  1 25  1  0  0  0  0
  2  3  1  0  0  0  0
  3 22  1  0  0  0  0
  3  4  2  0  0  0  0
  4  5  1  0  0  0  0
  4 26  1  0  0  0  0
  5  6  2  0  0  0  0
  5 27  1  0  0  0  0
  6  7  1  0  0  0  0
  6  9  1  0  0  0  0
  7  8  1  0  0  0  0
  8 28  1  0  0  0  0
  8 29  1  0  0  0  0
  8 30  1  0  0  0  0
  9 10  1  0  0  0  0
  9 22  2  0  0  0  0
 10 11  1  0  0  0  0
 10 12  1  0  0  0  0
 10 31  1  0  0  0  0
 11 32  1  0  0  0  0
 12 13  1  0  0  0  0
 12 33  1  0  0  0  0
 12 34  1  0  0  0  0
 13 21  1  0  0  0  0
 13 14  1  0  0  0  0
 14 15  2  0  0  0  0
 14 35  1  0  0  0  0
 15 16  1  0  0  0  0
 16 21  2  0  0  0  0
 16 17  1  0  0  0  0
 17 18  2  0  0  0  0
 17 36  1  0  0  0  0
 18 19  1  0  0  0  0
 18 37  1  0  0  0  0
 19 20  2  0  0  0  0
 19 38  1  0  0  0  0
 20 21  1  0  0  0  0
 20 39  1  0  0  0  0
 22 40  1  0  0  0  0
M  END
> <s_m_source_file>
AV-unprocessed.smi

> <i_m_source_file_index>
1913

> <i_lp_mmshare_version>
43012

> <i_f3d_flags>
0

> <s_epik_input>
W0NIM11PYzFbY0hdW2NIXWMoT1tDSDNdKWMoW2NIXTEpW0NASF0oW09IXSlbQ0gyXW4oW2NIXW4yKWMoYzIzKVtjSF1bY0hdW2NIXVtjSF0z

> <s_epik_cmdline>
J2VwaWtfcHl0aG9uJywgJy1waCcsICc3LjAnLCAnLXRuJywgJzgnLCAnLW1hJywgJzIwMCcsICctbWV0YWxfYmluZGluZycsICctaW1hZScsICc8aW5maWxlLm1hZT4nLCAnLW9tYWUnLCAnPG91dGZpbGUubWFlPic=

> <r_lp_tautomer_probability>
1

> <r_epik_Ionization_Penalty>
0.0696512

> <r_epik_Ionization_Penalty_Charging>
0

> <r_epik_Ionization_Penalty_Neutral>
0.0696512

> <r_epik_State_Penalty>
0.0610247

> <r_epik_Charging_Adjusted_Penalty>
0.0610247

> <i_epik_Tot_Q>
0

> <i_epik_Tot_abs_Q>
0

> <r_epik_Metal_State_Penalty>
6.42746e-05

> <b_epik_Metal_Only>
0

> <s_lp_Force_Field>
OPLS_2005

> <r_lp_Energy>
18.1997

> <b_lp_Chiralities_Consistent>
1

> <s_lp_Variant>
AV-unprocessed.smi:1913-1

> <Gold.Version>
5.8.1

> <Gold.Id.Protein>
6NUR|6NUR_protein|mol2

> <Gold.PLP.Fitness>
53.8841

> <Gold.PLP.PLP>
-51.7193

> <Gold.PLP.part.hbond>
-2.2287

> <Gold.PLP.part.metal>
0.0000

> <Gold.PLP.part.buried>
-2.4408

> <Gold.PLP.part.nonpolar>
-46.6694

> <Gold.PLP.part.repulsive>
0.4524

> <Gold.PLP.ligand.clash>
0.4525

> <Gold.PLP.ligand.torsion>
1.3010

> <Gold.PLP.Chemscore.Hbond>
1.1223

> <Gold.PLP.Chemscore.CHOScore>
0.6001

> <Gold.PLP.Chemscore.Metal>
0.0000

> <Gold.Chemscore.Hbonds>
donor molecule, donor type, donor heavy atom, donor atom, acceptor molecule, acceptor atom, score
      L1  H    11    32       P1  8028  0.88
      P1  H 10752 10765       L1     2  0.19
      L1  C    14    35       P1  8028  0.20
      L1  C    14    35       P1  8029  0.19

> <Gold.PLP.Chemscore.Internal.Correction>
0.0521

> <Gold.Rescore>
     Score         DG    S(hbond)    S(metal)    S(lipo)     H(rot)  DE(clash)    DE(int)     intcor
     17.45     -19.14       0.93        0.00     141.33       2.33       0.41       1.28       ----

> <Gold.Chemscore.Fitness>
17.4511

> <Gold.Chemscore.DG>
-19.1364

> <Gold.Chemscore.ZeroCoef>
-5.4800

> <Gold.Chemscore.Hbond>
0.9256

> <Gold.Chemscore.Metal>
0.0000

> <Gold.Chemscore.Lipo>
141.3302

> <Gold.Chemscore.Internal_Hbond>
0.0000

> <Gold.Chemscore.DEClash>
0.4064

> <Gold.Chemscore.DEInternal>
1.2790

> <Gold.Chemscore.Rot>
2.3323

> <Gold.Chemscore.Internal.Correction>
   9.000000E+99

> <Gold.Chemscore.Hbonds>
donor molecule, donor type, donor heavy atom, donor atom, acceptor molecule, acceptor atom, score
      L1  H    11    32       P1  8028  0.81
      P1  H 10752 10765       L1     2  0.01

> <Gold.Chemscore.Hbond.Weighted>
-3.0916

> <Gold.Chemscore.Metal.Weighted>
-0.0000

> <Gold.Chemscore.Lipo.Weighted>
-16.5356

> <Gold.Chemscore.Internal_Hbond.Weighted>
0.0000

> <Gold.Chemscore.DEClash.Weighted>
0.4064

> <Gold.Chemscore.DEInternal.Weighted>
1.2790

> <Gold.Chemscore.Rot.Weighted>
5.9708

> <Gold.Chemscore.Internal.Correction.Weighted>
   9.000000E+99

> <Gold.Protein.RotatedTorsions>
[ 6907 6896 6895 6894 ] final  -95.33 input  -60.11 | X-H torsion
[ 7974 7965 7964 7962 ] final   23.94 input  175.53 | X-H torsion
[ 8008 7997 7996 7995 ] final  -85.96 input   59.86 | X-H torsion
[ 10167 10162 10161 10158 ] final   90.16 input  -65.29 | X-H torsion
[ 10718 10713 10712 10709 ] final  140.45 input   66.30 | X-H torsion
[ 10763 10752 10751 10750 ] final -174.73 input  -60.55 | X-H torsion
[ 11005 11000 10999 10996 ] final  169.81 input  -57.11 | X-H torsion

> <Gold.Protein.ActiveResidues>
 VAL166  LYS551  ARG553  GLY616  TRP617  ASP618  TYR619  PRO620  LYS621  CYS622 
 ASP623  PHE694  ASN695  SER759  ASP760  ASP761  ALA762  ILE779  LEU786  VAL792 
 PHE793  MET794  SER795  GLU796  ALA797  LYS798  CYS799  TRP800  GLU811  SER814 

> <Gold.Protein.RotatedAtoms>
  150.6961  134.1675  159.4199 H   0  0  0  0  0  0  0  0  0  0  0  0  # atno 6907 bound_to 6896
  151.9653  135.0101  160.0559 H   0  0  0  0  0  0  0  0  0  0  0  0  # atno 6908 bound_to 6896
  152.1890  133.4725  159.5034 H   0  0  0  0  0  0  0  0  0  0  0  0  # atno 6909 bound_to 6896
  146.1961  139.7675  142.8796 H   0  0  0  0  0  0  0  0  0  0  0  0  # atno 7974 bound_to 7965
  154.6465  140.0584  156.9906 H   0  0  0  0  0  0  0  0  0  0  0  0  # atno 8008 bound_to 7997
  155.1437  140.3267  155.4428 H   0  0  0  0  0  0  0  0  0  0  0  0  # atno 8009 bound_to 7997
  156.2556  140.1959  156.6551 H   0  0  0  0  0  0  0  0  0  0  0  0  # atno 8010 bound_to 7997
  139.8501  144.6598  150.9180 H   0  0  0  0  0  0  0  0  0  0  0  0  # atno 10167 bound_to 10162
  157.4032  131.1019  151.0531 H   0  0  0  0  0  0  0  0  0  0  0  0  # atno 10718 bound_to 10713
  154.5928  135.2847  155.0617 H   0  0  0  0  0  0  0  0  0  0  0  0  # atno 10763 bound_to 10752
  154.1911  135.6440  153.5064 H   0  0  0  0  0  0  0  0  0  0  0  0  # atno 10764 bound_to 10752
  153.0127  135.5446  154.6620 H   0  0  0  0  0  0  0  0  0  0  0  0  # atno 10765 bound_to 10752
  140.3017  134.7590  157.3921 H   0  0  0  0  0  0  0  0  0  0  0  0  # atno 11005 bound_to 11000
  145.3638  141.0330  143.3269 LP  0  0  0  0  0  0  0  0  0  0  0  0  # atno 17320 bound_to 7965
  144.8584  139.5215  143.6824 LP  0  0  0  0  0  0  0  0  0  0  0  0  # atno 17321 bound_to 7965
  140.7788  143.3835  151.1435 LP  0  0  0  0  0  0  0  0  0  0  0  0  # atno 17342 bound_to 10162
  139.7474  143.8831  152.3067 LP  0  0  0  0  0  0  0  0  0  0  0  0  # atno 17343 bound_to 10162
  157.1522  130.6189  149.5585 LP  0  0  0  0  0  0  0  0  0  0  0  0  # atno 17370 bound_to 10713
  155.9829  130.4845  150.6905 LP  0  0  0  0  0  0  0  0  0  0  0  0  # atno 17371 bound_to 10713
  140.1104  134.5354  155.8272 LP  0  0  0  0  0  0  0  0  0  0  0  0  # atno 17394 bound_to 11000
  141.2127  133.6722  156.6677 LP  0  0  0  0  0  0  0  0  0  0  0  0  # atno 17395 bound_to 11000

$$$$
