AV-unprocessed.smi:1999|AV-procd|sdf|8097|dock2
  -GOLD-   2272010313D 1   1.00000     0.00000
 Structure written by MMmdl.
 37 38  0  0  0  0  0  0  0  0  2 V2000
  143.5236  143.5419  162.3805 C   0  0  0  0  0  0  0  0  0  0  0  0
  144.5412  143.2273  161.3382 C   0  0  0  0  0  0  0  0  0  0  0  0
  145.2281  142.0825  161.3208 N   0  0  0  0  0  0  0  0  0  0  0  0
  146.1177  142.0231  160.2579 N   0  0  0  0  0  0  0  0  0  0  0  0
  146.0977  143.1238  159.4929 C   0  0  0  0  0  0  0  0  0  0  0  0
  146.8822  143.2637  158.4116 N   0  5  0  0  0  0  0  0  0  0  0  0
  147.8477  142.3520  158.1546 C   0  0  0  0  0  0  0  0  0  0  0  0
  147.7966  141.1451  158.4033 O   0  0  0  0  0  0  0  0  0  0  0  0
  148.9391  142.8710  157.5740 N   0  0  0  0  0  0  0  0  0  0  0  0
  150.1477  142.1402  157.1955 C   0  0  1  0  0  0  0  0  0  0  0  0
  149.9493  141.4658  155.8292 C   0  0  0  0  0  0  0  0  0  0  0  0
  151.3565  143.0985  157.1738 C   0  0  0  0  0  0  0  0  0  0  0  0
  151.9171  143.4463  158.4813 N   0  0  0  0  0  0  0  0  0  0  0  0
  151.0301  144.2976  159.2710 C   0  0  0  0  0  0  0  0  0  0  0  0
  151.6299  144.6284  160.6489 C   0  0  0  0  0  0  0  0  0  0  0  0
  151.9344  143.4230  161.3432 O   0  0  0  0  0  0  0  0  0  0  0  0
  152.8378  142.5904  160.6236 C   0  0  0  0  0  0  0  0  0  0  0  0
  152.2372  142.2485  159.2494 C   0  0  0  0  0  0  0  0  0  0  0  0
  144.9364  144.3352  160.0351 S   0  0  0  0  0  0  0  0  0  0  0  0
  144.0116  143.9523  163.2646 H   0  0  0  0  0  0  0  0  0  0  0  0
  142.9803  142.6402  162.6647 H   0  0  0  0  0  0  0  0  0  0  0  0
  142.8095  144.2735  162.0022 H   0  0  0  0  0  0  0  0  0  0  0  0
  148.9368  143.8643  157.3945 H   0  0  0  0  0  0  0  0  0  0  0  0
  150.3389  141.3528  157.9253 H   0  0  0  0  0  0  0  0  0  0  0  0
  150.8397  140.9099  155.5346 H   0  0  0  0  0  0  0  0  0  0  0  0
  149.7411  142.2000  155.0502 H   0  0  0  0  0  0  0  0  0  0  0  0
  149.1169  140.7617  155.8535 H   0  0  0  0  0  0  0  0  0  0  0  0
  152.1399  142.6733  156.5448 H   0  0  0  0  0  0  0  0  0  0  0  0
  151.0424  144.0166  156.6749 H   0  0  0  0  0  0  0  0  0  0  0  0
  150.8367  145.2326  158.7465 H   0  0  0  0  0  0  0  0  0  0  0  0
  150.0655  143.8058  159.4044 H   0  0  0  0  0  0  0  0  0  0  0  0
  152.5328  145.2315  160.5408 H   0  0  0  0  0  0  0  0  0  0  0  0
  150.9236  145.2116  161.2397 H   0  0  0  0  0  0  0  0  0  0  0  0
  153.7991  143.0942  160.5112 H   0  0  0  0  0  0  0  0  0  0  0  0
  153.0176  141.6805  161.1962 H   0  0  0  0  0  0  0  0  0  0  0  0
  151.3376  141.6471  159.3897 H   0  0  0  0  0  0  0  0  0  0  0  0
  152.9426  141.6298  158.6935 H   0  0  0  0  0  0  0  0  0  0  0  0
  1  2  1  0  0  0  0
  1 20  1  0  0  0  0
  1 21  1  0  0  0  0
  1 22  1  0  0  0  0
  2 19  1  0  0  0  0
  2  3  2  0  0  0  0
  3  4  1  0  0  0  0
  4  5  2  0  0  0  0
  5  6  1  0  0  0  0
  5 19  1  0  0  0  0
  6  7  1  0  0  0  0
  7  8  2  0  0  0  0
  7  9  1  0  0  0  0
  9 10  1  0  0  0  0
  9 23  1  0  0  0  0
 10 11  1  0  0  0  0
 10 12  1  0  0  0  0
 10 24  1  0  0  0  0
 11 25  1  0  0  0  0
 11 26  1  0  0  0  0
 11 27  1  0  0  0  0
 12 13  1  0  0  0  0
 12 28  1  0  0  0  0
 12 29  1  0  0  0  0
 13 18  1  0  0  0  0
 13 14  1  0  0  0  0
 14 15  1  0  0  0  0
 14 30  1  0  0  0  0
 14 31  1  0  0  0  0
 15 16  1  0  0  0  0
 15 32  1  0  0  0  0
 15 33  1  0  0  0  0
 16 17  1  0  0  0  0
 17 18  1  0  0  0  0
 17 34  1  0  0  0  0
 17 35  1  0  0  0  0
 18 36  1  0  0  0  0
 18 37  1  0  0  0  0
M  CHG  1   6  -1
M  END
> <s_m_source_file>
AV-unprocessed.smi

> <i_m_source_file_index>
1999

> <i_lp_mmshare_version>
43012

> <i_f3d_flags>
0

> <s_epik_input>
W0NIM11jMW5uYyhzMSlbTkhdQyg9TylbTkhdW0NASF0oW0NIM10pW0NIMl1OMltDSDJdW0NIMl1PW0NIMl1bQ0gyXTI=

> <s_epik_cmdline>
J2VwaWtfcHl0aG9uJywgJy1waCcsICc3LjAnLCAnLXRuJywgJzgnLCAnLW1hJywgJzIwMCcsICctbWV0YWxfYmluZGluZycsICctaW1hZScsICc8aW5maWxlLm1hZT4nLCAnLW9tYWUnLCAnPG91dGZpbGUubWFlPic=

> <r_lp_tautomer_probability>
1

> <r_epik_Ionization_Penalty>
3.74165

> <r_epik_Ionization_Penalty_Charging>
3.28066

> <r_epik_Ionization_Penalty_Neutral>
0.460988

> <r_epik_State_Penalty>
3.48767

> <r_epik_Charging_Adjusted_Penalty>
6.76834

> <i_epik_Tot_Q>
-1

> <i_epik_Tot_abs_Q>
1

> <r_epik_Metal_State_Penalty>
0.700129

> <b_epik_Metal_Only>
1

> <s_lp_Force_Field>
OPLS_2005

> <r_lp_Energy>
23.1918

> <b_lp_Chiralities_Consistent>
1

> <s_lp_Variant>
AV-unprocessed.smi:1999-6

> <Gold.Version>
5.8.1

> <Gold.Id.Protein>
6NUR|6NUR_protein|mol2

> <Gold.PLP.Fitness>
39.7066

> <Gold.PLP.PLP>
-37.1861

> <Gold.PLP.part.hbond>
-5.4164

> <Gold.PLP.part.metal>
0.0000

> <Gold.PLP.part.buried>
-5.2914

> <Gold.PLP.part.nonpolar>
-28.3963

> <Gold.PLP.part.repulsive>
1.4076

> <Gold.PLP.ligand.clash>
0.0000

> <Gold.PLP.ligand.torsion>
0.7807

> <Gold.PLP.Chemscore.Hbond>
1.2989

> <Gold.PLP.Chemscore.CHOScore>
0.0000

> <Gold.PLP.Chemscore.Metal>
0.0000

> <Gold.Chemscore.Hbonds>
donor molecule, donor type, donor heavy atom, donor atom, acceptor molecule, acceptor atom, score
      L1  H     9    23       P1  8028  0.39
      P1  H  6934  6946       L1     4  0.78

> <Gold.PLP.Chemscore.Internal.Correction>
0.1853

> <Gold.Rescore>
     Score         DG    S(hbond)    S(metal)    S(lipo)     H(rot)  DE(clash)    DE(int)     intcor
     12.37     -15.05       1.24        0.00      80.51       1.56       0.25       2.43       ----

> <Gold.Chemscore.Fitness>
12.3726

> <Gold.Chemscore.DG>
-15.0497

> <Gold.Chemscore.ZeroCoef>
-5.4800

> <Gold.Chemscore.Hbond>
1.2372

> <Gold.Chemscore.Metal>
0.0000

> <Gold.Chemscore.Lipo>
80.5109

> <Gold.Chemscore.Internal_Hbond>
0.0000

> <Gold.Chemscore.DEClash>
0.2500

> <Gold.Chemscore.DEInternal>
2.4272

> <Gold.Chemscore.Rot>
1.5556

> <Gold.Chemscore.Internal.Correction>
   9.000000E+99

> <Gold.Chemscore.Hbonds>
donor molecule, donor type, donor heavy atom, donor atom, acceptor molecule, acceptor atom, score
      L1  H     9    23       P1  8028  0.04
      P1  H  6934  6946       L1     4  0.15

> <Gold.Chemscore.Hbond.Weighted>
-4.1322

> <Gold.Chemscore.Metal.Weighted>
-0.0000

> <Gold.Chemscore.Lipo.Weighted>
-9.4198

> <Gold.Chemscore.Internal_Hbond.Weighted>
0.0000

> <Gold.Chemscore.DEClash.Weighted>
0.2500

> <Gold.Chemscore.DEInternal.Weighted>
2.4272

> <Gold.Chemscore.Rot.Weighted>
3.9823

> <Gold.Chemscore.Internal.Correction.Weighted>
   9.000000E+99

> <Gold.Protein.RotatedTorsions>
[ 6907 6896 6895 6894 ] final -136.01 input  -60.11 | X-H torsion
[ 7974 7965 7964 7962 ] final   62.15 input  175.53 | X-H torsion
[ 8008 7997 7996 7995 ] final -125.03 input   59.86 | X-H torsion
[ 10167 10162 10161 10158 ] final  -11.39 input  -65.29 | X-H torsion
[ 10718 10713 10712 10709 ] final -156.73 input   66.30 | X-H torsion
[ 10763 10752 10751 10750 ] final  101.46 input  -60.55 | X-H torsion
[ 11005 11000 10999 10996 ] final  163.40 input  -57.11 | X-H torsion

> <Gold.Protein.ActiveResidues>
 VAL166  LYS551  ARG553  GLY616  TRP617  ASP618  TYR619  PRO620  LYS621  CYS622 
 ASP623  PHE694  ASN695  SER759  ASP760  ASP761  ALA762  ILE779  LEU786  VAL792 
 PHE793  MET794  SER795  GLU796  ALA797  LYS798  CYS799  TRP800  GLU811  SER814 

> <Gold.Protein.RotatedAtoms>
  151.0048  133.6021  159.2689 H   0  0  0  0  0  0  0  0  0  0  0  0  # atno 6907 bound_to 6896
  151.3194  135.0814  159.9310 H   0  0  0  0  0  0  0  0  0  0  0  0  # atno 6908 bound_to 6896
  152.5284  133.9698  159.7811 H   0  0  0  0  0  0  0  0  0  0  0  0  # atno 6909 bound_to 6896
  145.8766  139.3414  143.0731 H   0  0  0  0  0  0  0  0  0  0  0  0  # atno 7974 bound_to 7965
  155.2066  140.0417  157.2926 H   0  0  0  0  0  0  0  0  0  0  0  0  # atno 8008 bound_to 7997
  154.6039  140.2459  155.7727 H   0  0  0  0  0  0  0  0  0  0  0  0  # atno 8009 bound_to 7997
  156.2338  140.2929  156.0268 H   0  0  0  0  0  0  0  0  0  0  0  0  # atno 8010 bound_to 7997
  140.7137  143.5645  150.9159 H   0  0  0  0  0  0  0  0  0  0  0  0  # atno 10167 bound_to 10162
  156.5305  130.8519  151.2714 H   0  0  0  0  0  0  0  0  0  0  0  0  # atno 10718 bound_to 10713
  153.3269  135.4044  155.1463 H   0  0  0  0  0  0  0  0  0  0  0  0  # atno 10763 bound_to 10752
  154.8614  135.3601  154.5521 H   0  0  0  0  0  0  0  0  0  0  0  0  # atno 10764 bound_to 10752
  153.5958  135.7072  153.5463 H   0  0  0  0  0  0  0  0  0  0  0  0  # atno 10765 bound_to 10752
  140.2354  134.8092  157.3359 H   0  0  0  0  0  0  0  0  0  0  0  0  # atno 11005 bound_to 11000
  145.9074  140.9203  143.0472 LP  0  0  0  0  0  0  0  0  0  0  0  0  # atno 17320 bound_to 7965
  144.6726  140.1114  143.7455 LP  0  0  0  0  0  0  0  0  0  0  0  0  # atno 17321 bound_to 7965
  139.9371  143.6425  152.3063 LP  0  0  0  0  0  0  0  0  0  0  0  0  # atno 17342 bound_to 10162
  139.6897  144.7648  151.1461 LP  0  0  0  0  0  0  0  0  0  0  0  0  # atno 17343 bound_to 10162
  157.7422  130.9886  150.2502 LP  0  0  0  0  0  0  0  0  0  0  0  0  # atno 17370 bound_to 10713
  156.3064  130.3765  149.7702 LP  0  0  0  0  0  0  0  0  0  0  0  0  # atno 17371 bound_to 10713
  140.1707  134.4612  155.7833 LP  0  0  0  0  0  0  0  0  0  0  0  0  # atno 17394 bound_to 11000
  141.2215  133.6940  156.7703 LP  0  0  0  0  0  0  0  0  0  0  0  0  # atno 17395 bound_to 11000

$$$$
