AV-unprocessed.smi:2137|AV-procd|sdf|8707|dock4
  -GOLD-   2272011473D 1   1.00000     0.00000
 Structure written by MMmdl.
 50 51  0  0  0  0  0  0  0  0  2 V2000
  146.6379  133.2537  150.7535 C   0  0  0  0  0  0  0  0  0  0  0  0
  145.3057  133.6751  151.3979 C   0  0  1  0  0  0  0  0  0  0  0  0
  145.1588  133.1774  152.8476 C   0  0  0  0  0  0  0  0  0  0  0  0
  146.0437  133.9861  153.8067 C   0  0  0  0  0  0  0  0  0  0  0  0
  145.7822  135.4935  153.6609 C   0  0  0  0  0  0  0  0  0  0  0  0
  145.9755  135.9366  152.2562 N   0  3  2  0  0  0  0  0  0  0  0  0
  145.8845  137.4115  152.1120 C   0  0  0  0  0  0  0  0  0  0  0  0
  147.0564  138.1381  152.7931 C   0  0  0  0  0  0  0  0  0  0  0  0
  146.7574  139.6259  153.0420 C   0  0  0  0  0  0  0  0  0  0  0  0
  147.9623  140.3581  153.4138 N   0  0  0  0  0  0  0  0  0  0  0  0
  148.0820  141.1434  154.4949 C   0  0  0  0  0  0  0  0  0  0  0  0
  147.1760  141.3059  155.3137 O   0  0  0  0  0  0  0  0  0  0  0  0
  149.4382  141.8377  154.6795 C   0  0  0  0  0  0  0  0  0  0  0  0
  150.1857  141.3349  155.8396 N   0  0  0  0  0  0  0  0  0  0  0  0
  150.1139  142.0083  157.0457 C   0  0  0  0  0  0  0  0  0  0  0  0
  150.7804  141.6220  158.1554 C   0  0  0  0  0  0  0  0  0  0  0  0
  151.6324  140.4393  158.1421 C   0  0  0  0  0  0  0  0  0  0  0  0
  152.2773  140.0619  159.1213 O   0  0  0  0  0  0  0  0  0  0  0  0
  151.6746  139.7586  156.9025 N   0  0  0  0  0  0  0  0  0  0  0  0
  152.5190  138.5852  156.8123 C   0  0  0  0  0  0  0  0  0  0  0  0
  150.9897  140.1783  155.7390 C   0  0  0  0  0  0  0  0  0  0  0  0
  151.0859  139.5763  154.6666 O   0  0  0  0  0  0  0  0  0  0  0  0
  145.0797  135.1993  151.3235 C   0  0  0  0  0  0  0  0  0  0  0  0
  147.4946  133.7040  151.2549 H   0  0  0  0  0  0  0  0  0  0  0  0
  146.6763  133.5538  149.7059 H   0  0  0  0  0  0  0  0  0  0  0  0
  146.7645  132.1713  150.7876 H   0  0  0  0  0  0  0  0  0  0  0  0
  144.5184  133.1993  150.8115 H   0  0  0  0  0  0  0  0  0  0  0  0
  144.1175  133.2764  153.1567 H   0  0  0  0  0  0  0  0  0  0  0  0
  145.3970  132.1151  152.9155 H   0  0  0  0  0  0  0  0  0  0  0  0
  145.8555  133.6748  154.8346 H   0  0  0  0  0  0  0  0  0  0  0  0
  147.0956  133.7741  153.6121 H   0  0  0  0  0  0  0  0  0  0  0  0
  144.7678  135.7347  153.9835 H   0  0  0  0  0  0  0  0  0  0  0  0
  146.4624  136.0361  154.3189 H   0  0  0  0  0  0  0  0  0  0  0  0
  145.8203  137.6790  151.0563 H   0  0  0  0  0  0  0  0  0  0  0  0
  144.9606  137.7624  152.5742 H   0  0  0  0  0  0  0  0  0  0  0  0
  147.2828  137.6509  153.7425 H   0  0  0  0  0  0  0  0  0  0  0  0
  147.9550  138.0535  152.1829 H   0  0  0  0  0  0  0  0  0  0  0  0
  146.3039  140.0791  152.1589 H   0  0  0  0  0  0  0  0  0  0  0  0
  146.0346  139.7311  153.8515 H   0  0  0  0  0  0  0  0  0  0  0  0
  148.7587  140.2735  152.7983 H   0  0  0  0  0  0  0  0  0  0  0  0
  150.0194  141.6939  153.7678 H   0  0  0  0  0  0  0  0  0  0  0  0
  149.2954  142.9161  154.7715 H   0  0  0  0  0  0  0  0  0  0  0  0
  149.4986  142.8944  157.1059 H   0  0  0  0  0  0  0  0  0  0  0  0
  150.6848  142.1979  159.0644 H   0  0  0  0  0  0  0  0  0  0  0  0
  152.1442  137.9148  156.0379 H   0  0  0  0  0  0  0  0  0  0  0  0
  152.4902  138.0492  157.7621 H   0  0  0  0  0  0  0  0  0  0  0  0
  153.5255  138.9369  156.5819 H   0  0  0  0  0  0  0  0  0  0  0  0
  145.2300  135.5339  150.2977 H   0  0  0  0  0  0  0  0  0  0  0  0
  144.0424  135.4297  151.5722 H   0  0  0  0  0  0  0  0  0  0  0  0
  146.9230  135.6856  152.0123 H   0  0  0  0  0  0  0  0  0  0  0  0
  1  2  1  0  0  0  0
  1 24  1  0  0  0  0
  1 25  1  0  0  0  0
  1 26  1  0  0  0  0
  2 23  1  0  0  0  0
  2  3  1  0  0  0  0
  2 27  1  0  0  0  0
  3  4  1  0  0  0  0
  3 28  1  0  0  0  0
  3 29  1  0  0  0  0
  4  5  1  0  0  0  0
  4 30  1  0  0  0  0
  4 31  1  0  0  0  0
  5  6  1  0  0  0  0
  5 32  1  0  0  0  0
  5 33  1  0  0  0  0
  6  7  1  0  0  0  0
  6 23  1  0  0  0  0
  6 50  1  0  0  0  0
  7  8  1  0  0  0  0
  7 34  1  0  0  0  0
  7 35  1  0  0  0  0
  8  9  1  0  0  0  0
  8 36  1  0  0  0  0
  8 37  1  0  0  0  0
  9 10  1  0  0  0  0
  9 38  1  0  0  0  0
  9 39  1  0  0  0  0
 10 11  1  0  0  0  0
 10 40  1  0  0  0  0
 11 12  2  0  0  0  0
 11 13  1  0  0  0  0
 13 14  1  0  0  0  0
 13 41  1  0  0  0  0
 13 42  1  0  0  0  0
 14 21  1  0  0  0  0
 14 15  1  0  0  0  0
 15 16  2  0  0  0  0
 15 43  1  0  0  0  0
 16 17  1  0  0  0  0
 16 44  1  0  0  0  0
 17 18  2  0  0  0  0
 17 19  1  0  0  0  0
 19 20  1  0  0  0  0
 19 21  1  0  0  0  0
 20 45  1  0  0  0  0
 20 46  1  0  0  0  0
 20 47  1  0  0  0  0
 21 22  2  0  0  0  0
 23 48  1  0  0  0  0
 23 49  1  0  0  0  0
M  CHG  1   6   1
M  END
> <s_m_source_file>
AV-unprocessed.smi

> <i_m_source_file_index>
2137

> <i_lp_mmshare_version>
43012

> <i_f3d_flags>
0

> <s_epik_input>
W0NIM11bQ0BASF0xW0NIMl1bQ0gyXVtDSDJdTihbQ0gyXTEpW0NIMl1bQ0gyXVtDSDJdW05IXUMoPU8pW0NIMl1uMltjSF1bY0hdYyg9TyluKFtDSDNdKWMyPU8=

> <s_epik_cmdline>
J2VwaWtfcHl0aG9uJywgJy1waCcsICc3LjAnLCAnLXRuJywgJzgnLCAnLW1hJywgJzIwMCcsICctbWV0YWxfYmluZGluZycsICctaW1hZScsICc8aW5maWxlLm1hZT4nLCAnLW9tYWUnLCAnPG91dGZpbGUubWFlPic=

> <r_lp_tautomer_probability>
1

> <r_epik_Ionization_Penalty>
0.000384839

> <r_epik_Ionization_Penalty_Charging>
0.000384812

> <r_epik_Ionization_Penalty_Neutral>
2.6907e-08

> <r_epik_State_Penalty>
0.000235226

> <r_epik_Charging_Adjusted_Penalty>
0.000620038

> <i_epik_Tot_Q>
1

> <i_epik_Tot_abs_Q>
1

> <r_epik_Metal_State_Penalty>
-0

> <b_epik_Metal_Only>
0

> <s_lp_Force_Field>
OPLS_2005

> <r_lp_Energy>
27.4749

> <b_lp_Chiralities_Consistent>
1

> <s_lp_Variant>
AV-unprocessed.smi:2137-2

> <Gold.Version>
5.8.1

> <Gold.Id.Protein>
6NUR|6NUR_protein|mol2

> <Gold.PLP.Fitness>
48.7506

> <Gold.PLP.PLP>
-34.9536

> <Gold.PLP.part.hbond>
-3.0000

> <Gold.PLP.part.metal>
0.0000

> <Gold.PLP.part.buried>
0.3843

> <Gold.PLP.part.nonpolar>
-31.8310

> <Gold.PLP.part.repulsive>
0.2959

> <Gold.PLP.ligand.clash>
0.0000

> <Gold.PLP.ligand.torsion>
0.6176

> <Gold.PLP.Chemscore.Hbond>
3.9840

> <Gold.PLP.Chemscore.CHOScore>
1.0000

> <Gold.PLP.Chemscore.Metal>
0.0000

> <Gold.Chemscore.Hbonds>
donor molecule, donor type, donor heavy atom, donor atom, acceptor molecule, acceptor atom, score
      L1  H     6    50       P1  7948  1.76
      L1  H    10    40       P1  7957  1.00
      P1  H  7989  7998       L1    22  1.00
      L1  C    15    43       P1  8028  1.00

> <Gold.PLP.Chemscore.Internal.Correction>
0.0802

> <Gold.Rescore>
     Score         DG    S(hbond)    S(metal)    S(lipo)     H(rot)  DE(clash)    DE(int)     intcor
     15.34     -17.74       2.91        0.00      71.59       2.27       1.70       0.70       ----

> <Gold.Chemscore.Fitness>
15.3442

> <Gold.Chemscore.DG>
-17.7387

> <Gold.Chemscore.ZeroCoef>
-5.4800

> <Gold.Chemscore.Hbond>
2.9059

> <Gold.Chemscore.Metal>
0.0000

> <Gold.Chemscore.Lipo>
71.5917

> <Gold.Chemscore.Internal_Hbond>
0.0000

> <Gold.Chemscore.DEClash>
1.6957

> <Gold.Chemscore.DEInternal>
0.6987

> <Gold.Chemscore.Rot>
2.2748

> <Gold.Chemscore.Internal.Correction>
   9.000000E+99

> <Gold.Chemscore.Hbonds>
donor molecule, donor type, donor heavy atom, donor atom, acceptor molecule, acceptor atom, score
      L1  H     6    50       P1  7948  0.81
      L1  H    10    40       P1  7957  0.98
      P1  H  7989  7998       L1    22  0.45

> <Gold.Chemscore.Hbond.Weighted>
-9.7058

> <Gold.Chemscore.Metal.Weighted>
-0.0000

> <Gold.Chemscore.Lipo.Weighted>
-8.3762

> <Gold.Chemscore.Internal_Hbond.Weighted>
0.0000

> <Gold.Chemscore.DEClash.Weighted>
1.6957

> <Gold.Chemscore.DEInternal.Weighted>
0.6987

> <Gold.Chemscore.Rot.Weighted>
5.8234

> <Gold.Chemscore.Internal.Correction.Weighted>
   9.000000E+99

> <Gold.Protein.RotatedTorsions>
[ 6907 6896 6895 6894 ] final  -35.49 input  -60.11 | X-H torsion
[ 7974 7965 7964 7962 ] final -104.49 input  175.53 | X-H torsion
[ 8008 7997 7996 7995 ] final  -51.00 input   59.86 | X-H torsion
[ 10167 10162 10161 10158 ] final -135.00 input  -65.29 | X-H torsion
[ 10718 10713 10712 10709 ] final -136.81 input   66.30 | X-H torsion
[ 10763 10752 10751 10750 ] final  -45.16 input  -60.55 | X-H torsion
[ 11005 11000 10999 10996 ] final   52.09 input  -57.11 | X-H torsion

> <Gold.Protein.ActiveResidues>
 VAL166  LYS551  ARG553  GLY616  TRP617  ASP618  TYR619  PRO620  LYS621  CYS622 
 ASP623  PHE694  ASN695  SER759  ASP760  ASP761  ALA762  ILE779  LEU786  VAL792 
 PHE793  MET794  SER795  GLU796  ALA797  LYS798  CYS799  TRP800  GLU811  SER814 

> <Gold.Protein.RotatedAtoms>
  151.0391  134.9594  159.8151 H   0  0  0  0  0  0  0  0  0  0  0  0  # atno 6907 bound_to 6896
  152.5360  134.2681  159.8971 H   0  0  0  0  0  0  0  0  0  0  0  0  # atno 6908 bound_to 6896
  151.2693  133.4220  159.2654 H   0  0  0  0  0  0  0  0  0  0  0  0  # atno 6909 bound_to 6896
  145.2425  140.9210  143.3142 H   0  0  0  0  0  0  0  0  0  0  0  0  # atno 7974 bound_to 7965
  154.4073  140.1258  156.4758 H   0  0  0  0  0  0  0  0  0  0  0  0  # atno 8008 bound_to 7997
  155.7134  140.3493  155.4964 H   0  0  0  0  0  0  0  0  0  0  0  0  # atno 8009 bound_to 7997
  155.9280  140.1064  157.1145 H   0  0  0  0  0  0  0  0  0  0  0  0  # atno 8010 bound_to 7997
  139.8823  143.6824  152.2625 H   0  0  0  0  0  0  0  0  0  0  0  0  # atno 10167 bound_to 10162
  156.2812  130.7321  151.1319 H   0  0  0  0  0  0  0  0  0  0  0  0  # atno 10718 bound_to 10713
  154.0240  135.6665  153.4775 H   0  0  0  0  0  0  0  0  0  0  0  0  # atno 10763 bound_to 10752
  153.0568  135.5051  154.7996 H   0  0  0  0  0  0  0  0  0  0  0  0  # atno 10764 bound_to 10752
  154.6919  135.3063  154.9431 H   0  0  0  0  0  0  0  0  0  0  0  0  # atno 10765 bound_to 10752
  140.0878  134.5250  155.8882 H   0  0  0  0  0  0  0  0  0  0  0  0  # atno 11005 bound_to 11000
  144.9576  139.4014  143.6371 LP  0  0  0  0  0  0  0  0  0  0  0  0  # atno 17320 bound_to 7965
  146.3325  139.8614  142.8855 LP  0  0  0  0  0  0  0  0  0  0  0  0  # atno 17321 bound_to 7965
  139.7185  144.7607  151.0994 LP  0  0  0  0  0  0  0  0  0  0  0  0  # atno 17342 bound_to 10162
  140.7742  143.5238  150.9504 LP  0  0  0  0  0  0  0  0  0  0  0  0  # atno 17343 bound_to 10162
  157.7315  131.0608  150.5676 LP  0  0  0  0  0  0  0  0  0  0  0  0  # atno 17370 bound_to 10713
  156.5782  130.4297  149.5989 LP  0  0  0  0  0  0  0  0  0  0  0  0  # atno 17371 bound_to 10713
  141.2068  133.6658  156.6266 LP  0  0  0  0  0  0  0  0  0  0  0  0  # atno 17394 bound_to 11000
  140.3395  134.7861  157.4387 LP  0  0  0  0  0  0  0  0  0  0  0  0  # atno 17395 bound_to 11000

$$$$
