AV-unprocessed.smi:2865|AV-procd|sdf|11015|dock4
  -GOLD-   2272015473D 1   1.00000     0.00000
 Structure written by MMmdl.
 38 41  0  0  0  0  0  0  0  0  1 V2000
  147.6376  141.8657  159.3248 O   0  0  0  0  0  0  0  0  0  0  0  0
  147.8360  142.8272  158.5859 C   0  0  0  0  0  0  0  0  0  0  0  0
  148.6932  142.8344  157.5464 N   0  0  0  0  0  0  0  0  0  0  0  0
  149.4804  141.7691  157.0327 C   0  0  0  0  0  0  0  0  0  0  0  0
  150.3227  141.8462  155.8958 C   0  0  0  0  0  0  0  0  0  0  0  0
  151.0554  140.7891  155.4832 N   0  0  0  0  0  0  0  0  0  0  0  0
  150.9471  139.6617  156.1914 C   0  0  0  0  0  0  0  0  0  0  0  0
  151.7929  138.5069  155.7512 C   0  0  0  0  0  0  0  0  0  0  0  0
  152.8418  138.6803  154.6718 C   0  0  0  0  0  0  0  0  0  0  0  0
  151.6014  137.8813  154.3845 C   0  0  0  0  0  0  0  0  0  0  0  0
  150.2057  139.4789  157.2874 N   0  0  0  0  0  0  0  0  0  0  0  0
  149.4702  140.5305  157.7074 C   0  0  0  0  0  0  0  0  0  0  0  0
  147.2086  143.9993  158.7877 N   0  0  0  0  0  0  0  0  0  0  0  0
  146.2247  144.3294  159.8202 C   0  0  2  0  0  0  0  0  0  0  0  0
  146.7989  144.2467  161.2408 C   0  0  0  0  0  0  0  0  0  0  0  0
  145.8816  143.2035  161.8925 C   0  0  1  0  0  0  0  0  0  0  0  0
  144.4573  143.7369  162.1060 C   0  0  0  0  0  0  0  0  0  0  0  0
  143.9089  143.7536  160.6789 C   0  0  0  0  0  0  0  0  0  0  0  0
  145.1201  143.2601  159.8766 C   0  0  2  0  0  0  0  0  0  0  0  0
  145.6722  142.3323  160.7961 O   0  0  0  0  0  0  0  0  0  0  0  0
  148.8102  143.7218  157.0796 H   0  0  0  0  0  0  0  0  0  0  0  0
  150.4426  142.7462  155.3140 H   0  0  0  0  0  0  0  0  0  0  0  0
  152.0265  137.8469  156.5845 H   0  0  0  0  0  0  0  0  0  0  0  0
  152.9286  139.6568  154.1990 H   0  0  0  0  0  0  0  0  0  0  0  0
  153.7758  138.1345  154.7895 H   0  0  0  0  0  0  0  0  0  0  0  0
  151.7049  136.8009  154.3091 H   0  0  0  0  0  0  0  0  0  0  0  0
  150.8631  138.3266  153.7203 H   0  0  0  0  0  0  0  0  0  0  0  0
  148.8698  140.3804  158.5927 H   0  0  0  0  0  0  0  0  0  0  0  0
  147.4603  144.7566  158.1688 H   0  0  0  0  0  0  0  0  0  0  0  0
  145.7866  145.3080  159.6155 H   0  0  0  0  0  0  0  0  0  0  0  0
  147.8308  143.8918  161.2373 H   0  0  0  0  0  0  0  0  0  0  0  0
  146.7740  145.2044  161.7617 H   0  0  0  0  0  0  0  0  0  0  0  0
  146.3124  142.7242  162.7719 H   0  0  0  0  0  0  0  0  0  0  0  0
  143.8761  143.0567  162.7295 H   0  0  0  0  0  0  0  0  0  0  0  0
  144.4502  144.7214  162.5747 H   0  0  0  0  0  0  0  0  0  0  0  0
  143.0727  143.0601  160.5824 H   0  0  0  0  0  0  0  0  0  0  0  0
  143.5714  144.7416  160.3640 H   0  0  0  0  0  0  0  0  0  0  0  0
  144.8554  142.8327  158.9087 H   0  0  0  0  0  0  0  0  0  0  0  0
  1  2  2  0  0  0  0
  2  3  1  0  0  0  0
  2 13  1  0  0  0  0
  3  4  1  0  0  0  0
  3 21  1  0  0  0  0
  4 12  1  0  0  0  0
  4  5  2  0  0  0  0
  5  6  1  0  0  0  0
  5 22  1  0  0  0  0
  6  7  2  0  0  0  0
  7  8  1  0  0  0  0
  7 11  1  0  0  0  0
  8 10  1  0  0  0  0
  8  9  1  0  0  0  0
  8 23  1  0  0  0  0
  9 10  1  0  0  0  0
  9 24  1  0  0  0  0
  9 25  1  0  0  0  0
 10 26  1  0  0  0  0
 10 27  1  0  0  0  0
 11 12  2  0  0  0  0
 12 28  1  0  0  0  0
 13 14  1  0  0  0  0
 13 29  1  0  0  0  0
 14 19  1  0  0  0  0
 14 15  1  0  0  0  0
 14 30  1  0  0  0  0
 15 16  1  0  0  0  0
 15 31  1  0  0  0  0
 15 32  1  0  0  0  0
 16 20  1  0  0  0  0
 16 17  1  0  0  0  0
 16 33  1  0  0  0  0
 17 18  1  0  0  0  0
 17 34  1  0  0  0  0
 17 35  1  0  0  0  0
 18 19  1  0  0  0  0
 18 36  1  0  0  0  0
 18 37  1  0  0  0  0
 19 20  1  0  0  0  0
 19 38  1  0  0  0  0
M  END
> <s_m_source_file>
AV-unprocessed.smi

> <i_m_source_file_index>
2865

> <i_lp_mmshare_version>
43012

> <i_f3d_flags>
0

> <s_epik_input>
W0NIMl0xW0NIMl1bQ0BIXShPMilbQ0BASF0oW0NIMl1bQ0BASF0xMilbTkhdQyg9TylbTkhdYzNbY0hdbmMobltjSF0zKVtDSF00W0NIMl1bQ0gyXTQ=

> <s_epik_cmdline>
J2VwaWtfcHl0aG9uJywgJy1waCcsICc3LjAnLCAnLXRuJywgJzgnLCAnLW1hJywgJzIwMCcsICctbWV0YWxfYmluZGluZycsICctaW1hZScsICc8aW5maWxlLm1hZT4nLCAnLW9tYWUnLCAnPG91dGZpbGUubWFlPic=

> <r_lp_tautomer_probability>
1

> <r_epik_Ionization_Penalty>
2.43104e-05

> <r_epik_Ionization_Penalty_Charging>
0

> <r_epik_Ionization_Penalty_Neutral>
2.43104e-05

> <r_epik_State_Penalty>
-0

> <r_epik_Charging_Adjusted_Penalty>
0

> <i_epik_Tot_Q>
0

> <i_epik_Tot_abs_Q>
0

> <r_epik_Metal_State_Penalty>
-0

> <b_epik_Metal_Only>
0

> <s_lp_Force_Field>
OPLS_2005

> <r_lp_Energy>
45.9934

> <b_lp_Chiralities_Consistent>
1

> <s_lp_Variant>
AV-unprocessed.smi:2865-1

> <Gold.Version>
5.8.1

> <Gold.Id.Protein>
6NUR|6NUR_protein|mol2

> <Gold.PLP.Fitness>
46.0561

> <Gold.PLP.PLP>
-32.5094

> <Gold.PLP.part.hbond>
-6.1941

> <Gold.PLP.part.metal>
0.0000

> <Gold.PLP.part.buried>
-2.7432

> <Gold.PLP.part.nonpolar>
-24.8600

> <Gold.PLP.part.repulsive>
0.1813

> <Gold.PLP.ligand.clash>
0.0389

> <Gold.PLP.ligand.torsion>
0.1465

> <Gold.PLP.Chemscore.Hbond>
3.7531

> <Gold.PLP.Chemscore.CHOScore>
0.8243

> <Gold.PLP.Chemscore.Metal>
0.0000

> <Gold.Chemscore.Hbonds>
donor molecule, donor type, donor heavy atom, donor atom, acceptor molecule, acceptor atom, score
      L1  H     3    21       P1  8028  0.95
      L1  H    13    29       P1  8029  1.00
      P1  H  6933  6944       L1     1  0.06
      P1  H  6934  6946       L1    20  1.00
      P1  H  7989  7998       L1     6  0.73
      L1  C     5    22       P1  8028  0.82

> <Gold.PLP.Chemscore.Internal.Correction>
0.1462

> <Gold.Rescore>
     Score         DG    S(hbond)    S(metal)    S(lipo)     H(rot)  DE(clash)    DE(int)     intcor
     15.07     -21.14       3.00        0.00      74.56       1.20       1.44       4.63       ----

> <Gold.Chemscore.Fitness>
15.0673

> <Gold.Chemscore.DG>
-21.1353

> <Gold.Chemscore.ZeroCoef>
-5.4800

> <Gold.Chemscore.Hbond>
2.9961

> <Gold.Chemscore.Metal>
0.0000

> <Gold.Chemscore.Lipo>
74.5589

> <Gold.Chemscore.Internal_Hbond>
0.0000

> <Gold.Chemscore.DEClash>
1.4406

> <Gold.Chemscore.DEInternal>
4.6274

> <Gold.Chemscore.Rot>
1.2012

> <Gold.Chemscore.Internal.Correction>
   9.000000E+99

> <Gold.Chemscore.Hbonds>
donor molecule, donor type, donor heavy atom, donor atom, acceptor molecule, acceptor atom, score
      L1  H     3    21       P1  8028  0.21
      L1  H    13    29       P1  8029  0.82
      P1  H  6933  6944       L1     1  0.05
      P1  H  6934  6946       L1    20  0.87
      P1  H  7989  7998       L1     6  0.61

> <Gold.Chemscore.Hbond.Weighted>
-10.0070

> <Gold.Chemscore.Metal.Weighted>
-0.0000

> <Gold.Chemscore.Lipo.Weighted>
-8.7234

> <Gold.Chemscore.Internal_Hbond.Weighted>
0.0000

> <Gold.Chemscore.DEClash.Weighted>
1.4406

> <Gold.Chemscore.DEInternal.Weighted>
4.6274

> <Gold.Chemscore.Rot.Weighted>
3.0752

> <Gold.Chemscore.Internal.Correction.Weighted>
   9.000000E+99

> <Gold.Protein.RotatedTorsions>
[ 6907 6896 6895 6894 ] final   87.92 input  -60.11 | X-H torsion
[ 7974 7965 7964 7962 ] final    6.21 input  175.53 | X-H torsion
[ 8008 7997 7996 7995 ] final -139.40 input   59.86 | X-H torsion
[ 10167 10162 10161 10158 ] final   42.84 input  -65.29 | X-H torsion
[ 10718 10713 10712 10709 ] final  -27.26 input   66.30 | X-H torsion
[ 10763 10752 10751 10750 ] final   46.67 input  -60.55 | X-H torsion
[ 11005 11000 10999 10996 ] final  127.64 input  -57.11 | X-H torsion

> <Gold.Protein.ActiveResidues>
 VAL166  LYS551  ARG553  GLY616  TRP617  ASP618  TYR619  PRO620  LYS621  CYS622 
 ASP623  PHE694  ASN695  SER759  ASP760  ASP761  ALA762  ILE779  LEU786  VAL792 
 PHE793  MET794  SER795  GLU796  ALA797  LYS798  CYS799  TRP800  GLU811  SER814 

> <Gold.Protein.RotatedAtoms>
  152.5418  134.2202  159.8784 H   0  0  0  0  0  0  0  0  0  0  0  0  # atno 6907 bound_to 6896
  151.2180  133.4512  159.2607 H   0  0  0  0  0  0  0  0  0  0  0  0  # atno 6908 bound_to 6896
  151.0833  134.9884  159.8422 H   0  0  0  0  0  0  0  0  0  0  0  0  # atno 6909 bound_to 6896
  146.2436  140.0267  142.8393 H   0  0  0  0  0  0  0  0  0  0  0  0  # atno 7974 bound_to 7965
  155.4442  140.0534  157.3007 H   0  0  0  0  0  0  0  0  0  0  0  0  # atno 8008 bound_to 7997
  154.4805  140.2079  155.9732 H   0  0  0  0  0  0  0  0  0  0  0  0  # atno 8009 bound_to 7997
  156.1198  140.3190  155.8196 H   0  0  0  0  0  0  0  0  0  0  0  0  # atno 8010 bound_to 7997
  140.3503  144.2358  150.6146 H   0  0  0  0  0  0  0  0  0  0  0  0  # atno 10167 bound_to 10162
  156.4405  130.4463  149.7056 H   0  0  0  0  0  0  0  0  0  0  0  0  # atno 10718 bound_to 10713
  152.9808  135.6000  154.3638 H   0  0  0  0  0  0  0  0  0  0  0  0  # atno 10763 bound_to 10752
  154.3317  135.2768  155.2470 H   0  0  0  0  0  0  0  0  0  0  0  0  # atno 10764 bound_to 10752
  154.4591  135.5970  153.6299 H   0  0  0  0  0  0  0  0  0  0  0  0  # atno 10765 bound_to 10752
  139.9518  134.9620  156.8885 H   0  0  0  0  0  0  0  0  0  0  0  0  # atno 11005 bound_to 11000
  145.1192  140.9452  143.4610 LP  0  0  0  0  0  0  0  0  0  0  0  0  # atno 17320 bound_to 7965
  145.0498  139.3191  143.5934 LP  0  0  0  0  0  0  0  0  0  0  0  0  # atno 17321 bound_to 7965
  140.5225  143.2262  151.8366 LP  0  0  0  0  0  0  0  0  0  0  0  0  # atno 17342 bound_to 10162
  139.4827  144.4819  151.9295 LP  0  0  0  0  0  0  0  0  0  0  0  0  # atno 17343 bound_to 10162
  156.3923  130.7633  151.2635 LP  0  0  0  0  0  0  0  0  0  0  0  0  # atno 17370 bound_to 10713
  157.7506  131.0264  150.3961 LP  0  0  0  0  0  0  0  0  0  0  0  0  # atno 17371 bound_to 10713
  140.5701  134.0451  155.7427 LP  0  0  0  0  0  0  0  0  0  0  0  0  # atno 17394 bound_to 11000
  141.1182  133.9504  157.2781 LP  0  0  0  0  0  0  0  0  0  0  0  0  # atno 17395 bound_to 11000

$$$$
