AV-unprocessed.smi:1047|AV-procd|sdf|4562|dock10
  -GOLD-   22720 3 03D 1   1.00000     0.00000
 Structure written by MMmdl.
 57 59  0  0  0  0  0  0  0  0  3 V2000
  147.0068  133.5450  151.6715 C   0  0  0  0  0  0  0  0  0  0  0  0
  148.1755  132.8679  152.4006 C   0  0  0  0  0  0  0  0  0  0  0  0
  148.0234  132.9157  153.8790 N   0  3  1  0  0  0  0  0  0  0  0  0
  148.8710  131.9494  154.6226 C   0  0  0  0  0  0  0  0  0  0  0  0
  150.3278  132.4394  154.7241 C   0  0  0  0  0  0  0  0  0  0  0  0
  150.3588  133.7394  155.3018 O   0  0  0  0  0  0  0  0  0  0  0  0
  149.6536  134.7037  154.5261 C   0  0  2  0  0  0  0  0  0  0  0  0
  149.8154  136.0697  155.2106 C   0  0  0  0  0  0  0  0  0  0  0  0
  149.3115  137.1662  154.3589 N   0  3  0  0  0  0  0  0  0  0  0  0
  150.1644  138.3722  154.3673 C   0  0  0  0  0  0  0  0  0  0  0  0
  149.3774  139.6159  154.8121 C   0  0  2  0  0  0  0  0  0  0  0  0
  148.4362  139.9398  153.8063 O   0  0  0  0  0  0  0  0  0  0  0  0
  150.3044  140.8236  155.0522 C   0  0  0  0  0  0  0  0  0  0  0  0
  151.2193  140.6117  156.1595 N   0  0  0  0  0  0  0  0  0  0  0  0
  152.0949  139.5987  156.3097 C   0  0  0  0  0  0  0  0  0  0  0  0
  152.8456  139.6010  157.4070 N   0  0  0  0  0  0  0  0  0  0  0  0
  152.3999  140.7441  158.0479 C   0  0  0  0  0  0  0  0  0  0  0  0
  152.7930  141.3186  159.2762 C   0  0  0  0  0  0  0  0  0  0  0  0
  152.1899  142.5070  159.7461 C   0  0  0  0  0  0  0  0  0  0  0  0
  152.6419  143.0887  161.0742 C   0  0  0  0  0  0  0  0  0  0  0  0
  151.1758  143.1393  158.9829 C   0  0  0  0  0  0  0  0  0  0  0  0
  150.5081  144.4118  159.4732 C   0  0  0  0  0  0  0  0  0  0  0  0
  150.7744  142.5813  157.7509 C   0  0  0  0  0  0  0  0  0  0  0  0
  151.3813  141.3980  157.2947 C   0  0  0  0  0  0  0  0  0  0  0  0
  148.1709  134.2781  154.4486 C   0  0  0  0  0  0  0  0  0  0  0  0
  147.1918  133.5752  150.5975 H   0  0  0  0  0  0  0  0  0  0  0  0
  146.8727  134.5723  152.0111 H   0  0  0  0  0  0  0  0  0  0  0  0
  146.0668  133.0149  151.8213 H   0  0  0  0  0  0  0  0  0  0  0  0
  148.2977  131.8420  152.0532 H   0  0  0  0  0  0  0  0  0  0  0  0
  149.0875  133.3962  152.1198 H   0  0  0  0  0  0  0  0  0  0  0  0
  148.4603  131.8441  155.6277 H   0  0  0  0  0  0  0  0  0  0  0  0
  148.8286  130.9573  154.1746 H   0  0  0  0  0  0  0  0  0  0  0  0
  150.9040  131.7628  155.3556 H   0  0  0  0  0  0  0  0  0  0  0  0
  150.8161  132.4484  153.7491 H   0  0  0  0  0  0  0  0  0  0  0  0
  150.0795  134.7546  153.5222 H   0  0  0  0  0  0  0  0  0  0  0  0
  149.2631  136.0823  156.1511 H   0  0  0  0  0  0  0  0  0  0  0  0
  150.8648  136.2444  155.4526 H   0  0  0  0  0  0  0  0  0  0  0  0
  149.2577  136.8334  153.4061 H   0  0  0  0  0  0  0  0  0  0  0  0
  150.9993  138.2009  155.0484 H   0  0  0  0  0  0  0  0  0  0  0  0
  150.5889  138.5287  153.3741 H   0  0  0  0  0  0  0  0  0  0  0  0
  148.8339  139.3943  155.7318 H   0  0  0  0  0  0  0  0  0  0  0  0
  148.8870  139.9810  152.9758 H   0  0  0  0  0  0  0  0  0  0  0  0
  150.8947  141.0307  154.1587 H   0  0  0  0  0  0  0  0  0  0  0  0
  149.7182  141.7221  155.2522 H   0  0  0  0  0  0  0  0  0  0  0  0
  152.1900  138.8185  155.5686 H   0  0  0  0  0  0  0  0  0  0  0  0
  153.5636  140.8348  159.8583 H   0  0  0  0  0  0  0  0  0  0  0  0
  151.8198  143.0886  161.7904 H   0  0  0  0  0  0  0  0  0  0  0  0
  152.9907  144.1135  160.9458 H   0  0  0  0  0  0  0  0  0  0  0  0
  153.4604  142.5107  161.5039 H   0  0  0  0  0  0  0  0  0  0  0  0
  149.7333  144.7466  158.7829 H   0  0  0  0  0  0  0  0  0  0  0  0
  151.2394  145.2143  159.5713 H   0  0  0  0  0  0  0  0  0  0  0  0
  150.0410  144.2478  160.4448 H   0  0  0  0  0  0  0  0  0  0  0  0
  150.0036  143.0531  157.1595 H   0  0  0  0  0  0  0  0  0  0  0  0
  147.5875  134.9969  153.8718 H   0  0  0  0  0  0  0  0  0  0  0  0
  147.7412  134.2741  155.4514 H   0  0  0  0  0  0  0  0  0  0  0  0
  148.3833  137.4224  154.6639 H   0  0  0  0  0  0  0  0  0  0  0  0
  147.0642  132.6485  154.0509 H   0  0  0  0  0  0  0  0  0  0  0  0
  1  2  1  0  0  0  0
  1 26  1  0  0  0  0
  1 27  1  0  0  0  0
  1 28  1  0  0  0  0
  2  3  1  0  0  0  0
  2 29  1  0  0  0  0
  2 30  1  0  0  0  0
  3 25  1  0  0  0  0
  3  4  1  0  0  0  0
  3 57  1  0  0  0  0
  4  5  1  0  0  0  0
  4 31  1  0  0  0  0
  4 32  1  0  0  0  0
  5  6  1  0  0  0  0
  5 33  1  0  0  0  0
  5 34  1  0  0  0  0
  6  7  1  0  0  0  0
  7  8  1  0  0  0  0
  7 25  1  0  0  0  0
  7 35  1  0  0  0  0
  8  9  1  0  0  0  0
  8 36  1  0  0  0  0
  8 37  1  0  0  0  0
  9 10  1  0  0  0  0
  9 38  1  0  0  0  0
  9 56  1  0  0  0  0
 10 11  1  0  0  0  0
 10 39  1  0  0  0  0
 10 40  1  0  0  0  0
 11 12  1  0  0  0  0
 11 13  1  0  0  0  0
 11 41  1  0  0  0  0
 12 42  1  0  0  0  0
 13 14  1  0  0  0  0
 13 43  1  0  0  0  0
 13 44  1  0  0  0  0
 14 24  1  0  0  0  0
 14 15  1  0  0  0  0
 15 16  2  0  0  0  0
 15 45  1  0  0  0  0
 16 17  1  0  0  0  0
 17 24  2  0  0  0  0
 17 18  1  0  0  0  0
 18 19  2  0  0  0  0
 18 46  1  0  0  0  0
 19 20  1  0  0  0  0
 19 21  1  0  0  0  0
 20 47  1  0  0  0  0
 20 48  1  0  0  0  0
 20 49  1  0  0  0  0
 21 22  1  0  0  0  0
 21 23  2  0  0  0  0
 22 50  1  0  0  0  0
 22 51  1  0  0  0  0
 22 52  1  0  0  0  0
 23 24  1  0  0  0  0
 23 53  1  0  0  0  0
 25 54  1  0  0  0  0
 25 55  1  0  0  0  0
M  CHG  1   3   1
M  CHG  1   9   1
M  END
> <s_m_source_file>
AV-unprocessed.smi

> <i_m_source_file_index>
1047

> <i_lp_mmshare_version>
43012

> <i_f3d_flags>
0

> <s_epik_input>
W0NIM11bQ0gyXU4xW0NIMl1bQ0gyXU9bQ0BIXShbQ0gyXTEpW0NIMl1bTkhdW0NIMl1bQ0BIXShbT0hdKVtDSDJdbihbY0hdbjIpYyhjMjMpW2NIXWMoW0NIM10pYyhbY0hdMylbQ0gzXQ==

> <s_epik_cmdline>
J2VwaWtfcHl0aG9uJywgJy1waCcsICc3LjAnLCAnLXRuJywgJzgnLCAnLW1hJywgJzIwMCcsICctbWV0YWxfYmluZGluZycsICctaW1hZScsICc8aW5maWxlLm1hZT4nLCAnLW9tYWUnLCAnPG91dGZpbGUubWFlPic=

> <r_epik_Ionization_Penalty>
0.528991

> <r_epik_Ionization_Penalty_Charging>
0.438567

> <r_epik_Ionization_Penalty_Neutral>
0.0904237

> <r_epik_State_Penalty>
0.533036

> <r_epik_Charging_Adjusted_Penalty>
0.971603

> <i_epik_Tot_Q>
2

> <i_epik_Tot_abs_Q>
2

> <r_epik_Metal_State_Penalty>
0.448985

> <b_epik_Metal_Only>
0

> <s_lp_Force_Field>
OPLS_2005

> <r_lp_Energy>
30.7538

> <b_lp_Chiralities_Consistent>
1

> <s_lp_Variant>
AV-unprocessed.smi:1047-3

> <Gold.Version>
5.8.1

> <Gold.Id.Protein>
6NUR|6NUR_protein|mol2

> <Gold.PLP.Fitness>
57.6203

> <Gold.PLP.PLP>
-47.2288

> <Gold.PLP.part.hbond>
-3.0000

> <Gold.PLP.part.metal>
0.0000

> <Gold.PLP.part.buried>
-3.0920

> <Gold.PLP.part.nonpolar>
-40.4856

> <Gold.PLP.part.repulsive>
0.0379

> <Gold.PLP.ligand.clash>
0.0000

> <Gold.PLP.ligand.torsion>
0.8838

> <Gold.PLP.Chemscore.Hbond>
4.0000

> <Gold.PLP.Chemscore.CHOScore>
0.0000

> <Gold.PLP.Chemscore.Metal>
0.0000

> <Gold.Chemscore.Hbonds>
donor molecule, donor type, donor heavy atom, donor atom, acceptor molecule, acceptor atom, score
      L1  H     9    38       P1  7948  2.00
      L1  H    12    42       P1  7957  1.00
      P1  H  7997  8009       L1    16  1.00

> <Gold.PLP.Chemscore.Internal.Correction>
0.1589

> <Gold.Rescore>
     Score         DG    S(hbond)    S(metal)    S(lipo)     H(rot)  DE(clash)    DE(int)     intcor
     18.93     -21.75       2.59        0.00     124.09       2.70       1.14       1.68       ----

> <Gold.Chemscore.Fitness>
18.9294

> <Gold.Chemscore.DG>
-21.7495

> <Gold.Chemscore.ZeroCoef>
-5.4800

> <Gold.Chemscore.Hbond>
2.5925

> <Gold.Chemscore.Metal>
0.0000

> <Gold.Chemscore.Lipo>
124.0913

> <Gold.Chemscore.Internal_Hbond>
0.0000

> <Gold.Chemscore.DEClash>
1.1385

> <Gold.Chemscore.DEInternal>
1.6816

> <Gold.Chemscore.Rot>
2.6985

> <Gold.Chemscore.Internal.Correction>
   9.000000E+99

> <Gold.Chemscore.Hbonds>
donor molecule, donor type, donor heavy atom, donor atom, acceptor molecule, acceptor atom, score
      L1  H     9    38       P1  7948  0.97
      L1  H    12    42       P1  7957  0.99
      P1  H  7997  8009       L1    16  0.24

> <Gold.Chemscore.Hbond.Weighted>
-8.6590

> <Gold.Chemscore.Metal.Weighted>
-0.0000

> <Gold.Chemscore.Lipo.Weighted>
-14.5187

> <Gold.Chemscore.Internal_Hbond.Weighted>
0.0000

> <Gold.Chemscore.DEClash.Weighted>
1.1385

> <Gold.Chemscore.DEInternal.Weighted>
1.6816

> <Gold.Chemscore.Rot.Weighted>
6.9081

> <Gold.Chemscore.Internal.Correction.Weighted>
   9.000000E+99

> <Gold.Protein.RotatedTorsions>
[ 6907 6896 6895 6894 ] final  -16.74 input  -60.11 | X-H torsion
[ 7974 7965 7964 7962 ] final -143.41 input  175.53 | X-H torsion
[ 8008 7997 7996 7995 ] final  161.31 input   59.86 | X-H torsion
[ 10167 10162 10161 10158 ] final   96.65 input  -65.29 | X-H torsion
[ 10718 10713 10712 10709 ] final   56.13 input   66.30 | X-H torsion
[ 10763 10752 10751 10750 ] final  -63.44 input  -60.55 | X-H torsion
[ 11005 11000 10999 10996 ] final  137.16 input  -57.11 | X-H torsion

> <Gold.Protein.ActiveResidues>
 VAL166  LYS551  ARG553  GLY616  TRP617  ASP618  TYR619  PRO620  LYS621  CYS622 
 ASP623  PHE694  ASN695  SER759  ASP760  ASP761  ALA762  ILE779  LEU786  VAL792 
 PHE793  MET794  SER795  GLU796  ALA797  LYS798  CYS799  TRP800  GLU811  SER814 

> <Gold.Protein.RotatedAtoms>
  151.3040  135.0776  159.9248 H   0  0  0  0  0  0  0  0  0  0  0  0  # atno 6907 bound_to 6896
  152.5292  133.9804  159.7814 H   0  0  0  0  0  0  0  0  0  0  0  0  # atno 6908 bound_to 6896
  151.0096  133.5926  159.2715 H   0  0  0  0  0  0  0  0  0  0  0  0  # atno 6909 bound_to 6896
  144.8372  140.5838  143.5476 H   0  0  0  0  0  0  0  0  0  0  0  0  # atno 7974 bound_to 7965
  156.2112  140.1781  156.7691 H   0  0  0  0  0  0  0  0  0  0  0  0  # atno 8008 bound_to 7997
  154.5725  140.0680  156.9015 H   0  0  0  0  0  0  0  0  0  0  0  0  # atno 8009 bound_to 7997
  155.2647  140.3338  155.4272 H   0  0  0  0  0  0  0  0  0  0  0  0  # atno 8010 bound_to 7997
  139.7874  144.6865  150.9939 H   0  0  0  0  0  0  0  0  0  0  0  0  # atno 10167 bound_to 10162
  157.5405  130.8694  149.8815 H   0  0  0  0  0  0  0  0  0  0  0  0  # atno 10718 bound_to 10713
  154.3150  135.6208  153.5482 H   0  0  0  0  0  0  0  0  0  0  0  0  # atno 10763 bound_to 10752
  152.9825  135.5710  154.5134 H   0  0  0  0  0  0  0  0  0  0  0  0  # atno 10764 bound_to 10752
  154.4791  135.2862  155.1561 H   0  0  0  0  0  0  0  0  0  0  0  0  # atno 10765 bound_to 10752
  140.0095  134.9445  157.0247 H   0  0  0  0  0  0  0  0  0  0  0  0  # atno 11005 bound_to 11000
  145.4771  139.1498  143.3782 LP  0  0  0  0  0  0  0  0  0  0  0  0  # atno 17320 bound_to 7965
  146.2669  140.4906  142.8830 LP  0  0  0  0  0  0  0  0  0  0  0  0  # atno 17321 bound_to 7965
  140.7820  143.4417  151.0541 LP  0  0  0  0  0  0  0  0  0  0  0  0  # atno 17342 bound_to 10162
  139.8095  143.7970  152.3170 LP  0  0  0  0  0  0  0  0  0  0  0  0  # atno 17343 bound_to 10162
  156.0493  130.3721  150.1241 LP  0  0  0  0  0  0  0  0  0  0  0  0  # atno 17370 bound_to 10713
  156.9421  130.9747  151.3514 LP  0  0  0  0  0  0  0  0  0  0  0  0  # atno 17371 bound_to 10713
  140.4580  134.1514  155.7188 LP  0  0  0  0  0  0  0  0  0  0  0  0  # atno 17394 bound_to 11000
  141.1701  133.8626  157.1597 LP  0  0  0  0  0  0  0  0  0  0  0  0  # atno 17395 bound_to 11000

$$$$
