AV-unprocessed.smi:3151|AV-procd|sdf|12016|dock5
  -GOLD-   2272017423D 1   1.00000     0.00000
 Structure written by MMmdl.
 35 36  0  0  0  0  0  0  0  0  1 V2000
  151.2898  141.6212  157.9495 O   0  0  0  0  0  0  0  0  0  0  0  0
  150.9649  142.5070  157.1583 C   0  0  0  0  0  0  0  0  0  0  0  0
  151.8092  143.7794  157.0307 C   0  0  0  0  0  0  0  0  0  0  0  0
  151.9660  144.5475  158.3599 C   0  0  0  0  0  0  0  0  0  0  0  0
  152.1126  143.6600  159.6019 C   0  0  0  0  0  0  0  0  0  0  0  0
  151.7207  144.5528  160.7856 C   0  0  0  0  0  0  0  0  0  0  0  0
  150.8928  145.7078  160.2021 C   0  0  0  0  0  0  0  0  0  0  0  0
  150.7590  145.4231  158.7030 C   0  0  0  0  0  0  0  0  0  0  0  0
  149.8839  142.4254  156.3676 N   0  0  0  0  0  0  0  0  0  0  0  0
  148.9513  141.3048  156.3409 C   0  0  0  0  0  0  0  0  0  0  0  0
  149.0414  140.5253  155.0187 C   0  0  0  0  0  0  0  0  0  0  0  0
  150.1908  139.6438  155.0017 N   0  0  0  0  0  0  0  0  0  0  0  0
  150.4241  138.5855  154.1334 C   0  0  0  0  0  0  0  0  0  0  0  0
  151.6337  138.0384  154.4976 C   0  0  0  0  0  0  0  0  0  0  0  0
  152.1582  138.7393  155.5815 N   0  0  0  0  0  0  0  0  0  0  0  0
  151.2488  139.6746  155.8236 C   0  0  0  0  0  0  0  0  0  0  0  0
  152.7925  143.4918  156.6573 H   0  0  0  0  0  0  0  0  0  0  0  0
  151.3726  144.4348  156.2752 H   0  0  0  0  0  0  0  0  0  0  0  0
  152.8400  145.1987  158.2999 H   0  0  0  0  0  0  0  0  0  0  0  0
  151.4210  142.8184  159.5395 H   0  0  0  0  0  0  0  0  0  0  0  0
  153.1181  143.2516  159.7086 H   0  0  0  0  0  0  0  0  0  0  0  0
  151.1612  143.9905  161.5338 H   0  0  0  0  0  0  0  0  0  0  0  0
  152.6124  144.9469  161.2746 H   0  0  0  0  0  0  0  0  0  0  0  0
  149.9179  145.7980  160.6820 H   0  0  0  0  0  0  0  0  0  0  0  0
  151.4201  146.6500  160.3560 H   0  0  0  0  0  0  0  0  0  0  0  0
  150.7219  146.3362  158.1079 H   0  0  0  0  0  0  0  0  0  0  0  0
  149.8352  144.8722  158.5202 H   0  0  0  0  0  0  0  0  0  0  0  0
  149.6900  143.1968  155.7456 H   0  0  0  0  0  0  0  0  0  0  0  0
  149.1381  140.6441  157.1895 H   0  0  0  0  0  0  0  0  0  0  0  0
  147.9434  141.6996  156.4718 H   0  0  0  0  0  0  0  0  0  0  0  0
  148.1422  139.9274  154.8647 H   0  0  0  0  0  0  0  0  0  0  0  0
  149.1187  141.2074  154.1707 H   0  0  0  0  0  0  0  0  0  0  0  0
  149.7298  138.3164  153.3510 H   0  0  0  0  0  0  0  0  0  0  0  0
  152.1624  137.2006  154.0673 H   0  0  0  0  0  0  0  0  0  0  0  0
  151.3536  140.3983  156.6188 H   0  0  0  0  0  0  0  0  0  0  0  0
  1  2  2  0  0  0  0
  2  3  1  0  0  0  0
  2  9  1  0  0  0  0
  3  4  1  0  0  0  0
  3 17  1  0  0  0  0
  3 18  1  0  0  0  0
  4  8  1  0  0  0  0
  4  5  1  0  0  0  0
  4 19  1  0  0  0  0
  5  6  1  0  0  0  0
  5 20  1  0  0  0  0
  5 21  1  0  0  0  0
  6  7  1  0  0  0  0
  6 22  1  0  0  0  0
  6 23  1  0  0  0  0
  7  8  1  0  0  0  0
  7 24  1  0  0  0  0
  7 25  1  0  0  0  0
  8 26  1  0  0  0  0
  8 27  1  0  0  0  0
  9 10  1  0  0  0  0
  9 28  1  0  0  0  0
 10 11  1  0  0  0  0
 10 29  1  0  0  0  0
 10 30  1  0  0  0  0
 11 12  1  0  0  0  0
 11 31  1  0  0  0  0
 11 32  1  0  0  0  0
 12 16  1  0  0  0  0
 12 13  1  0  0  0  0
 13 14  2  0  0  0  0
 13 33  1  0  0  0  0
 14 15  1  0  0  0  0
 14 34  1  0  0  0  0
 15 16  2  0  0  0  0
 16 35  1  0  0  0  0
M  END
> <s_m_source_file>
AV-unprocessed.smi

> <i_m_source_file_index>
3151

> <i_lp_mmshare_version>
43012

> <i_f3d_flags>
0

> <s_epik_input>
W0NIMl0xW0NIMl1bQ0gyXVtDSDJdW0NIXTFbQ0gyXUMoPU8pW05IXVtDSDJdW0NIMl1uMltjSF1bY0hdbltjSF0y

> <s_epik_cmdline>
J2VwaWtfcHl0aG9uJywgJy1waCcsICc3LjAnLCAnLXRuJywgJzgnLCAnLW1hJywgJzIwMCcsICctbWV0YWxfYmluZGluZycsICctaW1hZScsICc8aW5maWxlLm1hZT4nLCAnLW9tYWUnLCAnPG91dGZpbGUubWFlPic=

> <r_lp_tautomer_probability>
1

> <r_epik_Ionization_Penalty>
0.596413

> <r_epik_Ionization_Penalty_Charging>
0.596413

> <r_epik_Ionization_Penalty_Neutral>
2.16921e-08

> <r_epik_State_Penalty>
0.610423

> <r_epik_Charging_Adjusted_Penalty>
1.20684

> <i_epik_Tot_Q>
0

> <i_epik_Tot_abs_Q>
0

> <r_epik_Metal_State_Penalty>
0.300145

> <b_epik_Metal_Only>
0

> <s_lp_Force_Field>
OPLS_2005

> <r_lp_Energy>
20.9474

> <b_lp_Chiralities_Consistent>
1

> <s_lp_Variant>
AV-unprocessed.smi:3151-2

> <Gold.Version>
5.8.1

> <Gold.Id.Protein>
6NUR|6NUR_protein|mol2

> <Gold.PLP.Fitness>
47.3739

> <Gold.PLP.PLP>
-38.2093

> <Gold.PLP.part.hbond>
-1.0000

> <Gold.PLP.part.metal>
0.0000

> <Gold.PLP.part.buried>
-5.0816

> <Gold.PLP.part.nonpolar>
-33.1766

> <Gold.PLP.part.repulsive>
0.1067

> <Gold.PLP.ligand.clash>
0.0000

> <Gold.PLP.ligand.torsion>
0.5392

> <Gold.PLP.Chemscore.Hbond>
0.9760

> <Gold.PLP.Chemscore.CHOScore>
2.4238

> <Gold.PLP.Chemscore.Metal>
0.0000

> <Gold.Chemscore.Hbonds>
donor molecule, donor type, donor heavy atom, donor atom, acceptor molecule, acceptor atom, score
      L1  H     9    28       P1  8028  0.86
      L1  C    13    33       P1  7948  0.73
      L1  C    13    33       P1  7957  0.29

> <Gold.PLP.Chemscore.Internal.Correction>
0.0436

> <Gold.Rescore>
     Score         DG    S(hbond)    S(metal)    S(lipo)     H(rot)  DE(clash)    DE(int)     intcor
     13.89     -15.23       1.00        0.00      98.38       1.99       0.95       0.39       ----

> <Gold.Chemscore.Fitness>
13.8896

> <Gold.Chemscore.DG>
-15.2303

> <Gold.Chemscore.ZeroCoef>
-5.4800

> <Gold.Chemscore.Hbond>
0.9997

> <Gold.Chemscore.Metal>
0.0000

> <Gold.Chemscore.Lipo>
98.3835

> <Gold.Chemscore.Internal_Hbond>
0.0000

> <Gold.Chemscore.DEClash>
0.9519

> <Gold.Chemscore.DEInternal>
0.3888

> <Gold.Chemscore.Rot>
1.9920

> <Gold.Chemscore.Internal.Correction>
   9.000000E+99

> <Gold.Chemscore.Hbonds>
donor molecule, donor type, donor heavy atom, donor atom, acceptor molecule, acceptor atom, score
      L1  H     9    28       P1  8028  0.85

> <Gold.Chemscore.Hbond.Weighted>
-3.3390

> <Gold.Chemscore.Metal.Weighted>
-0.0000

> <Gold.Chemscore.Lipo.Weighted>
-11.5109

> <Gold.Chemscore.Internal_Hbond.Weighted>
0.0000

> <Gold.Chemscore.DEClash.Weighted>
0.9519

> <Gold.Chemscore.DEInternal.Weighted>
0.3888

> <Gold.Chemscore.Rot.Weighted>
5.0996

> <Gold.Chemscore.Internal.Correction.Weighted>
   9.000000E+99

> <Gold.Protein.RotatedTorsions>
[ 6907 6896 6895 6894 ] final -119.77 input  -60.11 | X-H torsion
[ 7974 7965 7964 7962 ] final   38.16 input  175.53 | X-H torsion
[ 8008 7997 7996 7995 ] final -142.65 input   59.86 | X-H torsion
[ 10167 10162 10161 10158 ] final   25.57 input  -65.29 | X-H torsion
[ 10718 10713 10712 10709 ] final   64.56 input   66.30 | X-H torsion
[ 10763 10752 10751 10750 ] final -118.27 input  -60.55 | X-H torsion
[ 11005 11000 10999 10996 ] final -152.69 input  -57.11 | X-H torsion

> <Gold.Protein.ActiveResidues>
 VAL166  LYS551  ARG553  GLY616  TRP617  ASP618  TYR619  PRO620  LYS621  CYS622 
 ASP623  PHE694  ASN695  SER759  ASP760  ASP761  ALA762  ILE779  LEU786  VAL792 
 PHE793  MET794  SER795  GLU796  ALA797  LYS798  CYS799  TRP800  GLU811  SER814 

> <Gold.Protein.RotatedAtoms>
  150.8334  133.8053  159.3088 H   0  0  0  0  0  0  0  0  0  0  0  0  # atno 6907 bound_to 6896
  151.5776  135.1058  160.0019 H   0  0  0  0  0  0  0  0  0  0  0  0  # atno 6908 bound_to 6896
  152.4410  133.7407  159.6696 H   0  0  0  0  0  0  0  0  0  0  0  0  # atno 6909 bound_to 6896
  146.1083  139.5806  142.9369 H   0  0  0  0  0  0  0  0  0  0  0  0  # atno 7974 bound_to 7965
  155.4977  140.0573  157.2944 H   0  0  0  0  0  0  0  0  0  0  0  0  # atno 8008 bound_to 7997
  154.4599  140.1991  156.0225 H   0  0  0  0  0  0  0  0  0  0  0  0  # atno 8009 bound_to 7997
  156.0870  140.3239  155.7770 H   0  0  0  0  0  0  0  0  0  0  0  0  # atno 8010 bound_to 7997
  140.5095  144.0184  150.6366 H   0  0  0  0  0  0  0  0  0  0  0  0  # atno 10167 bound_to 10162
  157.6048  130.9167  149.9862 H   0  0  0  0  0  0  0  0  0  0  0  0  # atno 10718 bound_to 10713
  154.8582  135.4280  154.2113 H   0  0  0  0  0  0  0  0  0  0  0  0  # atno 10763 bound_to 10752
  153.3138  135.6977  153.7098 H   0  0  0  0  0  0  0  0  0  0  0  0  # atno 10764 bound_to 10752
  153.6180  135.3507  155.2975 H   0  0  0  0  0  0  0  0  0  0  0  0  # atno 10765 bound_to 10752
  140.7162  134.3778  157.5190 H   0  0  0  0  0  0  0  0  0  0  0  0  # atno 11005 bound_to 11000
  145.5716  141.0393  143.2171 LP  0  0  0  0  0  0  0  0  0  0  0  0  # atno 17320 bound_to 7965
  144.7489  139.7245  143.7281 LP  0  0  0  0  0  0  0  0  0  0  0  0  # atno 17321 bound_to 7965
  140.3502  143.2967  152.0495 LP  0  0  0  0  0  0  0  0  0  0  0  0  # atno 17342 bound_to 10162
  139.4892  144.6379  151.6938 LP  0  0  0  0  0  0  0  0  0  0  0  0  # atno 17343 bound_to 10162
  156.1131  130.3649  150.0015 LP  0  0  0  0  0  0  0  0  0  0  0  0  # atno 17370 bound_to 10713
  156.8109  130.9324  151.3644 LP  0  0  0  0  0  0  0  0  0  0  0  0  # atno 17371 bound_to 10713
  139.8859  134.8924  156.2615 LP  0  0  0  0  0  0  0  0  0  0  0  0  # atno 17394 bound_to 11000
  141.0042  133.7133  156.1009 LP  0  0  0  0  0  0  0  0  0  0  0  0  # atno 17395 bound_to 11000

$$$$
