AV-unprocessed.smi:1920|AV-procd|sdf|7780|dock5
  -GOLD-   22720 9523D 1   1.00000     0.00000
 Structure written by MMmdl.
 37 38  0  0  0  0  0  0  0  0  2 V2000
  150.4696  138.8421  157.6905 C   0  0  0  0  0  0  0  0  0  0  0  0
  151.8223  139.4555  157.3048 C   0  0  1  0  0  0  0  0  0  0  0  0
  151.8232  139.9257  155.8347 C   0  0  0  0  0  0  0  0  0  0  0  0
  150.6877  139.4051  155.0655 N   0  0  0  0  0  0  0  0  0  0  0  0
  149.4094  139.9009  155.0345 C   0  0  0  0  0  0  0  0  0  0  0  0
  148.6975  139.0937  154.1852 C   0  0  0  0  0  0  0  0  0  0  0  0
  149.5725  138.1457  153.7272 N   0  3  0  0  0  0  0  0  0  0  0  0
  150.7829  138.3385  154.2610 C   0  0  0  0  0  0  0  0  0  0  0  0
  152.1138  140.5658  158.2109 N   0  0  0  0  0  0  0  0  0  0  0  0
  153.1837  140.6635  159.0163 C   0  0  0  0  0  0  0  0  0  0  0  0
  154.0663  139.8070  159.0748 O   0  0  0  0  0  0  0  0  0  0  0  0
  153.2666  141.9277  159.8801 C   0  0  0  0  0  0  0  0  0  0  0  0
  152.0339  142.8539  159.7734 C   0  0  1  0  0  0  0  0  0  0  0  0
  151.9296  143.8606  160.8937 C   0  0  0  0  0  0  0  0  0  0  0  0
  151.8426  145.1141  160.4553 C   0  0  0  0  0  0  0  0  0  0  0  0
  151.8724  145.2022  158.9552 C   0  0  0  0  0  0  0  0  0  0  0  0
  152.0491  143.7366  158.4985 C   0  0  0  0  0  0  0  0  0  0  0  0
  150.2308  137.9885  157.0554 H   0  0  0  0  0  0  0  0  0  0  0  0
  149.6605  139.5668  157.5911 H   0  0  0  0  0  0  0  0  0  0  0  0
  150.4775  138.4899  158.7226 H   0  0  0  0  0  0  0  0  0  0  0  0
  152.5737  138.6731  157.4253 H   0  0  0  0  0  0  0  0  0  0  0  0
  151.7648  141.0139  155.7870 H   0  0  0  0  0  0  0  0  0  0  0  0
  152.7494  139.6379  155.3341 H   0  0  0  0  0  0  0  0  0  0  0  0
  149.1079  140.7642  155.6101 H   0  0  0  0  0  0  0  0  0  0  0  0
  147.6616  139.1233  153.8801 H   0  0  0  0  0  0  0  0  0  0  0  0
  151.6608  137.7432  154.0831 H   0  0  0  0  0  0  0  0  0  0  0  0
  151.4393  141.3172  158.2362 H   0  0  0  0  0  0  0  0  0  0  0  0
  153.4128  141.6377  160.9220 H   0  0  0  0  0  0  0  0  0  0  0  0
  154.1615  142.4768  159.5858 H   0  0  0  0  0  0  0  0  0  0  0  0
  151.1222  142.2548  159.7834 H   0  0  0  0  0  0  0  0  0  0  0  0
  151.9085  143.5671  161.9320 H   0  0  0  0  0  0  0  0  0  0  0  0
  151.7482  145.9888  161.0817 H   0  0  0  0  0  0  0  0  0  0  0  0
  150.9398  145.6301  158.5863 H   0  0  0  0  0  0  0  0  0  0  0  0
  152.6997  145.8321  158.6268 H   0  0  0  0  0  0  0  0  0  0  0  0
  152.9884  143.6288  157.9542 H   0  0  0  0  0  0  0  0  0  0  0  0
  151.2525  143.4433  157.8136 H   0  0  0  0  0  0  0  0  0  0  0  0
  149.3395  137.4038  153.0790 H   0  0  0  0  0  0  0  0  0  0  0  0
  1  2  1  0  0  0  0
  1 18  1  0  0  0  0
  1 19  1  0  0  0  0
  1 20  1  0  0  0  0
  2  3  1  0  0  0  0
  2  9  1  0  0  0  0
  2 21  1  0  0  0  0
  3  4  1  0  0  0  0
  3 22  1  0  0  0  0
  3 23  1  0  0  0  0
  4  8  1  0  0  0  0
  4  5  1  0  0  0  0
  5  6  2  0  0  0  0
  5 24  1  0  0  0  0
  6  7  1  0  0  0  0
  6 25  1  0  0  0  0
  7  8  2  0  0  0  0
  7 37  1  0  0  0  0
  8 26  1  0  0  0  0
  9 10  1  0  0  0  0
  9 27  1  0  0  0  0
 10 11  2  0  0  0  0
 10 12  1  0  0  0  0
 12 13  1  0  0  0  0
 12 28  1  0  0  0  0
 12 29  1  0  0  0  0
 13 17  1  0  0  0  0
 13 14  1  0  0  0  0
 13 30  1  0  0  0  0
 14 15  2  0  0  0  0
 14 31  1  0  0  0  0
 15 16  1  0  0  0  0
 15 32  1  0  0  0  0
 16 17  1  0  0  0  0
 16 33  1  0  0  0  0
 16 34  1  0  0  0  0
 17 35  1  0  0  0  0
 17 36  1  0  0  0  0
M  CHG  1   7   1
M  END
> <s_m_source_file>
AV-unprocessed.smi

> <i_m_source_file_index>
1920

> <i_lp_mmshare_version>
43012

> <i_f3d_flags>
0

> <s_epik_input>
W2NIXTFuW2NIXVtjSF1uMVtDSDJdW0NAQEhdKFtDSDNdKVtOSF1DKD1PKVtDSDJdW0NAQEhdMltDSF09W0NIXVtDSDJdW0NIMl0y

> <s_epik_cmdline>
J2VwaWtfcHl0aG9uJywgJy1waCcsICc3LjAnLCAnLXRuJywgJzgnLCAnLW1hJywgJzIwMCcsICctbWV0YWxfYmluZGluZycsICctaW1hZScsICc8aW5maWxlLm1hZT4nLCAnLW9tYWUnLCAnPG91dGZpbGUubWFlPic=

> <r_lp_tautomer_probability>
1

> <r_epik_Ionization_Penalty>
0.24816

> <r_epik_Ionization_Penalty_Charging>
0

> <r_epik_Ionization_Penalty_Neutral>
0.24816

> <r_epik_State_Penalty>
0.2394

> <r_epik_Charging_Adjusted_Penalty>
0.2394

> <i_epik_Tot_Q>
1

> <i_epik_Tot_abs_Q>
1

> <r_epik_Metal_State_Penalty>
0.531457

> <b_epik_Metal_Only>
0

> <s_lp_Force_Field>
OPLS_2005

> <r_lp_Energy>
19.5873

> <b_lp_Chiralities_Consistent>
1

> <s_lp_Variant>
AV-unprocessed.smi:1920-4

> <Gold.Version>
5.8.1

> <Gold.Id.Protein>
6NUR|6NUR_protein|mol2

> <Gold.PLP.Fitness>
50.0858

> <Gold.PLP.PLP>
-43.3016

> <Gold.PLP.part.hbond>
-3.0000

> <Gold.PLP.part.metal>
0.0000

> <Gold.PLP.part.buried>
-2.5714

> <Gold.PLP.part.nonpolar>
-36.6719

> <Gold.PLP.part.repulsive>
0.1569

> <Gold.PLP.ligand.clash>
0.0000

> <Gold.PLP.ligand.torsion>
1.1370

> <Gold.PLP.Chemscore.Hbond>
3.0000

> <Gold.PLP.Chemscore.CHOScore>
0.0000

> <Gold.PLP.Chemscore.Metal>
0.0000

> <Gold.Chemscore.Hbonds>
donor molecule, donor type, donor heavy atom, donor atom, acceptor molecule, acceptor atom, score
      L1  H     7    37       P1  7948  2.00
      P1  H  7997  8009       L1    11  1.00

> <Gold.PLP.Chemscore.Internal.Correction>
0.0582

> <Gold.Rescore>
     Score         DG    S(hbond)    S(metal)    S(lipo)     H(rot)  DE(clash)    DE(int)     intcor
     16.67     -17.88       1.79        0.00      98.91       2.01       0.14       1.07       ----

> <Gold.Chemscore.Fitness>
16.6699

> <Gold.Chemscore.DG>
-17.8827

> <Gold.Chemscore.ZeroCoef>
-5.4800

> <Gold.Chemscore.Hbond>
1.7916

> <Gold.Chemscore.Metal>
0.0000

> <Gold.Chemscore.Lipo>
98.9067

> <Gold.Chemscore.Internal_Hbond>
0.0000

> <Gold.Chemscore.DEClash>
0.1448

> <Gold.Chemscore.DEInternal>
1.0680

> <Gold.Chemscore.Rot>
2.0130

> <Gold.Chemscore.Internal.Correction>
   9.000000E+99

> <Gold.Chemscore.Hbonds>
donor molecule, donor type, donor heavy atom, donor atom, acceptor molecule, acceptor atom, score
      L1  H     7    37       P1  7948  0.96
      P1  H  7997  8009       L1    11  0.28

> <Gold.Chemscore.Hbond.Weighted>
-5.9839

> <Gold.Chemscore.Metal.Weighted>
-0.0000

> <Gold.Chemscore.Lipo.Weighted>
-11.5721

> <Gold.Chemscore.Internal_Hbond.Weighted>
0.0000

> <Gold.Chemscore.DEClash.Weighted>
0.1448

> <Gold.Chemscore.DEInternal.Weighted>
1.0680

> <Gold.Chemscore.Rot.Weighted>
5.1533

> <Gold.Chemscore.Internal.Correction.Weighted>
   9.000000E+99

> <Gold.Protein.RotatedTorsions>
[ 6907 6896 6895 6894 ] final -124.08 input  -60.11 | X-H torsion
[ 7974 7965 7964 7962 ] final   86.50 input  175.53 | X-H torsion
[ 8008 7997 7996 7995 ] final  129.30 input   59.86 | X-H torsion
[ 10167 10162 10161 10158 ] final  -84.65 input  -65.29 | X-H torsion
[ 10718 10713 10712 10709 ] final   27.61 input   66.30 | X-H torsion
[ 10763 10752 10751 10750 ] final  161.52 input  -60.55 | X-H torsion
[ 11005 11000 10999 10996 ] final   -2.60 input  -57.11 | X-H torsion

> <Gold.Protein.ActiveResidues>
 VAL166  LYS551  ARG553  GLY616  TRP617  ASP618  TYR619  PRO620  LYS621  CYS622 
 ASP623  PHE694  ASN695  SER759  ASP760  ASP761  ALA762  ILE779  LEU786  VAL792 
 PHE793  MET794  SER795  GLU796  ALA797  LYS798  CYS799  TRP800  GLU811  SER814 

> <Gold.Protein.RotatedAtoms>
  150.8733  133.7475  159.2954 H   0  0  0  0  0  0  0  0  0  0  0  0  # atno 6907 bound_to 6896
  151.5080  135.1062  159.9856 H   0  0  0  0  0  0  0  0  0  0  0  0  # atno 6908 bound_to 6896
  152.4710  133.7984  159.6995 H   0  0  0  0  0  0  0  0  0  0  0  0  # atno 6909 bound_to 6896
  145.5714  139.2314  143.2404 H   0  0  0  0  0  0  0  0  0  0  0  0  # atno 7974 bound_to 7965
  156.2933  140.2624  156.2576 H   0  0  0  0  0  0  0  0  0  0  0  0  # atno 8008 bound_to 7997
  154.9820  140.0389  157.2300 H   0  0  0  0  0  0  0  0  0  0  0  0  # atno 8009 bound_to 7997
  154.7763  140.2787  155.6103 H   0  0  0  0  0  0  0  0  0  0  0  0  # atno 8010 bound_to 7997
  140.4112  143.2622  151.9015 H   0  0  0  0  0  0  0  0  0  0  0  0  # atno 10167 bound_to 10162
  157.2225  130.6985  149.6277 H   0  0  0  0  0  0  0  0  0  0  0  0  # atno 10718 bound_to 10713
  154.2642  135.2767  155.2765 H   0  0  0  0  0  0  0  0  0  0  0  0  # atno 10763 bound_to 10752
  154.5357  135.5717  153.6800 H   0  0  0  0  0  0  0  0  0  0  0  0  # atno 10764 bound_to 10752
  152.9956  135.6239  154.2794 H   0  0  0  0  0  0  0  0  0  0  0  0  # atno 10765 bound_to 10752
  140.6601  133.9328  155.8431 H   0  0  0  0  0  0  0  0  0  0  0  0  # atno 11005 bound_to 11000
  146.1781  140.6540  142.9202 LP  0  0  0  0  0  0  0  0  0  0  0  0  # atno 17320 bound_to 7965
  144.7436  140.5008  143.6852 LP  0  0  0  0  0  0  0  0  0  0  0  0  # atno 17321 bound_to 7965
  139.4782  144.5535  151.8350 LP  0  0  0  0  0  0  0  0  0  0  0  0  # atno 17342 bound_to 10162
  140.4636  144.1687  150.5909 LP  0  0  0  0  0  0  0  0  0  0  0  0  # atno 17343 bound_to 10162
  155.9681  130.4515  150.5738 LP  0  0  0  0  0  0  0  0  0  0  0  0  # atno 17370 bound_to 10713
  157.3561  131.0742  151.1674 LP  0  0  0  0  0  0  0  0  0  0  0  0  # atno 17371 bound_to 10713
  141.0472  134.0537  157.3830 LP  0  0  0  0  0  0  0  0  0  0  0  0  # atno 17394 bound_to 11000
  139.9016  135.0166  156.7294 LP  0  0  0  0  0  0  0  0  0  0  0  0  # atno 17395 bound_to 11000

$$$$
