AV-unprocessed.smi:1978|AV-procd|sdf|7998|dock8
  -GOLD-   2272010183D 1   1.00000     0.00000
 Structure written by MMmdl.
 45 46  0  0  0  0  0  0  0  0  2 V2000
  150.5781  141.6552  155.9434 C   0  0  0  0  0  0  0  0  0  0  0  0
  150.4325  140.3140  155.3104 C   0  0  0  0  0  0  0  0  0  0  0  0
  149.3509  139.5179  155.0569 C   0  0  0  0  0  0  0  0  0  0  0  0
  149.9300  138.3820  154.4312 C   0  0  0  0  0  0  0  0  0  0  0  0
  149.1236  137.2995  153.9963 N   0  0  0  0  0  0  0  0  0  0  0  0
  148.4347  136.4349  154.7602 C   0  0  0  0  0  0  0  0  0  0  0  0
  148.3805  136.4592  155.9901 O   0  0  0  0  0  0  0  0  0  0  0  0
  147.8031  135.5174  154.0136 N   0  0  0  0  0  0  0  0  0  0  0  0
  146.9819  134.4322  154.5444 C   0  0  0  0  0  0  0  0  0  0  0  0
  147.0615  133.1270  153.6993 C   0  0  2  0  0  0  0  0  0  0  0  0
  148.5455  132.8319  153.3574 C   0  0  0  0  0  0  0  0  0  0  0  0
  146.1863  133.2034  152.4768 N   0  3  2  0  0  0  0  0  0  0  0  0
  144.8038  133.7041  152.7496 C   0  0  0  0  0  0  0  0  0  0  0  0
  144.0364  133.9958  151.4492 C   0  0  0  0  0  0  0  0  0  0  0  0
  143.9789  132.7638  150.5442 C   0  0  0  0  0  0  0  0  0  0  0  0
  145.3994  132.2450  150.2964 C   0  0  0  0  0  0  0  0  0  0  0  0
  146.1599  131.9751  151.6122 C   0  0  2  0  0  0  0  0  0  0  0  0
  145.6251  130.7204  152.3401 C   0  0  0  0  0  0  0  0  0  0  0  0
  151.2459  138.4745  154.3161 N   0  0  0  0  0  0  0  0  0  0  0  0
  151.5748  139.7128  154.8799 O   0  0  0  0  0  0  0  0  0  0  0  0
  149.6287  142.1909  155.9419 H   0  0  0  0  0  0  0  0  0  0  0  0
  151.3078  142.2612  155.4058 H   0  0  0  0  0  0  0  0  0  0  0  0
  150.9115  141.5596  156.9766 H   0  0  0  0  0  0  0  0  0  0  0  0
  148.3144  139.7206  155.2823 H   0  0  0  0  0  0  0  0  0  0  0  0
  149.0756  137.1636  152.9973 H   0  0  0  0  0  0  0  0  0  0  0  0
  147.8982  135.5703  153.0098 H   0  0  0  0  0  0  0  0  0  0  0  0
  147.2963  134.2853  155.5756 H   0  0  0  0  0  0  0  0  0  0  0  0
  145.9499  134.7823  154.5866 H   0  0  0  0  0  0  0  0  0  0  0  0
  146.6933  132.3007  154.3091 H   0  0  0  0  0  0  0  0  0  0  0  0
  149.1762  132.8227  154.2459 H   0  0  0  0  0  0  0  0  0  0  0  0
  148.9514  133.5826  152.6787 H   0  0  0  0  0  0  0  0  0  0  0  0
  148.6872  131.8530  152.9023 H   0  0  0  0  0  0  0  0  0  0  0  0
  144.2584  132.9869  153.3635 H   0  0  0  0  0  0  0  0  0  0  0  0
  144.8142  134.6333  153.3114 H   0  0  0  0  0  0  0  0  0  0  0  0
  143.0252  134.3326  151.6808 H   0  0  0  0  0  0  0  0  0  0  0  0
  144.5201  134.8166  150.9178 H   0  0  0  0  0  0  0  0  0  0  0  0
  143.3659  131.9889  151.0050 H   0  0  0  0  0  0  0  0  0  0  0  0
  143.4995  133.0148  149.5976 H   0  0  0  0  0  0  0  0  0  0  0  0
  145.3643  131.3410  149.6870 H   0  0  0  0  0  0  0  0  0  0  0  0
  145.9494  132.9822  149.7095 H   0  0  0  0  0  0  0  0  0  0  0  0
  147.1777  131.7571  151.2925 H   0  0  0  0  0  0  0  0  0  0  0  0
  145.6619  129.8515  151.6825 H   0  0  0  0  0  0  0  0  0  0  0  0
  144.5906  130.8343  152.6616 H   0  0  0  0  0  0  0  0  0  0  0  0
  146.2141  130.4729  153.2222 H   0  0  0  0  0  0  0  0  0  0  0  0
  146.6156  133.9115  151.8988 H   0  0  0  0  0  0  0  0  0  0  0  0
  1  2  1  0  0  0  0
  1 21  1  0  0  0  0
  1 22  1  0  0  0  0
  1 23  1  0  0  0  0
  2 20  1  0  0  0  0
  2  3  2  0  0  0  0
  3  4  1  0  0  0  0
  3 24  1  0  0  0  0
  4  5  1  0  0  0  0
  4 19  2  0  0  0  0
  5  6  1  0  0  0  0
  5 25  1  0  0  0  0
  6  7  2  0  0  0  0
  6  8  1  0  0  0  0
  8  9  1  0  0  0  0
  8 26  1  0  0  0  0
  9 10  1  0  0  0  0
  9 27  1  0  0  0  0
  9 28  1  0  0  0  0
 10 11  1  0  0  0  0
 10 12  1  0  0  0  0
 10 29  1  0  0  0  0
 11 30  1  0  0  0  0
 11 31  1  0  0  0  0
 11 32  1  0  0  0  0
 12 17  1  0  0  0  0
 12 13  1  0  0  0  0
 12 45  1  0  0  0  0
 13 14  1  0  0  0  0
 13 33  1  0  0  0  0
 13 34  1  0  0  0  0
 14 15  1  0  0  0  0
 14 35  1  0  0  0  0
 14 36  1  0  0  0  0
 15 16  1  0  0  0  0
 15 37  1  0  0  0  0
 15 38  1  0  0  0  0
 16 17  1  0  0  0  0
 16 39  1  0  0  0  0
 16 40  1  0  0  0  0
 17 18  1  0  0  0  0
 17 41  1  0  0  0  0
 18 42  1  0  0  0  0
 18 43  1  0  0  0  0
 18 44  1  0  0  0  0
 19 20  1  0  0  0  0
M  CHG  1  12   1
M  END
> <s_m_source_file>
AV-unprocessed.smi

> <i_m_source_file_index>
1978

> <i_lp_mmshare_version>
43012

> <i_f3d_flags>
0

> <s_epik_input>
W0NIM11jMVtjSF1jKG5vMSlbTkhdQyg9TylbTkhdW0NIMl1bQ0BIXShbQ0gzXSlOMltDSDJdW0NIMl1bQ0gyXVtDSDJdW0NASF0yW0NIM10=

> <s_epik_cmdline>
J2VwaWtfcHl0aG9uJywgJy1waCcsICc3LjAnLCAnLXRuJywgJzgnLCAnLW1hJywgJzIwMCcsICctbWV0YWxfYmluZGluZycsICctaW1hZScsICc8aW5maWxlLm1hZT4nLCAnLW9tYWUnLCAnPG91dGZpbGUubWFlPic=

> <r_epik_Ionization_Penalty>
0.00265971

> <r_epik_Ionization_Penalty_Charging>
0.00262393

> <r_epik_Ionization_Penalty_Neutral>
3.57846e-05

> <r_epik_State_Penalty>
0.00182566

> <r_epik_Charging_Adjusted_Penalty>
0.00444959

> <i_epik_Tot_Q>
1

> <i_epik_Tot_abs_Q>
1

> <r_epik_Metal_State_Penalty>
0.0216344

> <b_epik_Metal_Only>
0

> <s_lp_Force_Field>
OPLS_2005

> <r_lp_Energy>
22.9215

> <b_lp_Chiralities_Consistent>
1

> <s_lp_Variant>
AV-unprocessed.smi:1978-7

> <Gold.Version>
5.8.1

> <Gold.Id.Protein>
6NUR|6NUR_protein|mol2

> <Gold.PLP.Fitness>
36.3381

> <Gold.PLP.PLP>
-29.9607

> <Gold.PLP.part.hbond>
-2.8439

> <Gold.PLP.part.metal>
0.0000

> <Gold.PLP.part.buried>
-5.1887

> <Gold.PLP.part.nonpolar>
-23.5760

> <Gold.PLP.part.repulsive>
0.2395

> <Gold.PLP.ligand.clash>
0.0000

> <Gold.PLP.ligand.torsion>
1.0251

> <Gold.PLP.Chemscore.Hbond>
2.7760

> <Gold.PLP.Chemscore.CHOScore>
0.0000

> <Gold.PLP.Chemscore.Metal>
0.0000

> <Gold.Chemscore.Hbonds>
donor molecule, donor type, donor heavy atom, donor atom, acceptor molecule, acceptor atom, score
      L1  H     5    25       P1  7948  0.81
      L1  H     8    26       P1  7948  0.78
      P1  H  7989  7998       L1    20  0.50

> <Gold.PLP.Chemscore.Internal.Correction>
0.0996

> <Gold.Rescore>
     Score         DG    S(hbond)    S(metal)    S(lipo)     H(rot)  DE(clash)    DE(int)     intcor
     15.52     -16.69       1.91        0.00      75.22       1.55       0.05       1.12       ----

> <Gold.Chemscore.Fitness>
15.5179

> <Gold.Chemscore.DG>
-16.6912

> <Gold.Chemscore.ZeroCoef>
-5.4800

> <Gold.Chemscore.Hbond>
1.9078

> <Gold.Chemscore.Metal>
0.0000

> <Gold.Chemscore.Lipo>
75.2159

> <Gold.Chemscore.Internal_Hbond>
0.0000

> <Gold.Chemscore.DEClash>
0.0530

> <Gold.Chemscore.DEInternal>
1.1204

> <Gold.Chemscore.Rot>
1.5474

> <Gold.Chemscore.Internal.Correction>
   9.000000E+99

> <Gold.Chemscore.Hbonds>
donor molecule, donor type, donor heavy atom, donor atom, acceptor molecule, acceptor atom, score
      L1  H     5    25       P1  7948  0.73
      L1  H     8    26       P1  7948  0.79
      P1  H  7989  7998       L1    20  0.01

> <Gold.Chemscore.Hbond.Weighted>
-6.3722

> <Gold.Chemscore.Metal.Weighted>
-0.0000

> <Gold.Chemscore.Lipo.Weighted>
-8.8003

> <Gold.Chemscore.Internal_Hbond.Weighted>
0.0000

> <Gold.Chemscore.DEClash.Weighted>
0.0530

> <Gold.Chemscore.DEInternal.Weighted>
1.1204

> <Gold.Chemscore.Rot.Weighted>
3.9612

> <Gold.Chemscore.Internal.Correction.Weighted>
   9.000000E+99

> <Gold.Protein.RotatedTorsions>
[ 6907 6896 6895 6894 ] final  -98.99 input  -60.11 | X-H torsion
[ 7974 7965 7964 7962 ] final -106.39 input  175.53 | X-H torsion
[ 8008 7997 7996 7995 ] final   -6.82 input   59.86 | X-H torsion
[ 10167 10162 10161 10158 ] final   79.08 input  -65.29 | X-H torsion
[ 10718 10713 10712 10709 ] final   33.72 input   66.30 | X-H torsion
[ 10763 10752 10751 10750 ] final    2.86 input  -60.55 | X-H torsion
[ 11005 11000 10999 10996 ] final  -83.37 input  -57.11 | X-H torsion

> <Gold.Protein.ActiveResidues>
 VAL166  LYS551  ARG553  GLY616  TRP617  ASP618  TYR619  PRO620  LYS621  CYS622 
 ASP623  PHE694  ASN695  SER759  ASP760  ASP761  ALA762  ILE779  LEU786  VAL792 
 PHE793  MET794  SER795  GLU796  ALA797  LYS798  CYS799  TRP800  GLU811  SER814 

> <Gold.Protein.RotatedAtoms>
  150.7065  134.1110  159.3999 H   0  0  0  0  0  0  0  0  0  0  0  0  # atno 6907 bound_to 6896
  151.9097  135.0342  160.0522 H   0  0  0  0  0  0  0  0  0  0  0  0  # atno 6908 bound_to 6896
  152.2346  133.5050  159.5272 H   0  0  0  0  0  0  0  0  0  0  0  0  # atno 6909 bound_to 6896
  145.2185  140.9125  143.3273 H   0  0  0  0  0  0  0  0  0  0  0  0  # atno 7974 bound_to 7965
  154.5900  140.2423  155.7934 H   0  0  0  0  0  0  0  0  0  0  0  0  # atno 8008 bound_to 7997
  156.2240  140.2988  155.9976 H   0  0  0  0  0  0  0  0  0  0  0  0  # atno 8009 bound_to 7997
  155.2391  140.0406  157.2963 H   0  0  0  0  0  0  0  0  0  0  0  0  # atno 8010 bound_to 7997
  139.9641  144.5941  150.8045 H   0  0  0  0  0  0  0  0  0  0  0  0  # atno 10167 bound_to 10162
  157.3014  130.7352  149.6669 H   0  0  0  0  0  0  0  0  0  0  0  0  # atno 10718 bound_to 10713
  153.2904  135.6948  153.7298 H   0  0  0  0  0  0  0  0  0  0  0  0  # atno 10763 bound_to 10752
  153.6251  135.3420  155.3024 H   0  0  0  0  0  0  0  0  0  0  0  0  # atno 10764 bound_to 10752
  154.8522  135.4395  154.1985 H   0  0  0  0  0  0  0  0  0  0  0  0  # atno 10765 bound_to 10752
  141.1658  133.7291  156.8710 H   0  0  0  0  0  0  0  0  0  0  0  0  # atno 11005 bound_to 11000
  144.9788  139.3805  143.6272 LP  0  0  0  0  0  0  0  0  0  0  0  0  # atno 17320 bound_to 7965
  146.3381  139.8919  142.8808 LP  0  0  0  0  0  0  0  0  0  0  0  0  # atno 17321 bound_to 7965
  140.7544  143.3026  151.3043 LP  0  0  0  0  0  0  0  0  0  0  0  0  # atno 17342 bound_to 10162
  139.6531  144.0325  152.2641 LP  0  0  0  0  0  0  0  0  0  0  0  0  # atno 17343 bound_to 10162
  155.9672  130.4279  150.4763 LP  0  0  0  0  0  0  0  0  0  0  0  0  # atno 17370 bound_to 10713
  157.2745  131.0594  151.2238 LP  0  0  0  0  0  0  0  0  0  0  0  0  # atno 17371 bound_to 10713
  140.1782  134.9052  157.2916 LP  0  0  0  0  0  0  0  0  0  0  0  0  # atno 17394 bound_to 11000
  140.2425  134.3778  155.7475 LP  0  0  0  0  0  0  0  0  0  0  0  0  # atno 17395 bound_to 11000

$$$$
