AV-unprocessed.smi:177|AV-procd|sdf|1437|dock6
  -GOLD-   2262019223D 1   1.00000     0.00000
 Structure written by MMmdl.
 61 65  0  0  0  0  0  0  0  0  1 V2000
  150.9167  143.8346  158.5009 C   0  0  0  0  0  0  0  0  0  0  0  0
  150.1449  142.7320  158.9511 O   0  0  0  0  0  0  0  0  0  0  0  0
  150.5848  141.4691  158.4667 C   0  0  2  0  0  0  0  0  0  0  0  0
  152.0792  141.3434  158.8103 C   0  0  0  0  0  0  0  0  0  0  0  0
  152.6767  140.0444  158.2498 C   0  0  0  0  0  0  0  0  0  0  0  0
  152.4491  139.9539  156.7340 C   0  0  1  0  0  0  0  0  0  0  0  0
  152.9986  138.7340  156.2503 O   0  0  0  0  0  0  0  0  0  0  0  0
  152.9064  138.6453  154.8337 C   0  0  0  0  0  0  0  0  0  0  0  0
  151.4284  138.6699  154.4157 C   0  0  0  0  0  0  0  0  0  0  0  0
  150.7561  139.8516  154.9492 N   0  0  0  0  0  0  0  0  0  0  0  0
  149.4955  139.9296  154.4574 C   0  0  0  0  0  0  0  0  0  0  0  0
  149.0750  141.0506  153.8121 N   0  0  0  0  0  0  0  0  0  0  0  0
  147.8250  141.1259  153.3455 C   0  0  0  0  0  0  0  0  0  0  0  0
  146.8477  140.2203  153.4255 N   0  0  0  0  0  0  0  0  0  0  0  0
  147.2611  139.1022  154.0890 C   0  0  0  0  0  0  0  0  0  0  0  0
  148.5572  138.8772  154.6312 C   0  0  0  0  0  0  0  0  0  0  0  0
  148.6139  137.6246  155.2281 N   0  0  0  0  0  0  0  0  0  0  0  0
  147.4177  137.1345  155.0466 C   0  0  0  0  0  0  0  0  0  0  0  0
  146.5354  137.9608  154.3859 N   0  0  0  0  0  0  0  0  0  0  0  0
  145.1517  137.6625  154.0425 C   0  0  0  0  0  0  0  0  0  0  0  0
  144.9348  136.4555  153.0777 C   0  0  0  0  0  0  0  0  0  0  0  0
  143.4214  136.4118  152.7193 C   0  0  0  0  0  0  0  0  0  0  0  0
  142.9254  137.6705  152.3080 O   0  0  0  0  0  0  0  0  0  0  0  0
  145.8132  136.5763  151.8045 C   0  0  0  0  0  0  0  0  0  0  0  0
  145.7637  135.3102  150.9298 C   0  0  0  0  0  0  0  0  0  0  0  0
  146.1756  134.1810  151.6902 O   0  0  0  0  0  0  0  0  0  0  0  0
  145.3311  133.9225  152.8050 C   0  0  0  0  0  0  0  0  0  0  0  0
  145.3422  135.1265  153.7660 C   0  0  0  0  0  0  0  0  0  0  0  0
  150.9405  140.0165  156.3969 C   0  0  2  0  0  0  0  0  0  0  0  0
  150.3580  141.3434  156.9440 C   0  0  0  0  0  0  0  0  0  0  0  0
  150.4745  144.7596  158.8703 H   0  0  0  0  0  0  0  0  0  0  0  0
  150.9343  143.8871  157.4117 H   0  0  0  0  0  0  0  0  0  0  0  0
  151.9423  143.7910  158.8661 H   0  0  0  0  0  0  0  0  0  0  0  0
  150.0499  140.6700  158.9834 H   0  0  0  0  0  0  0  0  0  0  0  0
  152.6225  142.1969  158.4025 H   0  0  0  0  0  0  0  0  0  0  0  0
  152.2172  141.3781  159.8915 H   0  0  0  0  0  0  0  0  0  0  0  0
  153.7435  140.0020  158.4701 H   0  0  0  0  0  0  0  0  0  0  0  0
  152.2220  139.1855  158.7451 H   0  0  0  0  0  0  0  0  0  0  0  0
  152.9698  140.7874  156.2572 H   0  0  0  0  0  0  0  0  0  0  0  0
  153.4573  139.4629  154.3662 H   0  0  0  0  0  0  0  0  0  0  0  0
  153.3747  137.7176  154.5048 H   0  0  0  0  0  0  0  0  0  0  0  0
  151.3598  138.6524  153.3271 H   0  0  0  0  0  0  0  0  0  0  0  0
  150.9258  137.7733  154.7821 H   0  0  0  0  0  0  0  0  0  0  0  0
  147.5716  142.0446  152.8370 H   0  0  0  0  0  0  0  0  0  0  0  0
  147.1416  136.1504  155.3964 H   0  0  0  0  0  0  0  0  0  0  0  0
  144.6089  137.4928  154.9735 H   0  0  0  0  0  0  0  0  0  0  0  0
  144.7250  138.5697  153.6133 H   0  0  0  0  0  0  0  0  0  0  0  0
  143.2059  135.7028  151.9223 H   0  0  0  0  0  0  0  0  0  0  0  0
  142.8393  136.0838  153.5811 H   0  0  0  0  0  0  0  0  0  0  0  0
  143.2765  137.8665  151.4527 H   0  0  0  0  0  0  0  0  0  0  0  0
  145.5267  137.4486  151.2167 H   0  0  0  0  0  0  0  0  0  0  0  0
  146.8549  136.7318  152.0823 H   0  0  0  0  0  0  0  0  0  0  0  0
  144.7698  135.1454  150.5130 H   0  0  0  0  0  0  0  0  0  0  0  0
  146.4402  135.4205  150.0821 H   0  0  0  0  0  0  0  0  0  0  0  0
  144.3237  133.6794  152.4677 H   0  0  0  0  0  0  0  0  0  0  0  0
  145.7033  133.0376  153.3213 H   0  0  0  0  0  0  0  0  0  0  0  0
  146.3544  135.2030  154.1614 H   0  0  0  0  0  0  0  0  0  0  0  0
  144.6964  134.9277  154.6218 H   0  0  0  0  0  0  0  0  0  0  0  0
  150.4445  139.1828  156.8972 H   0  0  0  0  0  0  0  0  0  0  0  0
  149.2923  141.4074  156.7320 H   0  0  0  0  0  0  0  0  0  0  0  0
  150.8226  142.1878  156.4330 H   0  0  0  0  0  0  0  0  0  0  0  0
  1  2  1  0  0  0  0
  1 31  1  0  0  0  0
  1 32  1  0  0  0  0
  1 33  1  0  0  0  0
  2  3  1  0  0  0  0
  3 30  1  0  0  0  0
  3  4  1  0  0  0  0
  3 34  1  0  0  0  0
  4  5  1  0  0  0  0
  4 35  1  0  0  0  0
  4 36  1  0  0  0  0
  5  6  1  0  0  0  0
  5 37  1  0  0  0  0
  5 38  1  0  0  0  0
  6 29  1  0  0  0  0
  6  7  1  0  0  0  0
  6 39  1  0  0  0  0
  7  8  1  0  0  0  0
  8  9  1  0  0  0  0
  8 40  1  0  0  0  0
  8 41  1  0  0  0  0
  9 10  1  0  0  0  0
  9 42  1  0  0  0  0
  9 43  1  0  0  0  0
 10 11  1  0  0  0  0
 10 29  1  0  0  0  0
 11 16  1  0  0  0  0
 11 12  2  0  0  0  0
 12 13  1  0  0  0  0
 13 14  2  0  0  0  0
 13 44  1  0  0  0  0
 14 15  1  0  0  0  0
 15 19  1  0  0  0  0
 15 16  2  0  0  0  0
 16 17  1  0  0  0  0
 17 18  2  0  0  0  0
 18 19  1  0  0  0  0
 18 45  1  0  0  0  0
 19 20  1  0  0  0  0
 20 21  1  0  0  0  0
 20 46  1  0  0  0  0
 20 47  1  0  0  0  0
 21 28  1  0  0  0  0
 21 22  1  0  0  0  0
 21 24  1  0  0  0  0
 22 23  1  0  0  0  0
 22 48  1  0  0  0  0
 22 49  1  0  0  0  0
 23 50  1  0  0  0  0
 24 25  1  0  0  0  0
 24 51  1  0  0  0  0
 24 52  1  0  0  0  0
 25 26  1  0  0  0  0
 25 53  1  0  0  0  0
 25 54  1  0  0  0  0
 26 27  1  0  0  0  0
 27 28  1  0  0  0  0
 27 55  1  0  0  0  0
 27 56  1  0  0  0  0
 28 57  1  0  0  0  0
 28 58  1  0  0  0  0
 29 30  1  0  0  0  0
 29 59  1  0  0  0  0
 30 60  1  0  0  0  0
 30 61  1  0  0  0  0
M  END
> <s_m_source_file>
AV-unprocessed.smi

> <i_m_source_file_index>
177

> <i_lp_mmshare_version>
43012

> <i_f3d_flags>
0

> <s_epik_input>
W0NIM11PW0NASF0oW0NIMl1bQ0gyXTEpW0NIMl1bQ0BIXShbQ0BASF0xMilOKFtDSDJdW0NIMl1PMiljKG5bY0hdbjMpYyhjMzQpbltjSF1uNFtDSDJdQzUoW0NIMl1bT0hdKVtDSDJdW0NIMl1PW0NIMl1bQ0gyXTU=

> <s_epik_cmdline>
J2VwaWtfcHl0aG9uJywgJy1waCcsICc3LjAnLCAnLXRuJywgJzgnLCAnLW1hJywgJzIwMCcsICctbWV0YWxfYmluZGluZycsICctaW1hZScsICc8aW5maWxlLm1hZT4nLCAnLW9tYWUnLCAnPG91dGZpbGUubWFlPic=

> <r_lp_tautomer_probability>
1

> <r_epik_Ionization_Penalty>
0.0065899

> <r_epik_Ionization_Penalty_Charging>
0

> <r_epik_Ionization_Penalty_Neutral>
0.0065899

> <r_epik_State_Penalty>
0.00470042

> <r_epik_Charging_Adjusted_Penalty>
0.00470042

> <i_epik_Tot_Q>
0

> <i_epik_Tot_abs_Q>
0

> <r_epik_Metal_State_Penalty>
-0

> <b_epik_Metal_Only>
0

> <s_lp_Force_Field>
OPLS_2005

> <r_lp_Energy>
44.8058

> <b_lp_Chiralities_Consistent>
1

> <s_lp_Variant>
AV-unprocessed.smi:177-1

> <Gold.Version>
5.8.1

> <Gold.Id.Protein>
6NUR|6NUR_protein|mol2

> <Gold.PLP.Fitness>
44.6252

> <Gold.PLP.PLP>
-40.0711

> <Gold.PLP.part.hbond>
-5.7417

> <Gold.PLP.part.metal>
0.0000

> <Gold.PLP.part.buried>
-3.0947

> <Gold.PLP.part.nonpolar>
-31.2555

> <Gold.PLP.part.repulsive>
1.6851

> <Gold.PLP.ligand.clash>
0.0000

> <Gold.PLP.ligand.torsion>
0.3883

> <Gold.PLP.Chemscore.Hbond>
1.7220

> <Gold.PLP.Chemscore.CHOScore>
0.0000

> <Gold.PLP.Chemscore.Metal>
0.0000

> <Gold.Chemscore.Hbonds>
donor molecule, donor type, donor heavy atom, donor atom, acceptor molecule, acceptor atom, score
      L1  H    23    50       P1 10171  1.00
      P1  H  7989  7998       L1    10  0.30
      P1  H  8011  8017       L1    12  0.41

> <Gold.PLP.Chemscore.Internal.Correction>
0.1647

> <Gold.Rescore>
     Score         DG    S(hbond)    S(metal)    S(lipo)     H(rot)  DE(clash)    DE(int)     intcor
     10.98     -12.20       0.77        0.00      91.82       2.58       1.03       0.19       ----

> <Gold.Chemscore.Fitness>
10.9795

> <Gold.Chemscore.DG>
-12.2036

> <Gold.Chemscore.ZeroCoef>
-5.4800

> <Gold.Chemscore.Hbond>
0.7745

> <Gold.Chemscore.Metal>
0.0000

> <Gold.Chemscore.Lipo>
91.8200

> <Gold.Chemscore.Internal_Hbond>
0.0000

> <Gold.Chemscore.DEClash>
1.0302

> <Gold.Chemscore.DEInternal>
0.1939

> <Gold.Chemscore.Rot>
2.5806

> <Gold.Chemscore.Internal.Correction>
   9.000000E+99

> <Gold.Chemscore.Hbonds>
donor molecule, donor type, donor heavy atom, donor atom, acceptor molecule, acceptor atom, score
      L1  H    23    50       P1 10171  0.74
      P1  H  8011  8017       L1    12  0.03

> <Gold.Chemscore.Hbond.Weighted>
-2.5869

> <Gold.Chemscore.Metal.Weighted>
-0.0000

> <Gold.Chemscore.Lipo.Weighted>
-10.7429

> <Gold.Chemscore.Internal_Hbond.Weighted>
0.0000

> <Gold.Chemscore.DEClash.Weighted>
1.0302

> <Gold.Chemscore.DEInternal.Weighted>
0.1939

> <Gold.Chemscore.Rot.Weighted>
6.6062

> <Gold.Chemscore.Internal.Correction.Weighted>
   9.000000E+99

> <Gold.Protein.RotatedTorsions>
[ 6907 6896 6895 6894 ] final  -56.34 input  -60.11 | X-H torsion
[ 7974 7965 7964 7962 ] final    3.72 input  175.53 | X-H torsion
[ 8008 7997 7996 7995 ] final  108.81 input   59.86 | X-H torsion
[ 10167 10162 10161 10158 ] final -137.55 input  -65.29 | X-H torsion
[ 10718 10713 10712 10709 ] final  170.69 input   66.30 | X-H torsion
[ 10763 10752 10751 10750 ] final   69.30 input  -60.55 | X-H torsion
[ 11005 11000 10999 10996 ] final  -27.29 input  -57.11 | X-H torsion

> <Gold.Protein.ActiveResidues>
 VAL166  LYS551  ARG553  GLY616  TRP617  ASP618  TYR619  PRO620  LYS621  CYS622 
 ASP623  PHE694  ASN695  SER759  ASP760  ASP761  ALA762  ILE779  LEU786  VAL792 
 PHE793  MET794  SER795  GLU796  ALA797  LYS798  CYS799  TRP800  GLU811  SER814 

> <Gold.Protein.RotatedAtoms>
  150.8176  134.7366  159.6743 H   0  0  0  0  0  0  0  0  0  0  0  0  # atno 6907 bound_to 6896
  152.4294  134.5804  159.9956 H   0  0  0  0  0  0  0  0  0  0  0  0  # atno 6908 bound_to 6896
  151.5996  133.3320  159.3080 H   0  0  0  0  0  0  0  0  0  0  0  0  # atno 6909 bound_to 6896
  146.2445  140.0643  142.8366 H   0  0  0  0  0  0  0  0  0  0  0  0  # atno 7974 bound_to 7965
  156.1931  140.3069  155.9373 H   0  0  0  0  0  0  0  0  0  0  0  0  # atno 8008 bound_to 7997
  155.3127  140.0452  157.3052 H   0  0  0  0  0  0  0  0  0  0  0  0  # atno 8009 bound_to 7997
  154.5477  140.2281  155.8546 H   0  0  0  0  0  0  0  0  0  0  0  0  # atno 8010 bound_to 7997
  139.8566  143.7130  152.2654 H   0  0  0  0  0  0  0  0  0  0  0  0  # atno 10167 bound_to 10162
  157.0044  131.0185  151.2821 H   0  0  0  0  0  0  0  0  0  0  0  0  # atno 10718 bound_to 10713
  153.0280  135.5215  154.7267 H   0  0  0  0  0  0  0  0  0  0  0  0  # atno 10763 bound_to 10752
  154.6307  135.2900  155.0222 H   0  0  0  0  0  0  0  0  0  0  0  0  # atno 10764 bound_to 10752
  154.1175  135.6612  153.4949 H   0  0  0  0  0  0  0  0  0  0  0  0  # atno 10765 bound_to 10752
  140.9106  133.7463  156.0666 H   0  0  0  0  0  0  0  0  0  0  0  0  # atno 11005 bound_to 11000
  145.0872  140.9260  143.4790 LP  0  0  0  0  0  0  0  0  0  0  0  0  # atno 17320 bound_to 7965
  145.0808  139.2961  143.5784 LP  0  0  0  0  0  0  0  0  0  0  0  0  # atno 17321 bound_to 7965
  139.7414  144.7558  151.0647 LP  0  0  0  0  0  0  0  0  0  0  0  0  # atno 17342 bound_to 10162
  140.7781  143.4968  150.9822 LP  0  0  0  0  0  0  0  0  0  0  0  0  # atno 17343 bound_to 10162
  157.5366  130.8093  149.7979 LP  0  0  0  0  0  0  0  0  0  0  0  0  # atno 17370 bound_to 10713
  156.0159  130.3814  150.2113 LP  0  0  0  0  0  0  0  0  0  0  0  0  # atno 17371 bound_to 10713
  140.8115  134.3394  157.5410 LP  0  0  0  0  0  0  0  0  0  0  0  0  # atno 17394 bound_to 11000
  139.8757  134.9256  156.3380 LP  0  0  0  0  0  0  0  0  0  0  0  0  # atno 17395 bound_to 11000

$$$$
