AV-unprocessed.smi:3226|AV-procd|sdf|12313|dock4
  -GOLD-   2272018163D 1   1.00000     0.00000
 Structure written by MMmdl.
 41 43  0  0  0  0  0  0  0  0  2 V2000
  145.5765  142.8567  154.7159 C   0  0  0  0  0  0  0  0  0  0  0  0
  145.6132  141.5558  155.5256 C   0  0  0  0  0  0  0  0  0  0  0  0
  146.3125  140.4471  154.8012 C   0  0  0  0  0  0  0  0  0  0  0  0
  145.7424  139.2641  154.5433 N   0  0  0  0  0  0  0  0  0  0  0  0
  146.6860  138.5392  153.8439 N   0  0  0  0  0  0  0  0  0  0  0  0
  147.7292  139.3603  153.7400 C   0  0  0  0  0  0  0  0  0  0  0  0
  147.5673  140.5618  154.3164 N   0  0  0  0  0  0  0  0  0  0  0  0
  148.5097  141.6665  154.3775 C   0  0  0  0  0  0  0  0  0  0  0  0
  149.7240  141.3481  155.2649 C   0  0  0  0  0  0  0  0  0  0  0  0
  149.7663  142.2142  156.4602 N   0  3  0  0  0  0  0  0  0  0  0  0
  151.0721  142.2307  157.1476 C   0  0  0  0  0  0  0  0  0  0  0  0
  151.0133  143.0790  158.4313 C   0  0  2  0  0  0  0  0  0  0  0  0
  150.9740  144.6140  158.1522 C   0  0  0  0  0  0  0  0  0  0  0  0
  152.1604  145.1556  158.9829 C   0  0  1  0  0  0  0  0  0  0  0  0
  151.8577  144.9208  160.4478 C   0  0  0  0  0  0  0  0  0  0  0  0
  151.9294  143.6057  160.6616 C   0  0  0  0  0  0  0  0  0  0  0  0
  152.2678  142.9519  159.3378 C   0  0  2  0  0  0  0  0  0  0  0  0
  153.1747  144.0352  158.7386 C   0  0  0  0  0  0  0  0  0  0  0  0
  145.0568  143.6420  155.2649 H   0  0  0  0  0  0  0  0  0  0  0  0
  145.0582  142.7148  153.7671 H   0  0  0  0  0  0  0  0  0  0  0  0
  146.5833  143.2135  154.4968 H   0  0  0  0  0  0  0  0  0  0  0  0
  146.0919  141.7275  156.4893 H   0  0  0  0  0  0  0  0  0  0  0  0
  144.5943  141.2363  155.7469 H   0  0  0  0  0  0  0  0  0  0  0  0
  148.6388  139.0753  153.2319 H   0  0  0  0  0  0  0  0  0  0  0  0
  148.8305  141.9105  153.3638 H   0  0  0  0  0  0  0  0  0  0  0  0
  147.9891  142.5468  154.7551 H   0  0  0  0  0  0  0  0  0  0  0  0
  149.6747  140.3074  155.5875 H   0  0  0  0  0  0  0  0  0  0  0  0
  150.6493  141.4616  154.6987 H   0  0  0  0  0  0  0  0  0  0  0  0
  149.5410  143.1585  156.1814 H   0  0  0  0  0  0  0  0  0  0  0  0
  151.3817  141.2088  157.3680 H   0  0  0  0  0  0  0  0  0  0  0  0
  151.8160  142.6484  156.4680 H   0  0  0  0  0  0  0  0  0  0  0  0
  150.1224  142.7891  158.9921 H   0  0  0  0  0  0  0  0  0  0  0  0
  151.1206  144.8313  157.0931 H   0  0  0  0  0  0  0  0  0  0  0  0
  150.0262  145.0630  158.4525 H   0  0  0  0  0  0  0  0  0  0  0  0
  152.5040  146.1614  158.7396 H   0  0  0  0  0  0  0  0  0  0  0  0
  151.6042  145.6947  161.1573 H   0  0  0  0  0  0  0  0  0  0  0  0
  151.7445  143.0746  161.5838 H   0  0  0  0  0  0  0  0  0  0  0  0
  152.7139  141.9609  159.4258 H   0  0  0  0  0  0  0  0  0  0  0  0
  153.4233  143.8861  157.6867 H   0  0  0  0  0  0  0  0  0  0  0  0
  154.1019  144.1717  159.2991 H   0  0  0  0  0  0  0  0  0  0  0  0
  149.0656  141.8940  157.1135 H   0  0  0  0  0  0  0  0  0  0  0  0
  1  2  1  0  0  0  0
  1 19  1  0  0  0  0
  1 20  1  0  0  0  0
  1 21  1  0  0  0  0
  2  3  1  0  0  0  0
  2 22  1  0  0  0  0
  2 23  1  0  0  0  0
  3  7  1  0  0  0  0
  3  4  2  0  0  0  0
  4  5  1  0  0  0  0
  5  6  2  0  0  0  0
  6  7  1  0  0  0  0
  6 24  1  0  0  0  0
  7  8  1  0  0  0  0
  8  9  1  0  0  0  0
  8 25  1  0  0  0  0
  8 26  1  0  0  0  0
  9 10  1  0  0  0  0
  9 27  1  0  0  0  0
  9 28  1  0  0  0  0
 10 11  1  0  0  0  0
 10 29  1  0  0  0  0
 10 41  1  0  0  0  0
 11 12  1  0  0  0  0
 11 30  1  0  0  0  0
 11 31  1  0  0  0  0
 12 17  1  0  0  0  0
 12 13  1  0  0  0  0
 12 32  1  0  0  0  0
 13 14  1  0  0  0  0
 13 33  1  0  0  0  0
 13 34  1  0  0  0  0
 14 18  1  0  0  0  0
 14 15  1  0  0  0  0
 14 35  1  0  0  0  0
 15 16  2  0  0  0  0
 15 36  1  0  0  0  0
 16 17  1  0  0  0  0
 16 37  1  0  0  0  0
 17 18  1  0  0  0  0
 17 38  1  0  0  0  0
 18 39  1  0  0  0  0
 18 40  1  0  0  0  0
M  CHG  1  10   1
M  END
> <s_m_source_file>
AV-unprocessed.smi

> <i_m_source_file_index>
3226

> <i_lp_mmshare_version>
43012

> <i_f3d_flags>
0

> <s_epik_input>
W0NIM11bQ0gyXWMxbm5bY0hdbjFbQ0gyXVtDSDJdW05IXVtDSDJdW0NASF0oW0NIMl1bQ0BASF0yMylbQ0BASF0oW0NIMl0zKVtDSF09W0NIXTI=

> <s_epik_cmdline>
J2VwaWtfcHl0aG9uJywgJy1waCcsICc3LjAnLCAnLXRuJywgJzgnLCAnLW1hJywgJzIwMCcsICctbWV0YWxfYmluZGluZycsICctaW1hZScsICc8aW5maWxlLm1hZT4nLCAnLW9tYWUnLCAnPG91dGZpbGUubWFlPic=

> <r_lp_tautomer_probability>
1

> <r_epik_Ionization_Penalty>
0.00175008

> <r_epik_Ionization_Penalty_Charging>
0.00173932

> <r_epik_Ionization_Penalty_Neutral>
1.07546e-05

> <r_epik_State_Penalty>
-0

> <r_epik_Charging_Adjusted_Penalty>
0.00173932

> <i_epik_Tot_Q>
1

> <i_epik_Tot_abs_Q>
1

> <r_epik_Metal_State_Penalty>
-0

> <b_epik_Metal_Only>
0

> <s_lp_Force_Field>
OPLS_2005

> <r_lp_Energy>
64.8147

> <b_lp_Chiralities_Consistent>
1

> <s_lp_Variant>
AV-unprocessed.smi:3226-1

> <Gold.Version>
5.8.1

> <Gold.Id.Protein>
6NUR|6NUR_protein|mol2

> <Gold.PLP.Fitness>
48.7481

> <Gold.PLP.PLP>
-40.9588

> <Gold.PLP.part.hbond>
-1.0000

> <Gold.PLP.part.metal>
0.0000

> <Gold.PLP.part.buried>
-4.8077

> <Gold.PLP.part.nonpolar>
-36.9819

> <Gold.PLP.part.repulsive>
0.8053

> <Gold.PLP.ligand.clash>
0.0000

> <Gold.PLP.ligand.torsion>
0.5924

> <Gold.PLP.Chemscore.Hbond>
2.0000

> <Gold.PLP.Chemscore.CHOScore>
0.9807

> <Gold.PLP.Chemscore.Metal>
0.0000

> <Gold.Chemscore.Hbonds>
donor molecule, donor type, donor heavy atom, donor atom, acceptor molecule, acceptor atom, score
      L1  H    10    29       P1  8028  2.00
      L1  C     6    24       P1  7957  0.97

> <Gold.PLP.Chemscore.Internal.Correction>
0.0321

> <Gold.Rescore>
     Score         DG    S(hbond)    S(metal)    S(lipo)     H(rot)  DE(clash)    DE(int)     intcor
     16.10     -16.89       1.00        0.00     114.07       2.06       0.05       0.74       ----

> <Gold.Chemscore.Fitness>
16.0967

> <Gold.Chemscore.DG>
-16.8862

> <Gold.Chemscore.ZeroCoef>
-5.4800

> <Gold.Chemscore.Hbond>
0.9999

> <Gold.Chemscore.Metal>
0.0000

> <Gold.Chemscore.Lipo>
114.0685

> <Gold.Chemscore.Internal_Hbond>
0.0000

> <Gold.Chemscore.DEClash>
0.0522

> <Gold.Chemscore.DEInternal>
0.7373

> <Gold.Chemscore.Rot>
2.0623

> <Gold.Chemscore.Internal.Correction>
   9.000000E+99

> <Gold.Chemscore.Hbonds>
donor molecule, donor type, donor heavy atom, donor atom, acceptor molecule, acceptor atom, score
      L1  H    10    29       P1  8028  1.00

> <Gold.Chemscore.Hbond.Weighted>
-3.3398

> <Gold.Chemscore.Metal.Weighted>
-0.0000

> <Gold.Chemscore.Lipo.Weighted>
-13.3460

> <Gold.Chemscore.Internal_Hbond.Weighted>
0.0000

> <Gold.Chemscore.DEClash.Weighted>
0.0522

> <Gold.Chemscore.DEInternal.Weighted>
0.7373

> <Gold.Chemscore.Rot.Weighted>
5.2796

> <Gold.Chemscore.Internal.Correction.Weighted>
   9.000000E+99

> <Gold.Protein.RotatedTorsions>
[ 6907 6896 6895 6894 ] final -155.63 input  -60.11 | X-H torsion
[ 7974 7965 7964 7962 ] final   86.98 input  175.53 | X-H torsion
[ 8008 7997 7996 7995 ] final -100.89 input   59.86 | X-H torsion
[ 10167 10162 10161 10158 ] final  -64.86 input  -65.29 | X-H torsion
[ 10718 10713 10712 10709 ] final -125.10 input   66.30 | X-H torsion
[ 10763 10752 10751 10750 ] final   17.29 input  -60.55 | X-H torsion
[ 11005 11000 10999 10996 ] final   87.91 input  -57.11 | X-H torsion

> <Gold.Protein.ActiveResidues>
 VAL166  LYS551  ARG553  GLY616  TRP617  ASP618  TYR619  PRO620  LYS621  CYS622 
 ASP623  PHE694  ASN695  SER759  ASP760  ASP761  ALA762  ILE779  LEU786  VAL792 
 PHE793  MET794  SER795  GLU796  ALA797  LYS798  CYS799  TRP800  GLU811  SER814 

> <Gold.Protein.RotatedAtoms>
  151.2754  133.4235  159.2623 H   0  0  0  0  0  0  0  0  0  0  0  0  # atno 6907 bound_to 6896
  151.0408  134.9606  159.8171 H   0  0  0  0  0  0  0  0  0  0  0  0  # atno 6908 bound_to 6896
  152.5364  134.2712  159.9024 H   0  0  0  0  0  0  0  0  0  0  0  0  # atno 6909 bound_to 6896
  145.5650  139.2307  143.2438 H   0  0  0  0  0  0  0  0  0  0  0  0  # atno 7974 bound_to 7965
  154.8349  140.0438  157.1502 H   0  0  0  0  0  0  0  0  0  0  0  0  # atno 8008 bound_to 7997
  154.9111  140.3014  155.5245 H   0  0  0  0  0  0  0  0  0  0  0  0  # atno 8009 bound_to 7997
  156.2989  140.2358  156.4150 H   0  0  0  0  0  0  0  0  0  0  0  0  # atno 8010 bound_to 7997
  140.5771  143.2323  151.6419 H   0  0  0  0  0  0  0  0  0  0  0  0  # atno 10167 bound_to 10162
  156.1646  130.6625  151.0097 H   0  0  0  0  0  0  0  0  0  0  0  0  # atno 10718 bound_to 10713
  153.1353  135.6748  153.9113 H   0  0  0  0  0  0  0  0  0  0  0  0  # atno 10763 bound_to 10752
  153.8587  135.3084  155.3438 H   0  0  0  0  0  0  0  0  0  0  0  0  # atno 10764 bound_to 10752
  154.7742  135.4923  153.9792 H   0  0  0  0  0  0  0  0  0  0  0  0  # atno 10765 bound_to 10752
  139.8908  134.8453  156.2926 H   0  0  0  0  0  0  0  0  0  0  0  0  # atno 11005 bound_to 11000
  146.1824  140.6476  142.9183 LP  0  0  0  0  0  0  0  0  0  0  0  0  # atno 17320 bound_to 7965
  144.7465  140.5080  143.6832 LP  0  0  0  0  0  0  0  0  0  0  0  0  # atno 17321 bound_to 7965
  139.5149  144.3397  152.0752 LP  0  0  0  0  0  0  0  0  0  0  0  0  # atno 17342 bound_to 10162
  140.2542  144.4137  150.6210 LP  0  0  0  0  0  0  0  0  0  0  0  0  # atno 17343 bound_to 10162
  157.6758  131.0850  150.7498 LP  0  0  0  0  0  0  0  0  0  0  0  0  # atno 17370 bound_to 10713
  156.7559  130.4783  149.5447 LP  0  0  0  0  0  0  0  0  0  0  0  0  # atno 17371 bound_to 10713
  140.9966  133.7176  156.0896 LP  0  0  0  0  0  0  0  0  0  0  0  0  # atno 17394 bound_to 11000
  140.7554  134.3999  157.5534 LP  0  0  0  0  0  0  0  0  0  0  0  0  # atno 17395 bound_to 11000

$$$$
