AV-unprocessed.smi:1218|AV-procd|sdf|5106|dock6
  -GOLD-   22720 4163D 1   1.00000     0.00000
 Structure written by MMmdl.
 45 46  0  0  0  0  0  0  0  0  2 V2000
  145.6817  131.1945  150.8868 C   0  0  0  0  0  0  0  0  0  0  0  0
  145.4588  132.5758  151.5208 C   0  0  0  0  0  0  0  0  0  0  0  0
  144.2818  133.2953  150.8408 C   0  0  0  0  0  0  0  0  0  0  0  0
  146.7544  133.4136  151.4631 C   0  0  0  0  0  0  0  0  0  0  0  0
  146.8191  134.4626  152.5132 N   0  3  1  0  0  0  0  0  0  0  0  0
  145.6736  135.4051  152.4816 C   0  0  0  0  0  0  0  0  0  0  0  0
  145.8247  136.4707  153.5783 C   0  0  0  0  0  0  0  0  0  0  0  0
  145.9484  135.8338  154.8423 O   0  0  0  0  0  0  0  0  0  0  0  0
  147.1073  135.0104  154.9256 C   0  0  1  0  0  0  0  0  0  0  0  0
  147.2163  134.4402  156.3514 C   0  0  0  0  0  0  0  0  0  0  0  0
  147.1016  135.4839  157.3653 N   0  0  0  0  0  0  0  0  0  0  0  0
  147.8591  135.5751  158.4694 C   0  0  0  0  0  0  0  0  0  0  0  0
  148.7448  134.7646  158.7458 O   0  0  0  0  0  0  0  0  0  0  0  0
  147.5554  136.7587  159.3958 C   0  0  0  0  0  0  0  0  0  0  0  0
  147.2597  136.3402  160.7565 N   0  0  0  0  0  0  0  0  0  0  0  0
  147.1288  135.0585  161.2507 C   0  0  0  0  0  0  0  0  0  0  0  0
  146.8494  135.1630  162.5831 C   0  0  0  0  0  0  0  0  0  0  0  0
  146.8325  136.5668  162.8157 C   0  0  0  0  0  0  0  0  0  0  0  0
  147.0809  137.2685  161.7217 N   0  0  0  0  0  0  0  0  0  0  0  0
  146.9824  133.8917  153.8720 C   0  0  0  0  0  0  0  0  0  0  0  0
  145.9507  131.2792  149.8334 H   0  0  0  0  0  0  0  0  0  0  0  0
  144.7824  130.5811  150.9517 H   0  0  0  0  0  0  0  0  0  0  0  0
  146.4829  130.6542  151.3923 H   0  0  0  0  0  0  0  0  0  0  0  0
  145.1894  132.4012  152.5621 H   0  0  0  0  0  0  0  0  0  0  0  0
  144.4928  133.4946  149.7895 H   0  0  0  0  0  0  0  0  0  0  0  0
  144.0631  134.2480  151.3232 H   0  0  0  0  0  0  0  0  0  0  0  0
  143.3740  132.6930  150.8875 H   0  0  0  0  0  0  0  0  0  0  0  0
  147.6326  132.7712  151.5455 H   0  0  0  0  0  0  0  0  0  0  0  0
  146.8141  133.8814  150.4791 H   0  0  0  0  0  0  0  0  0  0  0  0
  145.6072  135.8967  151.5117 H   0  0  0  0  0  0  0  0  0  0  0  0
  144.7421  134.8556  152.6261 H   0  0  0  0  0  0  0  0  0  0  0  0
  146.6899  137.1082  153.3896 H   0  0  0  0  0  0  0  0  0  0  0  0
  144.9485  137.1191  153.5948 H   0  0  0  0  0  0  0  0  0  0  0  0
  147.9955  135.6099  154.7166 H   0  0  0  0  0  0  0  0  0  0  0  0
  146.4725  133.6579  156.5130 H   0  0  0  0  0  0  0  0  0  0  0  0
  148.1898  133.9666  156.4821 H   0  0  0  0  0  0  0  0  0  0  0  0
  146.3962  136.1908  157.2157 H   0  0  0  0  0  0  0  0  0  0  0  0
  148.4080  137.4384  159.4253 H   0  0  0  0  0  0  0  0  0  0  0  0
  146.7097  137.3204  158.9956 H   0  0  0  0  0  0  0  0  0  0  0  0
  147.2407  134.1899  160.6186 H   0  0  0  0  0  0  0  0  0  0  0  0
  146.6818  134.3594  163.2845 H   0  0  0  0  0  0  0  0  0  0  0  0
  146.6489  137.0934  163.7407 H   0  0  0  0  0  0  0  0  0  0  0  0
  146.1294  133.2507  154.1015 H   0  0  0  0  0  0  0  0  0  0  0  0
  147.8734  133.2630  153.8988 H   0  0  0  0  0  0  0  0  0  0  0  0
  147.6537  135.0017  152.3314 H   0  0  0  0  0  0  0  0  0  0  0  0
  1  2  1  0  0  0  0
  1 21  1  0  0  0  0
  1 22  1  0  0  0  0
  1 23  1  0  0  0  0
  2  3  1  0  0  0  0
  2  4  1  0  0  0  0
  2 24  1  0  0  0  0
  3 25  1  0  0  0  0
  3 26  1  0  0  0  0
  3 27  1  0  0  0  0
  4  5  1  0  0  0  0
  4 28  1  0  0  0  0
  4 29  1  0  0  0  0
  5 20  1  0  0  0  0
  5  6  1  0  0  0  0
  5 45  1  0  0  0  0
  6  7  1  0  0  0  0
  6 30  1  0  0  0  0
  6 31  1  0  0  0  0
  7  8  1  0  0  0  0
  7 32  1  0  0  0  0
  7 33  1  0  0  0  0
  8  9  1  0  0  0  0
  9 10  1  0  0  0  0
  9 20  1  0  0  0  0
  9 34  1  0  0  0  0
 10 11  1  0  0  0  0
 10 35  1  0  0  0  0
 10 36  1  0  0  0  0
 11 12  1  0  0  0  0
 11 37  1  0  0  0  0
 12 13  2  0  0  0  0
 12 14  1  0  0  0  0
 14 15  1  0  0  0  0
 14 38  1  0  0  0  0
 14 39  1  0  0  0  0
 15 19  1  0  0  0  0
 15 16  1  0  0  0  0
 16 17  2  0  0  0  0
 16 40  1  0  0  0  0
 17 18  1  0  0  0  0
 17 41  1  0  0  0  0
 18 19  2  0  0  0  0
 18 42  1  0  0  0  0
 20 43  1  0  0  0  0
 20 44  1  0  0  0  0
M  CHG  1   5   1
M  END
> <s_m_source_file>
AV-unprocessed.smi

> <i_m_source_file_index>
1218

> <i_lp_mmshare_version>
43012

> <i_f3d_flags>
0

> <s_epik_input>
W0NIM11bQ0hdKFtDSDNdKVtDSDJdTjFbQ0gyXVtDSDJdT1tDQEhdKFtDSDJdMSlbQ0gyXVtOSF1DKD1PKVtDSDJdbjJbY0hdW2NIXVtjSF1uMg==

> <s_epik_cmdline>
J2VwaWtfcHl0aG9uJywgJy1waCcsICc3LjAnLCAnLXRuJywgJzgnLCAnLW1hJywgJzIwMCcsICctbWV0YWxfYmluZGluZycsICctaW1hZScsICc8aW5maWxlLm1hZT4nLCAnLW9tYWUnLCAnPG91dGZpbGUubWFlPic=

> <r_lp_tautomer_probability>
1

> <r_epik_Ionization_Penalty>
0.0995066

> <r_epik_Ionization_Penalty_Charging>
0.0994921

> <r_epik_Ionization_Penalty_Neutral>
1.44634e-05

> <r_epik_State_Penalty>
0.0895432

> <r_epik_Charging_Adjusted_Penalty>
0.189035

> <i_epik_Tot_Q>
1

> <i_epik_Tot_abs_Q>
1

> <r_epik_Metal_State_Penalty>
0.0895432

> <b_epik_Metal_Only>
0

> <s_lp_Force_Field>
OPLS_2005

> <r_lp_Energy>
18.9521

> <b_lp_Chiralities_Consistent>
1

> <s_lp_Variant>
AV-unprocessed.smi:1218-1

> <Gold.Version>
5.8.1

> <Gold.Id.Protein>
6NUR|6NUR_protein|mol2

> <Gold.PLP.Fitness>
46.7989

> <Gold.PLP.PLP>
-33.3738

> <Gold.PLP.part.hbond>
-4.0000

> <Gold.PLP.part.metal>
0.0000

> <Gold.PLP.part.buried>
-4.9694

> <Gold.PLP.part.nonpolar>
-24.3453

> <Gold.PLP.part.repulsive>
0.0527

> <Gold.PLP.ligand.clash>
0.0000

> <Gold.PLP.ligand.torsion>
0.4840

> <Gold.PLP.Chemscore.Hbond>
4.7440

> <Gold.PLP.Chemscore.CHOScore>
0.0000

> <Gold.PLP.Chemscore.Metal>
0.0000

> <Gold.Chemscore.Hbonds>
donor molecule, donor type, donor heavy atom, donor atom, acceptor molecule, acceptor atom, score
      L1  H     5    45       P1  7948  2.00
      P1  H  6896  6907       L1    13  0.73
      P1  H  6931  6943       L1    19  0.49
      P1  H  6934  6947       L1    19  0.91

> <Gold.PLP.Chemscore.Internal.Correction>
0.1611

> <Gold.Rescore>
     Score         DG    S(hbond)    S(metal)    S(lipo)     H(rot)  DE(clash)    DE(int)     intcor
     19.49     -20.15       3.42        0.00      70.72       1.96       0.00       0.65       ----

> <Gold.Chemscore.Fitness>
19.4938

> <Gold.Chemscore.DG>
-20.1451

> <Gold.Chemscore.ZeroCoef>
-5.4800

> <Gold.Chemscore.Hbond>
3.4174

> <Gold.Chemscore.Metal>
0.0000

> <Gold.Chemscore.Lipo>
70.7245

> <Gold.Chemscore.Internal_Hbond>
0.0000

> <Gold.Chemscore.DEClash>
0.0000

> <Gold.Chemscore.DEInternal>
0.6513

> <Gold.Chemscore.Rot>
1.9624

> <Gold.Chemscore.Internal.Correction>
   9.000000E+99

> <Gold.Chemscore.Hbonds>
donor molecule, donor type, donor heavy atom, donor atom, acceptor molecule, acceptor atom, score
      L1  H     5    45       P1  7948  0.94
      P1  H  6896  6907       L1    13  0.69
      P1  H  6931  6943       L1    19  0.17
      P1  H  6934  6947       L1    19  0.65

> <Gold.Chemscore.Hbond.Weighted>
-11.4140

> <Gold.Chemscore.Metal.Weighted>
-0.0000

> <Gold.Chemscore.Lipo.Weighted>
-8.2748

> <Gold.Chemscore.Internal_Hbond.Weighted>
0.0000

> <Gold.Chemscore.DEClash.Weighted>
0.0000

> <Gold.Chemscore.DEInternal.Weighted>
0.6513

> <Gold.Chemscore.Rot.Weighted>
5.0237

> <Gold.Chemscore.Internal.Correction.Weighted>
   9.000000E+99

> <Gold.Protein.RotatedTorsions>
[ 6907 6896 6895 6894 ] final -104.12 input  -60.11 | X-H torsion
[ 7974 7965 7964 7962 ] final   61.88 input  175.53 | X-H torsion
[ 8008 7997 7996 7995 ] final  -99.61 input   59.86 | X-H torsion
[ 10167 10162 10161 10158 ] final  161.72 input  -65.29 | X-H torsion
[ 10718 10713 10712 10709 ] final    9.25 input   66.30 | X-H torsion
[ 10763 10752 10751 10750 ] final -158.67 input  -60.55 | X-H torsion
[ 11005 11000 10999 10996 ] final  -72.91 input  -57.11 | X-H torsion

> <Gold.Protein.ActiveResidues>
 VAL166  LYS551  ARG553  GLY616  TRP617  ASP618  TYR619  PRO620  LYS621  CYS622 
 ASP623  PHE694  ASN695  SER759  ASP760  ASP761  ALA762  ILE779  LEU786  VAL792 
 PHE793  MET794  SER795  GLU796  ALA797  LYS798  CYS799  TRP800  GLU811  SER814 

> <Gold.Protein.RotatedAtoms>
  150.7272  134.0326  159.3738 H   0  0  0  0  0  0  0  0  0  0  0  0  # atno 6907 bound_to 6896
  151.8296  135.0623  160.0444 H   0  0  0  0  0  0  0  0  0  0  0  0  # atno 6908 bound_to 6896
  152.2943  133.5556  159.5614 H   0  0  0  0  0  0  0  0  0  0  0  0  # atno 6909 bound_to 6896
  145.8797  139.3434  143.0713 H   0  0  0  0  0  0  0  0  0  0  0  0  # atno 7974 bound_to 7965
  154.8173  140.0446  157.1385 H   0  0  0  0  0  0  0  0  0  0  0  0  # atno 8008 bound_to 7997
  154.9300  140.3038  155.5152 H   0  0  0  0  0  0  0  0  0  0  0  0  # atno 8009 bound_to 7997
  156.2977  140.2325  156.4359 H   0  0  0  0  0  0  0  0  0  0  0  0  # atno 8010 bound_to 7997
  139.4852  144.4509  151.8831 H   0  0  0  0  0  0  0  0  0  0  0  0  # atno 10167 bound_to 10162
  156.9636  130.5942  149.5664 H   0  0  0  0  0  0  0  0  0  0  0  0  # atno 10718 bound_to 10713
  154.7538  135.3099  154.8508 H   0  0  0  0  0  0  0  0  0  0  0  0  # atno 10763 bound_to 10752
  153.9288  135.6787  153.4750 H   0  0  0  0  0  0  0  0  0  0  0  0  # atno 10764 bound_to 10752
  153.1134  135.4855  154.9004 H   0  0  0  0  0  0  0  0  0  0  0  0  # atno 10765 bound_to 10752
  141.1615  133.6861  156.7132 H   0  0  0  0  0  0  0  0  0  0  0  0  # atno 11005 bound_to 11000
  145.9039  140.9225  143.0489 LP  0  0  0  0  0  0  0  0  0  0  0  0  # atno 17320 bound_to 7965
  144.6727  140.1069  143.7457 LP  0  0  0  0  0  0  0  0  0  0  0  0  # atno 17321 bound_to 7965
  140.3966  144.2547  150.5896 LP  0  0  0  0  0  0  0  0  0  0  0  0  # atno 17342 bound_to 10162
  140.5097  143.2294  151.8555 LP  0  0  0  0  0  0  0  0  0  0  0  0  # atno 17343 bound_to 10162
  156.0312  130.5403  150.8538 LP  0  0  0  0  0  0  0  0  0  0  0  0  # atno 17370 bound_to 10713
  157.5641  131.0946  150.9516 LP  0  0  0  0  0  0  0  0  0  0  0  0  # atno 17371 bound_to 10713
  140.2872  134.8270  157.3985 LP  0  0  0  0  0  0  0  0  0  0  0  0  # atno 17394 bound_to 11000
  140.1380  134.5009  155.8054 LP  0  0  0  0  0  0  0  0  0  0  0  0  # atno 17395 bound_to 11000

$$$$
