AV-unprocessed.smi:1730|AV-procd|sdf|6970|dock3
  -GOLD-   22720 8183D 1   1.00000     0.00000
 Structure written by MMmdl.
 38 39  0  0  0  0  0  0  0  0  1 V2000
  151.7863  138.4551  154.2545 C   0  0  0  0  0  0  0  0  0  0  0  0
  150.4279  138.3810  153.8359 O   0  0  0  0  0  0  0  0  0  0  0  0
  149.6147  139.4802  154.0366 C   0  0  0  0  0  0  0  0  0  0  0  0
  150.1439  140.5727  154.6427 N   0  0  0  0  0  0  0  0  0  0  0  0
  149.3505  141.6454  154.8406 C   0  0  0  0  0  0  0  0  0  0  0  0
  147.9978  141.6848  154.4558 C   0  0  0  0  0  0  0  0  0  0  0  0
  147.4463  140.5527  153.8281 C   0  0  0  0  0  0  0  0  0  0  0  0
  148.2709  139.4249  153.5989 C   0  0  0  0  0  0  0  0  0  0  0  0
  147.8098  138.2259  152.9899 N   0  0  0  0  0  0  0  0  0  0  0  0
  146.5474  137.7813  152.8743 C   0  0  0  0  0  0  0  0  0  0  0  0
  145.5470  138.3693  153.2847 O   0  0  0  0  0  0  0  0  0  0  0  0
  146.5082  136.6096  152.2237 N   0  0  0  0  0  0  0  0  0  0  0  0
  145.3041  135.8421  151.9089 C   0  0  2  0  0  0  0  0  0  0  0  0
  144.6683  135.3605  153.2213 C   0  0  0  0  0  0  0  0  0  0  0  0
  145.6458  134.6673  150.9694 C   0  0  2  0  0  0  0  0  0  0  0  0
  144.4651  133.7642  150.6063 C   0  0  0  0  0  0  0  0  0  0  0  0
  145.1690  132.4840  150.2190 C   0  0  0  0  0  0  0  0  0  0  0  0
  146.3127  132.4357  151.2279 C   0  0  0  0  0  0  0  0  0  0  0  0
  146.5842  133.7887  151.5862 O   0  0  0  0  0  0  0  0  0  0  0  0
  152.2880  137.5175  154.0162 H   0  0  0  0  0  0  0  0  0  0  0  0
  151.8652  138.6080  155.3317 H   0  0  0  0  0  0  0  0  0  0  0  0
  152.3187  139.2555  153.7383 H   0  0  0  0  0  0  0  0  0  0  0  0
  149.8061  142.4956  155.3261 H   0  0  0  0  0  0  0  0  0  0  0  0
  147.3956  142.5614  154.6424 H   0  0  0  0  0  0  0  0  0  0  0  0
  146.4038  140.5658  153.5493 H   0  0  0  0  0  0  0  0  0  0  0  0
  148.5185  137.6808  152.5211 H   0  0  0  0  0  0  0  0  0  0  0  0
  147.3848  136.2125  151.9191 H   0  0  0  0  0  0  0  0  0  0  0  0
  144.5753  136.4809  151.4067 H   0  0  0  0  0  0  0  0  0  0  0  0
  143.7467  134.8088  153.0341 H   0  0  0  0  0  0  0  0  0  0  0  0
  144.4187  136.2025  153.8679 H   0  0  0  0  0  0  0  0  0  0  0  0
  145.3421  134.7041  153.7732 H   0  0  0  0  0  0  0  0  0  0  0  0
  146.0980  135.0418  150.0493 H   0  0  0  0  0  0  0  0  0  0  0  0
  143.8287  133.5927  151.4759 H   0  0  0  0  0  0  0  0  0  0  0  0
  143.8477  134.1702  149.8045 H   0  0  0  0  0  0  0  0  0  0  0  0
  144.5233  131.6066  150.2632 H   0  0  0  0  0  0  0  0  0  0  0  0
  145.5643  132.5676  149.2059 H   0  0  0  0  0  0  0  0  0  0  0  0
  146.0095  131.8957  152.1254 H   0  0  0  0  0  0  0  0  0  0  0  0
  147.1990  131.9476  150.8224 H   0  0  0  0  0  0  0  0  0  0  0  0
  1  2  1  0  0  0  0
  1 20  1  0  0  0  0
  1 21  1  0  0  0  0
  1 22  1  0  0  0  0
  2  3  1  0  0  0  0
  3  8  1  0  0  0  0
  3  4  2  0  0  0  0
  4  5  1  0  0  0  0
  5  6  2  0  0  0  0
  5 23  1  0  0  0  0
  6  7  1  0  0  0  0
  6 24  1  0  0  0  0
  7  8  2  0  0  0  0
  7 25  1  0  0  0  0
  8  9  1  0  0  0  0
  9 10  1  0  0  0  0
  9 26  1  0  0  0  0
 10 11  2  0  0  0  0
 10 12  1  0  0  0  0
 12 13  1  0  0  0  0
 12 27  1  0  0  0  0
 13 14  1  0  0  0  0
 13 15  1  0  0  0  0
 13 28  1  0  0  0  0
 14 29  1  0  0  0  0
 14 30  1  0  0  0  0
 14 31  1  0  0  0  0
 15 19  1  0  0  0  0
 15 16  1  0  0  0  0
 15 32  1  0  0  0  0
 16 17  1  0  0  0  0
 16 33  1  0  0  0  0
 16 34  1  0  0  0  0
 17 18  1  0  0  0  0
 17 35  1  0  0  0  0
 17 36  1  0  0  0  0
 18 19  1  0  0  0  0
 18 37  1  0  0  0  0
 18 38  1  0  0  0  0
M  END
> <s_m_source_file>
AV-unprocessed.smi

> <i_m_source_file_index>
1730

> <i_lp_mmshare_version>
43012

> <i_f3d_flags>
0

> <s_epik_input>
W0NIM11PYzFuW2NIXVtjSF1bY0hdYzFbTkhdQyg9TylbTkhdW0NASF0oW0NIM10pW0NAQEhdMltDSDJdW0NIMl1bQ0gyXU8y

> <s_epik_cmdline>
J2VwaWtfcHl0aG9uJywgJy1waCcsICc3LjAnLCAnLXRuJywgJzgnLCAnLW1hJywgJzIwMCcsICctbWV0YWxfYmluZGluZycsICctaW1hZScsICc8aW5maWxlLm1hZT4nLCAnLW9tYWUnLCAnPG91dGZpbGUubWFlPic=

> <r_lp_tautomer_probability>
1

> <r_epik_Ionization_Penalty>
9.187e-05

> <r_epik_Ionization_Penalty_Charging>
0

> <r_epik_Ionization_Penalty_Neutral>
9.187e-05

> <r_epik_State_Penalty>
-0

> <r_epik_Charging_Adjusted_Penalty>
0

> <i_epik_Tot_Q>
0

> <i_epik_Tot_abs_Q>
0

> <r_epik_Metal_State_Penalty>
-0

> <b_epik_Metal_Only>
0

> <s_lp_Force_Field>
OPLS_2005

> <r_lp_Energy>
20.3341

> <b_lp_Chiralities_Consistent>
1

> <s_lp_Variant>
AV-unprocessed.smi:1730-1

> <Gold.Version>
5.8.1

> <Gold.Id.Protein>
6NUR|6NUR_protein|mol2

> <Gold.PLP.Fitness>
42.4125

> <Gold.PLP.PLP>
-31.0624

> <Gold.PLP.part.hbond>
-3.6422

> <Gold.PLP.part.metal>
0.0000

> <Gold.PLP.part.buried>
-1.9575

> <Gold.PLP.part.nonpolar>
-28.6587

> <Gold.PLP.part.repulsive>
2.8038

> <Gold.PLP.ligand.clash>
0.0000

> <Gold.PLP.ligand.torsion>
0.1567

> <Gold.PLP.Chemscore.Hbond>
2.9440

> <Gold.PLP.Chemscore.CHOScore>
0.9389

> <Gold.PLP.Chemscore.Metal>
0.0000

> <Gold.Chemscore.Hbonds>
donor molecule, donor type, donor heavy atom, donor atom, acceptor molecule, acceptor atom, score
      L1  H     9    26       P1  7948  0.98
      L1  H    12    27       P1  7948  1.00
      P1  H  7989  7998       L1     4  0.88
      L1  C     5    23       P1  8028  0.97

> <Gold.PLP.Chemscore.Internal.Correction>
0.0150

> <Gold.Rescore>
     Score         DG    S(hbond)    S(metal)    S(lipo)     H(rot)  DE(clash)    DE(int)     intcor
     14.21     -17.26       2.08        0.00      73.55       1.47       1.58       1.47       ----

> <Gold.Chemscore.Fitness>
14.2093

> <Gold.Chemscore.DG>
-17.2578

> <Gold.Chemscore.ZeroCoef>
-5.4800

> <Gold.Chemscore.Hbond>
2.0761

> <Gold.Chemscore.Metal>
0.0000

> <Gold.Chemscore.Lipo>
73.5469

> <Gold.Chemscore.Internal_Hbond>
0.0000

> <Gold.Chemscore.DEClash>
1.5810

> <Gold.Chemscore.DEInternal>
1.4676

> <Gold.Chemscore.Rot>
1.4693

> <Gold.Chemscore.Internal.Correction>
   9.000000E+99

> <Gold.Chemscore.Hbonds>
donor molecule, donor type, donor heavy atom, donor atom, acceptor molecule, acceptor atom, score
      L1  H     9    26       P1  7948  0.93
      L1  H    12    27       P1  7948  0.91
      P1  H  7989  7998       L1     4  0.19

> <Gold.Chemscore.Hbond.Weighted>
-6.9341

> <Gold.Chemscore.Metal.Weighted>
-0.0000

> <Gold.Chemscore.Lipo.Weighted>
-8.6050

> <Gold.Chemscore.Internal_Hbond.Weighted>
0.0000

> <Gold.Chemscore.DEClash.Weighted>
1.5810

> <Gold.Chemscore.DEInternal.Weighted>
1.4676

> <Gold.Chemscore.Rot.Weighted>
3.7613

> <Gold.Chemscore.Internal.Correction.Weighted>
   9.000000E+99

> <Gold.Protein.RotatedTorsions>
[ 6907 6896 6895 6894 ] final   -3.02 input  -60.11 | X-H torsion
[ 7974 7965 7964 7962 ] final -128.29 input  175.53 | X-H torsion
[ 8008 7997 7996 7995 ] final -153.07 input   59.86 | X-H torsion
[ 10167 10162 10161 10158 ] final  124.05 input  -65.29 | X-H torsion
[ 10718 10713 10712 10709 ] final  -35.53 input   66.30 | X-H torsion
[ 10763 10752 10751 10750 ] final  128.71 input  -60.55 | X-H torsion
[ 11005 11000 10999 10996 ] final  121.58 input  -57.11 | X-H torsion

> <Gold.Protein.ActiveResidues>
 VAL166  LYS551  ARG553  GLY616  TRP617  ASP618  TYR619  PRO620  LYS621  CYS622 
 ASP623  PHE694  ASN695  SER759  ASP760  ASP761  ALA762  ILE779  LEU786  VAL792 
 PHE793  MET794  SER795  GLU796  ALA797  LYS798  CYS799  TRP800  GLU811  SER814 

> <Gold.Protein.RotatedAtoms>
  151.5204  135.1067  159.9876 H   0  0  0  0  0  0  0  0  0  0  0  0  # atno 6907 bound_to 6896
  152.4623  133.7844  159.6878 H   0  0  0  0  0  0  0  0  0  0  0  0  # atno 6908 bound_to 6896
  150.8590  133.7607  159.3024 H   0  0  0  0  0  0  0  0  0  0  0  0  # atno 6909 bound_to 6896
  144.9685  140.7521  143.4685 H   0  0  0  0  0  0  0  0  0  0  0  0  # atno 7974 bound_to 7965
  155.6650  140.0727  157.2540 H   0  0  0  0  0  0  0  0  0  0  0  0  # atno 8008 bound_to 7997
  154.4134  140.1709  156.1869 H   0  0  0  0  0  0  0  0  0  0  0  0  # atno 8009 bound_to 7997
  155.9665  140.3365  155.6540 H   0  0  0  0  0  0  0  0  0  0  0  0  # atno 8010 bound_to 7997
  139.5764  144.6965  151.3642 H   0  0  0  0  0  0  0  0  0  0  0  0  # atno 10167 bound_to 10162
  156.3376  130.4288  149.7816 H   0  0  0  0  0  0  0  0  0  0  0  0  # atno 10718 bound_to 10713
  153.7299  135.3240  155.3284 H   0  0  0  0  0  0  0  0  0  0  0  0  # atno 10763 bound_to 10752
  154.8329  135.4519  154.1132 H   0  0  0  0  0  0  0  0  0  0  0  0  # atno 10764 bound_to 10752
  153.2277  135.6956  153.8007 H   0  0  0  0  0  0  0  0  0  0  0  0  # atno 10765 bound_to 10752
  139.9232  134.9639  156.7980 H   0  0  0  0  0  0  0  0  0  0  0  0  # atno 11005 bound_to 11000
  145.2593  139.1999  143.4900 LP  0  0  0  0  0  0  0  0  0  0  0  0  # atno 17320 bound_to 7965
  146.3375  140.2520  142.8599 LP  0  0  0  0  0  0  0  0  0  0  0  0  # atno 17321 bound_to 7965
  140.7046  143.7546  150.7460 LP  0  0  0  0  0  0  0  0  0  0  0  0  # atno 17342 bound_to 10162
  140.1066  143.4738  152.2394 LP  0  0  0  0  0  0  0  0  0  0  0  0  # atno 17343 bound_to 10162
  156.5065  130.8152  151.3152 LP  0  0  0  0  0  0  0  0  0  0  0  0  # atno 17370 bound_to 10713
  157.7441  130.9928  150.2648 LP  0  0  0  0  0  0  0  0  0  0  0  0  # atno 17371 bound_to 10713
  140.6413  133.9816  155.7709 LP  0  0  0  0  0  0  0  0  0  0  0  0  # atno 17394 bound_to 11000
  141.0769  134.0121  157.3444 LP  0  0  0  0  0  0  0  0  0  0  0  0  # atno 17395 bound_to 11000

$$$$
