AV-unprocessed.smi:2451|AV-procd|sdf|9682|dock9
  -GOLD-   2272013323D 1   1.00000     0.00000
 Structure written by MMmdl.
 37 38  0  0  0  0  0  0  0  0  2 V2000
  151.8969  145.8319  160.1325 C   0  0  0  0  0  0  0  0  0  0  0  0
  152.3866  144.4161  159.7717 C   0  0  1  0  0  0  0  0  0  0  0  0
  152.2126  143.5003  161.0088 C   0  0  0  0  0  0  0  0  0  0  0  0
  152.6852  142.0722  160.6870 C   0  0  0  0  0  0  0  0  0  0  0  0
  151.9594  141.4891  159.4561 C   0  0  0  0  0  0  0  0  0  0  0  0
  152.1135  142.3600  158.1873 C   0  0  1  0  0  0  0  0  0  0  0  0
  151.2911  141.7971  157.1243 N   0  5  0  0  0  0  0  0  0  0  0  0
  151.5560  140.2758  156.6317 S   0  0  0  0  0  0  0  0  0  0  0  0
  151.3234  140.1000  155.1886 O   0  0  0  0  0  0  0  0  0  0  0  0
  152.8012  139.7133  157.1801 O   0  0  0  0  0  0  0  0  0  0  0  0
  150.1758  139.3992  157.4842 C   0  0  0  0  0  0  0  0  0  0  0  0
  150.3288  137.9114  157.3302 C   0  0  0  0  0  0  0  0  0  0  0  0
  150.4236  137.1480  156.1331 C   0  0  0  0  0  0  0  0  0  0  0  0
  150.5545  135.8654  156.5811 C   0  0  0  0  0  0  0  0  0  0  0  0
  150.5525  135.8330  157.9373 O   0  0  0  0  0  0  0  0  0  0  0  0
  150.4108  137.1439  158.4066 N   0  0  0  0  0  0  0  0  0  0  0  0
  151.6950  143.8397  158.4844 C   0  0  2  0  0  0  0  0  0  0  0  0
  151.9416  144.7593  157.2584 C   0  0  0  0  0  0  0  0  0  0  0  0
  150.8119  145.8611  160.2388 H   0  0  0  0  0  0  0  0  0  0  0  0
  152.1841  146.5676  159.3824 H   0  0  0  0  0  0  0  0  0  0  0  0
  152.3293  146.1668  161.0756 H   0  0  0  0  0  0  0  0  0  0  0  0
  153.4588  144.4964  159.5791 H   0  0  0  0  0  0  0  0  0  0  0  0
  152.7751  143.8916  161.8571 H   0  0  0  0  0  0  0  0  0  0  0  0
  151.1646  143.4791  161.3108 H   0  0  0  0  0  0  0  0  0  0  0  0
  153.7658  142.0680  160.5296 H   0  0  0  0  0  0  0  0  0  0  0  0
  152.5072  141.4295  161.5497 H   0  0  0  0  0  0  0  0  0  0  0  0
  152.3347  140.4838  159.2605 H   0  0  0  0  0  0  0  0  0  0  0  0
  150.9009  141.3765  159.6973 H   0  0  0  0  0  0  0  0  0  0  0  0
  153.1710  142.3674  157.9187 H   0  0  0  0  0  0  0  0  0  0  0  0
  150.1850  139.6872  158.5349 H   0  0  0  0  0  0  0  0  0  0  0  0
  149.2372  139.7487  157.0528 H   0  0  0  0  0  0  0  0  0  0  0  0
  150.3920  137.4896  155.1091 H   0  0  0  0  0  0  0  0  0  0  0  0
  150.6573  134.9124  156.0835 H   0  0  0  0  0  0  0  0  0  0  0  0
  150.6206  143.8391  158.6758 H   0  0  0  0  0  0  0  0  0  0  0  0
  153.0054  144.8746  157.0423 H   0  0  0  0  0  0  0  0  0  0  0  0
  151.5337  145.7559  157.4187 H   0  0  0  0  0  0  0  0  0  0  0  0
  151.4587  144.3958  156.3492 H   0  0  0  0  0  0  0  0  0  0  0  0
  1  2  1  0  0  0  0
  1 19  1  0  0  0  0
  1 20  1  0  0  0  0
  1 21  1  0  0  0  0
  2 17  1  0  0  0  0
  2  3  1  0  0  0  0
  2 22  1  0  0  0  0
  3  4  1  0  0  0  0
  3 23  1  0  0  0  0
  3 24  1  0  0  0  0
  4  5  1  0  0  0  0
  4 25  1  0  0  0  0
  4 26  1  0  0  0  0
  5  6  1  0  0  0  0
  5 27  1  0  0  0  0
  5 28  1  0  0  0  0
  6  7  1  0  0  0  0
  6 17  1  0  0  0  0
  6 29  1  0  0  0  0
  7  8  1  0  0  0  0
  8  9  2  0  0  0  0
  8 10  2  0  0  0  0
  8 11  1  0  0  0  0
 11 12  1  0  0  0  0
 11 30  1  0  0  0  0
 11 31  1  0  0  0  0
 12 16  2  0  0  0  0
 12 13  1  0  0  0  0
 13 14  2  0  0  0  0
 13 32  1  0  0  0  0
 14 15  1  0  0  0  0
 14 33  1  0  0  0  0
 15 16  1  0  0  0  0
 17 18  1  0  0  0  0
 17 34  1  0  0  0  0
 18 35  1  0  0  0  0
 18 36  1  0  0  0  0
 18 37  1  0  0  0  0
M  CHG  1   7  -1
M  END
> <s_m_source_file>
AV-unprocessed.smi

> <i_m_source_file_index>
2451

> <i_lp_mmshare_version>
43012

> <i_f3d_flags>
0

> <s_epik_input>
W0NIM11bQ0BASF0xW0NIMl1bQ0gyXVtDSDJdW0NASF0oW0NASF0xW0NIM10pW05IXVMoPU8pKD1PKVtDSDJdYzJbY0hdW2NIXW9uMg==

> <s_epik_cmdline>
J2VwaWtfcHl0aG9uJywgJy1waCcsICc3LjAnLCAnLXRuJywgJzgnLCAnLW1hJywgJzIwMCcsICctbWV0YWxfYmluZGluZycsICctaW1hZScsICc8aW5maWxlLm1hZT4nLCAnLW9tYWUnLCAnPG91dGZpbGUubWFlPic=

> <r_lp_tautomer_probability>
1

> <r_epik_Ionization_Penalty>
5.22693

> <r_epik_Ionization_Penalty_Charging>
5.22693

> <r_epik_Ionization_Penalty_Neutral>
2.67702e-10

> <r_epik_State_Penalty>
5.22685

> <r_epik_Charging_Adjusted_Penalty>
10.4538

> <i_epik_Tot_Q>
-1

> <i_epik_Tot_abs_Q>
1

> <r_epik_Metal_State_Penalty>
1.28716

> <b_epik_Metal_Only>
1

> <s_lp_Force_Field>
OPLS_2005

> <r_lp_Energy>
12.2025

> <b_lp_Chiralities_Consistent>
1

> <s_lp_Variant>
AV-unprocessed.smi:2451-14

> <Gold.Version>
5.8.1

> <Gold.Id.Protein>
6NUR|6NUR_protein|mol2

> <Gold.PLP.Fitness>
42.6999

> <Gold.PLP.PLP>
-34.9842

> <Gold.PLP.part.hbond>
-3.0000

> <Gold.PLP.part.metal>
0.0000

> <Gold.PLP.part.buried>
-5.4111

> <Gold.PLP.part.nonpolar>
-25.3293

> <Gold.PLP.part.repulsive>
0.0800

> <Gold.PLP.ligand.clash>
0.0000

> <Gold.PLP.ligand.torsion>
0.5981

> <Gold.PLP.Chemscore.Hbond>
2.6400

> <Gold.PLP.Chemscore.CHOScore>
0.0000

> <Gold.PLP.Chemscore.Metal>
0.0000

> <Gold.Chemscore.Hbonds>
donor molecule, donor type, donor heavy atom, donor atom, acceptor molecule, acceptor atom, score
      P1  H  6896  6907       L1    15  0.64
      P1  H  7989  7998       L1     9  1.00
      P1  H  7997  8010       L1    10  1.00

> <Gold.PLP.Chemscore.Internal.Correction>
0.9918

> <Gold.Rescore>
     Score         DG    S(hbond)    S(metal)    S(lipo)     H(rot)  DE(clash)    DE(int)     intcor
     20.34     -23.22       2.79        0.00     102.53       1.40       1.10       1.78       ----

> <Gold.Chemscore.Fitness>
20.3450

> <Gold.Chemscore.DG>
-23.2226

> <Gold.Chemscore.ZeroCoef>
-5.4800

> <Gold.Chemscore.Hbond>
2.7925

> <Gold.Chemscore.Metal>
0.0000

> <Gold.Chemscore.Lipo>
102.5312

> <Gold.Chemscore.Internal_Hbond>
0.0000

> <Gold.Chemscore.DEClash>
1.0994

> <Gold.Chemscore.DEInternal>
1.7783

> <Gold.Chemscore.Rot>
1.3986

> <Gold.Chemscore.Internal.Correction>
   9.000000E+99

> <Gold.Chemscore.Hbonds>
donor molecule, donor type, donor heavy atom, donor atom, acceptor molecule, acceptor atom, score
      P1  H  6896  6907       L1    15  0.21
      P1  H  7989  7998       L1     9  0.98
      P1  H  7997  8010       L1    10  1.00

> <Gold.Chemscore.Hbond.Weighted>
-9.3269

> <Gold.Chemscore.Metal.Weighted>
-0.0000

> <Gold.Chemscore.Lipo.Weighted>
-11.9961

> <Gold.Chemscore.Internal_Hbond.Weighted>
0.0000

> <Gold.Chemscore.DEClash.Weighted>
1.0994

> <Gold.Chemscore.DEInternal.Weighted>
1.7783

> <Gold.Chemscore.Rot.Weighted>
3.5804

> <Gold.Chemscore.Internal.Correction.Weighted>
   9.000000E+99

> <Gold.Protein.RotatedTorsions>
[ 6907 6896 6895 6894 ] final  -53.26 input  -60.11 | X-H torsion
[ 7974 7965 7964 7962 ] final -103.74 input  175.53 | X-H torsion
[ 8008 7997 7996 7995 ] final   60.04 input   59.86 | X-H torsion
[ 10167 10162 10161 10158 ] final   -8.95 input  -65.29 | X-H torsion
[ 10718 10713 10712 10709 ] final  -74.78 input   66.30 | X-H torsion
[ 10763 10752 10751 10750 ] final   60.30 input  -60.55 | X-H torsion
[ 11005 11000 10999 10996 ] final  -90.04 input  -57.11 | X-H torsion

> <Gold.Protein.ActiveResidues>
 VAL166  LYS551  ARG553  GLY616  TRP617  ASP618  TYR619  PRO620  LYS621  CYS622 
 ASP623  PHE694  ASN695  SER759  ASP760  ASP761  ALA762  ILE779  LEU786  VAL792 
 PHE793  MET794  SER795  GLU796  ALA797  LYS798  CYS799  TRP800  GLU811  SER814 

> <Gold.Protein.RotatedAtoms>
  150.8443  134.7746  159.6957 H   0  0  0  0  0  0  0  0  0  0  0  0  # atno 6907 bound_to 6896
  152.4523  134.5363  159.9836 H   0  0  0  0  0  0  0  0  0  0  0  0  # atno 6908 bound_to 6896
  151.5497  133.3381  159.2986 H   0  0  0  0  0  0  0  0  0  0  0  0  # atno 6909 bound_to 6896
  145.2520  140.9241  143.3089 H   0  0  0  0  0  0  0  0  0  0  0  0  # atno 7974 bound_to 7965
  155.5759  140.3490  155.4527 H   0  0  0  0  0  0  0  0  0  0  0  0  # atno 8008 bound_to 7997
  156.0409  140.1295  157.0182 H   0  0  0  0  0  0  0  0  0  0  0  0  # atno 8009 bound_to 7997
  154.4391  140.1024  156.6221 H   0  0  0  0  0  0  0  0  0  0  0  0  # atno 8010 bound_to 7997
  140.7074  143.5911  150.8892 H   0  0  0  0  0  0  0  0  0  0  0  0  # atno 10167 bound_to 10162
  156.0230  130.4425  150.2944 H   0  0  0  0  0  0  0  0  0  0  0  0  # atno 10718 bound_to 10713
  152.9917  135.5541  154.5851 H   0  0  0  0  0  0  0  0  0  0  0  0  # atno 10763 bound_to 10752
  154.5225  135.2808  155.1253 H   0  0  0  0  0  0  0  0  0  0  0  0  # atno 10764 bound_to 10752
  154.2600  135.6383  153.5324 H   0  0  0  0  0  0  0  0  0  0  0  0  # atno 10765 bound_to 10752
  141.1573  133.7667  156.9681 H   0  0  0  0  0  0  0  0  0  0  0  0  # atno 11005 bound_to 11000
  144.9494  139.4100  143.6410 LP  0  0  0  0  0  0  0  0  0  0  0  0  # atno 17320 bound_to 7965
  146.3300  139.8494  142.8876 LP  0  0  0  0  0  0  0  0  0  0  0  0  # atno 17321 bound_to 7965
  139.9637  143.6135  152.2995 LP  0  0  0  0  0  0  0  0  0  0  0  0  # atno 17342 bound_to 10162
  139.6697  144.7661  151.1807 LP  0  0  0  0  0  0  0  0  0  0  0  0  # atno 17343 bound_to 10162
  157.1047  131.0205  151.3071 LP  0  0  0  0  0  0  0  0  0  0  0  0  # atno 17370 bound_to 10713
  157.4752  130.7732  149.7361 LP  0  0  0  0  0  0  0  0  0  0  0  0  # atno 17371 bound_to 10713
  140.1148  134.9454  157.2118 LP  0  0  0  0  0  0  0  0  0  0  0  0  # atno 17394 bound_to 11000
  140.3147  134.2984  155.7259 LP  0  0  0  0  0  0  0  0  0  0  0  0  # atno 17395 bound_to 11000

$$$$
