AV-unprocessed.smi:1554|AV-procd|sdf|6246|dock3
  -GOLD-   22720 6433D 1   1.00000     0.00000
 Structure written by MMmdl.
 48 50  0  0  0  0  0  0  0  0  2 V2000
  152.6363  142.8559  161.6448 C   0  0  0  0  0  0  0  0  0  0  0  0
  152.1033  142.6294  160.2408 C   0  0  0  0  0  0  0  0  0  0  0  0
  152.4819  141.4605  159.5428 C   0  0  0  0  0  0  0  0  0  0  0  0
  152.0060  141.2104  158.2372 C   0  0  0  0  0  0  0  0  0  0  0  0
  152.2433  140.1486  157.3812 N   0  0  0  0  0  0  0  0  0  0  0  0
  151.5180  140.4915  156.3208 C   0  0  0  0  0  0  0  0  0  0  0  0
  150.8351  141.6507  156.3898 N   0  0  0  0  0  0  0  0  0  0  0  0
  149.9767  142.2279  155.3713 C   0  0  0  0  0  0  0  0  0  0  0  0
  149.0209  141.1885  154.7549 C   0  0  2  0  0  0  0  0  0  0  0  0
  149.4020  140.9384  153.4150 O   0  0  0  0  0  0  0  0  0  0  0  0
  147.5571  141.6700  154.7751 C   0  0  0  0  0  0  0  0  0  0  0  0
  146.7609  141.0133  155.8469 N   0  3  2  0  0  0  0  0  0  0  0  0
  145.2964  141.0611  155.6171 C   0  0  0  0  0  0  0  0  0  0  0  0
  144.7215  142.4423  155.9775 C   0  0  0  0  0  0  0  0  0  0  0  0
  145.0384  142.7475  157.3299 O   0  0  0  0  0  0  0  0  0  0  0  0
  146.4414  142.8216  157.5581 C   0  0  1  0  0  0  0  0  0  0  0  0
  146.6643  143.2216  159.0206 C   0  0  0  0  0  0  0  0  0  0  0  0
  147.0862  141.4572  157.2273 C   0  0  0  0  0  0  0  0  0  0  0  0
  151.1323  142.1687  157.6454 C   0  0  0  0  0  0  0  0  0  0  0  0
  150.7496  143.3364  158.3285 C   0  0  0  0  0  0  0  0  0  0  0  0
  151.2358  143.5715  159.6316 C   0  0  0  0  0  0  0  0  0  0  0  0
  150.8175  144.8351  160.3623 C   0  0  0  0  0  0  0  0  0  0  0  0
  153.2896  142.0413  161.9590 H   0  0  0  0  0  0  0  0  0  0  0  0
  151.8150  142.9198  162.3587 H   0  0  0  0  0  0  0  0  0  0  0  0
  153.2103  143.7814  161.6922 H   0  0  0  0  0  0  0  0  0  0  0  0
  153.1428  140.7430  160.0064 H   0  0  0  0  0  0  0  0  0  0  0  0
  151.4766  139.8610  155.4448 H   0  0  0  0  0  0  0  0  0  0  0  0
  149.4080  143.0378  155.8297 H   0  0  0  0  0  0  0  0  0  0  0  0
  150.6014  142.6821  154.6007 H   0  0  0  0  0  0  0  0  0  0  0  0
  149.1190  140.2574  155.3120 H   0  0  0  0  0  0  0  0  0  0  0  0
  149.1824  140.0451  153.1978 H   0  0  0  0  0  0  0  0  0  0  0  0
  147.5166  142.7530  154.8916 H   0  0  0  0  0  0  0  0  0  0  0  0
  147.1131  141.4584  153.8011 H   0  0  0  0  0  0  0  0  0  0  0  0
  145.0573  140.7963  154.5866 H   0  0  0  0  0  0  0  0  0  0  0  0
  144.8267  140.3019  156.2436 H   0  0  0  0  0  0  0  0  0  0  0  0
  145.1051  143.2181  155.3132 H   0  0  0  0  0  0  0  0  0  0  0  0
  143.6372  142.4366  155.8650 H   0  0  0  0  0  0  0  0  0  0  0  0
  146.8641  143.6034  156.9257 H   0  0  0  0  0  0  0  0  0  0  0  0
  147.7275  143.3053  159.2467 H   0  0  0  0  0  0  0  0  0  0  0  0
  146.2340  142.4870  159.7018 H   0  0  0  0  0  0  0  0  0  0  0  0
  146.2025  144.1853  159.2363 H   0  0  0  0  0  0  0  0  0  0  0  0
  146.7062  140.7031  157.9177 H   0  0  0  0  0  0  0  0  0  0  0  0
  148.1635  141.4945  157.3849 H   0  0  0  0  0  0  0  0  0  0  0  0
  150.0871  144.0447  157.8533 H   0  0  0  0  0  0  0  0  0  0  0  0
  150.1762  145.4603  159.7406 H   0  0  0  0  0  0  0  0  0  0  0  0
  151.6915  145.4253  160.6387 H   0  0  0  0  0  0  0  0  0  0  0  0
  150.2664  144.5858  161.2691 H   0  0  0  0  0  0  0  0  0  0  0  0
  147.0149  140.0367  155.7913 H   0  0  0  0  0  0  0  0  0  0  0  0
  1  2  1  0  0  0  0
  1 23  1  0  0  0  0
  1 24  1  0  0  0  0
  1 25  1  0  0  0  0
  2 21  1  0  0  0  0
  2  3  2  0  0  0  0
  3  4  1  0  0  0  0
  3 26  1  0  0  0  0
  4 19  2  0  0  0  0
  4  5  1  0  0  0  0
  5  6  2  0  0  0  0
  6  7  1  0  0  0  0
  6 27  1  0  0  0  0
  7  8  1  0  0  0  0
  7 19  1  0  0  0  0
  8  9  1  0  0  0  0
  8 28  1  0  0  0  0
  8 29  1  0  0  0  0
  9 10  1  0  0  0  0
  9 11  1  0  0  0  0
  9 30  1  0  0  0  0
 10 31  1  0  0  0  0
 11 12  1  0  0  0  0
 11 32  1  0  0  0  0
 11 33  1  0  0  0  0
 12 18  1  0  0  0  0
 12 13  1  0  0  0  0
 12 48  1  0  0  0  0
 13 14  1  0  0  0  0
 13 34  1  0  0  0  0
 13 35  1  0  0  0  0
 14 15  1  0  0  0  0
 14 36  1  0  0  0  0
 14 37  1  0  0  0  0
 15 16  1  0  0  0  0
 16 17  1  0  0  0  0
 16 18  1  0  0  0  0
 16 38  1  0  0  0  0
 17 39  1  0  0  0  0
 17 40  1  0  0  0  0
 17 41  1  0  0  0  0
 18 42  1  0  0  0  0
 18 43  1  0  0  0  0
 19 20  1  0  0  0  0
 20 21  2  0  0  0  0
 20 44  1  0  0  0  0
 21 22  1  0  0  0  0
 22 45  1  0  0  0  0
 22 46  1  0  0  0  0
 22 47  1  0  0  0  0
M  CHG  1  12   1
M  END
> <s_m_source_file>
AV-unprocessed.smi

> <i_m_source_file_index>
1554

> <i_lp_mmshare_version>
43012

> <i_f3d_flags>
0

> <s_epik_input>
W0NIM11jKFtjSF0xKWMoW0NIM10pW2NIXWMoYzEyKW4oW2NIXW4yKVtDSDJdW0NASF0oW09IXSlbQ0gyXU4zW0NIMl1bQ0gyXU9bQ0BASF0oW0NIM10pW0NIMl0z

> <s_epik_cmdline>
J2VwaWtfcHl0aG9uJywgJy1waCcsICc3LjAnLCAnLXRuJywgJzgnLCAnLW1hJywgJzIwMCcsICctbWV0YWxfYmluZGluZycsICctaW1hZScsICc8aW5maWxlLm1hZT4nLCAnLW9tYWUnLCAnPG91dGZpbGUubWFlPic=

> <r_epik_Ionization_Penalty>
0.695251

> <r_epik_Ionization_Penalty_Charging>
0.608065

> <r_epik_Ionization_Penalty_Neutral>
0.0871863

> <r_epik_State_Penalty>
0.731955

> <r_epik_Charging_Adjusted_Penalty>
1.34002

> <i_epik_Tot_Q>
1

> <i_epik_Tot_abs_Q>
1

> <r_epik_Metal_State_Penalty>
0.652186

> <b_epik_Metal_Only>
0

> <s_lp_Force_Field>
OPLS_2005

> <r_lp_Energy>
22.7175

> <b_lp_Chiralities_Consistent>
1

> <s_lp_Variant>
AV-unprocessed.smi:1554-7

> <Gold.Version>
5.8.1

> <Gold.Id.Protein>
6NUR|6NUR_protein|mol2

> <Gold.PLP.Fitness>
45.0075

> <Gold.PLP.PLP>
-41.9477

> <Gold.PLP.part.hbond>
-3.5561

> <Gold.PLP.part.metal>
0.0000

> <Gold.PLP.part.buried>
-4.0432

> <Gold.PLP.part.nonpolar>
-33.5640

> <Gold.PLP.part.repulsive>
0.0790

> <Gold.PLP.ligand.clash>
0.0000

> <Gold.PLP.ligand.torsion>
1.6465

> <Gold.PLP.Chemscore.Hbond>
2.0998

> <Gold.PLP.Chemscore.CHOScore>
0.0000

> <Gold.PLP.Chemscore.Metal>
0.0000

> <Gold.Chemscore.Hbonds>
donor molecule, donor type, donor heavy atom, donor atom, acceptor molecule, acceptor atom, score
      P1  H  7989  7998       L1    10  0.15
      P1  H  7997  8008       L1     5  0.37
      P1  H  8011  8017       L1    10  1.00

> <Gold.PLP.Chemscore.Internal.Correction>
0.0533

> <Gold.Rescore>
     Score         DG    S(hbond)    S(metal)    S(lipo)     H(rot)  DE(clash)    DE(int)     intcor
     13.39     -16.31       0.96        0.00     110.22       2.05       1.15       1.77       ----

> <Gold.Chemscore.Fitness>
13.3898

> <Gold.Chemscore.DG>
-16.3128

> <Gold.Chemscore.ZeroCoef>
-5.4800

> <Gold.Chemscore.Hbond>
0.9570

> <Gold.Chemscore.Metal>
0.0000

> <Gold.Chemscore.Lipo>
110.2248

> <Gold.Chemscore.Internal_Hbond>
0.0000

> <Gold.Chemscore.DEClash>
1.1512

> <Gold.Chemscore.DEInternal>
1.7718

> <Gold.Chemscore.Rot>
2.0546

> <Gold.Chemscore.Internal.Correction>
   9.000000E+99

> <Gold.Chemscore.Hbonds>
donor molecule, donor type, donor heavy atom, donor atom, acceptor molecule, acceptor atom, score
      L1  H    10    31       P1  7957  0.05
      P1  H  7989  7998       L1    10  0.03
      P1  H  7997  8008       L1     5  0.09
      P1  H  8011  8017       L1    10  0.95

> <Gold.Chemscore.Hbond.Weighted>
-3.1962

> <Gold.Chemscore.Metal.Weighted>
-0.0000

> <Gold.Chemscore.Lipo.Weighted>
-12.8963

> <Gold.Chemscore.Internal_Hbond.Weighted>
0.0000

> <Gold.Chemscore.DEClash.Weighted>
1.1512

> <Gold.Chemscore.DEInternal.Weighted>
1.7718

> <Gold.Chemscore.Rot.Weighted>
5.2597

> <Gold.Chemscore.Internal.Correction.Weighted>
   9.000000E+99

> <Gold.Protein.RotatedTorsions>
[ 6907 6896 6895 6894 ] final  -52.22 input  -60.11 | X-H torsion
[ 7974 7965 7964 7962 ] final -153.46 input  175.53 | X-H torsion
[ 8008 7997 7996 7995 ] final  -50.37 input   59.86 | X-H torsion
[ 10167 10162 10161 10158 ] final -155.28 input  -65.29 | X-H torsion
[ 10718 10713 10712 10709 ] final   79.12 input   66.30 | X-H torsion
[ 10763 10752 10751 10750 ] final -114.22 input  -60.55 | X-H torsion
[ 11005 11000 10999 10996 ] final  -48.32 input  -57.11 | X-H torsion

> <Gold.Protein.ActiveResidues>
 VAL166  LYS551  ARG553  GLY616  TRP617  ASP618  TYR619  PRO620  LYS621  CYS622 
 ASP623  PHE694  ASN695  SER759  ASP760  ASP761  ALA762  ILE779  LEU786  VAL792 
 PHE793  MET794  SER795  GLU796  ALA797  LYS798  CYS799  TRP800  GLU811  SER814 

> <Gold.Protein.RotatedAtoms>
  150.8538  134.7871  159.7029 H   0  0  0  0  0  0  0  0  0  0  0  0  # atno 6907 bound_to 6896
  152.4596  134.5212  159.9793 H   0  0  0  0  0  0  0  0  0  0  0  0  # atno 6908 bound_to 6896
  151.5328  133.3408  159.2957 H   0  0  0  0  0  0  0  0  0  0  0  0  # atno 6909 bound_to 6896
  144.7739  140.4522  143.5887 H   0  0  0  0  0  0  0  0  0  0  0  0  # atno 7974 bound_to 7965
  154.4061  140.1274  156.4654 H   0  0  0  0  0  0  0  0  0  0  0  0  # atno 8008 bound_to 7997
  155.7232  140.3492  155.5005 H   0  0  0  0  0  0  0  0  0  0  0  0  # atno 8009 bound_to 7997
  155.9196  140.1050  157.1207 H   0  0  0  0  0  0  0  0  0  0  0  0  # atno 8010 bound_to 7997
  139.6944  143.9367  152.2400 H   0  0  0  0  0  0  0  0  0  0  0  0  # atno 10167 bound_to 10162
  157.6767  130.9900  150.1886 H   0  0  0  0  0  0  0  0  0  0  0  0  # atno 10718 bound_to 10713
  154.8430  135.4426  154.1471 H   0  0  0  0  0  0  0  0  0  0  0  0  # atno 10763 bound_to 10752
  153.2641  135.6939  153.7553 H   0  0  0  0  0  0  0  0  0  0  0  0  # atno 10764 bound_to 10752
  153.6819  135.3401  155.3156 H   0  0  0  0  0  0  0  0  0  0  0  0  # atno 10765 bound_to 10752
  141.0694  133.6684  156.3424 H   0  0  0  0  0  0  0  0  0  0  0  0  # atno 11005 bound_to 11000
  145.6242  139.1528  143.3005 LP  0  0  0  0  0  0  0  0  0  0  0  0  # atno 17320 bound_to 7965
  146.1906  140.6350  142.9147 LP  0  0  0  0  0  0  0  0  0  0  0  0  # atno 17321 bound_to 7965
  139.9192  144.6810  150.8479 LP  0  0  0  0  0  0  0  0  0  0  0  0  # atno 17342 bound_to 10162
  140.7692  143.3387  151.2254 LP  0  0  0  0  0  0  0  0  0  0  0  0  # atno 17343 bound_to 10162
  156.2603  130.3710  149.8138 LP  0  0  0  0  0  0  0  0  0  0  0  0  # atno 17370 bound_to 10713
  156.5885  130.8496  151.3402 LP  0  0  0  0  0  0  0  0  0  0  0  0  # atno 17371 bound_to 10713
  140.5706  134.5844  157.5456 LP  0  0  0  0  0  0  0  0  0  0  0  0  # atno 17394 bound_to 11000
  139.9508  134.7620  156.0453 LP  0  0  0  0  0  0  0  0  0  0  0  0  # atno 17395 bound_to 11000

$$$$
