AV-unprocessed.smi:817|AV-procd|sdf|3829|dock6
  -GOLD-   22720 1273D 1   1.00000     0.00000
 Structure written by MMmdl.
 48 49  0  0  0  0  0  0  0  0  2 V2000
  146.8941  141.6802  156.8714 C   0  0  0  0  0  0  0  0  0  0  0  0
  146.8880  140.8840  155.5581 C   0  0  1  0  0  0  0  0  0  0  0  0
  147.0892  141.8122  154.3475 C   0  0  0  0  0  0  0  0  0  0  0  0
  147.1378  141.0269  153.0299 C   0  0  0  0  0  0  0  0  0  0  0  0
  148.2097  139.9209  153.0606 C   0  0  0  0  0  0  0  0  0  0  0  0
  148.0554  138.9345  154.2557 C   0  0  1  0  0  0  0  0  0  0  0  0
  146.7388  138.1122  154.0948 C   0  0  0  0  0  0  0  0  0  0  0  0
  146.9188  136.9298  153.2493 N   0  0  0  0  0  0  0  0  0  0  0  0
  145.9791  136.0521  152.8584 C   0  0  0  0  0  0  0  0  0  0  0  0
  144.8051  136.1940  153.1907 O   0  0  0  0  0  0  0  0  0  0  0  0
  146.4467  135.0581  152.0779 N   0  0  0  0  0  0  0  0  0  0  0  0
  145.7448  133.9605  151.5101 C   0  0  0  0  0  0  0  0  0  0  0  0
  144.3405  133.9445  151.6366 C   0  0  0  0  0  0  0  0  0  0  0  0
  143.6111  132.8822  151.0705 C   0  0  0  0  0  0  0  0  0  0  0  0
  144.3181  131.8733  150.3890 C   0  0  0  0  0  0  0  0  0  0  0  0
  145.6601  131.8784  150.2468 N   0  0  0  0  0  0  0  0  0  0  0  0
  146.3540  132.9000  150.7936 C   0  0  0  0  0  0  0  0  0  0  0  0
  149.2161  137.9662  154.3151 N   0  3  0  0  0  0  0  0  0  0  0  0
  150.5669  138.5877  154.3079 C   0  0  0  0  0  0  0  0  0  0  0  0
  149.1447  136.9089  155.3575 C   0  0  0  0  0  0  0  0  0  0  0  0
  147.9726  139.7845  155.5674 C   0  0  0  0  0  0  0  0  0  0  0  0
  147.8438  142.1946  157.0222 H   0  0  0  0  0  0  0  0  0  0  0  0
  146.7309  141.0261  157.7284 H   0  0  0  0  0  0  0  0  0  0  0  0
  146.1048  142.4325  156.8777 H   0  0  0  0  0  0  0  0  0  0  0  0
  145.9038  140.4236  155.4823 H   0  0  0  0  0  0  0  0  0  0  0  0
  146.2872  142.5504  154.3041 H   0  0  0  0  0  0  0  0  0  0  0  0
  148.0167  142.3741  154.4649 H   0  0  0  0  0  0  0  0  0  0  0  0
  146.1578  140.5992  152.8179 H   0  0  0  0  0  0  0  0  0  0  0  0
  147.3464  141.7119  152.2077 H   0  0  0  0  0  0  0  0  0  0  0  0
  148.1721  139.3871  152.1110 H   0  0  0  0  0  0  0  0  0  0  0  0
  149.1885  140.3998  153.0987 H   0  0  0  0  0  0  0  0  0  0  0  0
  146.3464  137.7851  155.0556 H   0  0  0  0  0  0  0  0  0  0  0  0
  145.9484  138.7344  153.6758 H   0  0  0  0  0  0  0  0  0  0  0  0
  147.8599  136.7476  152.9325 H   0  0  0  0  0  0  0  0  0  0  0  0
  147.4220  135.1198  151.8251 H   0  0  0  0  0  0  0  0  0  0  0  0
  143.8253  134.7347  152.1633 H   0  0  0  0  0  0  0  0  0  0  0  0
  142.5351  132.8422  151.1557 H   0  0  0  0  0  0  0  0  0  0  0  0
  143.7913  131.0431  149.9420 H   0  0  0  0  0  0  0  0  0  0  0  0
  147.4179  132.8579  150.6234 H   0  0  0  0  0  0  0  0  0  0  0  0
  150.7781  139.0976  155.2482 H   0  0  0  0  0  0  0  0  0  0  0  0
  150.7021  139.2958  153.4929 H   0  0  0  0  0  0  0  0  0  0  0  0
  151.3316  137.8215  154.1756 H   0  0  0  0  0  0  0  0  0  0  0  0
  149.0169  137.3316  156.3539 H   0  0  0  0  0  0  0  0  0  0  0  0
  150.0578  136.3126  155.3677 H   0  0  0  0  0  0  0  0  0  0  0  0
  148.3350  136.2063  155.1635 H   0  0  0  0  0  0  0  0  0  0  0  0
  148.9115  140.3105  155.7366 H   0  0  0  0  0  0  0  0  0  0  0  0
  147.8322  139.1347  156.4321 H   0  0  0  0  0  0  0  0  0  0  0  0
  149.1648  137.4588  153.4431 H   0  0  0  0  0  0  0  0  0  0  0  0
  1  2  1  0  0  0  0
  1 22  1  0  0  0  0
  1 23  1  0  0  0  0
  1 24  1  0  0  0  0
  2 21  1  0  0  0  0
  2  3  1  0  0  0  0
  2 25  1  0  0  0  0
  3  4  1  0  0  0  0
  3 26  1  0  0  0  0
  3 27  1  0  0  0  0
  4  5  1  0  0  0  0
  4 28  1  0  0  0  0
  4 29  1  0  0  0  0
  5  6  1  0  0  0  0
  5 30  1  0  0  0  0
  5 31  1  0  0  0  0
  6  7  1  0  0  0  0
  6 18  1  0  0  0  0
  6 21  1  0  0  0  0
  7  8  1  0  0  0  0
  7 32  1  0  0  0  0
  7 33  1  0  0  0  0
  8  9  1  0  0  0  0
  8 34  1  0  0  0  0
  9 10  2  0  0  0  0
  9 11  1  0  0  0  0
 11 12  1  0  0  0  0
 11 35  1  0  0  0  0
 12 17  1  0  0  0  0
 12 13  2  0  0  0  0
 13 14  1  0  0  0  0
 13 36  1  0  0  0  0
 14 15  2  0  0  0  0
 14 37  1  0  0  0  0
 15 16  1  0  0  0  0
 15 38  1  0  0  0  0
 16 17  2  0  0  0  0
 17 39  1  0  0  0  0
 18 19  1  0  0  0  0
 18 20  1  0  0  0  0
 18 48  1  0  0  0  0
 19 40  1  0  0  0  0
 19 41  1  0  0  0  0
 19 42  1  0  0  0  0
 20 43  1  0  0  0  0
 20 44  1  0  0  0  0
 20 45  1  0  0  0  0
 21 46  1  0  0  0  0
 21 47  1  0  0  0  0
M  CHG  1  18   1
M  END
> <s_m_source_file>
AV-unprocessed.smi

> <i_m_source_file_index>
817

> <i_lp_mmshare_version>
43012

> <i_f3d_flags>
0

> <s_epik_input>
W0NIM11bQ0BASF0oW0NIMl0xKVtDSDJdW0NIMl1bQ0gyXVtDQF0xKE4oW0NIM10pW0NIM10pW0NIMl1bTkhdQyg9TylbTkhdYzJbY0hdW2NIXVtjSF1uW2NIXTI=

> <s_epik_cmdline>
J2VwaWtfcHl0aG9uJywgJy1waCcsICc3LjAnLCAnLXRuJywgJzgnLCAnLW1hJywgJzIwMCcsICctbWV0YWxfYmluZGluZycsICctaW1hZScsICc8aW5maWxlLm1hZT4nLCAnLW9tYWUnLCAnPG91dGZpbGUubWFlPic=

> <r_lp_tautomer_probability>
1

> <r_epik_Ionization_Penalty>
0.00584939

> <r_epik_Ionization_Penalty_Charging>
0.00160539

> <r_epik_Ionization_Penalty_Neutral>
0.004244

> <r_epik_State_Penalty>
-0

> <r_epik_Charging_Adjusted_Penalty>
0.00160539

> <i_epik_Tot_Q>
1

> <i_epik_Tot_abs_Q>
1

> <r_epik_Metal_State_Penalty>
-0

> <b_epik_Metal_Only>
0

> <s_lp_Force_Field>
OPLS_2005

> <r_lp_Energy>
49.3624

> <b_lp_Chiralities_Consistent>
1

> <s_lp_Variant>
AV-unprocessed.smi:817-2

> <Gold.Version>
5.8.1

> <Gold.Id.Protein>
6NUR|6NUR_protein|mol2

> <Gold.PLP.Fitness>
42.5520

> <Gold.PLP.PLP>
-28.5939

> <Gold.PLP.part.hbond>
-3.0000

> <Gold.PLP.part.metal>
0.0000

> <Gold.PLP.part.buried>
-0.8263

> <Gold.PLP.part.nonpolar>
-24.9741

> <Gold.PLP.part.repulsive>
0.2757

> <Gold.PLP.ligand.clash>
0.0000

> <Gold.PLP.ligand.torsion>
0.4585

> <Gold.PLP.Chemscore.Hbond>
3.9280

> <Gold.PLP.Chemscore.CHOScore>
0.9929

> <Gold.PLP.Chemscore.Metal>
0.0000

> <Gold.Chemscore.Hbonds>
donor molecule, donor type, donor heavy atom, donor atom, acceptor molecule, acceptor atom, score
      L1  H     8    34       P1  7948  1.00
      L1  H    11    35       P1  7948  0.93
      L1  H    18    48       P1  7948  2.00
      L1  C    17    39       P1 10747  0.95

> <Gold.PLP.Chemscore.Internal.Correction>
0.1125

> <Gold.Rescore>
     Score         DG    S(hbond)    S(metal)    S(lipo)     H(rot)  DE(clash)    DE(int)     intcor
     17.85     -21.30       2.86        0.00      84.96       1.44       1.61       1.84       ----

> <Gold.Chemscore.Fitness>
17.8494

> <Gold.Chemscore.DG>
-21.2978

> <Gold.Chemscore.ZeroCoef>
-5.4800

> <Gold.Chemscore.Hbond>
2.8637

> <Gold.Chemscore.Metal>
0.0000

> <Gold.Chemscore.Lipo>
84.9648

> <Gold.Chemscore.Internal_Hbond>
0.0000

> <Gold.Chemscore.DEClash>
1.6052

> <Gold.Chemscore.DEInternal>
1.8432

> <Gold.Chemscore.Rot>
1.4405

> <Gold.Chemscore.Internal.Correction>
   9.000000E+99

> <Gold.Chemscore.Hbonds>
donor molecule, donor type, donor heavy atom, donor atom, acceptor molecule, acceptor atom, score
      L1  H     8    34       P1  7948  0.97
      L1  H    11    35       P1  7948  0.83
      L1  H    18    48       P1  7948  0.96

> <Gold.Chemscore.Hbond.Weighted>
-9.5647

> <Gold.Chemscore.Metal.Weighted>
-0.0000

> <Gold.Chemscore.Lipo.Weighted>
-9.9409

> <Gold.Chemscore.Internal_Hbond.Weighted>
0.0000

> <Gold.Chemscore.DEClash.Weighted>
1.6052

> <Gold.Chemscore.DEInternal.Weighted>
1.8432

> <Gold.Chemscore.Rot.Weighted>
3.6878

> <Gold.Chemscore.Internal.Correction.Weighted>
   9.000000E+99

> <Gold.Protein.RotatedTorsions>
[ 6907 6896 6895 6894 ] final   46.17 input  -60.11 | X-H torsion
[ 7974 7965 7964 7962 ] final -179.53 input  175.53 | X-H torsion
[ 8008 7997 7996 7995 ] final  -87.81 input   59.86 | X-H torsion
[ 10167 10162 10161 10158 ] final  116.12 input  -65.29 | X-H torsion
[ 10718 10713 10712 10709 ] final -110.50 input   66.30 | X-H torsion
[ 10763 10752 10751 10750 ] final -101.44 input  -60.55 | X-H torsion
[ 11005 11000 10999 10996 ] final -170.69 input  -57.11 | X-H torsion

> <Gold.Protein.ActiveResidues>
 VAL166  LYS551  ARG553  GLY616  TRP617  ASP618  TYR619  PRO620  LYS621  CYS622 
 ASP623  PHE694  ASN695  SER759  ASP760  ASP761  ALA762  ILE779  LEU786  VAL792 
 PHE793  MET794  SER795  GLU796  ALA797  LYS798  CYS799  TRP800  GLU811  SER814 

> <Gold.Protein.RotatedAtoms>
  152.2533  134.8110  160.0442 H   0  0  0  0  0  0  0  0  0  0  0  0  # atno 6907 bound_to 6896
  151.8783  133.3485  159.3766 H   0  0  0  0  0  0  0  0  0  0  0  0  # atno 6908 bound_to 6896
  150.7091  134.4971  159.5587 H   0  0  0  0  0  0  0  0  0  0  0  0  # atno 6909 bound_to 6896
  144.7137  140.0703  143.6429 H   0  0  0  0  0  0  0  0  0  0  0  0  # atno 7974 bound_to 7965
  154.6675  140.0561  157.0130 H   0  0  0  0  0  0  0  0  0  0  0  0  # atno 8008 bound_to 7997
  155.1137  140.3241  155.4496 H   0  0  0  0  0  0  0  0  0  0  0  0  # atno 8009 bound_to 7997
  156.2644  140.2010  156.6261 H   0  0  0  0  0  0  0  0  0  0  0  0  # atno 8010 bound_to 7997
  139.6269  144.7109  151.2514 H   0  0  0  0  0  0  0  0  0  0  0  0  # atno 10167 bound_to 10162
  156.0594  130.5818  150.8246 H   0  0  0  0  0  0  0  0  0  0  0  0  # atno 10718 bound_to 10713
  154.7658  135.4897  153.9551 H   0  0  0  0  0  0  0  0  0  0  0  0  # atno 10763 bound_to 10752
  153.1306  135.6752  153.9192 H   0  0  0  0  0  0  0  0  0  0  0  0  # atno 10764 bound_to 10752
  153.8897  135.3122  155.3426 H   0  0  0  0  0  0  0  0  0  0  0  0  # atno 10765 bound_to 10752
  140.5166  134.5750  157.5035 H   0  0  0  0  0  0  0  0  0  0  0  0  # atno 11005 bound_to 11000
  145.9789  139.2926  143.1054 LP  0  0  0  0  0  0  0  0  0  0  0  0  # atno 17320 bound_to 7965
  145.9033  140.9228  143.0492 LP  0  0  0  0  0  0  0  0  0  0  0  0  # atno 17321 bound_to 7965
  140.7416  143.6551  150.8214 LP  0  0  0  0  0  0  0  0  0  0  0  0  # atno 17342 bound_to 10162
  140.0170  143.5582  152.2816 LP  0  0  0  0  0  0  0  0  0  0  0  0  # atno 17343 bound_to 10162
  157.5591  131.0945  150.9585 LP  0  0  0  0  0  0  0  0  0  0  0  0  # atno 17370 bound_to 10713
  156.9827  130.5533  149.5297 LP  0  0  0  0  0  0  0  0  0  0  0  0  # atno 17371 bound_to 10713
  139.9629  134.7422  156.0199 LP  0  0  0  0  0  0  0  0  0  0  0  0  # atno 17394 bound_to 11000
  141.1357  133.6576  156.3587 LP  0  0  0  0  0  0  0  0  0  0  0  0  # atno 17395 bound_to 11000

$$$$
