AV-unprocessed.smi:3333|AV-procd|sdf|12832|dock3
  -GOLD-   2272019213D 1   1.00000     0.00000
 Structure written by MMmdl.
 41 43  0  0  0  0  0  0  0  0  1 V2000
  144.1237  145.2185  155.6919 C   0  0  0  0  0  0  0  0  0  0  0  0
  144.4086  144.1466  154.6345 C   0  0  0  0  0  0  0  0  0  0  0  0
  145.4758  143.1940  155.0590 C   0  0  0  0  0  0  0  0  0  0  0  0
  146.5617  142.9320  154.3270 N   0  0  0  0  0  0  0  0  0  0  0  0
  147.3901  141.9697  154.9142 C   0  0  0  0  0  0  0  0  0  0  0  0
  148.6545  141.5448  154.2211 C   0  0  0  0  0  0  0  0  0  0  0  0
  149.8235  141.3989  155.2039 C   0  0  0  0  0  0  0  0  0  0  0  0
  150.5735  140.4223  155.1615 O   0  0  0  0  0  0  0  0  0  0  0  0
  149.9717  142.3948  156.0910 N   0  0  0  0  0  0  0  0  0  0  0  0
  151.0112  142.4565  157.1129 C   0  0  0  0  0  0  0  0  0  0  0  0
  151.1250  143.8622  157.7405 C   0  0  1  0  0  0  0  0  0  0  0  0
  150.1934  144.0959  158.9479 C   0  0  0  0  0  0  0  0  0  0  0  0
  151.1488  144.6688  160.0120 C   0  0  1  0  0  0  0  0  0  0  0  0
  152.0396  143.5352  160.5522 C   0  0  0  0  0  0  0  0  0  0  0  0
  153.0011  143.2733  159.3784 C   0  0  0  0  0  0  0  0  0  0  0  0
  152.5098  144.2653  158.3039 C   0  0  2  0  0  0  0  0  0  0  0  0
  152.1348  145.4672  159.1655 C   0  0  0  0  0  0  0  0  0  0  0  0
  146.9138  141.5093  156.1173 C   0  0  0  0  0  0  0  0  0  0  0  0
  145.3947  142.2492  156.5416 S   0  0  0  0  0  0  0  0  0  0  0  0
  143.3449  145.9018  155.3530 H   0  0  0  0  0  0  0  0  0  0  0  0
  145.0160  145.8081  155.9050 H   0  0  0  0  0  0  0  0  0  0  0  0
  143.7884  144.7680  156.6268 H   0  0  0  0  0  0  0  0  0  0  0  0
  143.4987  143.5851  154.4189 H   0  0  0  0  0  0  0  0  0  0  0  0
  144.7128  144.6190  153.7000 H   0  0  0  0  0  0  0  0  0  0  0  0
  148.5126  140.5915  153.7107 H   0  0  0  0  0  0  0  0  0  0  0  0
  148.9217  142.2703  153.4514 H   0  0  0  0  0  0  0  0  0  0  0  0
  149.3183  143.1639  156.0570 H   0  0  0  0  0  0  0  0  0  0  0  0
  150.8076  141.7188  157.8907 H   0  0  0  0  0  0  0  0  0  0  0  0
  151.9554  142.1532  156.6617 H   0  0  0  0  0  0  0  0  0  0  0  0
  150.8590  144.5900  156.9717 H   0  0  0  0  0  0  0  0  0  0  0  0
  149.4136  144.8153  158.6943 H   0  0  0  0  0  0  0  0  0  0  0  0
  149.7024  143.1841  159.2907 H   0  0  0  0  0  0  0  0  0  0  0  0
  150.6433  145.2368  160.7932 H   0  0  0  0  0  0  0  0  0  0  0  0
  152.5921  143.8596  161.4350 H   0  0  0  0  0  0  0  0  0  0  0  0
  151.4634  142.6501  160.8245 H   0  0  0  0  0  0  0  0  0  0  0  0
  154.0248  143.5098  159.6717 H   0  0  0  0  0  0  0  0  0  0  0  0
  152.9930  142.2358  159.0475 H   0  0  0  0  0  0  0  0  0  0  0  0
  153.2507  144.4753  157.5320 H   0  0  0  0  0  0  0  0  0  0  0  0
  151.6660  146.2769  158.6035 H   0  0  0  0  0  0  0  0  0  0  0  0
  152.9722  145.8688  159.7392 H   0  0  0  0  0  0  0  0  0  0  0  0
  147.3563  140.7718  156.7704 H   0  0  0  0  0  0  0  0  0  0  0  0
  1  2  1  0  0  0  0
  1 20  1  0  0  0  0
  1 21  1  0  0  0  0
  1 22  1  0  0  0  0
  2  3  1  0  0  0  0
  2 23  1  0  0  0  0
  2 24  1  0  0  0  0
  3 19  1  0  0  0  0
  3  4  2  0  0  0  0
  4  5  1  0  0  0  0
  5  6  1  0  0  0  0
  5 18  2  0  0  0  0
  6  7  1  0  0  0  0
  6 25  1  0  0  0  0
  6 26  1  0  0  0  0
  7  8  2  0  0  0  0
  7  9  1  0  0  0  0
  9 10  1  0  0  0  0
  9 27  1  0  0  0  0
 10 11  1  0  0  0  0
 10 28  1  0  0  0  0
 10 29  1  0  0  0  0
 11 16  1  0  0  0  0
 11 12  1  0  0  0  0
 11 30  1  0  0  0  0
 12 13  1  0  0  0  0
 12 31  1  0  0  0  0
 12 32  1  0  0  0  0
 13 17  1  0  0  0  0
 13 14  1  0  0  0  0
 13 33  1  0  0  0  0
 14 15  1  0  0  0  0
 14 34  1  0  0  0  0
 14 35  1  0  0  0  0
 15 16  1  0  0  0  0
 15 36  1  0  0  0  0
 15 37  1  0  0  0  0
 16 17  1  0  0  0  0
 16 38  1  0  0  0  0
 17 39  1  0  0  0  0
 17 40  1  0  0  0  0
 18 19  1  0  0  0  0
 18 41  1  0  0  0  0
M  END
> <s_m_source_file>
AV-unprocessed.smi

> <i_m_source_file_index>
3333

> <i_lp_mmshare_version>
43012

> <i_f3d_flags>
0

> <s_epik_input>
W0NIM11bQ0gyXWMxbmMoW2NIXXMxKVtDSDJdQyg9TylbTkhdW0NIMl1bQ0BIXShbQ0gyXVtDQEBIXTIzKVtDQEBIXShbQ0gyXTMpW0NIMl1bQ0gyXTI=

> <s_epik_cmdline>
J2VwaWtfcHl0aG9uJywgJy1waCcsICc3LjAnLCAnLXRuJywgJzgnLCAnLW1hJywgJzIwMCcsICctbWV0YWxfYmluZGluZycsICctaW1hZScsICc8aW5maWxlLm1hZT4nLCAnLW9tYWUnLCAnPG91dGZpbGUubWFlPic=

> <r_lp_tautomer_probability>
1

> <r_epik_Ionization_Penalty>
6.68371e-05

> <r_epik_Ionization_Penalty_Charging>
0

> <r_epik_Ionization_Penalty_Neutral>
6.68371e-05

> <r_epik_State_Penalty>
-0

> <r_epik_Charging_Adjusted_Penalty>
0

> <i_epik_Tot_Q>
0

> <i_epik_Tot_abs_Q>
0

> <r_epik_Metal_State_Penalty>
-0

> <b_epik_Metal_Only>
0

> <s_lp_Force_Field>
OPLS_2005

> <r_lp_Energy>
44.5958

> <b_lp_Chiralities_Consistent>
1

> <s_lp_Variant>
AV-unprocessed.smi:3333-2

> <Gold.Version>
5.8.1

> <Gold.Id.Protein>
6NUR|6NUR_protein|mol2

> <Gold.PLP.Fitness>
50.3486

> <Gold.PLP.PLP>
-46.0204

> <Gold.PLP.part.hbond>
-2.0000

> <Gold.PLP.part.metal>
0.0000

> <Gold.PLP.part.buried>
-5.0854

> <Gold.PLP.part.nonpolar>
-39.7337

> <Gold.PLP.part.repulsive>
0.3757

> <Gold.PLP.ligand.clash>
0.0000

> <Gold.PLP.ligand.torsion>
0.8656

> <Gold.PLP.Chemscore.Hbond>
2.0000

> <Gold.PLP.Chemscore.CHOScore>
0.0000

> <Gold.PLP.Chemscore.Metal>
0.0000

> <Gold.Chemscore.Hbonds>
donor molecule, donor type, donor heavy atom, donor atom, acceptor molecule, acceptor atom, score
      L1  H     9    27       P1  8028  1.00
      P1  H  7989  7998       L1     8  0.95

> <Gold.PLP.Chemscore.Internal.Correction>
0.0593

> <Gold.Rescore>
     Score         DG    S(hbond)    S(metal)    S(lipo)     H(rot)  DE(clash)    DE(int)     intcor
     20.34     -21.30       1.59        0.00     120.83       1.42       0.29       0.68       ----

> <Gold.Chemscore.Fitness>
20.3353

> <Gold.Chemscore.DG>
-21.3003

> <Gold.Chemscore.ZeroCoef>
-5.4800

> <Gold.Chemscore.Hbond>
1.5945

> <Gold.Chemscore.Metal>
0.0000

> <Gold.Chemscore.Lipo>
120.8274

> <Gold.Chemscore.Internal_Hbond>
0.0000

> <Gold.Chemscore.DEClash>
0.2884

> <Gold.Chemscore.DEInternal>
0.6766

> <Gold.Chemscore.Rot>
1.4227

> <Gold.Chemscore.Internal.Correction>
   9.000000E+99

> <Gold.Chemscore.Hbonds>
donor molecule, donor type, donor heavy atom, donor atom, acceptor molecule, acceptor atom, score
      L1  H     9    27       P1  8028  0.97
      P1  H  7989  7998       L1     8  0.20

> <Gold.Chemscore.Hbond.Weighted>
-5.3256

> <Gold.Chemscore.Metal.Weighted>
-0.0000

> <Gold.Chemscore.Lipo.Weighted>
-14.1368

> <Gold.Chemscore.Internal_Hbond.Weighted>
0.0000

> <Gold.Chemscore.DEClash.Weighted>
0.2884

> <Gold.Chemscore.DEInternal.Weighted>
0.6766

> <Gold.Chemscore.Rot.Weighted>
3.6421

> <Gold.Chemscore.Internal.Correction.Weighted>
   9.000000E+99

> <Gold.Protein.RotatedTorsions>
[ 6907 6896 6895 6894 ] final -128.41 input  -60.11 | X-H torsion
[ 7974 7965 7964 7962 ] final  -22.74 input  175.53 | X-H torsion
[ 8008 7997 7996 7995 ] final -166.42 input   59.86 | X-H torsion
[ 10167 10162 10161 10158 ] final  161.16 input  -65.29 | X-H torsion
[ 10718 10713 10712 10709 ] final -147.44 input   66.30 | X-H torsion
[ 10763 10752 10751 10750 ] final  -77.80 input  -60.55 | X-H torsion
[ 11005 11000 10999 10996 ] final  -89.42 input  -57.11 | X-H torsion

> <Gold.Protein.ActiveResidues>
 VAL166  LYS551  ARG553  GLY616  TRP617  ASP618  TYR619  PRO620  LYS621  CYS622 
 ASP623  PHE694  ASN695  SER759  ASP760  ASP761  ALA762  ILE779  LEU786  VAL792 
 PHE793  MET794  SER795  GLU796  ALA797  LYS798  CYS799  TRP800  GLU811  SER814 

> <Gold.Protein.RotatedAtoms>
  150.9176  133.6920  159.2839 H   0  0  0  0  0  0  0  0  0  0  0  0  # atno 6907 bound_to 6896
  151.4386  135.1016  159.9673 H   0  0  0  0  0  0  0  0  0  0  0  0  # atno 6908 bound_to 6896
  152.4963  133.8589  159.7295 H   0  0  0  0  0  0  0  0  0  0  0  0  # atno 6909 bound_to 6896
  146.1657  140.4521  142.8553 H   0  0  0  0  0  0  0  0  0  0  0  0  # atno 7974 bound_to 7965
  155.8636  140.0982  157.1597 H   0  0  0  0  0  0  0  0  0  0  0  0  # atno 8008 bound_to 7997
  154.3992  140.1360  156.4054 H   0  0  0  0  0  0  0  0  0  0  0  0  # atno 8009 bound_to 7997
  155.7829  140.3458  155.5309 H   0  0  0  0  0  0  0  0  0  0  0  0  # atno 8010 bound_to 7997
  139.4846  144.4564  151.8763 H   0  0  0  0  0  0  0  0  0  0  0  0  # atno 10167 bound_to 10162
  156.4075  130.7965  151.2180 H   0  0  0  0  0  0  0  0  0  0  0  0  # atno 10718 bound_to 10713
  154.5176  135.5751  153.6655 H   0  0  0  0  0  0  0  0  0  0  0  0  # atno 10763 bound_to 10752
  152.9910  135.6174  154.2796 H   0  0  0  0  0  0  0  0  0  0  0  0  # atno 10764 bound_to 10752
  154.2715  135.2853  155.2716 H   0  0  0  0  0  0  0  0  0  0  0  0  # atno 10765 bound_to 10752
  141.1585  133.7629  156.9592 H   0  0  0  0  0  0  0  0  0  0  0  0  # atno 11005 bound_to 11000
  144.8090  140.6351  143.6428 LP  0  0  0  0  0  0  0  0  0  0  0  0  # atno 17320 bound_to 7965
  145.4472  139.1528  143.3938 LP  0  0  0  0  0  0  0  0  0  0  0  0  # atno 17321 bound_to 7965
  140.4024  144.2476  150.5892 LP  0  0  0  0  0  0  0  0  0  0  0  0  # atno 17342 bound_to 10162
  140.5045  143.2308  151.8629 LP  0  0  0  0  0  0  0  0  0  0  0  0  # atno 17343 bound_to 10162
  157.7506  131.0268  150.3977 LP  0  0  0  0  0  0  0  0  0  0  0  0  # atno 17370 bound_to 10713
  156.4268  130.3964  149.6787 LP  0  0  0  0  0  0  0  0  0  0  0  0  # atno 17371 bound_to 10713
  140.1205  134.9420  157.2196 LP  0  0  0  0  0  0  0  0  0  0  0  0  # atno 17394 bound_to 11000
  140.3079  134.3057  155.7274 LP  0  0  0  0  0  0  0  0  0  0  0  0  # atno 17395 bound_to 11000

$$$$
