AV-unprocessed.smi:788|AV-procd|sdf|3732|dock3
  -GOLD-   22720 1163D 1   1.00000     0.00000
 Structure written by MMmdl.
 35 36  0  0  0  0  0  0  0  0  1 V2000
  151.9730  143.7231  158.0739 C   0  0  0  0  0  0  0  0  0  0  0  0
  152.6951  143.4994  159.4139 C   0  0  1  0  0  0  0  0  0  0  0  0
  151.8090  143.9091  160.6079 C   0  0  0  0  0  0  0  0  0  0  0  0
  152.5485  143.7365  161.9434 C   0  0  0  0  0  0  0  0  0  0  0  0
  153.0719  142.3022  162.1145 C   0  0  0  0  0  0  0  0  0  0  0  0
  153.9668  141.8833  160.9301 C   0  0  1  0  0  0  0  0  0  0  0  0
  154.5365  140.4679  161.1273 C   0  0  0  0  0  0  0  0  0  0  0  0
  153.2253  142.0527  159.5798 C   0  0  1  0  0  0  0  0  0  0  0  0
  152.1345  141.0827  159.4612 N   0  0  0  0  0  0  0  0  0  0  0  0
  152.0957  140.0052  158.6605 C   0  0  0  0  0  0  0  0  0  0  0  0
  153.0124  139.7057  157.8976 O   0  0  0  0  0  0  0  0  0  0  0  0
  150.9772  139.2518  158.7304 N   0  0  0  0  0  0  0  0  0  0  0  0
  150.5884  138.0622  158.0460 C   0  0  0  0  0  0  0  0  0  0  0  0
  151.1669  137.6011  156.9245 N   0  0  0  0  0  0  0  0  0  0  0  0
  150.5791  136.4263  156.4763 N   0  0  0  0  0  0  0  0  0  0  0  0
  149.5771  136.0455  157.2734 C   0  0  0  0  0  0  0  0  0  0  0  0
  149.2555  137.0862  158.6492 S   0  0  0  0  0  0  0  0  0  0  0  0
  151.0541  143.1401  158.0069 H   0  0  0  0  0  0  0  0  0  0  0  0
  152.6088  143.4411  157.2344 H   0  0  0  0  0  0  0  0  0  0  0  0
  151.7050  144.7721  157.9461 H   0  0  0  0  0  0  0  0  0  0  0  0
  153.5632  144.1606  159.4139 H   0  0  0  0  0  0  0  0  0  0  0  0
  151.4952  144.9478  160.4996 H   0  0  0  0  0  0  0  0  0  0  0  0
  150.8949  143.3136  160.6173 H   0  0  0  0  0  0  0  0  0  0  0  0
  153.3831  144.4369  161.9910 H   0  0  0  0  0  0  0  0  0  0  0  0
  151.8851  143.9907  162.7704 H   0  0  0  0  0  0  0  0  0  0  0  0
  153.6305  142.2293  163.0482 H   0  0  0  0  0  0  0  0  0  0  0  0
  152.2294  141.6153  162.2085 H   0  0  0  0  0  0  0  0  0  0  0  0
  154.8205  142.5626  160.9140 H   0  0  0  0  0  0  0  0  0  0  0  0
  153.7458  139.7251  161.2356 H   0  0  0  0  0  0  0  0  0  0  0  0
  155.1575  140.4185  162.0220 H   0  0  0  0  0  0  0  0  0  0  0  0
  155.1563  140.1735  160.2799 H   0  0  0  0  0  0  0  0  0  0  0  0
  153.9521  141.8790  158.7844 H   0  0  0  0  0  0  0  0  0  0  0  0
  151.3310  141.2461  160.0511 H   0  0  0  0  0  0  0  0  0  0  0  0
  150.2877  139.5968  159.3822 H   0  0  0  0  0  0  0  0  0  0  0  0
  149.0235  135.1457  157.0495 H   0  0  0  0  0  0  0  0  0  0  0  0
  1  2  1  0  0  0  0
  1 18  1  0  0  0  0
  1 19  1  0  0  0  0
  1 20  1  0  0  0  0
  2  8  1  0  0  0  0
  2  3  1  0  0  0  0
  2 21  1  0  0  0  0
  3  4  1  0  0  0  0
  3 22  1  0  0  0  0
  3 23  1  0  0  0  0
  4  5  1  0  0  0  0
  4 24  1  0  0  0  0
  4 25  1  0  0  0  0
  5  6  1  0  0  0  0
  5 26  1  0  0  0  0
  5 27  1  0  0  0  0
  6  7  1  0  0  0  0
  6  8  1  0  0  0  0
  6 28  1  0  0  0  0
  7 29  1  0  0  0  0
  7 30  1  0  0  0  0
  7 31  1  0  0  0  0
  8  9  1  0  0  0  0
  8 32  1  0  0  0  0
  9 10  1  0  0  0  0
  9 33  1  0  0  0  0
 10 11  2  0  0  0  0
 10 12  1  0  0  0  0
 12 13  1  0  0  0  0
 12 34  1  0  0  0  0
 13 17  1  0  0  0  0
 13 14  2  0  0  0  0
 14 15  1  0  0  0  0
 15 16  2  0  0  0  0
 16 17  1  0  0  0  0
 16 35  1  0  0  0  0
M  END
> <s_m_source_file>
AV-unprocessed.smi

> <i_m_source_file_index>
788

> <i_lp_mmshare_version>
43012

> <i_f3d_flags>
0

> <s_epik_input>
W0NIM11bQ0BASF0xW0NIMl1bQ0gyXVtDSDJdW0NAQEhdKFtDSDNdKVtDQEhdMVtOSF1DKD1PKVtOSF1jMm5uW2NIXXMy

> <s_epik_cmdline>
J2VwaWtfcHl0aG9uJywgJy1waCcsICc3LjAnLCAnLXRuJywgJzgnLCAnLW1hJywgJzIwMCcsICctbWV0YWxfYmluZGluZycsICctaW1hZScsICc8aW5maWxlLm1hZT4nLCAnLW9tYWUnLCAnPG91dGZpbGUubWFlPic=

> <r_lp_tautomer_probability>
1

> <r_epik_Ionization_Penalty>
0.000304078

> <r_epik_Ionization_Penalty_Charging>
0

> <r_epik_Ionization_Penalty_Neutral>
0.000304078

> <r_epik_State_Penalty>
-0

> <r_epik_Charging_Adjusted_Penalty>
0

> <i_epik_Tot_Q>
0

> <i_epik_Tot_abs_Q>
0

> <r_epik_Metal_State_Penalty>
0.164801

> <b_epik_Metal_Only>
0

> <s_lp_Force_Field>
OPLS_2005

> <r_lp_Energy>
12.7564

> <b_lp_Chiralities_Consistent>
1

> <s_lp_Variant>
AV-unprocessed.smi:788-2

> <Gold.Version>
5.8.1

> <Gold.Id.Protein>
6NUR|6NUR_protein|mol2

> <Gold.PLP.Fitness>
38.6606

> <Gold.PLP.PLP>
-35.9612

> <Gold.PLP.part.hbond>
-1.0000

> <Gold.PLP.part.metal>
0.0000

> <Gold.PLP.part.buried>
-3.9426

> <Gold.PLP.part.nonpolar>
-29.8283

> <Gold.PLP.part.repulsive>
0.3015

> <Gold.PLP.ligand.clash>
0.0000

> <Gold.PLP.ligand.torsion>
0.1541

> <Gold.PLP.Chemscore.Hbond>
1.0000

> <Gold.PLP.Chemscore.CHOScore>
0.0000

> <Gold.PLP.Chemscore.Metal>
0.0000

> <Gold.Chemscore.Hbonds>
donor molecule, donor type, donor heavy atom, donor atom, acceptor molecule, acceptor atom, score
      P1  H  7997  8010       L1    11  1.00

> <Gold.PLP.Chemscore.Internal.Correction>
0.0076

> <Gold.Rescore>
     Score         DG    S(hbond)    S(metal)    S(lipo)     H(rot)  DE(clash)    DE(int)     intcor
     16.44     -17.73       1.00        0.00      98.03       1.00       0.01       1.27       ----

> <Gold.Chemscore.Fitness>
16.4416

> <Gold.Chemscore.DG>
-17.7280

> <Gold.Chemscore.ZeroCoef>
-5.4800

> <Gold.Chemscore.Hbond>
0.9997

> <Gold.Chemscore.Metal>
0.0000

> <Gold.Chemscore.Lipo>
98.0263

> <Gold.Chemscore.Internal_Hbond>
0.0000

> <Gold.Chemscore.DEClash>
0.0133

> <Gold.Chemscore.DEInternal>
1.2731

> <Gold.Chemscore.Rot>
1.0000

> <Gold.Chemscore.Internal.Correction>
   9.000000E+99

> <Gold.Chemscore.Hbonds>
donor molecule, donor type, donor heavy atom, donor atom, acceptor molecule, acceptor atom, score
      P1  H  7997  8010       L1    11  1.00

> <Gold.Chemscore.Hbond.Weighted>
-3.3390

> <Gold.Chemscore.Metal.Weighted>
-0.0000

> <Gold.Chemscore.Lipo.Weighted>
-11.4691

> <Gold.Chemscore.Internal_Hbond.Weighted>
0.0000

> <Gold.Chemscore.DEClash.Weighted>
0.0133

> <Gold.Chemscore.DEInternal.Weighted>
1.2731

> <Gold.Chemscore.Rot.Weighted>
2.5600

> <Gold.Chemscore.Internal.Correction.Weighted>
   9.000000E+99

> <Gold.Protein.RotatedTorsions>
[ 6907 6896 6895 6894 ] final    7.03 input  -60.11 | X-H torsion
[ 7974 7965 7964 7962 ] final  -46.49 input  175.53 | X-H torsion
[ 8008 7997 7996 7995 ] final   39.28 input   59.86 | X-H torsion
[ 10167 10162 10161 10158 ] final  -31.93 input  -65.29 | X-H torsion
[ 10718 10713 10712 10709 ] final  162.47 input   66.30 | X-H torsion
[ 10763 10752 10751 10750 ] final   53.07 input  -60.55 | X-H torsion
[ 11005 11000 10999 10996 ] final   20.61 input  -57.11 | X-H torsion

> <Gold.Protein.ActiveResidues>
 VAL166  LYS551  ARG553  GLY616  TRP617  ASP618  TYR619  PRO620  LYS621  CYS622 
 ASP623  PHE694  ASN695  SER759  ASP760  ASP761  ALA762  ILE779  LEU786  VAL792 
 PHE793  MET794  SER795  GLU796  ALA797  LYS798  CYS799  TRP800  GLU811  SER814 

> <Gold.Protein.RotatedAtoms>
  151.6833  135.0958  160.0219 H   0  0  0  0  0  0  0  0  0  0  0  0  # atno 6907 bound_to 6896
  152.3822  133.6558  159.6179 H   0  0  0  0  0  0  0  0  0  0  0  0  # atno 6908 bound_to 6896
  150.7756  133.9011  159.3383 H   0  0  0  0  0  0  0  0  0  0  0  0  # atno 6909 bound_to 6896
  145.9714  140.7379  142.9408 H   0  0  0  0  0  0  0  0  0  0  0  0  # atno 7974 bound_to 7965
  155.2340  140.3340  155.4300 H   0  0  0  0  0  0  0  0  0  0  0  0  # atno 8008 bound_to 7997
  156.2283  140.1839  156.7352 H   0  0  0  0  0  0  0  0  0  0  0  0  # atno 8009 bound_to 7997
  154.5936  140.0634  156.9257 H   0  0  0  0  0  0  0  0  0  0  0  0  # atno 8010 bound_to 7997
  140.7229  143.3733  151.1736 H   0  0  0  0  0  0  0  0  0  0  0  0  # atno 10167 bound_to 10162
  157.1221  131.0495  151.2410 H   0  0  0  0  0  0  0  0  0  0  0  0  # atno 10718 bound_to 10713
  152.9793  135.5791  154.4682 H   0  0  0  0  0  0  0  0  0  0  0  0  # atno 10763 bound_to 10752
  154.4248  135.2772  155.1953 H   0  0  0  0  0  0  0  0  0  0  0  0  # atno 10764 bound_to 10752
  154.3687  135.6172  153.5782 H   0  0  0  0  0  0  0  0  0  0  0  0  # atno 10765 bound_to 10752
  140.4007  134.1721  155.7664 H   0  0  0  0  0  0  0  0  0  0  0  0  # atno 11005 bound_to 11000
  144.6838  140.2755  143.7300 LP  0  0  0  0  0  0  0  0  0  0  0  0  # atno 17320 bound_to 7965
  145.7901  139.1924  143.2108 LP  0  0  0  0  0  0  0  0  0  0  0  0  # atno 17321 bound_to 7965
  139.7309  143.9075  152.3019 LP  0  0  0  0  0  0  0  0  0  0  0  0  # atno 17342 bound_to 10162
  139.8863  144.6990  150.8820 LP  0  0  0  0  0  0  0  0  0  0  0  0  # atno 17343 bound_to 10162
  157.4467  130.7575  149.7116 LP  0  0  0  0  0  0  0  0  0  0  0  0  # atno 17370 bound_to 10713
  155.9826  130.4008  150.3407 LP  0  0  0  0  0  0  0  0  0  0  0  0  # atno 17371 bound_to 10713
  141.1858  133.8316  157.1092 LP  0  0  0  0  0  0  0  0  0  0  0  0  # atno 17394 bound_to 11000
  140.0338  134.9888  157.0832 LP  0  0  0  0  0  0  0  0  0  0  0  0  # atno 17395 bound_to 11000

$$$$
