AV-unprocessed.smi:2467|AV-procd|sdf|9726|dock2
  -GOLD-   2272013363D 1   1.00000     0.00000
 Structure written by MMmdl.
 46 47  0  0  0  0  0  0  0  0  1 V2000
  153.5440  132.6557  157.6104 C   0  0  0  0  0  0  0  0  0  0  0  0
  152.6591  131.7180  156.7749 C   0  0  0  0  0  0  0  0  0  0  0  0
  151.1488  131.7942  157.1142 C   0  0  0  0  0  0  0  0  0  0  0  0
  150.3669  130.6409  156.4364 C   0  0  0  0  0  0  0  0  0  0  0  0
  151.0748  130.0080  155.2285 C   0  0  0  0  0  0  0  0  0  0  0  0
  150.5367  133.1764  156.7638 C   0  0  1  0  0  0  0  0  0  0  0  0
  149.8734  133.2476  155.3701 C   0  0  0  0  0  0  0  0  0  0  0  0
  149.3104  134.6535  155.1152 C   0  0  1  0  0  0  0  0  0  0  0  0
  148.5835  134.6766  153.8496 N   0  0  0  0  0  0  0  0  0  0  0  0
  147.5602  133.8708  153.5210 C   0  0  0  0  0  0  0  0  0  0  0  0
  147.1151  133.0167  154.2862 O   0  0  0  0  0  0  0  0  0  0  0  0
  147.0315  134.0436  152.2903 N   0  0  0  0  0  0  0  0  0  0  0  0
  145.9611  133.3838  151.6170 C   0  0  0  0  0  0  0  0  0  0  0  0
  145.8721  131.9978  151.8804 C   0  0  0  0  0  0  0  0  0  0  0  0
  144.8591  131.2353  151.2675 C   0  0  0  0  0  0  0  0  0  0  0  0
  143.9569  131.8787  150.4024 C   0  0  0  0  0  0  0  0  0  0  0  0
  144.1129  133.2607  150.1915 C   0  0  0  0  0  0  0  0  0  0  0  0
  145.0836  133.9925  150.7786 N   0  0  0  0  0  0  0  0  0  0  0  0
  148.3884  135.0481  156.2806 C   0  0  0  0  0  0  0  0  0  0  0  0
  149.1112  134.8785  157.6263 C   0  0  0  0  0  0  0  0  0  0  0  0
  149.5895  133.5444  157.7647 O   0  0  0  0  0  0  0  0  0  0  0  0
  154.5775  132.6129  157.2658 H   0  0  0  0  0  0  0  0  0  0  0  0
  153.5469  132.3883  158.6661 H   0  0  0  0  0  0  0  0  0  0  0  0
  153.2120  133.6908  157.5248 H   0  0  0  0  0  0  0  0  0  0  0  0
  152.8257  131.9776  155.7318 H   0  0  0  0  0  0  0  0  0  0  0  0
  153.0115  130.6915  156.8819 H   0  0  0  0  0  0  0  0  0  0  0  0
  151.0515  131.6643  158.1930 H   0  0  0  0  0  0  0  0  0  0  0  0
  150.1341  129.8679  157.1697 H   0  0  0  0  0  0  0  0  0  0  0  0
  149.4050  131.0066  156.0810 H   0  0  0  0  0  0  0  0  0  0  0  0
  150.4198  129.2885  154.7367 H   0  0  0  0  0  0  0  0  0  0  0  0
  151.9792  129.4726  155.5145 H   0  0  0  0  0  0  0  0  0  0  0  0
  151.3468  130.7628  154.4901 H   0  0  0  0  0  0  0  0  0  0  0  0
  151.3370  133.9158  156.7660 H   0  0  0  0  0  0  0  0  0  0  0  0
  150.5987  132.9908  154.5973 H   0  0  0  0  0  0  0  0  0  0  0  0
  149.0631  132.5238  155.2898 H   0  0  0  0  0  0  0  0  0  0  0  0
  150.1460  135.3544  155.0664 H   0  0  0  0  0  0  0  0  0  0  0  0
  148.8873  135.3513  153.1614 H   0  0  0  0  0  0  0  0  0  0  0  0
  147.4544  134.7913  151.7603 H   0  0  0  0  0  0  0  0  0  0  0  0
  146.5733  131.5169  152.5473 H   0  0  0  0  0  0  0  0  0  0  0  0
  144.7774  130.1753  151.4581 H   0  0  0  0  0  0  0  0  0  0  0  0
  143.1669  131.3278  149.9137 H   0  0  0  0  0  0  0  0  0  0  0  0
  143.4414  133.7935  149.5346 H   0  0  0  0  0  0  0  0  0  0  0  0
  148.0507  136.0790  156.1679 H   0  0  0  0  0  0  0  0  0  0  0  0
  147.4939  134.4235  156.2732 H   0  0  0  0  0  0  0  0  0  0  0  0
  149.9396  135.5833  157.7132 H   0  0  0  0  0  0  0  0  0  0  0  0
  148.4266  135.0924  158.4472 H   0  0  0  0  0  0  0  0  0  0  0  0
  1  2  1  0  0  0  0
  1 22  1  0  0  0  0
  1 23  1  0  0  0  0
  1 24  1  0  0  0  0
  2  3  1  0  0  0  0
  2 25  1  0  0  0  0
  2 26  1  0  0  0  0
  3  4  1  0  0  0  0
  3  6  1  0  0  0  0
  3 27  1  0  0  0  0
  4  5  1  0  0  0  0
  4 28  1  0  0  0  0
  4 29  1  0  0  0  0
  5 30  1  0  0  0  0
  5 31  1  0  0  0  0
  5 32  1  0  0  0  0
  6 21  1  0  0  0  0
  6  7  1  0  0  0  0
  6 33  1  0  0  0  0
  7  8  1  0  0  0  0
  7 34  1  0  0  0  0
  7 35  1  0  0  0  0
  8  9  1  0  0  0  0
  8 19  1  0  0  0  0
  8 36  1  0  0  0  0
  9 10  1  0  0  0  0
  9 37  1  0  0  0  0
 10 11  2  0  0  0  0
 10 12  1  0  0  0  0
 12 13  1  0  0  0  0
 12 38  1  0  0  0  0
 13 18  1  0  0  0  0
 13 14  2  0  0  0  0
 14 15  1  0  0  0  0
 14 39  1  0  0  0  0
 15 16  2  0  0  0  0
 15 40  1  0  0  0  0
 16 17  1  0  0  0  0
 16 41  1  0  0  0  0
 17 18  2  0  0  0  0
 17 42  1  0  0  0  0
 19 20  1  0  0  0  0
 19 43  1  0  0  0  0
 19 44  1  0  0  0  0
 20 21  1  0  0  0  0
 20 45  1  0  0  0  0
 20 46  1  0  0  0  0
M  END
> <s_m_source_file>
AV-unprocessed.smi

> <i_m_source_file_index>
2467

> <i_lp_mmshare_version>
43012

> <i_f3d_flags>
0

> <s_epik_input>
W0NIM11bQ0gyXVtDSF0oW0NIMl1bQ0gzXSlbQ0BASF0xW0NIMl1bQ0BIXShbQ0gyXVtDSDJdTzEpW05IXUMoPU8pW05IXWMyW2NIXVtjSF1bY0hdW2NIXW4y

> <s_epik_cmdline>
J2VwaWtfcHl0aG9uJywgJy1waCcsICc3LjAnLCAnLXRuJywgJzgnLCAnLW1hJywgJzIwMCcsICctbWV0YWxfYmluZGluZycsICctaW1hZScsICc8aW5maWxlLm1hZT4nLCAnLW9tYWUnLCAnPG91dGZpbGUubWFlPic=

> <r_lp_tautomer_probability>
1

> <r_epik_Ionization_Penalty>
4.80427e-05

> <r_epik_Ionization_Penalty_Charging>
0

> <r_epik_Ionization_Penalty_Neutral>
4.80427e-05

> <r_epik_State_Penalty>
-0

> <r_epik_Charging_Adjusted_Penalty>
0

> <i_epik_Tot_Q>
0

> <i_epik_Tot_abs_Q>
0

> <r_epik_Metal_State_Penalty>
-0

> <b_epik_Metal_Only>
0

> <s_lp_Force_Field>
OPLS_2005

> <r_lp_Energy>
20.6132

> <b_lp_Chiralities_Consistent>
1

> <s_lp_Variant>
AV-unprocessed.smi:2467-2

> <Gold.Version>
5.8.1

> <Gold.Id.Protein>
6NUR|6NUR_protein|mol2

> <Gold.PLP.Fitness>
39.3875

> <Gold.PLP.PLP>
-31.3087

> <Gold.PLP.part.hbond>
-2.9527

> <Gold.PLP.part.metal>
0.0000

> <Gold.PLP.part.buried>
-3.2574

> <Gold.PLP.part.nonpolar>
-25.1928

> <Gold.PLP.part.repulsive>
0.2161

> <Gold.PLP.ligand.clash>
0.0000

> <Gold.PLP.ligand.torsion>
1.8074

> <Gold.PLP.Chemscore.Hbond>
2.8640

> <Gold.PLP.Chemscore.CHOScore>
1.0000

> <Gold.PLP.Chemscore.Metal>
0.0000

> <Gold.Chemscore.Hbonds>
donor molecule, donor type, donor heavy atom, donor atom, acceptor molecule, acceptor atom, score
      L1  H     9    37       P1  7948  1.00
      L1  H    12    38       P1  7948  0.86
      P1  H  6896  6909       L1    21  0.61
      L1  C    17    42       P1 10186  1.00

> <Gold.PLP.Chemscore.Internal.Correction>
0.1016

> <Gold.Rescore>
     Score         DG    S(hbond)    S(metal)    S(lipo)     H(rot)  DE(clash)    DE(int)     intcor
     12.18     -16.49       1.65        0.00      79.48       1.49       0.03       4.27       ----

> <Gold.Chemscore.Fitness>
12.1847

> <Gold.Chemscore.DG>
-16.4916

> <Gold.Chemscore.ZeroCoef>
-5.4800

> <Gold.Chemscore.Hbond>
1.6513

> <Gold.Chemscore.Metal>
0.0000

> <Gold.Chemscore.Lipo>
79.4804

> <Gold.Chemscore.Internal_Hbond>
0.0000

> <Gold.Chemscore.DEClash>
0.0327

> <Gold.Chemscore.DEInternal>
4.2742

> <Gold.Chemscore.Rot>
1.4856

> <Gold.Chemscore.Internal.Correction>
   9.000000E+99

> <Gold.Chemscore.Hbonds>
donor molecule, donor type, donor heavy atom, donor atom, acceptor molecule, acceptor atom, score
      L1  H     9    37       P1  7948  0.57
      L1  H    12    38       P1  7948  0.52
      P1  H  6896  6909       L1    21  0.03

> <Gold.Chemscore.Hbond.Weighted>
-5.5154

> <Gold.Chemscore.Metal.Weighted>
-0.0000

> <Gold.Chemscore.Lipo.Weighted>
-9.2992

> <Gold.Chemscore.Internal_Hbond.Weighted>
0.0000

> <Gold.Chemscore.DEClash.Weighted>
0.0327

> <Gold.Chemscore.DEInternal.Weighted>
4.2742

> <Gold.Chemscore.Rot.Weighted>
3.8031

> <Gold.Chemscore.Internal.Correction.Weighted>
   9.000000E+99

> <Gold.Protein.RotatedTorsions>
[ 6907 6896 6895 6894 ] final  -19.64 input  -60.11 | X-H torsion
[ 7974 7965 7964 7962 ] final    9.85 input  175.53 | X-H torsion
[ 8008 7997 7996 7995 ] final -121.39 input   59.86 | X-H torsion
[ 10167 10162 10161 10158 ] final  109.52 input  -65.29 | X-H torsion
[ 10718 10713 10712 10709 ] final -147.99 input   66.30 | X-H torsion
[ 10763 10752 10751 10750 ] final  169.26 input  -60.55 | X-H torsion
[ 11005 11000 10999 10996 ] final    1.72 input  -57.11 | X-H torsion

> <Gold.Protein.ActiveResidues>
 VAL166  LYS551  ARG553  GLY616  TRP617  ASP618  TYR619  PRO620  LYS621  CYS622 
 ASP623  PHE694  ASN695  SER759  ASP760  ASP761  ALA762  ILE779  LEU786  VAL792 
 PHE793  MET794  SER795  GLU796  ALA797  LYS798  CYS799  TRP800  GLU811  SER814 

> <Gold.Protein.RotatedAtoms>
  151.2601  135.0651  159.9094 H   0  0  0  0  0  0  0  0  0  0  0  0  # atno 6907 bound_to 6896
  152.5367  134.0240  159.8005 H   0  0  0  0  0  0  0  0  0  0  0  0  # atno 6908 bound_to 6896
  151.0461  133.5614  159.2677 H   0  0  0  0  0  0  0  0  0  0  0  0  # atno 6909 bound_to 6896
  146.2397  139.9722  142.8445 H   0  0  0  0  0  0  0  0  0  0  0  0  # atno 7974 bound_to 7965
  155.1472  140.0403  157.2812 H   0  0  0  0  0  0  0  0  0  0  0  0  # atno 8008 bound_to 7997
  154.6430  140.2551  155.7273 H   0  0  0  0  0  0  0  0  0  0  0  0  # atno 8009 bound_to 7997
  156.2542  140.2852  156.0832 H   0  0  0  0  0  0  0  0  0  0  0  0  # atno 8010 bound_to 7997
  139.6760  144.7122  151.1601 H   0  0  0  0  0  0  0  0  0  0  0  0  # atno 10167 bound_to 10162
  156.4146  130.7998  151.2218 H   0  0  0  0  0  0  0  0  0  0  0  0  # atno 10718 bound_to 10713
  154.3805  135.2753  155.2214 H   0  0  0  0  0  0  0  0  0  0  0  0  # atno 10763 bound_to 10752
  154.4323  135.5974  153.6080 H   0  0  0  0  0  0  0  0  0  0  0  0  # atno 10764 bound_to 10752
  152.9835  135.5998  154.4047 H   0  0  0  0  0  0  0  0  0  0  0  0  # atno 10765 bound_to 10752
  140.6123  133.9737  155.8183 H   0  0  0  0  0  0  0  0  0  0  0  0  # atno 11005 bound_to 11000
  145.1670  140.9702  143.4344 LP  0  0  0  0  0  0  0  0  0  0  0  0  # atno 17320 bound_to 7965
  145.0063  139.3551  143.6142 LP  0  0  0  0  0  0  0  0  0  0  0  0  # atno 17321 bound_to 7965
  140.7635  143.5771  150.8934 LP  0  0  0  0  0  0  0  0  0  0  0  0  # atno 17342 bound_to 10162
  139.9439  143.6350  152.3046 LP  0  0  0  0  0  0  0  0  0  0  0  0  # atno 17343 bound_to 10162
  157.7507  131.0247  150.3888 LP  0  0  0  0  0  0  0  0  0  0  0  0  # atno 17370 bound_to 10713
  156.4193  130.3949  149.6836 LP  0  0  0  0  0  0  0  0  0  0  0  0  # atno 17371 bound_to 10713
  141.0799  134.0078  157.3401 LP  0  0  0  0  0  0  0  0  0  0  0  0  # atno 17394 bound_to 11000
  139.9187  135.0199  156.7981 LP  0  0  0  0  0  0  0  0  0  0  0  0  # atno 17395 bound_to 11000

$$$$
