AV-unprocessed.smi:3140|AV-procd|sdf|11960|dock3
  -GOLD-   2272017363D 1   1.00000     0.00000
 Structure written by MMmdl.
 37 38  0  0  0  0  0  0  0  0  1 V2000
  152.8668  139.0983  154.9337 C   0  0  0  0  0  0  0  0  0  0  0  0
  152.0424  139.5698  156.1425 C   0  0  2  0  0  0  0  0  0  0  0  0
  151.1663  140.8095  155.8247 C   0  0  0  0  0  0  0  0  0  0  0  0
  150.0158  140.5228  154.9817 N   0  0  0  0  0  0  0  0  0  0  0  0
  148.9288  141.3268  154.7088 C   0  0  0  0  0  0  0  0  0  0  0  0
  148.1109  140.6332  153.8636 C   0  0  0  0  0  0  0  0  0  0  0  0
  148.7945  139.4009  153.6675 C   0  0  0  0  0  0  0  0  0  0  0  0
  149.9355  139.3402  154.3333 N   0  0  0  0  0  0  0  0  0  0  0  0
  152.9739  139.8229  157.2356 N   0  0  0  0  0  0  0  0  0  0  0  0
  152.3621  140.5453  158.3421 C   0  0  0  0  0  0  0  0  0  0  0  0
  153.4595  141.1347  159.2444 C   0  0  0  0  0  0  0  0  0  0  0  0
  152.9215  142.1178  160.1843 N   0  0  0  0  0  0  0  0  0  0  0  0
  152.0651  143.1956  159.7180 C   0  0  0  0  0  0  0  0  0  0  0  0
  151.7051  144.0070  160.9717 C   0  0  0  0  0  0  0  0  0  0  0  0
  152.3929  143.3088  162.1504 C   0  0  0  0  0  0  0  0  0  0  0  0
  153.1322  142.1499  161.5052 C   0  0  0  0  0  0  0  0  0  0  0  0
  153.8230  141.3608  162.1481 O   0  0  0  0  0  0  0  0  0  0  0  0
  152.2234  138.9019  154.0756 H   0  0  0  0  0  0  0  0  0  0  0  0
  153.4005  138.1746  155.1596 H   0  0  0  0  0  0  0  0  0  0  0  0
  153.6077  139.8393  154.6317 H   0  0  0  0  0  0  0  0  0  0  0  0
  151.3884  138.7467  156.4339 H   0  0  0  0  0  0  0  0  0  0  0  0
  150.7942  141.2326  156.7585 H   0  0  0  0  0  0  0  0  0  0  0  0
  151.7503  141.6043  155.3609 H   0  0  0  0  0  0  0  0  0  0  0  0
  148.8279  142.3130  155.1373 H   0  0  0  0  0  0  0  0  0  0  0  0
  147.1687  140.9572  153.4473 H   0  0  0  0  0  0  0  0  0  0  0  0
  148.4992  138.5556  153.0635 H   0  0  0  0  0  0  0  0  0  0  0  0
  153.3426  138.9474  157.5784 H   0  0  0  0  0  0  0  0  0  0  0  0
  151.7079  141.3402  157.9870 H   0  0  0  0  0  0  0  0  0  0  0  0
  151.7430  139.8533  158.9138 H   0  0  0  0  0  0  0  0  0  0  0  0
  153.9307  140.3316  159.8129 H   0  0  0  0  0  0  0  0  0  0  0  0
  154.2515  141.5835  158.6431 H   0  0  0  0  0  0  0  0  0  0  0  0
  152.5915  143.8088  158.9857 H   0  0  0  0  0  0  0  0  0  0  0  0
  151.1719  142.7877  159.2431 H   0  0  0  0  0  0  0  0  0  0  0  0
  152.0513  145.0370  160.8777 H   0  0  0  0  0  0  0  0  0  0  0  0
  150.6243  144.0388  161.1152 H   0  0  0  0  0  0  0  0  0  0  0  0
  153.0930  143.9708  162.6608 H   0  0  0  0  0  0  0  0  0  0  0  0
  151.6694  142.9360  162.8764 H   0  0  0  0  0  0  0  0  0  0  0  0
  1  2  1  0  0  0  0
  1 18  1  0  0  0  0
  1 19  1  0  0  0  0
  1 20  1  0  0  0  0
  2  3  1  0  0  0  0
  2  9  1  0  0  0  0
  2 21  1  0  0  0  0
  3  4  1  0  0  0  0
  3 22  1  0  0  0  0
  3 23  1  0  0  0  0
  4  8  1  0  0  0  0
  4  5  1  0  0  0  0
  5  6  2  0  0  0  0
  5 24  1  0  0  0  0
  6  7  1  0  0  0  0
  6 25  1  0  0  0  0
  7  8  2  0  0  0  0
  7 26  1  0  0  0  0
  9 10  1  0  0  0  0
  9 27  1  0  0  0  0
 10 11  1  0  0  0  0
 10 28  1  0  0  0  0
 10 29  1  0  0  0  0
 11 12  1  0  0  0  0
 11 30  1  0  0  0  0
 11 31  1  0  0  0  0
 12 16  1  0  0  0  0
 12 13  1  0  0  0  0
 13 14  1  0  0  0  0
 13 32  1  0  0  0  0
 13 33  1  0  0  0  0
 14 15  1  0  0  0  0
 14 34  1  0  0  0  0
 14 35  1  0  0  0  0
 15 16  1  0  0  0  0
 15 36  1  0  0  0  0
 15 37  1  0  0  0  0
 16 17  2  0  0  0  0
M  END
> <s_m_source_file>
AV-unprocessed.smi

> <i_m_source_file_index>
3140

> <i_lp_mmshare_version>
43012

> <i_f3d_flags>
0

> <s_epik_input>
bjFbY0hdW2NIXVtjSF1uMVtDSDJdW0NAQEhdKFtDSDNdKVtOSF1bQ0gyXVtDSDJdTjJbQ0gyXVtDSDJdW0NIMl1DMj1P

> <s_epik_cmdline>
J2VwaWtfcHl0aG9uJywgJy1waCcsICc3LjAnLCAnLXRuJywgJzgnLCAnLW1hJywgJzIwMCcsICctbWV0YWxfYmluZGluZycsICctaW1hZScsICc8aW5maWxlLm1hZT4nLCAnLW9tYWUnLCAnPG91dGZpbGUubWFlPic=

> <r_lp_tautomer_probability>
1

> <r_epik_Ionization_Penalty>
2.53587

> <r_epik_Ionization_Penalty_Charging>
0

> <r_epik_Ionization_Penalty_Neutral>
2.53587

> <r_epik_State_Penalty>
2.70334

> <r_epik_Charging_Adjusted_Penalty>
2.70334

> <i_epik_Tot_Q>
0

> <i_epik_Tot_abs_Q>
0

> <r_epik_Metal_State_Penalty>
2.7033

> <b_epik_Metal_Only>
0

> <s_lp_Force_Field>
OPLS_2005

> <r_lp_Energy>
23.3858

> <b_lp_Chiralities_Consistent>
1

> <s_lp_Variant>
AV-unprocessed.smi:3140-3

> <Gold.Version>
5.8.1

> <Gold.Id.Protein>
6NUR|6NUR_protein|mol2

> <Gold.PLP.Fitness>
50.2613

> <Gold.PLP.PLP>
-42.8940

> <Gold.PLP.part.hbond>
-1.0193

> <Gold.PLP.part.metal>
0.0000

> <Gold.PLP.part.buried>
-0.9347

> <Gold.PLP.part.nonpolar>
-39.5611

> <Gold.PLP.part.repulsive>
0.1694

> <Gold.PLP.ligand.clash>
0.0000

> <Gold.PLP.ligand.torsion>
0.5454

> <Gold.PLP.Chemscore.Hbond>
1.0000

> <Gold.PLP.Chemscore.CHOScore>
1.7970

> <Gold.PLP.Chemscore.Metal>
0.0000

> <Gold.Chemscore.Hbonds>
donor molecule, donor type, donor heavy atom, donor atom, acceptor molecule, acceptor atom, score
      P1  H  7997  8009       L1     9  0.45
      L1  C     5    24       P1  8028  1.00
      L1  C     7    26       P1  7948  0.75
      L1  C     7    26       P1  7957  0.03

> <Gold.PLP.Chemscore.Internal.Correction>
0.0672

> <Gold.Rescore>
     Score         DG    S(hbond)    S(metal)    S(lipo)     H(rot)  DE(clash)    DE(int)     intcor
     11.70     -12.09       0.31        0.00      90.71       1.97       0.04       0.35       ----

> <Gold.Chemscore.Fitness>
11.7036

> <Gold.Chemscore.DG>
-12.0936

> <Gold.Chemscore.ZeroCoef>
-5.4800

> <Gold.Chemscore.Hbond>
0.3143

> <Gold.Chemscore.Metal>
0.0000

> <Gold.Chemscore.Lipo>
90.7063

> <Gold.Chemscore.Internal_Hbond>
0.0000

> <Gold.Chemscore.DEClash>
0.0361

> <Gold.Chemscore.DEInternal>
0.3539

> <Gold.Chemscore.Rot>
1.9722

> <Gold.Chemscore.Internal.Correction>
   9.000000E+99

> <Gold.Chemscore.Hbonds>
donor molecule, donor type, donor heavy atom, donor atom, acceptor molecule, acceptor atom, score
      P1  H  7997  8009       L1     9  0.01

> <Gold.Chemscore.Hbond.Weighted>
-1.0497

> <Gold.Chemscore.Metal.Weighted>
-0.0000

> <Gold.Chemscore.Lipo.Weighted>
-10.6126

> <Gold.Chemscore.Internal_Hbond.Weighted>
0.0000

> <Gold.Chemscore.DEClash.Weighted>
0.0361

> <Gold.Chemscore.DEInternal.Weighted>
0.3539

> <Gold.Chemscore.Rot.Weighted>
5.0487

> <Gold.Chemscore.Internal.Correction.Weighted>
   9.000000E+99

> <Gold.Protein.RotatedTorsions>
[ 6907 6896 6895 6894 ] final   79.97 input  -60.11 | X-H torsion
[ 7974 7965 7964 7962 ] final  -51.19 input  175.53 | X-H torsion
[ 8008 7997 7996 7995 ] final -173.98 input   59.86 | X-H torsion
[ 10167 10162 10161 10158 ] final   22.32 input  -65.29 | X-H torsion
[ 10718 10713 10712 10709 ] final  107.62 input   66.30 | X-H torsion
[ 10763 10752 10751 10750 ] final -172.16 input  -60.55 | X-H torsion
[ 11005 11000 10999 10996 ] final   24.62 input  -57.11 | X-H torsion

> <Gold.Protein.ActiveResidues>
 VAL166  LYS551  ARG553  GLY616  TRP617  ASP618  TYR619  PRO620  LYS621  CYS622 
 ASP623  PHE694  ASN695  SER759  ASP760  ASP761  ALA762  ILE779  LEU786  VAL792 
 PHE793  MET794  SER795  GLU796  ALA797  LYS798  CYS799  TRP800  GLU811  SER814 

> <Gold.Protein.RotatedAtoms>
  152.5218  134.3430  159.9223 H   0  0  0  0  0  0  0  0  0  0  0  0  # atno 6907 bound_to 6896
  151.3380  133.3967  159.2676 H   0  0  0  0  0  0  0  0  0  0  0  0  # atno 6908 bound_to 6896
  150.9827  134.9196  159.7911 H   0  0  0  0  0  0  0  0  0  0  0  0  # atno 6909 bound_to 6896
  145.9217  140.7828  142.9644 H   0  0  0  0  0  0  0  0  0  0  0  0  # atno 7974 bound_to 7965
  155.9643  140.1150  157.0868 H   0  0  0  0  0  0  0  0  0  0  0  0  # atno 8008 bound_to 7997
  154.4140  140.1175  156.5288 H   0  0  0  0  0  0  0  0  0  0  0  0  # atno 8009 bound_to 7997
  155.6679  140.3473  155.4809 H   0  0  0  0  0  0  0  0  0  0  0  0  # atno 8010 bound_to 7997
  140.5357  143.9764  150.6490 H   0  0  0  0  0  0  0  0  0  0  0  0  # atno 10167 bound_to 10162
  157.6621  131.0876  150.6183 H   0  0  0  0  0  0  0  0  0  0  0  0  # atno 10718 bound_to 10713
  154.6224  135.2877  155.0311 H   0  0  0  0  0  0  0  0  0  0  0  0  # atno 10763 bound_to 10752
  154.1501  135.6505  153.4965 H   0  0  0  0  0  0  0  0  0  0  0  0  # atno 10764 bound_to 10752
  153.0242  135.5353  154.7018 H   0  0  0  0  0  0  0  0  0  0  0  0  # atno 10765 bound_to 10752
  140.3567  134.2170  155.7675 H   0  0  0  0  0  0  0  0  0  0  0  0  # atno 11005 bound_to 11000
  144.6754  140.1986  143.7389 LP  0  0  0  0  0  0  0  0  0  0  0  0  # atno 17320 bound_to 7965
  145.8541  139.2190  143.1755 LP  0  0  0  0  0  0  0  0  0  0  0  0  # atno 17321 bound_to 7965
  140.3151  143.3173  152.0840 LP  0  0  0  0  0  0  0  0  0  0  0  0  # atno 17342 bound_to 10162
  139.4970  144.6611  151.6463 LP  0  0  0  0  0  0  0  0  0  0  0  0  # atno 17343 bound_to 10162
  156.6485  130.4478  149.5727 LP  0  0  0  0  0  0  0  0  0  0  0  0  # atno 17370 bound_to 10713
  156.2155  130.6705  151.1314 LP  0  0  0  0  0  0  0  0  0  0  0  0  # atno 17371 bound_to 10713
  141.1996  133.8007  157.0528 LP  0  0  0  0  0  0  0  0  0  0  0  0  # atno 17394 bound_to 11000
  140.0659  134.9729  157.1385 LP  0  0  0  0  0  0  0  0  0  0  0  0  # atno 17395 bound_to 11000

$$$$
