AV-unprocessed.smi:2672|AV-procd|sdf|10354|dock8
  -GOLD-   2272014383D 1   1.00000     0.00000
 Structure written by MMmdl.
 36 36  0  0  0  0  0  0  0  0  2 V2000
  154.4045  140.5030  160.3703 C   0  0  0  0  0  0  0  0  0  0  0  0
  153.3105  141.4386  159.8782 C   0  0  0  0  0  0  0  0  0  0  0  0
  153.1973  142.6647  160.4240 C   0  0  0  0  0  0  0  0  0  0  0  0
  152.1670  143.6154  160.0234 C   0  0  0  0  0  0  0  0  0  0  0  0
  152.0946  144.7338  160.5363 O   0  0  0  0  0  0  0  0  0  0  0  0
  151.2859  143.1814  159.0712 N   0  0  0  0  0  0  0  0  0  0  0  0
  150.1353  144.0611  158.7492 C   0  0  0  0  0  0  0  0  0  0  0  0
  149.2795  144.4462  159.9666 C   0  0  0  0  0  0  0  0  0  0  0  0
  149.5587  144.0414  161.0958 O   0  0  0  0  0  0  0  0  0  0  0  0
  148.2330  145.2463  159.7114 N   0  0  0  0  0  0  0  0  0  0  0  0
  147.2869  145.7472  160.7041 C   0  0  0  0  0  0  0  0  0  0  0  0
  146.5453  144.5660  161.3435 C   0  0  0  0  0  0  0  0  0  0  0  0
  146.3116  146.7476  160.0631 C   0  0  0  0  0  0  0  0  0  0  0  0
  151.4233  141.9106  158.4341 C   0  0  0  0  0  0  0  0  0  0  0  0
  150.4491  141.6016  157.2894 C   0  0  0  0  0  0  0  0  0  0  0  0
  152.3924  141.0399  158.8182 C   0  0  0  0  0  0  0  0  0  0  0  0
  152.5527  139.6335  158.1546 C   0  0  0  0  0  0  0  0  0  0  0  0
  153.7255  139.2188  158.0297 O   0  0  0  0  0  0  0  0  0  0  0  0
  151.4930  139.0652  157.8114 O   0  5  0  0  0  0  0  0  0  0  0  0
  154.9748  140.9410  161.1899 H   0  0  0  0  0  0  0  0  0  0  0  0
  155.1004  140.2748  159.5626 H   0  0  0  0  0  0  0  0  0  0  0  0
  153.9732  139.5675  160.7281 H   0  0  0  0  0  0  0  0  0  0  0  0
  153.8846  142.9631  161.2021 H   0  0  0  0  0  0  0  0  0  0  0  0
  150.4521  144.9629  158.2266 H   0  0  0  0  0  0  0  0  0  0  0  0
  149.4784  143.5820  158.0209 H   0  0  0  0  0  0  0  0  0  0  0  0
  148.0813  145.5313  158.7548 H   0  0  0  0  0  0  0  0  0  0  0  0
  147.8405  146.2582  161.4940 H   0  0  0  0  0  0  0  0  0  0  0  0
  145.8541  144.9083  162.1142 H   0  0  0  0  0  0  0  0  0  0  0  0
  147.2427  143.8718  161.8134 H   0  0  0  0  0  0  0  0  0  0  0  0
  145.9688  144.0105  160.6030 H   0  0  0  0  0  0  0  0  0  0  0  0
  145.6054  147.1313  160.7997 H   0  0  0  0  0  0  0  0  0  0  0  0
  145.7368  146.2833  159.2610 H   0  0  0  0  0  0  0  0  0  0  0  0
  146.8404  147.6032  159.6413 H   0  0  0  0  0  0  0  0  0  0  0  0
  150.8788  140.9165  156.5599 H   0  0  0  0  0  0  0  0  0  0  0  0
  150.1754  142.4802  156.7084 H   0  0  0  0  0  0  0  0  0  0  0  0
  149.5416  141.1423  157.6815 H   0  0  0  0  0  0  0  0  0  0  0  0
  1  2  1  0  0  0  0
  1 20  1  0  0  0  0
  1 21  1  0  0  0  0
  1 22  1  0  0  0  0
  2 16  1  0  0  0  0
  2  3  2  0  0  0  0
  3  4  1  0  0  0  0
  3 23  1  0  0  0  0
  4  5  2  0  0  0  0
  4  6  1  0  0  0  0
  6  7  1  0  0  0  0
  6 14  1  0  0  0  0
  7  8  1  0  0  0  0
  7 24  1  0  0  0  0
  7 25  1  0  0  0  0
  8  9  2  0  0  0  0
  8 10  1  0  0  0  0
 10 11  1  0  0  0  0
 10 26  1  0  0  0  0
 11 12  1  0  0  0  0
 11 13  1  0  0  0  0
 11 27  1  0  0  0  0
 12 28  1  0  0  0  0
 12 29  1  0  0  0  0
 12 30  1  0  0  0  0
 13 31  1  0  0  0  0
 13 32  1  0  0  0  0
 13 33  1  0  0  0  0
 14 15  1  0  0  0  0
 14 16  2  0  0  0  0
 15 34  1  0  0  0  0
 15 35  1  0  0  0  0
 15 36  1  0  0  0  0
 16 17  1  0  0  0  0
 17 18  2  0  0  0  0
 17 19  1  0  0  0  0
M  CHG  1  19  -1
M  END
> <s_m_source_file>
AV-unprocessed.smi

> <i_m_source_file_index>
2672

> <i_lp_mmshare_version>
43012

> <i_f3d_flags>
0

> <s_epik_input>
W0NIM11jMVtjSF1jKD1PKW4oYyhbQ0gzXSljMUMoPU8pW09IXSlbQ0gyXUMoPU8pW05IXVtDSF0oW0NIM10pW0NIM10=

> <s_epik_cmdline>
J2VwaWtfcHl0aG9uJywgJy1waCcsICc3LjAnLCAnLXRuJywgJzgnLCAnLW1hJywgJzIwMCcsICctbWV0YWxfYmluZGluZycsICctaW1hZScsICc8aW5maWxlLm1hZT4nLCAnLW9tYWUnLCAnPG91dGZpbGUubWFlPic=

> <r_lp_tautomer_probability>
1

> <r_epik_Ionization_Penalty>
0.000277152

> <r_epik_Ionization_Penalty_Charging>
0.000277132

> <r_epik_Ionization_Penalty_Neutral>
2.06705e-08

> <r_epik_State_Penalty>
-0

> <r_epik_Charging_Adjusted_Penalty>
0.000277132

> <i_epik_Tot_Q>
-1

> <i_epik_Tot_abs_Q>
1

> <r_epik_Metal_State_Penalty>
-0

> <b_epik_Metal_Only>
0

> <s_lp_Force_Field>
OPLS_2005

> <r_lp_Energy>
18.8997

> <b_lp_Chiralities_Consistent>
1

> <s_lp_Variant>
AV-unprocessed.smi:2672-1

> <Gold.Version>
5.8.1

> <Gold.Id.Protein>
6NUR|6NUR_protein|mol2

> <Gold.PLP.Fitness>
48.8148

> <Gold.PLP.PLP>
-38.9539

> <Gold.PLP.part.hbond>
-3.0000

> <Gold.PLP.part.metal>
0.0000

> <Gold.PLP.part.buried>
-6.2235

> <Gold.PLP.part.nonpolar>
-31.4897

> <Gold.PLP.part.repulsive>
0.5256

> <Gold.PLP.ligand.clash>
0.0000

> <Gold.PLP.ligand.torsion>
0.5327

> <Gold.PLP.Chemscore.Hbond>
3.3040

> <Gold.PLP.Chemscore.CHOScore>
0.0000

> <Gold.PLP.Chemscore.Metal>
0.0000

> <Gold.Chemscore.Hbonds>
donor molecule, donor type, donor heavy atom, donor atom, acceptor molecule, acceptor atom, score
      L1  H    10    26       P1  8029  1.00
      P1  H  6933  6944       L1     9  0.30
      P1  H  7997  8010       L1    18  2.00

> <Gold.PLP.Chemscore.Internal.Correction>
1.0143

> <Gold.Rescore>
     Score         DG    S(hbond)    S(metal)    S(lipo)     H(rot)  DE(clash)    DE(int)     intcor
     14.05     -17.74       2.28        0.00      72.59       1.50       0.15       3.54       ----

> <Gold.Chemscore.Fitness>
14.0482

> <Gold.Chemscore.DG>
-17.7372

> <Gold.Chemscore.ZeroCoef>
-5.4800

> <Gold.Chemscore.Hbond>
2.2751

> <Gold.Chemscore.Metal>
0.0000

> <Gold.Chemscore.Lipo>
72.5932

> <Gold.Chemscore.Internal_Hbond>
0.0000

> <Gold.Chemscore.DEClash>
0.1461

> <Gold.Chemscore.DEInternal>
3.5429

> <Gold.Chemscore.Rot>
1.4980

> <Gold.Chemscore.Internal.Correction>
   9.000000E+99

> <Gold.Chemscore.Hbonds>
donor molecule, donor type, donor heavy atom, donor atom, acceptor molecule, acceptor atom, score
      L1  H    10    26       P1  8029  0.94
      P1  H  6933  6944       L1     9  0.22
      P1  H  7997  8010       L1    18  0.91

> <Gold.Chemscore.Hbond.Weighted>
-7.5988

> <Gold.Chemscore.Metal.Weighted>
-0.0000

> <Gold.Chemscore.Lipo.Weighted>
-8.4934

> <Gold.Chemscore.Internal_Hbond.Weighted>
0.0000

> <Gold.Chemscore.DEClash.Weighted>
0.1461

> <Gold.Chemscore.DEInternal.Weighted>
3.5429

> <Gold.Chemscore.Rot.Weighted>
3.8350

> <Gold.Chemscore.Internal.Correction.Weighted>
   9.000000E+99

> <Gold.Protein.RotatedTorsions>
[ 6907 6896 6895 6894 ] final  -37.28 input  -60.11 | X-H torsion
[ 7974 7965 7964 7962 ] final   65.96 input  175.53 | X-H torsion
[ 8008 7997 7996 7995 ] final   28.31 input   59.86 | X-H torsion
[ 10167 10162 10161 10158 ] final   90.14 input  -65.29 | X-H torsion
[ 10718 10713 10712 10709 ] final  172.19 input   66.30 | X-H torsion
[ 10763 10752 10751 10750 ] final  -54.84 input  -60.55 | X-H torsion
[ 11005 11000 10999 10996 ] final  167.90 input  -57.11 | X-H torsion

> <Gold.Protein.ActiveResidues>
 VAL166  LYS551  ARG553  GLY616  TRP617  ASP618  TYR619  PRO620  LYS621  CYS622 
 ASP623  PHE694  ASN695  SER759  ASP760  ASP761  ALA762  ILE779  LEU786  VAL792 
 PHE793  MET794  SER795  GLU796  ALA797  LYS798  CYS799  TRP800  GLU811  SER814 

> <Gold.Protein.RotatedAtoms>
  151.0167  134.9438  159.8036 H   0  0  0  0  0  0  0  0  0  0  0  0  # atno 6907 bound_to 6896
  152.5315  134.2957  159.9070 H   0  0  0  0  0  0  0  0  0  0  0  0  # atno 6908 bound_to 6896
  151.2964  133.4100  159.2671 H   0  0  0  0  0  0  0  0  0  0  0  0  # atno 6909 bound_to 6896
  145.8323  139.3146  143.0980 H   0  0  0  0  0  0  0  0  0  0  0  0  # atno 7974 bound_to 7965
  155.0566  140.3185  155.4674 H   0  0  0  0  0  0  0  0  0  0  0  0  # atno 8008 bound_to 7997
  156.2822  140.2136  156.5636 H   0  0  0  0  0  0  0  0  0  0  0  0  # atno 8009 bound_to 7997
  154.7166  140.0493  157.0588 H   0  0  0  0  0  0  0  0  0  0  0  0  # atno 8010 bound_to 7997
  139.8503  144.6597  150.9178 H   0  0  0  0  0  0  0  0  0  0  0  0  # atno 10167 bound_to 10162
  156.9826  131.0123  151.2877 H   0  0  0  0  0  0  0  0  0  0  0  0  # atno 10718 bound_to 10713
  154.1813  135.6443  153.5035 H   0  0  0  0  0  0  0  0  0  0  0  0  # atno 10763 bound_to 10752
  153.0058  135.5406  154.6511 H   0  0  0  0  0  0  0  0  0  0  0  0  # atno 10764 bound_to 10752
  154.5876  135.2931  155.0641 H   0  0  0  0  0  0  0  0  0  0  0  0  # atno 10765 bound_to 10752
  140.2816  134.7745  157.3763 H   0  0  0  0  0  0  0  0  0  0  0  0  # atno 11005 bound_to 11000
  145.9557  140.8875  143.0236 LP  0  0  0  0  0  0  0  0  0  0  0  0  # atno 17320 bound_to 7965
  144.6739  140.1742  143.7411 LP  0  0  0  0  0  0  0  0  0  0  0  0  # atno 17321 bound_to 7965
  140.7788  143.3833  151.1437 LP  0  0  0  0  0  0  0  0  0  0  0  0  # atno 17342 bound_to 10162
  139.7472  143.8834  152.3067 LP  0  0  0  0  0  0  0  0  0  0  0  0  # atno 17343 bound_to 10162
  157.5515  130.8185  149.8151 LP  0  0  0  0  0  0  0  0  0  0  0  0  # atno 17370 bound_to 10713
  156.0238  130.3786  150.1882 LP  0  0  0  0  0  0  0  0  0  0  0  0  # atno 17371 bound_to 10713
  140.1278  134.5135  155.8130 LP  0  0  0  0  0  0  0  0  0  0  0  0  # atno 17394 bound_to 11000
  141.2161  133.6779  156.6983 LP  0  0  0  0  0  0  0  0  0  0  0  0  # atno 17395 bound_to 11000

$$$$
