AV-unprocessed.smi:543|AV-procd|sdf|2876|dock9
  -GOLD-   2262023373D 1   1.00000     0.00000
 Structure written by MMmdl.
 45 47  0  0  0  0  0  0  0  0  2 V2000
  151.9655  138.3878  154.3031 C   0  0  0  0  0  0  0  0  0  0  0  0
  151.0480  139.4499  154.4905 O   0  0  0  0  0  0  0  0  0  0  0  0
  149.8116  139.0139  155.0336 C   0  0  0  0  0  0  0  0  0  0  0  0
  149.7795  139.3090  156.5399 C   0  0  0  0  0  0  0  0  0  0  0  0
  151.1152  139.2422  157.1331 N   0  0  0  0  0  0  0  0  0  0  0  0
  151.8431  140.2366  157.7174 C   0  0  0  0  0  0  0  0  0  0  0  0
  151.3885  141.5592  157.7940 N   0  0  0  0  0  0  0  0  0  0  0  0
  150.1153  142.0466  157.2777 C   0  0  0  0  0  0  0  0  0  0  0  0
  152.2098  142.6857  158.2370 C   0  0  0  0  0  0  0  0  0  0  0  0
  152.5307  142.7097  159.7225 C   0  0  0  0  0  0  0  0  0  0  0  0
  152.0345  143.7514  160.5347 C   0  0  0  0  0  0  0  0  0  0  0  0
  152.3178  143.7704  161.9142 C   0  0  0  0  0  0  0  0  0  0  0  0
  153.1016  142.7504  162.4868 C   0  0  0  0  0  0  0  0  0  0  0  0
  153.6017  141.7106  161.6793 C   0  0  0  0  0  0  0  0  0  0  0  0
  153.3169  141.6899  160.3000 C   0  0  0  0  0  0  0  0  0  0  0  0
  153.0006  139.8306  158.2442 N   0  0  0  0  0  0  0  0  0  0  0  0
  153.0272  138.4772  157.9550 C   0  0  0  0  0  0  0  0  0  0  0  0
  151.9028  138.0959  157.2936 C   0  0  0  0  0  0  0  0  0  0  0  0
  151.6259  136.6999  156.8850 C   0  0  0  0  0  0  0  0  0  0  0  0
  150.5841  136.4014  156.3047 O   0  0  0  0  0  0  0  0  0  0  0  0
  152.6398  135.8467  157.2357 N   0  5  0  0  0  0  0  0  0  0  0  0
  153.7957  136.1926  157.9022 C   0  0  0  0  0  0  0  0  0  0  0  0
  154.6567  135.3588  158.1863 O   0  0  0  0  0  0  0  0  0  0  0  0
  154.0066  137.4961  158.2675 N   0  0  0  0  0  0  0  0  0  0  0  0
  155.2217  137.8937  158.9846 C   0  0  0  0  0  0  0  0  0  0  0  0
  152.8953  138.7772  153.8886 H   0  0  0  0  0  0  0  0  0  0  0  0
  151.5715  137.6456  153.6074 H   0  0  0  0  0  0  0  0  0  0  0  0
  152.1977  137.8948  155.2480 H   0  0  0  0  0  0  0  0  0  0  0  0
  148.9843  139.5218  154.5356 H   0  0  0  0  0  0  0  0  0  0  0  0
  149.6867  137.9439  154.8623 H   0  0  0  0  0  0  0  0  0  0  0  0
  149.3498  140.2910  156.7304 H   0  0  0  0  0  0  0  0  0  0  0  0
  149.1050  138.6151  157.0301 H   0  0  0  0  0  0  0  0  0  0  0  0
  149.6263  141.2824  156.6730 H   0  0  0  0  0  0  0  0  0  0  0  0
  150.2519  142.9220  156.6420 H   0  0  0  0  0  0  0  0  0  0  0  0
  149.4501  142.3198  158.0973 H   0  0  0  0  0  0  0  0  0  0  0  0
  153.1491  142.7335  157.6837 H   0  0  0  0  0  0  0  0  0  0  0  0
  151.6733  143.5993  157.9785 H   0  0  0  0  0  0  0  0  0  0  0  0
  151.4280  144.5345  160.1040 H   0  0  0  0  0  0  0  0  0  0  0  0
  151.9323  144.5669  162.5334 H   0  0  0  0  0  0  0  0  0  0  0  0
  153.3181  142.7650  163.5447 H   0  0  0  0  0  0  0  0  0  0  0  0
  154.2025  140.9277  162.1183 H   0  0  0  0  0  0  0  0  0  0  0  0
  153.7004  140.8868  159.6887 H   0  0  0  0  0  0  0  0  0  0  0  0
  155.2576  137.4148  159.9639 H   0  0  0  0  0  0  0  0  0  0  0  0
  155.2831  138.9701  159.1444 H   0  0  0  0  0  0  0  0  0  0  0  0
  156.1121  137.5991  158.4273 H   0  0  0  0  0  0  0  0  0  0  0  0
  1  2  1  0  0  0  0
  1 26  1  0  0  0  0
  1 27  1  0  0  0  0
  1 28  1  0  0  0  0
  2  3  1  0  0  0  0
  3  4  1  0  0  0  0
  3 29  1  0  0  0  0
  3 30  1  0  0  0  0
  4  5  1  0  0  0  0
  4 31  1  0  0  0  0
  4 32  1  0  0  0  0
  5 18  1  0  0  0  0
  5  6  1  0  0  0  0
  6  7  1  0  0  0  0
  6 16  2  0  0  0  0
  7  8  1  0  0  0  0
  7  9  1  0  0  0  0
  8 33  1  0  0  0  0
  8 34  1  0  0  0  0
  8 35  1  0  0  0  0
  9 10  1  0  0  0  0
  9 36  1  0  0  0  0
  9 37  1  0  0  0  0
 10 15  1  0  0  0  0
 10 11  2  0  0  0  0
 11 12  1  0  0  0  0
 11 38  1  0  0  0  0
 12 13  2  0  0  0  0
 12 39  1  0  0  0  0
 13 14  1  0  0  0  0
 13 40  1  0  0  0  0
 14 15  2  0  0  0  0
 14 41  1  0  0  0  0
 15 42  1  0  0  0  0
 16 17  1  0  0  0  0
 17 24  1  0  0  0  0
 17 18  2  0  0  0  0
 18 19  1  0  0  0  0
 19 20  2  0  0  0  0
 19 21  1  0  0  0  0
 21 22  1  0  0  0  0
 22 23  2  0  0  0  0
 22 24  1  0  0  0  0
 24 25  1  0  0  0  0
 25 43  1  0  0  0  0
 25 44  1  0  0  0  0
 25 45  1  0  0  0  0
M  CHG  1  21  -1
M  END
> <s_m_source_file>
AV-unprocessed.smi

> <i_m_source_file_index>
543

> <i_lp_mmshare_version>
43012

> <i_f3d_flags>
0

> <s_epik_input>
W0NIM11uMWMoPU8pW25IXWMoPU8pYyhjMTIpbihbQ0gyXVtDSDJdT1tDSDNdKWMobjIpTihbQ0gzXSlbQ0gyXWMzW2NIXVtjSF1bY0hdW2NIXVtjSF0z

> <s_epik_cmdline>
J2VwaWtfcHl0aG9uJywgJy1waCcsICc3LjAnLCAnLXRuJywgJzgnLCAnLW1hJywgJzIwMCcsICctbWV0YWxfYmluZGluZycsICctaW1hZScsICc8aW5maWxlLm1hZT4nLCAnLW9tYWUnLCAnPG91dGZpbGUubWFlPic=

> <r_lp_tautomer_probability>
1

> <r_epik_Ionization_Penalty>
6.27073

> <r_epik_Ionization_Penalty_Charging>
0.0750099

> <r_epik_Ionization_Penalty_Neutral>
6.19572

> <r_epik_State_Penalty>
6.19553

> <r_epik_Charging_Adjusted_Penalty>
6.27054

> <i_epik_Tot_Q>
-1

> <i_epik_Tot_abs_Q>
1

> <r_epik_Metal_State_Penalty>
2.13591

> <b_epik_Metal_Only>
1

> <s_lp_Force_Field>
OPLS_2005

> <r_lp_Energy>
36.8514

> <b_lp_Chiralities_Consistent>
1

> <s_lp_Variant>
AV-unprocessed.smi:543-2

> <Gold.Version>
5.8.1

> <Gold.Id.Protein>
6NUR|6NUR_protein|mol2

> <Gold.PLP.Fitness>
53.2532

> <Gold.PLP.PLP>
-43.8750

> <Gold.PLP.part.hbond>
-3.0000

> <Gold.PLP.part.metal>
0.0000

> <Gold.PLP.part.buried>
-6.9877

> <Gold.PLP.part.nonpolar>
-32.7349

> <Gold.PLP.part.repulsive>
0.1421

> <Gold.PLP.ligand.clash>
4.7127

> <Gold.PLP.ligand.torsion>
0.6151

> <Gold.PLP.Chemscore.Hbond>
3.5000

> <Gold.PLP.Chemscore.CHOScore>
0.0000

> <Gold.PLP.Chemscore.Metal>
0.0000

> <Gold.Chemscore.Hbonds>
donor molecule, donor type, donor heavy atom, donor atom, acceptor molecule, acceptor atom, score
      P1  H  7989  7998       L1     2  1.00
      P1  H  7997  8009       L1    16  0.38
      P1  H 10752 10764       L1    21  1.23

> <Gold.PLP.Chemscore.Internal.Correction>
4.8212

> <Gold.Rescore>
     Score         DG    S(hbond)    S(metal)    S(lipo)     H(rot)  DE(clash)    DE(int)     intcor
     12.24     -17.91       1.17        0.00     112.79       1.82       1.43       4.24       ----

> <Gold.Chemscore.Fitness>
12.2396

> <Gold.Chemscore.DG>
-17.9088

> <Gold.Chemscore.ZeroCoef>
-5.4800

> <Gold.Chemscore.Hbond>
1.1656

> <Gold.Chemscore.Metal>
0.0000

> <Gold.Chemscore.Lipo>
112.7922

> <Gold.Chemscore.Internal_Hbond>
0.0000

> <Gold.Chemscore.DEClash>
1.4270

> <Gold.Chemscore.DEInternal>
4.2423

> <Gold.Chemscore.Rot>
1.8207

> <Gold.Chemscore.Internal.Correction>
   9.000000E+99

> <Gold.Chemscore.Hbonds>
donor molecule, donor type, donor heavy atom, donor atom, acceptor molecule, acceptor atom, score
      P1  H  7989  7998       L1     2  0.60
      P1  H  7997  8009       L1    16  0.01
      P1  H 10752 10764       L1    21  0.05

> <Gold.Chemscore.Hbond.Weighted>
-3.8931

> <Gold.Chemscore.Metal.Weighted>
-0.0000

> <Gold.Chemscore.Lipo.Weighted>
-13.1967

> <Gold.Chemscore.Internal_Hbond.Weighted>
0.0000

> <Gold.Chemscore.DEClash.Weighted>
1.4270

> <Gold.Chemscore.DEInternal.Weighted>
4.2423

> <Gold.Chemscore.Rot.Weighted>
4.6610

> <Gold.Chemscore.Internal.Correction.Weighted>
   9.000000E+99

> <Gold.Protein.RotatedTorsions>
[ 6907 6896 6895 6894 ] final   -6.99 input  -60.11 | X-H torsion
[ 7974 7965 7964 7962 ] final  -20.04 input  175.53 | X-H torsion
[ 8008 7997 7996 7995 ] final  143.42 input   59.86 | X-H torsion
[ 10167 10162 10161 10158 ] final   42.29 input  -65.29 | X-H torsion
[ 10718 10713 10712 10709 ] final    3.26 input   66.30 | X-H torsion
[ 10763 10752 10751 10750 ] final  -13.84 input  -60.55 | X-H torsion
[ 11005 11000 10999 10996 ] final   49.86 input  -57.11 | X-H torsion

> <Gold.Protein.ActiveResidues>
 VAL166  LYS551  ARG553  GLY616  TRP617  ASP618  TYR619  PRO620  LYS621  CYS622 
 ASP623  PHE694  ASN695  SER759  ASP760  ASP761  ALA762  ILE779  LEU786  VAL792 
 PHE793  MET794  SER795  GLU796  ALA797  LYS798  CYS799  TRP800  GLU811  SER814 

> <Gold.Protein.RotatedAtoms>
  151.4568  135.1035  159.9713 H   0  0  0  0  0  0  0  0  0  0  0  0  # atno 6907 bound_to 6896
  152.4868  133.8390  159.7153 H   0  0  0  0  0  0  0  0  0  0  0  0  # atno 6908 bound_to 6896
  150.8984  133.7090  159.2912 H   0  0  0  0  0  0  0  0  0  0  0  0  # atno 6909 bound_to 6896
  146.1809  140.4147  142.8495 H   0  0  0  0  0  0  0  0  0  0  0  0  # atno 7974 bound_to 7965
  156.2930  140.2263  156.4888 H   0  0  0  0  0  0  0  0  0  0  0  0  # atno 8008 bound_to 7997
  154.7789  140.0461  157.1133 H   0  0  0  0  0  0  0  0  0  0  0  0  # atno 8009 bound_to 7997
  154.9783  140.3075  155.4961 H   0  0  0  0  0  0  0  0  0  0  0  0  # atno 8010 bound_to 7997
  140.3558  144.2291  150.6142 H   0  0  0  0  0  0  0  0  0  0  0  0  # atno 10167 bound_to 10162
  156.8752  130.5634  149.5655 H   0  0  0  0  0  0  0  0  0  0  0  0  # atno 10718 bound_to 10713
  153.5193  135.7016  153.5739 H   0  0  0  0  0  0  0  0  0  0  0  0  # atno 10763 bound_to 10752
  153.3795  135.3924  155.1847 H   0  0  0  0  0  0  0  0  0  0  0  0  # atno 10764 bound_to 10752
  154.8696  135.3831  154.4681 H   0  0  0  0  0  0  0  0  0  0  0  0  # atno 10765 bound_to 10752
  140.1067  134.5009  155.8713 H   0  0  0  0  0  0  0  0  0  0  0  0  # atno 11005 bound_to 11000
  144.8314  140.6712  143.6289 LP  0  0  0  0  0  0  0  0  0  0  0  0  # atno 17320 bound_to 7965
  145.4078  139.1585  143.4142 LP  0  0  0  0  0  0  0  0  0  0  0  0  # atno 17321 bound_to 7965
  140.5175  143.2274  151.8441 LP  0  0  0  0  0  0  0  0  0  0  0  0  # atno 17342 bound_to 10162
  139.4820  144.4877  151.9226 LP  0  0  0  0  0  0  0  0  0  0  0  0  # atno 17343 bound_to 10162
  156.0705  130.5739  150.9374 LP  0  0  0  0  0  0  0  0  0  0  0  0  # atno 17370 bound_to 10713
  157.6172  131.0932  150.8688 LP  0  0  0  0  0  0  0  0  0  0  0  0  # atno 17371 bound_to 10713
  141.2120  133.6714  156.6625 LP  0  0  0  0  0  0  0  0  0  0  0  0  # atno 17394 bound_to 11000
  140.3146  134.8058  157.4204 LP  0  0  0  0  0  0  0  0  0  0  0  0  # atno 17395 bound_to 11000

$$$$
