AV-unprocessed.smi:1165|AV-procd|sdf|4933|dock5
  -GOLD-   22720 3513D 1   1.00000     0.00000
 Structure written by MMmdl.
 40 41  0  0  0  0  0  0  0  0  2 V2000
  146.5982  141.9485  154.9551 C   0  0  0  0  0  0  0  0  0  0  0  0
  147.5833  141.6971  153.7988 C   0  0  1  0  0  0  0  0  0  0  0  0
  148.9946  141.3109  154.2806 C   0  0  0  0  0  0  0  0  0  0  0  0
  149.0311  139.9214  154.7606 N   0  0  0  0  0  0  0  0  0  0  0  0
  150.4100  139.4239  155.7019 S   0  0  0  0  0  0  0  0  0  0  0  0
  150.1255  138.0366  156.0993 O   0  0  0  0  0  0  0  0  0  0  0  0
  151.6015  139.6586  154.8679 O   0  0  0  0  0  0  0  0  0  0  0  0
  150.2584  140.4705  156.9408 N   0  5  0  0  0  0  0  0  0  0  0  0
  151.4188  141.1493  157.5095 C   0  0  0  0  0  0  0  0  0  0  0  0
  151.3678  142.6589  157.1910 C   0  0  0  0  0  0  0  0  0  0  0  0
  151.6247  143.5693  158.3875 C   0  0  0  0  0  0  0  0  0  0  0  0
  152.1381  143.0525  159.5971 C   0  0  0  0  0  0  0  0  0  0  0  0
  152.3530  143.9310  160.6763 C   0  0  0  0  0  0  0  0  0  0  0  0
  152.0406  145.2936  160.5032 C   0  0  0  0  0  0  0  0  0  0  0  0
  151.5409  145.8012  159.3561 N   0  0  0  0  0  0  0  0  0  0  0  0
  151.3406  144.9520  158.3251 C   0  0  0  0  0  0  0  0  0  0  0  0
  148.4716  138.9683  153.7869 C   0  0  0  0  0  0  0  0  0  0  0  0
  147.0603  139.3994  153.3541 C   0  0  2  0  0  0  0  0  0  0  0  0
  146.5060  138.5042  152.2400 C   0  0  0  0  0  0  0  0  0  0  0  0
  147.0885  140.7372  152.8677 O   0  0  0  0  0  0  0  0  0  0  0  0
  146.9298  142.7871  155.5679 H   0  0  0  0  0  0  0  0  0  0  0  0
  146.5073  141.0860  155.6151 H   0  0  0  0  0  0  0  0  0  0  0  0
  145.6048  142.1894  154.5765 H   0  0  0  0  0  0  0  0  0  0  0  0
  147.6666  142.6345  153.2481 H   0  0  0  0  0  0  0  0  0  0  0  0
  149.7109  141.4135  153.4647 H   0  0  0  0  0  0  0  0  0  0  0  0
  149.3138  141.9919  155.0689 H   0  0  0  0  0  0  0  0  0  0  0  0
  151.4817  141.0173  158.5900 H   0  0  0  0  0  0  0  0  0  0  0  0
  152.3459  140.7407  157.1063 H   0  0  0  0  0  0  0  0  0  0  0  0
  152.1137  142.8857  156.4284 H   0  0  0  0  0  0  0  0  0  0  0  0
  150.4044  142.9139  156.7471 H   0  0  0  0  0  0  0  0  0  0  0  0
  152.3692  142.0017  159.6935 H   0  0  0  0  0  0  0  0  0  0  0  0
  152.7506  143.5688  161.6126 H   0  0  0  0  0  0  0  0  0  0  0  0
  152.1941  145.9953  161.3097 H   0  0  0  0  0  0  0  0  0  0  0  0
  150.9419  145.3894  157.4216 H   0  0  0  0  0  0  0  0  0  0  0  0
  149.1379  138.9173  152.9249 H   0  0  0  0  0  0  0  0  0  0  0  0
  148.4329  137.9670  154.2146 H   0  0  0  0  0  0  0  0  0  0  0  0
  146.3835  139.3313  154.2062 H   0  0  0  0  0  0  0  0  0  0  0  0
  146.4522  137.4642  152.5630 H   0  0  0  0  0  0  0  0  0  0  0  0
  147.1347  138.5461  151.3503 H   0  0  0  0  0  0  0  0  0  0  0  0
  145.5014  138.8154  151.9535 H   0  0  0  0  0  0  0  0  0  0  0  0
  1  2  1  0  0  0  0
  1 21  1  0  0  0  0
  1 22  1  0  0  0  0
  1 23  1  0  0  0  0
  2 20  1  0  0  0  0
  2  3  1  0  0  0  0
  2 24  1  0  0  0  0
  3  4  1  0  0  0  0
  3 25  1  0  0  0  0
  3 26  1  0  0  0  0
  4  5  1  0  0  0  0
  4 17  1  0  0  0  0
  5  6  2  0  0  0  0
  5  7  2  0  0  0  0
  5  8  1  0  0  0  0
  8  9  1  0  0  0  0
  9 10  1  0  0  0  0
  9 27  1  0  0  0  0
  9 28  1  0  0  0  0
 10 11  1  0  0  0  0
 10 29  1  0  0  0  0
 10 30  1  0  0  0  0
 11 16  1  0  0  0  0
 11 12  2  0  0  0  0
 12 13  1  0  0  0  0
 12 31  1  0  0  0  0
 13 14  2  0  0  0  0
 13 32  1  0  0  0  0
 14 15  1  0  0  0  0
 14 33  1  0  0  0  0
 15 16  2  0  0  0  0
 16 34  1  0  0  0  0
 17 18  1  0  0  0  0
 17 35  1  0  0  0  0
 17 36  1  0  0  0  0
 18 19  1  0  0  0  0
 18 20  1  0  0  0  0
 18 37  1  0  0  0  0
 19 38  1  0  0  0  0
 19 39  1  0  0  0  0
 19 40  1  0  0  0  0
M  CHG  1   8  -1
M  END
> <s_m_source_file>
AV-unprocessed.smi

> <i_m_source_file_index>
1165

> <i_lp_mmshare_version>
43012

> <i_f3d_flags>
0

> <s_epik_input>
W0NIM11bQ0BASF0xW0NIMl1OKFtDSDJdW0NASF0oTzEpW0NIM10pUyg9TykoPU8pW05IXVtDSDJdW0NIMl1jMltjSF1bY0hdW2NIXW5bY0hdMg==

> <s_epik_cmdline>
J2VwaWtfcHl0aG9uJywgJy1waCcsICc3LjAnLCAnLXRuJywgJzgnLCAnLW1hJywgJzIwMCcsICctbWV0YWxfYmluZGluZycsICctaW1hZScsICc8aW5maWxlLm1hZT4nLCAnLW9tYWUnLCAnPG91dGZpbGUubWFlPic=

> <r_epik_Ionization_Penalty>
1.23471

> <r_epik_Ionization_Penalty_Charging>
1.20871

> <r_epik_Ionization_Penalty_Neutral>
0.025996

> <r_epik_State_Penalty>
1.46261

> <r_epik_Charging_Adjusted_Penalty>
2.67132

> <i_epik_Tot_Q>
-1

> <i_epik_Tot_abs_Q>
1

> <r_epik_Metal_State_Penalty>
0.521406

> <b_epik_Metal_Only>
0

> <s_lp_Force_Field>
OPLS_2005

> <r_lp_Energy>
6.37225

> <b_lp_Chiralities_Consistent>
1

> <s_lp_Variant>
AV-unprocessed.smi:1165-6

> <Gold.Version>
5.8.1

> <Gold.Id.Protein>
6NUR|6NUR_protein|mol2

> <Gold.PLP.Fitness>
44.2345

> <Gold.PLP.PLP>
-41.0154

> <Gold.PLP.part.hbond>
-2.3445

> <Gold.PLP.part.metal>
0.0000

> <Gold.PLP.part.buried>
-3.9061

> <Gold.PLP.part.nonpolar>
-34.8632

> <Gold.PLP.part.repulsive>
0.6989

> <Gold.PLP.ligand.clash>
0.0000

> <Gold.PLP.ligand.torsion>
1.5246

> <Gold.PLP.Chemscore.Hbond>
1.0000

> <Gold.PLP.Chemscore.CHOScore>
0.5543

> <Gold.PLP.Chemscore.Metal>
0.0000

> <Gold.Chemscore.Hbonds>
donor molecule, donor type, donor heavy atom, donor atom, acceptor molecule, acceptor atom, score
      P1  H  7989  7998       L1     7  1.00
      L1  C    16    34       P1  8028  0.43

> <Gold.PLP.Chemscore.Internal.Correction>
1.6053

> <Gold.Rescore>
     Score         DG    S(hbond)    S(metal)    S(lipo)     H(rot)  DE(clash)    DE(int)     intcor
     16.70     -18.26       1.00        0.00     113.02       1.47       0.12       1.44       ----

> <Gold.Chemscore.Fitness>
16.6988

> <Gold.Chemscore.DG>
-18.2643

> <Gold.Chemscore.ZeroCoef>
-5.4800

> <Gold.Chemscore.Hbond>
0.9975

> <Gold.Chemscore.Metal>
0.0000

> <Gold.Chemscore.Lipo>
113.0241

> <Gold.Chemscore.Internal_Hbond>
0.0000

> <Gold.Chemscore.DEClash>
0.1213

> <Gold.Chemscore.DEInternal>
1.4442

> <Gold.Chemscore.Rot>
1.4731

> <Gold.Chemscore.Internal.Correction>
   9.000000E+99

> <Gold.Chemscore.Hbonds>
donor molecule, donor type, donor heavy atom, donor atom, acceptor molecule, acceptor atom, score
      P1  H  7989  7998       L1     7  0.98

> <Gold.Chemscore.Hbond.Weighted>
-3.3317

> <Gold.Chemscore.Metal.Weighted>
-0.0000

> <Gold.Chemscore.Lipo.Weighted>
-13.2238

> <Gold.Chemscore.Internal_Hbond.Weighted>
0.0000

> <Gold.Chemscore.DEClash.Weighted>
0.1213

> <Gold.Chemscore.DEInternal.Weighted>
1.4442

> <Gold.Chemscore.Rot.Weighted>
3.7712

> <Gold.Chemscore.Internal.Correction.Weighted>
   9.000000E+99

> <Gold.Protein.RotatedTorsions>
[ 6907 6896 6895 6894 ] final  133.19 input  -60.11 | X-H torsion
[ 7974 7965 7964 7962 ] final  -93.11 input  175.53 | X-H torsion
[ 8008 7997 7996 7995 ] final  178.24 input   59.86 | X-H torsion
[ 10167 10162 10161 10158 ] final  -89.20 input  -65.29 | X-H torsion
[ 10718 10713 10712 10709 ] final  -71.02 input   66.30 | X-H torsion
[ 10763 10752 10751 10750 ] final  -28.90 input  -60.55 | X-H torsion
[ 11005 11000 10999 10996 ] final -148.75 input  -57.11 | X-H torsion

> <Gold.Protein.ActiveResidues>
 VAL166  LYS551  ARG553  GLY616  TRP617  ASP618  TYR619  PRO620  LYS621  CYS622 
 ASP623  PHE694  ASN695  SER759  ASP760  ASP761  ALA762  ILE779  LEU786  VAL792 
 PHE793  MET794  SER795  GLU796  ALA797  LYS798  CYS799  TRP800  GLU811  SER814 

> <Gold.Protein.RotatedAtoms>
  152.3245  133.5890  159.5766 H   0  0  0  0  0  0  0  0  0  0  0  0  # atno 6907 bound_to 6896
  150.7389  133.9961  159.3632 H   0  0  0  0  0  0  0  0  0  0  0  0  # atno 6908 bound_to 6896
  151.7842  135.0754  160.0429 H   0  0  0  0  0  0  0  0  0  0  0  0  # atno 6909 bound_to 6896
  145.3909  140.9528  143.2341 H   0  0  0  0  0  0  0  0  0  0  0  0  # atno 7974 bound_to 7965
  156.0568  140.1338  156.9987 H   0  0  0  0  0  0  0  0  0  0  0  0  # atno 8008 bound_to 7997
  154.4462  140.0999  156.6529 H   0  0  0  0  0  0  0  0  0  0  0  0  # atno 8009 bound_to 7997
  155.5439  140.3461  155.4455 H   0  0  0  0  0  0  0  0  0  0  0  0  # atno 8010 bound_to 7997
  140.3672  143.2812  151.9544 H   0  0  0  0  0  0  0  0  0  0  0  0  # atno 10167 bound_to 10162
  156.0381  130.4343  150.2382 H   0  0  0  0  0  0  0  0  0  0  0  0  # atno 10718 bound_to 10713
  153.7559  135.6923  153.4936 H   0  0  0  0  0  0  0  0  0  0  0  0  # atno 10763 bound_to 10752
  153.1971  135.4450  155.0220 H   0  0  0  0  0  0  0  0  0  0  0  0  # atno 10764 bound_to 10752
  154.8171  135.3404  154.7077 H   0  0  0  0  0  0  0  0  0  0  0  0  # atno 10765 bound_to 10752
  140.7579  134.3332  157.5109 H   0  0  0  0  0  0  0  0  0  0  0  0  # atno 11005 bound_to 11000
  144.8441  139.5425  143.6887 LP  0  0  0  0  0  0  0  0  0  0  0  0  # atno 17320 bound_to 7965
  146.2798  139.6847  142.9237 LP  0  0  0  0  0  0  0  0  0  0  0  0  # atno 17321 bound_to 7965
  139.4807  144.5940  151.7723 LP  0  0  0  0  0  0  0  0  0  0  0  0  # atno 17342 bound_to 10162
  140.5069  144.1084  150.5985 LP  0  0  0  0  0  0  0  0  0  0  0  0  # atno 17343 bound_to 10162
  157.0480  131.0054  151.3263 LP  0  0  0  0  0  0  0  0  0  0  0  0  # atno 17370 bound_to 10713
  157.5161  130.7969  149.7758 LP  0  0  0  0  0  0  0  0  0  0  0  0  # atno 17371 bound_to 10713
  139.8776  134.9183  156.3200 LP  0  0  0  0  0  0  0  0  0  0  0  0  # atno 17394 bound_to 11000
  140.9690  133.7339  156.0508 LP  0  0  0  0  0  0  0  0  0  0  0  0  # atno 17395 bound_to 11000

$$$$
