AV-unprocessed.smi:139|AV-procd|sdf|1181|dock8
  -GOLD-   2262018333D 1   1.00000     0.00000
 Structure written by MMmdl.
 50 53  0  0  0  0  0  0  0  0  1 V2000
  147.0934  138.1245  155.9149 O   0  0  0  0  0  0  0  0  0  0  0  0
  147.4437  138.0859  154.7346 C   0  0  0  0  0  0  0  0  0  0  0  0
  148.1908  139.2653  154.0941 C   0  0  0  0  0  0  0  0  0  0  0  0
  149.4367  139.6249  154.8054 N   0  0  0  0  0  0  0  0  0  0  0  0
  150.6047  138.8573  154.5724 C   0  0  0  0  0  0  0  0  0  0  0  0
  150.6009  137.9101  153.7849 O   0  0  0  0  0  0  0  0  0  0  0  0
  151.7846  139.2621  155.3282 C   0  0  0  0  0  0  0  0  0  0  0  0
  152.9381  138.5908  155.1707 F   0  0  0  0  0  0  0  0  0  0  0  0
  151.7381  140.3007  156.1879 C   0  0  0  0  0  0  0  0  0  0  0  0
  150.5898  141.0415  156.4061 N   0  0  0  0  0  0  0  0  0  0  0  0
  150.5481  142.1931  157.3890 C   0  0  2  0  0  0  0  0  0  0  0  0
  151.5227  143.3077  156.9627 C   0  0  0  0  0  0  0  0  0  0  0  0
  152.3344  143.5437  158.2212 C   0  0  0  0  0  0  0  0  0  0  0  0
  152.2966  142.1740  158.8814 C   0  0  0  0  0  0  0  0  0  0  0  0
  150.9576  141.7551  158.6535 O   0  0  0  0  0  0  0  0  0  0  0  0
  149.4034  140.7055  155.7188 C   0  0  0  0  0  0  0  0  0  0  0  0
  148.3637  141.3390  155.9151 O   0  0  0  0  0  0  0  0  0  0  0  0
  147.2170  137.0369  153.9298 N   0  0  0  0  0  0  0  0  0  0  0  0
  146.4989  135.8151  154.2873 C   0  0  2  0  0  0  0  0  0  0  0  0
  147.3637  134.9506  155.2243 C   0  0  0  0  0  0  0  0  0  0  0  0
  148.3627  134.0841  154.4522 C   0  0  0  0  0  0  0  0  0  0  0  0
  147.6398  133.1394  153.4851 C   0  0  0  0  0  0  0  0  0  0  0  0
  146.5797  133.8348  152.6451 C   0  0  0  0  0  0  0  0  0  0  0  0
  146.1272  133.2077  151.4652 C   0  0  0  0  0  0  0  0  0  0  0  0
  145.1428  133.8178  150.6653 C   0  0  0  0  0  0  0  0  0  0  0  0
  144.6032  135.0609  151.0425 C   0  0  0  0  0  0  0  0  0  0  0  0
  145.0475  135.6913  152.2197 C   0  0  0  0  0  0  0  0  0  0  0  0
  146.0327  135.0861  153.0304 C   0  0  0  0  0  0  0  0  0  0  0  0
  148.3816  139.0196  153.0486 H   0  0  0  0  0  0  0  0  0  0  0  0
  147.5208  140.1257  154.0447 H   0  0  0  0  0  0  0  0  0  0  0  0
  152.6456  140.5443  156.7186 H   0  0  0  0  0  0  0  0  0  0  0  0
  149.5029  142.5045  157.4333 H   0  0  0  0  0  0  0  0  0  0  0  0
  152.1673  142.9588  156.1542 H   0  0  0  0  0  0  0  0  0  0  0  0
  150.9822  144.1936  156.6282 H   0  0  0  0  0  0  0  0  0  0  0  0
  153.3472  143.8926  158.0187 H   0  0  0  0  0  0  0  0  0  0  0  0
  151.8382  144.2787  158.8563 H   0  0  0  0  0  0  0  0  0  0  0  0
  152.9937  141.4894  158.3960 H   0  0  0  0  0  0  0  0  0  0  0  0
  152.5313  142.2106  159.9452 H   0  0  0  0  0  0  0  0  0  0  0  0
  147.5470  137.0991  152.9774 H   0  0  0  0  0  0  0  0  0  0  0  0
  145.5937  136.0780  154.8373 H   0  0  0  0  0  0  0  0  0  0  0  0
  147.8735  135.5699  155.9635 H   0  0  0  0  0  0  0  0  0  0  0  0
  146.7101  134.2862  155.7912 H   0  0  0  0  0  0  0  0  0  0  0  0
  149.0384  134.7317  153.8921 H   0  0  0  0  0  0  0  0  0  0  0  0
  148.9840  133.5103  155.1405 H   0  0  0  0  0  0  0  0  0  0  0  0
  148.3664  132.6549  152.8316 H   0  0  0  0  0  0  0  0  0  0  0  0
  147.1488  132.3455  154.0489 H   0  0  0  0  0  0  0  0  0  0  0  0
  146.5359  132.2527  151.1691 H   0  0  0  0  0  0  0  0  0  0  0  0
  144.8027  133.3319  149.7626 H   0  0  0  0  0  0  0  0  0  0  0  0
  143.8491  135.5319  150.4294 H   0  0  0  0  0  0  0  0  0  0  0  0
  144.6301  136.6473  152.5012 H   0  0  0  0  0  0  0  0  0  0  0  0
  1  2  2  0  0  0  0
  2  3  1  0  0  0  0
  2 18  1  0  0  0  0
  3  4  1  0  0  0  0
  3 29  1  0  0  0  0
  3 30  1  0  0  0  0
  4 16  1  0  0  0  0
  4  5  1  0  0  0  0
  5  6  2  0  0  0  0
  5  7  1  0  0  0  0
  7  8  1  0  0  0  0
  7  9  2  0  0  0  0
  9 10  1  0  0  0  0
  9 31  1  0  0  0  0
 10 11  1  0  0  0  0
 10 16  1  0  0  0  0
 11 15  1  0  0  0  0
 11 12  1  0  0  0  0
 11 32  1  0  0  0  0
 12 13  1  0  0  0  0
 12 33  1  0  0  0  0
 12 34  1  0  0  0  0
 13 14  1  0  0  0  0
 13 35  1  0  0  0  0
 13 36  1  0  0  0  0
 14 15  1  0  0  0  0
 14 37  1  0  0  0  0
 14 38  1  0  0  0  0
 16 17  2  0  0  0  0
 18 19  1  0  0  0  0
 18 39  1  0  0  0  0
 19 28  1  0  0  0  0
 19 20  1  0  0  0  0
 19 40  1  0  0  0  0
 20 21  1  0  0  0  0
 20 41  1  0  0  0  0
 20 42  1  0  0  0  0
 21 22  1  0  0  0  0
 21 43  1  0  0  0  0
 21 44  1  0  0  0  0
 22 23  1  0  0  0  0
 22 45  1  0  0  0  0
 22 46  1  0  0  0  0
 23 28  2  0  0  0  0
 23 24  1  0  0  0  0
 24 25  2  0  0  0  0
 24 47  1  0  0  0  0
 25 26  1  0  0  0  0
 25 48  1  0  0  0  0
 26 27  2  0  0  0  0
 26 49  1  0  0  0  0
 27 28  1  0  0  0  0
 27 50  1  0  0  0  0
M  END
> <s_m_source_file>
AV-unprocessed.smi

> <i_m_source_file_index>
139

> <i_lp_mmshare_version>
43012

> <i_f3d_flags>
0

> <s_epik_input>
W2NIXTFbY0hdW2NIXVtjSF1jKGMxMilbQ0BASF0oW0NIMl1bQ0gyXVtDSDJdMilbTkhdQyg9TylbQ0gyXW4zYyg9TyljKEYpW2NIXW4oYzM9TylbQ0BASF00W0NIMl1bQ0gyXVtDSDJdTzQ=

> <s_epik_cmdline>
J2VwaWtfcHl0aG9uJywgJy1waCcsICc3LjAnLCAnLXRuJywgJzgnLCAnLW1hJywgJzIwMCcsICctbWV0YWxfYmluZGluZycsICctaW1hZScsICc8aW5maWxlLm1hZT4nLCAnLW9tYWUnLCAnPG91dGZpbGUubWFlPic=

> <r_lp_tautomer_probability>
1

> <r_epik_Ionization_Penalty>
3.261e-08

> <r_epik_Ionization_Penalty_Charging>
3.6725e-09

> <r_epik_Ionization_Penalty_Neutral>
2.89375e-08

> <r_epik_State_Penalty>
-0

> <r_epik_Charging_Adjusted_Penalty>
3.6725e-09

> <i_epik_Tot_Q>
0

> <i_epik_Tot_abs_Q>
0

> <r_epik_Metal_State_Penalty>
-0

> <b_epik_Metal_Only>
0

> <s_epik_Chemistry_Notes>
This compound contains an acetal/aminal-like group ( X-CH(R)-Y where X, Y are N, S, or O) that may be acid/base labile, releasing an aldehyde.

> <s_lp_Force_Field>
OPLS_2005

> <r_lp_Energy>
30.3029

> <b_lp_Chiralities_Consistent>
1

> <s_lp_Variant>
AV-unprocessed.smi:139-1

> <Gold.Version>
5.8.1

> <Gold.Id.Protein>
6NUR|6NUR_protein|mol2

> <Gold.PLP.Fitness>
46.1515

> <Gold.PLP.PLP>
-44.6387

> <Gold.PLP.part.hbond>
-1.0000

> <Gold.PLP.part.metal>
0.0000

> <Gold.PLP.part.buried>
-0.9825

> <Gold.PLP.part.nonpolar>
-43.4234

> <Gold.PLP.part.repulsive>
0.9555

> <Gold.PLP.ligand.clash>
0.0000

> <Gold.PLP.ligand.torsion>
0.5310

> <Gold.PLP.Chemscore.Hbond>
0.8480

> <Gold.PLP.Chemscore.CHOScore>
0.0000

> <Gold.PLP.Chemscore.Metal>
0.0000

> <Gold.Chemscore.Hbonds>
donor molecule, donor type, donor heavy atom, donor atom, acceptor molecule, acceptor atom, score
      L1  H    18    39       P1  7948  0.75

> <Gold.PLP.Chemscore.Internal.Correction>
0.0307

> <Gold.Rescore>
     Score         DG    S(hbond)    S(metal)    S(lipo)     H(rot)  DE(clash)    DE(int)     intcor
     16.69     -17.70       1.94        0.00      88.88       1.82       0.44       0.57       ----

> <Gold.Chemscore.Fitness>
16.6880

> <Gold.Chemscore.DG>
-17.6986

> <Gold.Chemscore.ZeroCoef>
-5.4800

> <Gold.Chemscore.Hbond>
1.9376

> <Gold.Chemscore.Metal>
0.0000

> <Gold.Chemscore.Lipo>
88.8835

> <Gold.Chemscore.Internal_Hbond>
0.0000

> <Gold.Chemscore.DEClash>
0.4382

> <Gold.Chemscore.DEInternal>
0.5723

> <Gold.Chemscore.Rot>
1.8174

> <Gold.Chemscore.Internal.Correction>
   9.000000E+99

> <Gold.Chemscore.Hbonds>
donor molecule, donor type, donor heavy atom, donor atom, acceptor molecule, acceptor atom, score
      L1  H    18    39       P1  7948  0.73

> <Gold.Chemscore.Hbond.Weighted>
-6.4717

> <Gold.Chemscore.Metal.Weighted>
-0.0000

> <Gold.Chemscore.Lipo.Weighted>
-10.3994

> <Gold.Chemscore.Internal_Hbond.Weighted>
0.0000

> <Gold.Chemscore.DEClash.Weighted>
0.4382

> <Gold.Chemscore.DEInternal.Weighted>
0.5723

> <Gold.Chemscore.Rot.Weighted>
4.6524

> <Gold.Chemscore.Internal.Correction.Weighted>
   9.000000E+99

> <Gold.Protein.RotatedTorsions>
[ 6907 6896 6895 6894 ] final -101.82 input  -60.11 | X-H torsion
[ 7974 7965 7964 7962 ] final  -56.64 input  175.53 | X-H torsion
[ 8008 7997 7996 7995 ] final -159.70 input   59.86 | X-H torsion
[ 10167 10162 10161 10158 ] final  -72.69 input  -65.29 | X-H torsion
[ 10718 10713 10712 10709 ] final -106.80 input   66.30 | X-H torsion
[ 10763 10752 10751 10750 ] final   48.88 input  -60.55 | X-H torsion
[ 11005 11000 10999 10996 ] final  -72.03 input  -57.11 | X-H torsion

> <Gold.Protein.ActiveResidues>
 VAL166  LYS551  ARG553  GLY616  TRP617  ASP618  TYR619  PRO620  LYS621  CYS622 
 ASP623  PHE694  ASN695  SER759  ASP760  ASP761  ALA762  ILE779  LEU786  VAL792 
 PHE793  MET794  SER795  GLU796  ALA797  LYS798  CYS799  TRP800  GLU811  SER814 

> <Gold.Protein.RotatedAtoms>
  150.7170  134.0676  159.3852 H   0  0  0  0  0  0  0  0  0  0  0  0  # atno 6907 bound_to 6896
  151.8658  135.0505  160.0483 H   0  0  0  0  0  0  0  0  0  0  0  0  # atno 6908 bound_to 6896
  152.2682  133.5322  159.5459 H   0  0  0  0  0  0  0  0  0  0  0  0  # atno 6909 bound_to 6896
  145.8603  140.8290  142.9940 H   0  0  0  0  0  0  0  0  0  0  0  0  # atno 7974 bound_to 7965
  155.7664  140.0846  157.2129 H   0  0  0  0  0  0  0  0  0  0  0  0  # atno 8008 bound_to 7997
  154.3999  140.1533  156.2949 H   0  0  0  0  0  0  0  0  0  0  0  0  # atno 8009 bound_to 7997
  155.8789  140.3421  155.5876 H   0  0  0  0  0  0  0  0  0  0  0  0  # atno 8010 bound_to 7997
  140.5172  143.2336  151.7493 H   0  0  0  0  0  0  0  0  0  0  0  0  # atno 10167 bound_to 10162
  156.0407  130.5631  150.7732 H   0  0  0  0  0  0  0  0  0  0  0  0  # atno 10718 bound_to 10713
  152.9789  135.5930  154.3997 H   0  0  0  0  0  0  0  0  0  0  0  0  # atno 10763 bound_to 10752
  154.3644  135.2767  155.2303 H   0  0  0  0  0  0  0  0  0  0  0  0  # atno 10764 bound_to 10752
  154.4286  135.6041  153.6109 H   0  0  0  0  0  0  0  0  0  0  0  0  # atno 10765 bound_to 10752
  141.1602  133.6835  156.6997 H   0  0  0  0  0  0  0  0  0  0  0  0  # atno 11005 bound_to 11000
  144.6727  140.1086  143.7456 LP  0  0  0  0  0  0  0  0  0  0  0  0  # atno 17320 bound_to 7965
  145.9255  139.2573  143.1356 LP  0  0  0  0  0  0  0  0  0  0  0  0  # atno 17321 bound_to 7965
  139.4912  144.4307  151.9875 LP  0  0  0  0  0  0  0  0  0  0  0  0  # atno 17342 bound_to 10162
  140.3402  144.3213  150.5969 LP  0  0  0  0  0  0  0  0  0  0  0  0  # atno 17343 bound_to 10162
  157.5220  131.0932  151.0066 LP  0  0  0  0  0  0  0  0  0  0  0  0  # atno 17370 bound_to 10713
  157.0394  130.5743  149.5354 LP  0  0  0  0  0  0  0  0  0  0  0  0  # atno 17371 bound_to 10713
  140.2968  134.8196  157.4064 LP  0  0  0  0  0  0  0  0  0  0  0  0  # atno 17394 bound_to 11000
  140.1297  134.5111  155.8115 LP  0  0  0  0  0  0  0  0  0  0  0  0  # atno 17395 bound_to 11000

$$$$
