AV-unprocessed.smi:862|AV-procd|sdf|3981|dock6
  -GOLD-   22720 1463D 1   1.00000     0.00000
 Structure written by MMmdl.
 45 47  0  0  0  0  0  0  0  0  3 V2000
  150.7755  136.3549  156.8552 N   0  0  0  0  0  0  0  0  0  0  0  0
  150.9855  135.1563  156.3024 C   0  0  0  0  0  0  0  0  0  0  0  0
  152.1256  134.7486  156.0879 O   0  0  0  0  0  0  0  0  0  0  0  0
  149.8667  134.4307  156.0515 N   0  0  0  0  0  0  0  0  0  0  0  0
  148.4805  134.8668  156.2861 C   0  0  0  0  0  0  0  0  0  0  0  0
  147.8427  135.2313  154.9331 C   0  0  0  0  0  0  0  0  0  0  0  0
  147.9003  134.0449  153.9473 C   0  0  0  0  0  0  0  0  0  0  0  0
  147.3965  134.4717  152.6216 N   0  3  0  0  0  0  0  0  0  0  0  0
  145.9697  134.8722  152.5581 C   0  0  1  0  0  0  0  0  0  0  0  0
  145.6337  135.7833  151.3722 C   0  0  0  0  0  0  0  0  0  0  0  0
  144.1216  135.6231  151.1630 C   0  0  0  0  0  0  0  0  0  0  0  0
  143.7039  134.3435  151.9090 C   0  0  0  0  0  0  0  0  0  0  0  0
  144.9972  133.6852  152.4191 C   0  0  1  0  0  0  0  0  0  0  0  0
  145.4732  132.6204  151.5095 N   0  0  0  0  0  0  0  0  0  0  0  0
  145.6201  131.2770  151.7621 C   0  0  0  0  0  0  0  0  0  0  0  0
  146.0744  130.7037  150.6028 C   0  0  0  0  0  0  0  0  0  0  0  0
  146.1823  131.7148  149.6877 N   0  3  0  0  0  0  0  0  0  0  0  0
  145.8144  132.8762  150.2380 C   0  0  0  0  0  0  0  0  0  0  0  0
  149.3351  133.4739  153.8599 C   0  0  0  0  0  0  0  0  0  0  0  0
  149.9076  133.1947  155.2614 C   0  0  0  0  0  0  0  0  0  0  0  0
  151.5635  136.9447  157.0808 H   0  0  0  0  0  0  0  0  0  0  0  0
  149.8354  136.6622  157.0566 H   0  0  0  0  0  0  0  0  0  0  0  0
  147.9235  134.0540  156.7548 H   0  0  0  0  0  0  0  0  0  0  0  0
  148.3936  135.7094  156.9721 H   0  0  0  0  0  0  0  0  0  0  0  0
  146.8081  135.5413  155.0845 H   0  0  0  0  0  0  0  0  0  0  0  0
  148.3649  136.0919  154.5116 H   0  0  0  0  0  0  0  0  0  0  0  0
  147.2418  133.2690  154.3393 H   0  0  0  0  0  0  0  0  0  0  0  0
  147.9485  135.2616  152.3197 H   0  0  0  0  0  0  0  0  0  0  0  0
  145.7062  135.3948  153.4781 H   0  0  0  0  0  0  0  0  0  0  0  0
  145.9104  136.8225  151.5536 H   0  0  0  0  0  0  0  0  0  0  0  0
  146.1667  135.4565  150.4786 H   0  0  0  0  0  0  0  0  0  0  0  0
  143.5846  136.4821  151.5677 H   0  0  0  0  0  0  0  0  0  0  0  0
  143.8806  135.5648  150.1009 H   0  0  0  0  0  0  0  0  0  0  0  0
  143.0798  134.6177  152.7608 H   0  0  0  0  0  0  0  0  0  0  0  0
  143.1059  133.6773  151.2855 H   0  0  0  0  0  0  0  0  0  0  0  0
  144.8206  133.2233  153.3923 H   0  0  0  0  0  0  0  0  0  0  0  0
  145.4057  130.8333  152.7235 H   0  0  0  0  0  0  0  0  0  0  0  0
  146.3237  129.6789  150.3672 H   0  0  0  0  0  0  0  0  0  0  0  0
  145.8017  133.8341  149.7486 H   0  0  0  0  0  0  0  0  0  0  0  0
  149.3496  132.5511  153.2803 H   0  0  0  0  0  0  0  0  0  0  0  0
  149.9851  134.1784  153.3386 H   0  0  0  0  0  0  0  0  0  0  0  0
  150.9152  132.7841  155.1790 H   0  0  0  0  0  0  0  0  0  0  0  0
  149.3177  132.4259  155.7624 H   0  0  0  0  0  0  0  0  0  0  0  0
  147.5486  133.7101  151.9762 H   0  0  0  0  0  0  0  0  0  0  0  0
  146.5021  131.6030  148.7333 H   0  0  0  0  0  0  0  0  0  0  0  0
  1  2  1  0  0  0  0
  1 21  1  0  0  0  0
  1 22  1  0  0  0  0
  2  3  2  0  0  0  0
  2  4  1  0  0  0  0
  4 20  1  0  0  0  0
  4  5  1  0  0  0  0
  5  6  1  0  0  0  0
  5 23  1  0  0  0  0
  5 24  1  0  0  0  0
  6  7  1  0  0  0  0
  6 25  1  0  0  0  0
  6 26  1  0  0  0  0
  7  8  1  0  0  0  0
  7 19  1  0  0  0  0
  7 27  1  0  0  0  0
  8  9  1  0  0  0  0
  8 28  1  0  0  0  0
  8 44  1  0  0  0  0
  9 13  1  0  0  0  0
  9 10  1  0  0  0  0
  9 29  1  0  0  0  0
 10 11  1  0  0  0  0
 10 30  1  0  0  0  0
 10 31  1  0  0  0  0
 11 12  1  0  0  0  0
 11 32  1  0  0  0  0
 11 33  1  0  0  0  0
 12 13  1  0  0  0  0
 12 34  1  0  0  0  0
 12 35  1  0  0  0  0
 13 14  1  0  0  0  0
 13 36  1  0  0  0  0
 14 18  1  0  0  0  0
 14 15  1  0  0  0  0
 15 16  2  0  0  0  0
 15 37  1  0  0  0  0
 16 17  1  0  0  0  0
 16 38  1  0  0  0  0
 17 18  2  0  0  0  0
 17 45  1  0  0  0  0
 18 39  1  0  0  0  0
 19 20  1  0  0  0  0
 19 40  1  0  0  0  0
 19 41  1  0  0  0  0
 20 42  1  0  0  0  0
 20 43  1  0  0  0  0
M  CHG  1   8   1
M  CHG  1  17   1
M  END
> <s_m_source_file>
AV-unprocessed.smi

> <i_m_source_file_index>
862

> <i_lp_mmshare_version>
43012

> <i_f3d_flags>
0

> <s_epik_input>
W05IMl1DKD1PKU4xW0NIMl1bQ0gyXVtDSF0oW0NIMl1bQ0gyXTEpW05IXVtDQEBIXTJbQ0gyXVtDSDJdW0NIMl1bQ0BIXTJuM1tjSF1bY0hdbltjSF0z

> <s_epik_cmdline>
J2VwaWtfcHl0aG9uJywgJy1waCcsICc3LjAnLCAnLXRuJywgJzgnLCAnLW1hJywgJzIwMCcsICctbWV0YWxfYmluZGluZycsICctaW1hZScsICc8aW5maWxlLm1hZT4nLCAnLW9tYWUnLCAnPG91dGZpbGUubWFlPic=

> <r_lp_tautomer_probability>
1

> <r_epik_Ionization_Penalty>
1.30217

> <r_epik_Ionization_Penalty_Charging>
0.00439521

> <r_epik_Ionization_Penalty_Neutral>
1.29777

> <r_epik_State_Penalty>
0.977606

> <r_epik_Charging_Adjusted_Penalty>
0.982001

> <i_epik_Tot_Q>
2

> <i_epik_Tot_abs_Q>
2

> <r_epik_Metal_State_Penalty>
1.03289

> <b_epik_Metal_Only>
0

> <s_lp_Force_Field>
OPLS_2005

> <r_lp_Energy>
67.0187

> <b_lp_Chiralities_Consistent>
1

> <s_lp_Variant>
AV-unprocessed.smi:862-6

> <Gold.Version>
5.8.1

> <Gold.Id.Protein>
6NUR|6NUR_protein|mol2

> <Gold.PLP.Fitness>
40.3080

> <Gold.PLP.PLP>
-29.0439

> <Gold.PLP.part.hbond>
-2.9883

> <Gold.PLP.part.metal>
0.0000

> <Gold.PLP.part.buried>
-2.7570

> <Gold.PLP.part.nonpolar>
-23.1170

> <Gold.PLP.part.repulsive>
0.2442

> <Gold.PLP.ligand.clash>
0.0000

> <Gold.PLP.ligand.torsion>
0.3046

> <Gold.PLP.Chemscore.Hbond>
3.0000

> <Gold.PLP.Chemscore.CHOScore>
0.9274

> <Gold.PLP.Chemscore.Metal>
0.0000

> <Gold.Chemscore.Hbonds>
donor molecule, donor type, donor heavy atom, donor atom, acceptor molecule, acceptor atom, score
      L1  H     8    28       P1  7948  1.53
      P1  H 10752 10764       L1     3  0.80
      L1  C    18    39       P1  7921  1.00

> <Gold.PLP.Chemscore.Internal.Correction>
0.0909

> <Gold.Rescore>
     Score         DG    S(hbond)    S(metal)    S(lipo)     H(rot)  DE(clash)    DE(int)     intcor
     14.24     -14.66       1.99        0.00      58.56       1.68       0.06       0.35       ----

> <Gold.Chemscore.Fitness>
14.2448

> <Gold.Chemscore.DG>
-14.6580

> <Gold.Chemscore.ZeroCoef>
-5.4800

> <Gold.Chemscore.Hbond>
1.9854

> <Gold.Chemscore.Metal>
0.0000

> <Gold.Chemscore.Lipo>
58.5559

> <Gold.Chemscore.Internal_Hbond>
0.0000

> <Gold.Chemscore.DEClash>
0.0641

> <Gold.Chemscore.DEInternal>
0.3490

> <Gold.Chemscore.Rot>
1.6814

> <Gold.Chemscore.Internal.Correction>
   9.000000E+99

> <Gold.Chemscore.Hbonds>
donor molecule, donor type, donor heavy atom, donor atom, acceptor molecule, acceptor atom, score
      L1  H     8    28       P1  7948  0.74
      P1  H 10752 10764       L1     3  0.78

> <Gold.Chemscore.Hbond.Weighted>
-6.6313

> <Gold.Chemscore.Metal.Weighted>
-0.0000

> <Gold.Chemscore.Lipo.Weighted>
-6.8510

> <Gold.Chemscore.Internal_Hbond.Weighted>
0.0000

> <Gold.Chemscore.DEClash.Weighted>
0.0641

> <Gold.Chemscore.DEInternal.Weighted>
0.3490

> <Gold.Chemscore.Rot.Weighted>
4.3043

> <Gold.Chemscore.Internal.Correction.Weighted>
   9.000000E+99

> <Gold.Protein.RotatedTorsions>
[ 6907 6896 6895 6894 ] final  -43.27 input  -60.11 | X-H torsion
[ 7974 7965 7964 7962 ] final   90.81 input  175.53 | X-H torsion
[ 8008 7997 7996 7995 ] final   19.20 input   59.86 | X-H torsion
[ 10167 10162 10161 10158 ] final   67.05 input  -65.29 | X-H torsion
[ 10718 10713 10712 10709 ] final  128.13 input   66.30 | X-H torsion
[ 10763 10752 10751 10750 ] final  -19.05 input  -60.55 | X-H torsion
[ 11005 11000 10999 10996 ] final  -35.19 input  -57.11 | X-H torsion

> <Gold.Protein.ActiveResidues>
 VAL166  LYS551  ARG553  GLY616  TRP617  ASP618  TYR619  PRO620  LYS621  CYS622 
 ASP623  PHE694  ASN695  SER759  ASP760  ASP761  ALA762  ILE779  LEU786  VAL792 
 PHE793  MET794  SER795  GLU796  ALA797  LYS798  CYS799  TRP800  GLU811  SER814 

> <Gold.Protein.RotatedAtoms>
  150.9459  134.8864  159.7641 H   0  0  0  0  0  0  0  0  0  0  0  0  # atno 6907 bound_to 6896
  152.5099  134.3876  159.9383 H   0  0  0  0  0  0  0  0  0  0  0  0  # atno 6908 bound_to 6896
  151.3894  133.3754  159.2754 H   0  0  0  0  0  0  0  0  0  0  0  0  # atno 6909 bound_to 6896
  145.5140  139.2277  143.2709 H   0  0  0  0  0  0  0  0  0  0  0  0  # atno 7974 bound_to 7965
  154.9172  140.3022  155.5235 H   0  0  0  0  0  0  0  0  0  0  0  0  # atno 8008 bound_to 7997
  156.3012  140.2378  156.4154 H   0  0  0  0  0  0  0  0  0  0  0  0  # atno 8009 bound_to 7997
  154.8367  140.0416  157.1502 H   0  0  0  0  0  0  0  0  0  0  0  0  # atno 8010 bound_to 7997
  140.0938  144.4965  150.7082 H   0  0  0  0  0  0  0  0  0  0  0  0  # atno 10167 bound_to 10162
  157.5272  131.1098  150.9065 H   0  0  0  0  0  0  0  0  0  0  0  0  # atno 10718 bound_to 10713
  153.5988  135.7000  153.5393 H   0  0  0  0  0  0  0  0  0  0  0  0  # atno 10763 bound_to 10752
  153.3115  135.4100  155.1339 H   0  0  0  0  0  0  0  0  0  0  0  0  # atno 10764 bound_to 10752
  154.8586  135.3673  154.5522 H   0  0  0  0  0  0  0  0  0  0  0  0  # atno 10765 bound_to 10752
  140.9776  133.7074  156.1629 H   0  0  0  0  0  0  0  0  0  0  0  0  # atno 11005 bound_to 11000
  146.2148  140.5948  142.9043 LP  0  0  0  0  0  0  0  0  0  0  0  0  # atno 17320 bound_to 7965
  144.7712  140.5641  143.6669 LP  0  0  0  0  0  0  0  0  0  0  0  0  # atno 17321 bound_to 7965
  140.7014  143.2438  151.4852 LP  0  0  0  0  0  0  0  0  0  0  0  0  # atno 17342 bound_to 10162
  139.5710  144.1929  152.1836 LP  0  0  0  0  0  0  0  0  0  0  0  0  # atno 17343 bound_to 10162
  156.9657  130.5472  149.5288 LP  0  0  0  0  0  0  0  0  0  0  0  0  # atno 17370 bound_to 10713
  156.0395  130.5479  150.8737 LP  0  0  0  0  0  0  0  0  0  0  0  0  # atno 17371 bound_to 10713
  140.7235  134.4333  157.5573 LP  0  0  0  0  0  0  0  0  0  0  0  0  # atno 17394 bound_to 11000
  139.8937  134.8724  156.2211 LP  0  0  0  0  0  0  0  0  0  0  0  0  # atno 17395 bound_to 11000

$$$$
