AV-unprocessed.smi:193|AV-procd|sdf|1510|dock1
  -GOLD-   2262019343D 1   1.00000     0.00000
 Structure written by MMmdl.
 62 66  0  0  0  0  0  0  0  0  2 V2000
  151.7152  132.8410  156.5777 C   0  0  0  0  0  0  0  0  0  0  0  0
  150.7497  133.8098  155.8769 C   0  0  2  0  0  0  0  0  0  0  0  0
  151.2668  135.2533  156.0509 C   0  0  0  0  0  0  0  0  0  0  0  0
  150.5748  136.2375  155.2234 N   0  0  0  0  0  0  0  0  0  0  0  0
  151.1826  137.4421  155.2576 C   0  0  0  0  0  0  0  0  0  0  0  0
  152.4347  137.5266  154.7462 N   0  0  0  0  0  0  0  0  0  0  0  0
  153.0801  138.6975  154.7581 C   0  0  0  0  0  0  0  0  0  0  0  0
  152.6626  139.8772  155.2241 N   0  0  0  0  0  0  0  0  0  0  0  0
  151.4027  139.7908  155.7402 C   0  0  0  0  0  0  0  0  0  0  0  0
  150.5962  138.6204  155.7967 C   0  0  0  0  0  0  0  0  0  0  0  0
  149.3743  138.9106  156.3916 N   0  0  0  0  0  0  0  0  0  0  0  0
  149.4541  140.1834  156.6707 C   0  0  0  0  0  0  0  0  0  0  0  0
  150.6340  140.7926  156.3066 N   0  0  0  0  0  0  0  0  0  0  0  0
  150.9841  142.1924  156.4922 C   0  0  0  0  0  0  0  0  0  0  0  0
  151.2855  142.5718  157.9630 C   0  0  0  0  0  0  0  0  0  0  0  0
  150.1164  142.3114  158.7214 O   0  0  0  0  0  0  0  0  0  0  0  0
  152.4303  141.7025  158.5202 C   0  0  0  0  0  0  0  0  0  0  0  0
  152.8725  142.1565  159.9229 C   0  0  0  0  0  0  0  0  0  0  0  0
  153.2330  143.5323  159.8988 O   0  0  0  0  0  0  0  0  0  0  0  0
  152.1452  144.3810  159.5530 C   0  0  0  0  0  0  0  0  0  0  0  0
  151.6552  144.0621  158.1294 C   0  0  0  0  0  0  0  0  0  0  0  0
  149.1206  136.3306  155.3089 C   0  0  0  0  0  0  0  0  0  0  0  0
  148.4446  135.1374  154.6167 C   0  0  0  0  0  0  0  0  0  0  0  0
  148.2228  133.9671  155.5045 N   0  3  1  0  0  0  0  0  0  0  0  0
  147.7870  132.7788  154.7360 C   0  0  1  0  0  0  0  0  0  0  0  0
  148.4017  132.6925  153.3582 C   0  0  0  0  0  0  0  0  0  0  0  0
  148.8908  131.7805  154.4627 C   0  0  2  0  0  0  0  0  0  0  0  0
  148.5925  130.2982  154.4133 C   0  0  0  0  0  0  0  0  0  0  0  0
  149.3237  133.6460  156.4538 C   0  0  0  0  0  0  0  0  0  0  0  0
  151.7632  133.0342  157.6501 H   0  0  0  0  0  0  0  0  0  0  0  0
  152.7254  132.9325  156.1778 H   0  0  0  0  0  0  0  0  0  0  0  0
  151.4049  131.8047  156.4390 H   0  0  0  0  0  0  0  0  0  0  0  0
  150.7563  133.5443  154.8189 H   0  0  0  0  0  0  0  0  0  0  0  0
  151.2046  135.5460  157.1000 H   0  0  0  0  0  0  0  0  0  0  0  0
  152.3259  135.2814  155.7885 H   0  0  0  0  0  0  0  0  0  0  0  0
  154.0736  138.6884  154.3340 H   0  0  0  0  0  0  0  0  0  0  0  0
  148.6464  140.7201  157.1475 H   0  0  0  0  0  0  0  0  0  0  0  0
  151.8435  142.4159  155.8583 H   0  0  0  0  0  0  0  0  0  0  0  0
  150.1622  142.8000  156.1113 H   0  0  0  0  0  0  0  0  0  0  0  0
  149.4340  142.0275  158.1325 H   0  0  0  0  0  0  0  0  0  0  0  0
  152.1390  140.6515  158.5409 H   0  0  0  0  0  0  0  0  0  0  0  0
  153.2899  141.7670  157.8518 H   0  0  0  0  0  0  0  0  0  0  0  0
  152.0850  141.9873  160.6588 H   0  0  0  0  0  0  0  0  0  0  0  0
  153.7353  141.5746  160.2471 H   0  0  0  0  0  0  0  0  0  0  0  0
  151.3387  144.2714  160.2796 H   0  0  0  0  0  0  0  0  0  0  0  0
  152.4787  145.4175  159.6076 H   0  0  0  0  0  0  0  0  0  0  0  0
  152.4491  144.3149  157.4254 H   0  0  0  0  0  0  0  0  0  0  0  0
  150.8100  144.7050  157.8811 H   0  0  0  0  0  0  0  0  0  0  0  0
  148.7938  136.4271  156.3450 H   0  0  0  0  0  0  0  0  0  0  0  0
  148.8014  137.2427  154.8009 H   0  0  0  0  0  0  0  0  0  0  0  0
  147.4657  135.4536  154.2549 H   0  0  0  0  0  0  0  0  0  0  0  0
  149.0101  134.8473  153.7292 H   0  0  0  0  0  0  0  0  0  0  0  0
  146.7634  132.4464  154.9022 H   0  0  0  0  0  0  0  0  0  0  0  0
  147.7984  132.2490  152.5684 H   0  0  0  0  0  0  0  0  0  0  0  0
  149.0666  133.4930  153.0387 H   0  0  0  0  0  0  0  0  0  0  0  0
  149.8759  132.0118  154.8648 H   0  0  0  0  0  0  0  0  0  0  0  0
  147.5968  130.1172  154.0068 H   0  0  0  0  0  0  0  0  0  0  0  0
  148.6410  129.8740  155.4164 H   0  0  0  0  0  0  0  0  0  0  0  0
  149.3225  129.7894  153.7836 H   0  0  0  0  0  0  0  0  0  0  0  0
  149.1775  132.6274  156.8161 H   0  0  0  0  0  0  0  0  0  0  0  0
  149.2113  134.2732  157.3391 H   0  0  0  0  0  0  0  0  0  0  0  0
  147.4376  134.2115  156.0909 H   0  0  0  0  0  0  0  0  0  0  0  0
  1  2  1  0  0  0  0
  1 30  1  0  0  0  0
  1 31  1  0  0  0  0
  1 32  1  0  0  0  0
  2 29  1  0  0  0  0
  2  3  1  0  0  0  0
  2 33  1  0  0  0  0
  3  4  1  0  0  0  0
  3 34  1  0  0  0  0
  3 35  1  0  0  0  0
  4  5  1  0  0  0  0
  4 22  1  0  0  0  0
  5 10  1  0  0  0  0
  5  6  2  0  0  0  0
  6  7  1  0  0  0  0
  7  8  2  0  0  0  0
  7 36  1  0  0  0  0
  8  9  1  0  0  0  0
  9 13  1  0  0  0  0
  9 10  2  0  0  0  0
 10 11  1  0  0  0  0
 11 12  2  0  0  0  0
 12 13  1  0  0  0  0
 12 37  1  0  0  0  0
 13 14  1  0  0  0  0
 14 15  1  0  0  0  0
 14 38  1  0  0  0  0
 14 39  1  0  0  0  0
 15 21  1  0  0  0  0
 15 16  1  0  0  0  0
 15 17  1  0  0  0  0
 16 40  1  0  0  0  0
 17 18  1  0  0  0  0
 17 41  1  0  0  0  0
 17 42  1  0  0  0  0
 18 19  1  0  0  0  0
 18 43  1  0  0  0  0
 18 44  1  0  0  0  0
 19 20  1  0  0  0  0
 20 21  1  0  0  0  0
 20 45  1  0  0  0  0
 20 46  1  0  0  0  0
 21 47  1  0  0  0  0
 21 48  1  0  0  0  0
 22 23  1  0  0  0  0
 22 49  1  0  0  0  0
 22 50  1  0  0  0  0
 23 24  1  0  0  0  0
 23 51  1  0  0  0  0
 23 52  1  0  0  0  0
 24 25  1  0  0  0  0
 24 29  1  0  0  0  0
 24 62  1  0  0  0  0
 25 27  1  0  0  0  0
 25 26  1  0  0  0  0
 25 53  1  0  0  0  0
 26 27  1  0  0  0  0
 26 54  1  0  0  0  0
 26 55  1  0  0  0  0
 27 28  1  0  0  0  0
 27 56  1  0  0  0  0
 28 57  1  0  0  0  0
 28 58  1  0  0  0  0
 28 59  1  0  0  0  0
 29 60  1  0  0  0  0
 29 61  1  0  0  0  0
M  CHG  1  24   1
M  END
> <s_m_source_file>
AV-unprocessed.smi

> <i_m_source_file_index>
193

> <i_lp_mmshare_version>
43012

> <i_f3d_flags>
0

> <s_epik_input>
W0NIM11bQ0BASF0xW0NIMl1bQ0BIXTFOKFtDSDJdMilbQ0gyXVtDSDJdTihbQ0gyXVtDQEhdMltDSDNdKWMobltjSF1uMyljKGMzNCluW2NIXW40W0NIMl1DNShbT0hdKVtDSDJdW0NIMl1PW0NIMl1bQ0gyXTU=

> <s_epik_cmdline>
J2VwaWtfcHl0aG9uJywgJy1waCcsICc3LjAnLCAnLXRuJywgJzgnLCAnLW1hJywgJzIwMCcsICctbWV0YWxfYmluZGluZycsICctaW1hZScsICc8aW5maWxlLm1hZT4nLCAnLW9tYWUnLCAnPG91dGZpbGUubWFlPic=

> <r_lp_tautomer_probability>
1

> <r_epik_Ionization_Penalty>
0.0540825

> <r_epik_Ionization_Penalty_Charging>
0.0538476

> <r_epik_Ionization_Penalty_Neutral>
0.000234891

> <r_epik_State_Penalty>
0.0200719

> <r_epik_Charging_Adjusted_Penalty>
0.0739194

> <i_epik_Tot_Q>
1

> <i_epik_Tot_abs_Q>
1

> <r_epik_Metal_State_Penalty>
0.0199414

> <b_epik_Metal_Only>
0

> <s_lp_Force_Field>
OPLS_2005

> <r_lp_Energy>
55.8923

> <b_lp_Chiralities_Consistent>
1

> <s_lp_Variant>
AV-unprocessed.smi:193-15

> <Gold.Version>
5.8.1

> <Gold.Id.Protein>
6NUR|6NUR_protein|mol2

> <Gold.PLP.Fitness>
49.9296

> <Gold.PLP.PLP>
-46.3785

> <Gold.PLP.part.hbond>
-3.2635

> <Gold.PLP.part.metal>
0.0000

> <Gold.PLP.part.buried>
-4.0404

> <Gold.PLP.part.nonpolar>
-38.4205

> <Gold.PLP.part.repulsive>
0.2379

> <Gold.PLP.ligand.clash>
0.0000

> <Gold.PLP.ligand.torsion>
1.3492

> <Gold.PLP.Chemscore.Hbond>
1.5369

> <Gold.PLP.Chemscore.CHOScore>
0.0000

> <Gold.PLP.Chemscore.Metal>
0.0000

> <Gold.Chemscore.Hbonds>
donor molecule, donor type, donor heavy atom, donor atom, acceptor molecule, acceptor atom, score
      P1  H  7989  7998       L1     8  0.08
      P1  H  7997  8008       L1     8  0.55
      P1  H 10752 10765       L1     6  0.62

> <Gold.PLP.Chemscore.Internal.Correction>
1.6388

> <Gold.Rescore>
     Score         DG    S(hbond)    S(metal)    S(lipo)     H(rot)  DE(clash)    DE(int)     intcor
     12.22     -16.14       1.31        0.00     101.89       2.20       0.21       3.71       ----

> <Gold.Chemscore.Fitness>
12.2163

> <Gold.Chemscore.DG>
-16.1374

> <Gold.Chemscore.ZeroCoef>
-5.4800

> <Gold.Chemscore.Hbond>
1.3093

> <Gold.Chemscore.Metal>
0.0000

> <Gold.Chemscore.Lipo>
101.8887

> <Gold.Chemscore.Internal_Hbond>
0.0000

> <Gold.Chemscore.DEClash>
0.2145

> <Gold.Chemscore.DEInternal>
3.7067

> <Gold.Chemscore.Rot>
2.2018

> <Gold.Chemscore.Internal.Correction>
   9.000000E+99

> <Gold.Chemscore.Hbonds>
donor molecule, donor type, donor heavy atom, donor atom, acceptor molecule, acceptor atom, score
      P1  H  7997  8008       L1     8  0.03
      P1  H 10752 10765       L1     6  0.27

> <Gold.Chemscore.Hbond.Weighted>
-4.3730

> <Gold.Chemscore.Metal.Weighted>
-0.0000

> <Gold.Chemscore.Lipo.Weighted>
-11.9210

> <Gold.Chemscore.Internal_Hbond.Weighted>
0.0000

> <Gold.Chemscore.DEClash.Weighted>
0.2145

> <Gold.Chemscore.DEInternal.Weighted>
3.7067

> <Gold.Chemscore.Rot.Weighted>
5.6366

> <Gold.Chemscore.Internal.Correction.Weighted>
   9.000000E+99

> <Gold.Protein.RotatedTorsions>
[ 6907 6896 6895 6894 ] final   43.87 input  -60.11 | X-H torsion
[ 7974 7965 7964 7962 ] final -104.14 input  175.53 | X-H torsion
[ 8008 7997 7996 7995 ] final  -33.67 input   59.86 | X-H torsion
[ 10167 10162 10161 10158 ] final   63.02 input  -65.29 | X-H torsion
[ 10718 10713 10712 10709 ] final  148.78 input   66.30 | X-H torsion
[ 10763 10752 10751 10750 ] final  171.73 input  -60.55 | X-H torsion
[ 11005 11000 10999 10996 ] final  176.06 input  -57.11 | X-H torsion

> <Gold.Protein.ActiveResidues>
 VAL166  LYS551  ARG553  GLY616  TRP617  ASP618  TYR619  PRO620  LYS621  CYS622 
 ASP623  PHE694  ASN695  SER759  ASP760  ASP761  ALA762  ILE779  LEU786  VAL792 
 PHE793  MET794  SER795  GLU796  ALA797  LYS798  CYS799  TRP800  GLU811  SER814 

> <Gold.Protein.RotatedAtoms>
  152.2256  134.8371  160.0480 H   0  0  0  0  0  0  0  0  0  0  0  0  # atno 6907 bound_to 6896
  151.9139  133.3563  159.3881 H   0  0  0  0  0  0  0  0  0  0  0  0  # atno 6908 bound_to 6896
  150.7011  134.4630  159.5433 H   0  0  0  0  0  0  0  0  0  0  0  0  # atno 6909 bound_to 6896
  145.2470  140.9225  143.3117 H   0  0  0  0  0  0  0  0  0  0  0  0  # atno 7974 bound_to 7965
  154.4142  140.1704  156.1925 H   0  0  0  0  0  0  0  0  0  0  0  0  # atno 8008 bound_to 7997
  155.9591  140.3395  155.6451 H   0  0  0  0  0  0  0  0  0  0  0  0  # atno 8009 bound_to 7997
  155.6771  140.0718  157.2489 H   0  0  0  0  0  0  0  0  0  0  0  0  # atno 8010 bound_to 7997
  140.1376  144.4584  150.6829 H   0  0  0  0  0  0  0  0  0  0  0  0  # atno 10167 bound_to 10162
  157.3043  131.0876  151.1365 H   0  0  0  0  0  0  0  0  0  0  0  0  # atno 10718 bound_to 10713
  154.4160  135.2757  155.2006 H   0  0  0  0  0  0  0  0  0  0  0  0  # atno 10763 bound_to 10752
  154.3972  135.6053  153.5880 H   0  0  0  0  0  0  0  0  0  0  0  0  # atno 10764 bound_to 10752
  152.9832  135.5917  154.4449 H   0  0  0  0  0  0  0  0  0  0  0  0  # atno 10765 bound_to 10752
  140.3690  134.7046  157.4380 H   0  0  0  0  0  0  0  0  0  0  0  0  # atno 11005 bound_to 11000
  144.9537  139.4054  143.6390 LP  0  0  0  0  0  0  0  0  0  0  0  0  # atno 17320 bound_to 7965
  146.3313  139.8557  142.8865 LP  0  0  0  0  0  0  0  0  0  0  0  0  # atno 17321 bound_to 7965
  140.6780  143.2313  151.5458 LP  0  0  0  0  0  0  0  0  0  0  0  0  # atno 17342 bound_to 10162
  139.5488  144.2450  152.1492 LP  0  0  0  0  0  0  0  0  0  0  0  0  # atno 17343 bound_to 10162
  157.2712  130.6705  149.6020 LP  0  0  0  0  0  0  0  0  0  0  0  0  # atno 17370 bound_to 10713
  155.9673  130.4478  150.5596 LP  0  0  0  0  0  0  0  0  0  0  0  0  # atno 17371 bound_to 10713
  140.0566  134.6054  155.8797 LP  0  0  0  0  0  0  0  0  0  0  0  0  # atno 17394 bound_to 11000
  141.1960  133.6590  156.5672 LP  0  0  0  0  0  0  0  0  0  0  0  0  # atno 17395 bound_to 11000

$$$$
