AV-unprocessed.smi:708|AV-procd|sdf|3457|dock7
  -GOLD-   22720 0443D 1   1.00000     0.00000
 Structure written by MMmdl.
 42 43  0  0  0  0  0  0  0  0  1 V2000
  151.7606  140.2004  155.1604 O   0  0  0  0  0  0  0  0  0  0  0  0
  150.7305  140.0099  155.8077 C   0  0  0  0  0  0  0  0  0  0  0  0
  150.1351  141.1301  156.6700 C   0  0  0  0  0  0  0  0  0  0  0  0
  151.1067  141.6832  157.6277 N   0  0  0  0  0  0  0  0  0  0  0  0
  151.3957  143.0590  157.5315 C   0  0  0  0  0  0  0  0  0  0  0  0
  152.2703  143.6598  158.3541 C   0  0  0  0  0  0  0  0  0  0  0  0
  152.9245  142.8566  159.3599 C   0  0  0  0  0  0  0  0  0  0  0  0
  152.6523  141.5407  159.4634 C   0  0  0  0  0  0  0  0  0  0  0  0
  151.6942  140.8804  158.5691 C   0  0  0  0  0  0  0  0  0  0  0  0
  151.4360  139.6796  158.6602 O   0  0  0  0  0  0  0  0  0  0  0  0
  150.0710  138.8421  155.8179 N   0  0  0  0  0  0  0  0  0  0  0  0
  150.4235  137.6674  155.0277 C   0  0  0  0  0  0  0  0  0  0  0  0
  149.4647  136.4797  155.2642 C   0  0  0  0  0  0  0  0  0  0  0  0
  149.9867  135.1543  154.6589 C   0  0  0  0  0  0  0  0  0  0  0  0
  148.9543  134.0239  154.8139 C   0  0  0  0  0  0  0  0  0  0  0  0
  147.6951  134.4427  154.1858 N   0  0  0  0  0  0  0  0  0  0  0  0
  147.2407  133.8991  153.0284 C   0  0  0  0  0  0  0  0  0  0  0  0
  147.8373  132.9807  152.4628 O   0  0  0  0  0  0  0  0  0  0  0  0
  145.9455  134.4278  152.3860 C   0  0  0  0  0  0  0  0  0  0  0  0
  144.9302  134.3004  153.2413 F   0  0  0  0  0  0  0  0  0  0  0  0
  146.0978  135.7064  152.0385 F   0  0  0  0  0  0  0  0  0  0  0  0
  145.6653  133.7219  151.2891 F   0  0  0  0  0  0  0  0  0  0  0  0
  147.1061  135.5884  154.8895 C   0  0  0  0  0  0  0  0  0  0  0  0
  148.0463  136.7986  154.7422 C   0  0  0  0  0  0  0  0  0  0  0  0
  149.7490  141.9283  156.0327 H   0  0  0  0  0  0  0  0  0  0  0  0
  149.2625  140.7299  157.1880 H   0  0  0  0  0  0  0  0  0  0  0  0
  150.8607  143.5901  156.7576 H   0  0  0  0  0  0  0  0  0  0  0  0
  152.4771  144.7163  158.2681 H   0  0  0  0  0  0  0  0  0  0  0  0
  153.6349  143.3131  160.0334 H   0  0  0  0  0  0  0  0  0  0  0  0
  153.1511  140.9560  160.2223 H   0  0  0  0  0  0  0  0  0  0  0  0
  149.2391  138.7742  156.3862 H   0  0  0  0  0  0  0  0  0  0  0  0
  150.4470  137.9329  153.9695 H   0  0  0  0  0  0  0  0  0  0  0  0
  151.4409  137.3806  155.2956 H   0  0  0  0  0  0  0  0  0  0  0  0
  149.3779  136.3282  156.3410 H   0  0  0  0  0  0  0  0  0  0  0  0
  150.2160  135.2942  153.6017 H   0  0  0  0  0  0  0  0  0  0  0  0
  150.9181  134.8563  155.1411 H   0  0  0  0  0  0  0  0  0  0  0  0
  149.3526  133.0990  154.3946 H   0  0  0  0  0  0  0  0  0  0  0  0
  148.7813  133.8161  155.8709 H   0  0  0  0  0  0  0  0  0  0  0  0
  146.1100  135.8526  154.5412 H   0  0  0  0  0  0  0  0  0  0  0  0
  146.9849  135.3378  155.9444 H   0  0  0  0  0  0  0  0  0  0  0  0
  147.6349  137.6523  155.2818 H   0  0  0  0  0  0  0  0  0  0  0  0
  148.0948  137.0915  153.6925 H   0  0  0  0  0  0  0  0  0  0  0  0
  1  2  2  0  0  0  0
  2  3  1  0  0  0  0
  2 11  1  0  0  0  0
  3  4  1  0  0  0  0
  3 25  1  0  0  0  0
  3 26  1  0  0  0  0
  4  9  1  0  0  0  0
  4  5  1  0  0  0  0
  5  6  2  0  0  0  0
  5 27  1  0  0  0  0
  6  7  1  0  0  0  0
  6 28  1  0  0  0  0
  7  8  2  0  0  0  0
  7 29  1  0  0  0  0
  8  9  1  0  0  0  0
  8 30  1  0  0  0  0
  9 10  2  0  0  0  0
 11 12  1  0  0  0  0
 11 31  1  0  0  0  0
 12 13  1  0  0  0  0
 12 32  1  0  0  0  0
 12 33  1  0  0  0  0
 13 24  1  0  0  0  0
 13 14  1  0  0  0  0
 13 34  1  0  0  0  0
 14 15  1  0  0  0  0
 14 35  1  0  0  0  0
 14 36  1  0  0  0  0
 15 16  1  0  0  0  0
 15 37  1  0  0  0  0
 15 38  1  0  0  0  0
 16 17  1  0  0  0  0
 16 23  1  0  0  0  0
 17 18  2  0  0  0  0
 17 19  1  0  0  0  0
 19 20  1  0  0  0  0
 19 21  1  0  0  0  0
 19 22  1  0  0  0  0
 23 24  1  0  0  0  0
 23 39  1  0  0  0  0
 23 40  1  0  0  0  0
 24 41  1  0  0  0  0
 24 42  1  0  0  0  0
M  END
> <s_m_source_file>
AV-unprocessed.smi

> <i_m_source_file_index>
708

> <i_lp_mmshare_version>
43012

> <i_f3d_flags>
0

> <s_epik_input>
Tz1jMVtjSF1bY0hdW2NIXVtjSF1uMVtDSDJdQyg9TylbTkhdW0NIMl1bQ0hdMltDSDJdW0NIMl1OKEMoPU8pQyhGKShGKUYpW0NIMl1bQ0gyXTI=

> <s_epik_cmdline>
J2VwaWtfcHl0aG9uJywgJy1waCcsICc3LjAnLCAnLXRuJywgJzgnLCAnLW1hJywgJzIwMCcsICctbWV0YWxfYmluZGluZycsICctaW1hZScsICc8aW5maWxlLm1hZT4nLCAnLW9tYWUnLCAnPG91dGZpbGUubWFlPic=

> <r_lp_tautomer_probability>
1

> <r_epik_Ionization_Penalty>
3.72594e-07

> <r_epik_Ionization_Penalty_Charging>
3.54487e-07

> <r_epik_Ionization_Penalty_Neutral>
1.81071e-08

> <r_epik_State_Penalty>
-0

> <r_epik_Charging_Adjusted_Penalty>
3.54487e-07

> <i_epik_Tot_Q>
0

> <i_epik_Tot_abs_Q>
0

> <r_epik_Metal_State_Penalty>
-0

> <b_epik_Metal_Only>
0

> <s_lp_Force_Field>
OPLS_2005

> <r_lp_Energy>
36.5202

> <b_lp_Chiralities_Consistent>
1

> <s_lp_Variant>
AV-unprocessed.smi:708-1

> <Gold.Version>
5.8.1

> <Gold.Id.Protein>
6NUR|6NUR_protein|mol2

> <Gold.PLP.Fitness>
43.3925

> <Gold.PLP.PLP>
-37.9119

> <Gold.PLP.part.hbond>
-0.8934

> <Gold.PLP.part.metal>
0.0000

> <Gold.PLP.part.buried>
-2.6503

> <Gold.PLP.part.nonpolar>
-34.6281

> <Gold.PLP.part.repulsive>
0.2681

> <Gold.PLP.ligand.clash>
0.0000

> <Gold.PLP.ligand.torsion>
0.0916

> <Gold.PLP.Chemscore.Hbond>
0.8800

> <Gold.PLP.Chemscore.CHOScore>
1.0000

> <Gold.PLP.Chemscore.Metal>
0.0000

> <Gold.Chemscore.Hbonds>
donor molecule, donor type, donor heavy atom, donor atom, acceptor molecule, acceptor atom, score
      P1  H  7989  7998       L1     1  0.88
      L1  C     5    27       P1  8028  1.00

> <Gold.PLP.Chemscore.Internal.Correction>
0.0238

> <Gold.Rescore>
     Score         DG    S(hbond)    S(metal)    S(lipo)     H(rot)  DE(clash)    DE(int)     intcor
     10.59     -12.57       0.86        0.00      77.74       1.91       0.03       1.96       ----

> <Gold.Chemscore.Fitness>
10.5870

> <Gold.Chemscore.DG>
-12.5747

> <Gold.Chemscore.ZeroCoef>
-5.4800

> <Gold.Chemscore.Hbond>
0.8644

> <Gold.Chemscore.Metal>
0.0000

> <Gold.Chemscore.Lipo>
77.7383

> <Gold.Chemscore.Internal_Hbond>
0.0000

> <Gold.Chemscore.DEClash>
0.0309

> <Gold.Chemscore.DEInternal>
1.9568

> <Gold.Chemscore.Rot>
1.9093

> <Gold.Chemscore.Internal.Correction>
   9.000000E+99

> <Gold.Chemscore.Hbonds>
donor molecule, donor type, donor heavy atom, donor atom, acceptor molecule, acceptor atom, score
      P1  H  7989  7998       L1     1  0.85

> <Gold.Chemscore.Hbond.Weighted>
-2.8870

> <Gold.Chemscore.Metal.Weighted>
-0.0000

> <Gold.Chemscore.Lipo.Weighted>
-9.0954

> <Gold.Chemscore.Internal_Hbond.Weighted>
0.0000

> <Gold.Chemscore.DEClash.Weighted>
0.0309

> <Gold.Chemscore.DEInternal.Weighted>
1.9568

> <Gold.Chemscore.Rot.Weighted>
4.8877

> <Gold.Chemscore.Internal.Correction.Weighted>
   9.000000E+99

> <Gold.Protein.RotatedTorsions>
[ 6907 6896 6895 6894 ] final  -52.01 input  -60.11 | X-H torsion
[ 7974 7965 7964 7962 ] final  -11.91 input  175.53 | X-H torsion
[ 8008 7997 7996 7995 ] final -136.10 input   59.86 | X-H torsion
[ 10167 10162 10161 10158 ] final  -86.95 input  -65.29 | X-H torsion
[ 10718 10713 10712 10709 ] final -142.10 input   66.30 | X-H torsion
[ 10763 10752 10751 10750 ] final  -45.60 input  -60.55 | X-H torsion
[ 11005 11000 10999 10996 ] final  -75.84 input  -57.11 | X-H torsion

> <Gold.Protein.ActiveResidues>
 VAL166  LYS551  ARG553  GLY616  TRP617  ASP618  TYR619  PRO620  LYS621  CYS622 
 ASP623  PHE694  ASN695  SER759  ASP760  ASP761  ALA762  ILE779  LEU786  VAL792 
 PHE793  MET794  SER795  GLU796  ALA797  LYS798  CYS799  TRP800  GLU811  SER814 

> <Gold.Protein.RotatedAtoms>
  150.8558  134.7896  159.7043 H   0  0  0  0  0  0  0  0  0  0  0  0  # atno 6907 bound_to 6896
  152.4610  134.5181  159.9784 H   0  0  0  0  0  0  0  0  0  0  0  0  # atno 6908 bound_to 6896
  151.5294  133.3414  159.2951 H   0  0  0  0  0  0  0  0  0  0  0  0  # atno 6909 bound_to 6896
  146.2171  140.2981  142.8373 H   0  0  0  0  0  0  0  0  0  0  0  0  # atno 7974 bound_to 7965
  155.3896  140.0499  157.3041 H   0  0  0  0  0  0  0  0  0  0  0  0  # atno 8008 bound_to 7997
  154.5043  140.2168  155.9245 H   0  0  0  0  0  0  0  0  0  0  0  0  # atno 8009 bound_to 7997
  156.1506  140.3136  155.8647 H   0  0  0  0  0  0  0  0  0  0  0  0  # atno 8010 bound_to 7997
  140.3892  143.2713  151.9286 H   0  0  0  0  0  0  0  0  0  0  0  0  # atno 10167 bound_to 10162
  156.3419  130.7642  151.1779 H   0  0  0  0  0  0  0  0  0  0  0  0  # atno 10718 bound_to 10713
  154.0311  135.6656  153.4781 H   0  0  0  0  0  0  0  0  0  0  0  0  # atno 10763 bound_to 10752
  153.0540  135.5067  154.7932 H   0  0  0  0  0  0  0  0  0  0  0  0  # atno 10764 bound_to 10752
  154.6877  135.3056  154.9489 H   0  0  0  0  0  0  0  0  0  0  0  0  # atno 10765 bound_to 10752
  141.1649  133.6961  156.7578 H   0  0  0  0  0  0  0  0  0  0  0  0  # atno 11005 bound_to 11000
  144.9077  140.7720  143.5827 LP  0  0  0  0  0  0  0  0  0  0  0  0  # atno 17320 bound_to 7965
  145.2910  139.1884  143.4740 LP  0  0  0  0  0  0  0  0  0  0  0  0  # atno 17321 bound_to 7965
  139.4790  144.5744  151.8035 LP  0  0  0  0  0  0  0  0  0  0  0  0  # atno 17342 bound_to 10162
  140.4858  144.1383  150.5940 LP  0  0  0  0  0  0  0  0  0  0  0  0  # atno 17343 bound_to 10162
  157.7448  131.0452  150.4831 LP  0  0  0  0  0  0  0  0  0  0  0  0  # atno 17370 bound_to 10713
  156.5013  130.4118  149.6351 LP  0  0  0  0  0  0  0  0  0  0  0  0  # atno 17371 bound_to 10713
  140.2556  134.8506  157.3710 LP  0  0  0  0  0  0  0  0  0  0  0  0  # atno 17394 bound_to 11000
  140.1660  134.4668  155.7863 LP  0  0  0  0  0  0  0  0  0  0  0  0  # atno 17395 bound_to 11000

$$$$
