AV-unprocessed.smi:2321|AV-procd|sdf|9284|dock3
  -GOLD-   2272012503D 1   1.00000     0.00000
 Structure written by MMmdl.
 36 37  0  0  0  0  0  0  0  0  1 V2000
  146.6769  138.2599  151.1320 O   0  0  0  0  0  0  0  0  0  0  0  0
  146.2860  138.1582  152.2928 C   0  0  0  0  0  0  0  0  0  0  0  0
  145.5048  137.1634  152.7571 N   0  0  0  0  0  0  0  0  0  0  0  0
  144.9544  136.0561  152.0576 C   0  0  0  0  0  0  0  0  0  0  0  0
  145.2369  135.7494  150.7046 C   0  0  0  0  0  0  0  0  0  0  0  0
  144.6384  134.6084  150.1332 C   0  0  0  0  0  0  0  0  0  0  0  0
  143.8113  133.7837  150.8100 N   0  0  0  0  0  0  0  0  0  0  0  0
  143.5551  134.0723  152.1035 C   0  0  0  0  0  0  0  0  0  0  0  0
  144.1025  135.1863  152.7706 C   0  0  0  0  0  0  0  0  0  0  0  0
  143.8082  135.4159  154.0733 F   0  0  0  0  0  0  0  0  0  0  0  0
  146.6036  139.0856  153.2150 N   0  0  0  0  0  0  0  0  0  0  0  0
  147.4268  140.2898  153.0572 C   0  0  1  0  0  0  0  0  0  0  0  0
  146.6278  141.5374  153.4804 C   0  0  0  0  0  0  0  0  0  0  0  0
  146.4105  141.6008  155.0016 C   0  0  0  0  0  0  0  0  0  0  0  0
  147.7429  141.5132  155.7615 C   0  0  0  0  0  0  0  0  0  0  0  0
  148.5322  140.2425  155.3824 C   0  0  2  0  0  0  0  0  0  0  0  0
  149.8629  140.1358  156.1554 C   0  0  0  0  0  0  0  0  0  0  0  0
  149.6443  139.8581  157.4410 F   0  0  0  0  0  0  0  0  0  0  0  0
  150.6211  139.1739  155.6296 F   0  0  0  0  0  0  0  0  0  0  0  0
  150.5321  141.2855  156.0706 F   0  0  0  0  0  0  0  0  0  0  0  0
  148.7482  140.1891  153.8530 C   0  0  0  0  0  0  0  0  0  0  0  0
  145.2037  137.2550  153.7164 H   0  0  0  0  0  0  0  0  0  0  0  0
  145.9015  136.3503  150.1036 H   0  0  0  0  0  0  0  0  0  0  0  0
  144.8347  134.3480  149.1037 H   0  0  0  0  0  0  0  0  0  0  0  0
  142.8953  133.3938  152.6236 H   0  0  0  0  0  0  0  0  0  0  0  0
  146.2118  138.9473  154.1354 H   0  0  0  0  0  0  0  0  0  0  0  0
  147.6641  140.4063  151.9983 H   0  0  0  0  0  0  0  0  0  0  0  0
  147.1685  142.4303  153.1636 H   0  0  0  0  0  0  0  0  0  0  0  0
  145.6678  141.5666  152.9632 H   0  0  0  0  0  0  0  0  0  0  0  0
  145.8967  142.5264  155.2622 H   0  0  0  0  0  0  0  0  0  0  0  0
  145.7554  140.7879  155.3170 H   0  0  0  0  0  0  0  0  0  0  0  0
  148.3419  142.3991  155.5469 H   0  0  0  0  0  0  0  0  0  0  0  0
  147.5470  141.5275  156.8339 H   0  0  0  0  0  0  0  0  0  0  0  0
  147.9263  139.3804  155.6658 H   0  0  0  0  0  0  0  0  0  0  0  0
  149.2836  139.2790  153.5823 H   0  0  0  0  0  0  0  0  0  0  0  0
  149.3981  141.0128  153.5557 H   0  0  0  0  0  0  0  0  0  0  0  0
  1  2  2  0  0  0  0
  2  3  1  0  0  0  0
  2 11  1  0  0  0  0
  3  4  1  0  0  0  0
  3 22  1  0  0  0  0
  4  9  1  0  0  0  0
  4  5  2  0  0  0  0
  5  6  1  0  0  0  0
  5 23  1  0  0  0  0
  6  7  2  0  0  0  0
  6 24  1  0  0  0  0
  7  8  1  0  0  0  0
  8  9  2  0  0  0  0
  8 25  1  0  0  0  0
  9 10  1  0  0  0  0
 11 12  1  0  0  0  0
 11 26  1  0  0  0  0
 12 21  1  0  0  0  0
 12 13  1  0  0  0  0
 12 27  1  0  0  0  0
 13 14  1  0  0  0  0
 13 28  1  0  0  0  0
 13 29  1  0  0  0  0
 14 15  1  0  0  0  0
 14 30  1  0  0  0  0
 14 31  1  0  0  0  0
 15 16  1  0  0  0  0
 15 32  1  0  0  0  0
 15 33  1  0  0  0  0
 16 17  1  0  0  0  0
 16 21  1  0  0  0  0
 16 34  1  0  0  0  0
 17 18  1  0  0  0  0
 17 19  1  0  0  0  0
 17 20  1  0  0  0  0
 21 35  1  0  0  0  0
 21 36  1  0  0  0  0
M  END
> <s_m_source_file>
AV-unprocessed.smi

> <i_m_source_file_index>
2321

> <i_lp_mmshare_version>
43012

> <i_f3d_flags>
0

> <s_epik_input>
RkMoRikoRilbQ0BASF0oW0NIMl0xKVtDSDJdW0NIMl1bQ0gyXVtDQEhdMVtOSF1DKD1PKVtOSF1jMltjSF1bY0hdbltjSF1jMkY=

> <s_epik_cmdline>
J2VwaWtfcHl0aG9uJywgJy1waCcsICc3LjAnLCAnLXRuJywgJzgnLCAnLW1hJywgJzIwMCcsICctbWV0YWxfYmluZGluZycsICctaW1hZScsICc8aW5maWxlLm1hZT4nLCAnLW9tYWUnLCAnPG91dGZpbGUubWFlPic=

> <r_epik_Ionization_Penalty>
0.00319438

> <r_epik_Ionization_Penalty_Charging>
0

> <r_epik_Ionization_Penalty_Neutral>
0.00319438

> <r_epik_State_Penalty>
0.00222511

> <r_epik_Charging_Adjusted_Penalty>
0.00222511

> <i_epik_Tot_Q>
0

> <i_epik_Tot_abs_Q>
0

> <r_epik_Metal_State_Penalty>
-0

> <b_epik_Metal_Only>
0

> <s_lp_Force_Field>
OPLS_2005

> <r_lp_Energy>
25.9848

> <b_lp_Chiralities_Consistent>
1

> <s_lp_Variant>
AV-unprocessed.smi:2321-4

> <Gold.Version>
5.8.1

> <Gold.Id.Protein>
6NUR|6NUR_protein|mol2

> <Gold.PLP.Fitness>
38.8085

> <Gold.PLP.PLP>
-30.6534

> <Gold.PLP.part.hbond>
-1.0000

> <Gold.PLP.part.metal>
0.0000

> <Gold.PLP.part.buried>
0.4488

> <Gold.PLP.part.nonpolar>
-30.8697

> <Gold.PLP.part.repulsive>
0.5568

> <Gold.PLP.ligand.clash>
0.0000

> <Gold.PLP.ligand.torsion>
0.2932

> <Gold.PLP.Chemscore.Hbond>
1.0000

> <Gold.PLP.Chemscore.CHOScore>
1.9068

> <Gold.PLP.Chemscore.Metal>
0.0000

> <Gold.Chemscore.Hbonds>
donor molecule, donor type, donor heavy atom, donor atom, acceptor molecule, acceptor atom, score
      P1  H  7954  7966       L1     1  1.00
      L1  C     6    24       P1  7921  0.96
      L1  C     8    25       P1 10957  0.58

> <Gold.PLP.Chemscore.Internal.Correction>
0.0211

> <Gold.Rescore>
     Score         DG    S(hbond)    S(metal)    S(lipo)     H(rot)  DE(clash)    DE(int)     intcor
     11.12     -13.08       0.88        0.00      61.57       1.00       0.67       1.28       ----

> <Gold.Chemscore.Fitness>
11.1250

> <Gold.Chemscore.DG>
-13.0762

> <Gold.Chemscore.ZeroCoef>
-5.4800

> <Gold.Chemscore.Hbond>
0.8838

> <Gold.Chemscore.Metal>
0.0000

> <Gold.Chemscore.Lipo>
61.5748

> <Gold.Chemscore.Internal_Hbond>
0.0000

> <Gold.Chemscore.DEClash>
0.6730

> <Gold.Chemscore.DEInternal>
1.2782

> <Gold.Chemscore.Rot>
1.0000

> <Gold.Chemscore.Internal.Correction>
   9.000000E+99

> <Gold.Chemscore.Hbonds>
donor molecule, donor type, donor heavy atom, donor atom, acceptor molecule, acceptor atom, score
      P1  H  7954  7966       L1     1  0.97

> <Gold.Chemscore.Hbond.Weighted>
-2.9520

> <Gold.Chemscore.Metal.Weighted>
-0.0000

> <Gold.Chemscore.Lipo.Weighted>
-7.2042

> <Gold.Chemscore.Internal_Hbond.Weighted>
0.0000

> <Gold.Chemscore.DEClash.Weighted>
0.6730

> <Gold.Chemscore.DEInternal.Weighted>
1.2782

> <Gold.Chemscore.Rot.Weighted>
2.5600

> <Gold.Chemscore.Internal.Correction.Weighted>
   9.000000E+99

> <Gold.Protein.RotatedTorsions>
[ 6907 6896 6895 6894 ] final  116.79 input  -60.11 | X-H torsion
[ 7974 7965 7964 7962 ] final   13.75 input  175.53 | X-H torsion
[ 8008 7997 7996 7995 ] final   52.19 input   59.86 | X-H torsion
[ 10167 10162 10161 10158 ] final   40.09 input  -65.29 | X-H torsion
[ 10718 10713 10712 10709 ] final   20.89 input   66.30 | X-H torsion
[ 10763 10752 10751 10750 ] final   86.10 input  -60.55 | X-H torsion
[ 11005 11000 10999 10996 ] final    6.33 input  -57.11 | X-H torsion

> <Gold.Protein.ActiveResidues>
 VAL166  LYS551  ARG553  GLY616  TRP617  ASP618  TYR619  PRO620  LYS621  CYS622 
 ASP623  PHE694  ASN695  SER759  ASP760  ASP761  ALA762  ILE779  LEU786  VAL792 
 PHE793  MET794  SER795  GLU796  ALA797  LYS798  CYS799  TRP800  GLU811  SER814 

> <Gold.Protein.RotatedAtoms>
  152.4655  133.7913  159.6903 H   0  0  0  0  0  0  0  0  0  0  0  0  # atno 6907 bound_to 6896
  150.8617  133.7623  159.2996 H   0  0  0  0  0  0  0  0  0  0  0  0  # atno 6908 bound_to 6896
  151.5187  135.1070  159.9924 H   0  0  0  0  0  0  0  0  0  0  0  0  # atno 6909 bound_to 6896
  146.2322  139.9142  142.8519 H   0  0  0  0  0  0  0  0  0  0  0  0  # atno 7974 bound_to 7965
  155.4476  140.3457  155.4297 H   0  0  0  0  0  0  0  0  0  0  0  0  # atno 8008 bound_to 7997
  156.1240  140.1495  156.9193 H   0  0  0  0  0  0  0  0  0  0  0  0  # atno 8009 bound_to 7997
  154.4844  140.0860  156.7432 H   0  0  0  0  0  0  0  0  0  0  0  0  # atno 8010 bound_to 7997
  140.3776  144.2023  150.6131 H   0  0  0  0  0  0  0  0  0  0  0  0  # atno 10167 bound_to 10162
  157.1308  130.6590  149.5951 H   0  0  0  0  0  0  0  0  0  0  0  0  # atno 10718 bound_to 10713
  153.1538  135.4593  154.9675 H   0  0  0  0  0  0  0  0  0  0  0  0  # atno 10763 bound_to 10752
  154.7845  135.3199  154.7918 H   0  0  0  0  0  0  0  0  0  0  0  0  # atno 10764 bound_to 10752
  153.8419  135.6929  153.4856 H   0  0  0  0  0  0  0  0  0  0  0  0  # atno 10765 bound_to 10752
  140.5607  134.0195  155.7971 H   0  0  0  0  0  0  0  0  0  0  0  0  # atno 11005 bound_to 11000
  145.2199  140.9931  143.4051 LP  0  0  0  0  0  0  0  0  0  0  0  0  # atno 17320 bound_to 7965
  144.9619  139.3971  143.6352 LP  0  0  0  0  0  0  0  0  0  0  0  0  # atno 17321 bound_to 7965
  140.4970  143.2329  151.8734 LP  0  0  0  0  0  0  0  0  0  0  0  0  # atno 17342 bound_to 10162
  139.4798  144.5102  151.8943 LP  0  0  0  0  0  0  0  0  0  0  0  0  # atno 17343 bound_to 10162
  155.9808  130.4812  150.6794 LP  0  0  0  0  0  0  0  0  0  0  0  0  # atno 17370 bound_to 10713
  157.4394  131.0859  151.0959 LP  0  0  0  0  0  0  0  0  0  0  0  0  # atno 17371 bound_to 10713
  141.1116  133.9607  157.2900 LP  0  0  0  0  0  0  0  0  0  0  0  0  # atno 17394 bound_to 11000
  139.9409  135.0191  156.8705 LP  0  0  0  0  0  0  0  0  0  0  0  0  # atno 17395 bound_to 11000

$$$$
