AV-unprocessed.smi:509|AV-procd|sdf|2761|dock8
  -GOLD-   2262023223D 1   1.00000     0.00000
 Structure written by MMmdl.
 45 47  0  0  0  0  0  0  0  0  1 V2000
  150.6985  136.2296  154.7602 C   0  0  0  0  0  0  0  0  0  0  0  0
  151.7142  136.6220  155.6652 O   0  0  0  0  0  0  0  0  0  0  0  0
  151.3440  137.7440  156.4496 C   0  0  0  0  0  0  0  0  0  0  0  0
  151.3175  138.9992  155.5667 C   0  0  0  0  0  0  0  0  0  0  0  0
  150.8528  140.1738  156.3034 N   0  0  0  0  0  0  0  0  0  0  0  0
  149.7986  140.9932  156.0331 C   0  0  0  0  0  0  0  0  0  0  0  0
  148.9344  140.7780  154.9590 N   0  0  0  0  0  0  0  0  0  0  0  0
  148.4722  141.7657  153.9863 C   0  0  0  0  0  0  0  0  0  0  0  0
  146.9460  141.6735  153.7912 C   0  0  0  0  0  0  0  0  0  0  0  0
  146.6027  140.3519  153.2778 N   0  0  0  0  0  0  0  0  0  0  0  0
  147.0491  139.3480  154.2381 C   0  0  0  0  0  0  0  0  0  0  0  0
  148.5732  139.4604  154.4441 C   0  0  0  0  0  0  0  0  0  0  0  0
  149.6885  142.0415  156.8527 N   0  0  0  0  0  0  0  0  0  0  0  0
  150.7407  141.8623  157.7362 C   0  0  0  0  0  0  0  0  0  0  0  0
  151.4530  140.7547  157.4243 C   0  0  0  0  0  0  0  0  0  0  0  0
  152.6463  140.3426  158.1761 C   0  0  0  0  0  0  0  0  0  0  0  0
  153.2962  139.3480  157.8521 O   0  0  0  0  0  0  0  0  0  0  0  0
  152.9463  141.1568  159.2366 N   0  0  0  0  0  0  0  0  0  0  0  0
  154.1162  140.8199  160.0693 C   0  0  0  0  0  0  0  0  0  0  0  0
  152.2373  142.2888  159.5982 C   0  0  0  0  0  0  0  0  0  0  0  0
  152.5682  142.9641  160.5773 O   0  0  0  0  0  0  0  0  0  0  0  0
  151.1515  142.6499  158.8418 N   0  0  0  0  0  0  0  0  0  0  0  0
  150.3831  143.8500  159.1852 C   0  0  0  0  0  0  0  0  0  0  0  0
  151.0356  135.3679  154.1842 H   0  0  0  0  0  0  0  0  0  0  0  0
  150.4629  137.0322  154.0601 H   0  0  0  0  0  0  0  0  0  0  0  0
  149.7878  135.9459  155.2891 H   0  0  0  0  0  0  0  0  0  0  0  0
  150.3594  137.5823  156.8902 H   0  0  0  0  0  0  0  0  0  0  0  0
  152.0509  137.8757  157.2701 H   0  0  0  0  0  0  0  0  0  0  0  0
  152.3085  139.1705  155.1603 H   0  0  0  0  0  0  0  0  0  0  0  0
  150.6806  138.8446  154.6971 H   0  0  0  0  0  0  0  0  0  0  0  0
  148.7633  142.7691  154.2944 H   0  0  0  0  0  0  0  0  0  0  0  0
  148.9802  141.5938  153.0362 H   0  0  0  0  0  0  0  0  0  0  0  0
  146.4189  141.8587  154.7282 H   0  0  0  0  0  0  0  0  0  0  0  0
  146.6114  142.4271  153.0783 H   0  0  0  0  0  0  0  0  0  0  0  0
  145.6024  140.2836  153.1563 H   0  0  0  0  0  0  0  0  0  0  0  0
  146.5202  139.4767  155.1832 H   0  0  0  0  0  0  0  0  0  0  0  0
  146.7933  138.3585  153.8594 H   0  0  0  0  0  0  0  0  0  0  0  0
  149.1040  139.2721  153.5097 H   0  0  0  0  0  0  0  0  0  0  0  0
  148.9001  138.6948  155.1485 H   0  0  0  0  0  0  0  0  0  0  0  0
  153.8140  140.6687  161.1069 H   0  0  0  0  0  0  0  0  0  0  0  0
  154.8446  141.6320  160.0473 H   0  0  0  0  0  0  0  0  0  0  0  0
  154.6490  139.9168  159.7703 H   0  0  0  0  0  0  0  0  0  0  0  0
  149.8378  143.6948  160.1166 H   0  0  0  0  0  0  0  0  0  0  0  0
  149.6566  144.1169  158.4182 H   0  0  0  0  0  0  0  0  0  0  0  0
  151.0393  144.7120  159.3136 H   0  0  0  0  0  0  0  0  0  0  0  0
  1  2  1  0  0  0  0
  1 24  1  0  0  0  0
  1 25  1  0  0  0  0
  1 26  1  0  0  0  0
  2  3  1  0  0  0  0
  3  4  1  0  0  0  0
  3 27  1  0  0  0  0
  3 28  1  0  0  0  0
  4  5  1  0  0  0  0
  4 29  1  0  0  0  0
  4 30  1  0  0  0  0
  5 15  1  0  0  0  0
  5  6  1  0  0  0  0
  6  7  1  0  0  0  0
  6 13  2  0  0  0  0
  7 12  1  0  0  0  0
  7  8  1  0  0  0  0
  8  9  1  0  0  0  0
  8 31  1  0  0  0  0
  8 32  1  0  0  0  0
  9 10  1  0  0  0  0
  9 33  1  0  0  0  0
  9 34  1  0  0  0  0
 10 11  1  0  0  0  0
 10 35  1  0  0  0  0
 11 12  1  0  0  0  0
 11 36  1  0  0  0  0
 11 37  1  0  0  0  0
 12 38  1  0  0  0  0
 12 39  1  0  0  0  0
 13 14  1  0  0  0  0
 14 22  1  0  0  0  0
 14 15  2  0  0  0  0
 15 16  1  0  0  0  0
 16 17  2  0  0  0  0
 16 18  1  0  0  0  0
 18 19  1  0  0  0  0
 18 20  1  0  0  0  0
 19 40  1  0  0  0  0
 19 41  1  0  0  0  0
 19 42  1  0  0  0  0
 20 21  2  0  0  0  0
 20 22  1  0  0  0  0
 22 23  1  0  0  0  0
 23 43  1  0  0  0  0
 23 44  1  0  0  0  0
 23 45  1  0  0  0  0
M  END
> <s_m_source_file>
AV-unprocessed.smi

> <i_m_source_file_index>
509

> <i_lp_mmshare_version>
43012

> <i_f3d_flags>
0

> <s_epik_input>
W0NIM11uMWMoPU8pbihbQ0gzXSljKD1PKWMoYzEyKW4oW0NIMl1bQ0gyXU9bQ0gzXSljKG4yKU4zW0NIMl1bQ0gyXVtOSF1bQ0gyXVtDSDJdMw==

> <s_epik_cmdline>
J2VwaWtfcHl0aG9uJywgJy1waCcsICc3LjAnLCAnLXRuJywgJzgnLCAnLW1hJywgJzIwMCcsICctbWV0YWxfYmluZGluZycsICctaW1hZScsICc8aW5maWxlLm1hZT4nLCAnLW9tYWUnLCAnPG91dGZpbGUubWFlPic=

> <r_epik_Ionization_Penalty>
2.51424

> <r_epik_Ionization_Penalty_Charging>
1.27827e-08

> <r_epik_Ionization_Penalty_Neutral>
2.51424

> <r_epik_State_Penalty>
2.67993

> <r_epik_Charging_Adjusted_Penalty>
2.67993

> <i_epik_Tot_Q>
0

> <i_epik_Tot_abs_Q>
0

> <r_epik_Metal_State_Penalty>
2.67967

> <b_epik_Metal_Only>
0

> <s_lp_Force_Field>
OPLS_2005

> <r_lp_Energy>
54.3442

> <b_lp_Chiralities_Consistent>
1

> <s_lp_Variant>
AV-unprocessed.smi:509-2

> <Gold.Version>
5.8.1

> <Gold.Id.Protein>
6NUR|6NUR_protein|mol2

> <Gold.PLP.Fitness>
45.8536

> <Gold.PLP.PLP>
-37.7780

> <Gold.PLP.part.hbond>
-3.0000

> <Gold.PLP.part.metal>
0.0000

> <Gold.PLP.part.buried>
-3.8267

> <Gold.PLP.part.nonpolar>
-31.7955

> <Gold.PLP.part.repulsive>
0.8368

> <Gold.PLP.ligand.clash>
0.0000

> <Gold.PLP.ligand.torsion>
0.6282

> <Gold.PLP.Chemscore.Hbond>
3.0000

> <Gold.PLP.Chemscore.CHOScore>
0.0000

> <Gold.PLP.Chemscore.Metal>
0.0000

> <Gold.Chemscore.Hbonds>
donor molecule, donor type, donor heavy atom, donor atom, acceptor molecule, acceptor atom, score
      L1  H    10    35       P1 10175  0.96
      P1  H  7997  8010       L1    17  1.00
      P1  H 10752 10763       L1     2  0.95

> <Gold.PLP.Chemscore.Internal.Correction>
0.3319

> <Gold.Rescore>
     Score         DG    S(hbond)    S(metal)    S(lipo)     H(rot)  DE(clash)    DE(int)     intcor
     13.84     -16.77       2.44        0.00      59.61       1.49       0.03       2.91       ----

> <Gold.Chemscore.Fitness>
13.8389

> <Gold.Chemscore.DG>
-16.7731

> <Gold.Chemscore.ZeroCoef>
-5.4800

> <Gold.Chemscore.Hbond>
2.4361

> <Gold.Chemscore.Metal>
0.0000

> <Gold.Chemscore.Lipo>
59.6133

> <Gold.Chemscore.Internal_Hbond>
0.0000

> <Gold.Chemscore.DEClash>
0.0263

> <Gold.Chemscore.DEInternal>
2.9079

> <Gold.Chemscore.Rot>
1.4915

> <Gold.Chemscore.Internal.Correction>
   9.000000E+99

> <Gold.Chemscore.Hbonds>
donor molecule, donor type, donor heavy atom, donor atom, acceptor molecule, acceptor atom, score
      L1  H    10    35       P1 10175  0.89
      P1  H  7997  8010       L1    17  0.30
      P1  H 10752 10763       L1     2  0.21

> <Gold.Chemscore.Hbond.Weighted>
-8.1367

> <Gold.Chemscore.Metal.Weighted>
-0.0000

> <Gold.Chemscore.Lipo.Weighted>
-6.9748

> <Gold.Chemscore.Internal_Hbond.Weighted>
0.0000

> <Gold.Chemscore.DEClash.Weighted>
0.0263

> <Gold.Chemscore.DEInternal.Weighted>
2.9079

> <Gold.Chemscore.Rot.Weighted>
3.8183

> <Gold.Chemscore.Internal.Correction.Weighted>
   9.000000E+99

> <Gold.Protein.RotatedTorsions>
[ 6907 6896 6895 6894 ] final -150.18 input  -60.11 | X-H torsion
[ 7974 7965 7964 7962 ] final   32.79 input  175.53 | X-H torsion
[ 8008 7997 7996 7995 ] final   49.14 input   59.86 | X-H torsion
[ 10167 10162 10161 10158 ] final -134.21 input  -65.29 | X-H torsion
[ 10718 10713 10712 10709 ] final   77.79 input   66.30 | X-H torsion
[ 10763 10752 10751 10750 ] final   90.12 input  -60.55 | X-H torsion
[ 11005 11000 10999 10996 ] final  137.14 input  -57.11 | X-H torsion

> <Gold.Protein.ActiveResidues>
 VAL166  LYS551  ARG553  GLY616  TRP617  ASP618  TYR619  PRO620  LYS621  CYS622 
 ASP623  PHE694  ASN695  SER759  ASP760  ASP761  ALA762  ILE779  LEU786  VAL792 
 PHE793  MET794  SER795  GLU796  ALA797  LYS798  CYS799  TRP800  GLU811  SER814 

> <Gold.Protein.RotatedAtoms>
  151.1949  133.4645  159.2595 H   0  0  0  0  0  0  0  0  0  0  0  0  # atno 6907 bound_to 6896
  151.1127  135.0035  159.8511 H   0  0  0  0  0  0  0  0  0  0  0  0  # atno 6908 bound_to 6896
  152.5451  134.1866  159.8710 H   0  0  0  0  0  0  0  0  0  0  0  0  # atno 6909 bound_to 6896
  146.1463  139.6480  142.9129 H   0  0  0  0  0  0  0  0  0  0  0  0  # atno 7974 bound_to 7965
  155.3973  140.3436  155.4255 H   0  0  0  0  0  0  0  0  0  0  0  0  # atno 8008 bound_to 7997
  156.1524  140.1575  156.8781 H   0  0  0  0  0  0  0  0  0  0  0  0  # atno 8009 bound_to 7997
  154.5064  140.0801  156.7884 H   0  0  0  0  0  0  0  0  0  0  0  0  # atno 8010 bound_to 7997
  139.8903  143.6730  152.2613 H   0  0  0  0  0  0  0  0  0  0  0  0  # atno 10167 bound_to 10162
  157.6722  130.9838  150.1692 H   0  0  0  0  0  0  0  0  0  0  0  0  # atno 10718 bound_to 10713
  153.1942  135.4445  155.0187 H   0  0  0  0  0  0  0  0  0  0  0  0  # atno 10763 bound_to 10752
  154.8109  135.3294  154.7310 H   0  0  0  0  0  0  0  0  0  0  0  0  # atno 10764 bound_to 10752
  153.7761  135.6981  153.4952 H   0  0  0  0  0  0  0  0  0  0  0  0  # atno 10765 bound_to 10752
  140.0093  134.9445  157.0244 H   0  0  0  0  0  0  0  0  0  0  0  0  # atno 11005 bound_to 11000
  145.4929  141.0438  143.2583 LP  0  0  0  0  0  0  0  0  0  0  0  0  # atno 17320 bound_to 7965
  144.7851  139.6445  143.7138 LP  0  0  0  0  0  0  0  0  0  0  0  0  # atno 17321 bound_to 7965
  139.7116  144.7619  151.1103 LP  0  0  0  0  0  0  0  0  0  0  0  0  # atno 17342 bound_to 10162
  140.7728  143.5324  150.9408 LP  0  0  0  0  0  0  0  0  0  0  0  0  # atno 17343 bound_to 10162
  156.2450  130.3694  149.8295 LP  0  0  0  0  0  0  0  0  0  0  0  0  # atno 17370 bound_to 10713
  156.6084  130.8576  151.3448 LP  0  0  0  0  0  0  0  0  0  0  0  0  # atno 17371 bound_to 10713
  140.4583  134.1511  155.7188 LP  0  0  0  0  0  0  0  0  0  0  0  0  # atno 17394 bound_to 11000
  141.1700  133.8628  157.1600 LP  0  0  0  0  0  0  0  0  0  0  0  0  # atno 17395 bound_to 11000

$$$$
