AV-unprocessed.smi:6|AV-procd|sdf|41|dock8
  -GOLD-   2262015153D 1   1.00000     0.00000
 Structure written by MMmdl.
 36 37  0  0  0  0  0  0  0  0  2 V2000
  153.3500  142.3370  160.3885 C   0  0  0  0  0  0  0  0  0  0  0  0
  152.8567  143.1348  159.1712 C   0  0  0  0  0  0  0  0  0  0  0  0
  152.3079  144.5208  159.5434 C   0  0  0  0  0  0  0  0  0  0  0  0
  151.8682  142.3379  158.3293 C   0  0  0  0  0  0  0  0  0  0  0  0
  150.6862  142.9118  158.0811 N   0  0  0  0  0  0  0  0  0  0  0  0
  149.8088  142.2046  157.3371 C   0  0  0  0  0  0  0  0  0  0  0  0
  150.1179  140.9217  156.8427 C   0  0  0  0  0  0  0  0  0  0  0  0
  151.3915  140.4103  157.1665 C   0  0  0  0  0  0  0  0  0  0  0  0
  151.7621  139.1426  156.6982 N   0  0  0  0  0  0  0  0  0  0  0  0
  150.9068  138.4555  155.7385 C   0  0  0  0  0  0  0  0  0  0  0  0
  150.6114  137.0158  156.1304 C   0  0  0  0  0  0  0  0  0  0  0  0
  150.2271  136.0894  155.2275 C   0  0  0  0  0  0  0  0  0  0  0  0
  149.9790  134.7529  155.5799 N   0  0  0  0  0  0  0  0  0  0  0  0
  149.5574  133.8238  154.5287 C   0  0  0  0  0  0  0  0  0  0  0  0
  150.1348  134.3434  156.8709 C   0  0  0  0  0  0  0  0  0  0  0  0
  149.9119  133.1648  157.1506 O   0  0  0  0  0  0  0  0  0  0  0  0
  150.5339  135.2589  157.8056 N   0  5  0  0  0  0  0  0  0  0  0  0
  150.7876  136.5693  157.5173 C   0  0  0  0  0  0  0  0  0  0  0  0
  151.1531  137.3712  158.3764 O   0  0  0  0  0  0  0  0  0  0  0  0
  152.2637  141.1300  157.9115 N   0  0  0  0  0  0  0  0  0  0  0  0
  153.8019  141.3935  160.0814 H   0  0  0  0  0  0  0  0  0  0  0  0
  152.5324  142.1080  161.0731 H   0  0  0  0  0  0  0  0  0  0  0  0
  154.1009  142.8972  160.9458 H   0  0  0  0  0  0  0  0  0  0  0  0
  153.7365  143.3137  158.5504 H   0  0  0  0  0  0  0  0  0  0  0  0
  152.0371  145.0865  158.6515 H   0  0  0  0  0  0  0  0  0  0  0  0
  153.0497  145.1025  160.0911 H   0  0  0  0  0  0  0  0  0  0  0  0
  151.4194  144.4425  160.1710 H   0  0  0  0  0  0  0  0  0  0  0  0
  148.8538  142.6657  157.1332 H   0  0  0  0  0  0  0  0  0  0  0  0
  149.4123  140.3617  156.2469 H   0  0  0  0  0  0  0  0  0  0  0  0
  152.7488  138.9286  156.6677 H   0  0  0  0  0  0  0  0  0  0  0  0
  149.9614  138.9920  155.6478 H   0  0  0  0  0  0  0  0  0  0  0  0
  151.3779  138.4712  154.7548 H   0  0  0  0  0  0  0  0  0  0  0  0
  150.0872  136.3182  154.1812 H   0  0  0  0  0  0  0  0  0  0  0  0
  148.5829  133.3951  154.7667 H   0  0  0  0  0  0  0  0  0  0  0  0
  150.2739  133.0069  154.4317 H   0  0  0  0  0  0  0  0  0  0  0  0
  149.4736  134.3034  153.5531 H   0  0  0  0  0  0  0  0  0  0  0  0
  1  2  1  0  0  0  0
  1 21  1  0  0  0  0
  1 22  1  0  0  0  0
  1 23  1  0  0  0  0
  2  3  1  0  0  0  0
  2  4  1  0  0  0  0
  2 24  1  0  0  0  0
  3 25  1  0  0  0  0
  3 26  1  0  0  0  0
  3 27  1  0  0  0  0
  4 20  1  0  0  0  0
  4  5  2  0  0  0  0
  5  6  1  0  0  0  0
  6  7  2  0  0  0  0
  6 28  1  0  0  0  0
  7  8  1  0  0  0  0
  7 29  1  0  0  0  0
  8  9  1  0  0  0  0
  8 20  2  0  0  0  0
  9 10  1  0  0  0  0
  9 30  1  0  0  0  0
 10 11  1  0  0  0  0
 10 31  1  0  0  0  0
 10 32  1  0  0  0  0
 11 18  1  0  0  0  0
 11 12  2  0  0  0  0
 12 13  1  0  0  0  0
 12 33  1  0  0  0  0
 13 14  1  0  0  0  0
 13 15  1  0  0  0  0
 14 34  1  0  0  0  0
 14 35  1  0  0  0  0
 14 36  1  0  0  0  0
 15 16  2  0  0  0  0
 15 17  1  0  0  0  0
 17 18  1  0  0  0  0
 18 19  2  0  0  0  0
M  CHG  1  17  -1
M  END
> <s_m_source_file>
AV-unprocessed.smi

> <i_m_source_file_index>
6

> <i_lp_mmshare_version>
43012

> <i_f3d_flags>
0

> <s_epik_input>
W0NIM11bQ0hdKFtDSDNdKWMxbltjSF1bY0hdYyhuMSlbTkhdW0NIMl1jMltjSF1uKFtDSDNdKWMoPU8pW25IXWMyPU8=

> <s_epik_cmdline>
J2VwaWtfcHl0aG9uJywgJy1waCcsICc3LjAnLCAnLXRuJywgJzgnLCAnLW1hJywgJzIwMCcsICctbWV0YWxfYmluZGluZycsICctaW1hZScsICc8aW5maWxlLm1hZT4nLCAnLW9tYWUnLCAnPG91dGZpbGUubWFlPic=

> <r_lp_tautomer_probability>
0.999537

> <r_epik_Ionization_Penalty>
4.10508

> <r_epik_Ionization_Penalty_Charging>
6.01221e-07

> <r_epik_Ionization_Penalty_Neutral>
4.10508

> <r_epik_State_Penalty>
4.24889

> <r_epik_Charging_Adjusted_Penalty>
4.24889

> <i_epik_Tot_Q>
-1

> <i_epik_Tot_abs_Q>
1

> <r_epik_Metal_State_Penalty>
1.04429

> <b_epik_Metal_Only>
1

> <s_lp_Force_Field>
OPLS_2005

> <r_lp_Energy>
13.2658

> <b_lp_Chiralities_Consistent>
1

> <s_lp_Variant>
AV-unprocessed.smi:6-3

> <Gold.Version>
5.8.1

> <Gold.Id.Protein>
6NUR|6NUR_protein|mol2

> <Gold.PLP.Fitness>
39.1411

> <Gold.PLP.PLP>
-29.2891

> <Gold.PLP.part.hbond>
-1.0000

> <Gold.PLP.part.metal>
0.0000

> <Gold.PLP.part.buried>
-4.0516

> <Gold.PLP.part.nonpolar>
-25.0589

> <Gold.PLP.part.repulsive>
0.1971

> <Gold.PLP.ligand.clash>
0.0000

> <Gold.PLP.ligand.torsion>
0.4040

> <Gold.PLP.Chemscore.Hbond>
1.6320

> <Gold.PLP.Chemscore.CHOScore>
1.8951

> <Gold.PLP.Chemscore.Metal>
0.0000

> <Gold.Chemscore.Hbonds>
donor molecule, donor type, donor heavy atom, donor atom, acceptor molecule, acceptor atom, score
      P1  H  6896  6908       L1    17  1.09
      L1  C     6    28       P1  8028  0.74
      L1  C    12    33       P1  7948  0.93
      L1  C    12    33       P1  7949  0.01

> <Gold.PLP.Chemscore.Internal.Correction>
0.0786

> <Gold.Rescore>
     Score         DG    S(hbond)    S(metal)    S(lipo)     H(rot)  DE(clash)    DE(int)     intcor
      9.08     -11.29       0.69        0.00      65.50       1.62       0.01       2.20       ----

> <Gold.Chemscore.Fitness>
9.0818

> <Gold.Chemscore.DG>
-11.2859

> <Gold.Chemscore.ZeroCoef>
-5.4800

> <Gold.Chemscore.Hbond>
0.6851

> <Gold.Chemscore.Metal>
0.0000

> <Gold.Chemscore.Lipo>
65.5044

> <Gold.Chemscore.Internal_Hbond>
0.0000

> <Gold.Chemscore.DEClash>
0.0073

> <Gold.Chemscore.DEInternal>
2.1968

> <Gold.Chemscore.Rot>
1.6196

> <Gold.Chemscore.Internal.Correction>
   9.000000E+99

> <Gold.Chemscore.Hbonds>
donor molecule, donor type, donor heavy atom, donor atom, acceptor molecule, acceptor atom, score
      P1  H  6896  6908       L1    17  0.44

> <Gold.Chemscore.Hbond.Weighted>
-2.2882

> <Gold.Chemscore.Metal.Weighted>
-0.0000

> <Gold.Chemscore.Lipo.Weighted>
-7.6640

> <Gold.Chemscore.Internal_Hbond.Weighted>
0.0000

> <Gold.Chemscore.DEClash.Weighted>
0.0073

> <Gold.Chemscore.DEInternal.Weighted>
2.1968

> <Gold.Chemscore.Rot.Weighted>
4.1463

> <Gold.Chemscore.Internal.Correction.Weighted>
   9.000000E+99

> <Gold.Protein.RotatedTorsions>
[ 6907 6896 6895 6894 ] final  163.96 input  -60.11 | X-H torsion
[ 7974 7965 7964 7962 ] final   74.03 input  175.53 | X-H torsion
[ 8008 7997 7996 7995 ] final  102.65 input   59.86 | X-H torsion
[ 10167 10162 10161 10158 ] final    1.36 input  -65.29 | X-H torsion
[ 10718 10713 10712 10709 ] final  -79.88 input   66.30 | X-H torsion
[ 10763 10752 10751 10750 ] final  123.53 input  -60.55 | X-H torsion
[ 11005 11000 10999 10996 ] final -157.30 input  -57.11 | X-H torsion

> <Gold.Protein.ActiveResidues>
 VAL166  LYS551  ARG553  GLY616  TRP617  ASP618  TYR619  PRO620  LYS621  CYS622 
 ASP623  PHE694  ASN695  SER759  ASP760  ASP761  ALA762  ILE779  LEU786  VAL792 
 PHE793  MET794  SER795  GLU796  ALA797  LYS798  CYS799  TRP800  GLU811  SER814 

> <Gold.Protein.RotatedAtoms>
  151.9172  133.3576  159.3884 H   0  0  0  0  0  0  0  0  0  0  0  0  # atno 6907 bound_to 6896
  150.7045  134.4671  159.5417 H   0  0  0  0  0  0  0  0  0  0  0  0  # atno 6908 bound_to 6896
  152.2288  134.8342  160.0527 H   0  0  0  0  0  0  0  0  0  0  0  0  # atno 6909 bound_to 6896
  145.7334  139.2693  143.1528 H   0  0  0  0  0  0  0  0  0  0  0  0  # atno 7974 bound_to 7965
  156.1413  140.3178  155.8499 H   0  0  0  0  0  0  0  0  0  0  0  0  # atno 8008 bound_to 7997
  155.4149  140.0508  157.3046 H   0  0  0  0  0  0  0  0  0  0  0  0  # atno 8009 bound_to 7997
  154.4978  140.2117  155.9422 H   0  0  0  0  0  0  0  0  0  0  0  0  # atno 8010 bound_to 7997
  140.6686  143.7111  150.7877 H   0  0  0  0  0  0  0  0  0  0  0  0  # atno 10167 bound_to 10162
  156.0082  130.4558  150.3715 H   0  0  0  0  0  0  0  0  0  0  0  0  # atno 10718 bound_to 10713
  153.6469  135.3369  155.3088 H   0  0  0  0  0  0  0  0  0  0  0  0  # atno 10763 bound_to 10752
  154.8546  135.4332  154.1945 H   0  0  0  0  0  0  0  0  0  0  0  0  # atno 10764 bound_to 10752
  153.2878  135.7014  153.7397 H   0  0  0  0  0  0  0  0  0  0  0  0  # atno 10765 bound_to 10752
  140.6661  134.4298  157.5233 H   0  0  0  0  0  0  0  0  0  0  0  0  # atno 11005 bound_to 11000
  146.0516  140.8064  142.9779 LP  0  0  0  0  0  0  0  0  0  0  0  0  # atno 17320 bound_to 7965
  144.6887  140.3061  143.7255 LP  0  0  0  0  0  0  0  0  0  0  0  0  # atno 17321 bound_to 7965
  140.0792  143.4985  152.2539 LP  0  0  0  0  0  0  0  0  0  0  0  0  # atno 17342 bound_to 10162
  139.5945  144.7562  151.3320 LP  0  0  0  0  0  0  0  0  0  0  0  0  # atno 17343 bound_to 10162
  157.1800  131.0390  151.2753 LP  0  0  0  0  0  0  0  0  0  0  0  0  # atno 17370 bound_to 10713
  157.4154  130.7408  149.6872 LP  0  0  0  0  0  0  0  0  0  0  0  0  # atno 17371 bound_to 10713
  139.8997  134.8585  156.1950 LP  0  0  0  0  0  0  0  0  0  0  0  0  # atno 17394 bound_to 11000
  141.0428  133.6929  156.1629 LP  0  0  0  0  0  0  0  0  0  0  0  0  # atno 17395 bound_to 11000

$$$$
