AV-unprocessed.smi:2562|AV-procd|sdf|10050|dock1
  -GOLD-   2272014 93D 1   1.00000     0.00000
 Structure written by MMmdl.
 31 32  0  0  0  0  0  0  0  0  2 V2000
  152.5780  143.1199  160.0273 C   0  0  0  0  0  0  0  0  0  0  0  0
  152.5497  144.2455  158.9878 C   0  0  0  0  0  0  0  0  0  0  0  0
  151.3319  144.1550  158.0572 C   0  0  0  0  0  0  0  0  0  0  0  0
  151.2334  142.8344  157.3667 C   0  0  0  0  0  0  0  0  0  0  0  0
  151.9472  141.7507  157.6857 N   0  0  0  0  0  0  0  0  0  0  0  0
  151.5520  140.7721  156.7898 N   0  0  0  0  0  0  0  0  0  0  0  0
  150.6401  141.3541  156.0038 C   0  0  0  0  0  0  0  0  0  0  0  0
  149.9167  140.6786  154.8818 C   0  0  2  0  0  0  0  0  0  0  0  0
  148.7450  141.5226  154.3440 C   0  0  0  0  0  0  0  0  0  0  0  0
  148.0097  140.7650  153.3124 N   0  3  0  0  0  0  0  0  0  0  0  0
  147.5690  139.4502  153.8189 C   0  0  0  0  0  0  0  0  0  0  0  0
  148.7703  138.6692  154.3804 C   0  0  0  0  0  0  0  0  0  0  0  0
  149.4185  139.4416  155.3856 O   0  0  0  0  0  0  0  0  0  0  0  0
  150.4101  142.6352  156.3273 N   0  0  0  0  0  0  0  0  0  0  0  0
  149.7763  143.2917  155.8951 H   0  0  0  0  0  0  0  0  0  0  0  0
  153.4534  143.2074  160.6711 H   0  0  0  0  0  0  0  0  0  0  0  0
  152.6150  142.1421  159.5464 H   0  0  0  0  0  0  0  0  0  0  0  0
  151.6929  143.1483  160.6633 H   0  0  0  0  0  0  0  0  0  0  0  0
  152.5496  145.2086  159.4998 H   0  0  0  0  0  0  0  0  0  0  0  0
  153.4655  144.2105  158.3962 H   0  0  0  0  0  0  0  0  0  0  0  0
  150.4151  144.3165  158.6258 H   0  0  0  0  0  0  0  0  0  0  0  0
  151.3748  144.9453  157.3064 H   0  0  0  0  0  0  0  0  0  0  0  0
  150.6313  140.4774  154.0812 H   0  0  0  0  0  0  0  0  0  0  0  0
  148.0578  141.7816  155.1509 H   0  0  0  0  0  0  0  0  0  0  0  0
  149.1073  142.4578  153.9164 H   0  0  0  0  0  0  0  0  0  0  0  0
  147.2045  141.2971  153.0140 H   0  0  0  0  0  0  0  0  0  0  0  0
  146.8192  139.5984  154.5972 H   0  0  0  0  0  0  0  0  0  0  0  0
  147.0911  138.8929  153.0132 H   0  0  0  0  0  0  0  0  0  0  0  0
  148.4361  137.7282  154.8176 H   0  0  0  0  0  0  0  0  0  0  0  0
  149.4769  138.4188  153.5874 H   0  0  0  0  0  0  0  0  0  0  0  0
  148.6201  140.6186  152.5210 H   0  0  0  0  0  0  0  0  0  0  0  0
  1  2  1  0  0  0  0
  1 16  1  0  0  0  0
  1 17  1  0  0  0  0
  1 18  1  0  0  0  0
  2  3  1  0  0  0  0
  2 19  1  0  0  0  0
  2 20  1  0  0  0  0
  3 21  1  0  0  0  0
  3 22  1  0  0  0  0
  3  4  1  0  0  0  0
  4  5  2  0  0  0  0
  4 14  1  0  0  0  0
  5  6  1  0  0  0  0
  6  7  2  0  0  0  0
  7 14  1  0  0  0  0
  7  8  1  0  0  0  0
  8 13  1  0  0  0  0
  8  9  1  0  0  0  0
  8 23  1  0  0  0  0
  9 10  1  0  0  0  0
  9 24  1  0  0  0  0
  9 25  1  0  0  0  0
 10 11  1  0  0  0  0
 10 26  1  0  0  0  0
 10 31  1  0  0  0  0
 11 12  1  0  0  0  0
 11 27  1  0  0  0  0
 11 28  1  0  0  0  0
 12 13  1  0  0  0  0
 12 29  1  0  0  0  0
 12 30  1  0  0  0  0
 14 15  1  0  0  0  0
M  CHG  1  10   1
M  END
> <s_m_source_file>
AV-unprocessed.smi

> <i_m_source_file_index>
2562

> <i_lp_mmshare_version>
43012

> <i_f3d_flags>
0

> <s_epik_input>
W0NIM11bQ0gyXVtDSDJdYzFuW25IXWMobjEpW0NAQEhdMltDSDJdW05IXVtDSDJdW0NIMl1PMg==

> <s_epik_cmdline>
J2VwaWtfcHl0aG9uJywgJy1waCcsICc3LjAnLCAnLXRuJywgJzgnLCAnLW1hJywgJzIwMCcsICctbWV0YWxfYmluZGluZycsICctaW1hZScsICc8aW5maWxlLm1hZT4nLCAnLW9tYWUnLCAnPG91dGZpbGUubWFlPic=

> <r_lp_tautomer_probability>
0.0517155

> <r_epik_Ionization_Penalty>
0.274244

> <r_epik_Ionization_Penalty_Charging>
0.125708

> <r_epik_Ionization_Penalty_Neutral>
0.148536

> <r_epik_State_Penalty>
1.9659

> <r_epik_Charging_Adjusted_Penalty>
2.09161

> <i_epik_Tot_Q>
1

> <i_epik_Tot_abs_Q>
1

> <r_epik_Metal_State_Penalty>
2.08836

> <b_epik_Metal_Only>
0

> <s_lp_Force_Field>
OPLS_2005

> <r_lp_Energy>
13.0069

> <b_lp_Chiralities_Consistent>
1

> <s_lp_Variant>
AV-unprocessed.smi:2562-9

> <Gold.Version>
5.8.1

> <Gold.Id.Protein>
6NUR|6NUR_protein|mol2

> <Gold.PLP.Fitness>
34.5556

> <Gold.PLP.PLP>
-29.2854

> <Gold.PLP.part.hbond>
-2.0000

> <Gold.PLP.part.metal>
0.0000

> <Gold.PLP.part.buried>
-1.5337

> <Gold.PLP.part.nonpolar>
-25.6486

> <Gold.PLP.part.repulsive>
0.2890

> <Gold.PLP.ligand.clash>
0.0000

> <Gold.PLP.ligand.torsion>
0.3662

> <Gold.PLP.Chemscore.Hbond>
2.0000

> <Gold.PLP.Chemscore.CHOScore>
0.0000

> <Gold.PLP.Chemscore.Metal>
0.0000

> <Gold.Chemscore.Hbonds>
donor molecule, donor type, donor heavy atom, donor atom, acceptor molecule, acceptor atom, score
      L1  H    10    31       P1  7957  1.00
      L1  H    14    15       P1  8028  1.00

> <Gold.PLP.Chemscore.Internal.Correction>
0.0025

> <Gold.Rescore>
     Score         DG    S(hbond)    S(metal)    S(lipo)     H(rot)  DE(clash)    DE(int)     intcor
     14.10     -15.69       2.00        0.00      63.33       1.51       0.18       1.42       ----

> <Gold.Chemscore.Fitness>
14.0961

> <Gold.Chemscore.DG>
-15.6928

> <Gold.Chemscore.ZeroCoef>
-5.4800

> <Gold.Chemscore.Hbond>
1.9978

> <Gold.Chemscore.Metal>
0.0000

> <Gold.Chemscore.Lipo>
63.3312

> <Gold.Chemscore.Internal_Hbond>
0.0000

> <Gold.Chemscore.DEClash>
0.1797

> <Gold.Chemscore.DEInternal>
1.4171

> <Gold.Chemscore.Rot>
1.5115

> <Gold.Chemscore.Internal.Correction>
   9.000000E+99

> <Gold.Chemscore.Hbonds>
donor molecule, donor type, donor heavy atom, donor atom, acceptor molecule, acceptor atom, score
      L1  H    10    31       P1  7957  1.00
      L1  H    14    15       P1  8028  0.99

> <Gold.Chemscore.Hbond.Weighted>
-6.6725

> <Gold.Chemscore.Metal.Weighted>
-0.0000

> <Gold.Chemscore.Lipo.Weighted>
-7.4098

> <Gold.Chemscore.Internal_Hbond.Weighted>
0.0000

> <Gold.Chemscore.DEClash.Weighted>
0.1797

> <Gold.Chemscore.DEInternal.Weighted>
1.4171

> <Gold.Chemscore.Rot.Weighted>
3.8695

> <Gold.Chemscore.Internal.Correction.Weighted>
   9.000000E+99

> <Gold.Protein.RotatedTorsions>
[ 6907 6896 6895 6894 ] final -174.68 input  -60.11 | X-H torsion
[ 7974 7965 7964 7962 ] final  125.84 input  175.53 | X-H torsion
[ 8008 7997 7996 7995 ] final  -91.51 input   59.86 | X-H torsion
[ 10167 10162 10161 10158 ] final  -18.97 input  -65.29 | X-H torsion
[ 10718 10713 10712 10709 ] final  -51.34 input   66.30 | X-H torsion
[ 10763 10752 10751 10750 ] final   -1.28 input  -60.55 | X-H torsion
[ 11005 11000 10999 10996 ] final   42.74 input  -57.11 | X-H torsion

> <Gold.Protein.ActiveResidues>
 VAL166  LYS551  ARG553  GLY616  TRP617  ASP618  TYR619  PRO620  LYS621  CYS622 
 ASP623  PHE694  ASN695  SER759  ASP760  ASP761  ALA762  ILE779  LEU786  VAL792 
 PHE793  MET794  SER795  GLU796  ALA797  LYS798  CYS799  TRP800  GLU811  SER814 

> <Gold.Protein.RotatedAtoms>
  151.5762  133.3383  159.2999 H   0  0  0  0  0  0  0  0  0  0  0  0  # atno 6907 bound_to 6896
  150.8339  134.7607  159.6888 H   0  0  0  0  0  0  0  0  0  0  0  0  # atno 6908 bound_to 6896
  152.4418  134.5581  159.9938 H   0  0  0  0  0  0  0  0  0  0  0  0  # atno 6909 bound_to 6896
  145.0684  139.3749  143.4970 H   0  0  0  0  0  0  0  0  0  0  0  0  # atno 7974 bound_to 7965
  154.7117  140.0518  157.0556 H   0  0  0  0  0  0  0  0  0  0  0  0  # atno 8008 bound_to 7997
  155.0546  140.3183  155.4661 H   0  0  0  0  0  0  0  0  0  0  0  0  # atno 8009 bound_to 7997
  156.2791  140.2109  156.5672 H   0  0  0  0  0  0  0  0  0  0  0  0  # atno 8010 bound_to 7997
  140.7264  143.4864  151.0050 H   0  0  0  0  0  0  0  0  0  0  0  0  # atno 10167 bound_to 10162
  156.1719  130.4149  149.9635 H   0  0  0  0  0  0  0  0  0  0  0  0  # atno 10718 bound_to 10713
  153.3428  135.6981  153.6853 H   0  0  0  0  0  0  0  0  0  0  0  0  # atno 10763 bound_to 10752
  153.5610  135.3535  155.2800 H   0  0  0  0  0  0  0  0  0  0  0  0  # atno 10764 bound_to 10752
  154.8640  135.4249  154.2645 H   0  0  0  0  0  0  0  0  0  0  0  0  # atno 10765 bound_to 10752
  140.1710  134.4222  155.8257 H   0  0  0  0  0  0  0  0  0  0  0  0  # atno 11005 bound_to 11000
  146.3527  140.0417  142.8642 LP  0  0  0  0  0  0  0  0  0  0  0  0  # atno 17320 bound_to 7965
  145.1322  140.9524  143.4537 LP  0  0  0  0  0  0  0  0  0  0  0  0  # atno 17321 bound_to 7965
  139.8565  143.7369  152.3175 LP  0  0  0  0  0  0  0  0  0  0  0  0  # atno 17342 bound_to 10162
  139.7570  144.7518  151.0421 LP  0  0  0  0  0  0  0  0  0  0  0  0  # atno 17343 bound_to 10162
  156.7432  130.9087  151.3633 LP  0  0  0  0  0  0  0  0  0  0  0  0  # atno 17370 bound_to 10713
  157.6808  130.9138  150.0264 LP  0  0  0  0  0  0  0  0  0  0  0  0  # atno 17371 bound_to 10713
  141.2217  133.6956  156.7764 LP  0  0  0  0  0  0  0  0  0  0  0  0  # atno 17394 bound_to 11000
  140.2377  134.8637  157.3542 LP  0  0  0  0  0  0  0  0  0  0  0  0  # atno 17395 bound_to 11000

$$$$
