AV-unprocessed.smi:912|AV-procd|sdf|4141|dock1
  -GOLD-   22720 2 43D 1   1.00000     0.00000
 Structure written by MMmdl.
 26 26  0  0  0  0  0  0  0  0  1 V2000
  149.2061  141.4930  154.6506 C   0  0  0  0  0  0  0  0  0  0  0  0
  149.9786  142.2338  155.6449 N   0  0  0  0  0  0  0  0  0  0  0  0
  150.3272  141.5740  156.9156 C   0  0  2  0  0  0  0  0  0  0  0  0
  151.1511  140.3205  156.5231 C   0  0  0  0  0  0  0  0  0  0  0  0
  149.0559  141.1816  157.7179 C   0  0  0  0  0  0  0  0  0  0  0  0
  148.2344  142.1688  158.0929 N   0  0  0  0  0  0  0  0  0  0  0  0
  148.8104  140.0075  157.9918 O   0  0  0  0  0  0  0  0  0  0  0  0
  151.1926  142.4843  157.8117 C   0  0  0  0  0  0  0  0  0  0  0  0
  151.5656  143.7977  157.4288 C   0  0  0  0  0  0  0  0  0  0  0  0
  152.3585  144.5670  158.3036 C   0  0  0  0  0  0  0  0  0  0  0  0
  152.7870  144.1245  159.5033 N   0  0  0  0  0  0  0  0  0  0  0  0
  152.4322  142.8773  159.8735 C   0  0  0  0  0  0  0  0  0  0  0  0
  151.6456  142.0264  159.0729 C   0  0  0  0  0  0  0  0  0  0  0  0
  149.1893  142.0576  153.7187 H   0  0  0  0  0  0  0  0  0  0  0  0
  148.1705  141.3542  154.9618 H   0  0  0  0  0  0  0  0  0  0  0  0
  149.6408  140.5171  154.4361 H   0  0  0  0  0  0  0  0  0  0  0  0
  149.5892  143.1500  155.8134 H   0  0  0  0  0  0  0  0  0  0  0  0
  151.4666  139.7464  157.3946 H   0  0  0  0  0  0  0  0  0  0  0  0
  152.0554  140.6008  155.9811 H   0  0  0  0  0  0  0  0  0  0  0  0
  150.5923  139.6346  155.8862 H   0  0  0  0  0  0  0  0  0  0  0  0
  147.3950  141.9542  158.6114 H   0  0  0  0  0  0  0  0  0  0  0  0
  148.4549  143.1239  157.8510 H   0  0  0  0  0  0  0  0  0  0  0  0
  151.2644  144.2305  156.4870 H   0  0  0  0  0  0  0  0  0  0  0  0
  152.6552  145.5689  158.0310 H   0  0  0  0  0  0  0  0  0  0  0  0
  152.7835  142.5468  160.8397 H   0  0  0  0  0  0  0  0  0  0  0  0
  151.3918  141.0398  159.4316 H   0  0  0  0  0  0  0  0  0  0  0  0
  1  2  1  0  0  0  0
  1 14  1  0  0  0  0
  1 15  1  0  0  0  0
  1 16  1  0  0  0  0
  2  3  1  0  0  0  0
  2 17  1  0  0  0  0
  3  4  1  0  0  0  0
  3  5  1  0  0  0  0
  3  8  1  0  0  0  0
  4 18  1  0  0  0  0
  4 19  1  0  0  0  0
  4 20  1  0  0  0  0
  5  6  1  0  0  0  0
  5  7  2  0  0  0  0
  6 21  1  0  0  0  0
  6 22  1  0  0  0  0
  8 13  1  0  0  0  0
  8  9  2  0  0  0  0
  9 10  1  0  0  0  0
  9 23  1  0  0  0  0
 10 11  2  0  0  0  0
 10 24  1  0  0  0  0
 11 12  1  0  0  0  0
 12 13  2  0  0  0  0
 12 25  1  0  0  0  0
 13 26  1  0  0  0  0
M  END
> <s_m_source_file>
AV-unprocessed.smi

> <i_m_source_file_index>
912

> <i_lp_mmshare_version>
43012

> <i_f3d_flags>
0

> <s_epik_input>
W0NIM11bTkhdW0NAQF0oW0NIM10pKEMoPU8pW05IMl0pYzFbY0hdW2NIXW5bY0hdW2NIXTE=

> <s_epik_cmdline>
J2VwaWtfcHl0aG9uJywgJy1waCcsICc3LjAnLCAnLXRuJywgJzgnLCAnLW1hJywgJzIwMCcsICctbWV0YWxfYmluZGluZycsICctaW1hZScsICc8aW5maWxlLm1hZT4nLCAnLW9tYWUnLCAnPG91dGZpbGUubWFlPic=

> <r_epik_Ionization_Penalty>
0.458428

> <r_epik_Ionization_Penalty_Charging>
0

> <r_epik_Ionization_Penalty_Neutral>
0.458428

> <r_epik_State_Penalty>
0.443707

> <r_epik_Charging_Adjusted_Penalty>
0.443707

> <i_epik_Tot_Q>
0

> <i_epik_Tot_abs_Q>
0

> <r_epik_Metal_State_Penalty>
0.312856

> <b_epik_Metal_Only>
0

> <s_lp_Force_Field>
OPLS_2005

> <r_lp_Energy>
10.5143

> <b_lp_Chiralities_Consistent>
1

> <s_lp_Variant>
AV-unprocessed.smi:912-2

> <Gold.Version>
5.8.1

> <Gold.Id.Protein>
6NUR|6NUR_protein|mol2

> <Gold.PLP.Fitness>
31.0802

> <Gold.PLP.PLP>
-28.0979

> <Gold.PLP.part.hbond>
-1.2441

> <Gold.PLP.part.metal>
0.0000

> <Gold.PLP.part.buried>
-3.1223

> <Gold.PLP.part.nonpolar>
-23.6871

> <Gold.PLP.part.repulsive>
0.1333

> <Gold.PLP.ligand.clash>
0.0000

> <Gold.PLP.ligand.torsion>
0.0223

> <Gold.PLP.Chemscore.Hbond>
1.0000

> <Gold.PLP.Chemscore.CHOScore>
0.0000

> <Gold.PLP.Chemscore.Metal>
0.0000

> <Gold.Chemscore.Hbonds>
donor molecule, donor type, donor heavy atom, donor atom, acceptor molecule, acceptor atom, score
      L1  H     2    17       P1  8028  1.00

> <Gold.PLP.Chemscore.Internal.Correction>
0.0269

> <Gold.Rescore>
     Score         DG    S(hbond)    S(metal)    S(lipo)     H(rot)  DE(clash)    DE(int)     intcor
     13.31     -13.43       1.00        0.00      78.04       1.77       0.08       0.04       ----

> <Gold.Chemscore.Fitness>
13.3095

> <Gold.Chemscore.DG>
-13.4286

> <Gold.Chemscore.ZeroCoef>
-5.4800

> <Gold.Chemscore.Hbond>
1.0038

> <Gold.Chemscore.Metal>
0.0000

> <Gold.Chemscore.Lipo>
78.0355

> <Gold.Chemscore.Internal_Hbond>
0.0000

> <Gold.Chemscore.DEClash>
0.0816

> <Gold.Chemscore.DEInternal>
0.0376

> <Gold.Chemscore.Rot>
1.7712

> <Gold.Chemscore.Internal.Correction>
   9.000000E+99

> <Gold.Chemscore.Hbonds>
donor molecule, donor type, donor heavy atom, donor atom, acceptor molecule, acceptor atom, score
      L1  H     2    17       P1  8028  1.00

> <Gold.Chemscore.Hbond.Weighted>
-3.3528

> <Gold.Chemscore.Metal.Weighted>
-0.0000

> <Gold.Chemscore.Lipo.Weighted>
-9.1301

> <Gold.Chemscore.Internal_Hbond.Weighted>
0.0000

> <Gold.Chemscore.DEClash.Weighted>
0.0816

> <Gold.Chemscore.DEInternal.Weighted>
0.0376

> <Gold.Chemscore.Rot.Weighted>
4.5343

> <Gold.Chemscore.Internal.Correction.Weighted>
   9.000000E+99

> <Gold.Protein.RotatedTorsions>
[ 6907 6896 6895 6894 ] final  126.79 input  -60.11 | X-H torsion
[ 7974 7965 7964 7962 ] final  167.80 input  175.53 | X-H torsion
[ 8008 7997 7996 7995 ] final -101.88 input   59.86 | X-H torsion
[ 10167 10162 10161 10158 ] final  -49.93 input  -65.29 | X-H torsion
[ 10718 10713 10712 10709 ] final  108.67 input   66.30 | X-H torsion
[ 10763 10752 10751 10750 ] final   35.00 input  -60.55 | X-H torsion
[ 11005 11000 10999 10996 ] final   72.00 input  -57.11 | X-H torsion

> <Gold.Protein.ActiveResidues>
 VAL166  LYS551  ARG553  GLY616  TRP617  ASP618  TYR619  PRO620  LYS621  CYS622 
 ASP623  PHE694  ASN695  SER759  ASP760  ASP761  ALA762  ILE779  LEU786  VAL792 
 PHE793  MET794  SER795  GLU796  ALA797  LYS798  CYS799  TRP800  GLU811  SER814 

> <Gold.Protein.RotatedAtoms>
  152.3871  133.6627  159.6207 H   0  0  0  0  0  0  0  0  0  0  0  0  # atno 6907 bound_to 6896
  150.7788  133.9016  159.3352 H   0  0  0  0  0  0  0  0  0  0  0  0  # atno 6908 bound_to 6896
  151.6811  135.0963  160.0267 H   0  0  0  0  0  0  0  0  0  0  0  0  # atno 6909 bound_to 6896
  144.7411  139.8815  143.6396 H   0  0  0  0  0  0  0  0  0  0  0  0  # atno 7974 bound_to 7965
  154.8488  140.0431  157.1590 H   0  0  0  0  0  0  0  0  0  0  0  0  # atno 8008 bound_to 7997
  154.8965  140.2994  155.5321 H   0  0  0  0  0  0  0  0  0  0  0  0  # atno 8009 bound_to 7997
  156.2995  140.2384  156.3987 H   0  0  0  0  0  0  0  0  0  0  0  0  # atno 8010 bound_to 7997
  140.6662  143.2678  151.4285 H   0  0  0  0  0  0  0  0  0  0  0  0  # atno 10167 bound_to 10162
  157.6576  131.0898  150.6340 H   0  0  0  0  0  0  0  0  0  0  0  0  # atno 10718 bound_to 10713
  153.0138  135.6345  154.1758 H   0  0  0  0  0  0  0  0  0  0  0  0  # atno 10763 bound_to 10752
  154.1498  135.2829  155.3140 H   0  0  0  0  0  0  0  0  0  0  0  0  # atno 10764 bound_to 10752
  154.6062  135.5571  153.7486 H   0  0  0  0  0  0  0  0  0  0  0  0  # atno 10765 bound_to 10752
  139.9513  134.7221  156.0855 H   0  0  0  0  0  0  0  0  0  0  0  0  # atno 11005 bound_to 11000
  146.1208  139.4226  143.0229 LP  0  0  0  0  0  0  0  0  0  0  0  0  # atno 17320 bound_to 7965
  145.7307  141.0043  143.1353 LP  0  0  0  0  0  0  0  0  0  0  0  0  # atno 17321 bound_to 7965
  139.5912  144.1495  152.2090 LP  0  0  0  0  0  0  0  0  0  0  0  0  # atno 17342 bound_to 10162
  140.0851  144.5668  150.7095 LP  0  0  0  0  0  0  0  0  0  0  0  0  # atno 17343 bound_to 10162
  156.6645  130.4521  149.5677 LP  0  0  0  0  0  0  0  0  0  0  0  0  # atno 17370 bound_to 10713
  156.2043  130.6639  151.1201 LP  0  0  0  0  0  0  0  0  0  0  0  0  # atno 17371 bound_to 10713
  141.1177  133.6622  156.3135 LP  0  0  0  0  0  0  0  0  0  0  0  0  # atno 17394 bound_to 11000
  140.5711  134.5839  157.5458 LP  0  0  0  0  0  0  0  0  0  0  0  0  # atno 17395 bound_to 11000

$$$$
