AV-unprocessed.smi:2591|AV-procd|sdf|10153|dock2
  -GOLD-   2272014163D 1   1.00000     0.00000
 Structure written by MMmdl.
 35 36  0  0  0  0  0  0  0  0  2 V2000
  150.1947  135.0129  154.5650 C   0  0  0  0  0  0  0  0  0  0  0  0
  150.4421  136.4648  154.4362 N   0  3  1  0  0  0  0  0  0  0  0  0
  149.1939  137.2440  154.2785 C   0  0  0  0  0  0  0  0  0  0  0  0
  149.5174  138.7361  154.1072 C   0  0  0  0  0  0  0  0  0  0  0  0
  150.2727  139.1881  155.2242 O   0  0  0  0  0  0  0  0  0  0  0  0
  151.5258  138.5154  155.3474 C   0  0  1  0  0  0  0  0  0  0  0  0
  152.3106  139.1343  156.5151 C   0  0  0  0  0  0  0  0  0  0  0  0
  153.4272  138.6991  156.7985 O   0  0  0  0  0  0  0  0  0  0  0  0
  151.7110  140.1574  157.1550 N   0  0  0  0  0  0  0  0  0  0  0  0
  152.1905  140.9090  158.2604 C   0  0  0  0  0  0  0  0  0  0  0  0
  151.7741  142.2584  158.2916 C   0  0  0  0  0  0  0  0  0  0  0  0
  152.1904  143.0955  159.3485 C   0  0  0  0  0  0  0  0  0  0  0  0
  151.7487  144.5501  159.3894 C   0  0  0  0  0  0  0  0  0  0  0  0
  152.1610  145.1604  160.5009 F   0  0  0  0  0  0  0  0  0  0  0  0
  152.2521  145.1939  158.3370 F   0  0  0  0  0  0  0  0  0  0  0  0
  150.4185  144.6186  159.3390 F   0  0  0  0  0  0  0  0  0  0  0  0
  153.0237  142.5484  160.3458 C   0  0  0  0  0  0  0  0  0  0  0  0
  153.3918  141.1950  160.2391 C   0  0  0  0  0  0  0  0  0  0  0  0
  152.9888  140.3969  159.2289 N   0  0  0  0  0  0  0  0  0  0  0  0
  151.2669  137.0026  155.5426 C   0  0  0  0  0  0  0  0  0  0  0  0
  149.6194  134.7913  155.4647 H   0  0  0  0  0  0  0  0  0  0  0  0
  151.1366  134.4661  154.6175 H   0  0  0  0  0  0  0  0  0  0  0  0
  149.6402  134.6399  153.7034 H   0  0  0  0  0  0  0  0  0  0  0  0
  148.6395  136.8822  153.4118 H   0  0  0  0  0  0  0  0  0  0  0  0
  148.5565  137.0981  155.1522 H   0  0  0  0  0  0  0  0  0  0  0  0
  150.0684  138.9142  153.1825 H   0  0  0  0  0  0  0  0  0  0  0  0
  148.5962  139.3155  154.0462 H   0  0  0  0  0  0  0  0  0  0  0  0
  152.1098  138.6768  154.4396 H   0  0  0  0  0  0  0  0  0  0  0  0
  150.7967  140.4187  156.8164 H   0  0  0  0  0  0  0  0  0  0  0  0
  151.1393  142.6545  157.5120 H   0  0  0  0  0  0  0  0  0  0  0  0
  153.3767  143.1432  161.1751 H   0  0  0  0  0  0  0  0  0  0  0  0
  154.0281  140.7408  160.9842 H   0  0  0  0  0  0  0  0  0  0  0  0
  150.7593  136.8237  156.4924 H   0  0  0  0  0  0  0  0  0  0  0  0
  152.2118  136.4577  155.5758 H   0  0  0  0  0  0  0  0  0  0  0  0
  150.9751  136.5936  153.5877 H   0  0  0  0  0  0  0  0  0  0  0  0
  1  2  1  0  0  0  0
  1 21  1  0  0  0  0
  1 22  1  0  0  0  0
  1 23  1  0  0  0  0
  2 20  1  0  0  0  0
  2  3  1  0  0  0  0
  2 35  1  0  0  0  0
  3  4  1  0  0  0  0
  3 24  1  0  0  0  0
  3 25  1  0  0  0  0
  4  5  1  0  0  0  0
  4 26  1  0  0  0  0
  4 27  1  0  0  0  0
  5  6  1  0  0  0  0
  6  7  1  0  0  0  0
  6 20  1  0  0  0  0
  6 28  1  0  0  0  0
  7  8  2  0  0  0  0
  7  9  1  0  0  0  0
  9 10  1  0  0  0  0
  9 29  1  0  0  0  0
 10 19  1  0  0  0  0
 10 11  2  0  0  0  0
 11 12  1  0  0  0  0
 11 30  1  0  0  0  0
 12 13  1  0  0  0  0
 12 17  2  0  0  0  0
 13 14  1  0  0  0  0
 13 15  1  0  0  0  0
 13 16  1  0  0  0  0
 17 18  1  0  0  0  0
 17 31  1  0  0  0  0
 18 19  2  0  0  0  0
 18 32  1  0  0  0  0
 20 33  1  0  0  0  0
 20 34  1  0  0  0  0
M  CHG  1   2   1
M  END
> <s_m_source_file>
AV-unprocessed.smi

> <i_m_source_file_index>
2591

> <i_lp_mmshare_version>
43012

> <i_f3d_flags>
0

> <s_epik_input>
W0NIM11OMVtDSDJdW0NIMl1PW0NASF0oW0NIMl0xKUMoPU8pW05IXWMyW2NIXWMoQyhGKShGKUYpW2NIXVtjSF1uMg==

> <s_epik_cmdline>
J2VwaWtfcHl0aG9uJywgJy1waCcsICc3LjAnLCAnLXRuJywgJzgnLCAnLW1hJywgJzIwMCcsICctbWV0YWxfYmluZGluZycsICctaW1hZScsICc8aW5maWxlLm1hZT4nLCAnLW9tYWUnLCAnPG91dGZpbGUubWFlPic=

> <r_epik_Ionization_Penalty>
0.314028

> <r_epik_Ionization_Penalty_Charging>
0.314023

> <r_epik_Ionization_Penalty_Neutral>
5.2303e-06

> <r_epik_State_Penalty>
0.308208

> <r_epik_Charging_Adjusted_Penalty>
0.62223

> <i_epik_Tot_Q>
1

> <i_epik_Tot_abs_Q>
1

> <r_epik_Metal_State_Penalty>
0.308209

> <b_epik_Metal_Only>
0

> <s_lp_Force_Field>
OPLS_2005

> <r_lp_Energy>
17.8582

> <b_lp_Chiralities_Consistent>
1

> <s_lp_Variant>
AV-unprocessed.smi:2591-1

> <Gold.Version>
5.8.1

> <Gold.Id.Protein>
6NUR|6NUR_protein|mol2

> <Gold.PLP.Fitness>
44.2636

> <Gold.PLP.PLP>
-38.2366

> <Gold.PLP.part.hbond>
-2.9525

> <Gold.PLP.part.metal>
0.0000

> <Gold.PLP.part.buried>
-0.7169

> <Gold.PLP.part.nonpolar>
-34.4312

> <Gold.PLP.part.repulsive>
0.2284

> <Gold.PLP.ligand.clash>
0.0000

> <Gold.PLP.ligand.torsion>
0.2702

> <Gold.PLP.Chemscore.Hbond>
2.1859

> <Gold.PLP.Chemscore.CHOScore>
0.0000

> <Gold.PLP.Chemscore.Metal>
0.0000

> <Gold.Chemscore.Hbonds>
donor molecule, donor type, donor heavy atom, donor atom, acceptor molecule, acceptor atom, score
      L1  H     2    35       P1  7949  1.06
      P1  H  7997  8008       L1     8  0.99

> <Gold.PLP.Chemscore.Internal.Correction>
0.0097

> <Gold.Rescore>
     Score         DG    S(hbond)    S(metal)    S(lipo)     H(rot)  DE(clash)    DE(int)     intcor
     13.54     -15.03       0.96        0.00      75.98       1.00       0.16       1.33       ----

> <Gold.Chemscore.Fitness>
13.5390

> <Gold.Chemscore.DG>
-15.0316

> <Gold.Chemscore.ZeroCoef>
-5.4800

> <Gold.Chemscore.Hbond>
0.9645

> <Gold.Chemscore.Metal>
0.0000

> <Gold.Chemscore.Lipo>
75.9848

> <Gold.Chemscore.Internal_Hbond>
0.0000

> <Gold.Chemscore.DEClash>
0.1637

> <Gold.Chemscore.DEInternal>
1.3289

> <Gold.Chemscore.Rot>
1.0000

> <Gold.Chemscore.Internal.Correction>
   9.000000E+99

> <Gold.Chemscore.Hbonds>
donor molecule, donor type, donor heavy atom, donor atom, acceptor molecule, acceptor atom, score
      L1  H     2    35       P1  7949  0.13
      P1  H  7997  8008       L1     8  0.33

> <Gold.Chemscore.Hbond.Weighted>
-3.2213

> <Gold.Chemscore.Metal.Weighted>
-0.0000

> <Gold.Chemscore.Lipo.Weighted>
-8.8902

> <Gold.Chemscore.Internal_Hbond.Weighted>
0.0000

> <Gold.Chemscore.DEClash.Weighted>
0.1637

> <Gold.Chemscore.DEInternal.Weighted>
1.3289

> <Gold.Chemscore.Rot.Weighted>
2.5600

> <Gold.Chemscore.Internal.Correction.Weighted>
   9.000000E+99

> <Gold.Protein.RotatedTorsions>
[ 6907 6896 6895 6894 ] final   33.73 input  -60.11 | X-H torsion
[ 7974 7965 7964 7962 ] final  110.79 input  175.53 | X-H torsion
[ 8008 7997 7996 7995 ] final  -56.70 input   59.86 | X-H torsion
[ 10167 10162 10161 10158 ] final  178.23 input  -65.29 | X-H torsion
[ 10718 10713 10712 10709 ] final   -9.97 input   66.30 | X-H torsion
[ 10763 10752 10751 10750 ] final   79.34 input  -60.55 | X-H torsion
[ 11005 11000 10999 10996 ] final   -2.47 input  -57.11 | X-H torsion

> <Gold.Protein.ActiveResidues>
 VAL166  LYS551  ARG553  GLY616  TRP617  ASP618  TYR619  PRO620  LYS621  CYS622 
 ASP623  PHE694  ASN695  SER759  ASP760  ASP761  ALA762  ILE779  LEU786  VAL792 
 PHE793  MET794  SER795  GLU796  ALA797  LYS798  CYS799  TRP800  GLU811  SER814 

> <Gold.Protein.RotatedAtoms>
  152.0925  134.9397  160.0571 H   0  0  0  0  0  0  0  0  0  0  0  0  # atno 6907 bound_to 6896
  152.0643  133.4072  159.4439 H   0  0  0  0  0  0  0  0  0  0  0  0  # atno 6908 bound_to 6896
  150.6837  134.3084  159.4779 H   0  0  0  0  0  0  0  0  0  0  0  0  # atno 6909 bound_to 6896
  145.2505  139.2742  143.4070 H   0  0  0  0  0  0  0  0  0  0  0  0  # atno 7974 bound_to 7965
  154.4240  140.1123  156.5680 H   0  0  0  0  0  0  0  0  0  0  0  0  # atno 8008 bound_to 7997
  155.6242  140.3495  155.4643 H   0  0  0  0  0  0  0  0  0  0  0  0  # atno 8009 bound_to 7997
  156.0000  140.1197  157.0546 H   0  0  0  0  0  0  0  0  0  0  0  0  # atno 8010 bound_to 7997
  139.5285  144.2705  152.0632 H   0  0  0  0  0  0  0  0  0  0  0  0  # atno 10167 bound_to 10162
  156.6803  130.5035  149.5973 H   0  0  0  0  0  0  0  0  0  0  0  0  # atno 10718 bound_to 10713
  153.0945  135.4843  154.8753 H   0  0  0  0  0  0  0  0  0  0  0  0  # atno 10763 bound_to 10752
  154.7308  135.3060  154.8896 H   0  0  0  0  0  0  0  0  0  0  0  0  # atno 10764 bound_to 10752
  153.9532  135.6821  153.4797 H   0  0  0  0  0  0  0  0  0  0  0  0  # atno 10765 bound_to 10752
  140.6588  133.9339  155.8423 H   0  0  0  0  0  0  0  0  0  0  0  0  # atno 11005 bound_to 11000
  146.3304  140.2894  142.8614 LP  0  0  0  0  0  0  0  0  0  0  0  0  # atno 17320 bound_to 7965
  144.9507  140.8175  143.5573 LP  0  0  0  0  0  0  0  0  0  0  0  0  # atno 17321 bound_to 7965
  140.2165  144.4510  150.6361 LP  0  0  0  0  0  0  0  0  0  0  0  0  # atno 17342 bound_to 10162
  140.6447  143.2211  151.6213 LP  0  0  0  0  0  0  0  0  0  0  0  0  # atno 17343 bound_to 10162
  156.1872  130.6537  151.1020 LP  0  0  0  0  0  0  0  0  0  0  0  0  # atno 17370 bound_to 10713
  157.7046  131.0762  150.6710 LP  0  0  0  0  0  0  0  0  0  0  0  0  # atno 17371 bound_to 10713
  141.0481  134.0524  157.3818 LP  0  0  0  0  0  0  0  0  0  0  0  0  # atno 17394 bound_to 11000
  139.9020  135.0168  156.7314 LP  0  0  0  0  0  0  0  0  0  0  0  0  # atno 17395 bound_to 11000

$$$$
