AV-unprocessed.smi:1793|AV-procd|sdf|7224|dock9
  -GOLD-   22720 8463D 1   1.00000     0.00000
 Structure written by MMmdl.
 46 48  0  0  0  0  0  0  0  0  1 V2000
  147.8239  134.0424  158.7303 C   0  0  0  0  0  0  0  0  0  0  0  0
  147.3344  135.4241  159.2016 C   0  0  2  0  0  0  0  0  0  0  0  0
  147.7920  136.4540  158.2726 N   0  0  0  0  0  0  0  0  0  0  0  0
  149.0446  136.5885  157.8156 C   0  0  0  0  0  0  0  0  0  0  0  0
  149.9737  135.8513  158.1455 O   0  0  0  0  0  0  0  0  0  0  0  0
  149.1434  137.6339  156.9782 N   0  0  0  0  0  0  0  0  0  0  0  0
  150.3164  138.1645  156.3711 C   0  0  0  0  0  0  0  0  0  0  0  0
  151.5571  137.4850  156.4395 C   0  0  0  0  0  0  0  0  0  0  0  0
  152.6722  138.0155  155.7681 C   0  0  0  0  0  0  0  0  0  0  0  0
  152.5036  139.2015  155.0349 C   0  0  0  0  0  0  0  0  0  0  0  0
  151.3265  139.8524  154.9475 N   0  0  0  0  0  0  0  0  0  0  0  0
  150.2450  139.3617  155.6020 C   0  0  0  0  0  0  0  0  0  0  0  0
  149.0423  140.0964  155.4862 N   0  0  0  0  0  0  0  0  0  0  0  0
  147.8510  139.4814  154.9109 C   0  0  0  0  0  0  0  0  0  0  0  0
  146.9139  140.6465  154.6062 C   0  0  0  0  0  0  0  0  0  0  0  0
  147.8870  141.7419  154.1807 C   0  0  0  0  0  0  0  0  0  0  0  0
  149.1224  141.4879  155.0513 C   0  0  0  0  0  0  0  0  0  0  0  0
  147.8353  135.7667  160.6182 C   0  0  2  0  0  0  0  0  0  0  0  0
  147.4956  134.7263  161.6860 C   0  0  0  0  0  0  0  0  0  0  0  0
  147.5790  135.5492  162.9510 C   0  0  0  0  0  0  0  0  0  0  0  0
  147.0018  136.8881  162.4994 C   0  0  0  0  0  0  0  0  0  0  0  0
  147.2188  136.9621  161.0921 O   0  0  0  0  0  0  0  0  0  0  0  0
  147.4611  133.2483  159.3826 H   0  0  0  0  0  0  0  0  0  0  0  0
  148.9130  133.9911  158.7173 H   0  0  0  0  0  0  0  0  0  0  0  0
  147.4689  133.8172  157.7242 H   0  0  0  0  0  0  0  0  0  0  0  0
  146.2427  135.4232  159.2159 H   0  0  0  0  0  0  0  0  0  0  0  0
  147.0945  137.1051  157.9429 H   0  0  0  0  0  0  0  0  0  0  0  0
  148.3101  138.1927  156.8668 H   0  0  0  0  0  0  0  0  0  0  0  0
  151.6664  136.5549  156.9760 H   0  0  0  0  0  0  0  0  0  0  0  0
  153.6298  137.5176  155.8037 H   0  0  0  0  0  0  0  0  0  0  0  0
  153.3339  139.6370  154.4989 H   0  0  0  0  0  0  0  0  0  0  0  0
  148.0942  138.9606  153.9839 H   0  0  0  0  0  0  0  0  0  0  0  0
  147.4000  138.7664  155.5995 H   0  0  0  0  0  0  0  0  0  0  0  0
  146.1739  140.4087  153.8416 H   0  0  0  0  0  0  0  0  0  0  0  0
  146.3848  140.9481  155.5114 H   0  0  0  0  0  0  0  0  0  0  0  0
  148.1463  141.6113  153.1290 H   0  0  0  0  0  0  0  0  0  0  0  0
  147.4810  142.7462  154.3045 H   0  0  0  0  0  0  0  0  0  0  0  0
  149.0944  142.1331  155.9297 H   0  0  0  0  0  0  0  0  0  0  0  0
  150.0443  141.6972  154.5065 H   0  0  0  0  0  0  0  0  0  0  0  0
  148.9147  135.9296  160.6089 H   0  0  0  0  0  0  0  0  0  0  0  0
  146.4799  134.3511  161.5500 H   0  0  0  0  0  0  0  0  0  0  0  0
  148.1788  133.8764  161.6879 H   0  0  0  0  0  0  0  0  0  0  0  0
  147.0343  135.1097  163.7872 H   0  0  0  0  0  0  0  0  0  0  0  0
  148.6217  135.6709  163.2477 H   0  0  0  0  0  0  0  0  0  0  0  0
  145.9279  136.9262  162.6859 H   0  0  0  0  0  0  0  0  0  0  0  0
  147.4645  137.7291  163.0162 H   0  0  0  0  0  0  0  0  0  0  0  0
  1  2  1  0  0  0  0
  1 23  1  0  0  0  0
  1 24  1  0  0  0  0
  1 25  1  0  0  0  0
  2  3  1  0  0  0  0
  2 18  1  0  0  0  0
  2 26  1  0  0  0  0
  3  4  1  0  0  0  0
  3 27  1  0  0  0  0
  4  5  2  0  0  0  0
  4  6  1  0  0  0  0
  6  7  1  0  0  0  0
  6 28  1  0  0  0  0
  7 12  1  0  0  0  0
  7  8  2  0  0  0  0
  8  9  1  0  0  0  0
  8 29  1  0  0  0  0
  9 10  2  0  0  0  0
  9 30  1  0  0  0  0
 10 11  1  0  0  0  0
 10 31  1  0  0  0  0
 11 12  2  0  0  0  0
 12 13  1  0  0  0  0
 13 17  1  0  0  0  0
 13 14  1  0  0  0  0
 14 15  1  0  0  0  0
 14 32  1  0  0  0  0
 14 33  1  0  0  0  0
 15 16  1  0  0  0  0
 15 34  1  0  0  0  0
 15 35  1  0  0  0  0
 16 17  1  0  0  0  0
 16 36  1  0  0  0  0
 16 37  1  0  0  0  0
 17 38  1  0  0  0  0
 17 39  1  0  0  0  0
 18 22  1  0  0  0  0
 18 19  1  0  0  0  0
 18 40  1  0  0  0  0
 19 20  1  0  0  0  0
 19 41  1  0  0  0  0
 19 42  1  0  0  0  0
 20 21  1  0  0  0  0
 20 43  1  0  0  0  0
 20 44  1  0  0  0  0
 21 22  1  0  0  0  0
 21 45  1  0  0  0  0
 21 46  1  0  0  0  0
M  END
> <s_m_source_file>
AV-unprocessed.smi

> <i_m_source_file_index>
1793

> <i_lp_mmshare_version>
43012

> <i_f3d_flags>
0

> <s_epik_input>
TzFbQ0gyXVtDSDJdW0NIMl1bQ0BIXTFbQ0BIXShbQ0gzXSlbTkhdQyg9TylbTkhdYzJbY0hdW2NIXVtjSF1uYzJOM1tDSDJdW0NIMl1bQ0gyXVtDSDJdMw==

> <s_epik_cmdline>
J2VwaWtfcHl0aG9uJywgJy1waCcsICc3LjAnLCAnLXRuJywgJzgnLCAnLW1hJywgJzIwMCcsICctbWV0YWxfYmluZGluZycsICctaW1hZScsICc8aW5maWxlLm1hZT4nLCAnLW9tYWUnLCAnPG91dGZpbGUubWFlPic=

> <r_lp_tautomer_probability>
1

> <r_epik_Ionization_Penalty>
0.0992086

> <r_epik_Ionization_Penalty_Charging>
0

> <r_epik_Ionization_Penalty_Neutral>
0.0992086

> <r_epik_State_Penalty>
0.0887141

> <r_epik_Charging_Adjusted_Penalty>
0.0887141

> <i_epik_Tot_Q>
0

> <i_epik_Tot_abs_Q>
0

> <r_epik_Metal_State_Penalty>
0.075945

> <b_epik_Metal_Only>
0

> <s_lp_Force_Field>
OPLS_2005

> <r_lp_Energy>
46.4352

> <b_lp_Chiralities_Consistent>
1

> <s_lp_Variant>
AV-unprocessed.smi:1793-1

> <Gold.Version>
5.8.1

> <Gold.Id.Protein>
6NUR|6NUR_protein|mol2

> <Gold.PLP.Fitness>
43.2004

> <Gold.PLP.PLP>
-34.7668

> <Gold.PLP.part.hbond>
-4.0000

> <Gold.PLP.part.metal>
0.0000

> <Gold.PLP.part.buried>
-3.7103

> <Gold.PLP.part.nonpolar>
-27.4116

> <Gold.PLP.part.repulsive>
0.1709

> <Gold.PLP.ligand.clash>
0.0000

> <Gold.PLP.ligand.torsion>
0.4598

> <Gold.PLP.Chemscore.Hbond>
3.0000

> <Gold.PLP.Chemscore.CHOScore>
0.0000

> <Gold.PLP.Chemscore.Metal>
0.0000

> <Gold.Chemscore.Hbonds>
donor molecule, donor type, donor heavy atom, donor atom, acceptor molecule, acceptor atom, score
      P1  H  6896  6907       L1     5  0.98
      P1  H  6934  6947       L1    22  0.77
      P1  H  7989  7998       L1    11  1.00

> <Gold.PLP.Chemscore.Internal.Correction>
0.3533

> <Gold.Rescore>
     Score         DG    S(hbond)    S(metal)    S(lipo)     H(rot)  DE(clash)    DE(int)     intcor
     15.48     -18.99       2.00        0.00      88.26       1.36       0.10       3.41       ----

> <Gold.Chemscore.Fitness>
15.4771

> <Gold.Chemscore.DG>
-18.9936

> <Gold.Chemscore.ZeroCoef>
-5.4800

> <Gold.Chemscore.Hbond>
1.9953

> <Gold.Chemscore.Metal>
0.0000

> <Gold.Chemscore.Lipo>
88.2584

> <Gold.Chemscore.Internal_Hbond>
0.0000

> <Gold.Chemscore.DEClash>
0.1045

> <Gold.Chemscore.DEInternal>
3.4120

> <Gold.Chemscore.Rot>
1.3582

> <Gold.Chemscore.Internal.Correction>
   9.000000E+99

> <Gold.Chemscore.Hbonds>
donor molecule, donor type, donor heavy atom, donor atom, acceptor molecule, acceptor atom, score
      P1  H  6896  6907       L1     5  0.89
      P1  H  6934  6947       L1    22  0.13
      P1  H  7989  7998       L1    11  0.26

> <Gold.Chemscore.Hbond.Weighted>
-6.6644

> <Gold.Chemscore.Metal.Weighted>
-0.0000

> <Gold.Chemscore.Lipo.Weighted>
-10.3262

> <Gold.Chemscore.Internal_Hbond.Weighted>
0.0000

> <Gold.Chemscore.DEClash.Weighted>
0.1045

> <Gold.Chemscore.DEInternal.Weighted>
3.4120

> <Gold.Chemscore.Rot.Weighted>
3.4771

> <Gold.Chemscore.Internal.Correction.Weighted>
   9.000000E+99

> <Gold.Protein.RotatedTorsions>
[ 6907 6896 6895 6894 ] final  -60.02 input  -60.11 | X-H torsion
[ 7974 7965 7964 7962 ] final  155.19 input  175.53 | X-H torsion
[ 8008 7997 7996 7995 ] final  -57.89 input   59.86 | X-H torsion
[ 10167 10162 10161 10158 ] final -147.44 input  -65.29 | X-H torsion
[ 10718 10713 10712 10709 ] final  -27.38 input   66.30 | X-H torsion
[ 10763 10752 10751 10750 ] final  -51.13 input  -60.55 | X-H torsion
[ 11005 11000 10999 10996 ] final -159.67 input  -57.11 | X-H torsion

> <Gold.Protein.ActiveResidues>
 VAL166  LYS551  ARG553  GLY616  TRP617  ASP618  TYR619  PRO620  LYS621  CYS622 
 ASP623  PHE694  ASN695  SER759  ASP760  ASP761  ALA762  ILE779  LEU786  VAL792 
 PHE793  MET794  SER795  GLU796  ALA797  LYS798  CYS799  TRP800  GLU811  SER814 

> <Gold.Protein.RotatedAtoms>
  150.7887  134.6893  159.6487 H   0  0  0  0  0  0  0  0  0  0  0  0  # atno 6907 bound_to 6896
  152.3988  134.6317  160.0087 H   0  0  0  0  0  0  0  0  0  0  0  0  # atno 6908 bound_to 6896
  151.6595  133.3281  159.3207 H   0  0  0  0  0  0  0  0  0  0  0  0  # atno 6909 bound_to 6896
  144.8040  139.7035  143.6169 H   0  0  0  0  0  0  0  0  0  0  0  0  # atno 7974 bound_to 7965
  154.4286  140.1096  156.5869 H   0  0  0  0  0  0  0  0  0  0  0  0  # atno 8008 bound_to 7997
  155.6053  140.3493  155.4587 H   0  0  0  0  0  0  0  0  0  0  0  0  # atno 8009 bound_to 7997
  156.0142  140.1225  157.0413 H   0  0  0  0  0  0  0  0  0  0  0  0  # atno 8010 bound_to 7997
  139.7622  143.8360  152.2609 H   0  0  0  0  0  0  0  0  0  0  0  0  # atno 10167 bound_to 10162
  156.4389  130.4460  149.7066 H   0  0  0  0  0  0  0  0  0  0  0  0  # atno 10718 bound_to 10713
  154.1216  135.6534  153.4904 H   0  0  0  0  0  0  0  0  0  0  0  0  # atno 10763 bound_to 10752
  153.0223  135.5271  154.7091 H   0  0  0  0  0  0  0  0  0  0  0  0  # atno 10764 bound_to 10752
  154.6300  135.2975  155.0198 H   0  0  0  0  0  0  0  0  0  0  0  0  # atno 10765 bound_to 10752
  140.6400  134.4561  157.5233 H   0  0  0  0  0  0  0  0  0  0  0  0  # atno 11005 bound_to 11000
  146.2328  139.5847  142.9544 LP  0  0  0  0  0  0  0  0  0  0  0  0  # atno 17320 bound_to 7965
  145.5482  141.0415  143.2293 LP  0  0  0  0  0  0  0  0  0  0  0  0  # atno 17321 bound_to 7965
  139.8370  144.7228  150.9379 LP  0  0  0  0  0  0  0  0  0  0  0  0  # atno 17342 bound_to 10162
  140.7808  143.4018  151.1136 LP  0  0  0  0  0  0  0  0  0  0  0  0  # atno 17343 bound_to 10162
  156.3939  130.7641  151.2644 LP  0  0  0  0  0  0  0  0  0  0  0  0  # atno 17370 bound_to 10713
  157.7507  131.0260  150.3942 LP  0  0  0  0  0  0  0  0  0  0  0  0  # atno 17371 bound_to 10713
  139.9084  134.8399  156.1620 LP  0  0  0  0  0  0  0  0  0  0  0  0  # atno 17394 bound_to 11000
  141.0614  133.6840  156.1959 LP  0  0  0  0  0  0  0  0  0  0  0  0  # atno 17395 bound_to 11000

$$$$
