AV-unprocessed.smi:2785|AV-procd|sdf|10747|dock4
  -GOLD-   2272015183D 1   1.00000     0.00000
 Structure written by MMmdl.
 37 38  0  0  0  0  0  0  0  0  1 V2000
  146.0072  132.3425  150.1586 C   0  0  0  0  0  0  0  0  0  0  0  0
  144.9362  132.8680  151.1318 C   0  0  0  0  0  0  0  0  0  0  0  0
  143.5234  132.4231  150.7218 C   0  0  0  0  0  0  0  0  0  0  0  0
  144.9826  134.3280  151.2929 N   0  0  0  0  0  0  0  0  0  0  0  0
  144.9348  135.2398  150.1612 C   0  0  0  0  0  0  0  0  0  0  0  0
  144.7485  136.6282  150.7808 C   0  0  0  0  0  0  0  0  0  0  0  0
  145.0871  136.4954  152.2744 C   0  0  2  0  0  0  0  0  0  0  0  0
  146.4200  137.0360  152.5322 N   0  0  0  0  0  0  0  0  0  0  0  0
  146.6823  138.1401  153.2471 C   0  0  0  0  0  0  0  0  0  0  0  0
  145.8084  138.8469  153.7498 O   0  0  0  0  0  0  0  0  0  0  0  0
  148.0064  138.3566  153.3373 N   0  0  0  0  0  0  0  0  0  0  0  0
  148.6804  139.4063  154.0163 C   0  0  0  0  0  0  0  0  0  0  0  0
  149.9775  139.0843  154.4767 C   0  0  0  0  0  0  0  0  0  0  0  0
  150.7301  140.0564  155.1644 C   0  0  0  0  0  0  0  0  0  0  0  0
  150.1640  141.3267  155.3724 C   0  0  0  0  0  0  0  0  0  0  0  0
  150.8492  142.2932  156.0282 F   0  0  0  0  0  0  0  0  0  0  0  0
  148.8674  141.5669  154.8815 C   0  0  0  0  0  0  0  0  0  0  0  0
  148.1450  140.6360  154.2224 N   0  0  0  0  0  0  0  0  0  0  0  0
  145.0946  134.9789  152.4592 C   0  0  0  0  0  0  0  0  0  0  0  0
  145.1754  134.4519  153.5686 O   0  0  0  0  0  0  0  0  0  0  0  0
  146.0049  131.2525  150.1338 H   0  0  0  0  0  0  0  0  0  0  0  0
  147.0056  132.6584  150.4626 H   0  0  0  0  0  0  0  0  0  0  0  0
  145.8376  132.6902  149.1391 H   0  0  0  0  0  0  0  0  0  0  0  0
  145.1543  132.4180  152.1024 H   0  0  0  0  0  0  0  0  0  0  0  0
  143.4634  131.3377  150.6393 H   0  0  0  0  0  0  0  0  0  0  0  0
  143.2395  132.8463  149.7577 H   0  0  0  0  0  0  0  0  0  0  0  0
  142.7806  132.7372  151.4555 H   0  0  0  0  0  0  0  0  0  0  0  0
  145.8755  135.1902  149.6113 H   0  0  0  0  0  0  0  0  0  0  0  0
  144.1212  134.9923  149.4782 H   0  0  0  0  0  0  0  0  0  0  0  0
  145.3437  137.3864  150.2697 H   0  0  0  0  0  0  0  0  0  0  0  0
  143.7044  136.9280  150.6789 H   0  0  0  0  0  0  0  0  0  0  0  0
  144.3267  136.9686  152.8983 H   0  0  0  0  0  0  0  0  0  0  0  0
  147.1995  136.5158  152.1571 H   0  0  0  0  0  0  0  0  0  0  0  0
  148.6025  137.6871  152.8739 H   0  0  0  0  0  0  0  0  0  0  0  0
  150.3955  138.1024  154.3080 H   0  0  0  0  0  0  0  0  0  0  0  0
  151.7227  139.8304  155.5251 H   0  0  0  0  0  0  0  0  0  0  0  0
  148.3976  142.5294  155.0206 H   0  0  0  0  0  0  0  0  0  0  0  0
  1  2  1  0  0  0  0
  1 21  1  0  0  0  0
  1 22  1  0  0  0  0
  1 23  1  0  0  0  0
  2  3  1  0  0  0  0
  2  4  1  0  0  0  0
  2 24  1  0  0  0  0
  3 25  1  0  0  0  0
  3 26  1  0  0  0  0
  3 27  1  0  0  0  0
  4 19  1  0  0  0  0
  4  5  1  0  0  0  0
  5  6  1  0  0  0  0
  5 28  1  0  0  0  0
  5 29  1  0  0  0  0
  6  7  1  0  0  0  0
  6 30  1  0  0  0  0
  6 31  1  0  0  0  0
  7  8  1  0  0  0  0
  7 19  1  0  0  0  0
  7 32  1  0  0  0  0
  8  9  1  0  0  0  0
  8 33  1  0  0  0  0
  9 10  2  0  0  0  0
  9 11  1  0  0  0  0
 11 12  1  0  0  0  0
 11 34  1  0  0  0  0
 12 18  1  0  0  0  0
 12 13  2  0  0  0  0
 13 14  1  0  0  0  0
 13 35  1  0  0  0  0
 14 15  2  0  0  0  0
 14 36  1  0  0  0  0
 15 16  1  0  0  0  0
 15 17  1  0  0  0  0
 17 18  2  0  0  0  0
 17 37  1  0  0  0  0
 19 20  2  0  0  0  0
M  END
> <s_m_source_file>
AV-unprocessed.smi

> <i_m_source_file_index>
2785

> <i_lp_mmshare_version>
43012

> <i_f3d_flags>
0

> <s_epik_input>
W0NIM11bQ0hdKFtDSDNdKU4xW0NIMl1bQ0gyXVtDQEhdKEMxPU8pW05IXUMoPU8pW05IXWMyW2NIXVtjSF1jKEYpW2NIXW4y

> <s_epik_cmdline>
J2VwaWtfcHl0aG9uJywgJy1waCcsICc3LjAnLCAnLXRuJywgJzgnLCAnLW1hJywgJzIwMCcsICctbWV0YWxfYmluZGluZycsICctaW1hZScsICc8aW5maWxlLm1hZT4nLCAnLW9tYWUnLCAnPG91dGZpbGUubWFlPic=

> <r_lp_tautomer_probability>
1

> <r_epik_Ionization_Penalty>
3.20266e-05

> <r_epik_Ionization_Penalty_Charging>
0

> <r_epik_Ionization_Penalty_Neutral>
3.20266e-05

> <r_epik_State_Penalty>
-0

> <r_epik_Charging_Adjusted_Penalty>
0

> <i_epik_Tot_Q>
0

> <i_epik_Tot_abs_Q>
0

> <r_epik_Metal_State_Penalty>
-0

> <b_epik_Metal_Only>
0

> <s_lp_Force_Field>
OPLS_2005

> <r_lp_Energy>
23.5858

> <b_lp_Chiralities_Consistent>
1

> <s_lp_Variant>
AV-unprocessed.smi:2785-2

> <Gold.Version>
5.8.1

> <Gold.Id.Protein>
6NUR|6NUR_protein|mol2

> <Gold.PLP.Fitness>
40.3161

> <Gold.PLP.PLP>
-32.1571

> <Gold.PLP.part.hbond>
-2.0000

> <Gold.PLP.part.metal>
0.0000

> <Gold.PLP.part.buried>
1.1405

> <Gold.PLP.part.nonpolar>
-30.7432

> <Gold.PLP.part.repulsive>
0.3727

> <Gold.PLP.ligand.clash>
0.0000

> <Gold.PLP.ligand.torsion>
0.4581

> <Gold.PLP.Chemscore.Hbond>
2.0000

> <Gold.PLP.Chemscore.CHOScore>
1.0000

> <Gold.PLP.Chemscore.Metal>
0.0000

> <Gold.Chemscore.Hbonds>
donor molecule, donor type, donor heavy atom, donor atom, acceptor molecule, acceptor atom, score
      L1  H     8    33       P1  7948  1.00
      L1  H    11    34       P1  7948  1.00
      L1  C    17    37       P1  8028  1.00

> <Gold.PLP.Chemscore.Internal.Correction>
0.0752

> <Gold.Rescore>
     Score         DG    S(hbond)    S(metal)    S(lipo)     H(rot)  DE(clash)    DE(int)     intcor
     13.88     -17.15       1.97        0.00      71.68       1.29       1.85       1.43       ----

> <Gold.Chemscore.Fitness>
13.8791

> <Gold.Chemscore.DG>
-17.1518

> <Gold.Chemscore.ZeroCoef>
-5.4800

> <Gold.Chemscore.Hbond>
1.9705

> <Gold.Chemscore.Metal>
0.0000

> <Gold.Chemscore.Lipo>
71.6777

> <Gold.Chemscore.Internal_Hbond>
0.0000

> <Gold.Chemscore.DEClash>
1.8464

> <Gold.Chemscore.DEInternal>
1.4263

> <Gold.Chemscore.Rot>
1.2875

> <Gold.Chemscore.Internal.Correction>
   9.000000E+99

> <Gold.Chemscore.Hbonds>
donor molecule, donor type, donor heavy atom, donor atom, acceptor molecule, acceptor atom, score
      L1  H     8    33       P1  7948  0.98
      L1  H    11    34       P1  7948  0.99

> <Gold.Chemscore.Hbond.Weighted>
-6.5813

> <Gold.Chemscore.Metal.Weighted>
-0.0000

> <Gold.Chemscore.Lipo.Weighted>
-8.3863

> <Gold.Chemscore.Internal_Hbond.Weighted>
0.0000

> <Gold.Chemscore.DEClash.Weighted>
1.8464

> <Gold.Chemscore.DEInternal.Weighted>
1.4263

> <Gold.Chemscore.Rot.Weighted>
3.2959

> <Gold.Chemscore.Internal.Correction.Weighted>
   9.000000E+99

> <Gold.Protein.RotatedTorsions>
[ 6907 6896 6895 6894 ] final  172.65 input  -60.11 | X-H torsion
[ 7974 7965 7964 7962 ] final -108.67 input  175.53 | X-H torsion
[ 8008 7997 7996 7995 ] final  168.99 input   59.86 | X-H torsion
[ 10167 10162 10161 10158 ] final  133.84 input  -65.29 | X-H torsion
[ 10718 10713 10712 10709 ] final   72.94 input   66.30 | X-H torsion
[ 10763 10752 10751 10750 ] final   -4.04 input  -60.55 | X-H torsion
[ 11005 11000 10999 10996 ] final  -23.63 input  -57.11 | X-H torsion

> <Gold.Protein.ActiveResidues>
 VAL166  LYS551  ARG553  GLY616  TRP617  ASP618  TYR619  PRO620  LYS621  CYS622 
 ASP623  PHE694  ASN695  SER759  ASP760  ASP761  ALA762  ILE779  LEU786  VAL792 
 PHE793  MET794  SER795  GLU796  ALA797  LYS798  CYS799  TRP800  GLU811  SER814 

> <Gold.Protein.RotatedAtoms>
  151.7808  133.3349  159.3470 H   0  0  0  0  0  0  0  0  0  0  0  0  # atno 6907 bound_to 6896
  150.7427  134.5932  159.6008 H   0  0  0  0  0  0  0  0  0  0  0  0  # atno 6908 bound_to 6896
  152.3277  134.7301  160.0349 H   0  0  0  0  0  0  0  0  0  0  0  0  # atno 6909 bound_to 6896
  145.1900  140.9010  143.3430 H   0  0  0  0  0  0  0  0  0  0  0  0  # atno 7974 bound_to 7965
  156.1498  140.1576  156.8789 H   0  0  0  0  0  0  0  0  0  0  0  0  # atno 8008 bound_to 7997
  154.5060  140.0813  156.7933 H   0  0  0  0  0  0  0  0  0  0  0  0  # atno 8009 bound_to 7997
  155.3919  140.3410  155.4254 H   0  0  0  0  0  0  0  0  0  0  0  0  # atno 8010 bound_to 7997
  139.5280  144.6596  151.5053 H   0  0  0  0  0  0  0  0  0  0  0  0  # atno 10167 bound_to 10162
  157.6525  130.9604  150.0999 H   0  0  0  0  0  0  0  0  0  0  0  0  # atno 10718 bound_to 10713
  153.3794  135.6998  153.6577 H   0  0  0  0  0  0  0  0  0  0  0  0  # atno 10763 bound_to 10752
  153.5194  135.3615  155.2625 H   0  0  0  0  0  0  0  0  0  0  0  0  # atno 10764 bound_to 10752
  154.8691  135.4154  154.3089 H   0  0  0  0  0  0  0  0  0  0  0  0  # atno 10765 bound_to 10752
  140.8770  133.7681  156.0255 H   0  0  0  0  0  0  0  0  0  0  0  0  # atno 11005 bound_to 11000
  145.0051  139.3562  143.6148 LP  0  0  0  0  0  0  0  0  0  0  0  0  # atno 17320 bound_to 7965
  146.3438  139.9290  142.8756 LP  0  0  0  0  0  0  0  0  0  0  0  0  # atno 17321 bound_to 7965
  140.6439  143.8834  150.6718 LP  0  0  0  0  0  0  0  0  0  0  0  0  # atno 17342 bound_to 10162
  140.2178  143.3833  152.1667 LP  0  0  0  0  0  0  0  0  0  0  0  0  # atno 17343 bound_to 10162
  156.1925  130.3655  149.8892 LP  0  0  0  0  0  0  0  0  0  0  0  0  # atno 17370 bound_to 10713
  156.6816  130.8860  151.3576 LP  0  0  0  0  0  0  0  0  0  0  0  0  # atno 17371 bound_to 10713
  140.8507  134.2958  157.5276 LP  0  0  0  0  0  0  0  0  0  0  0  0  # atno 17394 bound_to 11000
  139.8716  134.9466  156.3943 LP  0  0  0  0  0  0  0  0  0  0  0  0  # atno 17395 bound_to 11000

$$$$
