AV-unprocessed.smi:292|AV-procd|sdf|2250|dock9
  -GOLD-   2262022133D 1   1.00000     0.00000
 Structure written by MMmdl.
 33 34  0  0  0  0  0  0  0  0  1 V2000
  149.3158  134.0240  157.9586 N   0  0  0  0  0  0  0  0  0  0  0  0
  149.6339  134.8481  157.2110 C   0  0  0  0  0  0  0  0  0  0  0  0
  150.0336  135.8829  156.2724 C   0  0  0  0  0  0  0  0  0  0  0  0
  150.9187  135.6281  155.2652 N   0  0  0  0  0  0  0  0  0  0  0  0
  150.9536  136.8342  154.7121 C   0  0  0  0  0  0  0  0  0  0  0  0
  150.1719  137.7337  155.3192 N   0  0  0  0  0  0  0  0  0  0  0  0
  149.9483  139.1393  155.0282 C   0  0  0  0  0  0  0  0  0  0  0  0
  150.9989  140.0204  155.7066 C   0  0  0  0  0  0  0  0  0  0  0  0
  152.1413  140.0764  155.2523 O   0  0  0  0  0  0  0  0  0  0  0  0
  150.5975  140.7033  156.7907 N   0  0  0  0  0  0  0  0  0  0  0  0
  151.4373  141.5628  157.6248 C   0  0  1  0  0  0  0  0  0  0  0  0
  150.8347  142.9828  157.7026 C   0  0  0  0  0  0  0  0  0  0  0  0
  151.8553  144.0741  158.0635 C   0  0  0  0  0  0  0  0  0  0  0  0
  152.4946  143.9266  159.4525 C   0  0  0  0  0  0  0  0  0  0  0  0
  153.3704  142.6702  159.6009 C   0  0  0  0  0  0  0  0  0  0  0  0
  152.5856  141.4629  159.8281 N   0  0  0  0  0  0  0  0  0  0  0  0
  151.6937  140.9062  158.9946 C   0  0  0  0  0  0  0  0  0  0  0  0
  151.0843  139.8879  159.3216 O   0  0  0  0  0  0  0  0  0  0  0  0
  149.5508  137.1208  156.3565 N   0  0  0  0  0  0  0  0  0  0  0  0
  151.5650  137.0692  153.8532 H   0  0  0  0  0  0  0  0  0  0  0  0
  149.9810  139.2802  153.9469 H   0  0  0  0  0  0  0  0  0  0  0  0
  148.9513  139.4301  155.3626 H   0  0  0  0  0  0  0  0  0  0  0  0
  149.6389  140.5907  157.0894 H   0  0  0  0  0  0  0  0  0  0  0  0
  152.4097  141.6274  157.1327 H   0  0  0  0  0  0  0  0  0  0  0  0
  150.4050  143.2499  156.7361 H   0  0  0  0  0  0  0  0  0  0  0  0
  150.0027  142.9994  158.4082 H   0  0  0  0  0  0  0  0  0  0  0  0
  152.6376  144.1042  157.3040 H   0  0  0  0  0  0  0  0  0  0  0  0
  151.3569  145.0429  158.0124 H   0  0  0  0  0  0  0  0  0  0  0  0
  153.1212  144.8017  159.6275 H   0  0  0  0  0  0  0  0  0  0  0  0
  151.7280  143.9495  160.2283 H   0  0  0  0  0  0  0  0  0  0  0  0
  154.0259  142.5420  158.7384 H   0  0  0  0  0  0  0  0  0  0  0  0
  154.0240  142.7911  160.4651 H   0  0  0  0  0  0  0  0  0  0  0  0
  152.7276  141.0030  160.7160 H   0  0  0  0  0  0  0  0  0  0  0  0
  1  2  3  0  0  0  0
  2  3  1  0  0  0  0
  3 19  2  0  0  0  0
  3  4  1  0  0  0  0
  4  5  2  0  0  0  0
  5  6  1  0  0  0  0
  5 20  1  0  0  0  0
  6  7  1  0  0  0  0
  6 19  1  0  0  0  0
  7  8  1  0  0  0  0
  7 21  1  0  0  0  0
  7 22  1  0  0  0  0
  8  9  2  0  0  0  0
  8 10  1  0  0  0  0
 10 11  1  0  0  0  0
 10 23  1  0  0  0  0
 11 17  1  0  0  0  0
 11 12  1  0  0  0  0
 11 24  1  0  0  0  0
 12 13  1  0  0  0  0
 12 25  1  0  0  0  0
 12 26  1  0  0  0  0
 13 14  1  0  0  0  0
 13 27  1  0  0  0  0
 13 28  1  0  0  0  0
 14 15  1  0  0  0  0
 14 29  1  0  0  0  0
 14 30  1  0  0  0  0
 15 16  1  0  0  0  0
 15 31  1  0  0  0  0
 15 32  1  0  0  0  0
 16 17  1  0  0  0  0
 16 33  1  0  0  0  0
 17 18  2  0  0  0  0
M  END
> <s_m_source_file>
AV-unprocessed.smi

> <i_m_source_file_index>
292

> <i_lp_mmshare_version>
43012

> <i_f3d_flags>
0

> <s_epik_input>
TiNDYzFuW2NIXW4objEpW0NIMl1DKD1PKVtOSF1bQ0BASF0yW0NIMl1bQ0gyXVtDSDJdW0NIMl1bTkhdQzI9Tw==

> <s_epik_cmdline>
J2VwaWtfcHl0aG9uJywgJy1waCcsICc3LjAnLCAnLXRuJywgJzgnLCAnLW1hJywgJzIwMCcsICctbWV0YWxfYmluZGluZycsICctaW1hZScsICc8aW5maWxlLm1hZT4nLCAnLW9tYWUnLCAnPG91dGZpbGUubWFlPic=

> <r_lp_tautomer_probability>
1

> <r_epik_Ionization_Penalty>
1.99744e-07

> <r_epik_Ionization_Penalty_Charging>
0

> <r_epik_Ionization_Penalty_Neutral>
1.99744e-07

> <r_epik_State_Penalty>
-0

> <r_epik_Charging_Adjusted_Penalty>
0

> <i_epik_Tot_Q>
0

> <i_epik_Tot_abs_Q>
0

> <r_epik_Metal_State_Penalty>
-0

> <b_epik_Metal_Only>
0

> <s_lp_Force_Field>
OPLS_2005

> <r_lp_Energy>
14.2569

> <b_lp_Chiralities_Consistent>
1

> <s_lp_Variant>
AV-unprocessed.smi:292-2

> <Gold.Version>
5.8.1

> <Gold.Id.Protein>
6NUR|6NUR_protein|mol2

> <Gold.PLP.Fitness>
40.2767

> <Gold.PLP.PLP>
-31.7322

> <Gold.PLP.part.hbond>
-3.1192

> <Gold.PLP.part.metal>
0.0000

> <Gold.PLP.part.buried>
-3.3470

> <Gold.PLP.part.nonpolar>
-26.6362

> <Gold.PLP.part.repulsive>
0.3733

> <Gold.PLP.ligand.clash>
0.0000

> <Gold.PLP.ligand.torsion>
0.6157

> <Gold.PLP.Chemscore.Hbond>
2.4860

> <Gold.PLP.Chemscore.CHOScore>
0.7631

> <Gold.PLP.Chemscore.Metal>
0.0000

> <Gold.Chemscore.Hbonds>
donor molecule, donor type, donor heavy atom, donor atom, acceptor molecule, acceptor atom, score
      P1  H  6896  6909       L1     1  1.00
      P1  H  7989  7998       L1     9  0.63
      P1  H 10752 10764       L1     4  0.26
      L1  C     5    20       P1  7949  0.65

> <Gold.PLP.Chemscore.Internal.Correction>
0.0286

> <Gold.Rescore>
     Score         DG    S(hbond)    S(metal)    S(lipo)     H(rot)  DE(clash)    DE(int)     intcor
     13.59     -14.23       2.31        0.00      55.86       2.14       0.05       0.59       ----

> <Gold.Chemscore.Fitness>
13.5903

> <Gold.Chemscore.DG>
-14.2345

> <Gold.Chemscore.ZeroCoef>
-5.4800

> <Gold.Chemscore.Hbond>
2.3080

> <Gold.Chemscore.Metal>
0.0000

> <Gold.Chemscore.Lipo>
55.8570

> <Gold.Chemscore.Internal_Hbond>
0.0000

> <Gold.Chemscore.DEClash>
0.0497

> <Gold.Chemscore.DEInternal>
0.5944

> <Gold.Chemscore.Rot>
2.1444

> <Gold.Chemscore.Internal.Correction>
   9.000000E+99

> <Gold.Chemscore.Hbonds>
donor molecule, donor type, donor heavy atom, donor atom, acceptor molecule, acceptor atom, score
      P1  H  6896  6909       L1     1  0.60
      P1  H  7989  7998       L1     9  0.11
      P1  H 10752 10764       L1     4  0.01

> <Gold.Chemscore.Hbond.Weighted>
-7.7088

> <Gold.Chemscore.Metal.Weighted>
-0.0000

> <Gold.Chemscore.Lipo.Weighted>
-6.5353

> <Gold.Chemscore.Internal_Hbond.Weighted>
0.0000

> <Gold.Chemscore.DEClash.Weighted>
0.0497

> <Gold.Chemscore.DEInternal.Weighted>
0.5944

> <Gold.Chemscore.Rot.Weighted>
5.4896

> <Gold.Chemscore.Internal.Correction.Weighted>
   9.000000E+99

> <Gold.Protein.RotatedTorsions>
[ 6907 6896 6895 6894 ] final    4.01 input  -60.11 | X-H torsion
[ 7974 7965 7964 7962 ] final   58.30 input  175.53 | X-H torsion
[ 8008 7997 7996 7995 ] final   34.29 input   59.86 | X-H torsion
[ 10167 10162 10161 10158 ] final  104.63 input  -65.29 | X-H torsion
[ 10718 10713 10712 10709 ] final   38.65 input   66.30 | X-H torsion
[ 10763 10752 10751 10750 ] final  -42.99 input  -60.55 | X-H torsion
[ 11005 11000 10999 10996 ] final -167.66 input  -57.11 | X-H torsion

> <Gold.Protein.ActiveResidues>
 VAL166  LYS551  ARG553  GLY616  TRP617  ASP618  TYR619  PRO620  LYS621  CYS622 
 ASP623  PHE694  ASN695  SER759  ASP760  ASP761  ALA762  ILE779  LEU786  VAL792 
 PHE793  MET794  SER795  GLU796  ALA797  LYS798  CYS799  TRP800  GLU811  SER814 

> <Gold.Protein.RotatedAtoms>
  151.6343  135.1019  160.0127 H   0  0  0  0  0  0  0  0  0  0  0  0  # atno 6907 bound_to 6896
  152.4089  133.6928  159.6389 H   0  0  0  0  0  0  0  0  0  0  0  0  # atno 6908 bound_to 6896
  150.7981  133.8576  159.3264 H   0  0  0  0  0  0  0  0  0  0  0  0  # atno 6909 bound_to 6896
  145.9197  139.3719  143.0486 H   0  0  0  0  0  0  0  0  0  0  0  0  # atno 7974 bound_to 7965
  155.1525  140.3276  155.4428 H   0  0  0  0  0  0  0  0  0  0  0  0  # atno 8008 bound_to 7997
  156.2569  140.1974  156.6586 H   0  0  0  0  0  0  0  0  0  0  0  0  # atno 8009 bound_to 7997
  154.6463  140.0564  156.9890 H   0  0  0  0  0  0  0  0  0  0  0  0  # atno 8010 bound_to 7997
  139.7161  144.7068  151.0948 H   0  0  0  0  0  0  0  0  0  0  0  0  # atno 10167 bound_to 10162
  157.3613  130.7651  149.7050 H   0  0  0  0  0  0  0  0  0  0  0  0  # atno 10718 bound_to 10713
  153.9881  135.6708  153.4753 H   0  0  0  0  0  0  0  0  0  0  0  0  # atno 10763 bound_to 10752
  153.0717  135.4970  154.8316 H   0  0  0  0  0  0  0  0  0  0  0  0  # atno 10764 bound_to 10752
  154.7125  135.3100  154.9137 H   0  0  0  0  0  0  0  0  0  0  0  0  # atno 10765 bound_to 10752
  140.5507  134.5431  157.5121 H   0  0  0  0  0  0  0  0  0  0  0  0  # atno 11005 bound_to 11000
  145.8566  140.9499  143.0722 LP  0  0  0  0  0  0  0  0  0  0  0  0  # atno 17320 bound_to 7965
  144.6751  140.0476  143.7479 LP  0  0  0  0  0  0  0  0  0  0  0  0  # atno 17321 bound_to 7965
  140.7744  143.5228  150.9516 LP  0  0  0  0  0  0  0  0  0  0  0  0  # atno 17342 bound_to 10162
  139.8914  143.6948  152.3144 LP  0  0  0  0  0  0  0  0  0  0  0  0  # atno 17343 bound_to 10162
  155.9738  130.4113  150.3973 LP  0  0  0  0  0  0  0  0  0  0  0  0  # atno 17370 bound_to 10713
  157.2051  131.0447  151.2629 LP  0  0  0  0  0  0  0  0  0  0  0  0  # atno 17371 bound_to 10713
  139.9457  134.7707  156.0569 LP  0  0  0  0  0  0  0  0  0  0  0  0  # atno 17394 bound_to 11000
  141.1173  133.6623  156.3126 LP  0  0  0  0  0  0  0  0  0  0  0  0  # atno 17395 bound_to 11000

$$$$
