AV-unprocessed.smi:743|AV-procd|sdf|3561|dock3
  -GOLD-   22720 0563D 1   1.00000     0.00000
 Structure written by MMmdl.
 29 30  0  0  0  0  0  0  0  0  2 V2000
  148.7728  141.2287  154.0172 C   0  0  0  0  0  0  0  0  0  0  0  0
  149.7237  141.1697  155.1066 N   0  0  0  0  0  0  0  0  0  0  0  0
  149.6796  141.8174  156.3218 C   0  0  0  0  0  0  0  0  0  0  0  0
  150.7983  141.4575  157.0227 C   0  0  0  0  0  0  0  0  0  0  0  0
  151.2350  141.8733  158.4072 C   0  0  1  0  0  0  0  0  0  0  0  0
  152.4734  141.1877  158.7861 N   0  0  0  0  0  0  0  0  0  0  0  0
  153.4690  141.6800  159.5449 C   0  0  0  0  0  0  0  0  0  0  0  0
  154.4373  140.9915  159.8559 O   0  0  0  0  0  0  0  0  0  0  0  0
  153.4095  143.1465  159.9997 C   0  0  0  0  0  0  0  0  0  0  0  0
  152.0180  143.7845  159.8534 C   0  0  0  0  0  0  0  0  0  0  0  0
  151.3814  143.4095  158.5102 C   0  0  2  0  0  0  0  0  0  0  0  0
  150.0897  144.0953  158.3232 N   0  3  0  0  0  0  0  0  0  0  0  0
  151.4718  140.5756  156.1286 C   0  0  0  0  0  0  0  0  0  0  0  0
  150.8266  140.4033  154.9876 N   0  0  0  0  0  0  0  0  0  0  0  0
  152.0404  143.7574  157.7127 H   0  0  0  0  0  0  0  0  0  0  0  0
  147.8220  141.6266  154.3731 H   0  0  0  0  0  0  0  0  0  0  0  0
  148.6073  140.2302  153.6105 H   0  0  0  0  0  0  0  0  0  0  0  0
  149.1579  141.8770  153.2296 H   0  0  0  0  0  0  0  0  0  0  0  0
  148.8627  142.4735  156.5859 H   0  0  0  0  0  0  0  0  0  0  0  0
  150.4893  141.5525  159.1365 H   0  0  0  0  0  0  0  0  0  0  0  0
  152.5608  140.2275  158.4846 H   0  0  0  0  0  0  0  0  0  0  0  0
  153.7484  143.2210  161.0337 H   0  0  0  0  0  0  0  0  0  0  0  0
  154.1276  143.7036  159.3970 H   0  0  0  0  0  0  0  0  0  0  0  0
  151.3769  143.4603  160.6748 H   0  0  0  0  0  0  0  0  0  0  0  0
  152.1065  144.8681  159.9403 H   0  0  0  0  0  0  0  0  0  0  0  0
  150.1907  145.0748  158.5480 H   0  0  0  0  0  0  0  0  0  0  0  0
  149.3985  143.6791  158.9309 H   0  0  0  0  0  0  0  0  0  0  0  0
  152.4062  140.0547  156.2770 H   0  0  0  0  0  0  0  0  0  0  0  0
  149.7932  143.9993  157.3623 H   0  0  0  0  0  0  0  0  0  0  0  0
  1  2  1  0  0  0  0
  1 16  1  0  0  0  0
  1 17  1  0  0  0  0
  1 18  1  0  0  0  0
  2 14  1  0  0  0  0
  2  3  1  0  0  0  0
  3  4  2  0  0  0  0
  3 19  1  0  0  0  0
  4  5  1  0  0  0  0
  4 13  1  0  0  0  0
  5 11  1  0  0  0  0
  5  6  1  0  0  0  0
  5 20  1  0  0  0  0
  6  7  1  0  0  0  0
  6 21  1  0  0  0  0
  7  8  2  0  0  0  0
  7  9  1  0  0  0  0
  9 10  1  0  0  0  0
  9 22  1  0  0  0  0
  9 23  1  0  0  0  0
 10 11  1  0  0  0  0
 10 24  1  0  0  0  0
 10 25  1  0  0  0  0
 11 15  1  0  0  0  0
 11 12  1  0  0  0  0
 12 26  1  0  0  0  0
 12 27  1  0  0  0  0
 12 29  1  0  0  0  0
 13 14  2  0  0  0  0
 13 28  1  0  0  0  0
M  CHG  1  12   1
M  END
> <s_m_source_file>
AV-unprocessed.smi

> <i_m_source_file_index>
743

> <i_lp_mmshare_version>
43012

> <i_f3d_flags>
0

> <s_epik_input>
W0NIM11uMVtjSF1jKFtjSF1uMSlbQ0BASF0yW05IXUMoPU8pW0NIMl1bQ0gyXVtDQEBIXTJbTkgyXQ==

> <s_epik_cmdline>
J2VwaWtfcHl0aG9uJywgJy1waCcsICc3LjAnLCAnLXRuJywgJzgnLCAnLW1hJywgJzIwMCcsICctbWV0YWxfYmluZGluZycsICctaW1hZScsICc8aW5maWxlLm1hZT4nLCAnLW9tYWUnLCAnPG91dGZpbGUubWFlPic=

> <r_lp_tautomer_probability>
1

> <r_epik_Ionization_Penalty>
0.00878543

> <r_epik_Ionization_Penalty_Charging>
0.00874185

> <r_epik_Ionization_Penalty_Neutral>
4.35793e-05

> <r_epik_State_Penalty>
0.00660351

> <r_epik_Charging_Adjusted_Penalty>
0.0153454

> <i_epik_Tot_Q>
1

> <i_epik_Tot_abs_Q>
1

> <r_epik_Metal_State_Penalty>
0.00660727

> <b_epik_Metal_Only>
0

> <s_lp_Force_Field>
OPLS_2005

> <r_lp_Energy>
10.7235

> <b_lp_Chiralities_Consistent>
1

> <s_lp_Variant>
AV-unprocessed.smi:743-2

> <Gold.Version>
5.8.1

> <Gold.Id.Protein>
6NUR|6NUR_protein|mol2

> <Gold.PLP.Fitness>
41.9047

> <Gold.PLP.PLP>
-30.6270

> <Gold.PLP.part.hbond>
-2.9981

> <Gold.PLP.part.metal>
0.0000

> <Gold.PLP.part.buried>
-2.8127

> <Gold.PLP.part.nonpolar>
-24.8723

> <Gold.PLP.part.repulsive>
0.2387

> <Gold.PLP.ligand.clash>
0.0000

> <Gold.PLP.ligand.torsion>
0.0112

> <Gold.PLP.Chemscore.Hbond>
2.9840

> <Gold.PLP.Chemscore.CHOScore>
0.7755

> <Gold.PLP.Chemscore.Metal>
0.0000

> <Gold.Chemscore.Hbonds>
donor molecule, donor type, donor heavy atom, donor atom, acceptor molecule, acceptor atom, score
      L1  H    12    29       P1  8028  1.98
      P1  H  7989  7998       L1    14  1.00
      L1  C     3    19       P1  8028  0.76

> <Gold.PLP.Chemscore.Internal.Correction>
0.0215

> <Gold.Rescore>
     Score         DG    S(hbond)    S(metal)    S(lipo)     H(rot)  DE(clash)    DE(int)     intcor
     15.33     -15.81       1.35        0.00      71.63       1.00       0.20       0.28       ----

> <Gold.Chemscore.Fitness>
15.3314

> <Gold.Chemscore.DG>
-15.8075

> <Gold.Chemscore.ZeroCoef>
-5.4800

> <Gold.Chemscore.Hbond>
1.3493

> <Gold.Chemscore.Metal>
0.0000

> <Gold.Chemscore.Lipo>
71.6311

> <Gold.Chemscore.Internal_Hbond>
0.0000

> <Gold.Chemscore.DEClash>
0.1973

> <Gold.Chemscore.DEInternal>
0.2788

> <Gold.Chemscore.Rot>
1.0000

> <Gold.Chemscore.Internal.Correction>
   9.000000E+99

> <Gold.Chemscore.Hbonds>
donor molecule, donor type, donor heavy atom, donor atom, acceptor molecule, acceptor atom, score
      L1  H    12    29       P1  8028  0.53
      P1  H  7989  7998       L1    14  0.56

> <Gold.Chemscore.Hbond.Weighted>
-4.5067

> <Gold.Chemscore.Metal.Weighted>
-0.0000

> <Gold.Chemscore.Lipo.Weighted>
-8.3808

> <Gold.Chemscore.Internal_Hbond.Weighted>
0.0000

> <Gold.Chemscore.DEClash.Weighted>
0.1973

> <Gold.Chemscore.DEInternal.Weighted>
0.2788

> <Gold.Chemscore.Rot.Weighted>
2.5600

> <Gold.Chemscore.Internal.Correction.Weighted>
   9.000000E+99

> <Gold.Protein.RotatedTorsions>
[ 6907 6896 6895 6894 ] final   19.29 input  -60.11 | X-H torsion
[ 7974 7965 7964 7962 ] final -163.22 input  175.53 | X-H torsion
[ 8008 7997 7996 7995 ] final   31.89 input   59.86 | X-H torsion
[ 10167 10162 10161 10158 ] final -143.84 input  -65.29 | X-H torsion
[ 10718 10713 10712 10709 ] final  -48.56 input   66.30 | X-H torsion
[ 10763 10752 10751 10750 ] final  -44.58 input  -60.55 | X-H torsion
[ 11005 11000 10999 10996 ] final  161.97 input  -57.11 | X-H torsion

> <Gold.Protein.ActiveResidues>
 VAL166  LYS551  ARG553  GLY616  TRP617  ASP618  TYR619  PRO620  LYS621  CYS622 
 ASP623  PHE694  ASN695  SER759  ASP760  ASP761  ALA762  ILE779  LEU786  VAL792 
 PHE793  MET794  SER795  GLU796  ALA797  LYS798  CYS799  TRP800  GLU811  SER814 

> <Gold.Protein.RotatedAtoms>
  151.8786  135.0462  160.0486 H   0  0  0  0  0  0  0  0  0  0  0  0  # atno 6907 bound_to 6896
  152.2531  133.5228  159.5345 H   0  0  0  0  0  0  0  0  0  0  0  0  # atno 6908 bound_to 6896
  150.7090  134.0849  159.3953 H   0  0  0  0  0  0  0  0  0  0  0  0  # atno 6909 bound_to 6896
  144.7332  140.3138  143.6183 H   0  0  0  0  0  0  0  0  0  0  0  0  # atno 7974 bound_to 7965
  155.1136  140.3241  155.4515 H   0  0  0  0  0  0  0  0  0  0  0  0  # atno 8008 bound_to 7997
  156.2683  140.2039  156.6208 H   0  0  0  0  0  0  0  0  0  0  0  0  # atno 8009 bound_to 7997
  154.6737  140.0534  157.0179 H   0  0  0  0  0  0  0  0  0  0  0  0  # atno 8010 bound_to 7997
  139.7955  143.7906  152.2654 H   0  0  0  0  0  0  0  0  0  0  0  0  # atno 10167 bound_to 10162
  156.1976  130.4155  149.9285 H   0  0  0  0  0  0  0  0  0  0  0  0  # atno 10718 bound_to 10713
  154.0143  135.6677  153.4767 H   0  0  0  0  0  0  0  0  0  0  0  0  # atno 10763 bound_to 10752
  153.0607  135.5029  154.8083 H   0  0  0  0  0  0  0  0  0  0  0  0  # atno 10764 bound_to 10752
  154.6976  135.3073  154.9352 H   0  0  0  0  0  0  0  0  0  0  0  0  # atno 10765 bound_to 10752
  140.2211  134.8195  157.3221 H   0  0  0  0  0  0  0  0  0  0  0  0  # atno 11005 bound_to 11000
  145.7637  139.1833  143.2252 LP  0  0  0  0  0  0  0  0  0  0  0  0  # atno 17320 bound_to 7965
  146.0966  140.7594  142.9569 LP  0  0  0  0  0  0  0  0  0  0  0  0  # atno 17321 bound_to 7965
  139.8010  144.7374  150.9824 LP  0  0  0  0  0  0  0  0  0  0  0  0  # atno 17342 bound_to 10162
  140.7820  143.4345  151.0644 LP  0  0  0  0  0  0  0  0  0  0  0  0  # atno 17343 bound_to 10162
  156.7005  130.8931  151.3599 LP  0  0  0  0  0  0  0  0  0  0  0  0  # atno 17370 bound_to 10713
  157.6967  130.9289  150.0664 LP  0  0  0  0  0  0  0  0  0  0  0  0  # atno 17371 bound_to 10713
  140.1849  134.4444  155.7750 LP  0  0  0  0  0  0  0  0  0  0  0  0  # atno 17394 bound_to 11000
  141.2223  133.7000  156.7930 LP  0  0  0  0  0  0  0  0  0  0  0  0  # atno 17395 bound_to 11000

$$$$
