AV-unprocessed.smi:2510|AV-procd|sdf|9881|dock8
  -GOLD-   2272013513D 1   1.00000     0.00000
 Structure written by MMmdl.
 48 49  0  0  0  0  0  0  0  0  1 V2000
  150.7661  137.7813  158.0406 C   0  0  0  0  0  0  0  0  0  0  0  0
  150.2819  138.6871  156.8960 C   0  0  0  0  0  0  0  0  0  0  0  0
  150.0971  137.9770  155.5323 C   0  0  0  0  0  0  0  0  0  0  0  0
  151.4823  137.5376  154.9964 C   0  0  0  0  0  0  0  0  0  0  0  0
  152.4814  138.6807  154.7598 C   0  0  0  0  0  0  0  0  0  0  0  0
  148.9455  136.9255  155.5405 C   0  0  2  0  0  0  0  0  0  0  0  0
  149.1411  135.8269  154.5948 N   0  0  0  0  0  0  0  0  0  0  0  0
  149.1065  134.5252  154.9174 C   0  0  0  0  0  0  0  0  0  0  0  0
  148.8209  134.1110  156.0405 O   0  0  0  0  0  0  0  0  0  0  0  0
  149.4812  133.5417  153.8086 C   0  0  0  0  0  0  0  0  0  0  0  0
  148.2595  133.0883  153.0743 C   0  0  0  0  0  0  0  0  0  0  0  0
  147.6100  131.8856  153.0601 C   0  0  0  0  0  0  0  0  0  0  0  0
  146.4976  132.0960  152.1939 C   0  0  0  0  0  0  0  0  0  0  0  0
  145.4265  131.1189  151.8088 C   0  0  0  0  0  0  0  0  0  0  0  0
  146.4633  133.3262  151.7040 N   0  0  0  0  0  0  0  0  0  0  0  0
  147.5421  133.9209  152.2451 N   0  0  0  0  0  0  0  0  0  0  0  0
  147.9823  137.9930  154.9899 C   0  0  2  0  0  0  0  0  0  0  0  0
  146.8829  137.6120  154.0014 C   0  0  0  0  0  0  0  0  0  0  0  0
  149.2306  138.7404  154.4998 C   0  0  1  0  0  0  0  0  0  0  0  0
  149.2199  140.1434  154.7192 O   0  0  0  0  0  0  0  0  0  0  0  0
  148.2106  140.8139  153.9855 C   0  0  0  0  0  0  0  0  0  0  0  0
  147.7687  134.8858  152.0502 H   0  0  0  0  0  0  0  0  0  0  0  0
  150.7557  138.3236  158.9860 H   0  0  0  0  0  0  0  0  0  0  0  0
  151.7873  137.4369  157.8807 H   0  0  0  0  0  0  0  0  0  0  0  0
  150.1295  136.9046  158.1585 H   0  0  0  0  0  0  0  0  0  0  0  0
  149.3356  139.1265  157.2122 H   0  0  0  0  0  0  0  0  0  0  0  0
  150.9558  139.5383  156.8047 H   0  0  0  0  0  0  0  0  0  0  0  0
  151.9318  136.7859  155.6446 H   0  0  0  0  0  0  0  0  0  0  0  0
  151.3654  137.0388  154.0345 H   0  0  0  0  0  0  0  0  0  0  0  0
  153.3757  138.3072  154.2609 H   0  0  0  0  0  0  0  0  0  0  0  0
  152.8044  139.1403  155.6933 H   0  0  0  0  0  0  0  0  0  0  0  0
  152.0526  139.4587  154.1279 H   0  0  0  0  0  0  0  0  0  0  0  0
  148.6521  136.5926  156.5372 H   0  0  0  0  0  0  0  0  0  0  0  0
  149.3834  136.0760  153.6469 H   0  0  0  0  0  0  0  0  0  0  0  0
  150.1819  134.0137  153.1185 H   0  0  0  0  0  0  0  0  0  0  0  0
  149.9979  132.6869  154.2464 H   0  0  0  0  0  0  0  0  0  0  0  0
  147.8827  130.9898  153.5978 H   0  0  0  0  0  0  0  0  0  0  0  0
  145.4474  130.2389  152.4518 H   0  0  0  0  0  0  0  0  0  0  0  0
  145.5563  130.7821  150.7802 H   0  0  0  0  0  0  0  0  0  0  0  0
  144.4354  131.5655  151.8924 H   0  0  0  0  0  0  0  0  0  0  0  0
  147.5509  138.5313  155.8355 H   0  0  0  0  0  0  0  0  0  0  0  0
  147.2941  137.2366  153.0640 H   0  0  0  0  0  0  0  0  0  0  0  0
  146.2528  138.4678  153.7607 H   0  0  0  0  0  0  0  0  0  0  0  0
  146.2362  136.8373  154.4132 H   0  0  0  0  0  0  0  0  0  0  0  0
  149.4980  138.4766  153.4740 H   0  0  0  0  0  0  0  0  0  0  0  0
  148.2841  141.8868  154.1624 H   0  0  0  0  0  0  0  0  0  0  0  0
  147.2156  140.4930  154.2928 H   0  0  0  0  0  0  0  0  0  0  0  0
  148.3205  140.6420  152.9140 H   0  0  0  0  0  0  0  0  0  0  0  0
  1  2  1  0  0  0  0
  1 23  1  0  0  0  0
  1 24  1  0  0  0  0
  1 25  1  0  0  0  0
  2  3  1  0  0  0  0
  2 26  1  0  0  0  0
  2 27  1  0  0  0  0
  3 19  1  0  0  0  0
  3  4  1  0  0  0  0
  3  6  1  0  0  0  0
  4  5  1  0  0  0  0
  4 28  1  0  0  0  0
  4 29  1  0  0  0  0
  5 30  1  0  0  0  0
  5 31  1  0  0  0  0
  5 32  1  0  0  0  0
  6  7  1  0  0  0  0
  6 17  1  0  0  0  0
  6 33  1  0  0  0  0
  7  8  1  0  0  0  0
  7 34  1  0  0  0  0
  8  9  2  0  0  0  0
  8 10  1  0  0  0  0
 10 35  1  0  0  0  0
 10 36  1  0  0  0  0
 10 11  1  0  0  0  0
 11 16  1  0  0  0  0
 11 12  2  0  0  0  0
 12 13  1  0  0  0  0
 12 37  1  0  0  0  0
 13 14  1  0  0  0  0
 13 15  2  0  0  0  0
 14 38  1  0  0  0  0
 14 39  1  0  0  0  0
 14 40  1  0  0  0  0
 15 16  1  0  0  0  0
 16 22  1  0  0  0  0
 17 18  1  0  0  0  0
 17 19  1  0  0  0  0
 17 41  1  0  0  0  0
 18 42  1  0  0  0  0
 18 43  1  0  0  0  0
 18 44  1  0  0  0  0
 19 20  1  0  0  0  0
 19 45  1  0  0  0  0
 20 21  1  0  0  0  0
 21 46  1  0  0  0  0
 21 47  1  0  0  0  0
 21 48  1  0  0  0  0
M  END
> <s_m_source_file>
AV-unprocessed.smi

> <i_m_source_file_index>
2510

> <i_lp_mmshare_version>
43012

> <i_f3d_flags>
0

> <s_epik_input>
W0NIM11PW0NAQEhdMVtDQEhdKFtDSDNdKVtDQEBIXShDMShbQ0gyXVtDSDNdKVtDSDJdW0NIM10pW05IXUMoPU8pW0NIMl1jMltjSF1jKFtDSDNdKVtuSF1uMg==

> <s_epik_cmdline>
J2VwaWtfcHl0aG9uJywgJy1waCcsICc3LjAnLCAnLXRuJywgJzgnLCAnLW1hJywgJzIwMCcsICctbWV0YWxfYmluZGluZycsICctaW1hZScsICc8aW5maWxlLm1hZT4nLCAnLW9tYWUnLCAnPG91dGZpbGUubWFlPic=

> <r_lp_tautomer_probability>
0.5

> <r_epik_Ionization_Penalty>
0.000134763

> <r_epik_Ionization_Penalty_Charging>
0

> <r_epik_Ionization_Penalty_Neutral>
0.000134763

> <r_epik_State_Penalty>
0.41068

> <r_epik_Charging_Adjusted_Penalty>
0.41068

> <i_epik_Tot_Q>
0

> <i_epik_Tot_abs_Q>
0

> <r_epik_Metal_State_Penalty>
0.410661

> <b_epik_Metal_Only>
0

> <s_lp_Force_Field>
OPLS_2005

> <r_lp_Energy>
24.0531

> <b_lp_Chiralities_Consistent>
1

> <s_lp_Variant>
AV-unprocessed.smi:2510-12

> <Gold.Version>
5.8.1

> <Gold.Id.Protein>
6NUR|6NUR_protein|mol2

> <Gold.PLP.Fitness>
35.4780

> <Gold.PLP.PLP>
-30.4763

> <Gold.PLP.part.hbond>
-2.0000

> <Gold.PLP.part.metal>
0.0000

> <Gold.PLP.part.buried>
-5.3894

> <Gold.PLP.part.nonpolar>
-24.5172

> <Gold.PLP.part.repulsive>
0.2864

> <Gold.PLP.ligand.clash>
0.0000

> <Gold.PLP.ligand.torsion>
0.7853

> <Gold.PLP.Chemscore.Hbond>
2.0000

> <Gold.PLP.Chemscore.CHOScore>
0.0000

> <Gold.PLP.Chemscore.Metal>
0.0000

> <Gold.Chemscore.Hbonds>
donor molecule, donor type, donor heavy atom, donor atom, acceptor molecule, acceptor atom, score
      L1  H     7    34       P1  7948  1.00
      L1  H    16    22       P1  7948  1.00

> <Gold.PLP.Chemscore.Internal.Correction>
0.5723

> <Gold.Rescore>
     Score         DG    S(hbond)    S(metal)    S(lipo)     H(rot)  DE(clash)    DE(int)     intcor
     14.38     -15.18       1.65        0.00      75.34       1.81       0.00       0.80       ----

> <Gold.Chemscore.Fitness>
14.3837

> <Gold.Chemscore.DG>
-15.1835

> <Gold.Chemscore.ZeroCoef>
-5.4800

> <Gold.Chemscore.Hbond>
1.6534

> <Gold.Chemscore.Metal>
0.0000

> <Gold.Chemscore.Lipo>
75.3432

> <Gold.Chemscore.Internal_Hbond>
0.0000

> <Gold.Chemscore.DEClash>
0.0000

> <Gold.Chemscore.DEInternal>
0.7998

> <Gold.Chemscore.Rot>
1.8102

> <Gold.Chemscore.Internal.Correction>
   9.000000E+99

> <Gold.Chemscore.Hbonds>
donor molecule, donor type, donor heavy atom, donor atom, acceptor molecule, acceptor atom, score
      L1  H     7    34       P1  7948  0.67
      L1  H    16    22       P1  7948  0.67

> <Gold.Chemscore.Hbond.Weighted>
-5.5224

> <Gold.Chemscore.Metal.Weighted>
-0.0000

> <Gold.Chemscore.Lipo.Weighted>
-8.8152

> <Gold.Chemscore.Internal_Hbond.Weighted>
0.0000

> <Gold.Chemscore.DEClash.Weighted>
0.0000

> <Gold.Chemscore.DEInternal.Weighted>
0.7998

> <Gold.Chemscore.Rot.Weighted>
4.6341

> <Gold.Chemscore.Internal.Correction.Weighted>
   9.000000E+99

> <Gold.Protein.RotatedTorsions>
[ 6907 6896 6895 6894 ] final  -14.40 input  -60.11 | X-H torsion
[ 7974 7965 7964 7962 ] final  127.99 input  175.53 | X-H torsion
[ 8008 7997 7996 7995 ] final   82.53 input   59.86 | X-H torsion
[ 10167 10162 10161 10158 ] final  -32.75 input  -65.29 | X-H torsion
[ 10718 10713 10712 10709 ] final  158.77 input   66.30 | X-H torsion
[ 10763 10752 10751 10750 ] final    9.33 input  -60.55 | X-H torsion
[ 11005 11000 10999 10996 ] final   70.82 input  -57.11 | X-H torsion

> <Gold.Protein.ActiveResidues>
 VAL166  LYS551  ARG553  GLY616  TRP617  ASP618  TYR619  PRO620  LYS621  CYS622 
 ASP623  PHE694  ASN695  SER759  ASP760  ASP761  ALA762  ILE779  LEU786  VAL792 
 PHE793  MET794  SER795  GLU796  ALA797  LYS798  CYS799  TRP800  GLU811  SER814 

> <Gold.Protein.RotatedAtoms>
  151.3400  135.0861  159.9367 H   0  0  0  0  0  0  0  0  0  0  0  0  # atno 6907 bound_to 6896
  152.5213  133.9456  159.7658 H   0  0  0  0  0  0  0  0  0  0  0  0  # atno 6908 bound_to 6896
  150.9811  133.6191  159.2752 H   0  0  0  0  0  0  0  0  0  0  0  0  # atno 6909 bound_to 6896
  145.0445  139.3935  143.5085 H   0  0  0  0  0  0  0  0  0  0  0  0  # atno 7974 bound_to 7965
  155.9118  140.3427  155.6105 H   0  0  0  0  0  0  0  0  0  0  0  0  # atno 8008 bound_to 7997
  155.7378  140.0803  157.2278 H   0  0  0  0  0  0  0  0  0  0  0  0  # atno 8009 bound_to 7997
  154.4057  140.1576  156.2569 H   0  0  0  0  0  0  0  0  0  0  0  0  # atno 8010 bound_to 7997
  140.7216  143.3671  151.1849 H   0  0  0  0  0  0  0  0  0  0  0  0  # atno 10167 bound_to 10162
  157.1734  131.0615  151.2171 H   0  0  0  0  0  0  0  0  0  0  0  0  # atno 10718 bound_to 10713
  153.2152  135.6874  153.8066 H   0  0  0  0  0  0  0  0  0  0  0  0  # atno 10763 bound_to 10752
  153.7284  135.3256  155.3282 H   0  0  0  0  0  0  0  0  0  0  0  0  # atno 10764 bound_to 10752
  154.8242  135.4630  154.0976 H   0  0  0  0  0  0  0  0  0  0  0  0  # atno 10765 bound_to 10752
  139.9577  134.7116  156.0716 H   0  0  0  0  0  0  0  0  0  0  0  0  # atno 11005 bound_to 11000
  146.3512  140.0063  142.8671 LP  0  0  0  0  0  0  0  0  0  0  0  0  # atno 17320 bound_to 7965
  145.1605  140.9670  143.4380 LP  0  0  0  0  0  0  0  0  0  0  0  0  # atno 17321 bound_to 7965
  139.7235  143.9185  152.2994 LP  0  0  0  0  0  0  0  0  0  0  0  0  # atno 17342 bound_to 10162
  139.8950  144.6944  150.8728 LP  0  0  0  0  0  0  0  0  0  0  0  0  # atno 17343 bound_to 10162
  157.4022  130.7339  149.6775 LP  0  0  0  0  0  0  0  0  0  0  0  0  # atno 17370 bound_to 10713
  155.9735  130.4118  150.3998 LP  0  0  0  0  0  0  0  0  0  0  0  0  # atno 17371 bound_to 10713
  141.1250  133.6602  156.3313 LP  0  0  0  0  0  0  0  0  0  0  0  0  # atno 17394 bound_to 11000
  140.5572  134.5970  157.5424 LP  0  0  0  0  0  0  0  0  0  0  0  0  # atno 17395 bound_to 11000

$$$$
