AV-unprocessed.smi:1669|AV-procd|sdf|6688|dock1
  -GOLD-   22720 7413D 1   1.00000     0.00000
 Structure written by MMmdl.
 47 49  0  0  0  0  0  0  0  0  1 V2000
  154.3321  136.4057  158.9331 C   0  0  0  0  0  0  0  0  0  0  0  0
  154.6819  137.5791  159.7289 N   0  0  0  0  0  0  0  0  0  0  0  0
  155.6816  137.2355  160.7465 C   0  0  0  0  0  0  0  0  0  0  0  0
  155.1028  136.5623  161.9795 C   0  0  0  0  0  0  0  0  0  0  0  0
  155.1316  135.1567  162.1011 C   0  0  0  0  0  0  0  0  0  0  0  0
  154.5963  134.5343  163.2457 C   0  0  0  0  0  0  0  0  0  0  0  0
  154.0322  135.3148  164.2732 C   0  0  0  0  0  0  0  0  0  0  0  0
  154.0045  136.7180  164.1566 C   0  0  0  0  0  0  0  0  0  0  0  0
  154.5403  137.3410  163.0126 C   0  0  0  0  0  0  0  0  0  0  0  0
  153.4737  138.1509  160.3261 C   0  0  0  0  0  0  0  0  0  0  0  0
  153.0694  139.5469  159.7992 C   0  0  1  0  0  0  0  0  0  0  0  0
  154.1430  140.0569  159.0370 O   0  0  0  0  0  0  0  0  0  0  0  0
  151.8224  139.5251  158.8925 C   0  0  0  0  0  0  0  0  0  0  0  0
  151.6108  140.7845  158.1897 N   0  0  0  0  0  0  0  0  0  0  0  0
  151.1906  140.9712  156.9122 C   0  0  0  0  0  0  0  0  0  0  0  0
  150.8652  139.8120  156.0120 C   0  0  0  0  0  0  0  0  0  0  0  0
  150.6204  140.1795  154.6693 O   0  0  0  0  0  0  0  0  0  0  0  0
  151.0978  142.2434  156.5173 N   0  0  0  0  0  0  0  0  0  0  0  0
  151.4817  142.9441  157.6428 C   0  0  0  0  0  0  0  0  0  0  0  0
  151.5934  144.3354  157.8643 C   0  0  0  0  0  0  0  0  0  0  0  0
  152.0143  144.8273  159.1172 C   0  0  0  0  0  0  0  0  0  0  0  0
  152.3284  143.9369  160.1640 C   0  0  0  0  0  0  0  0  0  0  0  0
  152.2249  142.5470  159.9638 C   0  0  0  0  0  0  0  0  0  0  0  0
  151.8048  142.0608  158.7107 C   0  0  0  0  0  0  0  0  0  0  0  0
  153.6025  136.6621  158.1643 H   0  0  0  0  0  0  0  0  0  0  0  0
  153.9047  135.6195  159.5570 H   0  0  0  0  0  0  0  0  0  0  0  0
  155.2049  135.9980  158.4227 H   0  0  0  0  0  0  0  0  0  0  0  0
  156.4205  136.5452  160.3438 H   0  0  0  0  0  0  0  0  0  0  0  0
  156.2344  138.1288  161.0422 H   0  0  0  0  0  0  0  0  0  0  0  0
  155.5627  134.5535  161.3155 H   0  0  0  0  0  0  0  0  0  0  0  0
  154.6183  133.4582  163.3356 H   0  0  0  0  0  0  0  0  0  0  0  0
  153.6209  134.8376  165.1505 H   0  0  0  0  0  0  0  0  0  0  0  0
  153.5720  137.3166  164.9448 H   0  0  0  0  0  0  0  0  0  0  0  0
  154.5152  138.4179  162.9302 H   0  0  0  0  0  0  0  0  0  0  0  0
  152.6290  137.4781  160.1683 H   0  0  0  0  0  0  0  0  0  0  0  0
  153.6150  138.1863  161.4062 H   0  0  0  0  0  0  0  0  0  0  0  0
  152.8895  140.2416  160.6163 H   0  0  0  0  0  0  0  0  0  0  0  0
  154.7095  140.5470  159.6137 H   0  0  0  0  0  0  0  0  0  0  0  0
  151.8967  138.7217  158.1593 H   0  0  0  0  0  0  0  0  0  0  0  0
  150.9334  139.3047  159.4845 H   0  0  0  0  0  0  0  0  0  0  0  0
  151.6922  139.1027  156.0291 H   0  0  0  0  0  0  0  0  0  0  0  0
  149.9801  139.2970  156.3849 H   0  0  0  0  0  0  0  0  0  0  0  0
  149.6925  140.1141  154.5037 H   0  0  0  0  0  0  0  0  0  0  0  0
  151.3549  145.0251  157.0682 H   0  0  0  0  0  0  0  0  0  0  0  0
  152.0968  145.8927  159.2754 H   0  0  0  0  0  0  0  0  0  0  0  0
  152.6502  144.3215  161.1208 H   0  0  0  0  0  0  0  0  0  0  0  0
  152.4695  141.8640  160.7636 H   0  0  0  0  0  0  0  0  0  0  0  0
  1  2  1  0  0  0  0
  1 25  1  0  0  0  0
  1 26  1  0  0  0  0
  1 27  1  0  0  0  0
  2  3  1  0  0  0  0
  2 10  1  0  0  0  0
  3  4  1  0  0  0  0
  3 28  1  0  0  0  0
  3 29  1  0  0  0  0
  4  9  1  0  0  0  0
  4  5  2  0  0  0  0
  5  6  1  0  0  0  0
  5 30  1  0  0  0  0
  6  7  2  0  0  0  0
  6 31  1  0  0  0  0
  7  8  1  0  0  0  0
  7 32  1  0  0  0  0
  8  9  2  0  0  0  0
  8 33  1  0  0  0  0
  9 34  1  0  0  0  0
 10 11  1  0  0  0  0
 10 35  1  0  0  0  0
 10 36  1  0  0  0  0
 11 12  1  0  0  0  0
 11 13  1  0  0  0  0
 11 37  1  0  0  0  0
 12 38  1  0  0  0  0
 13 14  1  0  0  0  0
 13 39  1  0  0  0  0
 13 40  1  0  0  0  0
 14 24  1  0  0  0  0
 14 15  1  0  0  0  0
 15 16  1  0  0  0  0
 15 18  2  0  0  0  0
 16 17  1  0  0  0  0
 16 41  1  0  0  0  0
 16 42  1  0  0  0  0
 17 43  1  0  0  0  0
 18 19  1  0  0  0  0
 19 24  2  0  0  0  0
 19 20  1  0  0  0  0
 20 21  2  0  0  0  0
 20 44  1  0  0  0  0
 21 22  1  0  0  0  0
 21 45  1  0  0  0  0
 22 23  2  0  0  0  0
 22 46  1  0  0  0  0
 23 24  1  0  0  0  0
 23 47  1  0  0  0  0
M  END
> <s_m_source_file>
AV-unprocessed.smi

> <i_m_source_file_index>
1669

> <i_lp_mmshare_version>
43012

> <i_f3d_flags>
0

> <s_epik_input>
W2NIXTFbY0hdW2NIXVtjSF1bY0hdYzFbQ0gyXU4oW0NIM10pW0NIMl1bQ0BIXShbT0hdKVtDSDJdbihjKG4yKVtDSDJdW09IXSljKGMyMylbY0hdW2NIXVtjSF1bY0hdMw==

> <s_epik_cmdline>
J2VwaWtfcHl0aG9uJywgJy1waCcsICc3LjAnLCAnLXRuJywgJzgnLCAnLW1hJywgJzIwMCcsICctbWV0YWxfYmluZGluZycsICctaW1hZScsICc8aW5maWxlLm1hZT4nLCAnLW9tYWUnLCAnPG91dGZpbGUubWFlPic=

> <r_epik_Ionization_Penalty>
1.56301

> <r_epik_Ionization_Penalty_Charging>
0

> <r_epik_Ionization_Penalty_Neutral>
1.56301

> <r_epik_State_Penalty>
1.64771

> <r_epik_Charging_Adjusted_Penalty>
1.64771

> <i_epik_Tot_Q>
0

> <i_epik_Tot_abs_Q>
0

> <r_epik_Metal_State_Penalty>
1.61258

> <b_epik_Metal_Only>
0

> <s_lp_Force_Field>
OPLS_2005

> <r_lp_Energy>
25.3744

> <b_lp_Chiralities_Consistent>
1

> <s_lp_Variant>
AV-unprocessed.smi:1669-6

> <Gold.Version>
5.8.1

> <Gold.Id.Protein>
6NUR|6NUR_protein|mol2

> <Gold.PLP.Fitness>
52.1714

> <Gold.PLP.PLP>
-49.9924

> <Gold.PLP.part.hbond>
-2.0000

> <Gold.PLP.part.metal>
0.0000

> <Gold.PLP.part.buried>
-4.9950

> <Gold.PLP.part.nonpolar>
-43.0127

> <Gold.PLP.part.repulsive>
0.0825

> <Gold.PLP.ligand.clash>
0.0000

> <Gold.PLP.ligand.torsion>
2.3208

> <Gold.PLP.Chemscore.Hbond>
2.0000

> <Gold.PLP.Chemscore.CHOScore>
0.0000

> <Gold.PLP.Chemscore.Metal>
0.0000

> <Gold.Chemscore.Hbonds>
donor molecule, donor type, donor heavy atom, donor atom, acceptor molecule, acceptor atom, score
      P1  H  7989  7998       L1    17  1.00
      P1  H  7997  8008       L1    12  0.99

> <Gold.PLP.Chemscore.Internal.Correction>
0.8205

> <Gold.Rescore>
     Score         DG    S(hbond)    S(metal)    S(lipo)     H(rot)  DE(clash)    DE(int)     intcor
     17.30     -19.63       1.69        0.00     139.68       3.06       0.01       2.32       ----

> <Gold.Chemscore.Fitness>
17.2971

> <Gold.Chemscore.DG>
-19.6335

> <Gold.Chemscore.ZeroCoef>
-5.4800

> <Gold.Chemscore.Hbond>
1.6908

> <Gold.Chemscore.Metal>
0.0000

> <Gold.Chemscore.Lipo>
139.6770

> <Gold.Chemscore.Internal_Hbond>
0.0000

> <Gold.Chemscore.DEClash>
0.0147

> <Gold.Chemscore.DEInternal>
2.3217

> <Gold.Chemscore.Rot>
3.0609

> <Gold.Chemscore.Internal.Correction>
   9.000000E+99

> <Gold.Chemscore.Hbonds>
donor molecule, donor type, donor heavy atom, donor atom, acceptor molecule, acceptor atom, score
      P1  H  7989  7998       L1    17  0.97
      P1  H  7997  8008       L1    12  0.70

> <Gold.Chemscore.Hbond.Weighted>
-5.6472

> <Gold.Chemscore.Metal.Weighted>
-0.0000

> <Gold.Chemscore.Lipo.Weighted>
-16.3422

> <Gold.Chemscore.Internal_Hbond.Weighted>
0.0000

> <Gold.Chemscore.DEClash.Weighted>
0.0147

> <Gold.Chemscore.DEInternal.Weighted>
2.3217

> <Gold.Chemscore.Rot.Weighted>
7.8358

> <Gold.Chemscore.Internal.Correction.Weighted>
   9.000000E+99

> <Gold.Protein.RotatedTorsions>
[ 6907 6896 6895 6894 ] final -114.65 input  -60.11 | X-H torsion
[ 7974 7965 7964 7962 ] final -161.11 input  175.53 | X-H torsion
[ 8008 7997 7996 7995 ] final -104.60 input   59.86 | X-H torsion
[ 10167 10162 10161 10158 ] final   68.07 input  -65.29 | X-H torsion
[ 10718 10713 10712 10709 ] final -127.43 input   66.30 | X-H torsion
[ 10763 10752 10751 10750 ] final  150.78 input  -60.55 | X-H torsion
[ 11005 11000 10999 10996 ] final  120.77 input  -57.11 | X-H torsion

> <Gold.Protein.ActiveResidues>
 VAL166  LYS551  ARG553  GLY616  TRP617  ASP618  TYR619  PRO620  LYS621  CYS622 
 ASP623  PHE694  ASN695  SER759  ASP760  ASP761  ALA762  ILE779  LEU786  VAL792 
 PHE793  MET794  SER795  GLU796  ALA797  LYS798  CYS799  TRP800  GLU811  SER814 

> <Gold.Protein.RotatedAtoms>
  150.7918  133.8771  159.3274 H   0  0  0  0  0  0  0  0  0  0  0  0  # atno 6907 bound_to 6896
  151.6607  135.0988  160.0188 H   0  0  0  0  0  0  0  0  0  0  0  0  # atno 6908 bound_to 6896
  152.3993  133.6755  159.6338 H   0  0  0  0  0  0  0  0  0  0  0  0  # atno 6909 bound_to 6896
  144.7402  140.3444  143.6128 H   0  0  0  0  0  0  0  0  0  0  0  0  # atno 7974 bound_to 7965
  154.8876  140.0417  157.1820 H   0  0  0  0  0  0  0  0  0  0  0  0  # atno 8008 bound_to 7997
  154.8574  140.2938  155.5539 H   0  0  0  0  0  0  0  0  0  0  0  0  # atno 8009 bound_to 7997
  156.2997  140.2453  156.3542 H   0  0  0  0  0  0  0  0  0  0  0  0  # atno 8010 bound_to 7997
  140.0826  144.5057  150.7152 H   0  0  0  0  0  0  0  0  0  0  0  0  # atno 10167 bound_to 10162
  156.1857  130.6761  151.0361 H   0  0  0  0  0  0  0  0  0  0  0  0  # atno 10718 bound_to 10713
  154.0931  135.2851  155.3267 H   0  0  0  0  0  0  0  0  0  0  0  0  # atno 10763 bound_to 10752
  154.6606  135.5336  153.8017 H   0  0  0  0  0  0  0  0  0  0  0  0  # atno 10764 bound_to 10752
  153.0406  135.6533  154.1099 H   0  0  0  0  0  0  0  0  0  0  0  0  # atno 10765 bound_to 10752
  139.9198  134.9636  156.7857 H   0  0  0  0  0  0  0  0  0  0  0  0  # atno 11005 bound_to 11000
  145.7341  139.1744  143.2414 LP  0  0  0  0  0  0  0  0  0  0  0  0  # atno 17320 bound_to 7965
  146.1184  140.7340  142.9469 LP  0  0  0  0  0  0  0  0  0  0  0  0  # atno 17321 bound_to 7965
  140.7070  143.2475  151.4697 LP  0  0  0  0  0  0  0  0  0  0  0  0  # atno 17342 bound_to 10162
  139.5770  144.1795  152.1917 LP  0  0  0  0  0  0  0  0  0  0  0  0  # atno 17343 bound_to 10162
  157.6897  131.0814  150.7143 LP  0  0  0  0  0  0  0  0  0  0  0  0  # atno 17370 bound_to 10713
  156.7200  130.4677  149.5525 LP  0  0  0  0  0  0  0  0  0  0  0  0  # atno 17371 bound_to 10713
  140.6508  133.9733  155.7754 LP  0  0  0  0  0  0  0  0  0  0  0  0  # atno 17394 bound_to 11000
  141.0709  134.0206  157.3527 LP  0  0  0  0  0  0  0  0  0  0  0  0  # atno 17395 bound_to 11000

$$$$
