AV-unprocessed.smi:1086|AV-procd|sdf|4724|dock2
  -GOLD-   22720 3253D 1   1.00000     0.00000
 Structure written by MMmdl.
 41 42  0  0  0  0  0  0  0  0  1 V2000
  136.9791  137.1213  155.3750 C   0  0  0  0  0  0  0  0  0  0  0  0
  137.8356  138.2469  155.2144 O   0  0  0  0  0  0  0  0  0  0  0  0
  139.0411  138.0649  154.5681 C   0  0  0  0  0  0  0  0  0  0  0  0
  139.5226  136.7520  154.3957 C   0  0  0  0  0  0  0  0  0  0  0  0
  140.7549  136.5577  153.7425 C   0  0  0  0  0  0  0  0  0  0  0  0
  141.4733  137.6893  153.2877 C   0  0  0  0  0  0  0  0  0  0  0  0
  142.7200  137.6285  152.6082 N   0  0  0  0  0  0  0  0  0  0  0  0
  143.4658  136.5476  152.3220 C   0  0  0  0  0  0  0  0  0  0  0  0
  143.1727  135.3846  152.5989 O   0  0  0  0  0  0  0  0  0  0  0  0
  144.6021  136.8943  151.6992 N   0  0  0  0  0  0  0  0  0  0  0  0
  145.6321  135.9594  151.2486 C   0  0  0  0  0  0  0  0  0  0  0  0
  145.9169  134.8292  152.2563 C   0  0  0  0  0  0  0  0  0  0  0  0
  146.6569  135.0560  153.2158 O   0  0  0  0  0  0  0  0  0  0  0  0
  145.3417  133.6175  152.0607 N   0  0  0  0  0  0  0  0  0  0  0  0
  144.4769  133.2539  150.9297 C   0  0  0  0  0  0  0  0  0  0  0  0
  145.2495  132.2913  150.0099 C   0  0  0  0  0  0  0  0  0  0  0  0
  145.7272  131.0521  150.7917 C   0  0  0  0  0  0  0  0  0  0  0  0
  146.4575  131.4422  152.0916 C   0  0  0  0  0  0  0  0  0  0  0  0
  145.6332  132.4546  152.9092 C   0  0  0  0  0  0  0  0  0  0  0  0
  140.8955  138.9590  153.4937 C   0  0  0  0  0  0  0  0  0  0  0  0
  139.7157  139.1522  154.1199 N   0  0  0  0  0  0  0  0  0  0  0  0
  136.0732  137.4285  155.8973 H   0  0  0  0  0  0  0  0  0  0  0  0
  137.4545  136.3397  155.9695 H   0  0  0  0  0  0  0  0  0  0  0  0
  136.6801  136.7069  154.4110 H   0  0  0  0  0  0  0  0  0  0  0  0
  138.9546  135.9071  154.7564 H   0  0  0  0  0  0  0  0  0  0  0  0
  141.1134  135.5510  153.5951 H   0  0  0  0  0  0  0  0  0  0  0  0
  143.1279  138.5217  152.3743 H   0  0  0  0  0  0  0  0  0  0  0  0
  144.7616  137.8726  151.5080 H   0  0  0  0  0  0  0  0  0  0  0  0
  145.2982  135.5189  150.3090 H   0  0  0  0  0  0  0  0  0  0  0  0
  146.5497  136.5109  151.0370 H   0  0  0  0  0  0  0  0  0  0  0  0
  143.5802  132.7624  151.3098 H   0  0  0  0  0  0  0  0  0  0  0  0
  144.1134  134.1078  150.3602 H   0  0  0  0  0  0  0  0  0  0  0  0
  144.6218  131.9855  149.1726 H   0  0  0  0  0  0  0  0  0  0  0  0
  146.1091  132.8087  149.5813 H   0  0  0  0  0  0  0  0  0  0  0  0
  144.8633  130.4348  151.0411 H   0  0  0  0  0  0  0  0  0  0  0  0
  146.3744  130.4373  150.1655 H   0  0  0  0  0  0  0  0  0  0  0  0
  146.6589  130.5521  152.6884 H   0  0  0  0  0  0  0  0  0  0  0  0
  147.4275  131.8779  151.8478 H   0  0  0  0  0  0  0  0  0  0  0  0
  146.1703  132.7179  153.8214 H   0  0  0  0  0  0  0  0  0  0  0  0
  144.6971  132.0011  153.2379 H   0  0  0  0  0  0  0  0  0  0  0  0
  141.3985  139.8520  153.1520 H   0  0  0  0  0  0  0  0  0  0  0  0
  1  2  1  0  0  0  0
  1 22  1  0  0  0  0
  1 23  1  0  0  0  0
  1 24  1  0  0  0  0
  2  3  1  0  0  0  0
  3 21  1  0  0  0  0
  3  4  2  0  0  0  0
  4  5  1  0  0  0  0
  4 25  1  0  0  0  0
  5  6  2  0  0  0  0
  5 26  1  0  0  0  0
  6  7  1  0  0  0  0
  6 20  1  0  0  0  0
  7  8  1  0  0  0  0
  7 27  1  0  0  0  0
  8  9  2  0  0  0  0
  8 10  1  0  0  0  0
 10 11  1  0  0  0  0
 10 28  1  0  0  0  0
 11 12  1  0  0  0  0
 11 29  1  0  0  0  0
 11 30  1  0  0  0  0
 12 13  2  0  0  0  0
 12 14  1  0  0  0  0
 14 19  1  0  0  0  0
 14 15  1  0  0  0  0
 15 16  1  0  0  0  0
 15 31  1  0  0  0  0
 15 32  1  0  0  0  0
 16 17  1  0  0  0  0
 16 33  1  0  0  0  0
 16 34  1  0  0  0  0
 17 18  1  0  0  0  0
 17 35  1  0  0  0  0
 17 36  1  0  0  0  0
 18 19  1  0  0  0  0
 18 37  1  0  0  0  0
 18 38  1  0  0  0  0
 19 39  1  0  0  0  0
 19 40  1  0  0  0  0
 20 21  2  0  0  0  0
 20 41  1  0  0  0  0
M  END
> <s_m_source_file>
AV-unprocessed.smi

> <i_m_source_file_index>
1086

> <i_lp_mmshare_version>
43012

> <i_f3d_flags>
0

> <s_epik_input>
W0NIM11PYzFbY0hdW2NIXWMoW2NIXW4xKVtOSF1DKD1PKVtOSF1bQ0gyXUMoPU8pTjJbQ0gyXVtDSDJdW0NIMl1bQ0gyXVtDSDJdMg==

> <s_epik_cmdline>
J2VwaWtfcHl0aG9uJywgJy1waCcsICc3LjAnLCAnLXRuJywgJzgnLCAnLW1hJywgJzIwMCcsICctbWV0YWxfYmluZGluZycsICctaW1hZScsICc8aW5maWxlLm1hZT4nLCAnLW9tYWUnLCAnPG91dGZpbGUubWFlPic=

> <r_lp_tautomer_probability>
1

> <r_epik_Ionization_Penalty>
0.0001417

> <r_epik_Ionization_Penalty_Charging>
0

> <r_epik_Ionization_Penalty_Neutral>
0.0001417

> <r_epik_State_Penalty>
-0

> <r_epik_Charging_Adjusted_Penalty>
0

> <i_epik_Tot_Q>
0

> <i_epik_Tot_abs_Q>
0

> <r_epik_Metal_State_Penalty>
-0

> <b_epik_Metal_Only>
0

> <s_lp_Force_Field>
OPLS_2005

> <r_lp_Energy>
23.1479

> <b_lp_Chiralities_Consistent>
1

> <s_lp_Variant>
AV-unprocessed.smi:1086-1

> <Gold.Version>
5.8.1

> <Gold.Id.Protein>
6NUR|6NUR_protein|mol2

> <Gold.PLP.Fitness>
41.1874

> <Gold.PLP.PLP>
-33.9896

> <Gold.PLP.part.hbond>
-2.6096

> <Gold.PLP.part.metal>
0.0000

> <Gold.PLP.part.buried>
-4.6847

> <Gold.PLP.part.nonpolar>
-27.8478

> <Gold.PLP.part.repulsive>
1.4719

> <Gold.PLP.ligand.clash>
0.0000

> <Gold.PLP.ligand.torsion>
0.6343

> <Gold.PLP.Chemscore.Hbond>
1.3172

> <Gold.PLP.Chemscore.CHOScore>
1.4980

> <Gold.PLP.Chemscore.Metal>
0.0000

> <Gold.Chemscore.Hbonds>
donor molecule, donor type, donor heavy atom, donor atom, acceptor molecule, acceptor atom, score
      L1  H     7    27       P1 10175  1.00
      L1  H    10    28       P1 10171  0.29
      L1  C    20    41       P1 10160  0.56
      L1  C    20    41       P1 10175  0.95

> <Gold.PLP.Chemscore.Internal.Correction>
0.0208

> <Gold.Rescore>
     Score         DG    S(hbond)    S(metal)    S(lipo)     H(rot)  DE(clash)    DE(int)     intcor
     10.38     -14.78       1.24        0.00      78.20       1.55       0.13       4.28       ----

> <Gold.Chemscore.Fitness>
10.3764

> <Gold.Chemscore.DG>
-14.7845

> <Gold.Chemscore.ZeroCoef>
-5.4800

> <Gold.Chemscore.Hbond>
1.2359

> <Gold.Chemscore.Metal>
0.0000

> <Gold.Chemscore.Lipo>
78.2049

> <Gold.Chemscore.Internal_Hbond>
0.0000

> <Gold.Chemscore.DEClash>
0.1294

> <Gold.Chemscore.DEInternal>
4.2787

> <Gold.Chemscore.Rot>
1.5521

> <Gold.Chemscore.Internal.Correction>
   9.000000E+99

> <Gold.Chemscore.Hbonds>
donor molecule, donor type, donor heavy atom, donor atom, acceptor molecule, acceptor atom, score
      L1  H     7    27       P1 10175  0.98
      L1  H    10    28       P1 10171  0.29

> <Gold.Chemscore.Hbond.Weighted>
-4.1280

> <Gold.Chemscore.Metal.Weighted>
-0.0000

> <Gold.Chemscore.Lipo.Weighted>
-9.1500

> <Gold.Chemscore.Internal_Hbond.Weighted>
0.0000

> <Gold.Chemscore.DEClash.Weighted>
0.1294

> <Gold.Chemscore.DEInternal.Weighted>
4.2787

> <Gold.Chemscore.Rot.Weighted>
3.9734

> <Gold.Chemscore.Internal.Correction.Weighted>
   9.000000E+99

> <Gold.Protein.RotatedTorsions>
[ 6907 6896 6895 6894 ] final  140.66 input  -60.11 | X-H torsion
[ 7974 7965 7964 7962 ] final -159.01 input  175.53 | X-H torsion
[ 8008 7997 7996 7995 ] final -165.67 input   59.86 | X-H torsion
[ 10167 10162 10161 10158 ] final  157.79 input  -65.29 | X-H torsion
[ 10718 10713 10712 10709 ] final   93.43 input   66.30 | X-H torsion
[ 10763 10752 10751 10750 ] final  118.79 input  -60.55 | X-H torsion
[ 11005 11000 10999 10996 ] final   95.99 input  -57.11 | X-H torsion

> <Gold.Protein.ActiveResidues>
 VAL166  LYS551  ARG553  GLY616  TRP617  ASP618  TYR619  PRO620  LYS621  CYS622 
 ASP623  PHE694  ASN695  SER759  ASP760  ASP761  ALA762  ILE779  LEU786  VAL792 
 PHE793  MET794  SER795  GLU796  ALA797  LYS798  CYS799  TRP800  GLU811  SER814 

> <Gold.Protein.RotatedAtoms>
  152.2404  133.5130  159.5266 H   0  0  0  0  0  0  0  0  0  0  0  0  # atno 6907 bound_to 6896
  150.7062  134.1097  159.4004 H   0  0  0  0  0  0  0  0  0  0  0  0  # atno 6908 bound_to 6896
  151.9018  135.0375  160.0557 H   0  0  0  0  0  0  0  0  0  0  0  0  # atno 6909 bound_to 6896
  144.7482  140.3746  143.6068 H   0  0  0  0  0  0  0  0  0  0  0  0  # atno 7974 bound_to 7965
  155.8530  140.0966  157.1662 H   0  0  0  0  0  0  0  0  0  0  0  0  # atno 8008 bound_to 7997
  154.3986  140.1379  156.3929 H   0  0  0  0  0  0  0  0  0  0  0  0  # atno 8009 bound_to 7997
  155.7940  140.3455  155.5368 H   0  0  0  0  0  0  0  0  0  0  0  0  # atno 8010 bound_to 7997
  139.4824  144.4885  151.8343 H   0  0  0  0  0  0  0  0  0  0  0  0  # atno 10167 bound_to 10162
  157.6954  131.0478  150.4033 H   0  0  0  0  0  0  0  0  0  0  0  0  # atno 10718 bound_to 10713
  153.5730  135.3498  155.2845 H   0  0  0  0  0  0  0  0  0  0  0  0  # atno 10763 bound_to 10752
  154.8679  135.4164  154.2704 H   0  0  0  0  0  0  0  0  0  0  0  0  # atno 10764 bound_to 10752
  153.3474  135.7053  153.6887 H   0  0  0  0  0  0  0  0  0  0  0  0  # atno 10765 bound_to 10752
  139.8785  134.8927  156.4092 H   0  0  0  0  0  0  0  0  0  0  0  0  # atno 11005 bound_to 11000
  145.7042  139.1668  143.2575 LP  0  0  0  0  0  0  0  0  0  0  0  0  # atno 17320 bound_to 7965
  146.1394  140.7079  142.9374 LP  0  0  0  0  0  0  0  0  0  0  0  0  # atno 17321 bound_to 7965
  140.4367  144.2043  150.5889 LP  0  0  0  0  0  0  0  0  0  0  0  0  # atno 17342 bound_to 10162
  140.4725  143.2408  151.9069 LP  0  0  0  0  0  0  0  0  0  0  0  0  # atno 17343 bound_to 10162
  156.4424  130.3994  149.6689 LP  0  0  0  0  0  0  0  0  0  0  0  0  # atno 17370 bound_to 10713
  156.3867  130.7606  151.2604 LP  0  0  0  0  0  0  0  0  0  0  0  0  # atno 17371 bound_to 10713
  140.9212  133.7643  155.9909 LP  0  0  0  0  0  0  0  0  0  0  0  0  # atno 17394 bound_to 11000
  140.8437  134.3036  157.5303 LP  0  0  0  0  0  0  0  0  0  0  0  0  # atno 17395 bound_to 11000

$$$$
