AV-unprocessed.smi:692|AV-procd|sdf|3370|dock5
  -GOLD-   22720 0343D 1   1.00000     0.00000
 Structure written by MMmdl.
 36 37  0  0  0  0  0  0  0  0  2 V2000
  148.6031  141.6279  154.2150 C   0  0  0  0  0  0  0  0  0  0  0  0
  148.5141  140.2017  154.7692 C   0  0  0  0  0  0  0  0  0  0  0  0
  149.8533  139.5334  154.8390 C   0  0  0  0  0  0  0  0  0  0  0  0
  150.3941  138.6739  153.9183 C   0  0  0  0  0  0  0  0  0  0  0  0
  151.9793  138.1357  154.3945 S   0  0  0  0  0  0  0  0  0  0  0  0
  151.8559  139.1077  155.8625 C   0  0  0  0  0  0  0  0  0  0  0  0
  152.8066  139.2012  156.8063 N   0  5  0  0  0  0  0  0  0  0  0  0
  152.5252  139.7845  157.9936 C   0  0  0  0  0  0  0  0  0  0  0  0
  152.5561  139.2411  159.1002 O   0  0  0  0  0  0  0  0  0  0  0  0
  152.1904  141.0788  157.8924 N   0  0  0  0  0  0  0  0  0  0  0  0
  151.8399  141.9641  158.9996 C   0  0  2  0  0  0  0  0  0  0  0  0
  151.8998  143.4207  158.5368 C   0  0  0  0  0  0  0  0  0  0  0  0
  151.4928  144.3615  159.6769 C   0  0  0  0  0  0  0  0  0  0  0  0
  152.1846  144.0475  161.0122 C   0  0  0  0  0  0  0  0  0  0  0  0
  152.2035  144.9253  161.8759 O   0  0  0  0  0  0  0  0  0  0  0  0
  152.7195  142.8184  161.2117 N   0  0  0  0  0  0  0  0  0  0  0  0
  153.3517  142.4864  162.4896 C   0  0  0  0  0  0  0  0  0  0  0  0
  152.7937  141.7598  160.1928 C   0  0  0  0  0  0  0  0  0  0  0  0
  150.6962  139.7710  155.9278 N   0  0  0  0  0  0  0  0  0  0  0  0
  147.6170  142.0905  154.1719 H   0  0  0  0  0  0  0  0  0  0  0  0
  149.0186  141.6322  153.2069 H   0  0  0  0  0  0  0  0  0  0  0  0
  149.2380  142.2549  154.8419 H   0  0  0  0  0  0  0  0  0  0  0  0
  148.0594  140.2286  155.7600 H   0  0  0  0  0  0  0  0  0  0  0  0
  147.8370  139.6169  154.1458 H   0  0  0  0  0  0  0  0  0  0  0  0
  149.9606  138.3272  152.9927 H   0  0  0  0  0  0  0  0  0  0  0  0
  152.1779  141.4803  156.9664 H   0  0  0  0  0  0  0  0  0  0  0  0
  150.8168  141.7505  159.3161 H   0  0  0  0  0  0  0  0  0  0  0  0
  152.9068  143.6662  158.1960 H   0  0  0  0  0  0  0  0  0  0  0  0
  151.2370  143.5729  157.6840 H   0  0  0  0  0  0  0  0  0  0  0  0
  151.6986  145.3949  159.3954 H   0  0  0  0  0  0  0  0  0  0  0  0
  150.4167  144.2920  159.8391 H   0  0  0  0  0  0  0  0  0  0  0  0
  152.6155  142.5011  163.2944 H   0  0  0  0  0  0  0  0  0  0  0  0
  154.1375  143.2037  162.7316 H   0  0  0  0  0  0  0  0  0  0  0  0
  153.8095  141.4963  162.4777 H   0  0  0  0  0  0  0  0  0  0  0  0
  152.5905  140.7914  160.6526 H   0  0  0  0  0  0  0  0  0  0  0  0
  153.8244  141.7236  159.8364 H   0  0  0  0  0  0  0  0  0  0  0  0
  1  2  1  0  0  0  0
  1 20  1  0  0  0  0
  1 21  1  0  0  0  0
  1 22  1  0  0  0  0
  2  3  1  0  0  0  0
  2 23  1  0  0  0  0
  2 24  1  0  0  0  0
  3 19  1  0  0  0  0
  3  4  2  0  0  0  0
  4  5  1  0  0  0  0
  4 25  1  0  0  0  0
  5  6  1  0  0  0  0
  6  7  1  0  0  0  0
  6 19  2  0  0  0  0
  7  8  1  0  0  0  0
  8  9  2  0  0  0  0
  8 10  1  0  0  0  0
 10 11  1  0  0  0  0
 10 26  1  0  0  0  0
 11 18  1  0  0  0  0
 11 12  1  0  0  0  0
 11 27  1  0  0  0  0
 12 13  1  0  0  0  0
 12 28  1  0  0  0  0
 12 29  1  0  0  0  0
 13 14  1  0  0  0  0
 13 30  1  0  0  0  0
 13 31  1  0  0  0  0
 14 15  2  0  0  0  0
 14 16  1  0  0  0  0
 16 17  1  0  0  0  0
 16 18  1  0  0  0  0
 17 32  1  0  0  0  0
 17 33  1  0  0  0  0
 17 34  1  0  0  0  0
 18 35  1  0  0  0  0
 18 36  1  0  0  0  0
M  CHG  1   7  -1
M  END
> <s_m_source_file>
AV-unprocessed.smi

> <i_m_source_file_index>
692

> <i_lp_mmshare_version>
43012

> <i_f3d_flags>
0

> <s_epik_input>
W0NIM11bQ0gyXWMxW2NIXXNjKG4xKVtOSF1DKD1PKVtOSF1bQ0BASF0yW0NIMl1bQ0gyXUMoPU8pTihbQ0gzXSlbQ0gyXTI=

> <s_epik_cmdline>
J2VwaWtfcHl0aG9uJywgJy1waCcsICc3LjAnLCAnLXRuJywgJzgnLCAnLW1hJywgJzIwMCcsICctbWV0YWxfYmluZGluZycsICctaW1hZScsICc8aW5maWxlLm1hZT4nLCAnLW9tYWUnLCAnPG91dGZpbGUubWFlPic=

> <r_lp_tautomer_probability>
1

> <r_epik_Ionization_Penalty>
7.06728

> <r_epik_Ionization_Penalty_Charging>
5.78908

> <r_epik_Ionization_Penalty_Neutral>
1.2782

> <r_epik_State_Penalty>
5.78905

> <r_epik_Charging_Adjusted_Penalty>
11.5781

> <i_epik_Tot_Q>
-1

> <i_epik_Tot_abs_Q>
1

> <r_epik_Metal_State_Penalty>
1.76044

> <b_epik_Metal_Only>
1

> <s_lp_Force_Field>
OPLS_2005

> <r_lp_Energy>
4.23382

> <b_lp_Chiralities_Consistent>
1

> <s_lp_Variant>
AV-unprocessed.smi:692-3

> <Gold.Version>
5.8.1

> <Gold.Id.Protein>
6NUR|6NUR_protein|mol2

> <Gold.PLP.Fitness>
48.5912

> <Gold.PLP.PLP>
-39.6245

> <Gold.PLP.part.hbond>
-1.0000

> <Gold.PLP.part.metal>
0.0000

> <Gold.PLP.part.buried>
-2.5871

> <Gold.PLP.part.nonpolar>
-37.5413

> <Gold.PLP.part.repulsive>
3.2944

> <Gold.PLP.ligand.clash>
0.0000

> <Gold.PLP.ligand.torsion>
1.1610

> <Gold.PLP.Chemscore.Hbond>
2.0000

> <Gold.PLP.Chemscore.CHOScore>
1.7574

> <Gold.PLP.Chemscore.Metal>
0.0000

> <Gold.Chemscore.Hbonds>
donor molecule, donor type, donor heavy atom, donor atom, acceptor molecule, acceptor atom, score
      P1  H  7997  8008       L1     7  2.00
      L1  C     4    25       P1  7948  0.99
      L1  C     4    25       P1  7957  0.76

> <Gold.PLP.Chemscore.Internal.Correction>
0.0165

> <Gold.Rescore>
     Score         DG    S(hbond)    S(metal)    S(lipo)     H(rot)  DE(clash)    DE(int)     intcor
      9.15     -14.91       0.64        0.00      89.22       1.23       1.87       3.90       ----

> <Gold.Chemscore.Fitness>
9.1484

> <Gold.Chemscore.DG>
-14.9140

> <Gold.Chemscore.ZeroCoef>
-5.4800

> <Gold.Chemscore.Hbond>
0.6382

> <Gold.Chemscore.Metal>
0.0000

> <Gold.Chemscore.Lipo>
89.2192

> <Gold.Chemscore.Internal_Hbond>
0.0000

> <Gold.Chemscore.DEClash>
1.8687

> <Gold.Chemscore.DEInternal>
3.8970

> <Gold.Chemscore.Rot>
1.2251

> <Gold.Chemscore.Internal.Correction>
   9.000000E+99

> <Gold.Chemscore.Hbonds>
donor molecule, donor type, donor heavy atom, donor atom, acceptor molecule, acceptor atom, score
      P1  H  7997  8008       L1     7  0.24

> <Gold.Chemscore.Hbond.Weighted>
-2.1316

> <Gold.Chemscore.Metal.Weighted>
-0.0000

> <Gold.Chemscore.Lipo.Weighted>
-10.4386

> <Gold.Chemscore.Internal_Hbond.Weighted>
0.0000

> <Gold.Chemscore.DEClash.Weighted>
1.8687

> <Gold.Chemscore.DEInternal.Weighted>
3.8970

> <Gold.Chemscore.Rot.Weighted>
3.1362

> <Gold.Chemscore.Internal.Correction.Weighted>
   9.000000E+99

> <Gold.Protein.RotatedTorsions>
[ 6907 6896 6895 6894 ] final  -15.12 input  -60.11 | X-H torsion
[ 7974 7965 7964 7962 ] final    5.62 input  175.53 | X-H torsion
[ 8008 7997 7996 7995 ] final  -43.90 input   59.86 | X-H torsion
[ 10167 10162 10161 10158 ] final  173.26 input  -65.29 | X-H torsion
[ 10718 10713 10712 10709 ] final  -12.06 input   66.30 | X-H torsion
[ 10763 10752 10751 10750 ] final   96.69 input  -60.55 | X-H torsion
[ 11005 11000 10999 10996 ] final  121.30 input  -57.11 | X-H torsion

> <Gold.Protein.ActiveResidues>
 VAL166  LYS551  ARG553  GLY616  TRP617  ASP618  TYR619  PRO620  LYS621  CYS622 
 ASP623  PHE694  ASN695  SER759  ASP760  ASP761  ALA762  ILE779  LEU786  VAL792 
 PHE793  MET794  SER795  GLU796  ALA797  LYS798  CYS799  TRP800  GLU811  SER814 

> <Gold.Protein.RotatedAtoms>
  151.3289  135.0837  159.9331 H   0  0  0  0  0  0  0  0  0  0  0  0  # atno 6907 bound_to 6896
  152.5239  133.9563  159.7706 H   0  0  0  0  0  0  0  0  0  0  0  0  # atno 6908 bound_to 6896
  150.9898  133.6108  159.2740 H   0  0  0  0  0  0  0  0  0  0  0  0  # atno 6909 bound_to 6896
  146.2439  140.0357  142.8386 H   0  0  0  0  0  0  0  0  0  0  0  0  # atno 7974 bound_to 7965
  154.3997  140.1436  156.3595 H   0  0  0  0  0  0  0  0  0  0  0  0  # atno 8008 bound_to 7997
  155.8194  140.3470  155.5484 H   0  0  0  0  0  0  0  0  0  0  0  0  # atno 8009 bound_to 7997
  155.8303  140.0911  157.1787 H   0  0  0  0  0  0  0  0  0  0  0  0  # atno 8010 bound_to 7997
  139.5102  144.3281  152.0138 H   0  0  0  0  0  0  0  0  0  0  0  0  # atno 10167 bound_to 10162
  156.6501  130.4952  149.6065 H   0  0  0  0  0  0  0  0  0  0  0  0  # atno 10718 bound_to 10713
  153.2680  135.4209  155.0960 H   0  0  0  0  0  0  0  0  0  0  0  0  # atno 10763 bound_to 10752
  154.8445  135.3465  154.6284 H   0  0  0  0  0  0  0  0  0  0  0  0  # atno 10764 bound_to 10752
  153.6704  135.7044  153.5206 H   0  0  0  0  0  0  0  0  0  0  0  0  # atno 10765 bound_to 10752
  139.9220  134.9638  156.7937 H   0  0  0  0  0  0  0  0  0  0  0  0  # atno 11005 bound_to 11000
  145.1114  140.9407  143.4654 LP  0  0  0  0  0  0  0  0  0  0  0  0  # atno 17320 bound_to 7965
  145.0572  139.3134  143.5899 LP  0  0  0  0  0  0  0  0  0  0  0  0  # atno 17321 bound_to 7965
  140.2721  144.3953  150.6148 LP  0  0  0  0  0  0  0  0  0  0  0  0  # atno 17342 bound_to 10162
  140.6081  143.2168  151.6941 LP  0  0  0  0  0  0  0  0  0  0  0  0  # atno 17343 bound_to 10162
  156.2091  130.6668  151.1250 LP  0  0  0  0  0  0  0  0  0  0  0  0  # atno 17370 bound_to 10713
  157.7144  131.0718  150.6383 LP  0  0  0  0  0  0  0  0  0  0  0  0  # atno 17371 bound_to 10713
  140.6446  133.9787  155.7724 LP  0  0  0  0  0  0  0  0  0  0  0  0  # atno 17394 bound_to 11000
  141.0748  134.0151  157.3473 LP  0  0  0  0  0  0  0  0  0  0  0  0  # atno 17395 bound_to 11000

$$$$
