AV-unprocessed.smi:2390|AV-procd|sdf|9473|dock5
  -GOLD-   2272013103D 1   1.00000     0.00000
 Structure written by MMmdl.
 45 46  0  0  0  0  0  0  0  0  1 V2000
  146.2306  130.2082  151.8156 C   0  0  0  0  0  0  0  0  0  0  0  0
  145.5221  131.4932  151.4417 C   0  0  0  0  0  0  0  0  0  0  0  0
  144.2501  131.4708  150.8370 C   0  0  0  0  0  0  0  0  0  0  0  0
  143.6475  132.7007  150.5165 C   0  0  0  0  0  0  0  0  0  0  0  0
  144.3372  133.8931  150.8099 C   0  0  0  0  0  0  0  0  0  0  0  0
  145.6133  133.8275  151.4134 C   0  0  0  0  0  0  0  0  0  0  0  0
  146.2297  135.0830  151.6618 N   0  0  0  0  0  0  0  0  0  0  0  0
  145.6358  136.2650  151.9048 C   0  0  0  0  0  0  0  0  0  0  0  0
  144.4198  136.4577  151.9246 O   0  0  0  0  0  0  0  0  0  0  0  0
  146.5443  137.2250  152.1337 N   0  0  0  0  0  0  0  0  0  0  0  0
  146.2549  138.6136  152.4948 C   0  0  2  0  0  0  0  0  0  0  0  0
  146.8202  139.5495  151.4113 C   0  0  0  0  0  0  0  0  0  0  0  0
  146.7654  138.9365  153.9367 C   0  0  2  0  0  0  0  0  0  0  0  0
  146.4800  137.7321  154.8723 C   0  0  0  0  0  0  0  0  0  0  0  0
  146.2567  140.2201  154.4833 N   0  0  0  0  0  0  0  0  0  0  0  0
  146.8161  141.3981  153.8082 C   0  0  0  0  0  0  0  0  0  0  0  0
  146.2855  142.7216  154.3854 C   0  0  0  0  0  0  0  0  0  0  0  0
  146.5652  142.7842  155.7771 O   0  0  0  0  0  0  0  0  0  0  0  0
  145.9856  141.6983  156.4865 C   0  0  0  0  0  0  0  0  0  0  0  0
  146.5128  140.3682  155.9208 C   0  0  0  0  0  0  0  0  0  0  0  0
  146.1845  132.6361  151.7205 N   0  0  0  0  0  0  0  0  0  0  0  0
  145.5624  129.3507  151.7330 H   0  0  0  0  0  0  0  0  0  0  0  0
  146.5936  130.2574  152.8427 H   0  0  0  0  0  0  0  0  0  0  0  0
  147.0835  130.0424  151.1569 H   0  0  0  0  0  0  0  0  0  0  0  0
  143.7476  130.5387  150.6242 H   0  0  0  0  0  0  0  0  0  0  0  0
  142.6727  132.7298  150.0526 H   0  0  0  0  0  0  0  0  0  0  0  0
  143.8881  134.8457  150.5688 H   0  0  0  0  0  0  0  0  0  0  0  0
  147.2387  135.0753  151.6778 H   0  0  0  0  0  0  0  0  0  0  0  0
  147.5196  136.9683  152.0929 H   0  0  0  0  0  0  0  0  0  0  0  0
  145.1835  138.7920  152.4370 H   0  0  0  0  0  0  0  0  0  0  0  0
  146.6830  140.5958  151.6856 H   0  0  0  0  0  0  0  0  0  0  0  0
  146.3049  139.3925  150.4630 H   0  0  0  0  0  0  0  0  0  0  0  0
  147.8811  139.3863  151.2252 H   0  0  0  0  0  0  0  0  0  0  0  0
  147.8509  139.0228  153.8671 H   0  0  0  0  0  0  0  0  0  0  0  0
  146.7738  136.7821  154.4309 H   0  0  0  0  0  0  0  0  0  0  0  0
  145.4217  137.6633  155.1260 H   0  0  0  0  0  0  0  0  0  0  0  0
  147.0423  137.7974  155.8030 H   0  0  0  0  0  0  0  0  0  0  0  0
  147.9047  141.3826  153.8776 H   0  0  0  0  0  0  0  0  0  0  0  0
  146.5681  141.4021  152.7503 H   0  0  0  0  0  0  0  0  0  0  0  0
  146.7597  143.5684  153.8892 H   0  0  0  0  0  0  0  0  0  0  0  0
  145.2113  142.8127  154.2160 H   0  0  0  0  0  0  0  0  0  0  0  0
  146.2391  141.7882  157.5428 H   0  0  0  0  0  0  0  0  0  0  0  0
  144.8978  141.7437  156.4138 H   0  0  0  0  0  0  0  0  0  0  0  0
  146.0281  139.5715  156.4826 H   0  0  0  0  0  0  0  0  0  0  0  0
  147.5832  140.2893  156.1163 H   0  0  0  0  0  0  0  0  0  0  0  0
  1  2  1  0  0  0  0
  1 22  1  0  0  0  0
  1 23  1  0  0  0  0
  1 24  1  0  0  0  0
  2 21  1  0  0  0  0
  2  3  2  0  0  0  0
  3  4  1  0  0  0  0
  3 25  1  0  0  0  0
  4  5  2  0  0  0  0
  4 26  1  0  0  0  0
  5  6  1  0  0  0  0
  5 27  1  0  0  0  0
  6  7  1  0  0  0  0
  6 21  2  0  0  0  0
  7  8  1  0  0  0  0
  7 28  1  0  0  0  0
  8  9  2  0  0  0  0
  8 10  1  0  0  0  0
 10 11  1  0  0  0  0
 10 29  1  0  0  0  0
 11 12  1  0  0  0  0
 11 13  1  0  0  0  0
 11 30  1  0  0  0  0
 12 31  1  0  0  0  0
 12 32  1  0  0  0  0
 12 33  1  0  0  0  0
 13 14  1  0  0  0  0
 13 15  1  0  0  0  0
 13 34  1  0  0  0  0
 14 35  1  0  0  0  0
 14 36  1  0  0  0  0
 14 37  1  0  0  0  0
 15 20  1  0  0  0  0
 15 16  1  0  0  0  0
 16 17  1  0  0  0  0
 16 38  1  0  0  0  0
 16 39  1  0  0  0  0
 17 18  1  0  0  0  0
 17 40  1  0  0  0  0
 17 41  1  0  0  0  0
 18 19  1  0  0  0  0
 19 20  1  0  0  0  0
 19 42  1  0  0  0  0
 19 43  1  0  0  0  0
 20 44  1  0  0  0  0
 20 45  1  0  0  0  0
M  END
> <s_m_source_file>
AV-unprocessed.smi

> <i_m_source_file_index>
2390

> <i_lp_mmshare_version>
43012

> <i_f3d_flags>
0

> <s_epik_input>
W0NIM11jMVtjSF1bY0hdW2NIXWMobjEpW05IXUMoPU8pW05IXVtDQEhdKFtDSDNdKVtDQEhdKFtDSDNdKU4yW0NIMl1bQ0gyXU9bQ0gyXVtDSDJdMg==

> <s_epik_cmdline>
J2VwaWtfcHl0aG9uJywgJy1waCcsICc3LjAnLCAnLXRuJywgJzgnLCAnLW1hJywgJzIwMCcsICctbWV0YWxfYmluZGluZycsICctaW1hZScsICc8aW5maWxlLm1hZT4nLCAnLW9tYWUnLCAnPG91dGZpbGUubWFlPic=

> <r_epik_Ionization_Penalty>
0.266074

> <r_epik_Ionization_Penalty_Charging>
0

> <r_epik_Ionization_Penalty_Neutral>
0.266074

> <r_epik_State_Penalty>
0.257924

> <r_epik_Charging_Adjusted_Penalty>
0.257924

> <i_epik_Tot_Q>
0

> <i_epik_Tot_abs_Q>
0

> <r_epik_Metal_State_Penalty>
0.257919

> <b_epik_Metal_Only>
0

> <s_lp_Force_Field>
OPLS_2005

> <r_lp_Energy>
37.1524

> <b_lp_Chiralities_Consistent>
1

> <s_lp_Variant>
AV-unprocessed.smi:2390-1

> <Gold.Version>
5.8.1

> <Gold.Id.Protein>
6NUR|6NUR_protein|mol2

> <Gold.PLP.Fitness>
37.5879

> <Gold.PLP.PLP>
-32.8841

> <Gold.PLP.part.hbond>
-2.0000

> <Gold.PLP.part.metal>
0.0000

> <Gold.PLP.part.buried>
-2.5482

> <Gold.PLP.part.nonpolar>
-30.0899

> <Gold.PLP.part.repulsive>
2.2724

> <Gold.PLP.ligand.clash>
0.0000

> <Gold.PLP.ligand.torsion>
0.5911

> <Gold.PLP.Chemscore.Hbond>
1.9280

> <Gold.PLP.Chemscore.CHOScore>
0.0000

> <Gold.PLP.Chemscore.Metal>
0.0000

> <Gold.Chemscore.Hbonds>
donor molecule, donor type, donor heavy atom, donor atom, acceptor molecule, acceptor atom, score
      L1  H     7    28       P1  7948  0.93
      L1  H    10    29       P1  7948  1.00

> <Gold.PLP.Chemscore.Internal.Correction>
0.1020

> <Gold.Rescore>
     Score         DG    S(hbond)    S(metal)    S(lipo)     H(rot)  DE(clash)    DE(int)     intcor
     14.18     -17.00       1.89        0.00      75.96       1.44       0.65       2.17       ----

> <Gold.Chemscore.Fitness>
14.1841

> <Gold.Chemscore.DG>
-17.0023

> <Gold.Chemscore.ZeroCoef>
-5.4800

> <Gold.Chemscore.Hbond>
1.8924

> <Gold.Chemscore.Metal>
0.0000

> <Gold.Chemscore.Lipo>
75.9594

> <Gold.Chemscore.Internal_Hbond>
0.0000

> <Gold.Chemscore.DEClash>
0.6515

> <Gold.Chemscore.DEInternal>
2.1667

> <Gold.Chemscore.Rot>
1.4396

> <Gold.Chemscore.Internal.Correction>
   9.000000E+99

> <Gold.Chemscore.Hbonds>
donor molecule, donor type, donor heavy atom, donor atom, acceptor molecule, acceptor atom, score
      L1  H     7    28       P1  7948  0.77
      L1  H    10    29       P1  7948  0.99

> <Gold.Chemscore.Hbond.Weighted>
-6.3205

> <Gold.Chemscore.Metal.Weighted>
-0.0000

> <Gold.Chemscore.Lipo.Weighted>
-8.8873

> <Gold.Chemscore.Internal_Hbond.Weighted>
0.0000

> <Gold.Chemscore.DEClash.Weighted>
0.6515

> <Gold.Chemscore.DEInternal.Weighted>
2.1667

> <Gold.Chemscore.Rot.Weighted>
3.6855

> <Gold.Chemscore.Internal.Correction.Weighted>
   9.000000E+99

> <Gold.Protein.RotatedTorsions>
[ 6907 6896 6895 6894 ] final  122.17 input  -60.11 | X-H torsion
[ 7974 7965 7964 7962 ] final  147.48 input  175.53 | X-H torsion
[ 8008 7997 7996 7995 ] final  134.16 input   59.86 | X-H torsion
[ 10167 10162 10161 10158 ] final  173.92 input  -65.29 | X-H torsion
[ 10718 10713 10712 10709 ] final  157.25 input   66.30 | X-H torsion
[ 10763 10752 10751 10750 ] final   44.39 input  -60.55 | X-H torsion
[ 11005 11000 10999 10996 ] final  146.94 input  -57.11 | X-H torsion

> <Gold.Protein.ActiveResidues>
 VAL166  LYS551  ARG553  GLY616  TRP617  ASP618  TYR619  PRO620  LYS621  CYS622 
 ASP623  PHE694  ASN695  SER759  ASP760  ASP761  ALA762  ILE779  LEU786  VAL792 
 PHE793  MET794  SER795  GLU796  ALA797  LYS798  CYS799  TRP800  GLU811  SER814 

> <Gold.Protein.RotatedAtoms>
  152.4264  133.7202  159.6528 H   0  0  0  0  0  0  0  0  0  0  0  0  # atno 6907 bound_to 6896
  150.8141  133.8358  159.3174 H   0  0  0  0  0  0  0  0  0  0  0  0  # atno 6908 bound_to 6896
  151.6060  135.1046  160.0122 H   0  0  0  0  0  0  0  0  0  0  0  0  # atno 6909 bound_to 6896
  144.8588  139.6034  143.5940 H   0  0  0  0  0  0  0  0  0  0  0  0  # atno 7974 bound_to 7965
  156.2997  140.2503  156.3372 H   0  0  0  0  0  0  0  0  0  0  0  0  # atno 8008 bound_to 7997
  154.9089  140.0404  157.1954 H   0  0  0  0  0  0  0  0  0  0  0  0  # atno 8009 bound_to 7997
  154.8425  140.2893  155.5654 H   0  0  0  0  0  0  0  0  0  0  0  0  # atno 8010 bound_to 7997
  139.5124  144.3205  152.0206 H   0  0  0  0  0  0  0  0  0  0  0  0  # atno 10167 bound_to 10162
  157.1941  131.0661  151.2063 H   0  0  0  0  0  0  0  0  0  0  0  0  # atno 10718 bound_to 10713
  152.9842  135.6072  154.3266 H   0  0  0  0  0  0  0  0  0  0  0  0  # atno 10763 bound_to 10752
  154.2972  135.2773  155.2629 H   0  0  0  0  0  0  0  0  0  0  0  0  # atno 10764 bound_to 10752
  154.4898  135.5895  153.6507 H   0  0  0  0  0  0  0  0  0  0  0  0  # atno 10765 bound_to 10752
  140.0835  134.9083  157.1538 H   0  0  0  0  0  0  0  0  0  0  0  0  # atno 11005 bound_to 11000
  146.2844  139.6964  142.9206 LP  0  0  0  0  0  0  0  0  0  0  0  0  # atno 17320 bound_to 7965
  145.4353  141.0418  143.2888 LP  0  0  0  0  0  0  0  0  0  0  0  0  # atno 17321 bound_to 7965
  140.2647  144.4029  150.6172 LP  0  0  0  0  0  0  0  0  0  0  0  0  # atno 17342 bound_to 10162
  140.6132  143.2170  151.6845 LP  0  0  0  0  0  0  0  0  0  0  0  0  # atno 17343 bound_to 10162
  157.3832  130.7242  149.6645 LP  0  0  0  0  0  0  0  0  0  0  0  0  # atno 17370 bound_to 10713
  155.9708  130.4167  150.4242 LP  0  0  0  0  0  0  0  0  0  0  0  0  # atno 17371 bound_to 10713
  140.3454  134.2657  155.7206 LP  0  0  0  0  0  0  0  0  0  0  0  0  # atno 17394 bound_to 11000
  141.2054  133.7859  157.0232 LP  0  0  0  0  0  0  0  0  0  0  0  0  # atno 17395 bound_to 11000

$$$$
