AV-unprocessed.smi:1362|AV-procd|sdf|5563|dock6
  -GOLD-   22720 5153D 1   1.00000     0.00000
 Structure written by MMmdl.
 38 38  0  0  0  0  0  0  0  0  2 V2000
  154.2915  134.3101  157.6753 C   0  0  0  0  0  0  0  0  0  0  0  0
  153.5834  135.6467  157.7336 C   0  0  0  0  0  0  0  0  0  0  0  0
  153.4077  136.3085  156.6538 N   0  0  0  0  0  0  0  0  0  0  0  0
  152.7517  137.5503  156.7031 C   0  0  0  0  0  0  0  0  0  0  0  0
  152.5902  138.2693  155.3747 C   0  0  0  0  0  0  0  0  0  0  0  0
  152.2962  138.0615  157.8827 C   0  0  0  0  0  0  0  0  0  0  0  0
  151.5814  139.4086  157.9875 C   0  0  0  0  0  0  0  0  0  0  0  0
  152.2222  140.4363  158.9232 C   0  0  0  0  0  0  0  0  0  0  0  0
  153.0302  140.0830  159.7826 O   0  0  0  0  0  0  0  0  0  0  0  0
  151.8450  141.7118  158.7447 N   0  0  0  0  0  0  0  0  0  0  0  0
  152.2935  142.8537  159.5403 C   0  0  1  0  0  0  0  0  0  0  0  0
  153.8322  142.8345  159.6166 C   0  0  0  0  0  0  0  0  0  0  0  0
  151.7232  144.1705  158.9495 C   0  0  0  0  0  0  0  0  0  0  0  0
  152.1588  144.3968  157.4903 C   0  0  0  0  0  0  0  0  0  0  0  0
  152.1038  145.4029  159.7941 C   0  0  0  0  0  0  0  0  0  0  0  0
  152.5136  137.2647  159.1034 C   0  0  0  0  0  0  0  0  0  0  0  0
  152.1099  137.6723  160.1920 O   0  0  0  0  0  0  0  0  0  0  0  0
  153.1673  136.0750  158.9741 N   0  5  0  0  0  0  0  0  0  0  0  0
  154.3771  133.9562  156.6470 H   0  0  0  0  0  0  0  0  0  0  0  0
  153.7422  133.5616  158.2473 H   0  0  0  0  0  0  0  0  0  0  0  0
  155.2945  134.3982  158.0936 H   0  0  0  0  0  0  0  0  0  0  0  0
  153.1346  139.2137  155.3824 H   0  0  0  0  0  0  0  0  0  0  0  0
  151.5387  138.4752  155.1732 H   0  0  0  0  0  0  0  0  0  0  0  0
  152.9758  137.6671  154.5511 H   0  0  0  0  0  0  0  0  0  0  0  0
  151.4695  139.8666  157.0045 H   0  0  0  0  0  0  0  0  0  0  0  0
  150.5603  139.2233  158.3223 H   0  0  0  0  0  0  0  0  0  0  0  0
  151.1774  141.9047  158.0124 H   0  0  0  0  0  0  0  0  0  0  0  0
  151.9015  142.7468  160.5538 H   0  0  0  0  0  0  0  0  0  0  0  0
  154.2131  143.5947  160.2978 H   0  0  0  0  0  0  0  0  0  0  0  0
  154.2809  143.0041  158.6373 H   0  0  0  0  0  0  0  0  0  0  0  0
  154.1961  141.8748  159.9849 H   0  0  0  0  0  0  0  0  0  0  0  0
  150.6344  144.0996  158.9560 H   0  0  0  0  0  0  0  0  0  0  0  0
  153.2454  144.4099  157.3986 H   0  0  0  0  0  0  0  0  0  0  0  0
  151.7841  145.3486  157.1127 H   0  0  0  0  0  0  0  0  0  0  0  0
  151.7746  143.6232  156.8263 H   0  0  0  0  0  0  0  0  0  0  0  0
  153.1863  145.5125  159.8656 H   0  0  0  0  0  0  0  0  0  0  0  0
  151.7085  145.3426  160.8082 H   0  0  0  0  0  0  0  0  0  0  0  0
  151.7065  146.3179  159.3538 H   0  0  0  0  0  0  0  0  0  0  0  0
  1  2  1  0  0  0  0
  1 19  1  0  0  0  0
  1 20  1  0  0  0  0
  1 21  1  0  0  0  0
  2 18  1  0  0  0  0
  2  3  2  0  0  0  0
  3  4  1  0  0  0  0
  4  5  1  0  0  0  0
  4  6  2  0  0  0  0
  5 22  1  0  0  0  0
  5 23  1  0  0  0  0
  5 24  1  0  0  0  0
  6  7  1  0  0  0  0
  6 16  1  0  0  0  0
  7  8  1  0  0  0  0
  7 25  1  0  0  0  0
  7 26  1  0  0  0  0
  8  9  2  0  0  0  0
  8 10  1  0  0  0  0
 10 11  1  0  0  0  0
 10 27  1  0  0  0  0
 11 12  1  0  0  0  0
 11 13  1  0  0  0  0
 11 28  1  0  0  0  0
 12 29  1  0  0  0  0
 12 30  1  0  0  0  0
 12 31  1  0  0  0  0
 13 14  1  0  0  0  0
 13 15  1  0  0  0  0
 13 32  1  0  0  0  0
 14 33  1  0  0  0  0
 14 34  1  0  0  0  0
 14 35  1  0  0  0  0
 15 36  1  0  0  0  0
 15 37  1  0  0  0  0
 15 38  1  0  0  0  0
 16 17  2  0  0  0  0
 16 18  1  0  0  0  0
M  CHG  1  18  -1
M  END
> <s_m_source_file>
AV-unprocessed.smi

> <i_m_source_file_index>
1362

> <i_lp_mmshare_version>
43012

> <i_f3d_flags>
0

> <s_epik_input>
W0NIM11jMW5jKFtDSDNdKWMoYyg9TylbbkhdMSlbQ0gyXUMoPU8pW05IXVtDQEhdKFtDSDNdKVtDSF0oW0NIM10pW0NIM10=

> <s_epik_cmdline>
J2VwaWtfcHl0aG9uJywgJy1waCcsICc3LjAnLCAnLXRuJywgJzgnLCAnLW1hJywgJzIwMCcsICctbWV0YWxfYmluZGluZycsICctaW1hZScsICc8aW5maWxlLm1hZT4nLCAnLW9tYWUnLCAnPG91dGZpbGUubWFlPic=

> <r_lp_tautomer_probability>
0.839158

> <r_epik_Ionization_Penalty>
6.62204

> <r_epik_Ionization_Penalty_Charging>
7.30593e-08

> <r_epik_Ionization_Penalty_Neutral>
6.62204

> <r_epik_State_Penalty>
4.44062

> <r_epik_Charging_Adjusted_Penalty>
4.44062

> <i_epik_Tot_Q>
-1

> <i_epik_Tot_abs_Q>
1

> <r_epik_Metal_State_Penalty>
0.802984

> <b_epik_Metal_Only>
1

> <s_lp_Force_Field>
OPLS_2005

> <r_lp_Energy>
10.9313

> <b_lp_Chiralities_Consistent>
1

> <s_lp_Variant>
AV-unprocessed.smi:1362-6

> <Gold.Version>
5.8.1

> <Gold.Id.Protein>
6NUR|6NUR_protein|mol2

> <Gold.PLP.Fitness>
39.1643

> <Gold.PLP.PLP>
-31.7496

> <Gold.PLP.part.hbond>
-2.0000

> <Gold.PLP.part.metal>
0.0000

> <Gold.PLP.part.buried>
-4.9077

> <Gold.PLP.part.nonpolar>
-26.0331

> <Gold.PLP.part.repulsive>
0.1083

> <Gold.PLP.ligand.clash>
0.0000

> <Gold.PLP.ligand.torsion>
0.3158

> <Gold.PLP.Chemscore.Hbond>
2.6720

> <Gold.PLP.Chemscore.CHOScore>
0.0000

> <Gold.PLP.Chemscore.Metal>
0.0000

> <Gold.Chemscore.Hbonds>
donor molecule, donor type, donor heavy atom, donor atom, acceptor molecule, acceptor atom, score
      P1  H  6896  6908       L1    18  1.44
      P1  H 10752 10765       L1     3  1.00

> <Gold.PLP.Chemscore.Internal.Correction>
0.0302

> <Gold.Rescore>
     Score         DG    S(hbond)    S(metal)    S(lipo)     H(rot)  DE(clash)    DE(int)     intcor
     13.27     -15.88       1.42        0.00      84.26       1.64       0.04       2.57       ----

> <Gold.Chemscore.Fitness>
13.2732

> <Gold.Chemscore.DG>
-15.8771

> <Gold.Chemscore.ZeroCoef>
-5.4800

> <Gold.Chemscore.Hbond>
1.4208

> <Gold.Chemscore.Metal>
0.0000

> <Gold.Chemscore.Lipo>
84.2621

> <Gold.Chemscore.Internal_Hbond>
0.0000

> <Gold.Chemscore.DEClash>
0.0387

> <Gold.Chemscore.DEInternal>
2.5652

> <Gold.Chemscore.Rot>
1.6433

> <Gold.Chemscore.Internal.Correction>
   9.000000E+99

> <Gold.Chemscore.Hbonds>
donor molecule, donor type, donor heavy atom, donor atom, acceptor molecule, acceptor atom, score
      P1  H  6896  6908       L1    18  0.50
      P1  H 10752 10765       L1     3  0.76

> <Gold.Chemscore.Hbond.Weighted>
-4.7454

> <Gold.Chemscore.Metal.Weighted>
-0.0000

> <Gold.Chemscore.Lipo.Weighted>
-9.8587

> <Gold.Chemscore.Internal_Hbond.Weighted>
0.0000

> <Gold.Chemscore.DEClash.Weighted>
0.0387

> <Gold.Chemscore.DEInternal.Weighted>
2.5652

> <Gold.Chemscore.Rot.Weighted>
4.2069

> <Gold.Chemscore.Internal.Correction.Weighted>
   9.000000E+99

> <Gold.Protein.RotatedTorsions>
[ 6907 6896 6895 6894 ] final  -62.02 input  -60.11 | X-H torsion
[ 7974 7965 7964 7962 ] final -123.10 input  175.53 | X-H torsion
[ 8008 7997 7996 7995 ] final  140.89 input   59.86 | X-H torsion
[ 10167 10162 10161 10158 ] final -119.12 input  -65.29 | X-H torsion
[ 10718 10713 10712 10709 ] final  138.07 input   66.30 | X-H torsion
[ 10763 10752 10751 10750 ] final -114.84 input  -60.55 | X-H torsion
[ 11005 11000 10999 10996 ] final   13.75 input  -57.11 | X-H torsion

> <Gold.Protein.ActiveResidues>
 VAL166  LYS551  ARG553  GLY616  TRP617  ASP618  TYR619  PRO620  LYS621  CYS622 
 ASP623  PHE694  ASN695  SER759  ASP760  ASP761  ALA762  ILE779  LEU786  VAL792 
 PHE793  MET794  SER795  GLU796  ALA797  LYS798  CYS799  TRP800  GLU811  SER814 

> <Gold.Protein.RotatedAtoms>
  150.7744  134.6627  159.6348 H   0  0  0  0  0  0  0  0  0  0  0  0  # atno 6907 bound_to 6896
  152.3809  134.6588  160.0152 H   0  0  0  0  0  0  0  0  0  0  0  0  # atno 6908 bound_to 6896
  151.6919  133.3274  159.3281 H   0  0  0  0  0  0  0  0  0  0  0  0  # atno 6909 bound_to 6896
  145.0223  140.7999  143.4373 H   0  0  0  0  0  0  0  0  0  0  0  0  # atno 7974 bound_to 7965
  156.2973  140.2329  156.4475 H   0  0  0  0  0  0  0  0  0  0  0  0  # atno 8008 bound_to 7997
  154.8131  140.0442  157.1377 H   0  0  0  0  0  0  0  0  0  0  0  0  # atno 8009 bound_to 7997
  154.9401  140.3028  155.5129 H   0  0  0  0  0  0  0  0  0  0  0  0  # atno 8010 bound_to 7997
  140.0501  143.5068  152.2086 H   0  0  0  0  0  0  0  0  0  0  0  0  # atno 10167 bound_to 10162
  157.4293  131.1047  151.0268 H   0  0  0  0  0  0  0  0  0  0  0  0  # atno 10718 bound_to 10713
  154.8457  135.4403  154.1569 H   0  0  0  0  0  0  0  0  0  0  0  0  # atno 10763 bound_to 10752
  153.2715  135.6945  153.7482 H   0  0  0  0  0  0  0  0  0  0  0  0  # atno 10764 bound_to 10752
  153.6720  135.3417  155.3131 H   0  0  0  0  0  0  0  0  0  0  0  0  # atno 10765 bound_to 10752
  140.4772  134.0971  155.7744 H   0  0  0  0  0  0  0  0  0  0  0  0  # atno 11005 bound_to 11000
  145.1879  139.2317  143.5258 LP  0  0  0  0  0  0  0  0  0  0  0  0  # atno 17320 bound_to 7965
  146.3487  140.1668  142.8590 LP  0  0  0  0  0  0  0  0  0  0  0  0  # atno 17321 bound_to 7965
  139.5958  144.7566  151.3289 LP  0  0  0  0  0  0  0  0  0  0  0  0  # atno 17342 bound_to 10162
  140.7220  143.7108  150.7771 LP  0  0  0  0  0  0  0  0  0  0  0  0  # atno 17343 bound_to 10162
  157.1170  130.6045  149.5495 LP  0  0  0  0  0  0  0  0  0  0  0  0  # atno 17370 bound_to 10713
  155.9907  130.4960  150.7270 LP  0  0  0  0  0  0  0  0  0  0  0  0  # atno 17371 bound_to 10713
  141.1548  133.8902  157.2004 LP  0  0  0  0  0  0  0  0  0  0  0  0  # atno 17394 bound_to 11000
  139.9848  135.0085  156.9837 LP  0  0  0  0  0  0  0  0  0  0  0  0  # atno 17395 bound_to 11000

$$$$
