AV-unprocessed.smi:2247|AV-procd|sdf|9092|dock3
  -GOLD-   2272012293D 1   1.00000     0.00000
 Structure written by MMmdl.
 33 34  0  0  0  0  0  0  0  0  2 V2000
  152.4808  143.0365  161.7178 C   0  0  0  0  0  0  0  0  0  0  0  0
  152.4575  143.8131  160.3888 C   0  0  0  0  0  0  0  0  0  0  0  0
  151.4546  144.9772  160.4213 C   0  0  0  0  0  0  0  0  0  0  0  0
  152.1950  142.9450  159.2331 N   0  0  0  0  0  0  0  0  0  0  0  0
  152.2501  141.4946  159.3197 C   0  0  0  0  0  0  0  0  0  0  0  0
  151.5834  141.0073  158.0306 C   0  0  0  0  0  0  0  0  0  0  0  0
  151.6617  142.1841  157.0450 C   0  0  1  0  0  0  0  0  0  0  0  0
  150.4101  142.2932  156.2964 N   0  0  0  0  0  0  0  0  0  0  0  0
  149.9407  141.4029  155.4100 C   0  0  0  0  0  0  0  0  0  0  0  0
  150.5867  140.3821  155.1625 O   0  0  0  0  0  0  0  0  0  0  0  0
  148.7501  141.7492  154.8702 N   0  5  0  0  0  0  0  0  0  0  0  0
  148.0843  140.8718  154.1022 C   0  0  0  0  0  0  0  0  0  0  0  0
  147.0510  141.1444  153.3035 N   0  0  0  0  0  0  0  0  0  0  0  0
  146.6912  139.9376  152.7239 C   0  0  0  0  0  0  0  0  0  0  0  0
  147.5291  138.9717  153.2106 C   0  0  0  0  0  0  0  0  0  0  0  0
  148.4095  139.5479  154.0840 O   0  0  0  0  0  0  0  0  0  0  0  0
  151.8475  143.3592  158.0063 C   0  0  0  0  0  0  0  0  0  0  0  0
  151.7104  144.5331  157.6615 O   0  0  0  0  0  0  0  0  0  0  0  0
  152.7760  143.6871  162.5413 H   0  0  0  0  0  0  0  0  0  0  0  0
  153.1951  142.2134  161.6807 H   0  0  0  0  0  0  0  0  0  0  0  0
  151.5024  142.6239  161.9653 H   0  0  0  0  0  0  0  0  0  0  0  0
  153.4539  144.2410  160.2635 H   0  0  0  0  0  0  0  0  0  0  0  0
  151.6662  145.6533  161.2498 H   0  0  0  0  0  0  0  0  0  0  0  0
  150.4326  144.6158  160.5391 H   0  0  0  0  0  0  0  0  0  0  0  0
  151.4970  145.5622  159.5019 H   0  0  0  0  0  0  0  0  0  0  0  0
  153.2914  141.1722  159.3600 H   0  0  0  0  0  0  0  0  0  0  0  0
  151.7353  141.1191  160.2048 H   0  0  0  0  0  0  0  0  0  0  0  0
  152.0612  140.1099  157.6365 H   0  0  0  0  0  0  0  0  0  0  0  0
  150.5441  140.7507  158.2443 H   0  0  0  0  0  0  0  0  0  0  0  0
  152.5348  142.0958  156.3962 H   0  0  0  0  0  0  0  0  0  0  0  0
  149.8511  143.1169  156.4626 H   0  0  0  0  0  0  0  0  0  0  0  0
  145.8759  139.8624  152.0197 H   0  0  0  0  0  0  0  0  0  0  0  0
  147.6267  137.9086  153.0507 H   0  0  0  0  0  0  0  0  0  0  0  0
  1  2  1  0  0  0  0
  1 19  1  0  0  0  0
  1 20  1  0  0  0  0
  1 21  1  0  0  0  0
  2  3  1  0  0  0  0
  2  4  1  0  0  0  0
  2 22  1  0  0  0  0
  3 23  1  0  0  0  0
  3 24  1  0  0  0  0
  3 25  1  0  0  0  0
  4 17  1  0  0  0  0
  4  5  1  0  0  0  0
  5  6  1  0  0  0  0
  5 26  1  0  0  0  0
  5 27  1  0  0  0  0
  6  7  1  0  0  0  0
  6 28  1  0  0  0  0
  6 29  1  0  0  0  0
  7  8  1  0  0  0  0
  7 17  1  0  0  0  0
  7 30  1  0  0  0  0
  8  9  1  0  0  0  0
  8 31  1  0  0  0  0
  9 10  2  0  0  0  0
  9 11  1  0  0  0  0
 11 12  1  0  0  0  0
 12 16  1  0  0  0  0
 12 13  2  0  0  0  0
 13 14  1  0  0  0  0
 14 15  2  0  0  0  0
 14 32  1  0  0  0  0
 15 16  1  0  0  0  0
 15 33  1  0  0  0  0
 17 18  2  0  0  0  0
M  CHG  1  11  -1
M  END
> <s_m_source_file>
AV-unprocessed.smi

> <i_m_source_file_index>
2247

> <i_lp_mmshare_version>
43012

> <i_f3d_flags>
0

> <s_epik_input>
W0NIM11bQ0hdKFtDSDNdKU4xW0NIMl1bQ0gyXVtDQEhdKEMxPU8pW05IXUMoPU8pW05IXWMybltjSF1bY0hdbzI=

> <s_epik_cmdline>
J2VwaWtfcHl0aG9uJywgJy1waCcsICc3LjAnLCAnLXRuJywgJzgnLCAnLW1hJywgJzIwMCcsICctbWV0YWxfYmluZGluZycsICctaW1hZScsICc8aW5maWxlLm1hZT4nLCAnLW9tYWUnLCAnPG91dGZpbGUubWFlPic=

> <r_lp_tautomer_probability>
0.785861

> <r_epik_Ionization_Penalty>
8.37364

> <r_epik_Ionization_Penalty_Charging>
6.20178

> <r_epik_Ionization_Penalty_Neutral>
2.17186

> <r_epik_State_Penalty>
6.22234

> <r_epik_Charging_Adjusted_Penalty>
12.4241

> <i_epik_Tot_Q>
-1

> <i_epik_Tot_abs_Q>
1

> <r_epik_Metal_State_Penalty>
2.14252

> <b_epik_Metal_Only>
1

> <s_lp_Force_Field>
OPLS_2005

> <r_lp_Energy>
16.3592

> <b_lp_Chiralities_Consistent>
1

> <s_lp_Variant>
AV-unprocessed.smi:2247-7

> <Gold.Version>
5.8.1

> <Gold.Id.Protein>
6NUR|6NUR_protein|mol2

> <Gold.PLP.Fitness>
44.6375

> <Gold.PLP.PLP>
-33.9213

> <Gold.PLP.part.hbond>
-2.0000

> <Gold.PLP.part.metal>
0.0000

> <Gold.PLP.part.buried>
-4.0702

> <Gold.PLP.part.nonpolar>
-28.7054

> <Gold.PLP.part.repulsive>
1.1741

> <Gold.PLP.ligand.clash>
0.0000

> <Gold.PLP.ligand.torsion>
0.5142

> <Gold.PLP.Chemscore.Hbond>
1.9600

> <Gold.PLP.Chemscore.CHOScore>
1.9214

> <Gold.PLP.Chemscore.Metal>
0.0000

> <Gold.Chemscore.Hbonds>
donor molecule, donor type, donor heavy atom, donor atom, acceptor molecule, acceptor atom, score
      L1  H     8    31       P1  8028  0.94
      P1  H  7989  7998       L1    10  1.00
      L1  C    14    32       P1 10175  0.91
      L1  C    15    33       P1  7948  1.00

> <Gold.PLP.Chemscore.Internal.Correction>
0.1005

> <Gold.Rescore>
     Score         DG    S(hbond)    S(metal)    S(lipo)     H(rot)  DE(clash)    DE(int)     intcor
     11.43     -16.22       1.58        0.00      75.56       1.32       1.66       3.12       ----

> <Gold.Chemscore.Fitness>
11.4345

> <Gold.Chemscore.DG>
-16.2196

> <Gold.Chemscore.ZeroCoef>
-5.4800

> <Gold.Chemscore.Hbond>
1.5817

> <Gold.Chemscore.Metal>
0.0000

> <Gold.Chemscore.Lipo>
75.5637

> <Gold.Chemscore.Internal_Hbond>
0.0000

> <Gold.Chemscore.DEClash>
1.6647

> <Gold.Chemscore.DEInternal>
3.1204

> <Gold.Chemscore.Rot>
1.3219

> <Gold.Chemscore.Internal.Correction>
   9.000000E+99

> <Gold.Chemscore.Hbonds>
donor molecule, donor type, donor heavy atom, donor atom, acceptor molecule, acceptor atom, score
      L1  H     8    31       P1  8028  0.84
      P1  H  7989  7998       L1    10  0.36

> <Gold.Chemscore.Hbond.Weighted>
-5.2828

> <Gold.Chemscore.Metal.Weighted>
-0.0000

> <Gold.Chemscore.Lipo.Weighted>
-8.8410

> <Gold.Chemscore.Internal_Hbond.Weighted>
0.0000

> <Gold.Chemscore.DEClash.Weighted>
1.6647

> <Gold.Chemscore.DEInternal.Weighted>
3.1204

> <Gold.Chemscore.Rot.Weighted>
3.3842

> <Gold.Chemscore.Internal.Correction.Weighted>
   9.000000E+99

> <Gold.Protein.RotatedTorsions>
[ 6907 6896 6895 6894 ] final  153.16 input  -60.11 | X-H torsion
[ 7974 7965 7964 7962 ] final  -69.34 input  175.53 | X-H torsion
[ 8008 7997 7996 7995 ] final -149.63 input   59.86 | X-H torsion
[ 10167 10162 10161 10158 ] final  120.91 input  -65.29 | X-H torsion
[ 10718 10713 10712 10709 ] final   98.32 input   66.30 | X-H torsion
[ 10763 10752 10751 10750 ] final  110.23 input  -60.55 | X-H torsion
[ 11005 11000 10999 10996 ] final -148.81 input  -57.11 | X-H torsion

> <Gold.Protein.ActiveResidues>
 VAL166  LYS551  ARG553  GLY616  TRP617  ASP618  TYR619  PRO620  LYS621  CYS622 
 ASP623  PHE694  ASN695  SER759  ASP760  ASP761  ALA762  ILE779  LEU786  VAL792 
 PHE793  MET794  SER795  GLU796  ALA797  LYS798  CYS799  TRP800  GLU811  SER814 

> <Gold.Protein.RotatedAtoms>
  152.0766  133.4132  159.4482 H   0  0  0  0  0  0  0  0  0  0  0  0  # atno 6907 bound_to 6896
  150.6862  134.3030  159.4723 H   0  0  0  0  0  0  0  0  0  0  0  0  # atno 6908 bound_to 6896
  152.0867  134.9434  160.0623 H   0  0  0  0  0  0  0  0  0  0  0  0  # atno 6909 bound_to 6896
  145.7050  140.9101  143.0711 H   0  0  0  0  0  0  0  0  0  0  0  0  # atno 7974 bound_to 7965
  155.6107  140.0671  157.2707 H   0  0  0  0  0  0  0  0  0  0  0  0  # atno 8008 bound_to 7997
  154.4254  140.1802  156.1317 H   0  0  0  0  0  0  0  0  0  0  0  0  # atno 8009 bound_to 7997
  156.0087  140.3329  155.6922 H   0  0  0  0  0  0  0  0  0  0  0  0  # atno 8010 bound_to 7997
  139.5952  144.7039  151.3193 H   0  0  0  0  0  0  0  0  0  0  0  0  # atno 10167 bound_to 10162
  157.6897  131.0636  150.4779 H   0  0  0  0  0  0  0  0  0  0  0  0  # atno 10718 bound_to 10713
  153.4460  135.3755  155.2256 H   0  0  0  0  0  0  0  0  0  0  0  0  # atno 10763 bound_to 10752
  154.8755  135.3874  154.4095 H   0  0  0  0  0  0  0  0  0  0  0  0  # atno 10764 bound_to 10752
  153.4648  135.7087  153.6092 H   0  0  0  0  0  0  0  0  0  0  0  0  # atno 10765 bound_to 10752
  140.7573  134.3338  157.5111 H   0  0  0  0  0  0  0  0  0  0  0  0  # atno 11005 bound_to 11000
  144.6958  139.8998  143.7458 LP  0  0  0  0  0  0  0  0  0  0  0  0  # atno 17320 bound_to 7965
  146.0764  139.3752  143.0491 LP  0  0  0  0  0  0  0  0  0  0  0  0  # atno 17321 bound_to 7965
  140.7206  143.7145  150.7743 LP  0  0  0  0  0  0  0  0  0  0  0  0  # atno 17342 bound_to 10162
  140.0710  143.5061  152.2580 LP  0  0  0  0  0  0  0  0  0  0  0  0  # atno 17343 bound_to 10162
  156.5113  130.4140  149.6300 LP  0  0  0  0  0  0  0  0  0  0  0  0  # atno 17370 bound_to 10713
  156.3238  130.7295  151.2212 LP  0  0  0  0  0  0  0  0  0  0  0  0  # atno 17371 bound_to 10713
  139.8777  134.9180  156.3192 LP  0  0  0  0  0  0  0  0  0  0  0  0  # atno 17394 bound_to 11000
  140.9696  133.7336  156.0515 LP  0  0  0  0  0  0  0  0  0  0  0  0  # atno 17395 bound_to 11000

$$$$
