AV-unprocessed.smi:1868|AV-procd|sdf|7587|dock4
  -GOLD-   22720 9293D 1   1.00000     0.00000
 Structure written by MMmdl.
 47 49  0  0  0  0  0  0  0  0  2 V2000
  149.2656  139.1648  159.5569 C   0  0  0  0  0  0  0  0  0  0  0  0
  149.8024  140.5494  159.3782 C   0  0  0  0  0  0  0  0  0  0  0  0
  149.8480  141.4284  160.3790 N   0  0  0  0  0  0  0  0  0  0  0  0
  150.4119  142.5393  159.7815 C   0  0  0  0  0  0  0  0  0  0  0  0
  150.7280  143.8088  160.3159 C   0  0  0  0  0  0  0  0  0  0  0  0
  151.3067  144.8026  159.4997 C   0  0  0  0  0  0  0  0  0  0  0  0
  151.5765  144.5423  158.1406 C   0  0  0  0  0  0  0  0  0  0  0  0
  151.2700  143.2840  157.5880 C   0  0  0  0  0  0  0  0  0  0  0  0
  150.6930  142.2950  158.4070 C   0  0  0  0  0  0  0  0  0  0  0  0
  150.2766  140.9854  158.1852 N   0  0  0  0  0  0  0  0  0  0  0  0
  150.3489  140.2529  156.9279 C   0  0  0  0  0  0  0  0  0  0  0  0
  150.0078  141.1288  155.7058 C   0  0  1  0  0  0  0  0  0  0  0  0
  150.3478  140.4369  154.5196 O   0  0  0  0  0  0  0  0  0  0  0  0
  148.5066  141.4760  155.6577 C   0  0  0  0  0  0  0  0  0  0  0  0
  148.2132  142.6429  154.7858 N   0  3  2  0  0  0  0  0  0  0  0  0
  146.9358  143.3261  155.1219 C   0  0  0  0  0  0  0  0  0  0  0  0
  146.7483  144.6005  154.2788 C   0  0  0  0  0  0  0  0  0  0  0  0
  146.8292  144.3181  152.7674 C   0  0  2  0  0  0  0  0  0  0  0  0
  145.5745  143.6107  152.2256 C   0  0  0  0  0  0  0  0  0  0  0  0
  148.1266  143.5490  152.4604 C   0  0  0  0  0  0  0  0  0  0  0  0
  148.2849  142.2979  153.3427 C   0  0  0  0  0  0  0  0  0  0  0  0
  148.8889  139.0295  160.5714 H   0  0  0  0  0  0  0  0  0  0  0  0
  150.0526  138.4307  159.3836 H   0  0  0  0  0  0  0  0  0  0  0  0
  148.4479  138.9795  158.8608 H   0  0  0  0  0  0  0  0  0  0  0  0
  150.5254  144.0181  161.3557 H   0  0  0  0  0  0  0  0  0  0  0  0
  151.5447  145.7694  159.9188 H   0  0  0  0  0  0  0  0  0  0  0  0
  152.0198  145.3096  157.5226 H   0  0  0  0  0  0  0  0  0  0  0  0
  151.4754  143.0833  156.5471 H   0  0  0  0  0  0  0  0  0  0  0  0
  151.3526  139.8371  156.8280 H   0  0  0  0  0  0  0  0  0  0  0  0
  149.6747  139.3977  156.9806 H   0  0  0  0  0  0  0  0  0  0  0  0
  150.6073  142.0369  155.7504 H   0  0  0  0  0  0  0  0  0  0  0  0
  150.0694  140.9549  153.7789 H   0  0  0  0  0  0  0  0  0  0  0  0
  147.9658  140.6007  155.2937 H   0  0  0  0  0  0  0  0  0  0  0  0
  148.1251  141.6715  156.6611 H   0  0  0  0  0  0  0  0  0  0  0  0
  146.1018  142.6404  154.9675 H   0  0  0  0  0  0  0  0  0  0  0  0
  146.9187  143.6013  156.1757 H   0  0  0  0  0  0  0  0  0  0  0  0
  145.7977  145.0757  154.5237 H   0  0  0  0  0  0  0  0  0  0  0  0
  147.5228  145.3195  154.5497 H   0  0  0  0  0  0  0  0  0  0  0  0
  146.8868  145.2791  152.2542 H   0  0  0  0  0  0  0  0  0  0  0  0
  145.4238  142.6323  152.6805 H   0  0  0  0  0  0  0  0  0  0  0  0
  145.6438  143.4645  151.1473 H   0  0  0  0  0  0  0  0  0  0  0  0
  144.6796  144.2038  152.4166 H   0  0  0  0  0  0  0  0  0  0  0  0
  148.1617  143.2712  151.4064 H   0  0  0  0  0  0  0  0  0  0  0  0
  148.9804  144.2076  152.6265 H   0  0  0  0  0  0  0  0  0  0  0  0
  149.2470  141.8330  153.1237 H   0  0  0  0  0  0  0  0  0  0  0  0
  147.5184  141.5594  153.1037 H   0  0  0  0  0  0  0  0  0  0  0  0
  148.9563  143.3073  154.9512 H   0  0  0  0  0  0  0  0  0  0  0  0
  1  2  1  0  0  0  0
  1 22  1  0  0  0  0
  1 23  1  0  0  0  0
  1 24  1  0  0  0  0
  2 10  1  0  0  0  0
  2  3  2  0  0  0  0
  3  4  1  0  0  0  0
  4  9  2  0  0  0  0
  4  5  1  0  0  0  0
  5  6  2  0  0  0  0
  5 25  1  0  0  0  0
  6  7  1  0  0  0  0
  6 26  1  0  0  0  0
  7  8  2  0  0  0  0
  7 27  1  0  0  0  0
  8  9  1  0  0  0  0
  8 28  1  0  0  0  0
  9 10  1  0  0  0  0
 10 11  1  0  0  0  0
 11 12  1  0  0  0  0
 11 29  1  0  0  0  0
 11 30  1  0  0  0  0
 12 13  1  0  0  0  0
 12 14  1  0  0  0  0
 12 31  1  0  0  0  0
 13 32  1  0  0  0  0
 14 15  1  0  0  0  0
 14 33  1  0  0  0  0
 14 34  1  0  0  0  0
 15 21  1  0  0  0  0
 15 16  1  0  0  0  0
 15 47  1  0  0  0  0
 16 17  1  0  0  0  0
 16 35  1  0  0  0  0
 16 36  1  0  0  0  0
 17 18  1  0  0  0  0
 17 37  1  0  0  0  0
 17 38  1  0  0  0  0
 18 19  1  0  0  0  0
 18 20  1  0  0  0  0
 18 39  1  0  0  0  0
 19 40  1  0  0  0  0
 19 41  1  0  0  0  0
 19 42  1  0  0  0  0
 20 21  1  0  0  0  0
 20 43  1  0  0  0  0
 20 44  1  0  0  0  0
 21 45  1  0  0  0  0
 21 46  1  0  0  0  0
M  CHG  1  15   1
M  END
> <s_m_source_file>
AV-unprocessed.smi

> <i_m_source_file_index>
1868

> <i_lp_mmshare_version>
43012

> <i_f3d_flags>
0

> <s_epik_input>
W2NIXTFbY0hdW2NIXVtjSF1jKGMxMiluKGMobjIpW0NIM10pW0NIMl1bQ0BIXShbT0hdKVtDSDJdTjNbQ0gyXVtDSDJdW0NIXShbQ0gzXSlbQ0gyXVtDSDJdMw==

> <s_epik_cmdline>
J2VwaWtfcHl0aG9uJywgJy1waCcsICc3LjAnLCAnLXRuJywgJzgnLCAnLW1hJywgJzIwMCcsICctbWV0YWxfYmluZGluZycsICctaW1hZScsICc8aW5maWxlLm1hZT4nLCAnLW9tYWUnLCAnPG91dGZpbGUubWFlPic=

> <r_epik_Ionization_Penalty>
0.101157

> <r_epik_Ionization_Penalty_Charging>
0.00181365

> <r_epik_Ionization_Penalty_Neutral>
0.0993436

> <r_epik_State_Penalty>
0.0871902

> <r_epik_Charging_Adjusted_Penalty>
0.0890039

> <i_epik_Tot_Q>
1

> <i_epik_Tot_abs_Q>
1

> <r_epik_Metal_State_Penalty>
9.24346e-05

> <b_epik_Metal_Only>
0

> <s_lp_Force_Field>
OPLS_2005

> <r_lp_Energy>
23.8168

> <b_lp_Chiralities_Consistent>
1

> <s_lp_Variant>
AV-unprocessed.smi:1868-4

> <Gold.Version>
5.8.1

> <Gold.Id.Protein>
6NUR|6NUR_protein|mol2

> <Gold.PLP.Fitness>
50.2362

> <Gold.PLP.PLP>
-43.9839

> <Gold.PLP.part.hbond>
-3.5550

> <Gold.PLP.part.metal>
0.0000

> <Gold.PLP.part.buried>
-5.7438

> <Gold.PLP.part.nonpolar>
-34.9831

> <Gold.PLP.part.repulsive>
0.0308

> <Gold.PLP.ligand.clash>
0.0000

> <Gold.PLP.ligand.torsion>
0.6938

> <Gold.PLP.Chemscore.Hbond>
2.5280

> <Gold.PLP.Chemscore.CHOScore>
0.0000

> <Gold.PLP.Chemscore.Metal>
0.0000

> <Gold.Chemscore.Hbonds>
donor molecule, donor type, donor heavy atom, donor atom, acceptor molecule, acceptor atom, score
      L1  H    15    47       P1  8028  1.15

> <Gold.PLP.Chemscore.Internal.Correction>
0.0558

> <Gold.Rescore>
     Score         DG    S(hbond)    S(metal)    S(lipo)     H(rot)  DE(clash)    DE(int)     intcor
     17.63     -18.59       1.45        0.00     112.50       1.92       0.07       0.89       ----

> <Gold.Chemscore.Fitness>
17.6293

> <Gold.Chemscore.DG>
-18.5864

> <Gold.Chemscore.ZeroCoef>
-5.4800

> <Gold.Chemscore.Hbond>
1.4546

> <Gold.Chemscore.Metal>
0.0000

> <Gold.Chemscore.Lipo>
112.5022

> <Gold.Chemscore.Internal_Hbond>
0.0000

> <Gold.Chemscore.DEClash>
0.0680

> <Gold.Chemscore.DEInternal>
0.8891

> <Gold.Chemscore.Rot>
1.9198

> <Gold.Chemscore.Internal.Correction>
   9.000000E+99

> <Gold.Chemscore.Hbonds>
donor molecule, donor type, donor heavy atom, donor atom, acceptor molecule, acceptor atom, score
      L1  H    15    47       P1  8028  0.54

> <Gold.Chemscore.Hbond.Weighted>
-4.8584

> <Gold.Chemscore.Metal.Weighted>
-0.0000

> <Gold.Chemscore.Lipo.Weighted>
-13.1628

> <Gold.Chemscore.Internal_Hbond.Weighted>
0.0000

> <Gold.Chemscore.DEClash.Weighted>
0.0680

> <Gold.Chemscore.DEInternal.Weighted>
0.8891

> <Gold.Chemscore.Rot.Weighted>
4.9147

> <Gold.Chemscore.Internal.Correction.Weighted>
   9.000000E+99

> <Gold.Protein.RotatedTorsions>
[ 6907 6896 6895 6894 ] final  -25.06 input  -60.11 | X-H torsion
[ 7974 7965 7964 7962 ] final  151.49 input  175.53 | X-H torsion
[ 8008 7997 7996 7995 ] final  162.18 input   59.86 | X-H torsion
[ 10167 10162 10161 10158 ] final  -49.68 input  -65.29 | X-H torsion
[ 10718 10713 10712 10709 ] final  109.49 input   66.30 | X-H torsion
[ 10763 10752 10751 10750 ] final  147.90 input  -60.55 | X-H torsion
[ 11005 11000 10999 10996 ] final  -22.82 input  -57.11 | X-H torsion

> <Gold.Protein.ActiveResidues>
 VAL166  LYS551  ARG553  GLY616  TRP617  ASP618  TYR619  PRO620  LYS621  CYS622 
 ASP623  PHE694  ASN695  SER759  ASP760  ASP761  ALA762  ILE779  LEU786  VAL792 
 PHE793  MET794  SER795  GLU796  ALA797  LYS798  CYS799  TRP800  GLU811  SER814 

> <Gold.Protein.RotatedAtoms>
  151.1806  135.0359  159.8790 H   0  0  0  0  0  0  0  0  0  0  0  0  # atno 6907 bound_to 6896
  152.5445  134.1067  159.8351 H   0  0  0  0  0  0  0  0  0  0  0  0  # atno 6908 bound_to 6896
  151.1183  133.5075  159.2635 H   0  0  0  0  0  0  0  0  0  0  0  0  # atno 6909 bound_to 6896
  144.8288  139.6545  143.6068 H   0  0  0  0  0  0  0  0  0  0  0  0  # atno 7974 bound_to 7965
  156.2050  140.1757  156.7819 H   0  0  0  0  0  0  0  0  0  0  0  0  # atno 8008 bound_to 7997
  154.5643  140.0694  156.8897 H   0  0  0  0  0  0  0  0  0  0  0  0  # atno 8009 bound_to 7997
  155.2790  140.3347  155.4262 H   0  0  0  0  0  0  0  0  0  0  0  0  # atno 8010 bound_to 7997
  140.6674  143.2688  151.4250 H   0  0  0  0  0  0  0  0  0  0  0  0  # atno 10167 bound_to 10162
  157.6539  131.0915  150.6462 H   0  0  0  0  0  0  0  0  0  0  0  0  # atno 10718 bound_to 10713
  154.0459  135.2886  155.3348 H   0  0  0  0  0  0  0  0  0  0  0  0  # atno 10763 bound_to 10752
  154.6900  135.5230  153.8382 H   0  0  0  0  0  0  0  0  0  0  0  0  # atno 10764 bound_to 10752
  153.0581  135.6603  154.0659 H   0  0  0  0  0  0  0  0  0  0  0  0  # atno 10765 bound_to 10752
  140.8693  133.7732  156.0168 H   0  0  0  0  0  0  0  0  0  0  0  0  # atno 11005 bound_to 11000
  146.2592  139.6372  142.9373 LP  0  0  0  0  0  0  0  0  0  0  0  0  # atno 17320 bound_to 7965
  145.4940  141.0438  143.2577 LP  0  0  0  0  0  0  0  0  0  0  0  0  # atno 17321 bound_to 7965
  139.5928  144.1463  152.2108 LP  0  0  0  0  0  0  0  0  0  0  0  0  # atno 17342 bound_to 10162
  140.0822  144.5691  150.7114 LP  0  0  0  0  0  0  0  0  0  0  0  0  # atno 17343 bound_to 10162
  156.6770  130.4556  149.5639 LP  0  0  0  0  0  0  0  0  0  0  0  0  # atno 17370 bound_to 10713
  156.1956  130.6587  151.1110 LP  0  0  0  0  0  0  0  0  0  0  0  0  # atno 17371 bound_to 10713
  140.8591  134.2862  157.5242 LP  0  0  0  0  0  0  0  0  0  0  0  0  # atno 17394 bound_to 11000
  139.8711  134.9509  156.4068 LP  0  0  0  0  0  0  0  0  0  0  0  0  # atno 17395 bound_to 11000

$$$$
