AV-unprocessed.smi:2943|AV-procd|sdf|11269|dock1
  -GOLD-   2272016163D 1   1.00000     0.00000
 Structure written by MMmdl.
 36 38  0  0  0  0  0  0  0  0  1 V2000
  148.1444  138.7660  153.7709 C   0  0  0  0  0  0  0  0  0  0  0  0
  149.2633  139.4192  154.5273 C   0  0  0  0  0  0  0  0  0  0  0  0
  149.3070  140.7266  154.9547 C   0  0  0  0  0  0  0  0  0  0  0  0
  148.2721  141.7950  154.7730 C   0  0  0  0  0  0  0  0  0  0  0  0
  150.5045  140.9646  155.6327 N   0  0  0  0  0  0  0  0  0  0  0  0
  150.9103  142.2271  156.2354 C   0  0  0  0  0  0  0  0  0  0  0  0
  150.9127  142.1604  157.7719 C   0  0  1  0  0  0  0  0  0  0  0  0
  151.9995  141.2539  158.3483 C   0  0  0  0  0  0  0  0  0  0  0  0
  152.2039  141.8549  159.7199 C   0  0  0  0  0  0  0  0  0  0  0  0
  152.0747  143.3450  159.4219 C   0  0  0  0  0  0  0  0  0  0  0  0
  151.1442  143.4448  158.3479 O   0  0  0  0  0  0  0  0  0  0  0  0
  151.2557  139.7983  155.6362 C   0  0  0  0  0  0  0  0  0  0  0  0
  152.4902  139.6131  156.1938 N   0  0  0  0  0  0  0  0  0  0  0  0
  152.9383  138.3685  156.0119 C   0  0  0  0  0  0  0  0  0  0  0  0
  152.3429  137.3506  155.3843 N   0  0  0  0  0  0  0  0  0  0  0  0
  151.1209  137.5412  154.8379 C   0  0  0  0  0  0  0  0  0  0  0  0
  150.5370  136.4546  154.1905 N   0  0  0  0  0  0  0  0  0  0  0  0
  150.4992  138.8136  154.9424 C   0  0  0  0  0  0  0  0  0  0  0  0
  147.1789  139.2082  154.0161 H   0  0  0  0  0  0  0  0  0  0  0  0
  148.0715  137.7038  154.0021 H   0  0  0  0  0  0  0  0  0  0  0  0
  148.2906  138.8623  152.6950 H   0  0  0  0  0  0  0  0  0  0  0  0
  147.5510  141.5266  154.0018 H   0  0  0  0  0  0  0  0  0  0  0  0
  148.7241  142.7395  154.4722 H   0  0  0  0  0  0  0  0  0  0  0  0
  147.7241  141.9620  155.7003 H   0  0  0  0  0  0  0  0  0  0  0  0
  151.8973  142.5019  155.8633 H   0  0  0  0  0  0  0  0  0  0  0  0
  150.2309  143.0093  155.8945 H   0  0  0  0  0  0  0  0  0  0  0  0
  149.9423  141.8187  158.1339 H   0  0  0  0  0  0  0  0  0  0  0  0
  151.7057  140.2043  158.3785 H   0  0  0  0  0  0  0  0  0  0  0  0
  152.9195  141.3361  157.7677 H   0  0  0  0  0  0  0  0  0  0  0  0
  151.4081  141.5334  160.3933 H   0  0  0  0  0  0  0  0  0  0  0  0
  153.1619  141.5901  160.1684 H   0  0  0  0  0  0  0  0  0  0  0  0
  151.7469  143.9182  160.2893 H   0  0  0  0  0  0  0  0  0  0  0  0
  153.0307  143.7506  159.0883 H   0  0  0  0  0  0  0  0  0  0  0  0
  153.9120  138.1563  156.4282 H   0  0  0  0  0  0  0  0  0  0  0  0
  151.0056  135.5622  154.1312 H   0  0  0  0  0  0  0  0  0  0  0  0
  149.6252  136.5256  153.7622 H   0  0  0  0  0  0  0  0  0  0  0  0
  1  2  1  0  0  0  0
  1 19  1  0  0  0  0
  1 20  1  0  0  0  0
  1 21  1  0  0  0  0
  2 18  1  0  0  0  0
  2  3  2  0  0  0  0
  3  4  1  0  0  0  0
  3  5  1  0  0  0  0
  4 22  1  0  0  0  0
  4 23  1  0  0  0  0
  4 24  1  0  0  0  0
  5  6  1  0  0  0  0
  5 12  1  0  0  0  0
  6  7  1  0  0  0  0
  6 25  1  0  0  0  0
  6 26  1  0  0  0  0
  7 11  1  0  0  0  0
  7  8  1  0  0  0  0
  7 27  1  0  0  0  0
  8  9  1  0  0  0  0
  8 28  1  0  0  0  0
  8 29  1  0  0  0  0
  9 10  1  0  0  0  0
  9 30  1  0  0  0  0
  9 31  1  0  0  0  0
 10 11  1  0  0  0  0
 10 32  1  0  0  0  0
 10 33  1  0  0  0  0
 12 18  1  0  0  0  0
 12 13  2  0  0  0  0
 13 14  1  0  0  0  0
 14 15  2  0  0  0  0
 14 34  1  0  0  0  0
 15 16  1  0  0  0  0
 16 17  1  0  0  0  0
 16 18  2  0  0  0  0
 17 35  1  0  0  0  0
 17 36  1  0  0  0  0
M  END
> <s_m_source_file>
AV-unprocessed.smi

> <i_m_source_file_index>
2943

> <i_lp_mmshare_version>
43012

> <i_f3d_flags>
0

> <s_epik_input>
bjFbY0hdbmMoW05IMl0pYyhjMTIpYyhbQ0gzXSljKFtDSDNdKW4yW0NIMl1bQ0BASF0zW0NIMl1bQ0gyXVtDSDJdTzM=

> <s_epik_cmdline>
J2VwaWtfcHl0aG9uJywgJy1waCcsICc3LjAnLCAnLXRuJywgJzgnLCAnLW1hJywgJzIwMCcsICctbWV0YWxfYmluZGluZycsICctaW1hZScsICc8aW5maWxlLm1hZT4nLCAnLW9tYWUnLCAnPG91dGZpbGUubWFlPic=

> <r_epik_Ionization_Penalty>
0.0115167

> <r_epik_Ionization_Penalty_Charging>
0

> <r_epik_Ionization_Penalty_Neutral>
0.0115167

> <r_epik_State_Penalty>
0.00863248

> <r_epik_Charging_Adjusted_Penalty>
0.00863248

> <i_epik_Tot_Q>
0

> <i_epik_Tot_abs_Q>
0

> <r_epik_Metal_State_Penalty>
0.00847169

> <b_epik_Metal_Only>
0

> <s_lp_Force_Field>
OPLS_2005

> <r_lp_Energy>
17.4582

> <b_lp_Chiralities_Consistent>
1

> <s_lp_Variant>
AV-unprocessed.smi:2943-2

> <Gold.Version>
5.8.1

> <Gold.Id.Protein>
6NUR|6NUR_protein|mol2

> <Gold.PLP.Fitness>
41.5415

> <Gold.PLP.PLP>
-36.4043

> <Gold.PLP.part.hbond>
-4.0000

> <Gold.PLP.part.metal>
0.0000

> <Gold.PLP.part.buried>
-1.5348

> <Gold.PLP.part.nonpolar>
-30.8328

> <Gold.PLP.part.repulsive>
0.2141

> <Gold.PLP.ligand.clash>
0.0000

> <Gold.PLP.ligand.torsion>
0.1261

> <Gold.PLP.Chemscore.Hbond>
1.7960

> <Gold.PLP.Chemscore.CHOScore>
0.0000

> <Gold.PLP.Chemscore.Metal>
0.0000

> <Gold.Chemscore.Hbonds>
donor molecule, donor type, donor heavy atom, donor atom, acceptor molecule, acceptor atom, score
      L1  H    17    36       P1  7948  0.62
      P1  H  7997  8009       L1    13  0.30
      P1  H 10752 10763       L1    15  0.70

> <Gold.PLP.Chemscore.Internal.Correction>
0.0014

> <Gold.Rescore>
     Score         DG    S(hbond)    S(metal)    S(lipo)     H(rot)  DE(clash)    DE(int)     intcor
     13.37     -15.36       1.26        0.00      76.06       1.26       0.60       1.39       ----

> <Gold.Chemscore.Fitness>
13.3745

> <Gold.Chemscore.DG>
-15.3648

> <Gold.Chemscore.ZeroCoef>
-5.4800

> <Gold.Chemscore.Hbond>
1.2615

> <Gold.Chemscore.Metal>
0.0000

> <Gold.Chemscore.Lipo>
76.0572

> <Gold.Chemscore.Internal_Hbond>
0.0000

> <Gold.Chemscore.DEClash>
0.6023

> <Gold.Chemscore.DEInternal>
1.3881

> <Gold.Chemscore.Rot>
1.2607

> <Gold.Chemscore.Internal.Correction>
   9.000000E+99

> <Gold.Chemscore.Hbonds>
donor molecule, donor type, donor heavy atom, donor atom, acceptor molecule, acceptor atom, score
      L1  H    17    36       P1  7948  0.39
      P1  H 10752 10763       L1    15  0.34

> <Gold.Chemscore.Hbond.Weighted>
-4.2136

> <Gold.Chemscore.Metal.Weighted>
-0.0000

> <Gold.Chemscore.Lipo.Weighted>
-8.8987

> <Gold.Chemscore.Internal_Hbond.Weighted>
0.0000

> <Gold.Chemscore.DEClash.Weighted>
0.6023

> <Gold.Chemscore.DEInternal.Weighted>
1.3881

> <Gold.Chemscore.Rot.Weighted>
3.2274

> <Gold.Chemscore.Internal.Correction.Weighted>
   9.000000E+99

> <Gold.Protein.RotatedTorsions>
[ 6907 6896 6895 6894 ] final  -53.69 input  -60.11 | X-H torsion
[ 7974 7965 7964 7962 ] final  112.57 input  175.53 | X-H torsion
[ 8008 7997 7996 7995 ] final -160.35 input   59.86 | X-H torsion
[ 10167 10162 10161 10158 ] final   37.94 input  -65.29 | X-H torsion
[ 10718 10713 10712 10709 ] final   65.43 input   66.30 | X-H torsion
[ 10763 10752 10751 10750 ] final   60.55 input  -60.55 | X-H torsion
[ 11005 11000 10999 10996 ] final  -74.90 input  -57.11 | X-H torsion

> <Gold.Protein.ActiveResidues>
 VAL166  LYS551  ARG553  GLY616  TRP617  ASP618  TYR619  PRO620  LYS621  CYS622 
 ASP623  PHE694  ASN695  SER759  ASP760  ASP761  ALA762  ILE779  LEU786  VAL792 
 PHE793  MET794  SER795  GLU796  ALA797  LYS798  CYS799  TRP800  GLU811  SER814 

> <Gold.Protein.RotatedAtoms>
  150.8405  134.7694  159.6927 H   0  0  0  0  0  0  0  0  0  0  0  0  # atno 6907 bound_to 6896
  152.4493  134.5425  159.9853 H   0  0  0  0  0  0  0  0  0  0  0  0  # atno 6908 bound_to 6896
  151.5566  133.3371  159.2999 H   0  0  0  0  0  0  0  0  0  0  0  0  # atno 6909 bound_to 6896
  145.2279  139.2833  143.4184 H   0  0  0  0  0  0  0  0  0  0  0  0  # atno 7974 bound_to 7965
  155.7762  140.0859  157.2083 H   0  0  0  0  0  0  0  0  0  0  0  0  # atno 8008 bound_to 7997
  154.3993  140.1516  156.3056 H   0  0  0  0  0  0  0  0  0  0  0  0  # atno 8009 bound_to 7997
  155.8698  140.3426  155.5816 H   0  0  0  0  0  0  0  0  0  0  0  0  # atno 8010 bound_to 7997
  140.3984  144.1757  150.6133 H   0  0  0  0  0  0  0  0  0  0  0  0  # atno 10167 bound_to 10162
  157.6105  130.9214  149.9976 H   0  0  0  0  0  0  0  0  0  0  0  0  # atno 10718 bound_to 10713
  152.9924  135.5532  154.5891 H   0  0  0  0  0  0  0  0  0  0  0  0  # atno 10763 bound_to 10752
  154.5256  135.2810  155.1226 H   0  0  0  0  0  0  0  0  0  0  0  0  # atno 10764 bound_to 10752
  154.2562  135.6389  153.5311 H   0  0  0  0  0  0  0  0  0  0  0  0  # atno 10765 bound_to 10752
  141.1640  133.6928  156.7436 H   0  0  0  0  0  0  0  0  0  0  0  0  # atno 11005 bound_to 11000
  146.3360  140.2604  142.8602 LP  0  0  0  0  0  0  0  0  0  0  0  0  # atno 17320 bound_to 7965
  144.9704  140.8363  143.5458 LP  0  0  0  0  0  0  0  0  0  0  0  0  # atno 17321 bound_to 7965
  140.4766  143.2394  151.9014 LP  0  0  0  0  0  0  0  0  0  0  0  0  # atno 17342 bound_to 10162
  139.4785  144.5314  151.8661 LP  0  0  0  0  0  0  0  0  0  0  0  0  # atno 17343 bound_to 10162
  156.1206  130.3646  149.9893 LP  0  0  0  0  0  0  0  0  0  0  0  0  # atno 17370 bound_to 10713
  156.7974  130.9278  151.3646 LP  0  0  0  0  0  0  0  0  0  0  0  0  # atno 17371 bound_to 10713
  140.2656  134.8432  157.3800 LP  0  0  0  0  0  0  0  0  0  0  0  0  # atno 17394 bound_to 11000
  140.1569  134.4778  155.7921 LP  0  0  0  0  0  0  0  0  0  0  0  0  # atno 17395 bound_to 11000

$$$$
