AV-unprocessed.smi:227|AV-procd|sdf|1735|dock9
  -GOLD-   2262020233D 1   1.00000     0.00000
 Structure written by MMmdl.
 54 58  0  0  0  0  0  0  0  0  1 V2000
  150.1546  139.5144  153.9230 O   0  0  0  0  0  0  0  0  0  0  0  0
  149.5799  138.7681  154.9750 C   0  0  0  0  0  0  0  0  0  0  0  0
  148.3278  139.4778  155.5425 C   0  0  2  0  0  0  0  0  0  0  0  0
  147.3775  139.9837  154.4223 C   0  0  0  0  0  0  0  0  0  0  0  0
  146.7769  138.9270  153.6201 N   0  0  0  0  0  0  0  0  0  0  0  0
  146.7214  138.8614  152.2468 C   0  0  0  0  0  0  0  0  0  0  0  0
  146.1248  137.8073  151.7643 N   0  0  0  0  0  0  0  0  0  0  0  0
  145.7226  137.0901  152.8851 C   0  0  0  0  0  0  0  0  0  0  0  0
  145.0299  135.8599  153.0948 C   0  0  0  0  0  0  0  0  0  0  0  0
  144.5748  135.0407  152.1055 N   0  0  0  0  0  0  0  0  0  0  0  0
  145.3295  134.8283  150.8788 C   0  0  2  0  0  0  0  0  0  0  0  0
  144.3470  134.0083  150.0249 C   0  0  0  0  0  0  0  0  0  0  0  0
  143.6435  133.1666  151.0987 C   0  0  0  0  0  0  0  0  0  0  0  0
  144.3838  133.6201  152.3704 C   0  0  1  0  0  0  0  0  0  0  0  0
  145.8340  133.0712  152.4124 C   0  0  1  0  0  0  0  0  0  0  0  0
  145.9921  131.5472  152.2595 C   0  0  0  0  0  0  0  0  0  0  0  0
  147.3285  131.1733  152.5184 O   0  0  0  0  0  0  0  0  0  0  0  0
  146.4967  133.9157  151.3069 C   0  0  0  0  0  0  0  0  0  0  0  0
  144.7898  135.4971  154.3829 N   0  0  0  0  0  0  0  0  0  0  0  0
  145.2081  136.2599  155.3955 C   0  0  0  0  0  0  0  0  0  0  0  0
  145.8727  137.4144  155.3483 N   0  0  0  0  0  0  0  0  0  0  0  0
  146.1122  137.7950  154.0616 C   0  0  0  0  0  0  0  0  0  0  0  0
  148.7252  140.6018  156.5355 C   0  0  1  0  0  0  0  0  0  0  0  0
  149.5392  140.1353  157.7310 C   0  0  0  0  0  0  0  0  0  0  0  0
  150.1437  141.4396  158.2377 C   0  0  0  0  0  0  0  0  0  0  0  0
  150.3470  142.2403  157.0798 O   0  0  0  0  0  0  0  0  0  0  0  0
  149.6754  141.6615  155.9654 C   0  0  0  0  0  0  0  0  0  0  0  0
  149.8548  139.1535  153.1020 H   0  0  0  0  0  0  0  0  0  0  0  0
  149.3207  137.7934  154.5631 H   0  0  0  0  0  0  0  0  0  0  0  0
  150.3263  138.5934  155.7500 H   0  0  0  0  0  0  0  0  0  0  0  0
  147.7714  138.7321  156.1125 H   0  0  0  0  0  0  0  0  0  0  0  0
  146.5738  140.5809  154.8540 H   0  0  0  0  0  0  0  0  0  0  0  0
  147.9067  140.6605  153.7515 H   0  0  0  0  0  0  0  0  0  0  0  0
  147.1411  139.6211  151.6051 H   0  0  0  0  0  0  0  0  0  0  0  0
  145.6498  135.7276  150.3564 H   0  0  0  0  0  0  0  0  0  0  0  0
  143.6320  134.6575  149.5181 H   0  0  0  0  0  0  0  0  0  0  0  0
  144.8490  133.4013  149.2705 H   0  0  0  0  0  0  0  0  0  0  0  0
  142.5888  133.4390  151.1577 H   0  0  0  0  0  0  0  0  0  0  0  0
  143.6933  132.0948  150.9123 H   0  0  0  0  0  0  0  0  0  0  0  0
  143.8164  133.3971  153.2747 H   0  0  0  0  0  0  0  0  0  0  0  0
  146.2667  133.3550  153.3736 H   0  0  0  0  0  0  0  0  0  0  0  0
  145.3436  131.0263  152.9640 H   0  0  0  0  0  0  0  0  0  0  0  0
  145.7265  131.2115  151.2573 H   0  0  0  0  0  0  0  0  0  0  0  0
  147.7996  131.1574  151.6994 H   0  0  0  0  0  0  0  0  0  0  0  0
  146.8836  133.3215  150.4781 H   0  0  0  0  0  0  0  0  0  0  0  0
  147.3236  134.4987  151.7145 H   0  0  0  0  0  0  0  0  0  0  0  0
  144.9775  135.8921  156.3844 H   0  0  0  0  0  0  0  0  0  0  0  0
  147.8302  141.1110  156.8956 H   0  0  0  0  0  0  0  0  0  0  0  0
  148.9501  139.6293  158.4949 H   0  0  0  0  0  0  0  0  0  0  0  0
  150.3317  139.4571  157.4112 H   0  0  0  0  0  0  0  0  0  0  0  0
  149.4421  141.9533  158.8962 H   0  0  0  0  0  0  0  0  0  0  0  0
  151.0734  141.2845  158.7856 H   0  0  0  0  0  0  0  0  0  0  0  0
  150.4234  141.2022  155.3175 H   0  0  0  0  0  0  0  0  0  0  0  0
  149.1531  142.4258  155.3894 H   0  0  0  0  0  0  0  0  0  0  0  0
  1  2  1  0  0  0  0
  1 28  1  0  0  0  0
  2  3  1  0  0  0  0
  2 29  1  0  0  0  0
  2 30  1  0  0  0  0
  3  4  1  0  0  0  0
  3 23  1  0  0  0  0
  3 31  1  0  0  0  0
  4  5  1  0  0  0  0
  4 32  1  0  0  0  0
  4 33  1  0  0  0  0
  5 22  1  0  0  0  0
  5  6  1  0  0  0  0
  6  7  2  0  0  0  0
  6 34  1  0  0  0  0
  7  8  1  0  0  0  0
  8 22  2  0  0  0  0
  8  9  1  0  0  0  0
  9 10  1  0  0  0  0
  9 19  2  0  0  0  0
 10 14  1  0  0  0  0
 10 11  1  0  0  0  0
 11 18  1  0  0  0  0
 11 12  1  0  0  0  0
 11 35  1  0  0  0  0
 12 13  1  0  0  0  0
 12 36  1  0  0  0  0
 12 37  1  0  0  0  0
 13 14  1  0  0  0  0
 13 38  1  0  0  0  0
 13 39  1  0  0  0  0
 14 15  1  0  0  0  0
 14 40  1  0  0  0  0
 15 16  1  0  0  0  0
 15 18  1  0  0  0  0
 15 41  1  0  0  0  0
 16 17  1  0  0  0  0
 16 42  1  0  0  0  0
 16 43  1  0  0  0  0
 17 44  1  0  0  0  0
 18 45  1  0  0  0  0
 18 46  1  0  0  0  0
 19 20  1  0  0  0  0
 20 21  2  0  0  0  0
 20 47  1  0  0  0  0
 21 22  1  0  0  0  0
 23 27  1  0  0  0  0
 23 24  1  0  0  0  0
 23 48  1  0  0  0  0
 24 25  1  0  0  0  0
 24 49  1  0  0  0  0
 24 50  1  0  0  0  0
 25 26  1  0  0  0  0
 25 51  1  0  0  0  0
 25 52  1  0  0  0  0
 26 27  1  0  0  0  0
 27 53  1  0  0  0  0
 27 54  1  0  0  0  0
M  END
> <s_m_source_file>
AV-unprocessed.smi

> <i_m_source_file_index>
227

> <i_lp_mmshare_version>
43012

> <i_f3d_flags>
0

> <s_epik_input>
W0NIMl0xT1tDSDJdW0NIMl1bQ0BIXTFbQ0BIXShbQ0gyXVtPSF0pW0NIMl1uKFtjSF1uMiljKGMyMyluW2NIXW5jM04oW0NASF00NSlbQ0BASF0oW0NIMl1bQ0gyXTQpW0NASF0oW0NIMl01KVtDSDJdW09IXQ==

> <s_epik_cmdline>
J2VwaWtfcHl0aG9uJywgJy1waCcsICc3LjAnLCAnLXRuJywgJzgnLCAnLW1hJywgJzIwMCcsICctbWV0YWxfYmluZGluZycsICctaW1hZScsICc8aW5maWxlLm1hZT4nLCAnLW9tYWUnLCAnPG91dGZpbGUubWFlPic=

> <r_lp_tautomer_probability>
1

> <r_epik_Ionization_Penalty>
0.0055791

> <r_epik_Ionization_Penalty_Charging>
0

> <r_epik_Ionization_Penalty_Neutral>
0.0055791

> <r_epik_State_Penalty>
0.00401299

> <r_epik_Charging_Adjusted_Penalty>
0.00401299

> <i_epik_Tot_Q>
0

> <i_epik_Tot_abs_Q>
0

> <r_epik_Metal_State_Penalty>
-0

> <b_epik_Metal_Only>
0

> <s_lp_Force_Field>
OPLS_2005

> <r_lp_Energy>
86.8427

> <b_lp_Chiralities_Consistent>
1

> <s_lp_Variant>
AV-unprocessed.smi:227-9

> <Gold.Version>
5.8.1

> <Gold.Id.Protein>
6NUR|6NUR_protein|mol2

> <Gold.PLP.Fitness>
41.9942

> <Gold.PLP.PLP>
-33.5141

> <Gold.PLP.part.hbond>
-3.0000

> <Gold.PLP.part.metal>
0.0000

> <Gold.PLP.part.buried>
-4.5232

> <Gold.PLP.part.nonpolar>
-26.3171

> <Gold.PLP.part.repulsive>
0.8347

> <Gold.PLP.ligand.clash>
0.0000

> <Gold.PLP.ligand.torsion>
1.0572

> <Gold.PLP.Chemscore.Hbond>
2.5840

> <Gold.PLP.Chemscore.CHOScore>
0.8942

> <Gold.PLP.Chemscore.Metal>
0.0000

> <Gold.Chemscore.Hbonds>
donor molecule, donor type, donor heavy atom, donor atom, acceptor molecule, acceptor atom, score
      L1  H     1    28       P1  7957  0.47
      L1  H    17    44       P1 10747  1.00
      P1  H  7989  7998       L1     1  0.99
      L1  C     6    34       P1  7957  0.95

> <Gold.PLP.Chemscore.Internal.Correction>
0.1599

> <Gold.Rescore>
     Score         DG    S(hbond)    S(metal)    S(lipo)     H(rot)  DE(clash)    DE(int)     intcor
     11.32     -13.81       2.59        0.00      76.04       3.61       1.47       1.02       ----

> <Gold.Chemscore.Fitness>
11.3191

> <Gold.Chemscore.DG>
-13.8093

> <Gold.Chemscore.ZeroCoef>
-5.4800

> <Gold.Chemscore.Hbond>
2.5950

> <Gold.Chemscore.Metal>
0.0000

> <Gold.Chemscore.Lipo>
76.0360

> <Gold.Chemscore.Internal_Hbond>
0.0000

> <Gold.Chemscore.DEClash>
1.4740

> <Gold.Chemscore.DEInternal>
1.0162

> <Gold.Chemscore.Rot>
3.6071

> <Gold.Chemscore.Internal.Correction>
   9.000000E+99

> <Gold.Chemscore.Hbonds>
donor molecule, donor type, donor heavy atom, donor atom, acceptor molecule, acceptor atom, score
      L1  H     1    28       P1  7957  0.46
      L1  H    17    44       P1 10747  1.00
      P1  H  7989  7998       L1     1  0.48

> <Gold.Chemscore.Hbond.Weighted>
-8.6673

> <Gold.Chemscore.Metal.Weighted>
-0.0000

> <Gold.Chemscore.Lipo.Weighted>
-8.8962

> <Gold.Chemscore.Internal_Hbond.Weighted>
0.0000

> <Gold.Chemscore.DEClash.Weighted>
1.4740

> <Gold.Chemscore.DEInternal.Weighted>
1.0162

> <Gold.Chemscore.Rot.Weighted>
9.2342

> <Gold.Chemscore.Internal.Correction.Weighted>
   9.000000E+99

> <Gold.Protein.RotatedTorsions>
[ 6907 6896 6895 6894 ] final -125.51 input  -60.11 | X-H torsion
[ 7974 7965 7964 7962 ] final  124.29 input  175.53 | X-H torsion
[ 8008 7997 7996 7995 ] final -134.75 input   59.86 | X-H torsion
[ 10167 10162 10161 10158 ] final   18.27 input  -65.29 | X-H torsion
[ 10718 10713 10712 10709 ] final  -13.92 input   66.30 | X-H torsion
[ 10763 10752 10751 10750 ] final -152.86 input  -60.55 | X-H torsion
[ 11005 11000 10999 10996 ] final  133.04 input  -57.11 | X-H torsion

> <Gold.Protein.ActiveResidues>
 VAL166  LYS551  ARG553  GLY616  TRP617  ASP618  TYR619  PRO620  LYS621  CYS622 
 ASP623  PHE694  ASN695  SER759  ASP760  ASP761  ALA762  ILE779  LEU786  VAL792 
 PHE793  MET794  SER795  GLU796  ALA797  LYS798  CYS799  TRP800  GLU811  SER814 

> <Gold.Protein.RotatedAtoms>
  150.8875  133.7288  159.2913 H   0  0  0  0  0  0  0  0  0  0  0  0  # atno 6907 bound_to 6896
  151.4849  135.1053  159.9797 H   0  0  0  0  0  0  0  0  0  0  0  0  # atno 6908 bound_to 6896
  152.4799  133.8182  159.7095 H   0  0  0  0  0  0  0  0  0  0  0  0  # atno 6909 bound_to 6896
  145.0860  139.3621  143.4885 H   0  0  0  0  0  0  0  0  0  0  0  0  # atno 7974 bound_to 7965
  155.3672  140.0486  157.3046 H   0  0  0  0  0  0  0  0  0  0  0  0  # atno 8008 bound_to 7997
  154.5148  140.2204  155.9050 H   0  0  0  0  0  0  0  0  0  0  0  0  # atno 8009 bound_to 7997
  156.1624  140.3113  155.8835 H   0  0  0  0  0  0  0  0  0  0  0  0  # atno 8010 bound_to 7997
  140.5665  143.9240  150.6681 H   0  0  0  0  0  0  0  0  0  0  0  0  # atno 10167 bound_to 10162
  156.6233  130.4881  149.6156 H   0  0  0  0  0  0  0  0  0  0  0  0  # atno 10718 bound_to 10713
  154.7966  135.3226  154.7651 H   0  0  0  0  0  0  0  0  0  0  0  0  # atno 10763 bound_to 10752
  153.8328  135.6878  153.4817 H   0  0  0  0  0  0  0  0  0  0  0  0  # atno 10764 bound_to 10752
  153.1661  135.4641  154.9781 H   0  0  0  0  0  0  0  0  0  0  0  0  # atno 10765 bound_to 10752
  139.9827  134.9543  156.9668 H   0  0  0  0  0  0  0  0  0  0  0  0  # atno 11005 bound_to 11000
  146.3531  140.0673  142.8625 LP  0  0  0  0  0  0  0  0  0  0  0  0  # atno 17320 bound_to 7965
  145.1121  140.9411  143.4650 LP  0  0  0  0  0  0  0  0  0  0  0  0  # atno 17321 bound_to 7965
  140.2705  143.3459  152.1242 LP  0  0  0  0  0  0  0  0  0  0  0  0  # atno 17342 bound_to 10162
  139.5096  144.6869  151.5863 LP  0  0  0  0  0  0  0  0  0  0  0  0  # atno 17343 bound_to 10162
  156.2294  130.6785  151.1448 LP  0  0  0  0  0  0  0  0  0  0  0  0  # atno 17370 bound_to 10713
  157.7221  131.0674  150.6090 LP  0  0  0  0  0  0  0  0  0  0  0  0  # atno 17371 bound_to 10713
  140.5064  134.1046  155.7261 LP  0  0  0  0  0  0  0  0  0  0  0  0  # atno 17394 bound_to 11000
  141.1497  133.8992  157.2129 LP  0  0  0  0  0  0  0  0  0  0  0  0  # atno 17395 bound_to 11000

$$$$
