AV-unprocessed.smi:1047|AV-procd|sdf|4593|dock3
  -GOLD-   22720 3 73D 1   1.00000     0.00000
 Structure written by MMmdl.
 55 57  0  0  0  0  0  0  0  0  1 V2000
  151.6894  145.6688  159.3338 C   0  0  0  0  0  0  0  0  0  0  0  0
  150.6820  144.6818  159.9405 C   0  0  0  0  0  0  0  0  0  0  0  0
  151.0800  143.2767  159.8751 N   0  0  0  0  0  0  0  0  0  0  0  0
  152.3926  143.0769  160.4785 C   0  0  0  0  0  0  0  0  0  0  0  0
  152.8356  141.6059  160.4153 C   0  0  0  0  0  0  0  0  0  0  0  0
  152.8221  141.1658  159.0616 O   0  0  0  0  0  0  0  0  0  0  0  0
  151.5393  141.2848  158.4500 C   0  0  2  0  0  0  0  0  0  0  0  0
  151.6481  140.7773  157.0050 C   0  0  0  0  0  0  0  0  0  0  0  0
  150.4035  140.1482  156.5758 N   0  0  0  0  0  0  0  0  0  0  0  0
  149.6611  140.9337  155.5955 C   0  0  0  0  0  0  0  0  0  0  0  0
  149.2194  140.0644  154.4066 C   0  0  2  0  0  0  0  0  0  0  0  0
  150.3715  139.4964  153.8127 O   0  0  0  0  0  0  0  0  0  0  0  0
  148.4637  140.8884  153.3463 C   0  0  0  0  0  0  0  0  0  0  0  0
  147.2566  141.4985  153.8750 N   0  0  0  0  0  0  0  0  0  0  0  0
  146.9329  142.8061  153.8652 C   0  0  0  0  0  0  0  0  0  0  0  0
  145.7657  143.1486  154.4028 N   0  0  0  0  0  0  0  0  0  0  0  0
  145.2749  141.9195  154.8091 C   0  0  0  0  0  0  0  0  0  0  0  0
  144.0643  141.5832  155.4535 C   0  0  0  0  0  0  0  0  0  0  0  0
  143.7661  140.2412  155.7812 C   0  0  0  0  0  0  0  0  0  0  0  0
  142.4509  139.9242  156.4714 C   0  0  0  0  0  0  0  0  0  0  0  0
  144.6880  139.2107  155.4654 C   0  0  0  0  0  0  0  0  0  0  0  0
  144.3919  137.7627  155.8136 C   0  0  0  0  0  0  0  0  0  0  0  0
  145.9007  139.5291  154.8187 C   0  0  0  0  0  0  0  0  0  0  0  0
  146.1850  140.8678  154.4966 C   0  0  0  0  0  0  0  0  0  0  0  0
  151.1048  142.7632  158.5067 C   0  0  0  0  0  0  0  0  0  0  0  0
  151.2779  146.6782  159.3271 H   0  0  0  0  0  0  0  0  0  0  0  0
  151.9290  145.4026  158.3039 H   0  0  0  0  0  0  0  0  0  0  0  0
  152.6197  145.7035  159.9001 H   0  0  0  0  0  0  0  0  0  0  0  0
  150.4751  144.9618  160.9745 H   0  0  0  0  0  0  0  0  0  0  0  0
  149.7408  144.8060  159.4030 H   0  0  0  0  0  0  0  0  0  0  0  0
  153.1319  143.6974  159.9696 H   0  0  0  0  0  0  0  0  0  0  0  0
  152.3755  143.4030  161.5191 H   0  0  0  0  0  0  0  0  0  0  0  0
  153.8430  141.4951  160.8167 H   0  0  0  0  0  0  0  0  0  0  0  0
  152.1786  140.9766  161.0177 H   0  0  0  0  0  0  0  0  0  0  0  0
  150.8144  140.6787  158.9974 H   0  0  0  0  0  0  0  0  0  0  0  0
  151.8740  141.6135  156.3422 H   0  0  0  0  0  0  0  0  0  0  0  0
  152.4811  140.0779  156.9218 H   0  0  0  0  0  0  0  0  0  0  0  0
  150.6014  139.2279  156.1947 H   0  0  0  0  0  0  0  0  0  0  0  0
  148.7796  141.3562  156.0794 H   0  0  0  0  0  0  0  0  0  0  0  0
  150.2552  141.7791  155.2451 H   0  0  0  0  0  0  0  0  0  0  0  0
  148.5707  139.2590  154.7557 H   0  0  0  0  0  0  0  0  0  0  0  0
  150.1675  139.2680  152.9189 H   0  0  0  0  0  0  0  0  0  0  0  0
  149.1035  141.6831  152.9607 H   0  0  0  0  0  0  0  0  0  0  0  0
  148.1954  140.2632  152.4933 H   0  0  0  0  0  0  0  0  0  0  0  0
  147.5898  143.5483  153.4353 H   0  0  0  0  0  0  0  0  0  0  0  0
  143.3632  142.3686  155.6947 H   0  0  0  0  0  0  0  0  0  0  0  0
  142.6312  139.4789  157.4500 H   0  0  0  0  0  0  0  0  0  0  0  0
  141.8646  139.2253  155.8744 H   0  0  0  0  0  0  0  0  0  0  0  0
  141.8511  140.8228  156.6180 H   0  0  0  0  0  0  0  0  0  0  0  0
  145.2150  137.1082  155.5253 H   0  0  0  0  0  0  0  0  0  0  0  0
  143.4945  137.4210  155.2975 H   0  0  0  0  0  0  0  0  0  0  0  0
  144.2377  137.6521  156.8874 H   0  0  0  0  0  0  0  0  0  0  0  0
  146.6106  138.7545  154.5690 H   0  0  0  0  0  0  0  0  0  0  0  0
  150.1174  142.8526  158.0545 H   0  0  0  0  0  0  0  0  0  0  0  0
  151.7825  143.3650  157.8989 H   0  0  0  0  0  0  0  0  0  0  0  0
  1  2  1  0  0  0  0
  1 26  1  0  0  0  0
  1 27  1  0  0  0  0
  1 28  1  0  0  0  0
  2  3  1  0  0  0  0
  2 29  1  0  0  0  0
  2 30  1  0  0  0  0
  3 25  1  0  0  0  0
  3  4  1  0  0  0  0
  4  5  1  0  0  0  0
  4 31  1  0  0  0  0
  4 32  1  0  0  0  0
  5  6  1  0  0  0  0
  5 33  1  0  0  0  0
  5 34  1  0  0  0  0
  6  7  1  0  0  0  0
  7  8  1  0  0  0  0
  7 25  1  0  0  0  0
  7 35  1  0  0  0  0
  8  9  1  0  0  0  0
  8 36  1  0  0  0  0
  8 37  1  0  0  0  0
  9 10  1  0  0  0  0
  9 38  1  0  0  0  0
 10 11  1  0  0  0  0
 10 39  1  0  0  0  0
 10 40  1  0  0  0  0
 11 12  1  0  0  0  0
 11 13  1  0  0  0  0
 11 41  1  0  0  0  0
 12 42  1  0  0  0  0
 13 14  1  0  0  0  0
 13 43  1  0  0  0  0
 13 44  1  0  0  0  0
 14 24  1  0  0  0  0
 14 15  1  0  0  0  0
 15 16  2  0  0  0  0
 15 45  1  0  0  0  0
 16 17  1  0  0  0  0
 17 24  2  0  0  0  0
 17 18  1  0  0  0  0
 18 19  2  0  0  0  0
 18 46  1  0  0  0  0
 19 20  1  0  0  0  0
 19 21  1  0  0  0  0
 20 47  1  0  0  0  0
 20 48  1  0  0  0  0
 20 49  1  0  0  0  0
 21 22  1  0  0  0  0
 21 23  2  0  0  0  0
 22 50  1  0  0  0  0
 22 51  1  0  0  0  0
 22 52  1  0  0  0  0
 23 24  1  0  0  0  0
 23 53  1  0  0  0  0
 25 54  1  0  0  0  0
 25 55  1  0  0  0  0
M  END
> <s_m_source_file>
AV-unprocessed.smi

> <i_m_source_file_index>
1047

> <i_lp_mmshare_version>
43012

> <i_f3d_flags>
0

> <s_epik_input>
W0NIM11bQ0gyXU4xW0NIMl1bQ0gyXU9bQ0BIXShbQ0gyXTEpW0NIMl1bTkhdW0NIMl1bQ0BIXShbT0hdKVtDSDJdbihbY0hdbjIpYyhjMjMpW2NIXWMoW0NIM10pYyhbY0hdMylbQ0gzXQ==

> <s_epik_cmdline>
J2VwaWtfcHl0aG9uJywgJy1waCcsICc3LjAnLCAnLXRuJywgJzgnLCAnLW1hJywgJzIwMCcsICctbWV0YWxfYmluZGluZycsICctaW1hZScsICc8aW5maWxlLm1hZT4nLCAnLW9tYWUnLCAnPG91dGZpbGUubWFlPic=

> <r_epik_Ionization_Penalty>
2.74124

> <r_epik_Ionization_Penalty_Charging>
0

> <r_epik_Ionization_Penalty_Neutral>
2.74124

> <r_epik_State_Penalty>
2.37482

> <r_epik_Charging_Adjusted_Penalty>
2.37482

> <i_epik_Tot_Q>
0

> <i_epik_Tot_abs_Q>
0

> <r_epik_Metal_State_Penalty>
2.25944

> <b_epik_Metal_Only>
0

> <s_lp_Force_Field>
OPLS_2005

> <r_lp_Energy>
33.9666

> <b_lp_Chiralities_Consistent>
1

> <s_lp_Variant>
AV-unprocessed.smi:1047-34

> <Gold.Version>
5.8.1

> <Gold.Id.Protein>
6NUR|6NUR_protein|mol2

> <Gold.PLP.Fitness>
46.0999

> <Gold.PLP.PLP>
-40.7154

> <Gold.PLP.part.hbond>
-2.4133

> <Gold.PLP.part.metal>
0.0000

> <Gold.PLP.part.buried>
-2.2642

> <Gold.PLP.part.nonpolar>
-35.4349

> <Gold.PLP.part.repulsive>
0.2349

> <Gold.PLP.ligand.clash>
0.0000

> <Gold.PLP.ligand.torsion>
1.1545

> <Gold.PLP.Chemscore.Hbond>
1.9520

> <Gold.PLP.Chemscore.CHOScore>
0.5782

> <Gold.PLP.Chemscore.Metal>
0.0000

> <Gold.Chemscore.Hbonds>
donor molecule, donor type, donor heavy atom, donor atom, acceptor molecule, acceptor atom, score
      L1  H    12    42       P1  7957  0.88
      P1  H  7989  7998       L1    12  0.90
      L1  C    15    45       P1  8028  0.21

> <Gold.PLP.Chemscore.Internal.Correction>
0.1030

> <Gold.Rescore>
     Score         DG    S(hbond)    S(metal)    S(lipo)     H(rot)  DE(clash)    DE(int)     intcor
     13.18     -14.39       1.38        0.00      92.01       2.52       0.04       1.17       ----

> <Gold.Chemscore.Fitness>
13.1815

> <Gold.Chemscore.DG>
-14.3912

> <Gold.Chemscore.ZeroCoef>
-5.4800

> <Gold.Chemscore.Hbond>
1.3791

> <Gold.Chemscore.Metal>
0.0000

> <Gold.Chemscore.Lipo>
92.0143

> <Gold.Chemscore.Internal_Hbond>
0.0000

> <Gold.Chemscore.DEClash>
0.0414

> <Gold.Chemscore.DEInternal>
1.1683

> <Gold.Chemscore.Rot>
2.5237

> <Gold.Chemscore.Internal.Correction>
   9.000000E+99

> <Gold.Chemscore.Hbonds>
donor molecule, donor type, donor heavy atom, donor atom, acceptor molecule, acceptor atom, score
      L1  H    12    42       P1  7957  0.74
      P1  H  7989  7998       L1    12  0.12

> <Gold.Chemscore.Hbond.Weighted>
-4.6062

> <Gold.Chemscore.Metal.Weighted>
-0.0000

> <Gold.Chemscore.Lipo.Weighted>
-10.7657

> <Gold.Chemscore.Internal_Hbond.Weighted>
0.0000

> <Gold.Chemscore.DEClash.Weighted>
0.0414

> <Gold.Chemscore.DEInternal.Weighted>
1.1683

> <Gold.Chemscore.Rot.Weighted>
6.4607

> <Gold.Chemscore.Internal.Correction.Weighted>
   9.000000E+99

> <Gold.Protein.RotatedTorsions>
[ 6907 6896 6895 6894 ] final -173.61 input  -60.11 | X-H torsion
[ 7974 7965 7964 7962 ] final   20.26 input  175.53 | X-H torsion
[ 8008 7997 7996 7995 ] final   -3.86 input   59.86 | X-H torsion
[ 10167 10162 10161 10158 ] final  -42.20 input  -65.29 | X-H torsion
[ 10718 10713 10712 10709 ] final  -57.76 input   66.30 | X-H torsion
[ 10763 10752 10751 10750 ] final -120.10 input  -60.55 | X-H torsion
[ 11005 11000 10999 10996 ] final   21.82 input  -57.11 | X-H torsion

> <Gold.Protein.ActiveResidues>
 VAL166  LYS551  ARG553  GLY616  TRP617  ASP618  TYR619  PRO620  LYS621  CYS622 
 ASP623  PHE694  ASN695  SER759  ASP760  ASP761  ALA762  ILE779  LEU786  VAL792 
 PHE793  MET794  SER795  GLU796  ALA797  LYS798  CYS799  TRP800  GLU811  SER814 

> <Gold.Protein.RotatedAtoms>
  151.5590  133.3406  159.2967 H   0  0  0  0  0  0  0  0  0  0  0  0  # atno 6907 bound_to 6896
  150.8434  134.7737  159.6962 H   0  0  0  0  0  0  0  0  0  0  0  0  # atno 6908 bound_to 6896
  152.4497  134.5428  159.9895 H   0  0  0  0  0  0  0  0  0  0  0  0  # atno 6909 bound_to 6896
  146.2118  139.8195  142.8683 H   0  0  0  0  0  0  0  0  0  0  0  0  # atno 7974 bound_to 7965
  154.6203  140.2498  155.7557 H   0  0  0  0  0  0  0  0  0  0  0  0  # atno 8008 bound_to 7997
  156.2423  140.2928  156.0428 H   0  0  0  0  0  0  0  0  0  0  0  0  # atno 8009 bound_to 7997
  155.1907  140.0391  157.2890 H   0  0  0  0  0  0  0  0  0  0  0  0  # atno 8010 bound_to 7997
  140.6977  143.3051  151.3175 H   0  0  0  0  0  0  0  0  0  0  0  0  # atno 10167 bound_to 10162
  156.1186  130.4168  150.0485 H   0  0  0  0  0  0  0  0  0  0  0  0  # atno 10718 bound_to 10713
  154.8635  135.4215  154.2405 H   0  0  0  0  0  0  0  0  0  0  0  0  # atno 10763 bound_to 10752
  153.3372  135.6991  153.6903 H   0  0  0  0  0  0  0  0  0  0  0  0  # atno 10764 bound_to 10752
  153.5897  135.3557  155.2879 H   0  0  0  0  0  0  0  0  0  0  0  0  # atno 10765 bound_to 10752
  140.3874  134.1855  155.7663 H   0  0  0  0  0  0  0  0  0  0  0  0  # atno 11005 bound_to 11000
  145.3111  141.0220  143.3554 LP  0  0  0  0  0  0  0  0  0  0  0  0  # atno 17320 bound_to 7965
  144.8935  139.4743  143.6666 LP  0  0  0  0  0  0  0  0  0  0  0  0  # atno 17321 bound_to 7965
  139.6454  144.0462  152.2586 LP  0  0  0  0  0  0  0  0  0  0  0  0  # atno 17342 bound_to 10162
  139.9981  144.6313  150.7754 LP  0  0  0  0  0  0  0  0  0  0  0  0  # atno 17343 bound_to 10162
  156.8430  130.9432  151.3630 LP  0  0  0  0  0  0  0  0  0  0  0  0  # atno 17370 bound_to 10713
  157.6369  130.8774  149.9376 LP  0  0  0  0  0  0  0  0  0  0  0  0  # atno 17371 bound_to 10713
  141.1903  133.8221  157.0925 LP  0  0  0  0  0  0  0  0  0  0  0  0  # atno 17394 bound_to 11000
  140.0432  134.9843  157.1001 LP  0  0  0  0  0  0  0  0  0  0  0  0  # atno 17395 bound_to 11000

$$$$
