AV-unprocessed.smi:1928|AV-procd|sdf|7798|dock3
  -GOLD-   22720 9543D 1   1.00000     0.00000
 Structure written by MMmdl.
 34 35  0  0  0  0  0  0  0  0  1 V2000
  145.6593  142.9487  156.6874 C   0  0  0  0  0  0  0  0  0  0  0  0
  146.5472  142.2635  155.7060 C   0  0  0  0  0  0  0  0  0  0  0  0
  147.4484  141.3379  156.0446 N   0  0  0  0  0  0  0  0  0  0  0  0
  148.1546  140.8435  154.9426 C   0  0  0  0  0  0  0  0  0  0  0  0
  149.2062  139.7861  155.1325 C   0  0  0  0  0  0  0  0  0  0  0  0
  150.5026  140.3886  155.6829 C   0  0  0  0  0  0  0  0  0  0  0  0
  151.5564  140.2463  155.0631 O   0  0  0  0  0  0  0  0  0  0  0  0
  150.4168  141.0423  156.8530 N   0  0  0  0  0  0  0  0  0  0  0  0
  151.5215  141.6975  157.5448 C   0  0  0  0  0  0  0  0  0  0  0  0
  151.6582  141.1469  158.9787 C   0  0  0  0  0  0  0  0  0  0  0  0
  152.7528  141.8869  159.7646 C   0  0  0  0  0  0  0  0  0  0  0  0
  152.5050  143.4035  159.7755 C   0  0  0  0  0  0  0  0  0  0  0  0
  152.3797  143.9546  158.3466 C   0  0  0  0  0  0  0  0  0  0  0  0
  151.2829  143.2189  157.5602 C   0  0  0  0  0  0  0  0  0  0  0  0
  147.7770  141.4235  153.7561 C   0  0  0  0  0  0  0  0  0  0  0  0
  146.5123  142.6000  153.9799 S   0  0  0  0  0  0  0  0  0  0  0  0
  145.6643  142.4233  157.6429 H   0  0  0  0  0  0  0  0  0  0  0  0
  144.6368  142.9758  156.3102 H   0  0  0  0  0  0  0  0  0  0  0  0
  146.0010  143.9715  156.8471 H   0  0  0  0  0  0  0  0  0  0  0  0
  148.8584  139.0168  155.8227 H   0  0  0  0  0  0  0  0  0  0  0  0
  149.4149  139.2807  154.1884 H   0  0  0  0  0  0  0  0  0  0  0  0
  149.5096  141.1025  157.2921 H   0  0  0  0  0  0  0  0  0  0  0  0
  152.4516  141.5081  157.0049 H   0  0  0  0  0  0  0  0  0  0  0  0
  150.7074  141.2466  159.5046 H   0  0  0  0  0  0  0  0  0  0  0  0
  151.8853  140.0805  158.9518 H   0  0  0  0  0  0  0  0  0  0  0  0
  152.7948  141.5096  160.7868 H   0  0  0  0  0  0  0  0  0  0  0  0
  153.7258  141.6786  159.3178 H   0  0  0  0  0  0  0  0  0  0  0  0
  151.5929  143.6213  160.3329 H   0  0  0  0  0  0  0  0  0  0  0  0
  153.3161  143.9095  160.2996 H   0  0  0  0  0  0  0  0  0  0  0  0
  152.1617  145.0225  158.3772 H   0  0  0  0  0  0  0  0  0  0  0  0
  153.3336  143.8481  157.8286 H   0  0  0  0  0  0  0  0  0  0  0  0
  151.2447  143.6009  156.5392 H   0  0  0  0  0  0  0  0  0  0  0  0
  150.3119  143.4362  158.0078 H   0  0  0  0  0  0  0  0  0  0  0  0
  148.1615  141.2267  152.7663 H   0  0  0  0  0  0  0  0  0  0  0  0
  1  2  1  0  0  0  0
  1 17  1  0  0  0  0
  1 18  1  0  0  0  0
  1 19  1  0  0  0  0
  2 16  1  0  0  0  0
  2  3  2  0  0  0  0
  3  4  1  0  0  0  0
  4  5  1  0  0  0  0
  4 15  2  0  0  0  0
  5  6  1  0  0  0  0
  5 20  1  0  0  0  0
  5 21  1  0  0  0  0
  6  7  2  0  0  0  0
  6  8  1  0  0  0  0
  8  9  1  0  0  0  0
  8 22  1  0  0  0  0
  9 14  1  0  0  0  0
  9 10  1  0  0  0  0
  9 23  1  0  0  0  0
 10 11  1  0  0  0  0
 10 24  1  0  0  0  0
 10 25  1  0  0  0  0
 11 12  1  0  0  0  0
 11 26  1  0  0  0  0
 11 27  1  0  0  0  0
 12 13  1  0  0  0  0
 12 28  1  0  0  0  0
 12 29  1  0  0  0  0
 13 14  1  0  0  0  0
 13 30  1  0  0  0  0
 13 31  1  0  0  0  0
 14 32  1  0  0  0  0
 14 33  1  0  0  0  0
 15 16  1  0  0  0  0
 15 34  1  0  0  0  0
M  END
> <s_m_source_file>
AV-unprocessed.smi

> <i_m_source_file_index>
1928

> <i_lp_mmshare_version>
43012

> <i_f3d_flags>
0

> <s_epik_input>
W0NIM11jMW5jKFtjSF1zMSlbQ0gyXUMoPU8pW05IXVtDSF0yW0NIMl1bQ0gyXVtDSDJdW0NIMl1bQ0gyXTI=

> <s_epik_cmdline>
J2VwaWtfcHl0aG9uJywgJy1waCcsICc3LjAnLCAnLXRuJywgJzgnLCAnLW1hJywgJzIwMCcsICctbWV0YWxfYmluZGluZycsICctaW1hZScsICc8aW5maWxlLm1hZT4nLCAnLW9tYWUnLCAnPG91dGZpbGUubWFlPic=

> <r_lp_tautomer_probability>
1

> <r_epik_Ionization_Penalty>
6.58409e-05

> <r_epik_Ionization_Penalty_Charging>
0

> <r_epik_Ionization_Penalty_Neutral>
6.58409e-05

> <r_epik_State_Penalty>
-0

> <r_epik_Charging_Adjusted_Penalty>
0

> <i_epik_Tot_Q>
0

> <i_epik_Tot_abs_Q>
0

> <r_epik_Metal_State_Penalty>
-0

> <b_epik_Metal_Only>
0

> <s_lp_Force_Field>
OPLS_2005

> <r_lp_Energy>
7.15539

> <b_lp_Chiralities_Consistent>
1

> <s_lp_Variant>
AV-unprocessed.smi:1928-1

> <Gold.Version>
5.8.1

> <Gold.Id.Protein>
6NUR|6NUR_protein|mol2

> <Gold.PLP.Fitness>
40.5308

> <Gold.PLP.PLP>
-35.0907

> <Gold.PLP.part.hbond>
-1.0000

> <Gold.PLP.part.metal>
0.0000

> <Gold.PLP.part.buried>
-5.4878

> <Gold.PLP.part.nonpolar>
-29.2622

> <Gold.PLP.part.repulsive>
0.1621

> <Gold.PLP.ligand.clash>
0.0000

> <Gold.PLP.ligand.torsion>
0.2697

> <Gold.PLP.Chemscore.Hbond>
0.9920

> <Gold.PLP.Chemscore.CHOScore>
1.0000

> <Gold.PLP.Chemscore.Metal>
0.0000

> <Gold.Chemscore.Hbonds>
donor molecule, donor type, donor heavy atom, donor atom, acceptor molecule, acceptor atom, score
      P1  H  7989  7998       L1     7  0.98
      L1  C    15    34       P1  7957  1.00

> <Gold.PLP.Chemscore.Internal.Correction>
0.0035

> <Gold.Rescore>
     Score         DG    S(hbond)    S(metal)    S(lipo)     H(rot)  DE(clash)    DE(int)     intcor
     16.12     -16.27       0.95        0.00      93.03       1.28       0.02       0.13       ----

> <Gold.Chemscore.Fitness>
16.1203

> <Gold.Chemscore.DG>
-16.2709

> <Gold.Chemscore.ZeroCoef>
-5.4800

> <Gold.Chemscore.Hbond>
0.9502

> <Gold.Chemscore.Metal>
0.0000

> <Gold.Chemscore.Lipo>
93.0254

> <Gold.Chemscore.Internal_Hbond>
0.0000

> <Gold.Chemscore.DEClash>
0.0219

> <Gold.Chemscore.DEInternal>
0.1287

> <Gold.Chemscore.Rot>
1.2761

> <Gold.Chemscore.Internal.Correction>
   9.000000E+99

> <Gold.Chemscore.Hbonds>
donor molecule, donor type, donor heavy atom, donor atom, acceptor molecule, acceptor atom, score
      P1  H  7989  7998       L1     7  0.89

> <Gold.Chemscore.Hbond.Weighted>
-3.1736

> <Gold.Chemscore.Metal.Weighted>
-0.0000

> <Gold.Chemscore.Lipo.Weighted>
-10.8840

> <Gold.Chemscore.Internal_Hbond.Weighted>
0.0000

> <Gold.Chemscore.DEClash.Weighted>
0.0219

> <Gold.Chemscore.DEInternal.Weighted>
0.1287

> <Gold.Chemscore.Rot.Weighted>
3.2667

> <Gold.Chemscore.Internal.Correction.Weighted>
   9.000000E+99

> <Gold.Protein.RotatedTorsions>
[ 6907 6896 6895 6894 ] final   80.36 input  -60.11 | X-H torsion
[ 7974 7965 7964 7962 ] final   95.63 input  175.53 | X-H torsion
[ 8008 7997 7996 7995 ] final  -19.76 input   59.86 | X-H torsion
[ 10167 10162 10161 10158 ] final  -87.46 input  -65.29 | X-H torsion
[ 10718 10713 10712 10709 ] final -141.90 input   66.30 | X-H torsion
[ 10763 10752 10751 10750 ] final   26.57 input  -60.55 | X-H torsion
[ 11005 11000 10999 10996 ] final  148.14 input  -57.11 | X-H torsion

> <Gold.Protein.ActiveResidues>
 VAL166  LYS551  ARG553  GLY616  TRP617  ASP618  TYR619  PRO620  LYS621  CYS622 
 ASP623  PHE694  ASN695  SER759  ASP760  ASP761  ALA762  ILE779  LEU786  VAL792 
 PHE793  MET794  SER795  GLU796  ALA797  LYS798  CYS799  TRP800  GLU811  SER814 

> <Gold.Protein.RotatedAtoms>
  152.5232  134.3370  159.9202 H   0  0  0  0  0  0  0  0  0  0  0  0  # atno 6907 bound_to 6896
  151.3319  133.3991  159.2671 H   0  0  0  0  0  0  0  0  0  0  0  0  # atno 6908 bound_to 6896
  150.9874  134.9234  159.7937 H   0  0  0  0  0  0  0  0  0  0  0  0  # atno 6909 bound_to 6896
  145.4496  139.2294  143.3047 H   0  0  0  0  0  0  0  0  0  0  0  0  # atno 7974 bound_to 7965
  154.4815  140.2080  155.9753 H   0  0  0  0  0  0  0  0  0  0  0  0  # atno 8008 bound_to 7997
  156.1172  140.3219  155.8125 H   0  0  0  0  0  0  0  0  0  0  0  0  # atno 8009 bound_to 7997
  155.4532  140.0518  157.2989 H   0  0  0  0  0  0  0  0  0  0  0  0  # atno 8010 bound_to 7997
  140.3842  143.2734  151.9345 H   0  0  0  0  0  0  0  0  0  0  0  0  # atno 10167 bound_to 10162
  156.3395  130.7629  151.1763 H   0  0  0  0  0  0  0  0  0  0  0  0  # atno 10718 bound_to 10713
  153.0613  135.6557  154.0455 H   0  0  0  0  0  0  0  0  0  0  0  0  # atno 10763 bound_to 10752
  154.0122  135.2927  155.3392 H   0  0  0  0  0  0  0  0  0  0  0  0  # atno 10764 bound_to 10752
  154.6953  135.5266  153.8518 H   0  0  0  0  0  0  0  0  0  0  0  0  # atno 10765 bound_to 10752
  140.0935  134.9027  157.1687 H   0  0  0  0  0  0  0  0  0  0  0  0  # atno 11005 bound_to 11000
  146.2512  140.5253  142.8893 LP  0  0  0  0  0  0  0  0  0  0  0  0  # atno 17320 bound_to 7965
  144.8070  140.6317  143.6440 LP  0  0  0  0  0  0  0  0  0  0  0  0  # atno 17321 bound_to 7965
  139.4793  144.5789  151.7965 LP  0  0  0  0  0  0  0  0  0  0  0  0  # atno 17342 bound_to 10162
  140.4906  144.1316  150.5949 LP  0  0  0  0  0  0  0  0  0  0  0  0  # atno 17343 bound_to 10162
  157.7444  131.0458  150.4864 LP  0  0  0  0  0  0  0  0  0  0  0  0  # atno 17370 bound_to 10713
  156.5042  130.4124  149.6336 LP  0  0  0  0  0  0  0  0  0  0  0  0  # atno 17371 bound_to 10713
  140.3319  134.2800  155.7226 LP  0  0  0  0  0  0  0  0  0  0  0  0  # atno 17394 bound_to 11000
  141.2085  133.7776  157.0056 LP  0  0  0  0  0  0  0  0  0  0  0  0  # atno 17395 bound_to 11000

$$$$
