AV-unprocessed.smi:2085|AV-procd|sdf|8517|dock3
  -GOLD-   2272011233D 1   1.00000     0.00000
 Structure written by MMmdl.
 30 31  0  0  0  0  0  0  0  0  1 V2000
  153.0566  138.4596  155.0481 C   0  0  0  0  0  0  0  0  0  0  0  0
  152.6681  139.4808  155.9604 O   0  0  0  0  0  0  0  0  0  0  0  0
  151.4613  140.1230  155.7573 C   0  0  0  0  0  0  0  0  0  0  0  0
  150.7089  139.7598  154.6882 N   0  0  0  0  0  0  0  0  0  0  0  0
  149.5279  140.3811  154.4921 C   0  0  0  0  0  0  0  0  0  0  0  0
  149.0331  141.3826  155.3473 C   0  0  0  0  0  0  0  0  0  0  0  0
  149.8116  141.7616  156.4563 C   0  0  0  0  0  0  0  0  0  0  0  0
  151.0624  141.1317  156.6654 C   0  0  0  0  0  0  0  0  0  0  0  0
  151.9187  141.4278  157.7618 N   0  0  0  0  0  0  0  0  0  0  0  0
  151.7942  142.3967  158.6871 C   0  0  0  0  0  0  0  0  0  0  0  0
  150.8723  143.2117  158.7258 O   0  0  0  0  0  0  0  0  0  0  0  0
  152.9060  142.4544  159.7412 C   0  0  1  0  0  0  0  0  0  0  0  0
  152.7036  143.5482  160.8071 C   0  0  0  0  0  0  0  0  0  0  0  0
  152.4135  142.7686  162.0750 C   0  0  0  0  0  0  0  0  0  0  0  0
  153.1647  141.4694  161.8228 C   0  0  0  0  0  0  0  0  0  0  0  0
  152.9099  141.2168  160.4504 O   0  0  0  0  0  0  0  0  0  0  0  0
  154.0226  138.0552  155.3501 H   0  0  0  0  0  0  0  0  0  0  0  0
  153.1638  138.8490  154.0346 H   0  0  0  0  0  0  0  0  0  0  0  0
  152.3407  137.6366  155.0425 H   0  0  0  0  0  0  0  0  0  0  0  0
  148.9572  140.0657  153.6312 H   0  0  0  0  0  0  0  0  0  0  0  0
  148.0757  141.8461  155.1601 H   0  0  0  0  0  0  0  0  0  0  0  0
  149.4285  142.5130  157.1291 H   0  0  0  0  0  0  0  0  0  0  0  0
  152.7681  140.8832  157.8048 H   0  0  0  0  0  0  0  0  0  0  0  0
  153.8766  142.5894  159.2606 H   0  0  0  0  0  0  0  0  0  0  0  0
  153.6250  144.1203  160.9236 H   0  0  0  0  0  0  0  0  0  0  0  0
  151.9089  144.2589  160.5745 H   0  0  0  0  0  0  0  0  0  0  0  0
  152.7393  143.2834  162.9791 H   0  0  0  0  0  0  0  0  0  0  0  0
  151.3439  142.5711  162.1581 H   0  0  0  0  0  0  0  0  0  0  0  0
  154.2366  141.6006  161.9794 H   0  0  0  0  0  0  0  0  0  0  0  0
  152.8184  140.6505  162.4535 H   0  0  0  0  0  0  0  0  0  0  0  0
  1  2  1  0  0  0  0
  1 17  1  0  0  0  0
  1 18  1  0  0  0  0
  1 19  1  0  0  0  0
  2  3  1  0  0  0  0
  3  8  1  0  0  0  0
  3  4  2  0  0  0  0
  4  5  1  0  0  0  0
  5  6  2  0  0  0  0
  5 20  1  0  0  0  0
  6  7  1  0  0  0  0
  6 21  1  0  0  0  0
  7  8  2  0  0  0  0
  7 22  1  0  0  0  0
  8  9  1  0  0  0  0
  9 10  1  0  0  0  0
  9 23  1  0  0  0  0
 10 11  2  0  0  0  0
 10 12  1  0  0  0  0
 12 16  1  0  0  0  0
 12 13  1  0  0  0  0
 12 24  1  0  0  0  0
 13 14  1  0  0  0  0
 13 25  1  0  0  0  0
 13 26  1  0  0  0  0
 14 15  1  0  0  0  0
 14 27  1  0  0  0  0
 14 28  1  0  0  0  0
 15 16  1  0  0  0  0
 15 29  1  0  0  0  0
 15 30  1  0  0  0  0
M  END
> <s_m_source_file>
AV-unprocessed.smi

> <i_m_source_file_index>
2085

> <i_lp_mmshare_version>
43012

> <i_f3d_flags>
0

> <s_epik_input>
W0NIM11PYzFuW2NIXVtjSF1bY0hdYzFbTkhdQyg9TylbQ0BASF0yW0NIMl1bQ0gyXVtDSDJdTzI=

> <s_epik_cmdline>
J2VwaWtfcHl0aG9uJywgJy1waCcsICc3LjAnLCAnLXRuJywgJzgnLCAnLW1hJywgJzIwMCcsICctbWV0YWxfYmluZGluZycsICctaW1hZScsICc8aW5maWxlLm1hZT4nLCAnLW9tYWUnLCAnPG91dGZpbGUubWFlPic=

> <r_lp_tautomer_probability>
1

> <r_epik_Ionization_Penalty>
2.59253e-05

> <r_epik_Ionization_Penalty_Charging>
0

> <r_epik_Ionization_Penalty_Neutral>
2.59253e-05

> <r_epik_State_Penalty>
-0

> <r_epik_Charging_Adjusted_Penalty>
0

> <i_epik_Tot_Q>
0

> <i_epik_Tot_abs_Q>
0

> <r_epik_Metal_State_Penalty>
-0

> <b_epik_Metal_Only>
0

> <s_lp_Force_Field>
OPLS_2005

> <r_lp_Energy>
23.5272

> <b_lp_Chiralities_Consistent>
1

> <s_lp_Variant>
AV-unprocessed.smi:2085-2

> <Gold.Version>
5.8.1

> <Gold.Id.Protein>
6NUR|6NUR_protein|mol2

> <Gold.PLP.Fitness>
42.5410

> <Gold.PLP.PLP>
-35.2725

> <Gold.PLP.part.hbond>
-2.0000

> <Gold.PLP.part.metal>
0.0000

> <Gold.PLP.part.buried>
-1.4606

> <Gold.PLP.part.nonpolar>
-29.8962

> <Gold.PLP.part.repulsive>
0.2690

> <Gold.PLP.ligand.clash>
0.0000

> <Gold.PLP.ligand.torsion>
0.0131

> <Gold.PLP.Chemscore.Hbond>
1.5000

> <Gold.PLP.Chemscore.CHOScore>
0.9280

> <Gold.PLP.Chemscore.Metal>
0.0000

> <Gold.Chemscore.Hbonds>
donor molecule, donor type, donor heavy atom, donor atom, acceptor molecule, acceptor atom, score
      P1  H  7989  7998       L1     4  0.49
      P1  H  7997  8010       L1     2  0.85
      L1  C     5    20       P1  7957  0.93

> <Gold.PLP.Chemscore.Internal.Correction>
0.0106

> <Gold.Rescore>
     Score         DG    S(hbond)    S(metal)    S(lipo)     H(rot)  DE(clash)    DE(int)     intcor
     13.03     -14.50       0.86        0.00      79.55       1.24       0.13       1.34       ----

> <Gold.Chemscore.Fitness>
13.0255

> <Gold.Chemscore.DG>
-14.4965

> <Gold.Chemscore.ZeroCoef>
-5.4800

> <Gold.Chemscore.Hbond>
0.8617

> <Gold.Chemscore.Metal>
0.0000

> <Gold.Chemscore.Lipo>
79.5539

> <Gold.Chemscore.Internal_Hbond>
0.0000

> <Gold.Chemscore.DEClash>
0.1326

> <Gold.Chemscore.DEInternal>
1.3384

> <Gold.Chemscore.Rot>
1.2381

> <Gold.Chemscore.Internal.Correction>
   9.000000E+99

> <Gold.Chemscore.Hbonds>
donor molecule, donor type, donor heavy atom, donor atom, acceptor molecule, acceptor atom, score
      P1  H  7989  7998       L1     4  0.01
      P1  H  7997  8010       L1     2  0.15

> <Gold.Chemscore.Hbond.Weighted>
-2.8781

> <Gold.Chemscore.Metal.Weighted>
-0.0000

> <Gold.Chemscore.Lipo.Weighted>
-9.3078

> <Gold.Chemscore.Internal_Hbond.Weighted>
0.0000

> <Gold.Chemscore.DEClash.Weighted>
0.1326

> <Gold.Chemscore.DEInternal.Weighted>
1.3384

> <Gold.Chemscore.Rot.Weighted>
3.1694

> <Gold.Chemscore.Internal.Correction.Weighted>
   9.000000E+99

> <Gold.Protein.RotatedTorsions>
[ 6907 6896 6895 6894 ] final  -89.75 input  -60.11 | X-H torsion
[ 7974 7965 7964 7962 ] final  142.98 input  175.53 | X-H torsion
[ 8008 7997 7996 7995 ] final   77.68 input   59.86 | X-H torsion
[ 10167 10162 10161 10158 ] final -128.87 input  -65.29 | X-H torsion
[ 10718 10713 10712 10709 ] final  -52.51 input   66.30 | X-H torsion
[ 10763 10752 10751 10750 ] final -172.86 input  -60.55 | X-H torsion
[ 11005 11000 10999 10996 ] final  -15.67 input  -57.11 | X-H torsion

> <Gold.Protein.ActiveResidues>
 VAL166  LYS551  ARG553  GLY616  TRP617  ASP618  TYR619  PRO620  LYS621  CYS622 
 ASP623  PHE694  ASN695  SER759  ASP760  ASP761  ALA762  ILE779  LEU786  VAL792 
 PHE793  MET794  SER795  GLU796  ALA797  LYS798  CYS799  TRP800  GLU811  SER814 

> <Gold.Protein.RotatedAtoms>
  150.6876  134.2539  159.4521 H   0  0  0  0  0  0  0  0  0  0  0  0  # atno 6907 bound_to 6896
  152.0474  134.9672  160.0583 H   0  0  0  0  0  0  0  0  0  0  0  0  # atno 6908 bound_to 6896
  152.1150  133.4287  159.4685 H   0  0  0  0  0  0  0  0  0  0  0  0  # atno 6909 bound_to 6896
  144.8961  139.5489  143.5776 H   0  0  0  0  0  0  0  0  0  0  0  0  # atno 7974 bound_to 7965
  155.8451  140.3460  155.5657 H   0  0  0  0  0  0  0  0  0  0  0  0  # atno 8008 bound_to 7997
  155.8099  140.0897  157.1929 H   0  0  0  0  0  0  0  0  0  0  0  0  # atno 8009 bound_to 7997
  154.4006  140.1450  156.3361 H   0  0  0  0  0  0  0  0  0  0  0  0  # atno 8010 bound_to 7997
  139.9457  143.6112  152.2490 H   0  0  0  0  0  0  0  0  0  0  0  0  # atno 10167 bound_to 10162
  156.1615  130.4149  149.9786 H   0  0  0  0  0  0  0  0  0  0  0  0  # atno 10718 bound_to 10713
  154.6144  135.2868  155.0396 H   0  0  0  0  0  0  0  0  0  0  0  0  # atno 10763 bound_to 10752
  154.1614  135.6487  153.4990 H   0  0  0  0  0  0  0  0  0  0  0  0  # atno 10764 bound_to 10752
  153.0209  135.5379  154.6910 H   0  0  0  0  0  0  0  0  0  0  0  0  # atno 10765 bound_to 10752
  140.7990  133.8229  155.9451 H   0  0  0  0  0  0  0  0  0  0  0  0  # atno 11005 bound_to 11000
  146.3082  139.7652  142.9040 LP  0  0  0  0  0  0  0  0  0  0  0  0  # atno 17320 bound_to 7965
  145.3698  141.0341  143.3237 LP  0  0  0  0  0  0  0  0  0  0  0  0  # atno 17321 bound_to 7965
  139.6668  144.7662  151.1857 LP  0  0  0  0  0  0  0  0  0  0  0  0  # atno 17342 bound_to 10162
  140.7598  143.5925  150.8782 LP  0  0  0  0  0  0  0  0  0  0  0  0  # atno 17343 bound_to 10162
  156.7613  130.9152  151.3641 LP  0  0  0  0  0  0  0  0  0  0  0  0  # atno 17370 bound_to 10713
  157.6736  130.9074  150.0097 LP  0  0  0  0  0  0  0  0  0  0  0  0  # atno 17371 bound_to 10713
  140.9314  134.2017  157.4861 LP  0  0  0  0  0  0  0  0  0  0  0  0  # atno 17394 bound_to 11000
  139.8723  134.9834  156.5197 LP  0  0  0  0  0  0  0  0  0  0  0  0  # atno 17395 bound_to 11000

$$$$
