AV-unprocessed.smi:158|AV-procd|sdf|1334|dock2
  -GOLD-   2262019 33D 1   1.00000     0.00000
 Structure written by MMmdl.
 31 33  0  0  0  0  0  0  0  0  1 V2000
  153.6531  141.4622  161.5843 N   0  0  0  0  0  0  0  0  0  0  0  0
  153.0761  141.9231  160.4656 C   0  0  0  0  0  0  0  0  0  0  0  0
  152.7945  143.2441  160.3844 N   0  0  0  0  0  0  0  0  0  0  0  0
  152.2144  143.7429  159.2868 C   0  0  0  0  0  0  0  0  0  0  0  0
  151.9003  145.4382  159.2839 Cl  0  0  0  0  0  0  0  0  0  0  0  0
  151.8504  143.0743  158.1886 N   0  0  0  0  0  0  0  0  0  0  0  0
  152.1373  141.7416  158.2582 C   0  0  0  0  0  0  0  0  0  0  0  0
  152.7464  141.0921  159.3667 C   0  0  0  0  0  0  0  0  0  0  0  0
  152.8816  139.7361  159.1082 N   0  0  0  0  0  0  0  0  0  0  0  0
  152.3810  139.5962  157.9107 C   0  0  0  0  0  0  0  0  0  0  0  0
  151.9167  140.7507  157.3170 N   0  0  0  0  0  0  0  0  0  0  0  0
  151.2978  140.8655  155.9512 C   0  0  1  0  0  0  0  0  0  0  0  0
  151.6488  139.7459  155.1897 O   0  0  0  0  0  0  0  0  0  0  0  0
  150.4812  139.0306  154.7801 C   0  0  1  0  0  0  0  0  0  0  0  0
  150.7556  137.5228  154.6332 C   0  0  0  0  0  0  0  0  0  0  0  0
  151.8789  137.3101  153.8044 O   0  0  0  0  0  0  0  0  0  0  0  0
  149.3745  139.4481  155.7605 C   0  0  1  0  0  0  0  0  0  0  0  0
  149.3868  138.6669  156.9413 O   0  0  0  0  0  0  0  0  0  0  0  0
  149.7631  140.8906  156.0258 C   0  0  1  0  0  0  0  0  0  0  0  0
  149.2953  141.3881  157.1734 F   0  0  0  0  0  0  0  0  0  0  0  0
  151.7287  141.7791  155.5404 H   0  0  0  0  0  0  0  0  0  0  0  0
  150.2258  139.4313  153.7976 H   0  0  0  0  0  0  0  0  0  0  0  0
  148.3845  139.3713  155.3097 H   0  0  0  0  0  0  0  0  0  0  0  0
  149.3969  141.5276  155.2199 H   0  0  0  0  0  0  0  0  0  0  0  0
  153.8717  140.4797  161.6687 H   0  0  0  0  0  0  0  0  0  0  0  0
  153.8695  142.0972  162.3390 H   0  0  0  0  0  0  0  0  0  0  0  0
  152.3416  138.6363  157.4165 H   0  0  0  0  0  0  0  0  0  0  0  0
  150.9674  137.0890  155.6109 H   0  0  0  0  0  0  0  0  0  0  0  0
  149.8962  136.9876  154.2303 H   0  0  0  0  0  0  0  0  0  0  0  0
  151.5762  137.1647  152.9208 H   0  0  0  0  0  0  0  0  0  0  0  0
  149.7722  139.1797  157.6354 H   0  0  0  0  0  0  0  0  0  0  0  0
  1  2  1  0  0  0  0
  1 25  1  0  0  0  0
  1 26  1  0  0  0  0
  2  8  1  0  0  0  0
  2  3  2  0  0  0  0
  3  4  1  0  0  0  0
  4  5  1  0  0  0  0
  4  6  2  0  0  0  0
  6  7  1  0  0  0  0
  7 11  1  0  0  0  0
  7  8  2  0  0  0  0
  8  9  1  0  0  0  0
  9 10  2  0  0  0  0
 10 11  1  0  0  0  0
 10 27  1  0  0  0  0
 11 12  1  0  0  0  0
 12 21  1  0  0  0  0
 12 19  1  0  0  0  0
 12 13  1  0  0  0  0
 13 14  1  0  0  0  0
 14 22  1  0  0  0  0
 14 15  1  0  0  0  0
 14 17  1  0  0  0  0
 15 16  1  0  0  0  0
 15 28  1  0  0  0  0
 15 29  1  0  0  0  0
 16 30  1  0  0  0  0
 17 23  1  0  0  0  0
 17 18  1  0  0  0  0
 17 19  1  0  0  0  0
 18 31  1  0  0  0  0
 19 24  1  0  0  0  0
 19 20  1  0  0  0  0
M  END
> <s_m_source_file>
AV-unprocessed.smi

> <i_m_source_file_index>
158

> <i_lp_mmshare_version>
43012

> <i_f3d_flags>
0

> <s_epik_input>
Q2xjKG4xKW5jKFtOSDJdKWMoYzEyKW5bY0hdbjJbQ0BASF0zT1tDQEhdKFtDSDJdW09IXSlbQ0BASF0oW09IXSlbQ0BASF0zRg==

> <s_epik_cmdline>
J2VwaWtfcHl0aG9uJywgJy1waCcsICc3LjAnLCAnLXRuJywgJzgnLCAnLW1hJywgJzIwMCcsICctbWV0YWxfYmluZGluZycsICctaW1hZScsICc8aW5maWxlLm1hZT4nLCAnLW9tYWUnLCAnPG91dGZpbGUubWFlPic=

> <r_lp_tautomer_probability>
1

> <r_epik_Ionization_Penalty>
6.51543e-05

> <r_epik_Ionization_Penalty_Charging>
0

> <r_epik_Ionization_Penalty_Neutral>
6.51543e-05

> <r_epik_State_Penalty>
-0

> <r_epik_Charging_Adjusted_Penalty>
0

> <i_epik_Tot_Q>
0

> <i_epik_Tot_abs_Q>
0

> <r_epik_Metal_State_Penalty>
-0

> <b_epik_Metal_Only>
0

> <s_epik_Chemistry_Notes>
This compound contains an acetal/aminal-like group ( X-CH(R)-Y where X, Y are N, S, or O) that may be acid/base labile, releasing an aldehyde.

> <s_lp_Force_Field>
OPLS_2005

> <r_lp_Energy>
41.2986

> <b_lp_Chiralities_Consistent>
1

> <s_lp_Variant>
AV-unprocessed.smi:158-12

> <Gold.Version>
5.8.1

> <Gold.Id.Protein>
6NUR|6NUR_protein|mol2

> <Gold.PLP.Fitness>
44.0490

> <Gold.PLP.PLP>
-37.3193

> <Gold.PLP.part.hbond>
-3.0000

> <Gold.PLP.part.metal>
0.0000

> <Gold.PLP.part.buried>
-7.3861

> <Gold.PLP.part.nonpolar>
-27.0844

> <Gold.PLP.part.repulsive>
0.1091

> <Gold.PLP.ligand.clash>
0.0000

> <Gold.PLP.ligand.torsion>
0.5848

> <Gold.PLP.Chemscore.Hbond>
2.3575

> <Gold.PLP.Chemscore.CHOScore>
0.0000

> <Gold.PLP.Chemscore.Metal>
0.0000

> <Gold.Chemscore.Hbonds>
donor molecule, donor type, donor heavy atom, donor atom, acceptor molecule, acceptor atom, score
      L1  H    16    30       P1  7949  1.00
      P1  H  7989  7998       L1    13  0.36
      P1  H 10752 10763       L1    16  1.00

> <Gold.PLP.Chemscore.Internal.Correction>
0.8267

> <Gold.Rescore>
     Score         DG    S(hbond)    S(metal)    S(lipo)     H(rot)  DE(clash)    DE(int)     intcor
      7.72      -8.69       1.75        0.00      45.85       3.12       0.17       0.79       ----

> <Gold.Chemscore.Fitness>
7.7244

> <Gold.Chemscore.DG>
-8.6861

> <Gold.Chemscore.ZeroCoef>
-5.4800

> <Gold.Chemscore.Hbond>
1.7476

> <Gold.Chemscore.Metal>
0.0000

> <Gold.Chemscore.Lipo>
45.8475

> <Gold.Chemscore.Internal_Hbond>
0.0000

> <Gold.Chemscore.DEClash>
0.1745

> <Gold.Chemscore.DEInternal>
0.7872

> <Gold.Chemscore.Rot>
3.1230

> <Gold.Chemscore.Internal.Correction>
   9.000000E+99

> <Gold.Chemscore.Hbonds>
donor molecule, donor type, donor heavy atom, donor atom, acceptor molecule, acceptor atom, score
      L1  H    16    30       P1  7949  0.90
      P1  H 10752 10763       L1    16  0.34

> <Gold.Chemscore.Hbond.Weighted>
-5.8369

> <Gold.Chemscore.Metal.Weighted>
-0.0000

> <Gold.Chemscore.Lipo.Weighted>
-5.3642

> <Gold.Chemscore.Internal_Hbond.Weighted>
0.0000

> <Gold.Chemscore.DEClash.Weighted>
0.1745

> <Gold.Chemscore.DEInternal.Weighted>
0.7872

> <Gold.Chemscore.Rot.Weighted>
7.9950

> <Gold.Chemscore.Internal.Correction.Weighted>
   9.000000E+99

> <Gold.Protein.RotatedTorsions>
[ 6907 6896 6895 6894 ] final  157.03 input  -60.11 | X-H torsion
[ 7974 7965 7964 7962 ] final -135.25 input  175.53 | X-H torsion
[ 8008 7997 7996 7995 ] final  -71.61 input   59.86 | X-H torsion
[ 10167 10162 10161 10158 ] final  -78.54 input  -65.29 | X-H torsion
[ 10718 10713 10712 10709 ] final   -5.84 input   66.30 | X-H torsion
[ 10763 10752 10751 10750 ] final   36.89 input  -60.55 | X-H torsion
[ 11005 11000 10999 10996 ] final -150.99 input  -57.11 | X-H torsion

> <Gold.Protein.ActiveResidues>
 VAL166  LYS551  ARG553  GLY616  TRP617  ASP618  TYR619  PRO620  LYS621  CYS622 
 ASP623  PHE694  ASN695  SER759  ASP760  ASP761  ALA762  ILE779  LEU786  VAL792 
 PHE793  MET794  SER795  GLU796  ALA797  LYS798  CYS799  TRP800  GLU811  SER814 

> <Gold.Protein.RotatedAtoms>
  152.0210  133.3898  159.4257 H   0  0  0  0  0  0  0  0  0  0  0  0  # atno 6907 bound_to 6896
  150.6890  134.3626  159.4966 H   0  0  0  0  0  0  0  0  0  0  0  0  # atno 6908 bound_to 6896
  152.1400  134.9070  160.0605 H   0  0  0  0  0  0  0  0  0  0  0  0  # atno 6909 bound_to 6896
  144.9031  140.6797  143.5072 H   0  0  0  0  0  0  0  0  0  0  0  0  # atno 7974 bound_to 7965
  154.5101  140.0812  156.7972 H   0  0  0  0  0  0  0  0  0  0  0  0  # atno 8008 bound_to 7997
  155.3805  140.3427  155.4228 H   0  0  0  0  0  0  0  0  0  0  0  0  # atno 8009 bound_to 7997
  156.1563  140.1574  156.8675 H   0  0  0  0  0  0  0  0  0  0  0  0  # atno 8010 bound_to 7997
  140.4673  143.2436  151.8259 H   0  0  0  0  0  0  0  0  0  0  0  0  # atno 10167 bound_to 10162
  156.7407  130.5209  149.5825 H   0  0  0  0  0  0  0  0  0  0  0  0  # atno 10718 bound_to 10713
  153.0059  135.6293  154.2057 H   0  0  0  0  0  0  0  0  0  0  0  0  # atno 10763 bound_to 10752
  154.1800  135.2814  155.3056 H   0  0  0  0  0  0  0  0  0  0  0  0  # atno 10764 bound_to 10752
  154.5842  135.5638  153.7274 H   0  0  0  0  0  0  0  0  0  0  0  0  # atno 10765 bound_to 10752
  140.7343  134.3586  157.5160 H   0  0  0  0  0  0  0  0  0  0  0  0  # atno 11005 bound_to 11000
  145.3582  139.1688  143.4397 LP  0  0  0  0  0  0  0  0  0  0  0  0  # atno 17320 bound_to 7965
  146.3119  140.3642  142.8668 LP  0  0  0  0  0  0  0  0  0  0  0  0  # atno 17321 bound_to 7965
  139.4813  144.4935  151.9154 LP  0  0  0  0  0  0  0  0  0  0  0  0  # atno 17342 bound_to 10162
  140.4021  144.2480  150.5892 LP  0  0  0  0  0  0  0  0  0  0  0  0  # atno 17343 bound_to 10162
  156.1466  130.6281  151.0540 LP  0  0  0  0  0  0  0  0  0  0  0  0  # atno 17370 bound_to 10713
  157.6819  131.0835  150.7346 LP  0  0  0  0  0  0  0  0  0  0  0  0  # atno 17371 bound_to 10713
  139.8819  134.9039  156.2865 LP  0  0  0  0  0  0  0  0  0  0  0  0  # atno 17394 bound_to 11000
  140.9893  133.7218  156.0790 LP  0  0  0  0  0  0  0  0  0  0  0  0  # atno 17395 bound_to 11000

$$$$
