AV-unprocessed.smi:3120|AV-procd|sdf|11893|dock9
  -GOLD-   2272017283D 1   1.00000     0.00000
 Structure written by MMmdl.
 22 23  0  0  0  0  0  0  0  0  1 V2000
  153.8322  139.7730  158.6133 O   0  0  0  0  0  0  0  0  0  0  0  0
  153.9773  140.1937  159.7594 C   0  0  0  0  0  0  0  0  0  0  0  0
  154.1575  139.4413  160.8440 N   0  0  0  0  0  0  0  0  0  0  0  0
  154.3119  140.2113  162.0630 C   0  0  0  0  0  0  0  0  0  0  0  0
  153.9428  141.6492  161.6661 C   0  0  0  0  0  0  0  0  0  0  0  0
  153.9730  141.6735  160.1274 C   0  0  2  0  0  0  0  0  0  0  0  0
  152.8180  142.4356  159.4862 C   0  0  0  0  0  0  0  0  0  0  0  0
  152.6326  143.8210  159.6951 C   0  0  0  0  0  0  0  0  0  0  0  0
  151.5472  144.4658  159.0720 C   0  0  0  0  0  0  0  0  0  0  0  0
  150.6872  143.6982  158.2622 C   0  0  0  0  0  0  0  0  0  0  0  0
  150.8513  142.3744  158.0538 N   0  0  0  0  0  0  0  0  0  0  0  0
  151.8944  141.7639  158.6562 C   0  0  0  0  0  0  0  0  0  0  0  0
  154.1939  138.4321  160.8309 H   0  0  0  0  0  0  0  0  0  0  0  0
  153.6692  139.8275  162.8557 H   0  0  0  0  0  0  0  0  0  0  0  0
  155.3479  140.1489  162.3980 H   0  0  0  0  0  0  0  0  0  0  0  0
  152.9443  141.8768  162.0415 H   0  0  0  0  0  0  0  0  0  0  0  0
  154.6224  142.3830  162.1003 H   0  0  0  0  0  0  0  0  0  0  0  0
  154.9225  142.0909  159.7893 H   0  0  0  0  0  0  0  0  0  0  0  0
  153.3094  144.3824  160.3223 H   0  0  0  0  0  0  0  0  0  0  0  0
  151.3777  145.5232  159.2117 H   0  0  0  0  0  0  0  0  0  0  0  0
  149.8454  144.1600  157.7677 H   0  0  0  0  0  0  0  0  0  0  0  0
  151.9943  140.7050  158.4667 H   0  0  0  0  0  0  0  0  0  0  0  0
  1  2  2  0  0  0  0
  2  6  1  0  0  0  0
  2  3  1  0  0  0  0
  3  4  1  0  0  0  0
  3 13  1  0  0  0  0
  4  5  1  0  0  0  0
  4 14  1  0  0  0  0
  4 15  1  0  0  0  0
  5  6  1  0  0  0  0
  5 16  1  0  0  0  0
  5 17  1  0  0  0  0
  6  7  1  0  0  0  0
  6 18  1  0  0  0  0
  7 12  1  0  0  0  0
  7  8  2  0  0  0  0
  8  9  1  0  0  0  0
  8 19  1  0  0  0  0
  9 10  2  0  0  0  0
  9 20  1  0  0  0  0
 10 11  1  0  0  0  0
 10 21  1  0  0  0  0
 11 12  2  0  0  0  0
 12 22  1  0  0  0  0
M  END
> <s_m_source_file>
AV-unprocessed.smi

> <i_m_source_file_index>
3120

> <i_lp_mmshare_version>
43012

> <i_f3d_flags>
0

> <s_epik_input>
Tz1DMVtOSF1bQ0gyXVtDSDJdW0NASF0xYzJbY0hdW2NIXVtjSF1uW2NIXTI=

> <s_epik_cmdline>
J2VwaWtfcHl0aG9uJywgJy1waCcsICc3LjAnLCAnLXRuJywgJzgnLCAnLW1hJywgJzIwMCcsICctbWV0YWxfYmluZGluZycsICctaW1hZScsICc8aW5maWxlLm1hZT4nLCAnLW9tYWUnLCAnPG91dGZpbGUubWFlPic=

> <r_epik_Ionization_Penalty>
0.00558523

> <r_epik_Ionization_Penalty_Charging>
0

> <r_epik_Ionization_Penalty_Neutral>
0.00558523

> <r_epik_State_Penalty>
0.00409114

> <r_epik_Charging_Adjusted_Penalty>
0.00409114

> <i_epik_Tot_Q>
0

> <i_epik_Tot_abs_Q>
0

> <r_epik_Metal_State_Penalty>
-0

> <b_epik_Metal_Only>
0

> <s_lp_Force_Field>
OPLS_2005

> <r_lp_Energy>
14.9187

> <b_lp_Chiralities_Consistent>
1

> <s_lp_Variant>
AV-unprocessed.smi:3120-2

> <Gold.Version>
5.8.1

> <Gold.Id.Protein>
6NUR|6NUR_protein|mol2

> <Gold.PLP.Fitness>
33.6667

> <Gold.PLP.PLP>
-27.4500

> <Gold.PLP.part.hbond>
-1.0000

> <Gold.PLP.part.metal>
0.0000

> <Gold.PLP.part.buried>
-1.4429

> <Gold.PLP.part.nonpolar>
-24.8256

> <Gold.PLP.part.repulsive>
0.0900

> <Gold.PLP.ligand.clash>
0.0000

> <Gold.PLP.ligand.torsion>
0.0080

> <Gold.PLP.Chemscore.Hbond>
0.9280

> <Gold.PLP.Chemscore.CHOScore>
1.1471

> <Gold.PLP.Chemscore.Metal>
0.0000

> <Gold.Chemscore.Hbonds>
donor molecule, donor type, donor heavy atom, donor atom, acceptor molecule, acceptor atom, score
      P1  H  7997  8010       L1     1  0.91
      L1  C    10    21       P1  8028  0.99
      L1  C    10    21       P1  8029  0.15

> <Gold.PLP.Chemscore.Internal.Correction>
0.0075

> <Gold.Rescore>
     Score         DG    S(hbond)    S(metal)    S(lipo)     H(rot)  DE(clash)    DE(int)     intcor
     15.02     -16.48       0.99        0.00      87.51       1.00       0.00       1.46       ----

> <Gold.Chemscore.Fitness>
15.0151

> <Gold.Chemscore.DG>
-16.4765

> <Gold.Chemscore.ZeroCoef>
-5.4800

> <Gold.Chemscore.Hbond>
0.9934

> <Gold.Chemscore.Metal>
0.0000

> <Gold.Chemscore.Lipo>
87.5075

> <Gold.Chemscore.Internal_Hbond>
0.0000

> <Gold.Chemscore.DEClash>
0.0048

> <Gold.Chemscore.DEInternal>
1.4566

> <Gold.Chemscore.Rot>
1.0000

> <Gold.Chemscore.Internal.Correction>
   9.000000E+99

> <Gold.Chemscore.Hbonds>
donor molecule, donor type, donor heavy atom, donor atom, acceptor molecule, acceptor atom, score
      P1  H  7997  8010       L1     1  0.87

> <Gold.Chemscore.Hbond.Weighted>
-3.3181

> <Gold.Chemscore.Metal.Weighted>
-0.0000

> <Gold.Chemscore.Lipo.Weighted>
-10.2384

> <Gold.Chemscore.Internal_Hbond.Weighted>
0.0000

> <Gold.Chemscore.DEClash.Weighted>
0.0048

> <Gold.Chemscore.DEInternal.Weighted>
1.4566

> <Gold.Chemscore.Rot.Weighted>
2.5600

> <Gold.Chemscore.Internal.Correction.Weighted>
   9.000000E+99

> <Gold.Protein.RotatedTorsions>
[ 6907 6896 6895 6894 ] final  -82.29 input  -60.11 | X-H torsion
[ 7974 7965 7964 7962 ] final   59.29 input  175.53 | X-H torsion
[ 8008 7997 7996 7995 ] final    0.83 input   59.86 | X-H torsion
[ 10167 10162 10161 10158 ] final   48.56 input  -65.29 | X-H torsion
[ 10718 10713 10712 10709 ] final -170.34 input   66.30 | X-H torsion
[ 10763 10752 10751 10750 ] final  104.09 input  -60.55 | X-H torsion
[ 11005 11000 10999 10996 ] final   41.34 input  -57.11 | X-H torsion

> <Gold.Protein.ActiveResidues>
 VAL166  LYS551  ARG553  GLY616  TRP617  ASP618  TYR619  PRO620  LYS621  CYS622 
 ASP623  PHE694  ASN695  SER759  ASP760  ASP761  ALA762  ILE779  LEU786  VAL792 
 PHE793  MET794  SER795  GLU796  ALA797  LYS798  CYS799  TRP800  GLU811  SER814 

> <Gold.Protein.RotatedAtoms>
  150.6899  134.3687  159.4982 H   0  0  0  0  0  0  0  0  0  0  0  0  # atno 6907 bound_to 6896
  152.1506  134.8988  160.0557 H   0  0  0  0  0  0  0  0  0  0  0  0  # atno 6908 bound_to 6896
  152.0087  133.3818  159.4248 H   0  0  0  0  0  0  0  0  0  0  0  0  # atno 6909 bound_to 6896
  145.9088  139.3638  143.0548 H   0  0  0  0  0  0  0  0  0  0  0  0  # atno 7974 bound_to 7965
  154.6726  140.2615  155.6991 H   0  0  0  0  0  0  0  0  0  0  0  0  # atno 8008 bound_to 7997
  156.2665  140.2826  156.1163 H   0  0  0  0  0  0  0  0  0  0  0  0  # atno 8009 bound_to 7997
  155.1147  140.0376  157.2724 H   0  0  0  0  0  0  0  0  0  0  0  0  # atno 8010 bound_to 7997
  140.2920  144.3035  150.6238 H   0  0  0  0  0  0  0  0  0  0  0  0  # atno 10167 bound_to 10162
  156.7247  130.9283  151.3100 H   0  0  0  0  0  0  0  0  0  0  0  0  # atno 10718 bound_to 10713
  153.3613  135.3955  155.1720 H   0  0  0  0  0  0  0  0  0  0  0  0  # atno 10763 bound_to 10752
  154.8679  135.3680  154.5096 H   0  0  0  0  0  0  0  0  0  0  0  0  # atno 10764 bound_to 10752
  153.5555  135.7082  153.5631 H   0  0  0  0  0  0  0  0  0  0  0  0  # atno 10765 bound_to 10752
  140.1843  134.4065  155.8182 H   0  0  0  0  0  0  0  0  0  0  0  0  # atno 11005 bound_to 11000
  145.8698  140.9427  143.0656 LP  0  0  0  0  0  0  0  0  0  0  0  0  # atno 17320 bound_to 7965
  144.6741  140.0639  143.7475 LP  0  0  0  0  0  0  0  0  0  0  0  0  # atno 17321 bound_to 7965
  140.5724  143.2179  151.7575 LP  0  0  0  0  0  0  0  0  0  0  0  0  # atno 17342 bound_to 10162
  139.4936  144.4197  151.9991 LP  0  0  0  0  0  0  0  0  0  0  0  0  # atno 17343 bound_to 10162
  157.6883  130.9208  150.0446 LP  0  0  0  0  0  0  0  0  0  0  0  0  # atno 17370 bound_to 10713
  156.1570  130.3643  149.9354 LP  0  0  0  0  0  0  0  0  0  0  0  0  # atno 17371 bound_to 10713
  141.2224  133.7015  156.7986 LP  0  0  0  0  0  0  0  0  0  0  0  0  # atno 17394 bound_to 11000
  140.2231  134.8742  157.3398 LP  0  0  0  0  0  0  0  0  0  0  0  0  # atno 17395 bound_to 11000

$$$$
