AV-unprocessed.smi:308|AV-procd|sdf|2288|dock8
  -GOLD-   2262022193D 1   1.00000     0.00000
 Structure written by MMmdl.
 50 51  0  0  0  0  0  0  0  0  2 V2000
  144.2053  132.8556  151.7567 C   0  0  0  0  0  0  0  0  0  0  0  0
  145.6876  133.2383  151.9133 C   0  0  2  0  0  0  0  0  0  0  0  0
  146.0096  133.8169  153.3028 C   0  0  0  0  0  0  0  0  0  0  0  0
  145.4792  135.2519  153.4745 C   0  0  0  0  0  0  0  0  0  0  0  0
  145.9872  136.1493  152.4047 N   0  3  2  0  0  0  0  0  0  0  0  0
  145.5857  137.5618  152.6242 C   0  0  0  0  0  0  0  0  0  0  0  0
  146.4816  138.5557  151.8595 C   0  0  0  0  0  0  0  0  0  0  0  0
  147.8012  138.6674  152.4707 N   0  0  0  0  0  0  0  0  0  0  0  0
  148.0903  139.4333  153.5325 C   0  0  0  0  0  0  0  0  0  0  0  0
  147.2533  140.1229  154.1147 O   0  0  0  0  0  0  0  0  0  0  0  0
  149.3935  139.3533  153.8511 N   0  0  0  0  0  0  0  0  0  0  0  0
  150.0913  140.0195  154.8947 C   0  0  0  0  0  0  0  0  0  0  0  0
  151.2627  139.5273  155.5147 C   0  0  0  0  0  0  0  0  0  0  0  0
  151.8691  140.2886  156.5325 C   0  0  0  0  0  0  0  0  0  0  0  0
  151.2985  141.5308  156.9058 C   0  0  0  0  0  0  0  0  0  0  0  0
  151.8681  142.3277  157.9253 N   0  0  0  0  0  0  0  0  0  0  0  0
  151.4890  143.7318  158.0468 C   0  0  0  0  0  0  0  0  0  0  0  0
  152.7642  141.7306  158.9078 C   0  0  0  0  0  0  0  0  0  0  0  0
  150.1853  142.0044  156.2941 N   0  0  0  0  0  0  0  0  0  0  0  0
  149.6075  141.2720  155.3197 C   0  0  0  0  0  0  0  0  0  0  0  0
  145.6297  135.6441  151.0521 C   0  0  0  0  0  0  0  0  0  0  0  0
  146.1680  134.2194  150.8288 C   0  0  0  0  0  0  0  0  0  0  0  0
  143.5440  133.7160  151.8545 H   0  0  0  0  0  0  0  0  0  0  0  0
  143.9095  132.1263  152.5113 H   0  0  0  0  0  0  0  0  0  0  0  0
  144.0194  132.4071  150.7805 H   0  0  0  0  0  0  0  0  0  0  0  0
  146.2577  132.3153  151.7995 H   0  0  0  0  0  0  0  0  0  0  0  0
  145.6051  133.1720  154.0837 H   0  0  0  0  0  0  0  0  0  0  0  0
  147.0912  133.8207  153.4456 H   0  0  0  0  0  0  0  0  0  0  0  0
  144.3883  135.2610  153.4739 H   0  0  0  0  0  0  0  0  0  0  0  0
  145.7945  135.6285  154.4484 H   0  0  0  0  0  0  0  0  0  0  0  0
  144.5358  137.6865  152.3544 H   0  0  0  0  0  0  0  0  0  0  0  0
  145.6588  137.7959  153.6873 H   0  0  0  0  0  0  0  0  0  0  0  0
  146.6128  138.2200  150.8305 H   0  0  0  0  0  0  0  0  0  0  0  0
  146.0303  139.5467  151.8072 H   0  0  0  0  0  0  0  0  0  0  0  0
  148.5489  138.1368  152.0476 H   0  0  0  0  0  0  0  0  0  0  0  0
  149.9696  138.8016  153.2322 H   0  0  0  0  0  0  0  0  0  0  0  0
  151.7161  138.5925  155.2247 H   0  0  0  0  0  0  0  0  0  0  0  0
  152.7622  139.9057  157.0022 H   0  0  0  0  0  0  0  0  0  0  0  0
  150.4231  143.8234  158.2586 H   0  0  0  0  0  0  0  0  0  0  0  0
  151.7070  144.2695  157.1233 H   0  0  0  0  0  0  0  0  0  0  0  0
  152.0344  144.2230  158.8527 H   0  0  0  0  0  0  0  0  0  0  0  0
  153.6746  141.3725  158.4264 H   0  0  0  0  0  0  0  0  0  0  0  0
  152.2807  140.8926  159.4109 H   0  0  0  0  0  0  0  0  0  0  0  0
  153.0531  142.4522  159.6720 H   0  0  0  0  0  0  0  0  0  0  0  0
  148.7238  141.7003  154.8696 H   0  0  0  0  0  0  0  0  0  0  0  0
  144.5464  135.6662  150.9261 H   0  0  0  0  0  0  0  0  0  0  0  0
  146.0427  136.2950  150.2829 H   0  0  0  0  0  0  0  0  0  0  0  0
  147.2585  134.2492  150.8318 H   0  0  0  0  0  0  0  0  0  0  0  0
  145.8793  133.8610  149.8400 H   0  0  0  0  0  0  0  0  0  0  0  0
  146.9946  136.1228  152.4727 H   0  0  0  0  0  0  0  0  0  0  0  0
  1  2  1  0  0  0  0
  1 23  1  0  0  0  0
  1 24  1  0  0  0  0
  1 25  1  0  0  0  0
  2 22  1  0  0  0  0
  2  3  1  0  0  0  0
  2 26  1  0  0  0  0
  3  4  1  0  0  0  0
  3 27  1  0  0  0  0
  3 28  1  0  0  0  0
  4  5  1  0  0  0  0
  4 29  1  0  0  0  0
  4 30  1  0  0  0  0
  5  6  1  0  0  0  0
  5 21  1  0  0  0  0
  5 50  1  0  0  0  0
  6  7  1  0  0  0  0
  6 31  1  0  0  0  0
  6 32  1  0  0  0  0
  7  8  1  0  0  0  0
  7 33  1  0  0  0  0
  7 34  1  0  0  0  0
  8  9  1  0  0  0  0
  8 35  1  0  0  0  0
  9 10  2  0  0  0  0
  9 11  1  0  0  0  0
 11 12  1  0  0  0  0
 11 36  1  0  0  0  0
 12 20  1  0  0  0  0
 12 13  2  0  0  0  0
 13 14  1  0  0  0  0
 13 37  1  0  0  0  0
 14 15  2  0  0  0  0
 14 38  1  0  0  0  0
 15 16  1  0  0  0  0
 15 19  1  0  0  0  0
 16 17  1  0  0  0  0
 16 18  1  0  0  0  0
 17 39  1  0  0  0  0
 17 40  1  0  0  0  0
 17 41  1  0  0  0  0
 18 42  1  0  0  0  0
 18 43  1  0  0  0  0
 18 44  1  0  0  0  0
 19 20  2  0  0  0  0
 20 45  1  0  0  0  0
 21 22  1  0  0  0  0
 21 46  1  0  0  0  0
 21 47  1  0  0  0  0
 22 48  1  0  0  0  0
 22 49  1  0  0  0  0
M  CHG  1   5   1
M  END
> <s_m_source_file>
AV-unprocessed.smi

> <i_m_source_file_index>
308

> <i_lp_mmshare_version>
43012

> <i_f3d_flags>
0

> <s_epik_input>
W0NIM11bQ0hdMVtDSDJdW0NIMl1OKFtDSDJdW0NIMl0xKVtDSDJdW0NIMl1bTkhdQyg9TylbTkhdYzJbY0hdW2NIXWMoTihbQ0gzXSlbQ0gzXSluW2NIXTI=

> <s_epik_cmdline>
J2VwaWtfcHl0aG9uJywgJy1waCcsICc3LjAnLCAnLXRuJywgJzgnLCAnLW1hJywgJzIwMCcsICctbWV0YWxfYmluZGluZycsICctaW1hZScsICc8aW5maWxlLm1hZT4nLCAnLW9tYWUnLCAnPG91dGZpbGUubWFlPic=

> <r_lp_tautomer_probability>
1

> <r_epik_Ionization_Penalty>
0.536661

> <r_epik_Ionization_Penalty_Charging>
0.00139388

> <r_epik_Ionization_Penalty_Neutral>
0.535267

> <r_epik_State_Penalty>
0.543381

> <r_epik_Charging_Adjusted_Penalty>
0.544775

> <i_epik_Tot_Q>
1

> <i_epik_Tot_abs_Q>
1

> <r_epik_Metal_State_Penalty>
0.284523

> <b_epik_Metal_Only>
0

> <s_lp_Force_Field>
OPLS_2005

> <r_lp_Energy>
22.9976

> <b_lp_Chiralities_Consistent>
1

> <s_lp_Variant>
AV-unprocessed.smi:308-4

> <Gold.Version>
5.8.1

> <Gold.Id.Protein>
6NUR|6NUR_protein|mol2

> <Gold.PLP.Fitness>
47.5913

> <Gold.PLP.PLP>
-40.6842

> <Gold.PLP.part.hbond>
-4.0000

> <Gold.PLP.part.metal>
0.0000

> <Gold.PLP.part.buried>
-4.1138

> <Gold.PLP.part.nonpolar>
-32.8369

> <Gold.PLP.part.repulsive>
0.7755

> <Gold.PLP.ligand.clash>
0.0000

> <Gold.PLP.ligand.torsion>
0.6497

> <Gold.PLP.Chemscore.Hbond>
2.7200

> <Gold.PLP.Chemscore.CHOScore>
0.0000

> <Gold.PLP.Chemscore.Metal>
0.0000

> <Gold.Chemscore.Hbonds>
donor molecule, donor type, donor heavy atom, donor atom, acceptor molecule, acceptor atom, score
      L1  H     5    50       P1  7948  1.95
      L1  H     8    35       P1  7948  0.74

> <Gold.PLP.Chemscore.Internal.Correction>
0.0466

> <Gold.Rescore>
     Score         DG    S(hbond)    S(metal)    S(lipo)     H(rot)  DE(clash)    DE(int)     intcor
     15.66     -17.90       1.65        0.00      90.28       1.42       0.36       1.89       ----

> <Gold.Chemscore.Fitness>
15.6560

> <Gold.Chemscore.DG>
-17.9026

> <Gold.Chemscore.ZeroCoef>
-5.4800

> <Gold.Chemscore.Hbond>
1.6483

> <Gold.Chemscore.Metal>
0.0000

> <Gold.Chemscore.Lipo>
90.2804

> <Gold.Chemscore.Internal_Hbond>
0.0000

> <Gold.Chemscore.DEClash>
0.3585

> <Gold.Chemscore.DEInternal>
1.8881

> <Gold.Chemscore.Rot>
1.4241

> <Gold.Chemscore.Internal.Correction>
   9.000000E+99

> <Gold.Chemscore.Hbonds>
donor molecule, donor type, donor heavy atom, donor atom, acceptor molecule, acceptor atom, score
      L1  H     5    50       P1  7948  0.90
      L1  H     8    35       P1  7948  0.72

> <Gold.Chemscore.Hbond.Weighted>
-5.5054

> <Gold.Chemscore.Metal.Weighted>
-0.0000

> <Gold.Chemscore.Lipo.Weighted>
-10.5628

> <Gold.Chemscore.Internal_Hbond.Weighted>
0.0000

> <Gold.Chemscore.DEClash.Weighted>
0.3585

> <Gold.Chemscore.DEInternal.Weighted>
1.8881

> <Gold.Chemscore.Rot.Weighted>
3.6456

> <Gold.Chemscore.Internal.Correction.Weighted>
   9.000000E+99

> <Gold.Protein.RotatedTorsions>
[ 6907 6896 6895 6894 ] final  149.80 input  -60.11 | X-H torsion
[ 7974 7965 7964 7962 ] final   78.67 input  175.53 | X-H torsion
[ 8008 7997 7996 7995 ] final  -38.43 input   59.86 | X-H torsion
[ 10167 10162 10161 10158 ] final  -81.35 input  -65.29 | X-H torsion
[ 10718 10713 10712 10709 ] final   99.95 input   66.30 | X-H torsion
[ 10763 10752 10751 10750 ] final  -20.06 input  -60.55 | X-H torsion
[ 11005 11000 10999 10996 ] final  159.35 input  -57.11 | X-H torsion

> <Gold.Protein.ActiveResidues>
 VAL166  LYS551  ARG553  GLY616  TRP617  ASP618  TYR619  PRO620  LYS621  CYS622 
 ASP623  PHE694  ASN695  SER759  ASP760  ASP761  ALA762  ILE779  LEU786  VAL792 
 PHE793  MET794  SER795  GLU796  ALA797  LYS798  CYS799  TRP800  GLU811  SER814 

> <Gold.Protein.RotatedAtoms>
  152.1231  133.4365  159.4684 H   0  0  0  0  0  0  0  0  0  0  0  0  # atno 6907 bound_to 6896
  150.6873  134.2510  159.4520 H   0  0  0  0  0  0  0  0  0  0  0  0  # atno 6908 bound_to 6896
  152.0389  134.9723  160.0624 H   0  0  0  0  0  0  0  0  0  0  0  0  # atno 6909 bound_to 6896
  145.6742  139.2505  143.1851 H   0  0  0  0  0  0  0  0  0  0  0  0  # atno 7974 bound_to 7965
  154.4037  140.1578  156.2699 H   0  0  0  0  0  0  0  0  0  0  0  0  # atno 8008 bound_to 7997
  155.8962  140.3436  155.5970 H   0  0  0  0  0  0  0  0  0  0  0  0  # atno 8009 bound_to 7997
  155.7501  140.0804  157.2196 H   0  0  0  0  0  0  0  0  0  0  0  0  # atno 8010 bound_to 7997
  140.4420  143.2511  151.8612 H   0  0  0  0  0  0  0  0  0  0  0  0  # atno 10167 bound_to 10162
  157.6865  131.0684  150.5026 H   0  0  0  0  0  0  0  0  0  0  0  0  # atno 10718 bound_to 10713
  153.6144  135.6995  153.5334 H   0  0  0  0  0  0  0  0  0  0  0  0  # atno 10763 bound_to 10752
  153.2989  135.4134  155.1234 H   0  0  0  0  0  0  0  0  0  0  0  0  # atno 10764 bound_to 10752
  154.8556  135.3644  154.5684 H   0  0  0  0  0  0  0  0  0  0  0  0  # atno 10765 bound_to 10752
  140.1954  134.8377  157.2958 H   0  0  0  0  0  0  0  0  0  0  0  0  # atno 11005 bound_to 11000
  146.1020  140.7533  142.9545 LP  0  0  0  0  0  0  0  0  0  0  0  0  # atno 17320 bound_to 7965
  144.7047  140.3802  143.7128 LP  0  0  0  0  0  0  0  0  0  0  0  0  # atno 17321 bound_to 7965
  139.4790  144.5218  151.8791 LP  0  0  0  0  0  0  0  0  0  0  0  0  # atno 17342 bound_to 10162
  140.4307  144.2120  150.5888 LP  0  0  0  0  0  0  0  0  0  0  0  0  # atno 17343 bound_to 10162
  156.5347  130.4193  149.6184 LP  0  0  0  0  0  0  0  0  0  0  0  0  # atno 17370 bound_to 10713
  156.3038  130.7191  151.2069 LP  0  0  0  0  0  0  0  0  0  0  0  0  # atno 17371 bound_to 10713
  140.2113  134.4135  155.7611 LP  0  0  0  0  0  0  0  0  0  0  0  0  # atno 17394 bound_to 11000
  141.2227  133.7120  156.8343 LP  0  0  0  0  0  0  0  0  0  0  0  0  # atno 17395 bound_to 11000

$$$$
