AV-unprocessed.smi:2181|AV-procd|sdf|8862|dock3
  -GOLD-   2272012 53D 1   1.00000     0.00000
 Structure written by MMmdl.
 38 39  0  0  0  0  0  0  0  0  1 V2000
  152.4265  143.2953  160.4637 C   0  0  0  0  0  0  0  0  0  0  0  0
  152.5327  141.9836  159.7392 C   0  0  0  0  0  0  0  0  0  0  0  0
  153.1512  140.9716  160.3239 N   0  0  0  0  0  0  0  0  0  0  0  0
  153.0747  139.9037  159.4248 O   0  0  0  0  0  0  0  0  0  0  0  0
  152.4037  140.3192  158.3208 C   0  0  0  0  0  0  0  0  0  0  0  0
  152.2048  139.3128  157.2384 C   0  0  0  0  0  0  0  0  0  0  0  0
  152.0314  141.6287  158.4526 C   0  0  0  0  0  0  0  0  0  0  0  0
  151.2655  142.4864  157.4777 C   0  0  0  0  0  0  0  0  0  0  0  0
  150.0562  141.7133  156.9533 C   0  0  0  0  0  0  0  0  0  0  0  0
  149.1593  141.3736  157.7242 O   0  0  0  0  0  0  0  0  0  0  0  0
  150.0439  141.4499  155.6372 N   0  0  0  0  0  0  0  0  0  0  0  0
  148.9945  140.7335  154.9130 C   0  0  1  0  0  0  0  0  0  0  0  0
  148.1671  141.7232  154.0620 C   0  0  0  0  0  0  0  0  0  0  0  0
  146.7606  141.2155  153.7051 C   0  0  0  0  0  0  0  0  0  0  0  0
  146.7320  139.9506  152.8342 C   0  0  0  0  0  0  0  0  0  0  0  0
  147.3067  138.7060  153.5325 C   0  0  0  0  0  0  0  0  0  0  0  0
  148.7641  138.6828  153.5253 N   0  0  0  0  0  0  0  0  0  0  0  0
  149.5917  139.5612  154.1117 C   0  0  0  0  0  0  0  0  0  0  0  0
  150.8118  139.4376  154.0039 O   0  0  0  0  0  0  0  0  0  0  0  0
  151.6088  143.2757  161.1843 H   0  0  0  0  0  0  0  0  0  0  0  0
  152.2403  144.1186  159.7745 H   0  0  0  0  0  0  0  0  0  0  0  0
  153.3440  143.5247  161.0064 H   0  0  0  0  0  0  0  0  0  0  0  0
  151.1936  138.9071  157.2731 H   0  0  0  0  0  0  0  0  0  0  0  0
  152.9063  138.4844  157.3381 H   0  0  0  0  0  0  0  0  0  0  0  0
  152.3539  139.7637  156.2575 H   0  0  0  0  0  0  0  0  0  0  0  0
  150.9245  143.4140  157.9382 H   0  0  0  0  0  0  0  0  0  0  0  0
  151.8905  142.7835  156.6346 H   0  0  0  0  0  0  0  0  0  0  0  0
  150.8298  141.7649  155.0868 H   0  0  0  0  0  0  0  0  0  0  0  0
  148.3388  140.2896  155.6646 H   0  0  0  0  0  0  0  0  0  0  0  0
  148.0430  142.6594  154.6080 H   0  0  0  0  0  0  0  0  0  0  0  0
  148.7130  141.9844  153.1542 H   0  0  0  0  0  0  0  0  0  0  0  0
  146.1953  141.0392  154.6211 H   0  0  0  0  0  0  0  0  0  0  0  0
  146.2305  142.0097  153.1788 H   0  0  0  0  0  0  0  0  0  0  0  0
  145.6930  139.7466  152.5737 H   0  0  0  0  0  0  0  0  0  0  0  0
  147.2469  140.1277  151.8890 H   0  0  0  0  0  0  0  0  0  0  0  0
  146.9288  138.6149  154.5519 H   0  0  0  0  0  0  0  0  0  0  0  0
  146.9725  137.8141  153.0022 H   0  0  0  0  0  0  0  0  0  0  0  0
  149.1923  137.9259  153.0118 H   0  0  0  0  0  0  0  0  0  0  0  0
  1  2  1  0  0  0  0
  1 20  1  0  0  0  0
  1 21  1  0  0  0  0
  1 22  1  0  0  0  0
  2  7  1  0  0  0  0
  2  3  2  0  0  0  0
  3  4  1  0  0  0  0
  4  5  1  0  0  0  0
  5  6  1  0  0  0  0
  5  7  2  0  0  0  0
  6 23  1  0  0  0  0
  6 24  1  0  0  0  0
  6 25  1  0  0  0  0
  7  8  1  0  0  0  0
  8  9  1  0  0  0  0
  8 26  1  0  0  0  0
  8 27  1  0  0  0  0
  9 10  2  0  0  0  0
  9 11  1  0  0  0  0
 11 12  1  0  0  0  0
 11 28  1  0  0  0  0
 12 18  1  0  0  0  0
 12 13  1  0  0  0  0
 12 29  1  0  0  0  0
 13 14  1  0  0  0  0
 13 30  1  0  0  0  0
 13 31  1  0  0  0  0
 14 15  1  0  0  0  0
 14 32  1  0  0  0  0
 14 33  1  0  0  0  0
 15 16  1  0  0  0  0
 15 34  1  0  0  0  0
 15 35  1  0  0  0  0
 16 17  1  0  0  0  0
 16 36  1  0  0  0  0
 16 37  1  0  0  0  0
 17 18  1  0  0  0  0
 17 38  1  0  0  0  0
 18 19  2  0  0  0  0
M  END
> <s_m_source_file>
AV-unprocessed.smi

> <i_m_source_file_index>
2181

> <i_lp_mmshare_version>
43012

> <i_f3d_flags>
0

> <s_epik_input>
W0NIM11jMW5vYyhbQ0gzXSljMVtDSDJdQyg9TylbTkhdW0NAQEhdMltDSDJdW0NIMl1bQ0gyXVtDSDJdW05IXUMyPU8=

> <s_epik_cmdline>
J2VwaWtfcHl0aG9uJywgJy1waCcsICc3LjAnLCAnLXRuJywgJzgnLCAnLW1hJywgJzIwMCcsICctbWV0YWxfYmluZGluZycsICctaW1hZScsICc8aW5maWxlLm1hZT4nLCAnLW9tYWUnLCAnPG91dGZpbGUubWFlPic=

> <r_lp_tautomer_probability>
1

> <r_epik_Ionization_Penalty>
5.91376e-08

> <r_epik_Ionization_Penalty_Charging>
0

> <r_epik_Ionization_Penalty_Neutral>
5.91376e-08

> <r_epik_State_Penalty>
-0

> <r_epik_Charging_Adjusted_Penalty>
0

> <i_epik_Tot_Q>
0

> <i_epik_Tot_abs_Q>
0

> <r_epik_Metal_State_Penalty>
-0

> <b_epik_Metal_Only>
0

> <s_lp_Force_Field>
OPLS_2005

> <r_lp_Energy>
4.12188

> <b_lp_Chiralities_Consistent>
1

> <s_lp_Variant>
AV-unprocessed.smi:2181-2

> <Gold.Version>
5.8.1

> <Gold.Id.Protein>
6NUR|6NUR_protein|mol2

> <Gold.PLP.Fitness>
38.3794

> <Gold.PLP.PLP>
-32.8887

> <Gold.PLP.part.hbond>
-3.0000

> <Gold.PLP.part.metal>
0.0000

> <Gold.PLP.part.buried>
-1.6728

> <Gold.PLP.part.nonpolar>
-28.4462

> <Gold.PLP.part.repulsive>
0.4512

> <Gold.PLP.ligand.clash>
0.0000

> <Gold.PLP.ligand.torsion>
0.2681

> <Gold.PLP.Chemscore.Hbond>
2.0000

> <Gold.PLP.Chemscore.CHOScore>
0.0000

> <Gold.PLP.Chemscore.Metal>
0.0000

> <Gold.Chemscore.Hbonds>
donor molecule, donor type, donor heavy atom, donor atom, acceptor molecule, acceptor atom, score
      L1  H    17    38       P1  7948  0.99
      P1  H  7989  7998       L1    19  1.00

> <Gold.PLP.Chemscore.Internal.Correction>
0.0270

> <Gold.Rescore>
     Score         DG    S(hbond)    S(metal)    S(lipo)     H(rot)  DE(clash)    DE(int)     intcor
     16.58     -16.98       1.76        0.00      80.63       1.49       0.13       0.26       ----

> <Gold.Chemscore.Fitness>
16.5850

> <Gold.Chemscore.DG>
-16.9808

> <Gold.Chemscore.ZeroCoef>
-5.4800

> <Gold.Chemscore.Hbond>
1.7648

> <Gold.Chemscore.Metal>
0.0000

> <Gold.Chemscore.Lipo>
80.6267

> <Gold.Chemscore.Internal_Hbond>
0.0000

> <Gold.Chemscore.DEClash>
0.1310

> <Gold.Chemscore.DEInternal>
0.2649

> <Gold.Chemscore.Rot>
1.4949

> <Gold.Chemscore.Internal.Correction>
   9.000000E+99

> <Gold.Chemscore.Hbonds>
donor molecule, donor type, donor heavy atom, donor atom, acceptor molecule, acceptor atom, score
      L1  H    17    38       P1  7948  0.87
      P1  H  7989  7998       L1    19  0.90

> <Gold.Chemscore.Hbond.Weighted>
-5.8944

> <Gold.Chemscore.Metal.Weighted>
-0.0000

> <Gold.Chemscore.Lipo.Weighted>
-9.4333

> <Gold.Chemscore.Internal_Hbond.Weighted>
0.0000

> <Gold.Chemscore.DEClash.Weighted>
0.1310

> <Gold.Chemscore.DEInternal.Weighted>
0.2649

> <Gold.Chemscore.Rot.Weighted>
3.8269

> <Gold.Chemscore.Internal.Correction.Weighted>
   9.000000E+99

> <Gold.Protein.RotatedTorsions>
[ 6907 6896 6895 6894 ] final  -56.30 input  -60.11 | X-H torsion
[ 7974 7965 7964 7962 ] final  128.06 input  175.53 | X-H torsion
[ 8008 7997 7996 7995 ] final  -71.25 input   59.86 | X-H torsion
[ 10167 10162 10161 10158 ] final -113.88 input  -65.29 | X-H torsion
[ 10718 10713 10712 10709 ] final  -35.74 input   66.30 | X-H torsion
[ 10763 10752 10751 10750 ] final  175.39 input  -60.55 | X-H torsion
[ 11005 11000 10999 10996 ] final  133.80 input  -57.11 | X-H torsion

> <Gold.Protein.ActiveResidues>
 VAL166  LYS551  ARG553  GLY616  TRP617  ASP618  TYR619  PRO620  LYS621  CYS622 
 ASP623  PHE694  ASN695  SER759  ASP760  ASP761  ALA762  ILE779  LEU786  VAL792 
 PHE793  MET794  SER795  GLU796  ALA797  LYS798  CYS799  TRP800  GLU811  SER814 

> <Gold.Protein.RotatedAtoms>
  150.8179  134.7372  159.6746 H   0  0  0  0  0  0  0  0  0  0  0  0  # atno 6907 bound_to 6896
  152.4297  134.5798  159.9954 H   0  0  0  0  0  0  0  0  0  0  0  0  # atno 6908 bound_to 6896
  151.5990  133.3321  159.3079 H   0  0  0  0  0  0  0  0  0  0  0  0  # atno 6909 bound_to 6896
  145.0437  139.3941  143.5089 H   0  0  0  0  0  0  0  0  0  0  0  0  # atno 7974 bound_to 7965
  154.5074  140.0819  156.7921 H   0  0  0  0  0  0  0  0  0  0  0  0  # atno 8008 bound_to 7997
  155.3863  140.3430  155.4231 H   0  0  0  0  0  0  0  0  0  0  0  0  # atno 8009 bound_to 7997
  156.1531  140.1565  156.8724 H   0  0  0  0  0  0  0  0  0  0  0  0  # atno 8010 bound_to 7997
  140.1070  143.4561  152.1776 H   0  0  0  0  0  0  0  0  0  0  0  0  # atno 10167 bound_to 10162
  156.3351  130.4285  149.7837 H   0  0  0  0  0  0  0  0  0  0  0  0  # atno 10718 bound_to 10713
  154.4669  135.2769  155.1671 H   0  0  0  0  0  0  0  0  0  0  0  0  # atno 10763 bound_to 10752
  154.3436  135.6165  153.5612 H   0  0  0  0  0  0  0  0  0  0  0  0  # atno 10764 bound_to 10752
  152.9860  135.5794  154.5042 H   0  0  0  0  0  0  0  0  0  0  0  0  # atno 10765 bound_to 10752
  139.9875  134.9527  156.9777 H   0  0  0  0  0  0  0  0  0  0  0  0  # atno 11005 bound_to 11000
  146.3512  140.0051  142.8672 LP  0  0  0  0  0  0  0  0  0  0  0  0  # atno 17320 bound_to 7965
  145.1615  140.9675  143.4374 LP  0  0  0  0  0  0  0  0  0  0  0  0  # atno 17321 bound_to 7965
  139.5640  144.7423  151.4075 LP  0  0  0  0  0  0  0  0  0  0  0  0  # atno 17342 bound_to 10162
  140.6946  143.7779  150.7307 LP  0  0  0  0  0  0  0  0  0  0  0  0  # atno 17343 bound_to 10162
  156.5095  130.8165  151.3163 LP  0  0  0  0  0  0  0  0  0  0  0  0  # atno 17370 bound_to 10713
  157.7437  130.9918  150.2615 LP  0  0  0  0  0  0  0  0  0  0  0  0  # atno 17371 bound_to 10713
  140.4974  134.1132  155.7244 LP  0  0  0  0  0  0  0  0  0  0  0  0  # atno 17394 bound_to 11000
  141.1537  133.8922  157.2033 LP  0  0  0  0  0  0  0  0  0  0  0  0  # atno 17395 bound_to 11000

$$$$
