AV-unprocessed.smi:1681|AV-procd|sdf|6742|dock4
  -GOLD-   22720 7493D 1   1.00000     0.00000
 Structure written by MMmdl.
 40 41  0  0  0  0  0  0  0  0  1 V2000
  151.0661  137.9105  154.6545 C   0  0  0  0  0  0  0  0  0  0  0  0
  150.7044  139.3806  154.8766 C   0  0  0  0  0  0  0  0  0  0  0  0
  151.6228  140.1977  154.9468 O   0  0  0  0  0  0  0  0  0  0  0  0
  149.4011  139.7322  154.9925 N   0  0  0  0  0  0  0  0  0  0  0  0
  148.9004  141.1063  155.1278 C   0  0  0  0  0  0  0  0  0  0  0  0
  148.2058  141.5088  153.8145 C   0  0  0  0  0  0  0  0  0  0  0  0
  147.0867  140.5124  153.4551 C   0  0  0  0  0  0  0  0  0  0  0  0
  147.5882  139.0491  153.4918 C   0  0  2  0  0  0  0  0  0  0  0  0
  146.4365  138.0603  153.2664 C   0  0  0  0  0  0  0  0  0  0  0  0
  145.4161  138.1433  153.9506 O   0  0  0  0  0  0  0  0  0  0  0  0
  146.6325  137.1395  152.3057 N   0  0  0  0  0  0  0  0  0  0  0  0
  145.7397  136.1195  151.8909 C   0  0  0  0  0  0  0  0  0  0  0  0
  144.5596  135.7460  152.5848 C   0  0  0  0  0  0  0  0  0  0  0  0
  143.9315  134.7588  151.9649 N   0  0  0  0  0  0  0  0  0  0  0  0
  144.6932  134.4850  150.8759 N   0  0  0  0  0  0  0  0  0  0  0  0
  144.2957  133.4238  149.9679 C   0  0  0  0  0  0  0  0  0  0  0  0
  145.1013  132.1468  150.2178 C   0  0  0  0  0  0  0  0  0  0  0  0
  146.4131  132.1920  149.9687 N   0  0  0  0  0  0  0  0  0  0  0  0
  144.5454  131.1293  150.6255 O   0  0  0  0  0  0  0  0  0  0  0  0
  145.8044  135.3019  150.7984 C   0  0  0  0  0  0  0  0  0  0  0  0
  148.3037  138.7697  154.8328 C   0  0  0  0  0  0  0  0  0  0  0  0
  150.6860  137.2908  155.4673 H   0  0  0  0  0  0  0  0  0  0  0  0
  152.1486  137.7826  154.6183 H   0  0  0  0  0  0  0  0  0  0  0  0
  150.6560  137.5503  153.7106 H   0  0  0  0  0  0  0  0  0  0  0  0
  148.1877  141.1476  155.9530 H   0  0  0  0  0  0  0  0  0  0  0  0
  149.6736  141.8314  155.3773 H   0  0  0  0  0  0  0  0  0  0  0  0
  147.7956  142.5155  153.8992 H   0  0  0  0  0  0  0  0  0  0  0  0
  148.9409  141.5400  153.0090 H   0  0  0  0  0  0  0  0  0  0  0  0
  146.2653  140.6423  154.1617 H   0  0  0  0  0  0  0  0  0  0  0  0
  146.6841  140.7503  152.4696 H   0  0  0  0  0  0  0  0  0  0  0  0
  148.3159  138.9204  152.6878 H   0  0  0  0  0  0  0  0  0  0  0  0
  147.5166  137.1747  151.8192 H   0  0  0  0  0  0  0  0  0  0  0  0
  144.1469  136.1475  153.4987 H   0  0  0  0  0  0  0  0  0  0  0  0
  143.2296  133.2254  150.0898 H   0  0  0  0  0  0  0  0  0  0  0  0
  144.4428  133.7617  148.9411 H   0  0  0  0  0  0  0  0  0  0  0  0
  146.9842  131.3720  150.1131 H   0  0  0  0  0  0  0  0  0  0  0  0
  146.8281  133.0480  149.6302 H   0  0  0  0  0  0  0  0  0  0  0  0
  146.5208  135.2194  149.9946 H   0  0  0  0  0  0  0  0  0  0  0  0
  148.6483  137.7348  154.8694 H   0  0  0  0  0  0  0  0  0  0  0  0
  147.6112  138.8785  155.6694 H   0  0  0  0  0  0  0  0  0  0  0  0
  1  2  1  0  0  0  0
  1 22  1  0  0  0  0
  1 23  1  0  0  0  0
  1 24  1  0  0  0  0
  2  3  2  0  0  0  0
  2  4  1  0  0  0  0
  4 21  1  0  0  0  0
  4  5  1  0  0  0  0
  5  6  1  0  0  0  0
  5 25  1  0  0  0  0
  5 26  1  0  0  0  0
  6  7  1  0  0  0  0
  6 27  1  0  0  0  0
  6 28  1  0  0  0  0
  7  8  1  0  0  0  0
  7 29  1  0  0  0  0
  7 30  1  0  0  0  0
  8  9  1  0  0  0  0
  8 21  1  0  0  0  0
  8 31  1  0  0  0  0
  9 10  2  0  0  0  0
  9 11  1  0  0  0  0
 11 12  1  0  0  0  0
 11 32  1  0  0  0  0
 12 20  2  0  0  0  0
 12 13  1  0  0  0  0
 13 14  2  0  0  0  0
 13 33  1  0  0  0  0
 14 15  1  0  0  0  0
 15 16  1  0  0  0  0
 15 20  1  0  0  0  0
 16 17  1  0  0  0  0
 16 34  1  0  0  0  0
 16 35  1  0  0  0  0
 17 18  1  0  0  0  0
 17 19  2  0  0  0  0
 18 36  1  0  0  0  0
 18 37  1  0  0  0  0
 20 38  1  0  0  0  0
 21 39  1  0  0  0  0
 21 40  1  0  0  0  0
M  END
> <s_m_source_file>
AV-unprocessed.smi

> <i_m_source_file_index>
1681

> <i_lp_mmshare_version>
43012

> <i_f3d_flags>
0

> <s_epik_input>
W0NIM11DKD1PKU4xW0NIMl1bQ0gyXVtDSDJdW0NASF0oW0NIMl0xKUMoPU8pW05IXWMyW2NIXW5uKFtjSF0yKVtDSDJdQyg9TylbTkgyXQ==

> <s_epik_cmdline>
J2VwaWtfcHl0aG9uJywgJy1waCcsICc3LjAnLCAnLXRuJywgJzgnLCAnLW1hJywgJzIwMCcsICctbWV0YWxfYmluZGluZycsICctaW1hZScsICc8aW5maWxlLm1hZT4nLCAnLW9tYWUnLCAnPG91dGZpbGUubWFlPic=

> <r_lp_tautomer_probability>
1

> <r_epik_Ionization_Penalty>
6.05275e-06

> <r_epik_Ionization_Penalty_Charging>
0

> <r_epik_Ionization_Penalty_Neutral>
6.05275e-06

> <r_epik_State_Penalty>
-0

> <r_epik_Charging_Adjusted_Penalty>
0

> <i_epik_Tot_Q>
0

> <i_epik_Tot_abs_Q>
0

> <r_epik_Metal_State_Penalty>
-0

> <b_epik_Metal_Only>
0

> <s_lp_Force_Field>
OPLS_2005

> <r_lp_Energy>
29.5866

> <b_lp_Chiralities_Consistent>
1

> <s_lp_Variant>
AV-unprocessed.smi:1681-2

> <Gold.Version>
5.8.1

> <Gold.Id.Protein>
6NUR|6NUR_protein|mol2

> <Gold.PLP.Fitness>
45.1896

> <Gold.PLP.PLP>
-35.7155

> <Gold.PLP.part.hbond>
-3.6196

> <Gold.PLP.part.metal>
0.0000

> <Gold.PLP.part.buried>
-3.8661

> <Gold.PLP.part.nonpolar>
-28.1524

> <Gold.PLP.part.repulsive>
0.6636

> <Gold.PLP.ligand.clash>
0.0000

> <Gold.PLP.ligand.torsion>
0.5061

> <Gold.PLP.Chemscore.Hbond>
2.4924

> <Gold.PLP.Chemscore.CHOScore>
0.9948

> <Gold.PLP.Chemscore.Metal>
0.0000

> <Gold.Chemscore.Hbonds>
donor molecule, donor type, donor heavy atom, donor atom, acceptor molecule, acceptor atom, score
      L1  H    11    32       P1  7948  0.72
      L1  H    18    36       P1 10747  0.74
      P1  H  7989  7998       L1     3  0.99
      L1  C    20    38       P1  7921  1.00

> <Gold.PLP.Chemscore.Internal.Correction>
0.0248

> <Gold.Rescore>
     Score         DG    S(hbond)    S(metal)    S(lipo)     H(rot)  DE(clash)    DE(int)     intcor
     13.34     -15.16       2.45        0.00      55.84       1.96       0.06       1.76       ----

> <Gold.Chemscore.Fitness>
13.3424

> <Gold.Chemscore.DG>
-15.1628

> <Gold.Chemscore.ZeroCoef>
-5.4800

> <Gold.Chemscore.Hbond>
2.4466

> <Gold.Chemscore.Metal>
0.0000

> <Gold.Chemscore.Lipo>
55.8380

> <Gold.Chemscore.Internal_Hbond>
0.0000

> <Gold.Chemscore.DEClash>
0.0580

> <Gold.Chemscore.DEInternal>
1.7623

> <Gold.Chemscore.Rot>
1.9617

> <Gold.Chemscore.Internal.Correction>
   9.000000E+99

> <Gold.Chemscore.Hbonds>
donor molecule, donor type, donor heavy atom, donor atom, acceptor molecule, acceptor atom, score
      L1  H    11    32       P1  7948  0.72
      L1  H    18    36       P1 10747  0.72
      P1  H  7989  7998       L1     3  0.41

> <Gold.Chemscore.Hbond.Weighted>
-8.1718

> <Gold.Chemscore.Metal.Weighted>
-0.0000

> <Gold.Chemscore.Lipo.Weighted>
-6.5330

> <Gold.Chemscore.Internal_Hbond.Weighted>
0.0000

> <Gold.Chemscore.DEClash.Weighted>
0.0580

> <Gold.Chemscore.DEInternal.Weighted>
1.7623

> <Gold.Chemscore.Rot.Weighted>
5.0220

> <Gold.Chemscore.Internal.Correction.Weighted>
   9.000000E+99

> <Gold.Protein.RotatedTorsions>
[ 6907 6896 6895 6894 ] final  141.86 input  -60.11 | X-H torsion
[ 7974 7965 7964 7962 ] final -174.06 input  175.53 | X-H torsion
[ 8008 7997 7996 7995 ] final -154.44 input   59.86 | X-H torsion
[ 10167 10162 10161 10158 ] final   61.69 input  -65.29 | X-H torsion
[ 10718 10713 10712 10709 ] final  119.87 input   66.30 | X-H torsion
[ 10763 10752 10751 10750 ] final  -58.05 input  -60.55 | X-H torsion
[ 11005 11000 10999 10996 ] final -142.63 input  -57.11 | X-H torsion

> <Gold.Protein.ActiveResidues>
 VAL166  LYS551  ARG553  GLY616  TRP617  ASP618  TYR619  PRO620  LYS621  CYS622 
 ASP623  PHE694  ASN695  SER759  ASP760  ASP761  ALA762  ILE779  LEU786  VAL792 
 PHE793  MET794  SER795  GLU796  ALA797  LYS798  CYS799  TRP800  GLU811  SER814 

> <Gold.Protein.RotatedAtoms>
  152.2258  133.5019  159.5187 H   0  0  0  0  0  0  0  0  0  0  0  0  # atno 6907 bound_to 6896
  150.7024  134.1282  159.4069 H   0  0  0  0  0  0  0  0  0  0  0  0  # atno 6908 bound_to 6896
  151.9203  135.0301  160.0572 H   0  0  0  0  0  0  0  0  0  0  0  0  # atno 6909 bound_to 6896
  144.7134  140.1528  143.6383 H   0  0  0  0  0  0  0  0  0  0  0  0  # atno 7974 bound_to 7965
  155.6863  140.0750  157.2465 H   0  0  0  0  0  0  0  0  0  0  0  0  # atno 8008 bound_to 7997
  154.4096  140.1672  156.2090 H   0  0  0  0  0  0  0  0  0  0  0  0  # atno 8009 bound_to 7997
  155.9491  140.3378  155.6395 H   0  0  0  0  0  0  0  0  0  0  0  0  # atno 8010 bound_to 7997
  140.1520  144.4453  150.6754 H   0  0  0  0  0  0  0  0  0  0  0  0  # atno 10167 bound_to 10162
  157.5931  131.1061  150.7957 H   0  0  0  0  0  0  0  0  0  0  0  0  # atno 10718 bound_to 10713
  154.2320  135.6359  153.5178 H   0  0  0  0  0  0  0  0  0  0  0  0  # atno 10763 bound_to 10752
  152.9947  135.5521  154.6002 H   0  0  0  0  0  0  0  0  0  0  0  0  # atno 10764 bound_to 10752
  154.5488  135.2900  155.1002 H   0  0  0  0  0  0  0  0  0  0  0  0  # atno 10765 bound_to 10752
  140.8206  134.2636  157.4902 H   0  0  0  0  0  0  0  0  0  0  0  0  # atno 11005 bound_to 11000
  145.9101  139.2482  143.1443 LP  0  0  0  0  0  0  0  0  0  0  0  0  # atno 17320 bound_to 7965
  145.9725  140.8749  143.0155 LP  0  0  0  0  0  0  0  0  0  0  0  0  # atno 17321 bound_to 7965
  140.6696  143.2281  151.5658 LP  0  0  0  0  0  0  0  0  0  0  0  0  # atno 17342 bound_to 10162
  139.5421  144.2619  152.1371 LP  0  0  0  0  0  0  0  0  0  0  0  0  # atno 17343 bound_to 10162
  156.8374  130.5036  149.5325 LP  0  0  0  0  0  0  0  0  0  0  0  0  # atno 17370 bound_to 10713
  156.0989  130.5953  150.9860 LP  0  0  0  0  0  0  0  0  0  0  0  0  # atno 17371 bound_to 10713
  139.8709  134.9533  156.4141 LP  0  0  0  0  0  0  0  0  0  0  0  0  # atno 17394 bound_to 11000
  140.9103  133.7716  155.9784 LP  0  0  0  0  0  0  0  0  0  0  0  0  # atno 17395 bound_to 11000

$$$$
