AV-unprocessed.smi:2960|AV-procd|sdf|11311|dock9
  -GOLD-   2272016213D 1   1.00000     0.00000
 Structure written by MMmdl.
 48 50  0  0  0  0  0  0  0  0  1 V2000
  154.7776  135.9406  159.5821 C   0  0  0  0  0  0  0  0  0  0  0  0
  154.3307  136.4056  158.2009 C   0  0  0  0  0  0  0  0  0  0  0  0
  154.9253  136.0185  157.1955 O   0  0  0  0  0  0  0  0  0  0  0  0
  153.2871  137.2469  158.1676 N   0  0  0  0  0  0  0  0  0  0  0  0
  152.7077  137.8141  156.9541 C   0  0  0  0  0  0  0  0  0  0  0  0
  151.4239  138.6226  157.2241 C   0  0  0  0  0  0  0  0  0  0  0  0
  151.6770  139.9892  157.7959 C   0  0  0  0  0  0  0  0  0  0  0  0
  152.2851  140.1442  158.9729 N   0  0  0  0  0  0  0  0  0  0  0  0
  152.3118  141.5162  159.1258 C   0  0  0  0  0  0  0  0  0  0  0  0
  152.8272  142.3134  160.1728 C   0  0  0  0  0  0  0  0  0  0  0  0
  152.7344  143.7193  160.1114 C   0  0  0  0  0  0  0  0  0  0  0  0
  152.1253  144.3466  159.0053 C   0  0  0  0  0  0  0  0  0  0  0  0
  151.6071  143.5707  157.9509 C   0  0  0  0  0  0  0  0  0  0  0  0
  151.7046  142.1674  158.0155 C   0  0  0  0  0  0  0  0  0  0  0  0
  151.3057  141.1362  157.1700 N   0  0  0  0  0  0  0  0  0  0  0  0
  150.6213  141.2978  155.8947 C   0  0  0  0  0  0  0  0  0  0  0  0
  149.1147  141.0271  156.0086 C   0  0  0  0  0  0  0  0  0  0  0  0
  148.4903  141.3053  154.7621 O   0  0  0  0  0  0  0  0  0  0  0  0
  147.2958  141.9917  154.7682 C   0  0  0  0  0  0  0  0  0  0  0  0
  146.5003  141.8792  155.9268 C   0  0  0  0  0  0  0  0  0  0  0  0
  145.2649  142.5480  156.0211 C   0  0  0  0  0  0  0  0  0  0  0  0
  144.8078  143.3426  154.9515 C   0  0  0  0  0  0  0  0  0  0  0  0
  143.4797  144.0633  155.0587 C   0  0  0  0  0  0  0  0  0  0  0  0
  145.5955  143.4637  153.7892 C   0  0  0  0  0  0  0  0  0  0  0  0
  146.8308  142.7936  153.6954 C   0  0  0  0  0  0  0  0  0  0  0  0
  153.9485  135.4743  160.1152 H   0  0  0  0  0  0  0  0  0  0  0  0
  155.1350  136.7873  160.1688 H   0  0  0  0  0  0  0  0  0  0  0  0
  155.5859  135.2128  159.5037 H   0  0  0  0  0  0  0  0  0  0  0  0
  152.8632  137.5146  159.0443 H   0  0  0  0  0  0  0  0  0  0  0  0
  153.4419  138.4331  156.4363 H   0  0  0  0  0  0  0  0  0  0  0  0
  152.4798  136.9861  156.2822 H   0  0  0  0  0  0  0  0  0  0  0  0
  150.8350  138.6950  156.3111 H   0  0  0  0  0  0  0  0  0  0  0  0
  150.7981  138.0728  157.9278 H   0  0  0  0  0  0  0  0  0  0  0  0
  153.2935  141.8424  161.0254 H   0  0  0  0  0  0  0  0  0  0  0  0
  153.1309  144.3189  160.9177 H   0  0  0  0  0  0  0  0  0  0  0  0
  152.0557  145.4238  158.9668 H   0  0  0  0  0  0  0  0  0  0  0  0
  151.1372  144.0485  157.1041 H   0  0  0  0  0  0  0  0  0  0  0  0
  150.7875  142.3145  155.5383 H   0  0  0  0  0  0  0  0  0  0  0  0
  151.0722  140.6432  155.1513 H   0  0  0  0  0  0  0  0  0  0  0  0
  148.9548  139.9847  156.2877 H   0  0  0  0  0  0  0  0  0  0  0  0
  148.6857  141.6550  156.7908 H   0  0  0  0  0  0  0  0  0  0  0  0
  146.8411  141.2718  156.7527 H   0  0  0  0  0  0  0  0  0  0  0  0
  144.6694  142.4498  156.9170 H   0  0  0  0  0  0  0  0  0  0  0  0
  143.1841  144.4961  154.1025 H   0  0  0  0  0  0  0  0  0  0  0  0
  143.5463  144.8675  155.7919 H   0  0  0  0  0  0  0  0  0  0  0  0
  142.6969  143.3734  155.3750 H   0  0  0  0  0  0  0  0  0  0  0  0
  145.2568  144.0721  152.9633 H   0  0  0  0  0  0  0  0  0  0  0  0
  147.4048  142.9133  152.7892 H   0  0  0  0  0  0  0  0  0  0  0  0
  1  2  1  0  0  0  0
  1 26  1  0  0  0  0
  1 27  1  0  0  0  0
  1 28  1  0  0  0  0
  2  3  2  0  0  0  0
  2  4  1  0  0  0  0
  4  5  1  0  0  0  0
  4 29  1  0  0  0  0
  5  6  1  0  0  0  0
  5 30  1  0  0  0  0
  5 31  1  0  0  0  0
  6  7  1  0  0  0  0
  6 32  1  0  0  0  0
  6 33  1  0  0  0  0
  7 15  1  0  0  0  0
  7  8  2  0  0  0  0
  8  9  1  0  0  0  0
  9 14  2  0  0  0  0
  9 10  1  0  0  0  0
 10 11  2  0  0  0  0
 10 34  1  0  0  0  0
 11 12  1  0  0  0  0
 11 35  1  0  0  0  0
 12 13  2  0  0  0  0
 12 36  1  0  0  0  0
 13 14  1  0  0  0  0
 13 37  1  0  0  0  0
 14 15  1  0  0  0  0
 15 16  1  0  0  0  0
 16 17  1  0  0  0  0
 16 38  1  0  0  0  0
 16 39  1  0  0  0  0
 17 18  1  0  0  0  0
 17 40  1  0  0  0  0
 17 41  1  0  0  0  0
 18 19  1  0  0  0  0
 19 25  1  0  0  0  0
 19 20  2  0  0  0  0
 20 21  1  0  0  0  0
 20 42  1  0  0  0  0
 21 22  2  0  0  0  0
 21 43  1  0  0  0  0
 22 23  1  0  0  0  0
 22 24  1  0  0  0  0
 23 44  1  0  0  0  0
 23 45  1  0  0  0  0
 23 46  1  0  0  0  0
 24 25  2  0  0  0  0
 24 47  1  0  0  0  0
 25 48  1  0  0  0  0
M  END
> <s_m_source_file>
AV-unprocessed.smi

> <i_m_source_file_index>
2960

> <i_lp_mmshare_version>
43012

> <i_f3d_flags>
0

> <s_epik_input>
W0NIM11DKD1PKVtOSF1bQ0gyXVtDSDJdYyhuMSluKGMoYzEyKVtjSF1bY0hdW2NIXVtjSF0yKVtDSDJdW0NIMl1PYzNbY0hdW2NIXWMoW0NIM10pW2NIXVtjSF0z

> <s_epik_cmdline>
J2VwaWtfcHl0aG9uJywgJy1waCcsICc3LjAnLCAnLXRuJywgJzgnLCAnLW1hJywgJzIwMCcsICctbWV0YWxfYmluZGluZycsICctaW1hZScsICc8aW5maWxlLm1hZT4nLCAnLW9tYWUnLCAnPG91dGZpbGUubWFlPic=

> <r_lp_tautomer_probability>
1

> <r_epik_Ionization_Penalty>
0.0990099

> <r_epik_Ionization_Penalty_Charging>
0

> <r_epik_Ionization_Penalty_Neutral>
0.0990099

> <r_epik_State_Penalty>
0.0890759

> <r_epik_Charging_Adjusted_Penalty>
0.0890759

> <i_epik_Tot_Q>
0

> <i_epik_Tot_abs_Q>
0

> <r_epik_Metal_State_Penalty>
0.0762215

> <b_epik_Metal_Only>
0

> <s_lp_Force_Field>
OPLS_2005

> <r_lp_Energy>
13.2598

> <b_lp_Chiralities_Consistent>
1

> <s_lp_Variant>
AV-unprocessed.smi:2960-1

> <Gold.Version>
5.8.1

> <Gold.Id.Protein>
6NUR|6NUR_protein|mol2

> <Gold.PLP.Fitness>
47.3853

> <Gold.PLP.PLP>
-46.3090

> <Gold.PLP.part.hbond>
-1.0000

> <Gold.PLP.part.metal>
0.0000

> <Gold.PLP.part.buried>
-7.2570

> <Gold.PLP.part.nonpolar>
-38.0953

> <Gold.PLP.part.repulsive>
0.2643

> <Gold.PLP.ligand.clash>
0.0000

> <Gold.PLP.ligand.torsion>
1.0177

> <Gold.PLP.Chemscore.Hbond>
1.0000

> <Gold.PLP.Chemscore.CHOScore>
0.0000

> <Gold.PLP.Chemscore.Metal>
0.0000

> <Gold.Chemscore.Hbonds>
donor molecule, donor type, donor heavy atom, donor atom, acceptor molecule, acceptor atom, score
      P1  H 10752 10765       L1     3  0.84

> <Gold.PLP.Chemscore.Internal.Correction>
0.1118

> <Gold.Rescore>
     Score         DG    S(hbond)    S(metal)    S(lipo)     H(rot)  DE(clash)    DE(int)     intcor
     16.55     -17.67       1.00        0.00     121.81       2.11       0.19       0.93       ----

> <Gold.Chemscore.Fitness>
16.5487

> <Gold.Chemscore.DG>
-17.6684

> <Gold.Chemscore.ZeroCoef>
-5.4800

> <Gold.Chemscore.Hbond>
0.9978

> <Gold.Chemscore.Metal>
0.0000

> <Gold.Chemscore.Lipo>
121.8109

> <Gold.Chemscore.Internal_Hbond>
0.0000

> <Gold.Chemscore.DEClash>
0.1917

> <Gold.Chemscore.DEInternal>
0.9280

> <Gold.Chemscore.Rot>
2.1078

> <Gold.Chemscore.Internal.Correction>
   9.000000E+99

> <Gold.Chemscore.Hbonds>
donor molecule, donor type, donor heavy atom, donor atom, acceptor molecule, acceptor atom, score
      P1  H 10752 10765       L1     3  0.84

> <Gold.Chemscore.Hbond.Weighted>
-3.3326

> <Gold.Chemscore.Metal.Weighted>
-0.0000

> <Gold.Chemscore.Lipo.Weighted>
-14.2519

> <Gold.Chemscore.Internal_Hbond.Weighted>
0.0000

> <Gold.Chemscore.DEClash.Weighted>
0.1917

> <Gold.Chemscore.DEInternal.Weighted>
0.9280

> <Gold.Chemscore.Rot.Weighted>
5.3961

> <Gold.Chemscore.Internal.Correction.Weighted>
   9.000000E+99

> <Gold.Protein.RotatedTorsions>
[ 6907 6896 6895 6894 ] final  -55.70 input  -60.11 | X-H torsion
[ 7974 7965 7964 7962 ] final   35.54 input  175.53 | X-H torsion
[ 8008 7997 7996 7995 ] final  123.69 input   59.86 | X-H torsion
[ 10167 10162 10161 10158 ] final    6.69 input  -65.29 | X-H torsion
[ 10718 10713 10712 10709 ] final  115.75 input   66.30 | X-H torsion
[ 10763 10752 10751 10750 ] final  -80.92 input  -60.55 | X-H torsion
[ 11005 11000 10999 10996 ] final  -51.44 input  -57.11 | X-H torsion

> <Gold.Protein.ActiveResidues>
 VAL166  LYS551  ARG553  GLY616  TRP617  ASP618  TYR619  PRO620  LYS621  CYS622 
 ASP623  PHE694  ASN695  SER759  ASP760  ASP761  ALA762  ILE779  LEU786  VAL792 
 PHE793  MET794  SER795  GLU796  ALA797  LYS798  CYS799  TRP800  GLU811  SER814 

> <Gold.Protein.RotatedAtoms>
  150.8229  134.7446  159.6787 H   0  0  0  0  0  0  0  0  0  0  0  0  # atno 6907 bound_to 6896
  152.4343  134.5714  159.9932 H   0  0  0  0  0  0  0  0  0  0  0  0  # atno 6908 bound_to 6896
  151.5893  133.3331  159.3060 H   0  0  0  0  0  0  0  0  0  0  0  0  # atno 6909 bound_to 6896
  146.1276  139.6130  142.9248 H   0  0  0  0  0  0  0  0  0  0  0  0  # atno 7974 bound_to 7965
  156.2775  140.2757  156.1668 H   0  0  0  0  0  0  0  0  0  0  0  0  # atno 8008 bound_to 7997
  155.0696  140.0387  157.2622 H   0  0  0  0  0  0  0  0  0  0  0  0  # atno 8009 bound_to 7997
  154.7051  140.2657  155.6688 H   0  0  0  0  0  0  0  0  0  0  0  0  # atno 8010 bound_to 7997
  140.6413  143.7766  150.7433 H   0  0  0  0  0  0  0  0  0  0  0  0  # atno 10167 bound_to 10162
  157.6203  131.1016  150.7375 H   0  0  0  0  0  0  0  0  0  0  0  0  # atno 10718 bound_to 10713
  154.5572  135.5644  153.6975 H   0  0  0  0  0  0  0  0  0  0  0  0  # atno 10763 bound_to 10752
  153.0007  135.6265  154.2294 H   0  0  0  0  0  0  0  0  0  0  0  0  # atno 10764 bound_to 10752
  154.2230  135.2869  155.2897 H   0  0  0  0  0  0  0  0  0  0  0  0  # atno 10765 bound_to 10752
  141.0871  133.6640  156.3877 H   0  0  0  0  0  0  0  0  0  0  0  0  # atno 11005 bound_to 11000
  145.5332  141.0426  143.2371 LP  0  0  0  0  0  0  0  0  0  0  0  0  # atno 17320 bound_to 7965
  144.7658  139.6850  143.7215 LP  0  0  0  0  0  0  0  0  0  0  0  0  # atno 17321 bound_to 7965
  140.1398  143.4451  152.2201 LP  0  0  0  0  0  0  0  0  0  0  0  0  # atno 17342 bound_to 10162
  139.5623  144.7413  151.4121 LP  0  0  0  0  0  0  0  0  0  0  0  0  # atno 17343 bound_to 10162
  156.7734  130.4836  149.5414 LP  0  0  0  0  0  0  0  0  0  0  0  0  # atno 17370 bound_to 10713
  156.1344  130.6201  151.0380 LP  0  0  0  0  0  0  0  0  0  0  0  0  # atno 17371 bound_to 10713
  140.5338  134.6187  157.5358 LP  0  0  0  0  0  0  0  0  0  0  0  0  # atno 17394 bound_to 11000
  139.9691  134.7323  156.0078 LP  0  0  0  0  0  0  0  0  0  0  0  0  # atno 17395 bound_to 11000

$$$$
