AV-unprocessed.smi:281|AV-procd|sdf|2113|dock9
  -GOLD-   2262021413D 1   1.00000     0.00000
 Structure written by MMmdl.
 55 59  0  0  0  0  0  0  0  0  1 V2000
  152.1717  139.0454  155.0822 C   0  0  0  0  0  0  0  0  0  0  0  0
  150.6491  139.0423  155.2483 C   0  0  2  0  0  0  0  0  0  0  0  0
  150.0103  137.7523  154.7110 C   0  0  0  0  0  0  0  0  0  0  0  0
  148.5602  137.8513  154.8148 N   0  0  0  0  0  0  0  0  0  0  0  0
  147.8197  136.7198  154.7098 C   0  0  0  0  0  0  0  0  0  0  0  0
  148.0552  135.6721  155.5440 N   0  0  0  0  0  0  0  0  0  0  0  0
  147.3338  134.5520  155.4402 C   0  0  0  0  0  0  0  0  0  0  0  0
  146.3422  134.2731  154.5919 N   0  0  0  0  0  0  0  0  0  0  0  0
  146.0930  135.3241  153.7593 C   0  0  0  0  0  0  0  0  0  0  0  0
  146.7798  136.5712  153.7492 C   0  0  0  0  0  0  0  0  0  0  0  0
  146.2452  137.3970  152.7675 N   0  0  0  0  0  0  0  0  0  0  0  0
  145.3059  136.6754  152.2203 C   0  0  0  0  0  0  0  0  0  0  0  0
  145.1378  135.4204  152.7616 N   0  0  0  0  0  0  0  0  0  0  0  0
  144.1687  134.4162  152.3482 C   0  0  0  0  0  0  0  0  0  0  0  0
  144.4614  133.8042  150.9568 C   0  0  1  0  0  0  0  0  0  0  0  0
  144.2492  134.7950  149.9674 O   0  0  0  0  0  0  0  0  0  0  0  0
  145.8953  133.2830  150.8387 C   0  0  0  0  0  0  0  0  0  0  0  0
  145.7265  131.7685  150.8304 C   0  0  0  0  0  0  0  0  0  0  0  0
  144.5082  131.5973  150.1292 O   0  0  0  0  0  0  0  0  0  0  0  0
  143.6000  132.5673  150.6304 C   0  0  0  0  0  0  0  0  0  0  0  0
  148.0220  139.0177  154.1263 C   0  0  0  0  0  0  0  0  0  0  0  0
  148.7011  140.3172  154.6240 C   0  0  1  0  0  0  0  0  0  0  0  0
  148.2889  141.4966  153.7580 C   0  0  0  0  0  0  0  0  0  0  0  0
  146.9468  141.9058  154.3564 C   0  0  0  0  0  0  0  0  0  0  0  0
  147.0068  141.5412  155.7317 O   0  0  0  0  0  0  0  0  0  0  0  0
  148.1811  140.7786  156.0050 C   0  0  2  0  0  0  0  0  0  0  0  0
  149.1259  141.7192  156.7778 C   0  0  0  0  0  0  0  0  0  0  0  0
  150.1235  140.1712  154.5469 O   0  0  0  0  0  0  0  0  0  0  0  0
  152.6260  138.2090  155.6136 H   0  0  0  0  0  0  0  0  0  0  0  0
  152.6039  139.9648  155.4779 H   0  0  0  0  0  0  0  0  0  0  0  0
  152.4546  138.9692  154.0319 H   0  0  0  0  0  0  0  0  0  0  0  0
  150.4200  139.1291  156.3103 H   0  0  0  0  0  0  0  0  0  0  0  0
  150.2915  137.5928  153.6689 H   0  0  0  0  0  0  0  0  0  0  0  0
  150.3726  136.8969  155.2833 H   0  0  0  0  0  0  0  0  0  0  0  0
  147.5873  133.7665  156.1368 H   0  0  0  0  0  0  0  0  0  0  0  0
  144.7008  137.0445  151.4050 H   0  0  0  0  0  0  0  0  0  0  0  0
  144.1443  133.6338  153.1081 H   0  0  0  0  0  0  0  0  0  0  0  0
  143.1782  134.8732  152.3520 H   0  0  0  0  0  0  0  0  0  0  0  0
  144.8054  134.6016  149.2281 H   0  0  0  0  0  0  0  0  0  0  0  0
  146.3497  133.5938  149.8965 H   0  0  0  0  0  0  0  0  0  0  0  0
  146.5496  133.6214  151.6427 H   0  0  0  0  0  0  0  0  0  0  0  0
  146.5529  131.2540  150.3396 H   0  0  0  0  0  0  0  0  0  0  0  0
  145.6275  131.3788  151.8451 H   0  0  0  0  0  0  0  0  0  0  0  0
  143.1458  132.1542  151.5316 H   0  0  0  0  0  0  0  0  0  0  0  0
  142.7970  132.7675  149.9198 H   0  0  0  0  0  0  0  0  0  0  0  0
  148.2074  138.8898  153.0587 H   0  0  0  0  0  0  0  0  0  0  0  0
  146.9416  139.0896  154.2433 H   0  0  0  0  0  0  0  0  0  0  0  0
  149.0026  142.3140  153.8691 H   0  0  0  0  0  0  0  0  0  0  0  0
  148.2271  141.2600  152.6954 H   0  0  0  0  0  0  0  0  0  0  0  0
  146.7485  142.9712  154.2371 H   0  0  0  0  0  0  0  0  0  0  0  0
  146.1312  141.3565  153.8853 H   0  0  0  0  0  0  0  0  0  0  0  0
  147.9297  139.9281  156.6399 H   0  0  0  0  0  0  0  0  0  0  0  0
  150.0580  141.2290  157.0542 H   0  0  0  0  0  0  0  0  0  0  0  0
  148.6555  142.0586  157.7006 H   0  0  0  0  0  0  0  0  0  0  0  0
  149.3794  142.6056  156.1967 H   0  0  0  0  0  0  0  0  0  0  0  0
  1  2  1  0  0  0  0
  1 29  1  0  0  0  0
  1 30  1  0  0  0  0
  1 31  1  0  0  0  0
  2 28  1  0  0  0  0
  2  3  1  0  0  0  0
  2 32  1  0  0  0  0
  3  4  1  0  0  0  0
  3 33  1  0  0  0  0
  3 34  1  0  0  0  0
  4  5  1  0  0  0  0
  4 21  1  0  0  0  0
  5 10  1  0  0  0  0
  5  6  2  0  0  0  0
  6  7  1  0  0  0  0
  7  8  2  0  0  0  0
  7 35  1  0  0  0  0
  8  9  1  0  0  0  0
  9 13  1  0  0  0  0
  9 10  2  0  0  0  0
 10 11  1  0  0  0  0
 11 12  2  0  0  0  0
 12 13  1  0  0  0  0
 12 36  1  0  0  0  0
 13 14  1  0  0  0  0
 14 15  1  0  0  0  0
 14 37  1  0  0  0  0
 14 38  1  0  0  0  0
 15 20  1  0  0  0  0
 15 16  1  0  0  0  0
 15 17  1  0  0  0  0
 16 39  1  0  0  0  0
 17 18  1  0  0  0  0
 17 40  1  0  0  0  0
 17 41  1  0  0  0  0
 18 19  1  0  0  0  0
 18 42  1  0  0  0  0
 18 43  1  0  0  0  0
 19 20  1  0  0  0  0
 20 44  1  0  0  0  0
 20 45  1  0  0  0  0
 21 22  1  0  0  0  0
 21 46  1  0  0  0  0
 21 47  1  0  0  0  0
 22 26  1  0  0  0  0
 22 23  1  0  0  0  0
 22 28  1  0  0  0  0
 23 24  1  0  0  0  0
 23 48  1  0  0  0  0
 23 49  1  0  0  0  0
 24 25  1  0  0  0  0
 24 50  1  0  0  0  0
 24 51  1  0  0  0  0
 25 26  1  0  0  0  0
 26 27  1  0  0  0  0
 26 52  1  0  0  0  0
 27 53  1  0  0  0  0
 27 54  1  0  0  0  0
 27 55  1  0  0  0  0
M  END
> <s_m_source_file>
AV-unprocessed.smi

> <i_m_source_file_index>
281

> <i_lp_mmshare_version>
43012

> <i_f3d_flags>
0

> <s_epik_input>
W0NIM11bQ0BASF0xT1tDSDJdW0NIMl1bQ0BAXTEyW0NIMl1OKFtDSDJdW0NASF0oTzIpW0NIM10pYyhuW2NIXW4zKWMoYzM0KW5bY0hdbjRbQ0gyXVtDQEBdNShbT0hdKVtDSDJdW0NIMl1PW0NIMl01

> <s_epik_cmdline>
J2VwaWtfcHl0aG9uJywgJy1waCcsICc3LjAnLCAnLXRuJywgJzgnLCAnLW1hJywgJzIwMCcsICctbWV0YWxfYmluZGluZycsICctaW1hZScsICc8aW5maWxlLm1hZT4nLCAnLW9tYWUnLCAnPG91dGZpbGUubWFlPic=

> <r_lp_tautomer_probability>
1

> <r_epik_Ionization_Penalty>
0.00571331

> <r_epik_Ionization_Penalty_Charging>
0

> <r_epik_Ionization_Penalty_Neutral>
0.00571331

> <r_epik_State_Penalty>
0.00399586

> <r_epik_Charging_Adjusted_Penalty>
0.00399586

> <i_epik_Tot_Q>
0

> <i_epik_Tot_abs_Q>
0

> <r_epik_Metal_State_Penalty>
-0

> <b_epik_Metal_Only>
0

> <s_lp_Force_Field>
OPLS_2005

> <r_lp_Energy>
53.7875

> <b_lp_Chiralities_Consistent>
1

> <s_lp_Variant>
AV-unprocessed.smi:281-13

> <Gold.Version>
5.8.1

> <Gold.Id.Protein>
6NUR|6NUR_protein|mol2

> <Gold.PLP.Fitness>
44.9110

> <Gold.PLP.PLP>
-35.8235

> <Gold.PLP.part.hbond>
-3.2771

> <Gold.PLP.part.metal>
0.0000

> <Gold.PLP.part.buried>
-1.7385

> <Gold.PLP.part.nonpolar>
-31.9891

> <Gold.PLP.part.repulsive>
0.8641

> <Gold.PLP.ligand.clash>
0.0000

> <Gold.PLP.ligand.torsion>
0.3556

> <Gold.PLP.Chemscore.Hbond>
2.1539

> <Gold.PLP.Chemscore.CHOScore>
1.0000

> <Gold.PLP.Chemscore.Metal>
0.0000

> <Gold.Chemscore.Hbonds>
donor molecule, donor type, donor heavy atom, donor atom, acceptor molecule, acceptor atom, score
      L1  H    16    39       P1  7921  0.86
      P1  H  7989  7998       L1    28  1.00
      P1  H 10785 10796       L1    19  0.06
      L1  C    12    36       P1 10171  1.00

> <Gold.PLP.Chemscore.Internal.Correction>
0.3369

> <Gold.Rescore>
     Score         DG    S(hbond)    S(metal)    S(lipo)     H(rot)  DE(clash)    DE(int)     intcor
     12.27     -17.29       1.97        0.00      90.43       2.09       3.14       1.88       ----

> <Gold.Chemscore.Fitness>
12.2715

> <Gold.Chemscore.DG>
-17.2914

> <Gold.Chemscore.ZeroCoef>
-5.4800

> <Gold.Chemscore.Hbond>
1.9727

> <Gold.Chemscore.Metal>
0.0000

> <Gold.Chemscore.Lipo>
90.4262

> <Gold.Chemscore.Internal_Hbond>
0.0000

> <Gold.Chemscore.DEClash>
3.1365

> <Gold.Chemscore.DEInternal>
1.8834

> <Gold.Chemscore.Rot>
2.0927

> <Gold.Chemscore.Internal.Correction>
   9.000000E+99

> <Gold.Chemscore.Hbonds>
donor molecule, donor type, donor heavy atom, donor atom, acceptor molecule, acceptor atom, score
      L1  H    16    39       P1  7921  0.84
      P1  H  7989  7998       L1    28  0.53
      P1  H 10785 10796       L1    19  0.04

> <Gold.Chemscore.Hbond.Weighted>
-6.5889

> <Gold.Chemscore.Metal.Weighted>
-0.0000

> <Gold.Chemscore.Lipo.Weighted>
-10.5799

> <Gold.Chemscore.Internal_Hbond.Weighted>
0.0000

> <Gold.Chemscore.DEClash.Weighted>
3.1365

> <Gold.Chemscore.DEInternal.Weighted>
1.8834

> <Gold.Chemscore.Rot.Weighted>
5.3573

> <Gold.Chemscore.Internal.Correction.Weighted>
   9.000000E+99

> <Gold.Protein.RotatedTorsions>
[ 6907 6896 6895 6894 ] final  174.09 input  -60.11 | X-H torsion
[ 7974 7965 7964 7962 ] final  -81.42 input  175.53 | X-H torsion
[ 8008 7997 7996 7995 ] final  -85.33 input   59.86 | X-H torsion
[ 10167 10162 10161 10158 ] final  -78.60 input  -65.29 | X-H torsion
[ 10718 10713 10712 10709 ] final  -82.87 input   66.30 | X-H torsion
[ 10763 10752 10751 10750 ] final   36.91 input  -60.55 | X-H torsion
[ 11005 11000 10999 10996 ] final  113.34 input  -57.11 | X-H torsion

> <Gold.Protein.ActiveResidues>
 VAL166  LYS551  ARG553  GLY616  TRP617  ASP618  TYR619  PRO620  LYS621  CYS622 
 ASP623  PHE694  ASN695  SER759  ASP760  ASP761  ALA762  ILE779  LEU786  VAL792 
 PHE793  MET794  SER795  GLU796  ALA797  LYS798  CYS799  TRP800  GLU811  SER814 

> <Gold.Protein.RotatedAtoms>
  151.7579  133.3331  159.3409 H   0  0  0  0  0  0  0  0  0  0  0  0  # atno 6907 bound_to 6896
  150.7509  134.6132  159.6107 H   0  0  0  0  0  0  0  0  0  0  0  0  # atno 6908 bound_to 6896
  152.3425  134.7117  160.0311 H   0  0  0  0  0  0  0  0  0  0  0  0  # atno 6909 bound_to 6896
  145.5469  140.9502  143.1520 H   0  0  0  0  0  0  0  0  0  0  0  0  # atno 7974 bound_to 7965
  154.6396  140.0593  156.9829 H   0  0  0  0  0  0  0  0  0  0  0  0  # atno 8008 bound_to 7997
  155.1538  140.3276  155.4407 H   0  0  0  0  0  0  0  0  0  0  0  0  # atno 8009 bound_to 7997
  156.2524  140.1943  156.6648 H   0  0  0  0  0  0  0  0  0  0  0  0  # atno 8010 bound_to 7997
  140.4668  143.2438  151.8265 H   0  0  0  0  0  0  0  0  0  0  0  0  # atno 10167 bound_to 10162
  156.0026  130.4648  150.4171 H   0  0  0  0  0  0  0  0  0  0  0  0  # atno 10718 bound_to 10713
  153.0058  135.6292  154.2061 H   0  0  0  0  0  0  0  0  0  0  0  0  # atno 10763 bound_to 10752
  154.1804  135.2813  155.3055 H   0  0  0  0  0  0  0  0  0  0  0  0  # atno 10764 bound_to 10752
  154.5839  135.5639  153.7271 H   0  0  0  0  0  0  0  0  0  0  0  0  # atno 10765 bound_to 10752
  139.8950  134.9548  156.6724 H   0  0  0  0  0  0  0  0  0  0  0  0  # atno 11005 bound_to 11000
  144.7549  139.7100  143.7258 LP  0  0  0  0  0  0  0  0  0  0  0  0  # atno 17320 bound_to 7965
  146.1943  139.5201  142.9784 LP  0  0  0  0  0  0  0  0  0  0  0  0  # atno 17321 bound_to 7965
  139.4813  144.4941  151.9147 LP  0  0  0  0  0  0  0  0  0  0  0  0  # atno 17342 bound_to 10162
  140.4026  144.2473  150.5892 LP  0  0  0  0  0  0  0  0  0  0  0  0  # atno 17343 bound_to 10162
  157.2230  131.0487  151.2536 LP  0  0  0  0  0  0  0  0  0  0  0  0  # atno 17370 bound_to 10713
  157.3783  130.7217  149.6612 LP  0  0  0  0  0  0  0  0  0  0  0  0  # atno 17371 bound_to 10713
  140.7363  133.9016  155.8246 LP  0  0  0  0  0  0  0  0  0  0  0  0  # atno 17394 bound_to 11000
  141.0113  134.1016  157.4218 LP  0  0  0  0  0  0  0  0  0  0  0  0  # atno 17395 bound_to 11000

$$$$
