AV-unprocessed.smi:1883|AV-procd|sdf|7643|dock2
  -GOLD-   22720 9373D 1   1.00000     0.00000
 Structure written by MMmdl.
 35 37  0  0  0  0  0  0  0  0  1 V2000
  152.1174  140.1236  156.2420 C   0  0  0  0  0  0  0  0  0  0  0  0
  150.7656  140.5264  155.7444 C   0  0  0  0  0  0  0  0  0  0  0  0
  150.3008  140.1397  154.5564 N   0  0  0  0  0  0  0  0  0  0  0  0
  149.0493  140.7237  154.5166 C   0  0  0  0  0  0  0  0  0  0  0  0
  148.0527  140.6906  153.5150 C   0  0  0  0  0  0  0  0  0  0  0  0
  146.8330  141.3742  153.6992 C   0  0  0  0  0  0  0  0  0  0  0  0
  146.5929  142.0993  154.8842 C   0  0  0  0  0  0  0  0  0  0  0  0
  147.5726  142.1452  155.8948 C   0  0  0  0  0  0  0  0  0  0  0  0
  148.7884  141.4608  155.7067 C   0  0  0  0  0  0  0  0  0  0  0  0
  149.9354  141.3060  156.4798 N   0  0  0  0  0  0  0  0  0  0  0  0
  150.1760  141.8699  157.8013 C   0  0  0  0  0  0  0  0  0  0  0  0
  151.4452  142.7437  157.8570 C   0  0  1  0  0  0  0  0  0  0  0  0
  151.2017  143.9901  157.2320 O   0  0  0  0  0  0  0  0  0  0  0  0
  151.9458  142.8947  159.2876 C   0  0  0  0  0  0  0  0  0  0  0  0
  152.7852  141.9142  159.8636 C   0  0  0  0  0  0  0  0  0  0  0  0
  153.2485  142.0606  161.1853 C   0  0  0  0  0  0  0  0  0  0  0  0
  154.0488  141.1144  161.7304 F   0  0  0  0  0  0  0  0  0  0  0  0
  152.8807  143.1908  161.9394 C   0  0  0  0  0  0  0  0  0  0  0  0
  152.0536  144.1770  161.3691 C   0  0  0  0  0  0  0  0  0  0  0  0
  151.5891  144.0323  160.0471 C   0  0  0  0  0  0  0  0  0  0  0  0
  150.8015  144.9952  159.5105 F   0  0  0  0  0  0  0  0  0  0  0  0
  152.6528  139.5586  155.4781 H   0  0  0  0  0  0  0  0  0  0  0  0
  152.0208  139.4960  157.1279 H   0  0  0  0  0  0  0  0  0  0  0  0
  152.7095  141.0027  156.4945 H   0  0  0  0  0  0  0  0  0  0  0  0
  148.2276  140.1389  152.6032 H   0  0  0  0  0  0  0  0  0  0  0  0
  146.0784  141.3429  152.9270 H   0  0  0  0  0  0  0  0  0  0  0  0
  145.6565  142.6213  155.0169 H   0  0  0  0  0  0  0  0  0  0  0  0
  147.3936  142.7028  156.8021 H   0  0  0  0  0  0  0  0  0  0  0  0
  149.3019  142.4519  158.0961 H   0  0  0  0  0  0  0  0  0  0  0  0
  150.2488  141.0526  158.5194 H   0  0  0  0  0  0  0  0  0  0  0  0
  152.2309  142.2666  157.2714 H   0  0  0  0  0  0  0  0  0  0  0  0
  150.4070  143.9213  156.7254 H   0  0  0  0  0  0  0  0  0  0  0  0
  153.0802  141.0450  159.2942 H   0  0  0  0  0  0  0  0  0  0  0  0
  153.2360  143.3032  162.9532 H   0  0  0  0  0  0  0  0  0  0  0  0
  151.7765  145.0472  161.9457 H   0  0  0  0  0  0  0  0  0  0  0  0
  1  2  1  0  0  0  0
  1 22  1  0  0  0  0
  1 23  1  0  0  0  0
  1 24  1  0  0  0  0
  2 10  1  0  0  0  0
  2  3  2  0  0  0  0
  3  4  1  0  0  0  0
  4  9  2  0  0  0  0
  4  5  1  0  0  0  0
  5  6  2  0  0  0  0
  5 25  1  0  0  0  0
  6  7  1  0  0  0  0
  6 26  1  0  0  0  0
  7  8  2  0  0  0  0
  7 27  1  0  0  0  0
  8  9  1  0  0  0  0
  8 28  1  0  0  0  0
  9 10  1  0  0  0  0
 10 11  1  0  0  0  0
 11 12  1  0  0  0  0
 11 29  1  0  0  0  0
 11 30  1  0  0  0  0
 12 13  1  0  0  0  0
 12 14  1  0  0  0  0
 12 31  1  0  0  0  0
 13 32  1  0  0  0  0
 14 20  1  0  0  0  0
 14 15  2  0  0  0  0
 15 16  1  0  0  0  0
 15 33  1  0  0  0  0
 16 17  1  0  0  0  0
 16 18  2  0  0  0  0
 18 19  1  0  0  0  0
 18 34  1  0  0  0  0
 19 20  2  0  0  0  0
 19 35  1  0  0  0  0
 20 21  1  0  0  0  0
M  END
> <s_m_source_file>
AV-unprocessed.smi

> <i_m_source_file_index>
1883

> <i_lp_mmshare_version>
43012

> <i_f3d_flags>
0

> <s_epik_input>
W2NIXTFbY0hdW2NIXVtjSF1jKGMxMiluKGMobjIpW0NIM10pW0NIMl1bQ0BIXShbT0hdKWMzW2NIXWMoRilbY0hdW2NIXWMzRg==

> <s_epik_cmdline>
J2VwaWtfcHl0aG9uJywgJy1waCcsICc3LjAnLCAnLXRuJywgJzgnLCAnLW1hJywgJzIwMCcsICctbWV0YWxfYmluZGluZycsICctaW1hZScsICc8aW5maWxlLm1hZT4nLCAnLW9tYWUnLCAnPG91dGZpbGUubWFlPic=

> <r_epik_Ionization_Penalty>
0.129664

> <r_epik_Ionization_Penalty_Charging>
0

> <r_epik_Ionization_Penalty_Neutral>
0.129664

> <r_epik_State_Penalty>
0.119073

> <r_epik_Charging_Adjusted_Penalty>
0.119073

> <i_epik_Tot_Q>
0

> <i_epik_Tot_abs_Q>
0

> <r_epik_Metal_State_Penalty>
0.000131867

> <b_epik_Metal_Only>
0

> <s_lp_Force_Field>
OPLS_2005

> <r_lp_Energy>
10.6561

> <b_lp_Chiralities_Consistent>
1

> <s_lp_Variant>
AV-unprocessed.smi:1883-2

> <Gold.Version>
5.8.1

> <Gold.Id.Protein>
6NUR|6NUR_protein|mol2

> <Gold.PLP.Fitness>
55.8373

> <Gold.PLP.PLP>
-51.5637

> <Gold.PLP.part.hbond>
-2.0000

> <Gold.PLP.part.metal>
0.0000

> <Gold.PLP.part.buried>
-1.3740

> <Gold.PLP.part.nonpolar>
-48.2575

> <Gold.PLP.part.repulsive>
0.0924

> <Gold.PLP.ligand.clash>
0.0000

> <Gold.PLP.ligand.torsion>
0.8765

> <Gold.PLP.Chemscore.Hbond>
2.0000

> <Gold.PLP.Chemscore.CHOScore>
0.0000

> <Gold.PLP.Chemscore.Metal>
0.0000

> <Gold.Chemscore.Hbonds>
donor molecule, donor type, donor heavy atom, donor atom, acceptor molecule, acceptor atom, score
      L1  H    13    32       P1  8028  1.00
      P1  H  7989  7998       L1     3  0.95

> <Gold.PLP.Chemscore.Internal.Correction>
0.0265

> <Gold.Rescore>
     Score         DG    S(hbond)    S(metal)    S(lipo)     H(rot)  DE(clash)    DE(int)     intcor
     15.88     -18.91       1.14        0.00     123.55       1.88       0.40       2.63       ----

> <Gold.Chemscore.Fitness>
15.8754

> <Gold.Chemscore.DG>
-18.9095

> <Gold.Chemscore.ZeroCoef>
-5.4800

> <Gold.Chemscore.Hbond>
1.1370

> <Gold.Chemscore.Metal>
0.0000

> <Gold.Chemscore.Lipo>
123.5455

> <Gold.Chemscore.Internal_Hbond>
0.0000

> <Gold.Chemscore.DEClash>
0.4050

> <Gold.Chemscore.DEInternal>
2.6292

> <Gold.Chemscore.Rot>
1.8839

> <Gold.Chemscore.Internal.Correction>
   9.000000E+99

> <Gold.Chemscore.Hbonds>
donor molecule, donor type, donor heavy atom, donor atom, acceptor molecule, acceptor atom, score
      L1  H    13    32       P1  8028  0.92
      P1  H  7989  7998       L1     3  0.20

> <Gold.Chemscore.Hbond.Weighted>
-3.7975

> <Gold.Chemscore.Metal.Weighted>
-0.0000

> <Gold.Chemscore.Lipo.Weighted>
-14.4548

> <Gold.Chemscore.Internal_Hbond.Weighted>
0.0000

> <Gold.Chemscore.DEClash.Weighted>
0.4050

> <Gold.Chemscore.DEInternal.Weighted>
2.6292

> <Gold.Chemscore.Rot.Weighted>
4.8227

> <Gold.Chemscore.Internal.Correction.Weighted>
   9.000000E+99

> <Gold.Protein.RotatedTorsions>
[ 6907 6896 6895 6894 ] final  165.08 input  -60.11 | X-H torsion
[ 7974 7965 7964 7962 ] final  142.88 input  175.53 | X-H torsion
[ 8008 7997 7996 7995 ] final   10.14 input   59.86 | X-H torsion
[ 10167 10162 10161 10158 ] final -108.31 input  -65.29 | X-H torsion
[ 10718 10713 10712 10709 ] final -140.04 input   66.30 | X-H torsion
[ 10763 10752 10751 10750 ] final  -59.03 input  -60.55 | X-H torsion
[ 11005 11000 10999 10996 ] final   25.38 input  -57.11 | X-H torsion

> <Gold.Protein.ActiveResidues>
 VAL166  LYS551  ARG553  GLY616  TRP617  ASP618  TYR619  PRO620  LYS621  CYS622 
 ASP623  PHE694  ASN695  SER759  ASP760  ASP761  ALA762  ILE779  LEU786  VAL792 
 PHE793  MET794  SER795  GLU796  ALA797  LYS798  CYS799  TRP800  GLU811  SER814 

> <Gold.Protein.RotatedAtoms>
  151.9000  133.3536  159.3827 H   0  0  0  0  0  0  0  0  0  0  0  0  # atno 6907 bound_to 6896
  150.7082  134.4838  159.5492 H   0  0  0  0  0  0  0  0  0  0  0  0  # atno 6908 bound_to 6896
  152.2424  134.8215  160.0509 H   0  0  0  0  0  0  0  0  0  0  0  0  # atno 6909 bound_to 6896
  144.8969  139.5478  143.5772 H   0  0  0  0  0  0  0  0  0  0  0  0  # atno 7974 bound_to 7965
  154.7894  140.2833  155.6003 H   0  0  0  0  0  0  0  0  0  0  0  0  # atno 8008 bound_to 7997
  156.2962  140.2607  156.2667 H   0  0  0  0  0  0  0  0  0  0  0  0  # atno 8009 bound_to 7997
  154.9688  140.0376  157.2214 H   0  0  0  0  0  0  0  0  0  0  0  0  # atno 8010 bound_to 7997
  140.1675  143.4070  152.1379 H   0  0  0  0  0  0  0  0  0  0  0  0  # atno 10167 bound_to 10162
  156.3177  130.7517  151.1607 H   0  0  0  0  0  0  0  0  0  0  0  0  # atno 10718 bound_to 10713
  154.2474  135.6332  153.5228 H   0  0  0  0  0  0  0  0  0  0  0  0  # atno 10763 bound_to 10752
  152.9918  135.5556  154.5844 H   0  0  0  0  0  0  0  0  0  0  0  0  # atno 10764 bound_to 10752
  154.5364  135.2892  155.1109 H   0  0  0  0  0  0  0  0  0  0  0  0  # atno 10765 bound_to 10752
  140.3485  134.2255  155.7682 H   0  0  0  0  0  0  0  0  0  0  0  0  # atno 11005 bound_to 11000
  146.3086  139.7667  142.9037 LP  0  0  0  0  0  0  0  0  0  0  0  0  # atno 17320 bound_to 7965
  145.3684  141.0338  143.3245 LP  0  0  0  0  0  0  0  0  0  0  0  0  # atno 17321 bound_to 7965
  139.5353  144.7203  151.4915 LP  0  0  0  0  0  0  0  0  0  0  0  0  # atno 17342 bound_to 10162
  140.6603  143.8511  150.6881 LP  0  0  0  0  0  0  0  0  0  0  0  0  # atno 17343 bound_to 10162
  157.7405  131.0516  150.5161 LP  0  0  0  0  0  0  0  0  0  0  0  0  # atno 17370 bound_to 10713
  156.5309  130.4184  149.6202 LP  0  0  0  0  0  0  0  0  0  0  0  0  # atno 17371 bound_to 10713
  141.2019  133.7952  157.0419 LP  0  0  0  0  0  0  0  0  0  0  0  0  # atno 17394 bound_to 11000
  140.0722  134.9695  157.1487 LP  0  0  0  0  0  0  0  0  0  0  0  0  # atno 17395 bound_to 11000

$$$$
