AV-unprocessed.smi:767|AV-procd|sdf|3658|dock1
  -GOLD-   22720 1 63D 1   1.00000     0.00000
 Structure written by MMmdl.
 47 49  0  0  0  0  0  0  0  0  1 V2000
  151.8339  140.5004  156.1571 C   0  0  0  0  0  0  0  0  0  0  0  0
  150.5960  140.3215  155.3033 C   0  0  0  0  0  0  0  0  0  0  0  0
  149.7373  141.4088  155.0360 C   0  0  0  0  0  0  0  0  0  0  0  0
  148.5988  141.1840  154.2386 C   0  0  0  0  0  0  0  0  0  0  0  0
  148.3635  139.8861  153.7410 C   0  0  0  0  0  0  0  0  0  0  0  0
  147.1457  139.5899  152.8887 C   0  0  0  0  0  0  0  0  0  0  0  0
  146.2380  138.5314  153.5351 C   0  0  0  0  0  0  0  0  0  0  0  0
  146.5877  137.1849  153.1000 N   0  0  0  0  0  0  0  0  0  0  0  0
  145.9234  136.0733  153.4445 C   0  0  0  0  0  0  0  0  0  0  0  0
  144.9243  136.0607  154.1636 O   0  0  0  0  0  0  0  0  0  0  0  0
  146.4834  134.9751  152.9206 N   0  0  0  0  0  0  0  0  0  0  0  0
  145.9910  133.6110  153.1387 C   0  0  1  0  0  0  0  0  0  0  0  0
  145.0878  133.1186  152.0049 C   0  0  1  0  0  0  0  0  0  0  0  0
  144.3213  133.7528  150.9012 C   0  0  0  0  0  0  0  0  0  0  0  0
  144.6734  132.7154  149.8005 C   0  0  0  0  0  0  0  0  0  0  0  0
  145.7155  131.8758  150.3614 O   0  0  0  0  0  0  0  0  0  0  0  0
  146.3637  132.7163  151.2952 C   0  0  2  0  0  0  0  0  0  0  0  0
  146.9710  132.4541  152.6916 C   0  0  0  0  0  0  0  0  0  0  0  0
  148.4752  132.7232  152.8143 C   0  0  0  0  0  0  0  0  0  0  0  0
  146.7435  131.0628  153.3095 C   0  0  0  0  0  0  0  0  0  0  0  0
  149.2847  138.8683  154.0660 C   0  0  0  0  0  0  0  0  0  0  0  0
  150.3790  139.0746  154.8299 N   0  0  0  0  0  0  0  0  0  0  0  0
  151.9456  141.5359  156.4799 H   0  0  0  0  0  0  0  0  0  0  0  0
  152.7259  140.2214  155.5953 H   0  0  0  0  0  0  0  0  0  0  0  0
  151.7754  139.8715  157.0457 H   0  0  0  0  0  0  0  0  0  0  0  0
  149.9422  142.3924  155.4322 H   0  0  0  0  0  0  0  0  0  0  0  0
  147.9187  141.9934  154.0170 H   0  0  0  0  0  0  0  0  0  0  0  0
  146.5932  140.5170  152.7280 H   0  0  0  0  0  0  0  0  0  0  0  0
  147.4743  139.2528  151.9047 H   0  0  0  0  0  0  0  0  0  0  0  0
  146.3343  138.5710  154.6205 H   0  0  0  0  0  0  0  0  0  0  0  0
  145.1901  138.7369  153.3093 H   0  0  0  0  0  0  0  0  0  0  0  0
  147.3976  137.0933  152.5044 H   0  0  0  0  0  0  0  0  0  0  0  0
  147.3029  135.0815  152.3411 H   0  0  0  0  0  0  0  0  0  0  0  0
  145.5535  133.4507  154.1257 H   0  0  0  0  0  0  0  0  0  0  0  0
  144.5193  132.2602  152.3711 H   0  0  0  0  0  0  0  0  0  0  0  0
  143.2511  133.8054  151.1022 H   0  0  0  0  0  0  0  0  0  0  0  0
  144.6919  134.7496  150.6588 H   0  0  0  0  0  0  0  0  0  0  0  0
  143.8148  132.0998  149.5312 H   0  0  0  0  0  0  0  0  0  0  0  0
  145.0300  133.2128  148.8975 H   0  0  0  0  0  0  0  0  0  0  0  0
  146.8658  133.5407  150.7786 H   0  0  0  0  0  0  0  0  0  0  0  0
  149.0650  131.9077  152.3943 H   0  0  0  0  0  0  0  0  0  0  0  0
  148.7739  132.8445  153.8559 H   0  0  0  0  0  0  0  0  0  0  0  0
  148.7736  133.6286  152.2858 H   0  0  0  0  0  0  0  0  0  0  0  0
  147.2583  130.2888  152.7397 H   0  0  0  0  0  0  0  0  0  0  0  0
  145.6953  130.7726  153.3548 H   0  0  0  0  0  0  0  0  0  0  0  0
  147.1210  131.0193  154.3317 H   0  0  0  0  0  0  0  0  0  0  0  0
  149.1381  137.8601  153.7076 H   0  0  0  0  0  0  0  0  0  0  0  0
  1  2  1  0  0  0  0
  1 23  1  0  0  0  0
  1 24  1  0  0  0  0
  1 25  1  0  0  0  0
  2 22  1  0  0  0  0
  2  3  2  0  0  0  0
  3  4  1  0  0  0  0
  3 26  1  0  0  0  0
  4  5  2  0  0  0  0
  4 27  1  0  0  0  0
  5  6  1  0  0  0  0
  5 21  1  0  0  0  0
  6  7  1  0  0  0  0
  6 28  1  0  0  0  0
  6 29  1  0  0  0  0
  7  8  1  0  0  0  0
  7 30  1  0  0  0  0
  7 31  1  0  0  0  0
  8  9  1  0  0  0  0
  8 32  1  0  0  0  0
  9 10  2  0  0  0  0
  9 11  1  0  0  0  0
 11 12  1  0  0  0  0
 11 33  1  0  0  0  0
 12 18  1  0  0  0  0
 12 13  1  0  0  0  0
 12 34  1  0  0  0  0
 13 17  1  0  0  0  0
 13 14  1  0  0  0  0
 13 35  1  0  0  0  0
 14 15  1  0  0  0  0
 14 36  1  0  0  0  0
 14 37  1  0  0  0  0
 15 16  1  0  0  0  0
 15 38  1  0  0  0  0
 15 39  1  0  0  0  0
 16 17  1  0  0  0  0
 17 18  1  0  0  0  0
 17 40  1  0  0  0  0
 18 19  1  0  0  0  0
 18 20  1  0  0  0  0
 19 41  1  0  0  0  0
 19 42  1  0  0  0  0
 19 43  1  0  0  0  0
 20 44  1  0  0  0  0
 20 45  1  0  0  0  0
 20 46  1  0  0  0  0
 21 22  2  0  0  0  0
 21 47  1  0  0  0  0
M  END
> <s_m_source_file>
AV-unprocessed.smi

> <i_m_source_file_index>
767

> <i_lp_mmshare_version>
43012

> <i_f3d_flags>
0

> <s_epik_input>
W0NIM11jMVtjSF1bY0hdYyhbY0hdbjEpW0NIMl1bQ0gyXVtOSF1DKD1PKVtOSF1bQ0BIXTJDKFtDSDNdKShbQ0gzXSlbQ0BIXShbQ0BASF0yMylPW0NIMl1bQ0gyXTM=

> <s_epik_cmdline>
J2VwaWtfcHl0aG9uJywgJy1waCcsICc3LjAnLCAnLXRuJywgJzgnLCAnLW1hJywgJzIwMCcsICctbWV0YWxfYmluZGluZycsICctaW1hZScsICc8aW5maWxlLm1hZT4nLCAnLW9tYWUnLCAnPG91dGZpbGUubWFlPic=

> <r_epik_Ionization_Penalty>
0.0567523

> <r_epik_Ionization_Penalty_Charging>
0

> <r_epik_Ionization_Penalty_Neutral>
0.0567523

> <r_epik_State_Penalty>
0.0489186

> <r_epik_Charging_Adjusted_Penalty>
0.0489186

> <i_epik_Tot_Q>
0

> <i_epik_Tot_abs_Q>
0

> <r_epik_Metal_State_Penalty>
0.044622

> <b_epik_Metal_Only>
0

> <s_lp_Force_Field>
OPLS_2005

> <r_lp_Energy>
57.787

> <b_lp_Chiralities_Consistent>
1

> <s_lp_Variant>
AV-unprocessed.smi:767-2

> <Gold.Version>
5.8.1

> <Gold.Id.Protein>
6NUR|6NUR_protein|mol2

> <Gold.PLP.Fitness>
45.1378

> <Gold.PLP.PLP>
-36.7551

> <Gold.PLP.part.hbond>
-2.0000

> <Gold.PLP.part.metal>
0.0000

> <Gold.PLP.part.buried>
-0.4472

> <Gold.PLP.part.nonpolar>
-34.0121

> <Gold.PLP.part.repulsive>
0.2870

> <Gold.PLP.ligand.clash>
0.0000

> <Gold.PLP.ligand.torsion>
0.4427

> <Gold.PLP.Chemscore.Hbond>
2.0000

> <Gold.PLP.Chemscore.CHOScore>
1.0000

> <Gold.PLP.Chemscore.Metal>
0.0000

> <Gold.Chemscore.Hbonds>
donor molecule, donor type, donor heavy atom, donor atom, acceptor molecule, acceptor atom, score
      L1  H     8    32       P1  7948  1.00
      L1  H    11    33       P1  7948  0.97
      L1  C    21    47       P1  7948  1.00

> <Gold.PLP.Chemscore.Internal.Correction>
0.2681

> <Gold.Rescore>
     Score         DG    S(hbond)    S(metal)    S(lipo)     H(rot)  DE(clash)    DE(int)     intcor
     19.50     -20.18       1.91        0.00     102.93       1.45       0.24       0.44       ----

> <Gold.Chemscore.Fitness>
19.5003

> <Gold.Chemscore.DG>
-20.1782

> <Gold.Chemscore.ZeroCoef>
-5.4800

> <Gold.Chemscore.Hbond>
1.9062

> <Gold.Chemscore.Metal>
0.0000

> <Gold.Chemscore.Lipo>
102.9300

> <Gold.Chemscore.Internal_Hbond>
0.0000

> <Gold.Chemscore.DEClash>
0.2406

> <Gold.Chemscore.DEInternal>
0.4373

> <Gold.Chemscore.Rot>
1.4497

> <Gold.Chemscore.Internal.Correction>
   9.000000E+99

> <Gold.Chemscore.Hbonds>
donor molecule, donor type, donor heavy atom, donor atom, acceptor molecule, acceptor atom, score
      L1  H     8    32       P1  7948  0.98
      L1  H    11    33       P1  7948  0.86

> <Gold.Chemscore.Hbond.Weighted>
-6.3666

> <Gold.Chemscore.Metal.Weighted>
-0.0000

> <Gold.Chemscore.Lipo.Weighted>
-12.0428

> <Gold.Chemscore.Internal_Hbond.Weighted>
0.0000

> <Gold.Chemscore.DEClash.Weighted>
0.2406

> <Gold.Chemscore.DEInternal.Weighted>
0.4373

> <Gold.Chemscore.Rot.Weighted>
3.7112

> <Gold.Chemscore.Internal.Correction.Weighted>
   9.000000E+99

> <Gold.Protein.RotatedTorsions>
[ 6907 6896 6895 6894 ] final -170.66 input  -60.11 | X-H torsion
[ 7974 7965 7964 7962 ] final  -87.52 input  175.53 | X-H torsion
[ 8008 7997 7996 7995 ] final -135.23 input   59.86 | X-H torsion
[ 10167 10162 10161 10158 ] final  151.30 input  -65.29 | X-H torsion
[ 10718 10713 10712 10709 ] final   49.69 input   66.30 | X-H torsion
[ 10763 10752 10751 10750 ] final  -98.01 input  -60.55 | X-H torsion
[ 11005 11000 10999 10996 ] final  101.39 input  -57.11 | X-H torsion

> <Gold.Protein.ActiveResidues>
 VAL166  LYS551  ARG553  GLY616  TRP617  ASP618  TYR619  PRO620  LYS621  CYS622 
 ASP623  PHE694  ASN695  SER759  ASP760  ASP761  ALA762  ILE779  LEU786  VAL792 
 PHE793  MET794  SER795  GLU796  ALA797  LYS798  CYS799  TRP800  GLU811  SER814 

> <Gold.Protein.RotatedAtoms>
  151.5113  133.3484  159.2885 H   0  0  0  0  0  0  0  0  0  0  0  0  # atno 6907 bound_to 6896
  150.8710  134.8086  159.7166 H   0  0  0  0  0  0  0  0  0  0  0  0  # atno 6908 bound_to 6896
  152.4698  134.4997  159.9772 H   0  0  0  0  0  0  0  0  0  0  0  0  # atno 6909 bound_to 6896
  145.4654  140.9560  143.1946 H   0  0  0  0  0  0  0  0  0  0  0  0  # atno 7974 bound_to 7965
  155.3752  140.0490  157.3045 H   0  0  0  0  0  0  0  0  0  0  0  0  # atno 8008 bound_to 7997
  154.5110  140.2191  155.9119 H   0  0  0  0  0  0  0  0  0  0  0  0  # atno 8009 bound_to 7997
  156.1582  140.3122  155.8767 H   0  0  0  0  0  0  0  0  0  0  0  0  # atno 8010 bound_to 7997
  139.4842  144.5452  151.7496 H   0  0  0  0  0  0  0  0  0  0  0  0  # atno 10167 bound_to 10162
  157.4812  130.8316  149.8095 H   0  0  0  0  0  0  0  0  0  0  0  0  # atno 10718 bound_to 10713
  154.7377  135.5025  153.9070 H   0  0  0  0  0  0  0  0  0  0  0  0  # atno 10763 bound_to 10752
  153.1012  135.6685  153.9678 H   0  0  0  0  0  0  0  0  0  0  0  0  # atno 10764 bound_to 10752
  153.9464  135.3062  155.3420 H   0  0  0  0  0  0  0  0  0  0  0  0  # atno 10765 bound_to 10752
  139.8773  134.9181  156.4899 H   0  0  0  0  0  0  0  0  0  0  0  0  # atno 11005 bound_to 11000
  144.7977  139.6201  143.7085 LP  0  0  0  0  0  0  0  0  0  0  0  0  # atno 17320 bound_to 7965
  146.2427  139.6034  142.9480 LP  0  0  0  0  0  0  0  0  0  0  0  0  # atno 17321 bound_to 7965
  140.4998  144.1186  150.5968 LP  0  0  0  0  0  0  0  0  0  0  0  0  # atno 17342 bound_to 10162
  140.4076  143.2673  151.9872 LP  0  0  0  0  0  0  0  0  0  0  0  0  # atno 17343 bound_to 10162
  156.0122  130.3828  150.2226 LP  0  0  0  0  0  0  0  0  0  0  0  0  # atno 17370 bound_to 10713
  157.0412  131.0036  151.3283 LP  0  0  0  0  0  0  0  0  0  0  0  0  # atno 17371 bound_to 10713
  140.8666  133.8020  155.9320 LP  0  0  0  0  0  0  0  0  0  0  0  0  # atno 17394 bound_to 11000
  140.8995  134.2395  157.5049 LP  0  0  0  0  0  0  0  0  0  0  0  0  # atno 17395 bound_to 11000

$$$$
