AV-unprocessed.smi:3162|AV-procd|sdf|12069|dock7
  -GOLD-   2272017503D 1   1.00000     0.00000
 Structure written by MMmdl.
 36 36  0  0  0  0  0  0  0  0  1 V2000
  148.4042  140.0216  154.0785 C   0  0  0  0  0  0  0  0  0  0  0  0
  148.8973  139.2059  155.2844 C   0  0  0  0  0  0  0  0  0  0  0  0
  150.4346  139.1232  155.4141 C   0  0  2  0  0  0  0  0  0  0  0  0
  151.0153  140.4596  155.1812 N   0  0  0  0  0  0  0  0  0  0  0  0
  151.0595  141.3496  156.3402 C   0  0  1  0  0  0  0  0  0  0  0  0
  149.6240  141.7196  156.7599 C   0  0  0  0  0  0  0  0  0  0  0  0
  151.8353  140.6203  157.4564 C   0  0  0  0  0  0  0  0  0  0  0  0
  152.0894  141.4633  158.6109 N   0  0  0  0  0  0  0  0  0  0  0  0
  152.6288  141.1103  159.8297 C   0  0  0  0  0  0  0  0  0  0  0  0
  152.6812  142.2386  160.5985 C   0  0  0  0  0  0  0  0  0  0  0  0
  153.1803  142.3950  162.0059 C   0  0  0  0  0  0  0  0  0  0  0  0
  152.1456  143.2451  159.7454 C   0  0  0  0  0  0  0  0  0  0  0  0
  151.7953  142.7799  158.5574 N   0  0  0  0  0  0  0  0  0  0  0  0
  151.0298  138.0432  154.4914 C   0  0  0  0  0  0  0  0  0  0  0  0
  150.7936  138.1599  153.1821 N   0  0  0  0  0  0  0  0  0  0  0  0
  151.6777  137.1077  154.9574 O   0  0  0  0  0  0  0  0  0  0  0  0
  147.3177  139.9766  154.0015 H   0  0  0  0  0  0  0  0  0  0  0  0
  148.8181  139.6359  153.1465 H   0  0  0  0  0  0  0  0  0  0  0  0
  148.6814  141.0726  154.1606 H   0  0  0  0  0  0  0  0  0  0  0  0
  148.4638  139.6141  156.1986 H   0  0  0  0  0  0  0  0  0  0  0  0
  148.4967  138.1954  155.1928 H   0  0  0  0  0  0  0  0  0  0  0  0
  150.6572  138.8472  156.4468 H   0  0  0  0  0  0  0  0  0  0  0  0
  151.9230  140.4087  154.7408 H   0  0  0  0  0  0  0  0  0  0  0  0
  151.6084  142.2605  156.0971 H   0  0  0  0  0  0  0  0  0  0  0  0
  149.6241  142.4125  157.6014 H   0  0  0  0  0  0  0  0  0  0  0  0
  149.0588  140.8365  157.0593 H   0  0  0  0  0  0  0  0  0  0  0  0
  149.0770  142.2034  155.9512 H   0  0  0  0  0  0  0  0  0  0  0  0
  151.2840  139.7398  157.7903 H   0  0  0  0  0  0  0  0  0  0  0  0
  152.7948  140.2617  157.0800 H   0  0  0  0  0  0  0  0  0  0  0  0
  152.9256  140.0949  160.0477 H   0  0  0  0  0  0  0  0  0  0  0  0
  153.6179  143.3796  162.1724 H   0  0  0  0  0  0  0  0  0  0  0  0
  153.9473  141.6589  162.2479 H   0  0  0  0  0  0  0  0  0  0  0  0
  152.3766  142.2730  162.7323 H   0  0  0  0  0  0  0  0  0  0  0  0
  152.0036  144.2955  159.9531 H   0  0  0  0  0  0  0  0  0  0  0  0
  151.1674  137.4761  152.5399 H   0  0  0  0  0  0  0  0  0  0  0  0
  150.2443  138.9344  152.8389 H   0  0  0  0  0  0  0  0  0  0  0  0
  1  2  1  0  0  0  0
  1 17  1  0  0  0  0
  1 18  1  0  0  0  0
  1 19  1  0  0  0  0
  2  3  1  0  0  0  0
  2 20  1  0  0  0  0
  2 21  1  0  0  0  0
  3  4  1  0  0  0  0
  3 14  1  0  0  0  0
  3 22  1  0  0  0  0
  4  5  1  0  0  0  0
  4 23  1  0  0  0  0
  5  6  1  0  0  0  0
  5  7  1  0  0  0  0
  5 24  1  0  0  0  0
  6 25  1  0  0  0  0
  6 26  1  0  0  0  0
  6 27  1  0  0  0  0
  7  8  1  0  0  0  0
  7 28  1  0  0  0  0
  7 29  1  0  0  0  0
  8 13  1  0  0  0  0
  8  9  1  0  0  0  0
  9 10  2  0  0  0  0
  9 30  1  0  0  0  0
 10 11  1  0  0  0  0
 10 12  1  0  0  0  0
 11 31  1  0  0  0  0
 11 32  1  0  0  0  0
 11 33  1  0  0  0  0
 12 13  2  0  0  0  0
 12 34  1  0  0  0  0
 14 15  1  0  0  0  0
 14 16  2  0  0  0  0
 15 35  1  0  0  0  0
 15 36  1  0  0  0  0
M  END
> <s_m_source_file>
AV-unprocessed.smi

> <i_m_source_file_index>
3162

> <i_lp_mmshare_version>
43012

> <i_f3d_flags>
0

> <s_epik_input>
W0NIM11bQ0gyXVtDQEBIXShDKD1PKVtOSDJdKVtOSF1bQ0BIXShbQ0gzXSlbQ0gyXW4xW2NIXWMoW0NIM10pW2NIXW4x

> <s_epik_cmdline>
J2VwaWtfcHl0aG9uJywgJy1waCcsICc3LjAnLCAnLXRuJywgJzgnLCAnLW1hJywgJzIwMCcsICctbWV0YWxfYmluZGluZycsICctaW1hZScsICc8aW5maWxlLm1hZT4nLCAnLW9tYWUnLCAnPG91dGZpbGUubWFlPic=

> <r_lp_tautomer_probability>
1

> <r_epik_Ionization_Penalty>
1.04167

> <r_epik_Ionization_Penalty_Charging>
0

> <r_epik_Ionization_Penalty_Neutral>
1.04167

> <r_epik_State_Penalty>
1.09367

> <r_epik_Charging_Adjusted_Penalty>
1.09367

> <i_epik_Tot_Q>
0

> <i_epik_Tot_abs_Q>
0

> <r_epik_Metal_State_Penalty>
1.09362

> <b_epik_Metal_Only>
0

> <s_lp_Force_Field>
OPLS_2005

> <r_lp_Energy>
3.23366

> <b_lp_Chiralities_Consistent>
1

> <s_lp_Variant>
AV-unprocessed.smi:3162-7

> <Gold.Version>
5.8.1

> <Gold.Id.Protein>
6NUR|6NUR_protein|mol2

> <Gold.PLP.Fitness>
39.4710

> <Gold.PLP.PLP>
-32.2378

> <Gold.PLP.part.hbond>
-5.0000

> <Gold.PLP.part.metal>
0.0000

> <Gold.PLP.part.buried>
0.0419

> <Gold.PLP.part.nonpolar>
-26.6942

> <Gold.PLP.part.repulsive>
0.2601

> <Gold.PLP.ligand.clash>
0.0000

> <Gold.PLP.ligand.torsion>
0.5992

> <Gold.PLP.Chemscore.Hbond>
2.7717

> <Gold.PLP.Chemscore.CHOScore>
0.0000

> <Gold.PLP.Chemscore.Metal>
0.0000

> <Gold.Chemscore.Hbonds>
donor molecule, donor type, donor heavy atom, donor atom, acceptor molecule, acceptor atom, score
      L1  H    15    35       P1  7949  1.00
      L1  H    15    36       P1  7957  0.77
      P1  H 10752 10763       L1    16  1.00

> <Gold.PLP.Chemscore.Internal.Correction>
0.1166

> <Gold.Rescore>
     Score         DG    S(hbond)    S(metal)    S(lipo)     H(rot)  DE(clash)    DE(int)     intcor
     12.26     -14.54       1.81        0.00      78.88       2.43       1.30       0.98       ----

> <Gold.Chemscore.Fitness>
12.2627

> <Gold.Chemscore.DG>
-14.5390

> <Gold.Chemscore.ZeroCoef>
-5.4800

> <Gold.Chemscore.Hbond>
1.8136

> <Gold.Chemscore.Metal>
0.0000

> <Gold.Chemscore.Lipo>
78.8834

> <Gold.Chemscore.Internal_Hbond>
0.0000

> <Gold.Chemscore.DEClash>
1.2984

> <Gold.Chemscore.DEInternal>
0.9779

> <Gold.Chemscore.Rot>
2.4328

> <Gold.Chemscore.Internal.Correction>
   9.000000E+99

> <Gold.Chemscore.Hbonds>
donor molecule, donor type, donor heavy atom, donor atom, acceptor molecule, acceptor atom, score
      L1  H    15    35       P1  7949  0.49
      L1  H    15    36       P1  7957  0.41
      P1  H 10752 10763       L1    16  0.94

> <Gold.Chemscore.Hbond.Weighted>
-6.0576

> <Gold.Chemscore.Metal.Weighted>
-0.0000

> <Gold.Chemscore.Lipo.Weighted>
-9.2294

> <Gold.Chemscore.Internal_Hbond.Weighted>
0.0000

> <Gold.Chemscore.DEClash.Weighted>
1.2984

> <Gold.Chemscore.DEInternal.Weighted>
0.9779

> <Gold.Chemscore.Rot.Weighted>
6.2279

> <Gold.Chemscore.Internal.Correction.Weighted>
   9.000000E+99

> <Gold.Protein.RotatedTorsions>
[ 6907 6896 6895 6894 ] final -121.36 input  -60.11 | X-H torsion
[ 7974 7965 7964 7962 ] final   21.66 input  175.53 | X-H torsion
[ 8008 7997 7996 7995 ] final   32.31 input   59.86 | X-H torsion
[ 10167 10162 10161 10158 ] final  107.39 input  -65.29 | X-H torsion
[ 10718 10713 10712 10709 ] final  146.87 input   66.30 | X-H torsion
[ 10763 10752 10751 10750 ] final   60.34 input  -60.55 | X-H torsion
[ 11005 11000 10999 10996 ] final -135.36 input  -57.11 | X-H torsion

> <Gold.Protein.ActiveResidues>
 VAL166  LYS551  ARG553  GLY616  TRP617  ASP618  TYR619  PRO620  LYS621  CYS622 
 ASP623  PHE694  ASN695  SER759  ASP760  ASP761  ALA762  ILE779  LEU786  VAL792 
 PHE793  MET794  SER795  GLU796  ALA797  LYS798  CYS799  TRP800  GLU811  SER814 

> <Gold.Protein.RotatedAtoms>
  150.8476  133.7837  159.3037 H   0  0  0  0  0  0  0  0  0  0  0  0  # atno 6907 bound_to 6896
  151.5519  135.1065  159.9961 H   0  0  0  0  0  0  0  0  0  0  0  0  # atno 6908 bound_to 6896
  152.4526  133.7617  159.6806 H   0  0  0  0  0  0  0  0  0  0  0  0  # atno 6909 bound_to 6896
  146.2062  139.7996  142.8724 H   0  0  0  0  0  0  0  0  0  0  0  0  # atno 7974 bound_to 7965
  155.1204  140.3247  155.4499 H   0  0  0  0  0  0  0  0  0  0  0  0  # atno 8008 bound_to 7997
  156.2664  140.2028  156.6274 H   0  0  0  0  0  0  0  0  0  0  0  0  # atno 8009 bound_to 7997
  154.6688  140.0539  157.0130 H   0  0  0  0  0  0  0  0  0  0  0  0  # atno 8010 bound_to 7997
  139.6931  144.7105  151.1313 H   0  0  0  0  0  0  0  0  0  0  0  0  # atno 10167 bound_to 10162
  157.3279  131.0915  151.1186 H   0  0  0  0  0  0  0  0  0  0  0  0  # atno 10718 bound_to 10713
  152.9918  135.5539  154.5859 H   0  0  0  0  0  0  0  0  0  0  0  0  # atno 10763 bound_to 10752
  154.5230  135.2809  155.1248 H   0  0  0  0  0  0  0  0  0  0  0  0  # atno 10764 bound_to 10752
  154.2593  135.6384  153.5321 H   0  0  0  0  0  0  0  0  0  0  0  0  # atno 10765 bound_to 10752
  140.8905  134.1817  157.4531 H   0  0  0  0  0  0  0  0  0  0  0  0  # atno 11005 bound_to 11000
  145.3310  141.0266  143.3446 LP  0  0  0  0  0  0  0  0  0  0  0  0  # atno 17320 bound_to 7965
  144.8799  139.4919  143.6728 LP  0  0  0  0  0  0  0  0  0  0  0  0  # atno 17321 bound_to 7965
  140.7688  143.5530  150.9183 LP  0  0  0  0  0  0  0  0  0  0  0  0  # atno 17342 bound_to 10162
  139.9208  143.6608  152.3097 LP  0  0  0  0  0  0  0  0  0  0  0  0  # atno 17343 bound_to 10162
  157.2446  130.6585  149.5904 LP  0  0  0  0  0  0  0  0  0  0  0  0  # atno 17370 bound_to 10713
  155.9692  130.4557  150.5899 LP  0  0  0  0  0  0  0  0  0  0  0  0  # atno 17371 bound_to 10713
  139.8729  134.9856  156.5290 LP  0  0  0  0  0  0  0  0  0  0  0  0  # atno 17394 bound_to 11000
  140.8352  133.8248  155.9022 LP  0  0  0  0  0  0  0  0  0  0  0  0  # atno 17395 bound_to 11000

$$$$
