AV-unprocessed.smi:1670|AV-procd|sdf|6693|dock8
  -GOLD-   22720 7423D 1   1.00000     0.00000
 Structure written by MMmdl.
 41 42  0  0  0  0  0  0  0  0  1 V2000
  148.0883  134.7353  156.3886 C   0  0  0  0  0  0  0  0  0  0  0  0
  149.0334  134.1375  155.3374 C   0  0  2  0  0  0  0  0  0  0  0  0
  150.4709  134.6762  155.5025 C   0  0  0  0  0  0  0  0  0  0  0  0
  150.5900  136.0764  155.1339 N   0  0  0  0  0  0  0  0  0  0  0  0
  149.5961  137.0293  155.0619 C   0  0  0  0  0  0  0  0  0  0  0  0
  150.1857  138.2044  154.6932 C   0  0  0  0  0  0  0  0  0  0  0  0
  151.5612  137.8652  154.5597 C   0  0  0  0  0  0  0  0  0  0  0  0
  151.7996  136.5896  154.8184 N   0  0  0  0  0  0  0  0  0  0  0  0
  148.5137  134.4385  154.0038 N   0  0  0  0  0  0  0  0  0  0  0  0
  147.4312  133.8784  153.4444 C   0  0  0  0  0  0  0  0  0  0  0  0
  146.7081  133.0602  154.0132 O   0  0  0  0  0  0  0  0  0  0  0  0
  147.2523  134.3034  152.1841 N   0  0  0  0  0  0  0  0  0  0  0  0
  146.2217  133.8694  151.2396 C   0  0  2  0  0  0  0  0  0  0  0  0
  144.8124  134.3688  151.6244 C   0  0  0  0  0  0  0  0  0  0  0  0
  143.7767  133.9567  150.5655 C   0  0  0  0  0  0  0  0  0  0  0  0
  143.7895  132.4336  150.3410 C   0  0  1  0  0  0  0  0  0  0  0  0
  142.8749  132.1013  149.3178 O   0  0  0  0  0  0  0  0  0  0  0  0
  145.1944  131.9370  149.9536 C   0  0  0  0  0  0  0  0  0  0  0  0
  146.2355  132.3421  151.0096 C   0  0  0  0  0  0  0  0  0  0  0  0
  148.4294  134.5039  157.3980 H   0  0  0  0  0  0  0  0  0  0  0  0
  147.0797  134.3345  156.2834 H   0  0  0  0  0  0  0  0  0  0  0  0
  148.0275  135.8205  156.2986 H   0  0  0  0  0  0  0  0  0  0  0  0
  149.0452  133.0573  155.4939 H   0  0  0  0  0  0  0  0  0  0  0  0
  150.8163  134.5430  156.5294 H   0  0  0  0  0  0  0  0  0  0  0  0
  151.1553  134.1093  154.8701 H   0  0  0  0  0  0  0  0  0  0  0  0
  148.5650  136.7952  155.2834 H   0  0  0  0  0  0  0  0  0  0  0  0
  149.7075  139.1613  154.5454 H   0  0  0  0  0  0  0  0  0  0  0  0
  152.3875  138.5031  154.2826 H   0  0  0  0  0  0  0  0  0  0  0  0
  149.0432  135.0968  153.4512 H   0  0  0  0  0  0  0  0  0  0  0  0
  147.9140  134.9787  151.8302 H   0  0  0  0  0  0  0  0  0  0  0  0
  146.4881  134.3434  150.2941 H   0  0  0  0  0  0  0  0  0  0  0  0
  144.5114  133.9613  152.5899 H   0  0  0  0  0  0  0  0  0  0  0  0
  144.8153  135.4538  151.7330 H   0  0  0  0  0  0  0  0  0  0  0  0
  142.7831  134.2823  150.8761 H   0  0  0  0  0  0  0  0  0  0  0  0
  143.9936  134.4721  149.6287 H   0  0  0  0  0  0  0  0  0  0  0  0
  143.4679  131.9314  151.2543 H   0  0  0  0  0  0  0  0  0  0  0  0
  142.1894  132.7514  149.3051 H   0  0  0  0  0  0  0  0  0  0  0  0
  145.1903  130.8526  149.8367 H   0  0  0  0  0  0  0  0  0  0  0  0
  145.4809  132.3520  148.9861 H   0  0  0  0  0  0  0  0  0  0  0  0
  147.2274  132.0195  150.6911 H   0  0  0  0  0  0  0  0  0  0  0  0
  146.0222  131.8120  151.9383 H   0  0  0  0  0  0  0  0  0  0  0  0
  1  2  1  0  0  0  0
  1 20  1  0  0  0  0
  1 21  1  0  0  0  0
  1 22  1  0  0  0  0
  2  3  1  0  0  0  0
  2  9  1  0  0  0  0
  2 23  1  0  0  0  0
  3  4  1  0  0  0  0
  3 24  1  0  0  0  0
  3 25  1  0  0  0  0
  4  8  1  0  0  0  0
  4  5  1  0  0  0  0
  5  6  2  0  0  0  0
  5 26  1  0  0  0  0
  6  7  1  0  0  0  0
  6 27  1  0  0  0  0
  7  8  2  0  0  0  0
  7 28  1  0  0  0  0
  9 10  1  0  0  0  0
  9 29  1  0  0  0  0
 10 11  2  0  0  0  0
 10 12  1  0  0  0  0
 12 13  1  0  0  0  0
 12 30  1  0  0  0  0
 13 19  1  0  0  0  0
 13 14  1  0  0  0  0
 13 31  1  0  0  0  0
 14 15  1  0  0  0  0
 14 32  1  0  0  0  0
 14 33  1  0  0  0  0
 15 16  1  0  0  0  0
 15 34  1  0  0  0  0
 15 35  1  0  0  0  0
 16 17  1  0  0  0  0
 16 18  1  0  0  0  0
 16 36  1  0  0  0  0
 17 37  1  0  0  0  0
 18 19  1  0  0  0  0
 18 38  1  0  0  0  0
 18 39  1  0  0  0  0
 19 40  1  0  0  0  0
 19 41  1  0  0  0  0
M  END
> <s_m_source_file>
AV-unprocessed.smi

> <i_m_source_file_index>
1670

> <i_lp_mmshare_version>
43012

> <i_f3d_flags>
0

> <s_epik_input>
bjFbY0hdW2NIXVtjSF1uMVtDSDJdW0NAQEhdKFtDSDNdKVtOSF1DKD1PKVtOSF1bQ0BASF0yW0NIMl1bQ0gyXVtDQEBIXShbT0hdKVtDSDJdW0NIMl0y

> <s_epik_cmdline>
J2VwaWtfcHl0aG9uJywgJy1waCcsICc3LjAnLCAnLXRuJywgJzgnLCAnLW1hJywgJzIwMCcsICctbWV0YWxfYmluZGluZycsICctaW1hZScsICc8aW5maWxlLm1hZT4nLCAnLW9tYWUnLCAnPG91dGZpbGUubWFlPic=

> <r_lp_tautomer_probability>
1

> <r_epik_Ionization_Penalty>
7.33369e-05

> <r_epik_Ionization_Penalty_Charging>
0

> <r_epik_Ionization_Penalty_Neutral>
7.33369e-05

> <r_epik_State_Penalty>
-0

> <r_epik_Charging_Adjusted_Penalty>
0

> <i_epik_Tot_Q>
0

> <i_epik_Tot_abs_Q>
0

> <r_epik_Metal_State_Penalty>
-0

> <b_epik_Metal_Only>
0

> <s_lp_Force_Field>
OPLS_2005

> <r_lp_Energy>
5.26958

> <b_lp_Chiralities_Consistent>
1

> <s_lp_Variant>
AV-unprocessed.smi:1670-1

> <Gold.Version>
5.8.1

> <Gold.Id.Protein>
6NUR|6NUR_protein|mol2

> <Gold.PLP.Fitness>
46.2208

> <Gold.PLP.PLP>
-33.0427

> <Gold.PLP.part.hbond>
-5.9497

> <Gold.PLP.part.metal>
0.0000

> <Gold.PLP.part.buried>
-3.0804

> <Gold.PLP.part.nonpolar>
-24.6739

> <Gold.PLP.part.repulsive>
0.2245

> <Gold.PLP.ligand.clash>
0.0000

> <Gold.PLP.ligand.torsion>
0.5554

> <Gold.PLP.Chemscore.Hbond>
4.7488

> <Gold.PLP.Chemscore.CHOScore>
0.0000

> <Gold.PLP.Chemscore.Metal>
0.0000

> <Gold.Chemscore.Hbonds>
donor molecule, donor type, donor heavy atom, donor atom, acceptor molecule, acceptor atom, score
      L1  H     9    29       P1  7948  0.88
      L1  H    12    30       P1  7948  1.00
      L1  H    17    37       P1 10186  0.96
      P1  H 10752 10765       L1     8  1.00
      P1  H 10785 10796       L1    17  0.91

> <Gold.PLP.Chemscore.Internal.Correction>
0.0426

> <Gold.Rescore>
     Score         DG    S(hbond)    S(metal)    S(lipo)     H(rot)  DE(clash)    DE(int)     intcor
     18.24     -20.08       3.68        0.00      68.36       2.22       0.10       1.74       ----

> <Gold.Chemscore.Fitness>
18.2368

> <Gold.Chemscore.DG>
-20.0778

> <Gold.Chemscore.ZeroCoef>
-5.4800

> <Gold.Chemscore.Hbond>
3.6792

> <Gold.Chemscore.Metal>
0.0000

> <Gold.Chemscore.Lipo>
68.3638

> <Gold.Chemscore.Internal_Hbond>
0.0000

> <Gold.Chemscore.DEClash>
0.0998

> <Gold.Chemscore.DEInternal>
1.7412

> <Gold.Chemscore.Rot>
2.2224

> <Gold.Chemscore.Internal.Correction>
   9.000000E+99

> <Gold.Chemscore.Hbonds>
donor molecule, donor type, donor heavy atom, donor atom, acceptor molecule, acceptor atom, score
      L1  H     9    29       P1  7948  0.30
      L1  H    12    30       P1  7948  0.43
      L1  H    17    37       P1 10186  0.90
      P1  H 10752 10765       L1     8  0.87
      P1  H 10785 10796       L1    17  0.61

> <Gold.Chemscore.Hbond.Weighted>
-12.2886

> <Gold.Chemscore.Metal.Weighted>
-0.0000

> <Gold.Chemscore.Lipo.Weighted>
-7.9986

> <Gold.Chemscore.Internal_Hbond.Weighted>
0.0000

> <Gold.Chemscore.DEClash.Weighted>
0.0998

> <Gold.Chemscore.DEInternal.Weighted>
1.7412

> <Gold.Chemscore.Rot.Weighted>
5.6893

> <Gold.Chemscore.Internal.Correction.Weighted>
   9.000000E+99

> <Gold.Protein.RotatedTorsions>
[ 6907 6896 6895 6894 ] final  128.27 input  -60.11 | X-H torsion
[ 7974 7965 7964 7962 ] final   48.09 input  175.53 | X-H torsion
[ 8008 7997 7996 7995 ] final  103.23 input   59.86 | X-H torsion
[ 10167 10162 10161 10158 ] final  -11.38 input  -65.29 | X-H torsion
[ 10718 10713 10712 10709 ] final -121.78 input   66.30 | X-H torsion
[ 10763 10752 10751 10750 ] final -169.33 input  -60.55 | X-H torsion
[ 11005 11000 10999 10996 ] final   12.07 input  -57.11 | X-H torsion

> <Gold.Protein.ActiveResidues>
 VAL166  LYS551  ARG553  GLY616  TRP617  ASP618  TYR619  PRO620  LYS621  CYS622 
 ASP623  PHE694  ASN695  SER759  ASP760  ASP761  ALA762  ILE779  LEU786  VAL792 
 PHE793  MET794  SER795  GLU796  ALA797  LYS798  CYS799  TRP800  GLU811  SER814 

> <Gold.Protein.RotatedAtoms>
  152.3735  133.6450  159.6104 H   0  0  0  0  0  0  0  0  0  0  0  0  # atno 6907 bound_to 6896
  150.7686  133.9232  159.3413 H   0  0  0  0  0  0  0  0  0  0  0  0  # atno 6908 bound_to 6896
  151.7051  135.0924  160.0309 H   0  0  0  0  0  0  0  0  0  0  0  0  # atno 6909 bound_to 6896
  146.0237  139.4681  142.9881 H   0  0  0  0  0  0  0  0  0  0  0  0  # atno 7974 bound_to 7965
  156.1465  140.3168  155.8578 H   0  0  0  0  0  0  0  0  0  0  0  0  # atno 8008 bound_to 7997
  155.4055  140.0502  157.3051 H   0  0  0  0  0  0  0  0  0  0  0  0  # atno 8009 bound_to 7997
  154.5020  140.2133  155.9338 H   0  0  0  0  0  0  0  0  0  0  0  0  # atno 8010 bound_to 7997
  140.7137  143.5646  150.9158 H   0  0  0  0  0  0  0  0  0  0  0  0  # atno 10167 bound_to 10162
  156.1365  130.6434  150.9704 H   0  0  0  0  0  0  0  0  0  0  0  0  # atno 10718 bound_to 10713
  154.6534  135.2914  154.9958 H   0  0  0  0  0  0  0  0  0  0  0  0  # atno 10763 bound_to 10752
  154.1043  135.6572  153.4877 H   0  0  0  0  0  0  0  0  0  0  0  0  # atno 10764 bound_to 10752
  153.0389  135.5250  154.7453 H   0  0  0  0  0  0  0  0  0  0  0  0  # atno 10765 bound_to 10752
  140.4961  134.0792  155.7782 H   0  0  0  0  0  0  0  0  0  0  0  0  # atno 11005 bound_to 11000
  145.7152  141.0093  143.1432 LP  0  0  0  0  0  0  0  0  0  0  0  0  # atno 17320 bound_to 7965
  144.7000  139.8804  143.7447 LP  0  0  0  0  0  0  0  0  0  0  0  0  # atno 17321 bound_to 7965
  139.9372  143.6424  152.3062 LP  0  0  0  0  0  0  0  0  0  0  0  0  # atno 17342 bound_to 10162
  139.6896  144.7648  151.1462 LP  0  0  0  0  0  0  0  0  0  0  0  0  # atno 17343 bound_to 10162
  157.6537  131.0893  150.7995 LP  0  0  0  0  0  0  0  0  0  0  0  0  # atno 17370 bound_to 10713
  156.8074  130.4941  149.5361 LP  0  0  0  0  0  0  0  0  0  0  0  0  # atno 17371 bound_to 10713
  141.1459  133.9055  157.2215 LP  0  0  0  0  0  0  0  0  0  0  0  0  # atno 17394 bound_to 11000
  139.9741  135.0119  156.9586 LP  0  0  0  0  0  0  0  0  0  0  0  0  # atno 17395 bound_to 11000

$$$$
