AV-unprocessed.smi:2910|AV-procd|sdf|11175|dock3
  -GOLD-   2272016 63D 1   1.00000     0.00000
 Structure written by MMmdl.
 47 48  0  0  0  0  0  0  0  0  1 V2000
  152.7072  143.5802  161.0331 C   0  0  0  0  0  0  0  0  0  0  0  0
  151.8761  143.0145  159.9198 C   0  0  0  0  0  0  0  0  0  0  0  0
  150.6983  143.5660  159.3370 C   0  0  0  0  0  0  0  0  0  0  0  0
  150.3750  142.6430  158.3803 C   0  0  0  0  0  0  0  0  0  0  0  0
  149.3384  142.6503  157.5007 N   0  0  0  0  0  0  0  0  0  0  0  0
  148.4496  141.6754  157.2422 C   0  0  0  0  0  0  0  0  0  0  0  0
  148.4468  140.5580  157.7591 O   0  0  0  0  0  0  0  0  0  0  0  0
  147.5491  142.0747  156.3310 N   0  0  0  0  0  0  0  0  0  0  0  0
  146.4287  141.2797  155.8203 C   0  0  2  0  0  0  0  0  0  0  0  0
  146.9865  140.1026  154.9847 C   0  0  0  0  0  0  0  0  0  0  0  0
  147.8993  140.5310  153.8220 C   0  0  0  0  0  0  0  0  0  0  0  0
  148.1765  139.4187  152.9989 O   0  0  0  0  0  0  0  0  0  0  0  0
  145.4436  142.1927  155.0334 C   0  0  0  0  0  0  0  0  0  0  0  0
  146.1545  142.9840  153.9046 C   0  0  0  0  0  0  0  0  0  0  0  0
  145.1914  143.8964  153.1291 C   0  0  0  0  0  0  0  0  0  0  0  0
  144.4683  144.8675  154.0695 C   0  0  0  0  0  0  0  0  0  0  0  0
  143.7318  144.0995  155.1737 C   0  0  0  0  0  0  0  0  0  0  0  0
  144.6889  143.1838  155.9542 C   0  0  0  0  0  0  0  0  0  0  0  0
  151.3049  141.6276  158.4099 N   0  0  0  0  0  0  0  0  0  0  0  0
  151.3887  140.4319  157.5940 C   0  0  0  0  0  0  0  0  0  0  0  0
  152.2308  141.8609  159.3650 N   0  0  0  0  0  0  0  0  0  0  0  0
  152.2873  144.5165  161.4012 H   0  0  0  0  0  0  0  0  0  0  0  0
  153.7249  143.7829  160.6987 H   0  0  0  0  0  0  0  0  0  0  0  0
  152.7624  142.8882  161.8738 H   0  0  0  0  0  0  0  0  0  0  0  0
  150.1951  144.4864  159.5920 H   0  0  0  0  0  0  0  0  0  0  0  0
  149.2210  143.5082  156.9824 H   0  0  0  0  0  0  0  0  0  0  0  0
  147.6358  143.0113  155.9643 H   0  0  0  0  0  0  0  0  0  0  0  0
  145.8741  140.8488  156.6559 H   0  0  0  0  0  0  0  0  0  0  0  0
  147.5672  139.4408  155.6257 H   0  0  0  0  0  0  0  0  0  0  0  0
  146.1603  139.5052  154.5965 H   0  0  0  0  0  0  0  0  0  0  0  0
  147.4307  141.3031  153.2119 H   0  0  0  0  0  0  0  0  0  0  0  0
  148.8385  140.9364  154.1996 H   0  0  0  0  0  0  0  0  0  0  0  0
  148.5901  139.7265  152.2067 H   0  0  0  0  0  0  0  0  0  0  0  0
  144.6994  141.5487  154.5620 H   0  0  0  0  0  0  0  0  0  0  0  0
  146.9594  143.5845  154.3306 H   0  0  0  0  0  0  0  0  0  0  0  0
  146.6239  142.3067  153.1913 H   0  0  0  0  0  0  0  0  0  0  0  0
  145.7401  144.4547  152.3701 H   0  0  0  0  0  0  0  0  0  0  0  0
  144.4594  143.2876  152.5967 H   0  0  0  0  0  0  0  0  0  0  0  0
  145.1890  145.5537  154.5158 H   0  0  0  0  0  0  0  0  0  0  0  0
  143.7638  145.4796  153.5056 H   0  0  0  0  0  0  0  0  0  0  0  0
  143.2519  144.8015  155.8561 H   0  0  0  0  0  0  0  0  0  0  0  0
  142.9328  143.5020  154.7330 H   0  0  0  0  0  0  0  0  0  0  0  0
  144.1015  142.6505  156.6999 H   0  0  0  0  0  0  0  0  0  0  0  0
  145.4069  143.7937  156.5042 H   0  0  0  0  0  0  0  0  0  0  0  0
  151.3933  140.7080  156.5394 H   0  0  0  0  0  0  0  0  0  0  0  0
  150.5278  139.7933  157.7926 H   0  0  0  0  0  0  0  0  0  0  0  0
  152.3012  139.8769  157.8170 H   0  0  0  0  0  0  0  0  0  0  0  0
  1  2  1  0  0  0  0
  1 22  1  0  0  0  0
  1 23  1  0  0  0  0
  1 24  1  0  0  0  0
  2 21  2  0  0  0  0
  2  3  1  0  0  0  0
  3  4  2  0  0  0  0
  3 25  1  0  0  0  0
  4  5  1  0  0  0  0
  4 19  1  0  0  0  0
  5  6  1  0  0  0  0
  5 26  1  0  0  0  0
  6  7  2  0  0  0  0
  6  8  1  0  0  0  0
  8  9  1  0  0  0  0
  8 27  1  0  0  0  0
  9 10  1  0  0  0  0
  9 13  1  0  0  0  0
  9 28  1  0  0  0  0
 10 11  1  0  0  0  0
 10 29  1  0  0  0  0
 10 30  1  0  0  0  0
 11 12  1  0  0  0  0
 11 31  1  0  0  0  0
 11 32  1  0  0  0  0
 12 33  1  0  0  0  0
 13 18  1  0  0  0  0
 13 14  1  0  0  0  0
 13 34  1  0  0  0  0
 14 15  1  0  0  0  0
 14 35  1  0  0  0  0
 14 36  1  0  0  0  0
 15 16  1  0  0  0  0
 15 37  1  0  0  0  0
 15 38  1  0  0  0  0
 16 17  1  0  0  0  0
 16 39  1  0  0  0  0
 16 40  1  0  0  0  0
 17 18  1  0  0  0  0
 17 41  1  0  0  0  0
 17 42  1  0  0  0  0
 18 43  1  0  0  0  0
 18 44  1  0  0  0  0
 19 20  1  0  0  0  0
 19 21  1  0  0  0  0
 20 45  1  0  0  0  0
 20 46  1  0  0  0  0
 20 47  1  0  0  0  0
M  END
> <s_m_source_file>
AV-unprocessed.smi

> <i_m_source_file_index>
2910

> <i_lp_mmshare_version>
43012

> <i_f3d_flags>
0

> <s_epik_input>
W0NIM11jMVtjSF1jKG4objEpW0NIM10pW05IXUMoPU8pW05IXVtDQEhdKFtDSDJdW0NIMl1bT0hdKVtDSF0yW0NIMl1bQ0gyXVtDSDJdW0NIMl1bQ0gyXTI=

> <s_epik_cmdline>
J2VwaWtfcHl0aG9uJywgJy1waCcsICc3LjAnLCAnLXRuJywgJzgnLCAnLW1hJywgJzIwMCcsICctbWV0YWxfYmluZGluZycsICctaW1hZScsICc8aW5maWxlLm1hZT4nLCAnLW9tYWUnLCAnPG91dGZpbGUubWFlPic=

> <r_lp_tautomer_probability>
1

> <r_epik_Ionization_Penalty>
0.000101449

> <r_epik_Ionization_Penalty_Charging>
0

> <r_epik_Ionization_Penalty_Neutral>
0.000101449

> <r_epik_State_Penalty>
-0

> <r_epik_Charging_Adjusted_Penalty>
0

> <i_epik_Tot_Q>
0

> <i_epik_Tot_abs_Q>
0

> <r_epik_Metal_State_Penalty>
-0

> <b_epik_Metal_Only>
0

> <s_lp_Force_Field>
OPLS_2005

> <r_lp_Energy>
16.2269

> <b_lp_Chiralities_Consistent>
1

> <s_lp_Variant>
AV-unprocessed.smi:2910-1

> <Gold.Version>
5.8.1

> <Gold.Id.Protein>
6NUR|6NUR_protein|mol2

> <Gold.PLP.Fitness>
44.1254

> <Gold.PLP.PLP>
-36.3506

> <Gold.PLP.part.hbond>
-2.7622

> <Gold.PLP.part.metal>
0.0000

> <Gold.PLP.part.buried>
-6.8984

> <Gold.PLP.part.nonpolar>
-27.4488

> <Gold.PLP.part.repulsive>
0.0629

> <Gold.PLP.ligand.clash>
0.0000

> <Gold.PLP.ligand.torsion>
0.6582

> <Gold.PLP.Chemscore.Hbond>
2.9920

> <Gold.PLP.Chemscore.CHOScore>
0.0000

> <Gold.PLP.Chemscore.Metal>
0.0000

> <Gold.Chemscore.Hbonds>
donor molecule, donor type, donor heavy atom, donor atom, acceptor molecule, acceptor atom, score
      L1  H     5    26       P1  8028  1.00
      L1  H     8    27       P1  8028  0.74
      L1  H    12    33       P1  7957  0.88

> <Gold.PLP.Chemscore.Internal.Correction>
0.1152

> <Gold.Rescore>
     Score         DG    S(hbond)    S(metal)    S(lipo)     H(rot)  DE(clash)    DE(int)     intcor
     15.99     -17.49       2.44        0.00      82.75       2.27       0.11       1.38       ----

> <Gold.Chemscore.Fitness>
15.9947

> <Gold.Chemscore.DG>
-17.4870

> <Gold.Chemscore.ZeroCoef>
-5.4800

> <Gold.Chemscore.Hbond>
2.4393

> <Gold.Chemscore.Metal>
0.0000

> <Gold.Chemscore.Lipo>
82.7518

> <Gold.Chemscore.Internal_Hbond>
0.0000

> <Gold.Chemscore.DEClash>
0.1108

> <Gold.Chemscore.DEInternal>
1.3816

> <Gold.Chemscore.Rot>
2.2743

> <Gold.Chemscore.Internal.Correction>
   9.000000E+99

> <Gold.Chemscore.Hbonds>
donor molecule, donor type, donor heavy atom, donor atom, acceptor molecule, acceptor atom, score
      L1  H     5    26       P1  8028  0.82
      L1  H     8    27       P1  8028  0.16
      L1  H    12    33       P1  7957  0.85

> <Gold.Chemscore.Hbond.Weighted>
-8.1473

> <Gold.Chemscore.Metal.Weighted>
-0.0000

> <Gold.Chemscore.Lipo.Weighted>
-9.6820

> <Gold.Chemscore.Internal_Hbond.Weighted>
0.0000

> <Gold.Chemscore.DEClash.Weighted>
0.1108

> <Gold.Chemscore.DEInternal.Weighted>
1.3816

> <Gold.Chemscore.Rot.Weighted>
5.8223

> <Gold.Chemscore.Internal.Correction.Weighted>
   9.000000E+99

> <Gold.Protein.RotatedTorsions>
[ 6907 6896 6895 6894 ] final   17.38 input  -60.11 | X-H torsion
[ 7974 7965 7964 7962 ] final   67.92 input  175.53 | X-H torsion
[ 8008 7997 7996 7995 ] final -139.62 input   59.86 | X-H torsion
[ 10167 10162 10161 10158 ] final  164.91 input  -65.29 | X-H torsion
[ 10718 10713 10712 10709 ] final -176.34 input   66.30 | X-H torsion
[ 10763 10752 10751 10750 ] final  101.95 input  -60.55 | X-H torsion
[ 11005 11000 10999 10996 ] final  -88.99 input  -57.11 | X-H torsion

> <Gold.Protein.ActiveResidues>
 VAL166  LYS551  ARG553  GLY616  TRP617  ASP618  TYR619  PRO620  LYS621  CYS622 
 ASP623  PHE694  ASN695  SER759  ASP760  ASP761  ALA762  ILE779  LEU786  VAL792 
 PHE793  MET794  SER795  GLU796  ALA797  LYS798  CYS799  TRP800  GLU811  SER814 

> <Gold.Protein.RotatedAtoms>
  151.8487  135.0565  160.0456 H   0  0  0  0  0  0  0  0  0  0  0  0  # atno 6907 bound_to 6896
  152.2753  133.5416  159.5473 H   0  0  0  0  0  0  0  0  0  0  0  0  # atno 6908 bound_to 6896
  150.7168  134.0556  159.3856 H   0  0  0  0  0  0  0  0  0  0  0  0  # atno 6909 bound_to 6896
  145.8088  139.3021  143.1111 H   0  0  0  0  0  0  0  0  0  0  0  0  # atno 7974 bound_to 7965
  155.4479  140.0536  157.3004 H   0  0  0  0  0  0  0  0  0  0  0  0  # atno 8008 bound_to 7997
  154.4790  140.2073  155.9766 H   0  0  0  0  0  0  0  0  0  0  0  0  # atno 8009 bound_to 7997
  156.1176  140.3194  155.8166 H   0  0  0  0  0  0  0  0  0  0  0  0  # atno 8010 bound_to 7997
  139.4896  144.4187  151.9213 H   0  0  0  0  0  0  0  0  0  0  0  0  # atno 10167 bound_to 10162
  156.8133  130.9594  151.3115 H   0  0  0  0  0  0  0  0  0  0  0  0  # atno 10718 bound_to 10713
  153.3333  135.4027  155.1513 H   0  0  0  0  0  0  0  0  0  0  0  0  # atno 10763 bound_to 10752
  154.8628  135.3616  154.5441 H   0  0  0  0  0  0  0  0  0  0  0  0  # atno 10764 bound_to 10752
  153.5881  135.7074  153.5494 H   0  0  0  0  0  0  0  0  0  0  0  0  # atno 10765 bound_to 10752
  141.1592  133.7603  156.9530 H   0  0  0  0  0  0  0  0  0  0  0  0  # atno 11005 bound_to 11000
  145.9799  140.8691  143.0119 LP  0  0  0  0  0  0  0  0  0  0  0  0  # atno 17320 bound_to 7965
  144.6760  140.2066  143.7381 LP  0  0  0  0  0  0  0  0  0  0  0  0  # atno 17321 bound_to 7965
  140.3630  144.2949  150.5930 LP  0  0  0  0  0  0  0  0  0  0  0  0  # atno 17342 bound_to 10162
  140.5386  143.2228  151.8122 LP  0  0  0  0  0  0  0  0  0  0  0  0  # atno 17343 bound_to 10162
  157.6495  130.8872  149.9604 LP  0  0  0  0  0  0  0  0  0  0  0  0  # atno 17370 bound_to 10713
  156.1032  130.3654  150.0181 LP  0  0  0  0  0  0  0  0  0  0  0  0  # atno 17371 bound_to 10713
  140.1244  134.9396  157.2249 LP  0  0  0  0  0  0  0  0  0  0  0  0  # atno 17394 bound_to 11000
  140.3031  134.3109  155.7285 LP  0  0  0  0  0  0  0  0  0  0  0  0  # atno 17395 bound_to 11000

$$$$
