AV-unprocessed.smi:1712|AV-procd|sdf|6902|dock3
  -GOLD-   22720 8103D 1   1.00000     0.00000
 Structure written by MMmdl.
 37 38  0  0  0  0  0  0  0  0  1 V2000
  147.0425  139.4215  151.8766 C   0  0  0  0  0  0  0  0  0  0  0  0
  146.7308  139.4121  153.3952 C   0  0  1  0  0  0  0  0  0  0  0  0
  145.9761  138.0997  153.7528 C   0  0  0  0  0  0  0  0  0  0  0  0
  146.4023  136.9540  152.9517 N   0  0  0  0  0  0  0  0  0  0  0  0
  145.5880  136.0920  152.3253 C   0  0  0  0  0  0  0  0  0  0  0  0
  144.3593  136.1616  152.3615 O   0  0  0  0  0  0  0  0  0  0  0  0
  146.2875  135.1532  151.6673 N   0  0  0  0  0  0  0  0  0  0  0  0
  145.7744  134.0640  150.9184 C   0  0  0  0  0  0  0  0  0  0  0  0
  144.4305  133.9530  150.4692 C   0  0  0  0  0  0  0  0  0  0  0  0
  144.2385  132.8307  149.7907 N   0  0  0  0  0  0  0  0  0  0  0  0
  145.4473  132.2248  149.8019 N   0  0  0  0  0  0  0  0  0  0  0  0
  146.4125  132.9391  150.4767 C   0  0  0  0  0  0  0  0  0  0  0  0
  147.9354  139.6342  154.2305 N   0  0  0  0  0  0  0  0  0  0  0  0
  149.0149  138.6851  153.9337 C   0  0  0  0  0  0  0  0  0  0  0  0
  150.2759  138.9287  154.7807 C   0  0  0  0  0  0  0  0  0  0  0  0
  150.7329  140.2594  154.5865 O   0  0  0  0  0  0  0  0  0  0  0  0
  149.7449  141.2178  154.9384 C   0  0  0  0  0  0  0  0  0  0  0  0
  148.4780  140.9916  154.0953 C   0  0  0  0  0  0  0  0  0  0  0  0
  145.5964  131.3341  149.3493 H   0  0  0  0  0  0  0  0  0  0  0  0
  146.1544  139.2492  151.2703 H   0  0  0  0  0  0  0  0  0  0  0  0
  147.7708  138.6518  151.6185 H   0  0  0  0  0  0  0  0  0  0  0  0
  147.4281  140.3807  151.5354 H   0  0  0  0  0  0  0  0  0  0  0  0
  146.0395  140.2361  153.5796 H   0  0  0  0  0  0  0  0  0  0  0  0
  146.0662  137.8961  154.8212 H   0  0  0  0  0  0  0  0  0  0  0  0
  144.9110  138.1896  153.5492 H   0  0  0  0  0  0  0  0  0  0  0  0
  147.3977  136.8109  152.8653 H   0  0  0  0  0  0  0  0  0  0  0  0
  147.2939  135.2189  151.7137 H   0  0  0  0  0  0  0  0  0  0  0  0
  143.6051  134.6354  150.6096 H   0  0  0  0  0  0  0  0  0  0  0  0
  147.4295  132.5886  150.5732 H   0  0  0  0  0  0  0  0  0  0  0  0
  148.6944  137.6642  154.1327 H   0  0  0  0  0  0  0  0  0  0  0  0
  149.2736  138.7372  152.8751 H   0  0  0  0  0  0  0  0  0  0  0  0
  150.0703  138.7561  155.8383 H   0  0  0  0  0  0  0  0  0  0  0  0
  151.0660  138.2360  154.4911 H   0  0  0  0  0  0  0  0  0  0  0  0
  149.5182  141.1454  156.0032 H   0  0  0  0  0  0  0  0  0  0  0  0
  150.1419  142.2178  154.7636 H   0  0  0  0  0  0  0  0  0  0  0  0
  148.7003  141.1985  153.0475 H   0  0  0  0  0  0  0  0  0  0  0  0
  147.7501  141.7330  154.4184 H   0  0  0  0  0  0  0  0  0  0  0  0
  1  2  1  0  0  0  0
  1 20  1  0  0  0  0
  1 21  1  0  0  0  0
  1 22  1  0  0  0  0
  2  3  1  0  0  0  0
  2 13  1  0  0  0  0
  2 23  1  0  0  0  0
  3  4  1  0  0  0  0
  3 24  1  0  0  0  0
  3 25  1  0  0  0  0
  4  5  1  0  0  0  0
  4 26  1  0  0  0  0
  5  6  2  0  0  0  0
  5  7  1  0  0  0  0
  7  8  1  0  0  0  0
  7 27  1  0  0  0  0
  8 12  2  0  0  0  0
  8  9  1  0  0  0  0
  9 10  2  0  0  0  0
  9 28  1  0  0  0  0
 10 11  1  0  0  0  0
 11 19  1  0  0  0  0
 11 12  1  0  0  0  0
 12 29  1  0  0  0  0
 13 18  1  0  0  0  0
 13 14  1  0  0  0  0
 14 15  1  0  0  0  0
 14 30  1  0  0  0  0
 14 31  1  0  0  0  0
 15 16  1  0  0  0  0
 15 32  1  0  0  0  0
 15 33  1  0  0  0  0
 16 17  1  0  0  0  0
 17 18  1  0  0  0  0
 17 34  1  0  0  0  0
 17 35  1  0  0  0  0
 18 36  1  0  0  0  0
 18 37  1  0  0  0  0
M  END
> <s_m_source_file>
AV-unprocessed.smi

> <i_m_source_file_index>
1712

> <i_lp_mmshare_version>
43012

> <i_f3d_flags>
0

> <s_epik_input>
W0NIMl0xW0NIMl1PW0NIMl1bQ0gyXU4xW0NASF0oW0NIM10pW0NIMl1bTkhdQyg9TylbTkhdYzJbY0hdbltuSF1bY0hdMg==

> <s_epik_cmdline>
J2VwaWtfcHl0aG9uJywgJy1waCcsICc3LjAnLCAnLXRuJywgJzgnLCAnLW1hJywgJzIwMCcsICctbWV0YWxfYmluZGluZycsICctaW1hZScsICc8aW5maWxlLm1hZT4nLCAnLW9tYWUnLCAnPG91dGZpbGUubWFlPic=

> <r_lp_tautomer_probability>
0.5

> <r_epik_Ionization_Penalty>
0.242772

> <r_epik_Ionization_Penalty_Charging>
0

> <r_epik_Ionization_Penalty_Neutral>
0.242772

> <r_epik_State_Penalty>
0.233765

> <r_epik_Charging_Adjusted_Penalty>
0.233765

> <i_epik_Tot_Q>
0

> <i_epik_Tot_abs_Q>
0

> <r_epik_Metal_State_Penalty>
0.233764

> <b_epik_Metal_Only>
0

> <s_lp_Force_Field>
OPLS_2005

> <r_lp_Energy>
31.3121

> <b_lp_Chiralities_Consistent>
1

> <s_lp_Variant>
AV-unprocessed.smi:1712-2

> <Gold.Version>
5.8.1

> <Gold.Id.Protein>
6NUR|6NUR_protein|mol2

> <Gold.PLP.Fitness>
39.7320

> <Gold.PLP.PLP>
-27.4128

> <Gold.PLP.part.hbond>
-3.1503

> <Gold.PLP.part.metal>
0.0000

> <Gold.PLP.part.buried>
0.3770

> <Gold.PLP.part.nonpolar>
-25.2593

> <Gold.PLP.part.repulsive>
0.8416

> <Gold.PLP.ligand.clash>
0.0000

> <Gold.PLP.ligand.torsion>
0.5633

> <Gold.PLP.Chemscore.Hbond>
3.0000

> <Gold.PLP.Chemscore.CHOScore>
1.4654

> <Gold.PLP.Chemscore.Metal>
0.0000

> <Gold.Chemscore.Hbonds>
donor molecule, donor type, donor heavy atom, donor atom, acceptor molecule, acceptor atom, score
      L1  H     4    26       P1  7948  1.00
      L1  H     7    27       P1  7948  1.00
      P1  H  7989  7998       L1    16  1.00
      L1  C     9    28       P1 10186  0.30
      L1  C    12    29       P1 10747  1.00

> <Gold.PLP.Chemscore.Internal.Correction>
0.0495

> <Gold.Rescore>
     Score         DG    S(hbond)    S(metal)    S(lipo)     H(rot)  DE(clash)    DE(int)     intcor
     16.45     -18.49       2.83        0.00      66.11       1.63       0.17       1.88       ----

> <Gold.Chemscore.Fitness>
16.4454

> <Gold.Chemscore.DG>
-18.4873

> <Gold.Chemscore.ZeroCoef>
-5.4800

> <Gold.Chemscore.Hbond>
2.8289

> <Gold.Chemscore.Metal>
0.0000

> <Gold.Chemscore.Lipo>
66.1070

> <Gold.Chemscore.Internal_Hbond>
0.0000

> <Gold.Chemscore.DEClash>
0.1658

> <Gold.Chemscore.DEInternal>
1.8761

> <Gold.Chemscore.Rot>
1.6311

> <Gold.Chemscore.Internal.Correction>
   9.000000E+99

> <Gold.Chemscore.Hbonds>
donor molecule, donor type, donor heavy atom, donor atom, acceptor molecule, acceptor atom, score
      L1  H     4    26       P1  7948  0.95
      L1  H     7    27       P1  7948  0.91
      P1  H  7989  7998       L1    16  0.61

> <Gold.Chemscore.Hbond.Weighted>
-9.4485

> <Gold.Chemscore.Metal.Weighted>
-0.0000

> <Gold.Chemscore.Lipo.Weighted>
-7.7345

> <Gold.Chemscore.Internal_Hbond.Weighted>
0.0000

> <Gold.Chemscore.DEClash.Weighted>
0.1658

> <Gold.Chemscore.DEInternal.Weighted>
1.8761

> <Gold.Chemscore.Rot.Weighted>
4.1757

> <Gold.Chemscore.Internal.Correction.Weighted>
   9.000000E+99

> <Gold.Protein.RotatedTorsions>
[ 6907 6896 6895 6894 ] final -179.63 input  -60.11 | X-H torsion
[ 7974 7965 7964 7962 ] final  -47.30 input  175.53 | X-H torsion
[ 8008 7997 7996 7995 ] final   91.87 input   59.86 | X-H torsion
[ 10167 10162 10161 10158 ] final   65.64 input  -65.29 | X-H torsion
[ 10718 10713 10712 10709 ] final  139.27 input   66.30 | X-H torsion
[ 10763 10752 10751 10750 ] final  -27.49 input  -60.55 | X-H torsion
[ 11005 11000 10999 10996 ] final  172.75 input  -57.11 | X-H torsion

> <Gold.Protein.ActiveResidues>
 VAL166  LYS551  ARG553  GLY616  TRP617  ASP618  TYR619  PRO620  LYS621  CYS622 
 ASP623  PHE694  ASN695  SER759  ASP760  ASP761  ALA762  ILE779  LEU786  VAL792 
 PHE793  MET794  SER795  GLU796  ALA797  LYS798  CYS799  TRP800  GLU811  SER814 

> <Gold.Protein.RotatedAtoms>
  151.6565  133.3318  159.3163 H   0  0  0  0  0  0  0  0  0  0  0  0  # atno 6907 bound_to 6896
  150.7934  134.6980  159.6543 H   0  0  0  0  0  0  0  0  0  0  0  0  # atno 6908 bound_to 6896
  152.4018  134.6278  160.0119 H   0  0  0  0  0  0  0  0  0  0  0  0  # atno 6909 bound_to 6896
  145.9630  140.7460  142.9448 H   0  0  0  0  0  0  0  0  0  0  0  0  # atno 7974 bound_to 7965
  156.0288  140.3332  155.7118 H   0  0  0  0  0  0  0  0  0  0  0  0  # atno 8008 bound_to 7997
  155.5915  140.0646  157.2775 H   0  0  0  0  0  0  0  0  0  0  0  0  # atno 8009 bound_to 7997
  154.4345  140.1826  156.1067 H   0  0  0  0  0  0  0  0  0  0  0  0  # atno 8010 bound_to 7997
  140.1091  144.4834  150.6989 H   0  0  0  0  0  0  0  0  0  0  0  0  # atno 10167 bound_to 10162
  157.4162  131.1033  151.0402 H   0  0  0  0  0  0  0  0  0  0  0  0  # atno 10718 bound_to 10713
  153.7330  135.6937  153.4985 H   0  0  0  0  0  0  0  0  0  0  0  0  # atno 10763 bound_to 10752
  153.2122  135.4399  155.0392 H   0  0  0  0  0  0  0  0  0  0  0  0  # atno 10764 bound_to 10752
  154.8246  135.3440  154.6859 H   0  0  0  0  0  0  0  0  0  0  0  0  # atno 10765 bound_to 10752
  140.3331  134.7341  157.4148 H   0  0  0  0  0  0  0  0  0  0  0  0  # atno 11005 bound_to 11000
  144.6819  140.2623  143.7317 LP  0  0  0  0  0  0  0  0  0  0  0  0  # atno 17320 bound_to 7965
  145.8013  139.1965  143.2046 LP  0  0  0  0  0  0  0  0  0  0  0  0  # atno 17321 bound_to 7965
  140.6936  143.2390  151.5064 LP  0  0  0  0  0  0  0  0  0  0  0  0  # atno 17342 bound_to 10162
  139.5629  144.2113  152.1720 LP  0  0  0  0  0  0  0  0  0  0  0  0  # atno 17343 bound_to 10162
  157.1349  130.6118  149.5539 LP  0  0  0  0  0  0  0  0  0  0  0  0  # atno 17370 bound_to 10713
  155.9866  130.4901  150.7085 LP  0  0  0  0  0  0  0  0  0  0  0  0  # atno 17371 bound_to 10713
  140.0844  134.5687  155.8507 LP  0  0  0  0  0  0  0  0  0  0  0  0  # atno 17394 bound_to 11000
  141.2058  133.6650  156.6204 LP  0  0  0  0  0  0  0  0  0  0  0  0  # atno 17395 bound_to 11000

$$$$
