AV-unprocessed.smi:3060|AV-procd|sdf|11678|dock3
  -GOLD-   2272017 83D 1   1.00000     0.00000
 Structure written by MMmdl.
 42 43  0  0  0  0  0  0  0  0  1 V2000
  152.7641  138.8953  154.7815 C   0  0  0  0  0  0  0  0  0  0  0  0
  151.7684  137.8700  154.2291 C   0  0  0  0  0  0  0  0  0  0  0  0
  150.9929  137.1816  155.3077 C   0  0  0  0  0  0  0  0  0  0  0  0
  151.2052  135.9406  155.7261 N   0  0  0  0  0  0  0  0  0  0  0  0
  150.2463  135.7533  156.7035 N   0  0  0  0  0  0  0  0  0  0  0  0
  149.5050  136.8135  156.8495 N   0  0  0  0  0  0  0  0  0  0  0  0
  149.9624  137.7343  155.9650 N   0  0  0  0  0  0  0  0  0  0  0  0
  149.3425  139.0483  155.8689 C   0  0  0  0  0  0  0  0  0  0  0  0
  150.3395  140.1887  156.1066 C   0  0  0  0  0  0  0  0  0  0  0  0
  150.7941  140.8071  155.1450 O   0  0  0  0  0  0  0  0  0  0  0  0
  150.6891  140.4434  157.3792 N   0  0  0  0  0  0  0  0  0  0  0  0
  151.6201  141.4757  157.8277 C   0  0  0  0  0  0  0  0  0  0  0  0
  151.9093  141.2524  159.3325 C   0  0  0  0  0  0  0  0  0  0  0  0
  153.0393  142.1199  159.9225 C   0  0  0  0  0  0  0  0  0  0  0  0
  152.5801  143.3301  160.7590 C   0  0  0  0  0  0  0  0  0  0  0  0
  151.4219  144.1700  160.1911 C   0  0  0  0  0  0  0  0  0  0  0  0
  151.6978  144.9180  158.8745 C   0  0  0  0  0  0  0  0  0  0  0  0
  151.9586  144.0555  157.6243 C   0  0  0  0  0  0  0  0  0  0  0  0
  151.0177  142.8475  157.4413 C   0  0  0  0  0  0  0  0  0  0  0  0
  153.3098  139.3812  153.9724 H   0  0  0  0  0  0  0  0  0  0  0  0
  153.4939  138.4207  155.4380 H   0  0  0  0  0  0  0  0  0  0  0  0
  152.2534  139.6715  155.3524 H   0  0  0  0  0  0  0  0  0  0  0  0
  151.0648  138.3667  153.5602 H   0  0  0  0  0  0  0  0  0  0  0  0
  152.2906  137.1286  153.6243 H   0  0  0  0  0  0  0  0  0  0  0  0
  148.8876  139.1621  154.8850 H   0  0  0  0  0  0  0  0  0  0  0  0
  148.5331  139.1078  156.5983 H   0  0  0  0  0  0  0  0  0  0  0  0
  150.2661  139.8797  158.1020 H   0  0  0  0  0  0  0  0  0  0  0  0
  152.5566  141.3639  157.2782 H   0  0  0  0  0  0  0  0  0  0  0  0
  150.9977  141.3407  159.9241 H   0  0  0  0  0  0  0  0  0  0  0  0
  152.2175  140.2126  159.4527 H   0  0  0  0  0  0  0  0  0  0  0  0
  153.6411  141.4910  160.5800 H   0  0  0  0  0  0  0  0  0  0  0  0
  153.7348  142.4268  159.1434 H   0  0  0  0  0  0  0  0  0  0  0  0
  152.2658  142.9611  161.7361 H   0  0  0  0  0  0  0  0  0  0  0  0
  153.4375  143.9751  160.9531 H   0  0  0  0  0  0  0  0  0  0  0  0
  150.5212  143.5644  160.1026 H   0  0  0  0  0  0  0  0  0  0  0  0
  151.1689  144.9198  160.9414 H   0  0  0  0  0  0  0  0  0  0  0  0
  150.8315  145.5486  158.6709 H   0  0  0  0  0  0  0  0  0  0  0  0
  152.5326  145.6059  159.0134 H   0  0  0  0  0  0  0  0  0  0  0  0
  151.8431  144.7094  156.7591 H   0  0  0  0  0  0  0  0  0  0  0  0
  152.9997  143.7413  157.5793 H   0  0  0  0  0  0  0  0  0  0  0  0
  150.7684  142.8013  156.3798 H   0  0  0  0  0  0  0  0  0  0  0  0
  150.0636  143.0131  157.9424 H   0  0  0  0  0  0  0  0  0  0  0  0
  1  2  1  0  0  0  0
  1 20  1  0  0  0  0
  1 21  1  0  0  0  0
  1 22  1  0  0  0  0
  2  3  1  0  0  0  0
  2 23  1  0  0  0  0
  2 24  1  0  0  0  0
  3  7  1  0  0  0  0
  3  4  2  0  0  0  0
  4  5  1  0  0  0  0
  5  6  2  0  0  0  0
  6  7  1  0  0  0  0
  7  8  1  0  0  0  0
  8  9  1  0  0  0  0
  8 25  1  0  0  0  0
  8 26  1  0  0  0  0
  9 10  2  0  0  0  0
  9 11  1  0  0  0  0
 11 12  1  0  0  0  0
 11 27  1  0  0  0  0
 12 19  1  0  0  0  0
 12 13  1  0  0  0  0
 12 28  1  0  0  0  0
 13 14  1  0  0  0  0
 13 29  1  0  0  0  0
 13 30  1  0  0  0  0
 14 15  1  0  0  0  0
 14 31  1  0  0  0  0
 14 32  1  0  0  0  0
 15 16  1  0  0  0  0
 15 33  1  0  0  0  0
 15 34  1  0  0  0  0
 16 17  1  0  0  0  0
 16 35  1  0  0  0  0
 16 36  1  0  0  0  0
 17 18  1  0  0  0  0
 17 37  1  0  0  0  0
 17 38  1  0  0  0  0
 18 19  1  0  0  0  0
 18 39  1  0  0  0  0
 18 40  1  0  0  0  0
 19 41  1  0  0  0  0
 19 42  1  0  0  0  0
M  END
> <s_m_source_file>
AV-unprocessed.smi

> <i_m_source_file_index>
3060

> <i_lp_mmshare_version>
43012

> <i_f3d_flags>
0

> <s_epik_input>
W0NIM11bQ0gyXWMxbm5ubjFbQ0gyXUMoPU8pW05IXVtDSF0yW0NIMl1bQ0gyXVtDSDJdW0NIMl1bQ0gyXVtDSDJdW0NIMl0y

> <s_epik_cmdline>
J2VwaWtfcHl0aG9uJywgJy1waCcsICc3LjAnLCAnLXRuJywgJzgnLCAnLW1hJywgJzIwMCcsICctbWV0YWxfYmluZGluZycsICctaW1hZScsICc8aW5maWxlLm1hZT4nLCAnLW9tYWUnLCAnPG91dGZpbGUubWFlPic=

> <r_lp_tautomer_probability>
1

> <r_epik_Ionization_Penalty>
4.54698e-07

> <r_epik_Ionization_Penalty_Charging>
0

> <r_epik_Ionization_Penalty_Neutral>
4.54698e-07

> <r_epik_State_Penalty>
-0

> <r_epik_Charging_Adjusted_Penalty>
0

> <i_epik_Tot_Q>
0

> <i_epik_Tot_abs_Q>
0

> <r_epik_Metal_State_Penalty>
-0

> <b_epik_Metal_Only>
0

> <s_lp_Force_Field>
OPLS_2005

> <r_lp_Energy>
19.51

> <b_lp_Chiralities_Consistent>
1

> <s_lp_Variant>
AV-unprocessed.smi:3060-1

> <Gold.Version>
5.8.1

> <Gold.Id.Protein>
6NUR|6NUR_protein|mol2

> <Gold.PLP.Fitness>
43.3568

> <Gold.PLP.PLP>
-38.9171

> <Gold.PLP.part.hbond>
-2.0000

> <Gold.PLP.part.metal>
0.0000

> <Gold.PLP.part.buried>
-4.3612

> <Gold.PLP.part.nonpolar>
-32.2748

> <Gold.PLP.part.repulsive>
0.1857

> <Gold.PLP.ligand.clash>
0.0000

> <Gold.PLP.ligand.torsion>
0.5182

> <Gold.PLP.Chemscore.Hbond>
1.8160

> <Gold.PLP.Chemscore.CHOScore>
0.0000

> <Gold.PLP.Chemscore.Metal>
0.0000

> <Gold.Chemscore.Hbonds>
donor molecule, donor type, donor heavy atom, donor atom, acceptor molecule, acceptor atom, score
      P1  H  7989  7998       L1    10  0.83
      P1  H 10752 10763       L1     4  0.94

> <Gold.PLP.Chemscore.Internal.Correction>
0.0280

> <Gold.Rescore>
     Score         DG    S(hbond)    S(metal)    S(lipo)     H(rot)  DE(clash)    DE(int)     intcor
     17.89     -18.67       1.65        0.00     102.01       1.66       0.02       0.76       ----

> <Gold.Chemscore.Fitness>
17.8943

> <Gold.Chemscore.DG>
-18.6735

> <Gold.Chemscore.ZeroCoef>
-5.4800

> <Gold.Chemscore.Hbond>
1.6497

> <Gold.Chemscore.Metal>
0.0000

> <Gold.Chemscore.Lipo>
102.0111

> <Gold.Chemscore.Internal_Hbond>
0.0000

> <Gold.Chemscore.DEClash>
0.0186

> <Gold.Chemscore.DEInternal>
0.7605

> <Gold.Chemscore.Rot>
1.6609

> <Gold.Chemscore.Internal.Correction>
   9.000000E+99

> <Gold.Chemscore.Hbonds>
donor molecule, donor type, donor heavy atom, donor atom, acceptor molecule, acceptor atom, score
      P1  H  7989  7998       L1    10  0.81
      P1  H 10752 10763       L1     4  0.23

> <Gold.Chemscore.Hbond.Weighted>
-5.5100

> <Gold.Chemscore.Metal.Weighted>
-0.0000

> <Gold.Chemscore.Lipo.Weighted>
-11.9353

> <Gold.Chemscore.Internal_Hbond.Weighted>
0.0000

> <Gold.Chemscore.DEClash.Weighted>
0.0186

> <Gold.Chemscore.DEInternal.Weighted>
0.7605

> <Gold.Chemscore.Rot.Weighted>
4.2518

> <Gold.Chemscore.Internal.Correction.Weighted>
   9.000000E+99

> <Gold.Protein.RotatedTorsions>
[ 6907 6896 6895 6894 ] final -121.42 input  -60.11 | X-H torsion
[ 7974 7965 7964 7962 ] final  156.88 input  175.53 | X-H torsion
[ 8008 7997 7996 7995 ] final  108.00 input   59.86 | X-H torsion
[ 10167 10162 10161 10158 ] final -147.21 input  -65.29 | X-H torsion
[ 10718 10713 10712 10709 ] final  111.05 input   66.30 | X-H torsion
[ 10763 10752 10751 10750 ] final   68.72 input  -60.55 | X-H torsion
[ 11005 11000 10999 10996 ] final  143.56 input  -57.11 | X-H torsion

> <Gold.Protein.ActiveResidues>
 VAL166  LYS551  ARG553  GLY616  TRP617  ASP618  TYR619  PRO620  LYS621  CYS622 
 ASP623  PHE694  ASN695  SER759  ASP760  ASP761  ALA762  ILE779  LEU786  VAL792 
 PHE793  MET794  SER795  GLU796  ALA797  LYS798  CYS799  TRP800  GLU811  SER814 

> <Gold.Protein.RotatedAtoms>
  150.8482  133.7828  159.3034 H   0  0  0  0  0  0  0  0  0  0  0  0  # atno 6907 bound_to 6896
  151.5508  135.1066  159.9959 H   0  0  0  0  0  0  0  0  0  0  0  0  # atno 6908 bound_to 6896
  152.4531  133.7626  159.6811 H   0  0  0  0  0  0  0  0  0  0  0  0  # atno 6909 bound_to 6896
  144.7936  139.7264  143.6211 H   0  0  0  0  0  0  0  0  0  0  0  0  # atno 7974 bound_to 7965
  156.1869  140.3084  155.9255 H   0  0  0  0  0  0  0  0  0  0  0  0  # atno 8008 bound_to 7997
  155.3261  140.0458  157.3058 H   0  0  0  0  0  0  0  0  0  0  0  0  # atno 8009 bound_to 7997
  154.5406  140.2260  155.8657 H   0  0  0  0  0  0  0  0  0  0  0  0  # atno 8010 bound_to 7997
  139.7642  143.8331  152.2613 H   0  0  0  0  0  0  0  0  0  0  0  0  # atno 10167 bound_to 10162
  157.6464  131.0944  150.6692 H   0  0  0  0  0  0  0  0  0  0  0  0  # atno 10718 bound_to 10713
  153.0250  135.5237  154.7178 H   0  0  0  0  0  0  0  0  0  0  0  0  # atno 10763 bound_to 10752
  154.6242  135.2892  155.0293 H   0  0  0  0  0  0  0  0  0  0  0  0  # atno 10764 bound_to 10752
  154.1268  135.6599  153.4966 H   0  0  0  0  0  0  0  0  0  0  0  0  # atno 10765 bound_to 10752
  140.0564  134.9228  157.1107 H   0  0  0  0  0  0  0  0  0  0  0  0  # atno 11005 bound_to 11000
  146.2197  139.5613  142.9626 LP  0  0  0  0  0  0  0  0  0  0  0  0  # atno 17320 bound_to 7965
  145.5730  141.0392  143.2164 LP  0  0  0  0  0  0  0  0  0  0  0  0  # atno 17321 bound_to 7965
  139.8347  144.7238  150.9406 LP  0  0  0  0  0  0  0  0  0  0  0  0  # atno 17342 bound_to 10162
  140.7809  143.4038  151.1105 LP  0  0  0  0  0  0  0  0  0  0  0  0  # atno 17343 bound_to 10162
  156.7008  130.4623  149.5573 LP  0  0  0  0  0  0  0  0  0  0  0  0  # atno 17370 bound_to 10713
  156.1796  130.6490  151.0936 LP  0  0  0  0  0  0  0  0  0  0  0  0  # atno 17371 bound_to 10713
  140.3838  134.2258  155.7169 LP  0  0  0  0  0  0  0  0  0  0  0  0  # atno 17394 bound_to 11000
  141.1954  133.8107  157.0718 LP  0  0  0  0  0  0  0  0  0  0  0  0  # atno 17395 bound_to 11000

$$$$
