AV-unprocessed.smi:38|AV-procd|sdf|346|dock4
  -GOLD-   2262016183D 1   1.00000     0.00000
 Structure written by MMmdl.
 27 28  0  0  0  0  0  0  0  0  2 V2000
  153.3916  135.4262  158.3454 O   0  0  0  0  0  0  0  0  0  0  0  0
  153.0588  136.4811  157.8069 C   0  0  0  0  0  0  0  0  0  0  0  0
  153.0570  136.6511  156.4532 N   0  5  0  0  0  0  0  0  0  0  0  0
  152.6896  137.8237  155.8576 C   0  0  0  0  0  0  0  0  0  0  0  0
  152.6833  137.9844  154.6369 O   0  0  0  0  0  0  0  0  0  0  0  0
  152.2961  138.9188  156.6753 N   0  0  0  0  0  0  0  0  0  0  0  0
  151.8891  140.2177  156.0066 C   0  0  2  0  0  0  0  0  0  0  0  0
  151.3184  141.2069  157.0398 C   0  0  0  0  0  0  0  0  0  0  0  0
  149.9858  141.6158  156.4376 C   0  0  1  0  0  0  0  0  0  0  0  0
  150.1234  142.7985  155.6720 O   0  0  0  0  0  0  0  0  0  0  0  0
  149.6262  140.4029  155.5716 C   0  0  1  0  0  0  0  0  0  0  0  0
  148.6200  140.6339  154.4306 C   0  0  0  0  0  0  0  0  0  0  0  0
  149.2831  141.1029  153.2752 O   0  0  0  0  0  0  0  0  0  0  0  0
  150.8843  139.9747  155.0634 O   0  0  0  0  0  0  0  0  0  0  0  0
  152.2813  138.7711  158.0535 C   0  0  0  0  0  0  0  0  0  0  0  0
  152.6439  137.6104  158.6369 C   0  0  0  0  0  0  0  0  0  0  0  0
  152.6194  137.4987  159.9764 F   0  0  0  0  0  0  0  0  0  0  0  0
  152.7818  140.5773  155.4920 H   0  0  0  0  0  0  0  0  0  0  0  0
  149.2349  141.7950  157.2076 H   0  0  0  0  0  0  0  0  0  0  0  0
  149.2498  139.6122  156.2229 H   0  0  0  0  0  0  0  0  0  0  0  0
  151.1560  140.6956  157.9899 H   0  0  0  0  0  0  0  0  0  0  0  0
  152.0034  142.0390  157.2081 H   0  0  0  0  0  0  0  0  0  0  0  0
  149.3027  143.2665  155.6956 H   0  0  0  0  0  0  0  0  0  0  0  0
  148.0670  139.7251  154.1936 H   0  0  0  0  0  0  0  0  0  0  0  0
  147.8855  141.3814  154.7314 H   0  0  0  0  0  0  0  0  0  0  0  0
  149.2534  140.4257  152.6167 H   0  0  0  0  0  0  0  0  0  0  0  0
  151.9757  139.5869  158.6900 H   0  0  0  0  0  0  0  0  0  0  0  0
  1  2  2  0  0  0  0
  2 16  1  0  0  0  0
  2  3  1  0  0  0  0
  3  4  1  0  0  0  0
  4  5  2  0  0  0  0
  4  6  1  0  0  0  0
  6  7  1  0  0  0  0
  6 15  1  0  0  0  0
  7 18  1  0  0  0  0
  7 14  1  0  0  0  0
  7  8  1  0  0  0  0
  8  9  1  0  0  0  0
  8 21  1  0  0  0  0
  8 22  1  0  0  0  0
  9 19  1  0  0  0  0
  9 10  1  0  0  0  0
  9 11  1  0  0  0  0
 10 23  1  0  0  0  0
 11 20  1  0  0  0  0
 11 12  1  0  0  0  0
 11 14  1  0  0  0  0
 12 13  1  0  0  0  0
 12 24  1  0  0  0  0
 12 25  1  0  0  0  0
 13 26  1  0  0  0  0
 15 16  2  0  0  0  0
 15 27  1  0  0  0  0
 16 17  1  0  0  0  0
M  CHG  1   3  -1
M  END
> <s_m_source_file>
AV-unprocessed.smi

> <i_m_source_file_index>
38

> <i_lp_mmshare_version>
43012

> <i_f3d_flags>
0

> <s_epik_input>
Tz1jMVtuSF1jKD1PKW4oW2NIXWMxRilbQ0BIXTJbQ0gyXVtDQEhdKFtPSF0pW0NASF0oTzIpW0NIMl1bT0hd

> <s_epik_cmdline>
J2VwaWtfcHl0aG9uJywgJy1waCcsICc3LjAnLCAnLXRuJywgJzgnLCAnLW1hJywgJzIwMCcsICctbWV0YWxfYmluZGluZycsICctaW1hZScsICc8aW5maWxlLm1hZT4nLCAnLW9tYWUnLCAnPG91dGZpbGUubWFlPic=

> <r_epik_Ionization_Penalty>
1.68146

> <r_epik_Ionization_Penalty_Charging>
3.4211e-08

> <r_epik_Ionization_Penalty_Neutral>
1.68146

> <r_epik_State_Penalty>
1.78593

> <r_epik_Charging_Adjusted_Penalty>
1.78593

> <i_epik_Tot_Q>
-1

> <i_epik_Tot_abs_Q>
1

> <r_epik_Metal_State_Penalty>
0.0113696

> <b_epik_Metal_Only>
0

> <s_epik_Chemistry_Notes>
This compound contains an acetal/aminal-like group ( X-CH(R)-Y where X, Y are N, S, or O) that may be acid/base labile, releasing an aldehyde.

> <s_lp_Force_Field>
OPLS_2005

> <r_lp_Energy>
41.2481

> <b_lp_Chiralities_Consistent>
1

> <s_lp_Variant>
AV-unprocessed.smi:38-12

> <Gold.Version>
5.8.1

> <Gold.Id.Protein>
6NUR|6NUR_protein|mol2

> <Gold.PLP.Fitness>
43.5141

> <Gold.PLP.PLP>
-26.4145

> <Gold.PLP.part.hbond>
-6.6780

> <Gold.PLP.part.metal>
0.0000

> <Gold.PLP.part.buried>
-4.4967

> <Gold.PLP.part.nonpolar>
-16.2577

> <Gold.PLP.part.repulsive>
0.0986

> <Gold.PLP.ligand.clash>
0.0000

> <Gold.PLP.ligand.torsion>
0.3835

> <Gold.PLP.Chemscore.Hbond>
5.9543

> <Gold.PLP.Chemscore.CHOScore>
0.0000

> <Gold.PLP.Chemscore.Metal>
0.0000

> <Gold.Chemscore.Hbonds>
donor molecule, donor type, donor heavy atom, donor atom, acceptor molecule, acceptor atom, score
      L1  H    10    23       P1  8028  0.69
      L1  H    13    26       P1  7957  0.91
      P1  H  6896  6909       L1     1  0.50
      P1  H  7989  7998       L1    14  1.00
      P1  H  8011  8017       L1    13  1.00
      P1  H 10752 10764       L1     3  1.86

> <Gold.PLP.Chemscore.Internal.Correction>
0.0037

> <Gold.Rescore>
     Score         DG    S(hbond)    S(metal)    S(lipo)     H(rot)  DE(clash)    DE(int)     intcor
     12.39     -14.56       3.72        0.00      34.51       2.88       0.10       2.06       ----

> <Gold.Chemscore.Fitness>
12.3942

> <Gold.Chemscore.DG>
-14.5562

> <Gold.Chemscore.ZeroCoef>
-5.4800

> <Gold.Chemscore.Hbond>
3.7171

> <Gold.Chemscore.Metal>
0.0000

> <Gold.Chemscore.Lipo>
34.5084

> <Gold.Chemscore.Internal_Hbond>
0.0000

> <Gold.Chemscore.DEClash>
0.1027

> <Gold.Chemscore.DEInternal>
2.0593

> <Gold.Chemscore.Rot>
2.8815

> <Gold.Chemscore.Internal.Correction>
   9.000000E+99

> <Gold.Chemscore.Hbonds>
donor molecule, donor type, donor heavy atom, donor atom, acceptor molecule, acceptor atom, score
      L1  H    10    23       P1  8028  0.65
      L1  H    13    26       P1  7957  0.83
      P1  H  6896  6909       L1     1  0.45
      P1  H  7989  7998       L1    14  0.25
      P1  H  8011  8017       L1    13  0.25
      P1  H 10752 10764       L1     3  0.67

> <Gold.Chemscore.Hbond.Weighted>
-12.4153

> <Gold.Chemscore.Metal.Weighted>
-0.0000

> <Gold.Chemscore.Lipo.Weighted>
-4.0375

> <Gold.Chemscore.Internal_Hbond.Weighted>
0.0000

> <Gold.Chemscore.DEClash.Weighted>
0.1027

> <Gold.Chemscore.DEInternal.Weighted>
2.0593

> <Gold.Chemscore.Rot.Weighted>
7.3765

> <Gold.Chemscore.Internal.Correction.Weighted>
   9.000000E+99

> <Gold.Protein.RotatedTorsions>
[ 6907 6896 6895 6894 ] final -179.19 input  -60.11 | X-H torsion
[ 7974 7965 7964 7962 ] final  -25.88 input  175.53 | X-H torsion
[ 8008 7997 7996 7995 ] final -129.48 input   59.86 | X-H torsion
[ 10167 10162 10161 10158 ] final   97.50 input  -65.29 | X-H torsion
[ 10718 10713 10712 10709 ] final -108.57 input   66.30 | X-H torsion
[ 10763 10752 10751 10750 ] final  -13.19 input  -60.55 | X-H torsion
[ 11005 11000 10999 10996 ] final  -19.21 input  -57.11 | X-H torsion

> <Gold.Protein.ActiveResidues>
 VAL166  LYS551  ARG553  GLY616  TRP617  ASP618  TYR619  PRO620  LYS621  CYS622 
 ASP623  PHE694  ASN695  SER759  ASP760  ASP761  ALA762  ILE779  LEU786  VAL792 
 PHE793  MET794  SER795  GLU796  ALA797  LYS798  CYS799  TRP800  GLU811  SER814 

> <Gold.Protein.RotatedAtoms>
  151.6493  133.3322  159.3147 H   0  0  0  0  0  0  0  0  0  0  0  0  # atno 6907 bound_to 6896
  150.7968  134.7037  159.6574 H   0  0  0  0  0  0  0  0  0  0  0  0  # atno 6908 bound_to 6896
  152.4056  134.6217  160.0104 H   0  0  0  0  0  0  0  0  0  0  0  0  # atno 6909 bound_to 6896
  146.1462  140.4945  142.8631 H   0  0  0  0  0  0  0  0  0  0  0  0  # atno 7974 bound_to 7965
  155.2799  140.0443  157.3014 H   0  0  0  0  0  0  0  0  0  0  0  0  # atno 8008 bound_to 7997
  154.5603  140.2344  155.8314 H   0  0  0  0  0  0  0  0  0  0  0  0  # atno 8009 bound_to 7997
  156.2041  140.3017  155.9597 H   0  0  0  0  0  0  0  0  0  0  0  0  # atno 8010 bound_to 7997
  139.7795  144.6893  151.0042 H   0  0  0  0  0  0  0  0  0  0  0  0  # atno 10167 bound_to 10162
  156.0492  130.5719  150.7979 H   0  0  0  0  0  0  0  0  0  0  0  0  # atno 10718 bound_to 10713
  153.5096  135.7016  153.5788 H   0  0  0  0  0  0  0  0  0  0  0  0  # atno 10763 bound_to 10752
  153.3884  135.3902  155.1906 H   0  0  0  0  0  0  0  0  0  0  0  0  # atno 10764 bound_to 10752
  154.8704  135.3852  154.4574 H   0  0  0  0  0  0  0  0  0  0  0  0  # atno 10765 bound_to 10752
  140.8344  133.7972  155.9793 H   0  0  0  0  0  0  0  0  0  0  0  0  # atno 11005 bound_to 11000
  144.7849  140.5917  143.6580 LP  0  0  0  0  0  0  0  0  0  0  0  0  # atno 17320 bound_to 7965
  145.4931  139.1487  143.3698 LP  0  0  0  0  0  0  0  0  0  0  0  0  # atno 17321 bound_to 7965
  140.7818  143.4498  151.0429 LP  0  0  0  0  0  0  0  0  0  0  0  0  # atno 17342 bound_to 10162
  139.8179  143.7860  152.3175 LP  0  0  0  0  0  0  0  0  0  0  0  0  # atno 17343 bound_to 10162
  157.5401  131.0940  150.9839 LP  0  0  0  0  0  0  0  0  0  0  0  0  # atno 17370 bound_to 10713
  157.0124  130.5642  149.5322 LP  0  0  0  0  0  0  0  0  0  0  0  0  # atno 17371 bound_to 10713
  140.8963  134.2434  157.5067 LP  0  0  0  0  0  0  0  0  0  0  0  0  # atno 17394 bound_to 11000
  139.8704  134.9685  156.4634 LP  0  0  0  0  0  0  0  0  0  0  0  0  # atno 17395 bound_to 11000

$$$$
