AV-unprocessed.smi:994|AV-procd|sdf|4340|dock10
  -GOLD-   22720 2243D 1   1.00000     0.00000
 Structure written by MMmdl.
 38 39  0  0  0  0  0  0  0  0  3 V2000
  148.8596  140.9612  156.7546 O   0  0  0  0  0  0  0  0  0  0  0  0
  150.0730  141.0492  156.9445 C   0  0  0  0  0  0  0  0  0  0  0  0
  150.9803  140.3372  156.2584 N   0  0  0  0  0  0  0  0  0  0  0  0
  150.6792  139.3278  155.2427 C   0  0  1  0  0  0  0  0  0  0  0  0
  150.1816  140.0327  153.9623 C   0  0  0  0  0  0  0  0  0  0  0  0
  148.7196  139.8242  153.6401 C   0  0  0  0  0  0  0  0  0  0  0  0
  147.6271  140.6684  153.7411 C   0  0  0  0  0  0  0  0  0  0  0  0
  146.5143  139.9629  153.3144 N   0  0  0  0  0  0  0  0  0  0  0  0
  146.9367  138.7452  152.9812 C   0  0  0  0  0  0  0  0  0  0  0  0
  148.2496  138.6114  153.1602 N   0  3  0  0  0  0  0  0  0  0  0  0
  151.9615  138.5551  154.9046 C   0  0  0  0  0  0  0  0  0  0  0  0
  153.0238  139.2125  154.8635 O   0  0  0  0  0  0  0  0  0  0  0  0
  151.8625  137.3236  154.7037 O   0  5  0  0  0  0  0  0  0  0  0  0
  150.6232  142.0214  157.9962 C   0  0  0  0  0  0  0  0  0  0  0  0
  151.3308  143.2200  157.3281 C   0  0  0  0  0  0  0  0  0  0  0  0
  151.9065  144.1870  158.3761 C   0  0  0  0  0  0  0  0  0  0  0  0
  152.8567  143.4611  159.3417 C   0  0  0  0  0  0  0  0  0  0  0  0
  152.1618  142.2638  160.0094 C   0  0  0  0  0  0  0  0  0  0  0  0
  151.5869  141.2974  158.9608 C   0  0  0  0  0  0  0  0  0  0  0  0
  145.5653  140.3060  153.2689 H   0  0  0  0  0  0  0  0  0  0  0  0
  151.9538  140.4593  156.4961 H   0  0  0  0  0  0  0  0  0  0  0  0
  149.9184  138.6272  155.5928 H   0  0  0  0  0  0  0  0  0  0  0  0
  150.3625  141.1072  154.0267 H   0  0  0  0  0  0  0  0  0  0  0  0
  150.7515  139.6773  153.1024 H   0  0  0  0  0  0  0  0  0  0  0  0
  147.5408  141.6934  154.0715 H   0  0  0  0  0  0  0  0  0  0  0  0
  146.2932  137.9605  152.6108 H   0  0  0  0  0  0  0  0  0  0  0  0
  149.7846  142.4067  158.5795 H   0  0  0  0  0  0  0  0  0  0  0  0
  152.1383  142.8703  156.6827 H   0  0  0  0  0  0  0  0  0  0  0  0
  150.6328  143.7563  156.6836 H   0  0  0  0  0  0  0  0  0  0  0  0
  152.4336  145.0018  157.8794 H   0  0  0  0  0  0  0  0  0  0  0  0
  151.0915  144.6437  158.9390 H   0  0  0  0  0  0  0  0  0  0  0  0
  153.7365  143.1155  158.7972 H   0  0  0  0  0  0  0  0  0  0  0  0
  153.2162  144.1546  160.1025 H   0  0  0  0  0  0  0  0  0  0  0  0
  152.8666  141.7370  160.6536 H   0  0  0  0  0  0  0  0  0  0  0  0
  151.3590  142.6213  160.6558 H   0  0  0  0  0  0  0  0  0  0  0  0
  151.0693  140.4802  159.4648 H   0  0  0  0  0  0  0  0  0  0  0  0
  152.4083  140.8443  158.4031 H   0  0  0  0  0  0  0  0  0  0  0  0
  148.8008  137.7840  152.9797 H   0  0  0  0  0  0  0  0  0  0  0  0
  1  2  2  0  0  0  0
  2  3  1  0  0  0  0
  2 14  1  0  0  0  0
  3  4  1  0  0  0  0
  3 21  1  0  0  0  0
  4  5  1  0  0  0  0
  4 11  1  0  0  0  0
  4 22  1  0  0  0  0
  5  6  1  0  0  0  0
  5 23  1  0  0  0  0
  5 24  1  0  0  0  0
  6 10  1  0  0  0  0
  6  7  2  0  0  0  0
  7  8  1  0  0  0  0
  7 25  1  0  0  0  0
  8 20  1  0  0  0  0
  8  9  1  0  0  0  0
  9 10  2  0  0  0  0
  9 26  1  0  0  0  0
 10 38  1  0  0  0  0
 11 12  2  0  0  0  0
 11 13  1  0  0  0  0
 14 19  1  0  0  0  0
 14 15  1  0  0  0  0
 14 27  1  0  0  0  0
 15 16  1  0  0  0  0
 15 28  1  0  0  0  0
 15 29  1  0  0  0  0
 16 17  1  0  0  0  0
 16 30  1  0  0  0  0
 16 31  1  0  0  0  0
 17 18  1  0  0  0  0
 17 32  1  0  0  0  0
 17 33  1  0  0  0  0
 18 19  1  0  0  0  0
 18 34  1  0  0  0  0
 18 35  1  0  0  0  0
 19 36  1  0  0  0  0
 19 37  1  0  0  0  0
M  CHG  1  10   1
M  CHG  1  13  -1
M  END
> <s_m_source_file>
AV-unprocessed.smi

> <i_m_source_file_index>
994

> <i_lp_mmshare_version>
43012

> <i_f3d_flags>
0

> <s_epik_input>
W0NIMl0xW0NIMl1bQ0gyXVtDSDJdW0NIMl1bQ0hdMUMoPU8pW05IXVtDQEBIXShDKD1PKVtPSF0pW0NIMl1jMltjSF1bbkhdW2NIXW4y

> <s_epik_cmdline>
J2VwaWtfcHl0aG9uJywgJy1waCcsICc3LjAnLCAnLXRuJywgJzgnLCAnLW1hJywgJzIwMCcsICctbWV0YWxfYmluZGluZycsICctaW1hZScsICc8aW5maWxlLm1hZT4nLCAnLW9tYWUnLCAnPG91dGZpbGUubWFlPic=

> <r_lp_tautomer_probability>
1

> <r_epik_Ionization_Penalty>
0.469853

> <r_epik_Ionization_Penalty_Charging>
5.5863e-05

> <r_epik_Ionization_Penalty_Neutral>
0.469797

> <r_epik_State_Penalty>
0.377582

> <r_epik_Charging_Adjusted_Penalty>
0.377638

> <i_epik_Tot_Q>
0

> <i_epik_Tot_abs_Q>
2

> <r_epik_Metal_State_Penalty>
0.796804

> <b_epik_Metal_Only>
0

> <s_lp_Force_Field>
OPLS_2005

> <r_lp_Energy>
8.41083

> <b_lp_Chiralities_Consistent>
1

> <s_lp_Variant>
AV-unprocessed.smi:994-2

> <Gold.Version>
5.8.1

> <Gold.Id.Protein>
6NUR|6NUR_protein|mol2

> <Gold.PLP.Fitness>
55.1779

> <Gold.PLP.PLP>
-35.8577

> <Gold.PLP.part.hbond>
-5.8219

> <Gold.PLP.part.metal>
0.0000

> <Gold.PLP.part.buried>
2.3611

> <Gold.PLP.part.nonpolar>
-34.2346

> <Gold.PLP.part.repulsive>
0.3478

> <Gold.PLP.ligand.clash>
0.0000

> <Gold.PLP.ligand.torsion>
1.7522

> <Gold.PLP.Chemscore.Hbond>
7.5905

> <Gold.PLP.Chemscore.CHOScore>
0.0000

> <Gold.PLP.Chemscore.Metal>
0.0000

> <Gold.Chemscore.Hbonds>
donor molecule, donor type, donor heavy atom, donor atom, acceptor molecule, acceptor atom, score
      L1  H     8    20       P1 10175  1.92
      L1  H    10    38       P1  7948  1.79
      P1  H  7997  8008       L1    12  2.00
      P1  H 10752 10764       L1    13  1.92

> <Gold.PLP.Chemscore.Internal.Correction>
0.0530

> <Gold.Rescore>
     Score         DG    S(hbond)    S(metal)    S(lipo)     H(rot)  DE(clash)    DE(int)     intcor
     15.35     -21.34       3.49        0.00      95.50       2.72       4.24       1.75       ----

> <Gold.Chemscore.Fitness>
15.3458

> <Gold.Chemscore.DG>
-21.3354

> <Gold.Chemscore.ZeroCoef>
-5.4800

> <Gold.Chemscore.Hbond>
3.4872

> <Gold.Chemscore.Metal>
0.0000

> <Gold.Chemscore.Lipo>
95.4971

> <Gold.Chemscore.Internal_Hbond>
0.0000

> <Gold.Chemscore.DEClash>
4.2422

> <Gold.Chemscore.DEInternal>
1.7474

> <Gold.Chemscore.Rot>
2.7208

> <Gold.Chemscore.Internal.Correction>
   9.000000E+99

> <Gold.Chemscore.Hbonds>
donor molecule, donor type, donor heavy atom, donor atom, acceptor molecule, acceptor atom, score
      L1  H     8    20       P1 10175  0.87
      L1  H    10    38       P1  7948  0.86
      P1  H  7997  8008       L1    12  0.93
      P1  H 10752 10764       L1    13  0.88

> <Gold.Chemscore.Hbond.Weighted>
-11.6474

> <Gold.Chemscore.Metal.Weighted>
-0.0000

> <Gold.Chemscore.Lipo.Weighted>
-11.1732

> <Gold.Chemscore.Internal_Hbond.Weighted>
0.0000

> <Gold.Chemscore.DEClash.Weighted>
4.2422

> <Gold.Chemscore.DEInternal.Weighted>
1.7474

> <Gold.Chemscore.Rot.Weighted>
6.9652

> <Gold.Chemscore.Internal.Correction.Weighted>
   9.000000E+99

> <Gold.Protein.RotatedTorsions>
[ 6907 6896 6895 6894 ] final -135.81 input  -60.11 | X-H torsion
[ 7974 7965 7964 7962 ] final   20.55 input  175.53 | X-H torsion
[ 8008 7997 7996 7995 ] final   -6.65 input   59.86 | X-H torsion
[ 10167 10162 10161 10158 ] final   34.27 input  -65.29 | X-H torsion
[ 10718 10713 10712 10709 ] final  -54.45 input   66.30 | X-H torsion
[ 10763 10752 10751 10750 ] final  -71.56 input  -60.55 | X-H torsion
[ 11005 11000 10999 10996 ] final  127.16 input  -57.11 | X-H torsion

> <Gold.Protein.ActiveResidues>
 VAL166  LYS551  ARG553  GLY616  TRP617  ASP618  TYR619  PRO620  LYS621  CYS622 
 ASP623  PHE694  ASN695  SER759  ASP760  ASP761  ALA762  ILE779  LEU786  VAL792 
 PHE793  MET794  SER795  GLU796  ALA797  LYS798  CYS799  TRP800  GLU811  SER814 

> <Gold.Protein.RotatedAtoms>
  151.0023  133.6044  159.2693 H   0  0  0  0  0  0  0  0  0  0  0  0  # atno 6907 bound_to 6896
  151.3225  135.0821  159.9320 H   0  0  0  0  0  0  0  0  0  0  0  0  # atno 6908 bound_to 6896
  152.5277  133.9668  159.7797 H   0  0  0  0  0  0  0  0  0  0  0  0  # atno 6909 bound_to 6896
  146.2107  139.8154  142.8691 H   0  0  0  0  0  0  0  0  0  0  0  0  # atno 7974 bound_to 7965
  154.5916  140.2427  155.7913 H   0  0  0  0  0  0  0  0  0  0  0  0  # atno 8008 bound_to 7997
  156.2251  140.2985  156.0001 H   0  0  0  0  0  0  0  0  0  0  0  0  # atno 8009 bound_to 7997
  155.2364  140.0405  157.2959 H   0  0  0  0  0  0  0  0  0  0  0  0  # atno 8010 bound_to 7997
  140.4331  144.1296  150.6162 H   0  0  0  0  0  0  0  0  0  0  0  0  # atno 10167 bound_to 10162
  156.1450  130.4153  150.0039 H   0  0  0  0  0  0  0  0  0  0  0  0  # atno 10718 bound_to 10713
  154.4335  135.5958  153.6084 H   0  0  0  0  0  0  0  0  0  0  0  0  # atno 10763 bound_to 10752
  152.9800  135.5981  154.3810 H   0  0  0  0  0  0  0  0  0  0  0  0  # atno 10764 bound_to 10752
  154.3651  135.2841  155.2277 H   0  0  0  0  0  0  0  0  0  0  0  0  # atno 10765 bound_to 10752
  139.9493  134.9625  156.8813 H   0  0  0  0  0  0  0  0  0  0  0  0  # atno 11005 bound_to 11000
  145.3152  141.0230  143.3531 LP  0  0  0  0  0  0  0  0  0  0  0  0  # atno 17320 bound_to 7965
  144.8906  139.4779  143.6679 LP  0  0  0  0  0  0  0  0  0  0  0  0  # atno 17321 bound_to 7965
  140.4405  143.2529  151.9480 LP  0  0  0  0  0  0  0  0  0  0  0  0  # atno 17342 bound_to 10162
  139.4786  144.5659  151.8165 LP  0  0  0  0  0  0  0  0  0  0  0  0  # atno 17343 bound_to 10162
  156.7914  130.9257  151.3646 LP  0  0  0  0  0  0  0  0  0  0  0  0  # atno 17370 bound_to 10713
  157.6609  130.8965  149.9827 LP  0  0  0  0  0  0  0  0  0  0  0  0  # atno 17371 bound_to 10713
  140.5758  134.0399  155.7446 LP  0  0  0  0  0  0  0  0  0  0  0  0  # atno 17394 bound_to 11000
  141.1152  133.9552  157.2836 LP  0  0  0  0  0  0  0  0  0  0  0  0  # atno 17395 bound_to 11000

$$$$
