AV-unprocessed.smi:1385|AV-procd|sdf|5632|dock2
  -GOLD-   22720 5253D 1   1.00000     0.00000
 Structure written by MMmdl.
 38 39  0  0  0  0  0  0  0  0  3 V2000
  152.6248  142.3071  159.4620 C   0  0  0  0  0  0  0  0  0  0  0  0
  152.1371  141.6543  158.2142 C   0  0  0  0  0  0  0  0  0  0  0  0
  152.5847  140.4678  157.7960 N   0  0  0  0  0  0  0  0  0  0  0  0
  151.9809  140.0691  156.6123 N   0  0  0  0  0  0  0  0  0  0  0  0
  151.0799  140.9518  156.1583 C   0  0  0  0  0  0  0  0  0  0  0  0
  150.3876  140.7541  155.0242 N   0  5  0  0  0  0  0  0  0  0  0  0
  149.2149  140.0824  155.0568 C   0  0  0  0  0  0  0  0  0  0  0  0
  148.6127  139.7095  156.0663 O   0  0  0  0  0  0  0  0  0  0  0  0
  148.7099  139.8239  153.8420 N   0  0  0  0  0  0  0  0  0  0  0  0
  147.4676  139.1099  153.5642 C   0  0  2  0  0  0  0  0  0  0  0  0
  147.4341  137.7599  154.3043 C   0  0  0  0  0  0  0  0  0  0  0  0
  146.1823  136.9504  153.9306 C   0  0  0  0  0  0  0  0  0  0  0  0
  146.0966  136.7450  152.4624 N   0  3  1  0  0  0  0  0  0  0  0  0
  144.9780  135.8454  152.0800 C   0  0  0  0  0  0  0  0  0  0  0  0
  145.2309  135.0976  150.7666 C   0  0  0  0  0  0  0  0  0  0  0  0
  145.2710  135.8328  149.6532 N   0  0  0  0  0  0  0  0  0  0  0  0
  145.3727  133.8762  150.7502 O   0  0  0  0  0  0  0  0  0  0  0  0
  146.0812  138.0401  151.7308 C   0  0  0  0  0  0  0  0  0  0  0  0
  147.3339  138.8708  152.0520 C   0  0  0  0  0  0  0  0  0  0  0  0
  150.9226  142.3826  157.1769 S   0  0  0  0  0  0  0  0  0  0  0  0
  152.0454  141.9561  160.3160 H   0  0  0  0  0  0  0  0  0  0  0  0
  152.5196  143.3895  159.3872 H   0  0  0  0  0  0  0  0  0  0  0  0
  153.6759  142.0703  159.6289 H   0  0  0  0  0  0  0  0  0  0  0  0
  149.2387  140.1500  153.0462 H   0  0  0  0  0  0  0  0  0  0  0  0
  146.6236  139.7207  153.8911 H   0  0  0  0  0  0  0  0  0  0  0  0
  148.3264  137.1813  154.0597 H   0  0  0  0  0  0  0  0  0  0  0  0
  147.4564  137.9185  155.3832 H   0  0  0  0  0  0  0  0  0  0  0  0
  146.2189  135.9854  154.4373 H   0  0  0  0  0  0  0  0  0  0  0  0
  145.2840  137.4607  154.2821 H   0  0  0  0  0  0  0  0  0  0  0  0
  144.8401  135.0844  152.8491 H   0  0  0  0  0  0  0  0  0  0  0  0
  144.0455  136.4100  152.0269 H   0  0  0  0  0  0  0  0  0  0  0  0
  145.4372  135.3939  148.7590 H   0  0  0  0  0  0  0  0  0  0  0  0
  145.1370  136.8325  149.7093 H   0  0  0  0  0  0  0  0  0  0  0  0
  146.0361  137.8655  150.6555 H   0  0  0  0  0  0  0  0  0  0  0  0
  145.1830  138.5996  151.9970 H   0  0  0  0  0  0  0  0  0  0  0  0
  147.2886  139.8247  151.5250 H   0  0  0  0  0  0  0  0  0  0  0  0
  148.2176  138.3516  151.6772 H   0  0  0  0  0  0  0  0  0  0  0  0
  146.9448  136.2659  152.1945 H   0  0  0  0  0  0  0  0  0  0  0  0
  1  2  1  0  0  0  0
  1 21  1  0  0  0  0
  1 22  1  0  0  0  0
  1 23  1  0  0  0  0
  2 20  1  0  0  0  0
  2  3  2  0  0  0  0
  3  4  1  0  0  0  0
  4  5  2  0  0  0  0
  5  6  1  0  0  0  0
  5 20  1  0  0  0  0
  6  7  1  0  0  0  0
  7  8  2  0  0  0  0
  7  9  1  0  0  0  0
  9 10  1  0  0  0  0
  9 24  1  0  0  0  0
 10 19  1  0  0  0  0
 10 11  1  0  0  0  0
 10 25  1  0  0  0  0
 11 12  1  0  0  0  0
 11 26  1  0  0  0  0
 11 27  1  0  0  0  0
 12 13  1  0  0  0  0
 12 28  1  0  0  0  0
 12 29  1  0  0  0  0
 13 14  1  0  0  0  0
 13 18  1  0  0  0  0
 13 38  1  0  0  0  0
 14 15  1  0  0  0  0
 14 30  1  0  0  0  0
 14 31  1  0  0  0  0
 15 16  1  0  0  0  0
 15 17  2  0  0  0  0
 16 32  1  0  0  0  0
 16 33  1  0  0  0  0
 18 19  1  0  0  0  0
 18 34  1  0  0  0  0
 18 35  1  0  0  0  0
 19 36  1  0  0  0  0
 19 37  1  0  0  0  0
M  CHG  1   6  -1
M  CHG  1  13   1
M  END
> <s_m_source_file>
AV-unprocessed.smi

> <i_m_source_file_index>
1385

> <i_lp_mmshare_version>
43012

> <i_f3d_flags>
0

> <s_epik_input>
W0NIM11jMW5uYyhzMSlbTkhdQyg9TylbTkhdW0NIXTJbQ0gyXVtDSDJdTihbQ0gyXVtDSDJdMilbQ0gyXUMoPU8pW05IMl0=

> <s_epik_cmdline>
J2VwaWtfcHl0aG9uJywgJy1waCcsICc3LjAnLCAnLXRuJywgJzgnLCAnLW1hJywgJzIwMCcsICctbWV0YWxfYmluZGluZycsICctaW1hZScsICc8aW5maWxlLm1hZT4nLCAnLW9tYWUnLCAnPG91dGZpbGUubWFlPic=

> <r_lp_tautomer_probability>
1

> <r_epik_Ionization_Penalty>
3.90109

> <r_epik_Ionization_Penalty_Charging>
3.79141

> <r_epik_Ionization_Penalty_Neutral>
0.109679

> <r_epik_State_Penalty>
3.87237

> <r_epik_Charging_Adjusted_Penalty>
7.66378

> <i_epik_Tot_Q>
0

> <i_epik_Tot_abs_Q>
2

> <r_epik_Metal_State_Penalty>
1.33354

> <b_epik_Metal_Only>
1

> <s_lp_Force_Field>
OPLS_2005

> <r_lp_Energy>
4.67367

> <b_lp_Chiralities_Consistent>
1

> <s_lp_Variant>
AV-unprocessed.smi:1385-5

> <Gold.Version>
5.8.1

> <Gold.Id.Protein>
6NUR|6NUR_protein|mol2

> <Gold.PLP.Fitness>
45.9480

> <Gold.PLP.PLP>
-27.5337

> <Gold.PLP.part.hbond>
-6.5740

> <Gold.PLP.part.metal>
0.0000

> <Gold.PLP.part.buried>
2.0166

> <Gold.PLP.part.nonpolar>
-23.6909

> <Gold.PLP.part.repulsive>
0.5997

> <Gold.PLP.ligand.clash>
0.0000

> <Gold.PLP.ligand.torsion>
1.1169

> <Gold.PLP.Chemscore.Hbond>
6.8560

> <Gold.PLP.Chemscore.CHOScore>
0.0000

> <Gold.PLP.Chemscore.Metal>
0.0000

> <Gold.Chemscore.Hbonds>
donor molecule, donor type, donor heavy atom, donor atom, acceptor molecule, acceptor atom, score
      L1  H     9    24       P1  7957  0.98
      L1  H    13    38       P1  7948  2.00
      L1  H    16    32       P1  7921  0.76
      L1  H    16    33       P1 10171  0.71
      P1  H  7989  7998       L1     6  0.85
      P1  H  7997  8009       L1     3  0.27

> <Gold.PLP.Chemscore.Internal.Correction>
0.0801

> <Gold.Rescore>
     Score         DG    S(hbond)    S(metal)    S(lipo)     H(rot)  DE(clash)    DE(int)     intcor
     18.68     -22.46       4.49        0.00      61.64       2.04       1.53       2.24       ----

> <Gold.Chemscore.Fitness>
18.6822

> <Gold.Chemscore.DG>
-22.4571

> <Gold.Chemscore.ZeroCoef>
-5.4800

> <Gold.Chemscore.Hbond>
4.4884

> <Gold.Chemscore.Metal>
0.0000

> <Gold.Chemscore.Lipo>
61.6413

> <Gold.Chemscore.Internal_Hbond>
0.0000

> <Gold.Chemscore.DEClash>
1.5333

> <Gold.Chemscore.DEInternal>
2.2416

> <Gold.Chemscore.Rot>
2.0415

> <Gold.Chemscore.Internal.Correction>
   9.000000E+99

> <Gold.Chemscore.Hbonds>
donor molecule, donor type, donor heavy atom, donor atom, acceptor molecule, acceptor atom, score
      L1  H     9    24       P1  7957  0.93
      L1  H    13    38       P1  7948  0.91
      L1  H    16    32       P1  7921  0.74
      L1  H    16    33       P1 10171  0.68
      P1  H  7989  7998       L1     6  0.58
      P1  H  7997  8009       L1     3  0.02

> <Gold.Chemscore.Hbond.Weighted>
-14.9913

> <Gold.Chemscore.Metal.Weighted>
-0.0000

> <Gold.Chemscore.Lipo.Weighted>
-7.2120

> <Gold.Chemscore.Internal_Hbond.Weighted>
0.0000

> <Gold.Chemscore.DEClash.Weighted>
1.5333

> <Gold.Chemscore.DEInternal.Weighted>
2.2416

> <Gold.Chemscore.Rot.Weighted>
5.2262

> <Gold.Chemscore.Internal.Correction.Weighted>
   9.000000E+99

> <Gold.Protein.RotatedTorsions>
[ 6907 6896 6895 6894 ] final   73.86 input  -60.11 | X-H torsion
[ 7974 7965 7964 7962 ] final   -7.31 input  175.53 | X-H torsion
[ 8008 7997 7996 7995 ] final  151.30 input   59.86 | X-H torsion
[ 10167 10162 10161 10158 ] final  119.17 input  -65.29 | X-H torsion
[ 10718 10713 10712 10709 ] final  -30.17 input   66.30 | X-H torsion
[ 10763 10752 10751 10750 ] final   28.54 input  -60.55 | X-H torsion
[ 11005 11000 10999 10996 ] final  -51.77 input  -57.11 | X-H torsion

> <Gold.Protein.ActiveResidues>
 VAL166  LYS551  ARG553  GLY616  TRP617  ASP618  TYR619  PRO620  LYS621  CYS622 
 ASP623  PHE694  ASN695  SER759  ASP760  ASP761  ALA762  ILE779  LEU786  VAL792 
 PHE793  MET794  SER795  GLU796  ALA797  LYS798  CYS799  TRP800  GLU811  SER814 

> <Gold.Protein.RotatedAtoms>
  152.4946  134.4358  159.9526 H   0  0  0  0  0  0  0  0  0  0  0  0  # atno 6907 bound_to 6896
  151.4339  133.3656  159.2780 H   0  0  0  0  0  0  0  0  0  0  0  0  # atno 6908 bound_to 6896
  150.9135  134.8576  159.7501 H   0  0  0  0  0  0  0  0  0  0  0  0  # atno 6909 bound_to 6896
  146.2310  140.2300  142.8340 H   0  0  0  0  0  0  0  0  0  0  0  0  # atno 7974 bound_to 7965
  156.2679  140.2051  156.6154 H   0  0  0  0  0  0  0  0  0  0  0  0  # atno 8008 bound_to 7997
  154.6798  140.0541  157.0278 H   0  0  0  0  0  0  0  0  0  0  0  0  # atno 8009 bound_to 7997
  155.1016  140.3206  155.4548 H   0  0  0  0  0  0  0  0  0  0  0  0  # atno 8010 bound_to 7997
  139.6063  144.7071  151.2945 H   0  0  0  0  0  0  0  0  0  0  0  0  # atno 10167 bound_to 10162
  156.4032  130.4394  149.7307 H   0  0  0  0  0  0  0  0  0  0  0  0  # atno 10718 bound_to 10713
  153.0485  135.6510  154.0754 H   0  0  0  0  0  0  0  0  0  0  0  0  # atno 10763 bound_to 10752
  154.0447  135.2900  155.3351 H   0  0  0  0  0  0  0  0  0  0  0  0  # atno 10764 bound_to 10752
  154.6759  135.5338  153.8264 H   0  0  0  0  0  0  0  0  0  0  0  0  # atno 10765 bound_to 10752
  141.0889  133.6636  156.3927 H   0  0  0  0  0  0  0  0  0  0  0  0  # atno 11005 bound_to 11000
  144.9565  140.8232  143.5540 LP  0  0  0  0  0  0  0  0  0  0  0  0  # atno 17320 bound_to 7965
  145.2266  139.2134  143.5065 LP  0  0  0  0  0  0  0  0  0  0  0  0  # atno 17321 bound_to 7965
  140.7287  143.6927  150.7908 LP  0  0  0  0  0  0  0  0  0  0  0  0  # atno 17342 bound_to 10162
  140.0514  143.5246  152.2672 LP  0  0  0  0  0  0  0  0  0  0  0  0  # atno 17343 bound_to 10162
  156.4315  130.7817  151.2837 LP  0  0  0  0  0  0  0  0  0  0  0  0  # atno 17370 bound_to 10713
  157.7504  131.0152  150.3496 LP  0  0  0  0  0  0  0  0  0  0  0  0  # atno 17371 bound_to 10713
  140.5298  134.6223  157.5346 LP  0  0  0  0  0  0  0  0  0  0  0  0  # atno 17394 bound_to 11000
  139.9711  134.7291  156.0039 LP  0  0  0  0  0  0  0  0  0  0  0  0  # atno 17395 bound_to 11000

$$$$
