AV-unprocessed.smi:1|AV-procd|sdf|19|dock2
  -GOLD-   2262015123D 1   1.00000     0.00000
 Structure written by MMmdl.
 56 61  0  0  0  0  0  0  0  0  2 V2000
  152.9378  140.4514  158.4176 O   0  0  0  0  0  0  0  0  0  0  0  0
  153.1169  140.8145  159.5821 C   0  0  0  0  0  0  0  0  0  0  0  0
  153.7015  140.1203  160.5911 N   0  5  0  0  0  0  0  0  0  0  0  0
  153.7457  138.7802  160.5429 C   0  0  0  0  0  0  0  0  0  0  0  0
  153.5913  138.1313  159.3601 N   0  0  0  0  0  0  0  0  0  0  0  0
  153.6391  136.7946  159.3094 C   0  0  0  0  0  0  0  0  0  0  0  0
  153.8326  135.9219  160.3034 N   0  0  0  0  0  0  0  0  0  0  0  0
  153.9985  136.5655  161.4952 C   0  0  0  0  0  0  0  0  0  0  0  0
  153.9729  137.9759  161.6932 C   0  0  0  0  0  0  0  0  0  0  0  0
  154.1828  138.2868  163.0292 N   0  0  0  0  0  0  0  0  0  0  0  0
  154.3219  137.0771  163.5694 C   0  0  0  0  0  0  0  0  0  0  0  0
  154.2299  136.0157  162.7419 N   0  0  0  0  0  0  0  0  0  0  0  0
  154.3478  134.5610  163.0537 C   0  0  2  0  0  0  0  0  0  0  0  0
  154.5086  134.4092  164.4287 O   0  0  0  0  0  0  0  0  0  0  0  0
  155.1964  133.1877  164.6474 C   0  0  2  0  0  0  0  0  0  0  0  0
  155.7290  133.0942  166.0834 C   0  0  0  0  0  0  0  0  0  0  0  0
  155.9456  131.7288  166.4018 O   0  0  0  0  0  0  0  0  0  0  0  0
  156.8224  131.3841  167.3642 C   0  0  0  0  0  0  0  0  0  0  0  0
  157.5337  132.1931  167.9630 O   0  0  0  0  0  0  0  0  0  0  0  0
  156.8499  129.9151  167.6204 C   0  0  0  0  0  0  0  0  0  0  0  0
  155.9895  129.0668  166.8850 C   0  0  0  0  0  0  0  0  0  0  0  0
  155.9865  127.6767  167.1123 C   0  0  0  0  0  0  0  0  0  0  0  0
  156.8459  127.1176  168.0759 C   0  0  0  0  0  0  0  0  0  0  0  0
  157.7088  127.9502  168.8118 C   0  0  0  0  0  0  0  0  0  0  0  0
  157.7120  129.3408  168.5873 C   0  0  0  0  0  0  0  0  0  0  0  0
  156.2659  133.1955  163.5514 C   0  0  2  0  0  0  0  0  0  0  0  0
  157.3908  133.9524  163.9673 O   0  0  0  0  0  0  0  0  0  0  0  0
  157.7819  135.0585  162.7804 S   0  0  0  0  0  0  0  0  0  0  0  0
  157.7270  136.4041  163.3712 O   0  0  0  0  0  0  0  0  0  0  0  0
  158.9634  134.5588  162.0606 O   0  0  0  0  0  0  0  0  0  0  0  0
  156.4499  134.8593  161.7939 O   0  0  0  0  0  0  0  0  0  0  0  0
  155.5721  133.9098  162.3793 C   0  0  2  0  0  0  0  0  0  0  0  0
  152.7200  142.2120  159.9755 C   0  0  0  0  0  0  0  0  0  0  0  0
  152.7046  142.5782  161.3410 C   0  0  0  0  0  0  0  0  0  0  0  0
  152.3575  143.8875  161.7277 C   0  0  0  0  0  0  0  0  0  0  0  0
  152.0319  144.8480  160.7519 C   0  0  0  0  0  0  0  0  0  0  0  0
  152.0580  144.4994  159.3885 C   0  0  0  0  0  0  0  0  0  0  0  0
  152.4046  143.1902  159.0009 C   0  0  0  0  0  0  0  0  0  0  0  0
  153.5036  136.3620  158.3294 H   0  0  0  0  0  0  0  0  0  0  0  0
  154.5081  136.9585  164.6267 H   0  0  0  0  0  0  0  0  0  0  0  0
  153.4009  134.1238  162.7329 H   0  0  0  0  0  0  0  0  0  0  0  0
  154.4946  132.3716  164.4638 H   0  0  0  0  0  0  0  0  0  0  0  0
  156.6511  133.6696  166.1791 H   0  0  0  0  0  0  0  0  0  0  0  0
  155.0081  133.5170  166.7838 H   0  0  0  0  0  0  0  0  0  0  0  0
  155.3187  129.4736  166.1418 H   0  0  0  0  0  0  0  0  0  0  0  0
  155.3227  127.0393  166.5471 H   0  0  0  0  0  0  0  0  0  0  0  0
  156.8427  126.0519  168.2509 H   0  0  0  0  0  0  0  0  0  0  0  0
  158.3696  127.5221  169.5512 H   0  0  0  0  0  0  0  0  0  0  0  0
  158.3864  129.9509  169.1701 H   0  0  0  0  0  0  0  0  0  0  0  0
  156.5944  132.1897  163.2885 H   0  0  0  0  0  0  0  0  0  0  0  0
  155.2228  133.2039  161.6253 H   0  0  0  0  0  0  0  0  0  0  0  0
  152.9530  141.8528  162.1024 H   0  0  0  0  0  0  0  0  0  0  0  0
  152.3426  144.1544  162.7740 H   0  0  0  0  0  0  0  0  0  0  0  0
  151.7664  145.8518  161.0481 H   0  0  0  0  0  0  0  0  0  0  0  0
  151.8141  145.2366  158.6381 H   0  0  0  0  0  0  0  0  0  0  0  0
  152.4281  142.9455  157.9487 H   0  0  0  0  0  0  0  0  0  0  0  0
  1  2  2  0  0  0  0
  2  3  1  0  0  0  0
  2 33  1  0  0  0  0
  3  4  1  0  0  0  0
  4  9  1  0  0  0  0
  4  5  2  0  0  0  0
  5  6  1  0  0  0  0
  6  7  2  0  0  0  0
  6 39  1  0  0  0  0
  7  8  1  0  0  0  0
  8 12  1  0  0  0  0
  8  9  2  0  0  0  0
  9 10  1  0  0  0  0
 10 11  2  0  0  0  0
 11 12  1  0  0  0  0
 11 40  1  0  0  0  0
 12 13  1  0  0  0  0
 13 32  1  0  0  0  0
 13 14  1  0  0  0  0
 13 41  1  0  0  0  0
 14 15  1  0  0  0  0
 15 16  1  0  0  0  0
 15 26  1  0  0  0  0
 15 42  1  0  0  0  0
 16 17  1  0  0  0  0
 16 43  1  0  0  0  0
 16 44  1  0  0  0  0
 17 18  1  0  0  0  0
 18 19  2  0  0  0  0
 18 20  1  0  0  0  0
 20 25  1  0  0  0  0
 20 21  2  0  0  0  0
 21 22  1  0  0  0  0
 21 45  1  0  0  0  0
 22 23  2  0  0  0  0
 22 46  1  0  0  0  0
 23 24  1  0  0  0  0
 23 47  1  0  0  0  0
 24 25  2  0  0  0  0
 24 48  1  0  0  0  0
 25 49  1  0  0  0  0
 26 32  1  0  0  0  0
 26 27  1  0  0  0  0
 26 50  1  0  0  0  0
 27 28  1  0  0  0  0
 28 29  2  0  0  0  0
 28 30  2  0  0  0  0
 28 31  1  0  0  0  0
 31 32  1  0  0  0  0
 32 51  1  0  0  0  0
 33 38  1  0  0  0  0
 33 34  2  0  0  0  0
 34 35  1  0  0  0  0
 34 52  1  0  0  0  0
 35 36  2  0  0  0  0
 35 53  1  0  0  0  0
 36 37  1  0  0  0  0
 36 54  1  0  0  0  0
 37 38  2  0  0  0  0
 37 55  1  0  0  0  0
 38 56  1  0  0  0  0
M  CHG  1   3  -1
M  END
> <s_m_source_file>
AV-unprocessed.smi

> <i_m_source_file_index>
1

> <i_lp_mmshare_version>
43012

> <i_f3d_flags>
0

> <s_epik_input>
W2NIXTFbY0hdW2NIXVtjSF1bY0hdYzFDKD1PKVtOSF1jKG5bY0hdbjIpYyhjMjMpbltjSF1uM1tDQEBIXShbQ0BIXShbQ0BIXTQ1KU9TKE81KSg9Tyk9TylPW0NASF00W0NIMl1PQyg9TyljNltjSF1bY0hdW2NIXVtjSF1bY0hdNg==

> <s_epik_cmdline>
J2VwaWtfcHl0aG9uJywgJy1waCcsICc3LjAnLCAnLXRuJywgJzgnLCAnLW1hJywgJzIwMCcsICctbWV0YWxfYmluZGluZycsICctaW1hZScsICc8aW5maWxlLm1hZT4nLCAnLW9tYWUnLCAnPG91dGZpbGUubWFlPic=

> <r_lp_tautomer_probability>
1

> <r_epik_Ionization_Penalty>
4.39121

> <r_epik_Ionization_Penalty_Charging>
3.39398

> <r_epik_Ionization_Penalty_Neutral>
0.997232

> <r_epik_State_Penalty>
3.39839

> <r_epik_Charging_Adjusted_Penalty>
6.79237

> <i_epik_Tot_Q>
-1

> <i_epik_Tot_abs_Q>
1

> <r_epik_Metal_State_Penalty>
0.497663

> <b_epik_Metal_Only>
1

> <s_epik_Chemistry_Notes>
This compound has an ester and may undergo hydrolysis at high or low pH. This compound contains an acetal/aminal-like group ( X-CH(R)-Y where X, Y are N, S, or O) that may be acid/base labile, releasing an aldehyde.

> <s_lp_Force_Field>
OPLS_2005

> <r_lp_Energy>
44.2661

> <b_lp_Chiralities_Consistent>
1

> <s_lp_Variant>
AV-unprocessed.smi:1-19

> <Gold.Version>
5.8.1

> <Gold.Id.Protein>
6NUR|6NUR_protein|mol2

> <Gold.PLP.Fitness>
62.7067

> <Gold.PLP.PLP>
-57.7041

> <Gold.PLP.part.hbond>
-2.0000

> <Gold.PLP.part.metal>
0.0000

> <Gold.PLP.part.buried>
-5.2474

> <Gold.PLP.part.nonpolar>
-49.8160

> <Gold.PLP.part.repulsive>
0.1002

> <Gold.PLP.ligand.clash>
0.0000

> <Gold.PLP.ligand.torsion>
0.6879

> <Gold.PLP.Chemscore.Hbond>
1.8640

> <Gold.PLP.Chemscore.CHOScore>
0.0000

> <Gold.PLP.Chemscore.Metal>
0.0000

> <Gold.Chemscore.Hbonds>
donor molecule, donor type, donor heavy atom, donor atom, acceptor molecule, acceptor atom, score
      P1  H  6896  6908       L1     7  1.00
      P1  H  7997  8010       L1     1  0.51

> <Gold.PLP.Chemscore.Internal.Correction>
0.7865

> <Gold.Rescore>
     Score         DG    S(hbond)    S(metal)    S(lipo)     H(rot)  DE(clash)    DE(int)     intcor
     16.15     -19.91       1.38        0.00     130.36       2.11       0.39       3.38       ----

> <Gold.Chemscore.Fitness>
16.1468

> <Gold.Chemscore.DG>
-19.9141

> <Gold.Chemscore.ZeroCoef>
-5.4800

> <Gold.Chemscore.Hbond>
1.3752

> <Gold.Chemscore.Metal>
0.0000

> <Gold.Chemscore.Lipo>
130.3551

> <Gold.Chemscore.Internal_Hbond>
0.0000

> <Gold.Chemscore.DEClash>
0.3888

> <Gold.Chemscore.DEInternal>
3.3786

> <Gold.Chemscore.Rot>
2.1136

> <Gold.Chemscore.Internal.Correction>
   9.000000E+99

> <Gold.Chemscore.Hbonds>
donor molecule, donor type, donor heavy atom, donor atom, acceptor molecule, acceptor atom, score
      P1  H  6896  6908       L1     7  0.25
      P1  H  7997  8010       L1     1  0.50

> <Gold.Chemscore.Hbond.Weighted>
-4.5933

> <Gold.Chemscore.Metal.Weighted>
-0.0000

> <Gold.Chemscore.Lipo.Weighted>
-15.2515

> <Gold.Chemscore.Internal_Hbond.Weighted>
0.0000

> <Gold.Chemscore.DEClash.Weighted>
0.3888

> <Gold.Chemscore.DEInternal.Weighted>
3.3786

> <Gold.Chemscore.Rot.Weighted>
5.4107

> <Gold.Chemscore.Internal.Correction.Weighted>
   9.000000E+99

> <Gold.Protein.RotatedTorsions>
[ 6907 6896 6895 6894 ] final  -68.36 input  -60.11 | X-H torsion
[ 7974 7965 7964 7962 ] final   80.31 input  175.53 | X-H torsion
[ 8008 7997 7996 7995 ] final   38.68 input   59.86 | X-H torsion
[ 10167 10162 10161 10158 ] final   16.29 input  -65.29 | X-H torsion
[ 10718 10713 10712 10709 ] final  -30.72 input   66.30 | X-H torsion
[ 10763 10752 10751 10750 ] final -153.50 input  -60.55 | X-H torsion
[ 11005 11000 10999 10996 ] final   71.77 input  -57.11 | X-H torsion

> <Gold.Protein.ActiveResidues>
 VAL166  LYS551  ARG553  GLY616  TRP617  ASP618  TYR619  PRO620  LYS621  CYS622 
 ASP623  PHE694  ASN695  SER759  ASP760  ASP761  ALA762  ILE779  LEU786  VAL792 
 PHE793  MET794  SER795  GLU796  ALA797  LYS798  CYS799  TRP800  GLU811  SER814 

> <Gold.Protein.RotatedAtoms>
  150.7360  134.5750  159.5909 H   0  0  0  0  0  0  0  0  0  0  0  0  # atno 6907 bound_to 6896
  152.3179  134.7414  160.0330 H   0  0  0  0  0  0  0  0  0  0  0  0  # atno 6908 bound_to 6896
  151.7939  133.3326  159.3544 H   0  0  0  0  0  0  0  0  0  0  0  0  # atno 6909 bound_to 6896
  145.6529  139.2452  143.1966 H   0  0  0  0  0  0  0  0  0  0  0  0  # atno 7974 bound_to 7965
  155.2242  140.3333  155.4311 H   0  0  0  0  0  0  0  0  0  0  0  0  # atno 8008 bound_to 7997
  156.2321  140.1855  156.7262 H   0  0  0  0  0  0  0  0  0  0  0  0  # atno 8009 bound_to 7997
  154.5996  140.0625  156.9335 H   0  0  0  0  0  0  0  0  0  0  0  0  # atno 8010 bound_to 7997
  140.5807  143.8986  150.6787 H   0  0  0  0  0  0  0  0  0  0  0  0  # atno 10167 bound_to 10162
  156.3963  130.4382  149.7356 H   0  0  0  0  0  0  0  0  0  0  0  0  # atno 10718 bound_to 10713
  154.7923  135.3211  154.7748 H   0  0  0  0  0  0  0  0  0  0  0  0  # atno 10763 bound_to 10752
  153.8434  135.6869  153.4804 H   0  0  0  0  0  0  0  0  0  0  0  0  # atno 10764 bound_to 10752
  153.1599  135.4665  154.9698 H   0  0  0  0  0  0  0  0  0  0  0  0  # atno 10765 bound_to 10752
  139.9526  134.7200  156.0827 H   0  0  0  0  0  0  0  0  0  0  0  0  # atno 11005 bound_to 11000
  146.1189  140.7334  142.9467 LP  0  0  0  0  0  0  0  0  0  0  0  0  # atno 17320 bound_to 7965
  144.7116  140.4060  143.7076 LP  0  0  0  0  0  0  0  0  0  0  0  0  # atno 17321 bound_to 7965
  140.2484  143.3611  152.1426 LP  0  0  0  0  0  0  0  0  0  0  0  0  # atno 17342 bound_to 10162
  139.5168  144.6983  151.5567 LP  0  0  0  0  0  0  0  0  0  0  0  0  # atno 17343 bound_to 10162
  156.4390  130.7852  151.2873 LP  0  0  0  0  0  0  0  0  0  0  0  0  # atno 17370 bound_to 10713
  157.7502  131.0130  150.3409 LP  0  0  0  0  0  0  0  0  0  0  0  0  # atno 17371 bound_to 10713
  141.1191  133.6618  156.3170 LP  0  0  0  0  0  0  0  0  0  0  0  0  # atno 17394 bound_to 11000
  140.5684  134.5865  157.5451 LP  0  0  0  0  0  0  0  0  0  0  0  0  # atno 17395 bound_to 11000

$$$$
