AV-unprocessed.smi:1794|AV-procd|sdf|7232|dock10
  -GOLD-   22720 8473D 1   1.00000     0.00000
 Structure written by MMmdl.
 54 56  0  0  0  0  0  0  0  0  1 V2000
  151.4391  138.2966  154.4765 C   0  0  0  0  0  0  0  0  0  0  0  0
  150.1187  138.4500  155.2741 C   0  0  0  0  0  0  0  0  0  0  0  0
  148.9968  138.7472  154.2499 C   0  0  0  0  0  0  0  0  0  0  0  0
  149.8202  137.0536  155.8930 C   0  0  0  0  0  0  0  0  0  0  0  0
  149.3589  136.0927  154.8918 N   0  0  0  0  0  0  0  0  0  0  0  0
  149.1933  134.7767  155.0810 C   0  0  0  0  0  0  0  0  0  0  0  0
  149.4413  134.2017  156.1404 O   0  0  0  0  0  0  0  0  0  0  0  0
  148.7358  134.1876  153.9637 N   0  0  0  0  0  0  0  0  0  0  0  0
  148.4985  132.8053  153.7151 C   0  0  0  0  0  0  0  0  0  0  0  0
  149.3121  131.7720  154.2410 C   0  0  0  0  0  0  0  0  0  0  0  0
  148.9921  130.4331  153.9511 C   0  0  0  0  0  0  0  0  0  0  0  0
  147.8633  130.1722  153.1540 C   0  0  0  0  0  0  0  0  0  0  0  0
  147.0685  131.1428  152.6596 N   0  0  0  0  0  0  0  0  0  0  0  0
  147.3731  132.4347  152.9345 C   0  0  0  0  0  0  0  0  0  0  0  0
  146.5245  133.4297  152.4172 N   0  0  0  0  0  0  0  0  0  0  0  0
  146.3583  133.4399  150.9738 C   0  0  0  0  0  0  0  0  0  0  0  0
  145.1563  134.3508  150.7177 C   0  0  0  0  0  0  0  0  0  0  0  0
  144.3512  134.3123  152.0229 C   0  0  0  0  0  0  0  0  0  0  0  0
  145.1844  133.4524  152.9787 C   0  0  0  0  0  0  0  0  0  0  0  0
  150.2450  139.5026  156.3217 N   0  0  0  0  0  0  0  0  0  0  0  0
  150.4323  140.8655  155.8094 C   0  0  0  0  0  0  0  0  0  0  0  0
  150.4315  141.9121  156.9367 C   0  0  0  0  0  0  0  0  0  0  0  0
  151.4415  141.5943  157.8861 O   0  0  0  0  0  0  0  0  0  0  0  0
  151.2643  140.3021  158.4533 C   0  0  0  0  0  0  0  0  0  0  0  0
  151.2693  139.2409  157.3397 C   0  0  0  0  0  0  0  0  0  0  0  0
  151.4167  137.4174  153.8317 H   0  0  0  0  0  0  0  0  0  0  0  0
  152.2996  138.1903  155.1381 H   0  0  0  0  0  0  0  0  0  0  0  0
  151.6296  139.1474  153.8225 H   0  0  0  0  0  0  0  0  0  0  0  0
  148.9418  137.9644  153.4925 H   0  0  0  0  0  0  0  0  0  0  0  0
  149.1611  139.6842  153.7184 H   0  0  0  0  0  0  0  0  0  0  0  0
  148.0144  138.7989  154.7189 H   0  0  0  0  0  0  0  0  0  0  0  0
  150.7032  136.6386  156.3781 H   0  0  0  0  0  0  0  0  0  0  0  0
  149.0901  137.1552  156.6982 H   0  0  0  0  0  0  0  0  0  0  0  0
  149.1234  136.4717  153.9863 H   0  0  0  0  0  0  0  0  0  0  0  0
  148.6420  134.7874  153.1570 H   0  0  0  0  0  0  0  0  0  0  0  0
  150.1640  131.9768  154.8703 H   0  0  0  0  0  0  0  0  0  0  0  0
  149.5957  129.6245  154.3357 H   0  0  0  0  0  0  0  0  0  0  0  0
  147.5866  129.1565  152.9137 H   0  0  0  0  0  0  0  0  0  0  0  0
  147.2556  133.8094  150.4763 H   0  0  0  0  0  0  0  0  0  0  0  0
  146.1535  132.4351  150.6016 H   0  0  0  0  0  0  0  0  0  0  0  0
  145.4931  135.3698  150.5229 H   0  0  0  0  0  0  0  0  0  0  0  0
  144.5741  134.0223  149.8562 H   0  0  0  0  0  0  0  0  0  0  0  0
  144.2329  135.3216  152.4191 H   0  0  0  0  0  0  0  0  0  0  0  0
  143.3550  133.8927  151.8799 H   0  0  0  0  0  0  0  0  0  0  0  0
  144.7750  132.4426  153.0299 H   0  0  0  0  0  0  0  0  0  0  0  0
  145.1902  133.8649  153.9880 H   0  0  0  0  0  0  0  0  0  0  0  0
  151.3733  140.9379  155.2637 H   0  0  0  0  0  0  0  0  0  0  0  0
  149.6403  141.1326  155.1123 H   0  0  0  0  0  0  0  0  0  0  0  0
  150.6239  142.9057  156.5317 H   0  0  0  0  0  0  0  0  0  0  0  0
  149.4576  141.9497  157.4276 H   0  0  0  0  0  0  0  0  0  0  0  0
  152.0705  140.1109  159.1616 H   0  0  0  0  0  0  0  0  0  0  0  0
  150.3292  140.2679  159.0147 H   0  0  0  0  0  0  0  0  0  0  0  0
  151.1142  138.2704  157.8074 H   0  0  0  0  0  0  0  0  0  0  0  0
  152.2588  139.2186  156.8828 H   0  0  0  0  0  0  0  0  0  0  0  0
  1  2  1  0  0  0  0
  1 26  1  0  0  0  0
  1 27  1  0  0  0  0
  1 28  1  0  0  0  0
  2  3  1  0  0  0  0
  2  4  1  0  0  0  0
  2 20  1  0  0  0  0
  3 29  1  0  0  0  0
  3 30  1  0  0  0  0
  3 31  1  0  0  0  0
  4  5  1  0  0  0  0
  4 32  1  0  0  0  0
  4 33  1  0  0  0  0
  5  6  1  0  0  0  0
  5 34  1  0  0  0  0
  6  7  2  0  0  0  0
  6  8  1  0  0  0  0
  8  9  1  0  0  0  0
  8 35  1  0  0  0  0
  9 14  1  0  0  0  0
  9 10  2  0  0  0  0
 10 11  1  0  0  0  0
 10 36  1  0  0  0  0
 11 12  2  0  0  0  0
 11 37  1  0  0  0  0
 12 13  1  0  0  0  0
 12 38  1  0  0  0  0
 13 14  2  0  0  0  0
 14 15  1  0  0  0  0
 15 19  1  0  0  0  0
 15 16  1  0  0  0  0
 16 17  1  0  0  0  0
 16 39  1  0  0  0  0
 16 40  1  0  0  0  0
 17 18  1  0  0  0  0
 17 41  1  0  0  0  0
 17 42  1  0  0  0  0
 18 19  1  0  0  0  0
 18 43  1  0  0  0  0
 18 44  1  0  0  0  0
 19 45  1  0  0  0  0
 19 46  1  0  0  0  0
 20 25  1  0  0  0  0
 20 21  1  0  0  0  0
 21 22  1  0  0  0  0
 21 47  1  0  0  0  0
 21 48  1  0  0  0  0
 22 23  1  0  0  0  0
 22 49  1  0  0  0  0
 22 50  1  0  0  0  0
 23 24  1  0  0  0  0
 24 25  1  0  0  0  0
 24 51  1  0  0  0  0
 24 52  1  0  0  0  0
 25 53  1  0  0  0  0
 25 54  1  0  0  0  0
M  END
> <s_m_source_file>
AV-unprocessed.smi

> <i_m_source_file_index>
1794

> <i_lp_mmshare_version>
43012

> <i_f3d_flags>
0

> <s_epik_input>
W0NIMl0xW0NIMl1PW0NIMl1bQ0gyXU4xQyhbQ0gzXSkoW0NIM10pW0NIMl1bTkhdQyg9TylbTkhdYzJbY0hdW2NIXVtjSF1uYzJOM1tDSDJdW0NIMl1bQ0gyXVtDSDJdMw==

> <s_epik_cmdline>
J2VwaWtfcHl0aG9uJywgJy1waCcsICc3LjAnLCAnLXRuJywgJzgnLCAnLW1hJywgJzIwMCcsICctbWV0YWxfYmluZGluZycsICctaW1hZScsICc8aW5maWxlLm1hZT4nLCAnLW9tYWUnLCAnPG91dGZpbGUubWFlPic=

> <r_lp_tautomer_probability>
1

> <r_epik_Ionization_Penalty>
0.366523

> <r_epik_Ionization_Penalty_Charging>
0

> <r_epik_Ionization_Penalty_Neutral>
0.366523

> <r_epik_State_Penalty>
0.351681

> <r_epik_Charging_Adjusted_Penalty>
0.351681

> <i_epik_Tot_Q>
0

> <i_epik_Tot_abs_Q>
0

> <r_epik_Metal_State_Penalty>
0.334668

> <b_epik_Metal_Only>
0

> <s_lp_Force_Field>
OPLS_2005

> <r_lp_Energy>
72.3516

> <b_lp_Chiralities_Consistent>
1

> <s_lp_Variant>
AV-unprocessed.smi:1794-1

> <Gold.Version>
5.8.1

> <Gold.Id.Protein>
6NUR|6NUR_protein|mol2

> <Gold.PLP.Fitness>
43.7928

> <Gold.PLP.PLP>
-38.9942

> <Gold.PLP.part.hbond>
-2.0000

> <Gold.PLP.part.metal>
0.0000

> <Gold.PLP.part.buried>
-3.2308

> <Gold.PLP.part.nonpolar>
-33.1597

> <Gold.PLP.part.repulsive>
0.9058

> <Gold.PLP.ligand.clash>
0.0000

> <Gold.PLP.ligand.torsion>
0.5704

> <Gold.PLP.Chemscore.Hbond>
1.9413

> <Gold.PLP.Chemscore.CHOScore>
0.0000

> <Gold.PLP.Chemscore.Metal>
0.0000

> <Gold.Chemscore.Hbonds>
donor molecule, donor type, donor heavy atom, donor atom, acceptor molecule, acceptor atom, score
      L1  H     5    34       P1  7948  0.76
      L1  H     8    35       P1  7948  1.00

> <Gold.PLP.Chemscore.Internal.Correction>
0.1156

> <Gold.Rescore>
     Score         DG    S(hbond)    S(metal)    S(lipo)     H(rot)  DE(clash)    DE(int)     intcor
     15.87     -16.56       1.49        0.00      86.05       1.55       0.03       0.66       ----

> <Gold.Chemscore.Fitness>
15.8749

> <Gold.Chemscore.DG>
-16.5594

> <Gold.Chemscore.ZeroCoef>
-5.4800

> <Gold.Chemscore.Hbond>
1.4902

> <Gold.Chemscore.Metal>
0.0000

> <Gold.Chemscore.Lipo>
86.0509

> <Gold.Chemscore.Internal_Hbond>
0.0000

> <Gold.Chemscore.DEClash>
0.0262

> <Gold.Chemscore.DEInternal>
0.6583

> <Gold.Chemscore.Rot>
1.5491

> <Gold.Chemscore.Internal.Correction>
   9.000000E+99

> <Gold.Chemscore.Hbonds>
donor molecule, donor type, donor heavy atom, donor atom, acceptor molecule, acceptor atom, score
      L1  H     5    34       P1  7948  0.69
      L1  H     8    35       P1  7948  0.39

> <Gold.Chemscore.Hbond.Weighted>
-4.9772

> <Gold.Chemscore.Metal.Weighted>
-0.0000

> <Gold.Chemscore.Lipo.Weighted>
-10.0680

> <Gold.Chemscore.Internal_Hbond.Weighted>
0.0000

> <Gold.Chemscore.DEClash.Weighted>
0.0262

> <Gold.Chemscore.DEInternal.Weighted>
0.6583

> <Gold.Chemscore.Rot.Weighted>
3.9657

> <Gold.Chemscore.Internal.Correction.Weighted>
   9.000000E+99

> <Gold.Protein.RotatedTorsions>
[ 6907 6896 6895 6894 ] final  -55.40 input  -60.11 | X-H torsion
[ 7974 7965 7964 7962 ] final   98.94 input  175.53 | X-H torsion
[ 8008 7997 7996 7995 ] final   60.05 input   59.86 | X-H torsion
[ 10167 10162 10161 10158 ] final   84.49 input  -65.29 | X-H torsion
[ 10718 10713 10712 10709 ] final   13.16 input   66.30 | X-H torsion
[ 10763 10752 10751 10750 ] final   84.78 input  -60.55 | X-H torsion
[ 11005 11000 10999 10996 ] final  -80.18 input  -57.11 | X-H torsion

> <Gold.Protein.ActiveResidues>
 VAL166  LYS551  ARG553  GLY616  TRP617  ASP618  TYR619  PRO620  LYS621  CYS622 
 ASP623  PHE694  ASN695  SER759  ASP760  ASP761  ALA762  ILE779  LEU786  VAL792 
 PHE793  MET794  SER795  GLU796  ALA797  LYS798  CYS799  TRP800  GLU811  SER814 

> <Gold.Protein.RotatedAtoms>
  150.8255  134.7484  159.6808 H   0  0  0  0  0  0  0  0  0  0  0  0  # atno 6907 bound_to 6896
  152.4366  134.5671  159.9920 H   0  0  0  0  0  0  0  0  0  0  0  0  # atno 6908 bound_to 6896
  151.5844  133.3336  159.3051 H   0  0  0  0  0  0  0  0  0  0  0  0  # atno 6909 bound_to 6896
  145.4054  139.2341  143.3277 H   0  0  0  0  0  0  0  0  0  0  0  0  # atno 7974 bound_to 7965
  155.5760  140.3490  155.4528 H   0  0  0  0  0  0  0  0  0  0  0  0  # atno 8008 bound_to 7997
  156.0408  140.1295  157.0182 H   0  0  0  0  0  0  0  0  0  0  0  0  # atno 8009 bound_to 7997
  154.4391  140.1024  156.6220 H   0  0  0  0  0  0  0  0  0  0  0  0  # atno 8010 bound_to 7997
  139.9075  144.6292  150.8572 H   0  0  0  0  0  0  0  0  0  0  0  0  # atno 10167 bound_to 10162
  157.0206  130.6153  149.5720 H   0  0  0  0  0  0  0  0  0  0  0  0  # atno 10718 bound_to 10713
  153.1414  135.4641  154.9501 H   0  0  0  0  0  0  0  0  0  0  0  0  # atno 10763 bound_to 10752
  154.7750  135.3170  154.8114 H   0  0  0  0  0  0  0  0  0  0  0  0  # atno 10764 bound_to 10752
  153.8636  135.6910  153.4834 H   0  0  0  0  0  0  0  0  0  0  0  0  # atno 10765 bound_to 10752
  141.1668  133.7139  156.8235 H   0  0  0  0  0  0  0  0  0  0  0  0  # atno 11005 bound_to 11000
  146.2731  140.4758  142.8806 LP  0  0  0  0  0  0  0  0  0  0  0  0  # atno 17320 bound_to 7965
  144.8345  140.6760  143.6269 LP  0  0  0  0  0  0  0  0  0  0  0  0  # atno 17321 bound_to 7965
  140.7693  143.3390  151.2247 LP  0  0  0  0  0  0  0  0  0  0  0  0  # atno 17342 bound_to 10162
  139.6971  143.9594  152.2888 LP  0  0  0  0  0  0  0  0  0  0  0  0  # atno 17343 bound_to 10162
  156.0103  130.5194  150.7968 LP  0  0  0  0  0  0  0  0  0  0  0  0  # atno 17370 bound_to 10713
  157.5252  131.0934  151.0027 LP  0  0  0  0  0  0  0  0  0  0  0  0  # atno 17371 bound_to 10713
  140.2102  134.8833  157.3266 LP  0  0  0  0  0  0  0  0  0  0  0  0  # atno 17394 bound_to 11000
  140.2094  134.4157  155.7620 LP  0  0  0  0  0  0  0  0  0  0  0  0  # atno 17395 bound_to 11000

$$$$
