AV-unprocessed.smi:1093|AV-procd|sdf|4745|dock7
  -GOLD-   22720 3283D 1   1.00000     0.00000
 Structure written by MMmdl.
 47 48  0  0  0  0  0  0  0  0  2 V2000
  143.3286  140.0234  156.1454 C   0  0  0  0  0  0  0  0  0  0  0  0
  144.1471  138.9483  155.4155 C   0  0  0  0  0  0  0  0  0  0  0  0
  145.2732  139.5197  154.6344 N   0  3  2  0  0  0  0  0  0  0  0  0
  146.0368  138.4722  153.9073 C   0  0  0  0  0  0  0  0  0  0  0  0
  147.1106  139.0938  152.9989 C   0  0  0  0  0  0  0  0  0  0  0  0
  148.0555  139.9971  153.8014 C   0  0  0  0  0  0  0  0  0  0  0  0
  147.2450  141.0568  154.5631 C   0  0  2  0  0  0  0  0  0  0  0  0
  148.1398  141.8826  155.3687 N   0  0  0  0  0  0  0  0  0  0  0  0
  148.9823  141.4190  156.3029 C   0  0  0  0  0  0  0  0  0  0  0  0
  149.1088  140.2235  156.5667 O   0  0  0  0  0  0  0  0  0  0  0  0
  149.6717  142.4188  156.8779 N   0  0  0  0  0  0  0  0  0  0  0  0
  150.6088  142.3409  157.9427 C   0  0  0  0  0  0  0  0  0  0  0  0
  150.9728  143.4346  158.7610 C   0  0  0  0  0  0  0  0  0  0  0  0
  151.9362  143.2424  159.7698 C   0  0  0  0  0  0  0  0  0  0  0  0
  152.5213  141.9625  159.9381 C   0  0  0  0  0  0  0  0  0  0  0  0
  153.4929  141.7203  160.9362 N   0  0  0  0  0  0  0  0  0  0  0  0
  154.6334  140.8572  160.6554 C   0  0  0  0  0  0  0  0  0  0  0  0
  153.3881  142.3891  162.2289 C   0  0  0  0  0  0  0  0  0  0  0  0
  152.1744  140.9214  159.1423 N   0  0  0  0  0  0  0  0  0  0  0  0
  151.2537  141.1106  158.1745 C   0  0  0  0  0  0  0  0  0  0  0  0
  146.1713  140.3852  155.4453 C   0  0  0  0  0  0  0  0  0  0  0  0
  142.4550  139.5791  156.6229 H   0  0  0  0  0  0  0  0  0  0  0  0
  142.9727  140.7860  155.4522 H   0  0  0  0  0  0  0  0  0  0  0  0
  143.9037  140.5192  156.9267 H   0  0  0  0  0  0  0  0  0  0  0  0
  144.5187  138.2022  156.1194 H   0  0  0  0  0  0  0  0  0  0  0  0
  143.4721  138.4239  154.7380 H   0  0  0  0  0  0  0  0  0  0  0  0
  146.4985  137.7924  154.6255 H   0  0  0  0  0  0  0  0  0  0  0  0
  145.3574  137.8753  153.2977 H   0  0  0  0  0  0  0  0  0  0  0  0
  147.6796  138.3073  152.5023 H   0  0  0  0  0  0  0  0  0  0  0  0
  146.6314  139.6741  152.2090 H   0  0  0  0  0  0  0  0  0  0  0  0
  148.6341  139.3921  154.5012 H   0  0  0  0  0  0  0  0  0  0  0  0
  148.7724  140.4749  153.1324 H   0  0  0  0  0  0  0  0  0  0  0  0
  146.7487  141.6942  153.8283 H   0  0  0  0  0  0  0  0  0  0  0  0
  148.1049  142.8796  155.2134 H   0  0  0  0  0  0  0  0  0  0  0  0
  149.5394  143.3391  156.4843 H   0  0  0  0  0  0  0  0  0  0  0  0
  150.5469  144.4166  158.6253 H   0  0  0  0  0  0  0  0  0  0  0  0
  152.2094  144.0827  160.3897 H   0  0  0  0  0  0  0  0  0  0  0  0
  155.2277  141.2615  159.8355 H   0  0  0  0  0  0  0  0  0  0  0  0
  154.2980  139.8557  160.3845 H   0  0  0  0  0  0  0  0  0  0  0  0
  155.2851  140.7643  161.5243 H   0  0  0  0  0  0  0  0  0  0  0  0
  153.4172  143.4716  162.1015 H   0  0  0  0  0  0  0  0  0  0  0  0
  154.2085  142.1090  162.8896 H   0  0  0  0  0  0  0  0  0  0  0  0
  152.4544  142.1230  162.7259 H   0  0  0  0  0  0  0  0  0  0  0  0
  151.0226  140.2467  157.5684 H   0  0  0  0  0  0  0  0  0  0  0  0
  145.5879  141.1564  155.9472 H   0  0  0  0  0  0  0  0  0  0  0  0
  146.6422  139.7877  156.2280 H   0  0  0  0  0  0  0  0  0  0  0  0
  144.8591  140.1086  153.9257 H   0  0  0  0  0  0  0  0  0  0  0  0
  1  2  1  0  0  0  0
  1 22  1  0  0  0  0
  1 23  1  0  0  0  0
  1 24  1  0  0  0  0
  2  3  1  0  0  0  0
  2 25  1  0  0  0  0
  2 26  1  0  0  0  0
  3 21  1  0  0  0  0
  3  4  1  0  0  0  0
  3 47  1  0  0  0  0
  4  5  1  0  0  0  0
  4 27  1  0  0  0  0
  4 28  1  0  0  0  0
  5  6  1  0  0  0  0
  5 29  1  0  0  0  0
  5 30  1  0  0  0  0
  6  7  1  0  0  0  0
  6 31  1  0  0  0  0
  6 32  1  0  0  0  0
  7  8  1  0  0  0  0
  7 21  1  0  0  0  0
  7 33  1  0  0  0  0
  8  9  1  0  0  0  0
  8 34  1  0  0  0  0
  9 10  2  0  0  0  0
  9 11  1  0  0  0  0
 11 12  1  0  0  0  0
 11 35  1  0  0  0  0
 12 20  1  0  0  0  0
 12 13  2  0  0  0  0
 13 14  1  0  0  0  0
 13 36  1  0  0  0  0
 14 15  2  0  0  0  0
 14 37  1  0  0  0  0
 15 16  1  0  0  0  0
 15 19  1  0  0  0  0
 16 17  1  0  0  0  0
 16 18  1  0  0  0  0
 17 38  1  0  0  0  0
 17 39  1  0  0  0  0
 17 40  1  0  0  0  0
 18 41  1  0  0  0  0
 18 42  1  0  0  0  0
 18 43  1  0  0  0  0
 19 20  2  0  0  0  0
 20 44  1  0  0  0  0
 21 45  1  0  0  0  0
 21 46  1  0  0  0  0
M  CHG  1   3   1
M  END
> <s_m_source_file>
AV-unprocessed.smi

> <i_m_source_file_index>
1093

> <i_lp_mmshare_version>
43012

> <i_f3d_flags>
0

> <s_epik_input>
W0NIM11bQ0gyXU4xW0NIMl1bQ0gyXVtDSDJdW0NASF0oW0NIMl0xKVtOSF1DKD1PKVtOSF1jMltjSF1bY0hdYyhOKFtDSDNdKVtDSDNdKW5bY0hdMg==

> <s_epik_cmdline>
J2VwaWtfcHl0aG9uJywgJy1waCcsICc3LjAnLCAnLXRuJywgJzgnLCAnLW1hJywgJzIwMCcsICctbWV0YWxfYmluZGluZycsICctaW1hZScsICc8aW5maWxlLm1hZT4nLCAnLW9tYWUnLCAnPG91dGZpbGUubWFlPic=

> <r_lp_tautomer_probability>
1

> <r_epik_Ionization_Penalty>
0.489418

> <r_epik_Ionization_Penalty_Charging>
0.00268196

> <r_epik_Ionization_Penalty_Neutral>
0.486736

> <r_epik_State_Penalty>
0.491157

> <r_epik_Charging_Adjusted_Penalty>
0.493839

> <i_epik_Tot_Q>
1

> <i_epik_Tot_abs_Q>
1

> <r_epik_Metal_State_Penalty>
0.266953

> <b_epik_Metal_Only>
0

> <s_lp_Force_Field>
OPLS_2005

> <r_lp_Energy>
20.183

> <b_lp_Chiralities_Consistent>
1

> <s_lp_Variant>
AV-unprocessed.smi:1093-8

> <Gold.Version>
5.8.1

> <Gold.Id.Protein>
6NUR|6NUR_protein|mol2

> <Gold.PLP.Fitness>
46.8445

> <Gold.PLP.PLP>
-36.2630

> <Gold.PLP.part.hbond>
-3.0000

> <Gold.PLP.part.metal>
0.0000

> <Gold.PLP.part.buried>
-4.1527

> <Gold.PLP.part.nonpolar>
-30.0201

> <Gold.PLP.part.repulsive>
0.1382

> <Gold.PLP.ligand.clash>
0.0000

> <Gold.PLP.ligand.torsion>
0.6851

> <Gold.PLP.Chemscore.Hbond>
3.9760

> <Gold.PLP.Chemscore.CHOScore>
0.0000

> <Gold.PLP.Chemscore.Metal>
0.0000

> <Gold.Chemscore.Hbonds>
donor molecule, donor type, donor heavy atom, donor atom, acceptor molecule, acceptor atom, score
      L1  H     3    47       P1 10175  2.00
      L1  H     8    34       P1  8028  0.98
      L1  H    11    35       P1  8028  1.00

> <Gold.PLP.Chemscore.Internal.Correction>
0.0237

> <Gold.Rescore>
     Score         DG    S(hbond)    S(metal)    S(lipo)     H(rot)  DE(clash)    DE(int)     intcor
     18.28     -21.15       2.86        0.00      78.26       1.18       0.27       2.60       ----

> <Gold.Chemscore.Fitness>
18.2817

> <Gold.Chemscore.DG>
-21.1538

> <Gold.Chemscore.ZeroCoef>
-5.4800

> <Gold.Chemscore.Hbond>
2.8592

> <Gold.Chemscore.Metal>
0.0000

> <Gold.Chemscore.Lipo>
78.2556

> <Gold.Chemscore.Internal_Hbond>
0.0000

> <Gold.Chemscore.DEClash>
0.2729

> <Gold.Chemscore.DEInternal>
2.5992

> <Gold.Chemscore.Rot>
1.1842

> <Gold.Chemscore.Internal.Correction>
   9.000000E+99

> <Gold.Chemscore.Hbonds>
donor molecule, donor type, donor heavy atom, donor atom, acceptor molecule, acceptor atom, score
      L1  H     3    47       P1 10175  0.97
      L1  H     8    34       P1  8028  0.84
      L1  H    11    35       P1  8028  1.00

> <Gold.Chemscore.Hbond.Weighted>
-9.5496

> <Gold.Chemscore.Metal.Weighted>
-0.0000

> <Gold.Chemscore.Lipo.Weighted>
-9.1559

> <Gold.Chemscore.Internal_Hbond.Weighted>
0.0000

> <Gold.Chemscore.DEClash.Weighted>
0.2729

> <Gold.Chemscore.DEInternal.Weighted>
2.5992

> <Gold.Chemscore.Rot.Weighted>
3.0317

> <Gold.Chemscore.Internal.Correction.Weighted>
   9.000000E+99

> <Gold.Protein.RotatedTorsions>
[ 6907 6896 6895 6894 ] final  -25.84 input  -60.11 | X-H torsion
[ 7974 7965 7964 7962 ] final -126.53 input  175.53 | X-H torsion
[ 8008 7997 7996 7995 ] final  133.58 input   59.86 | X-H torsion
[ 10167 10162 10161 10158 ] final -123.93 input  -65.29 | X-H torsion
[ 10718 10713 10712 10709 ] final  -39.92 input   66.30 | X-H torsion
[ 10763 10752 10751 10750 ] final  -53.00 input  -60.55 | X-H torsion
[ 11005 11000 10999 10996 ] final -130.86 input  -57.11 | X-H torsion

> <Gold.Protein.ActiveResidues>
 VAL166  LYS551  ARG553  GLY616  TRP617  ASP618  TYR619  PRO620  LYS621  CYS622 
 ASP623  PHE694  ASN695  SER759  ASP760  ASP761  ALA762  ILE779  LEU786  VAL792 
 PHE793  MET794  SER795  GLU796  ALA797  LYS798  CYS799  TRP800  GLU811  SER814 

> <Gold.Protein.RotatedAtoms>
  151.1695  135.0311  159.8745 H   0  0  0  0  0  0  0  0  0  0  0  0  # atno 6907 bound_to 6896
  152.5449  134.1187  159.8400 H   0  0  0  0  0  0  0  0  0  0  0  0  # atno 6908 bound_to 6896
  151.1291  133.5003  159.2632 H   0  0  0  0  0  0  0  0  0  0  0  0  # atno 6909 bound_to 6896
  144.9864  140.7690  143.4581 H   0  0  0  0  0  0  0  0  0  0  0  0  # atno 7974 bound_to 7965
  156.2993  140.2518  156.3276 H   0  0  0  0  0  0  0  0  0  0  0  0  # atno 8008 bound_to 7997
  154.9175  140.0401  157.1999 H   0  0  0  0  0  0  0  0  0  0  0  0  # atno 8009 bound_to 7997
  154.8344  140.2881  155.5705 H   0  0  0  0  0  0  0  0  0  0  0  0  # atno 8010 bound_to 7997
  139.9982  143.5568  152.2314 H   0  0  0  0  0  0  0  0  0  0  0  0  # atno 10167 bound_to 10162
  156.2871  130.4224  149.8277 H   0  0  0  0  0  0  0  0  0  0  0  0  # atno 10718 bound_to 10713
  154.1517  135.6489  153.4965 H   0  0  0  0  0  0  0  0  0  0  0  0  # atno 10763 bound_to 10752
  153.0136  135.5340  154.6801 H   0  0  0  0  0  0  0  0  0  0  0  0  # atno 10764 bound_to 10752
  154.6091  135.2952  155.0424 H   0  0  0  0  0  0  0  0  0  0  0  0  # atno 10765 bound_to 10752
  140.9309  134.1320  157.4235 H   0  0  0  0  0  0  0  0  0  0  0  0  # atno 11005 bound_to 11000
  145.2348  139.2099  143.5024 LP  0  0  0  0  0  0  0  0  0  0  0  0  # atno 17320 bound_to 7965
  146.3421  140.2232  142.8592 LP  0  0  0  0  0  0  0  0  0  0  0  0  # atno 17321 bound_to 7965
  139.6291  144.7641  151.2575 LP  0  0  0  0  0  0  0  0  0  0  0  0  # atno 17342 bound_to 10162
  140.7429  143.6512  150.8247 LP  0  0  0  0  0  0  0  0  0  0  0  0  # atno 17343 bound_to 10162
  156.5703  130.8422  151.3354 LP  0  0  0  0  0  0  0  0  0  0  0  0  # atno 17370 bound_to 10713
  157.7331  130.9726  150.1964 LP  0  0  0  0  0  0  0  0  0  0  0  0  # atno 17371 bound_to 10713
  139.8796  135.0005  156.6012 LP  0  0  0  0  0  0  0  0  0  0  0  0  # atno 17394 bound_to 11000
  140.7863  133.8619  155.8609 LP  0  0  0  0  0  0  0  0  0  0  0  0  # atno 17395 bound_to 11000

$$$$
