AV-unprocessed.smi:2759|AV-procd|sdf|10627|dock6
  -GOLD-   2272015 73D 1   1.00000     0.00000
 Structure written by MMmdl.
 43 44  0  0  0  0  0  0  0  0  1 V2000
  146.7329  140.9828  153.8878 C   0  0  0  0  0  0  0  0  0  0  0  0
  147.6525  140.0208  153.1124 C   0  0  0  0  0  0  0  0  0  0  0  0
  146.8018  138.8694  152.5417 C   0  0  0  0  0  0  0  0  0  0  0  0
  148.8333  139.4936  153.9712 C   0  0  1  0  0  0  0  0  0  0  0  0
  149.7001  138.7471  153.1363 O   0  0  0  0  0  0  0  0  0  0  0  0
  149.6791  140.6024  154.6358 C   0  0  0  0  0  0  0  0  0  0  0  0
  150.7946  140.0665  155.4734 C   0  0  0  0  0  0  0  0  0  0  0  0
  150.7726  139.8223  156.7813 N   0  0  0  0  0  0  0  0  0  0  0  0
  152.0501  139.3981  156.9907 C   0  0  0  0  0  0  0  0  0  0  0  0
  152.5537  138.9714  158.3346 C   0  0  0  0  0  0  0  0  0  0  0  0
  153.4115  140.0573  158.9953 C   0  0  0  0  0  0  0  0  0  0  0  0
  154.6207  139.8908  159.1623 O   0  0  0  0  0  0  0  0  0  0  0  0
  152.7657  141.1712  159.3741 N   0  0  0  0  0  0  0  0  0  0  0  0
  153.3888  142.3289  160.0109 C   0  0  0  0  0  0  0  0  0  0  0  0
  152.7415  142.6191  161.3789 C   0  0  0  0  0  0  0  0  0  0  0  0
  152.4314  144.1169  161.3919 C   0  0  0  0  0  0  0  0  0  0  0  0
  152.1864  144.4641  159.9272 C   0  0  0  0  0  0  0  0  0  0  0  0
  153.1964  143.6044  159.1666 C   0  0  0  0  0  0  0  0  0  0  0  0
  152.8428  139.4018  155.9244 N   0  0  0  0  0  0  0  0  0  0  0  0
  152.0031  139.8568  154.8977 O   0  0  0  0  0  0  0  0  0  0  0  0
  146.3583  140.5222  154.8024 H   0  0  0  0  0  0  0  0  0  0  0  0
  145.8698  141.2688  153.2858 H   0  0  0  0  0  0  0  0  0  0  0  0
  147.2399  141.9080  154.1583 H   0  0  0  0  0  0  0  0  0  0  0  0
  148.0652  140.5732  152.2666 H   0  0  0  0  0  0  0  0  0  0  0  0
  146.3828  138.2546  153.3389 H   0  0  0  0  0  0  0  0  0  0  0  0
  147.3838  138.2178  151.8898 H   0  0  0  0  0  0  0  0  0  0  0  0
  145.9710  139.2511  151.9475 H   0  0  0  0  0  0  0  0  0  0  0  0
  148.4377  138.8298  154.7414 H   0  0  0  0  0  0  0  0  0  0  0  0
  149.2481  137.9668  152.8525 H   0  0  0  0  0  0  0  0  0  0  0  0
  150.0862  141.2800  153.8839 H   0  0  0  0  0  0  0  0  0  0  0  0
  149.0664  141.2138  155.2957 H   0  0  0  0  0  0  0  0  0  0  0  0
  151.7045  138.7219  158.9728 H   0  0  0  0  0  0  0  0  0  0  0  0
  153.1501  138.0645  158.2306 H   0  0  0  0  0  0  0  0  0  0  0  0
  151.7722  141.2264  159.2021 H   0  0  0  0  0  0  0  0  0  0  0  0
  154.4557  142.1440  160.1504 H   0  0  0  0  0  0  0  0  0  0  0  0
  151.8093  142.0630  161.4913 H   0  0  0  0  0  0  0  0  0  0  0  0
  153.3883  142.3316  162.2086 H   0  0  0  0  0  0  0  0  0  0  0  0
  151.5841  144.3656  162.0314 H   0  0  0  0  0  0  0  0  0  0  0  0
  153.2984  144.6685  161.7580 H   0  0  0  0  0  0  0  0  0  0  0  0
  151.1723  144.1770  159.6459 H   0  0  0  0  0  0  0  0  0  0  0  0
  152.3018  145.5287  159.7217 H   0  0  0  0  0  0  0  0  0  0  0  0
  154.1458  144.1377  159.1028 H   0  0  0  0  0  0  0  0  0  0  0  0
  152.8739  143.4057  158.1436 H   0  0  0  0  0  0  0  0  0  0  0  0
  1  2  1  0  0  0  0
  1 21  1  0  0  0  0
  1 22  1  0  0  0  0
  1 23  1  0  0  0  0
  2  3  1  0  0  0  0
  2  4  1  0  0  0  0
  2 24  1  0  0  0  0
  3 25  1  0  0  0  0
  3 26  1  0  0  0  0
  3 27  1  0  0  0  0
  4  5  1  0  0  0  0
  4  6  1  0  0  0  0
  4 28  1  0  0  0  0
  5 29  1  0  0  0  0
  6  7  1  0  0  0  0
  6 30  1  0  0  0  0
  6 31  1  0  0  0  0
  7 20  1  0  0  0  0
  7  8  2  0  0  0  0
  8  9  1  0  0  0  0
  9 10  1  0  0  0  0
  9 19  2  0  0  0  0
 10 11  1  0  0  0  0
 10 32  1  0  0  0  0
 10 33  1  0  0  0  0
 11 12  2  0  0  0  0
 11 13  1  0  0  0  0
 13 14  1  0  0  0  0
 13 34  1  0  0  0  0
 14 18  1  0  0  0  0
 14 15  1  0  0  0  0
 14 35  1  0  0  0  0
 15 16  1  0  0  0  0
 15 36  1  0  0  0  0
 15 37  1  0  0  0  0
 16 17  1  0  0  0  0
 16 38  1  0  0  0  0
 16 39  1  0  0  0  0
 17 18  1  0  0  0  0
 17 40  1  0  0  0  0
 17 41  1  0  0  0  0
 18 42  1  0  0  0  0
 18 43  1  0  0  0  0
 19 20  1  0  0  0  0
M  END
> <s_m_source_file>
AV-unprocessed.smi

> <i_m_source_file_index>
2759

> <i_lp_mmshare_version>
43012

> <i_f3d_flags>
0

> <s_epik_input>
W0NIM11bQ0hdKFtDSDNdKVtDQEhdKFtPSF0pW0NIMl1jMW5jKG5vMSlbQ0gyXUMoPU8pW05IXVtDSF0yW0NIMl1bQ0gyXVtDSDJdW0NIMl0y

> <s_epik_cmdline>
J2VwaWtfcHl0aG9uJywgJy1waCcsICc3LjAnLCAnLXRuJywgJzgnLCAnLW1hJywgJzIwMCcsICctbWV0YWxfYmluZGluZycsICctaW1hZScsICc8aW5maWxlLm1hZT4nLCAnLW9tYWUnLCAnPG91dGZpbGUubWFlPic=

> <r_lp_tautomer_probability>
1

> <r_epik_Ionization_Penalty>
1.20032e-07

> <r_epik_Ionization_Penalty_Charging>
0

> <r_epik_Ionization_Penalty_Neutral>
1.20032e-07

> <r_epik_State_Penalty>
-0

> <r_epik_Charging_Adjusted_Penalty>
0

> <i_epik_Tot_Q>
0

> <i_epik_Tot_abs_Q>
0

> <r_epik_Metal_State_Penalty>
-0

> <b_epik_Metal_Only>
0

> <s_lp_Force_Field>
OPLS_2005

> <r_lp_Energy>
21.2868

> <b_lp_Chiralities_Consistent>
1

> <s_lp_Variant>
AV-unprocessed.smi:2759-2

> <Gold.Version>
5.8.1

> <Gold.Id.Protein>
6NUR|6NUR_protein|mol2

> <Gold.PLP.Fitness>
53.6880

> <Gold.PLP.PLP>
-43.6847

> <Gold.PLP.part.hbond>
-4.7113

> <Gold.PLP.part.metal>
0.0000

> <Gold.PLP.part.buried>
-2.7317

> <Gold.PLP.part.nonpolar>
-35.9096

> <Gold.PLP.part.repulsive>
0.1596

> <Gold.PLP.ligand.clash>
0.0000

> <Gold.PLP.ligand.torsion>
0.6884

> <Gold.PLP.Chemscore.Hbond>
3.7764

> <Gold.PLP.Chemscore.CHOScore>
0.0000

> <Gold.PLP.Chemscore.Metal>
0.0000

> <Gold.Chemscore.Hbonds>
donor molecule, donor type, donor heavy atom, donor atom, acceptor molecule, acceptor atom, score
      L1  H     5    29       P1  7948  1.00
      P1  H  7989  7998       L1    20  0.66
      P1  H  7997  8009       L1    12  0.93
      P1  H  7997  8010       L1    19  0.99

> <Gold.PLP.Chemscore.Internal.Correction>
0.0507

> <Gold.Rescore>
     Score         DG    S(hbond)    S(metal)    S(lipo)     H(rot)  DE(clash)    DE(int)     intcor
     20.06     -20.85       3.35        0.00      93.87       2.65       0.02       0.77       ----

> <Gold.Chemscore.Fitness>
20.0625

> <Gold.Chemscore.DG>
-20.8529

> <Gold.Chemscore.ZeroCoef>
-5.4800

> <Gold.Chemscore.Hbond>
3.3487

> <Gold.Chemscore.Metal>
0.0000

> <Gold.Chemscore.Lipo>
93.8733

> <Gold.Chemscore.Internal_Hbond>
0.0000

> <Gold.Chemscore.DEClash>
0.0171

> <Gold.Chemscore.DEInternal>
0.7734

> <Gold.Chemscore.Rot>
2.6543

> <Gold.Chemscore.Internal.Correction>
   9.000000E+99

> <Gold.Chemscore.Hbonds>
donor molecule, donor type, donor heavy atom, donor atom, acceptor molecule, acceptor atom, score
      L1  H     5    29       P1  7948  0.93
      P1  H  7989  7998       L1    20  0.08
      P1  H  7997  8009       L1    12  0.40
      P1  H  7997  8010       L1    19  0.79

> <Gold.Chemscore.Hbond.Weighted>
-11.1848

> <Gold.Chemscore.Metal.Weighted>
-0.0000

> <Gold.Chemscore.Lipo.Weighted>
-10.9832

> <Gold.Chemscore.Internal_Hbond.Weighted>
0.0000

> <Gold.Chemscore.DEClash.Weighted>
0.0171

> <Gold.Chemscore.DEInternal.Weighted>
0.7734

> <Gold.Chemscore.Rot.Weighted>
6.7950

> <Gold.Chemscore.Internal.Correction.Weighted>
   9.000000E+99

> <Gold.Protein.RotatedTorsions>
[ 6907 6896 6895 6894 ] final   64.63 input  -60.11 | X-H torsion
[ 7974 7965 7964 7962 ] final   29.69 input  175.53 | X-H torsion
[ 8008 7997 7996 7995 ] final  104.68 input   59.86 | X-H torsion
[ 10167 10162 10161 10158 ] final  -99.40 input  -65.29 | X-H torsion
[ 10718 10713 10712 10709 ] final   15.56 input   66.30 | X-H torsion
[ 10763 10752 10751 10750 ] final   64.93 input  -60.55 | X-H torsion
[ 11005 11000 10999 10996 ] final  -78.09 input  -57.11 | X-H torsion

> <Gold.Protein.ActiveResidues>
 VAL166  LYS551  ARG553  GLY616  TRP617  ASP618  TYR619  PRO620  LYS621  CYS622 
 ASP623  PHE694  ASN695  SER759  ASP760  ASP761  ALA762  ILE779  LEU786  VAL792 
 PHE793  MET794  SER795  GLU796  ALA797  LYS798  CYS799  TRP800  GLU811  SER814 

> <Gold.Protein.RotatedAtoms>
  152.4346  134.5710  159.9921 H   0  0  0  0  0  0  0  0  0  0  0  0  # atno 6907 bound_to 6896
  151.5824  133.3370  159.3019 H   0  0  0  0  0  0  0  0  0  0  0  0  # atno 6908 bound_to 6896
  150.8243  134.7502  159.6864 H   0  0  0  0  0  0  0  0  0  0  0  0  # atno 6909 bound_to 6896
  146.1656  139.6887  142.9003 H   0  0  0  0  0  0  0  0  0  0  0  0  # atno 7974 bound_to 7965
  156.1594  140.3143  155.8781 H   0  0  0  0  0  0  0  0  0  0  0  0  # atno 8008 bound_to 7997
  155.3813  140.0488  157.3060 H   0  0  0  0  0  0  0  0  0  0  0  0  # atno 8009 bound_to 7997
  154.5132  140.2172  155.9127 H   0  0  0  0  0  0  0  0  0  0  0  0  # atno 8010 bound_to 7997
  140.2628  143.3396  152.0609 H   0  0  0  0  0  0  0  0  0  0  0  0  # atno 10167 bound_to 10162
  157.0553  130.6286  149.5775 H   0  0  0  0  0  0  0  0  0  0  0  0  # atno 10718 bound_to 10713
  153.0075  135.5375  154.6588 H   0  0  0  0  0  0  0  0  0  0  0  0  # atno 10763 bound_to 10752
  154.5802  135.2849  155.0743 H   0  0  0  0  0  0  0  0  0  0  0  0  # atno 10764 bound_to 10752
  154.1875  135.6506  153.5103 H   0  0  0  0  0  0  0  0  0  0  0  0  # atno 10765 bound_to 10752
  141.1663  133.7049  156.7919 H   0  0  0  0  0  0  0  0  0  0  0  0  # atno 11005 bound_to 11000
  145.4475  141.0426  143.2823 LP  0  0  0  0  0  0  0  0  0  0  0  0  # atno 17320 bound_to 7965
  144.8088  139.6001  143.7039 LP  0  0  0  0  0  0  0  0  0  0  0  0  # atno 17321 bound_to 7965
  139.5011  144.6707  151.6249 LP  0  0  0  0  0  0  0  0  0  0  0  0  # atno 17342 bound_to 10162
  140.5952  143.9709  150.6350 LP  0  0  0  0  0  0  0  0  0  0  0  0  # atno 17343 bound_to 10162
  155.9995  130.5071  150.7609 LP  0  0  0  0  0  0  0  0  0  0  0  0  # atno 17370 bound_to 10713
  157.4998  131.0917  151.0328 LP  0  0  0  0  0  0  0  0  0  0  0  0  # atno 17371 bound_to 10713
  140.2319  134.8679  157.3485 LP  0  0  0  0  0  0  0  0  0  0  0  0  # atno 17394 bound_to 11000
  140.1882  134.4404  155.7731 LP  0  0  0  0  0  0  0  0  0  0  0  0  # atno 17395 bound_to 11000

$$$$
