AV-unprocessed.smi:2982|AV-procd|sdf|11376|dock3
  -GOLD-   2272016293D 1   1.00000     0.00000
 Structure written by MMmdl.
 36 37  0  0  0  0  0  0  0  0  1 V2000
  152.8272  142.4051  161.6255 C   0  0  0  0  0  0  0  0  0  0  0  0
  152.2879  143.0503  160.3421 C   0  0  0  0  0  0  0  0  0  0  0  0
  152.9915  142.5887  159.0497 C   0  0  0  0  0  0  0  0  0  0  0  0
  152.1923  141.6972  158.2278 N   0  0  0  0  0  0  0  0  0  0  0  0
  151.0163  142.0986  157.5874 C   0  0  0  0  0  0  0  0  0  0  0  0
  150.5963  143.4087  157.7532 N   0  0  0  0  0  0  0  0  0  0  0  0
  150.2840  141.2420  156.8187 C   0  0  0  0  0  0  0  0  0  0  0  0
  149.1095  141.6005  156.1674 N   0  0  0  0  0  0  0  0  0  0  0  0
  148.9905  141.6772  154.7177 C   0  0  0  0  0  0  0  0  0  0  0  0
  147.9303  140.6824  154.2118 C   0  0  0  0  0  0  0  0  0  0  0  0
  146.6955  140.9130  154.8844 O   0  0  0  0  0  0  0  0  0  0  0  0
  146.8096  140.7431  156.2944 C   0  0  0  0  0  0  0  0  0  0  0  0
  147.8329  141.7474  156.8528 C   0  0  0  0  0  0  0  0  0  0  0  0
  150.7134  139.8519  156.6384 C   0  0  0  0  0  0  0  0  0  0  0  0
  150.1312  139.0025  155.9647 O   0  0  0  0  0  0  0  0  0  0  0  0
  151.8848  139.5078  157.3084 N   0  0  0  0  0  0  0  0  0  0  0  0
  152.6453  140.3608  158.1002 C   0  0  0  0  0  0  0  0  0  0  0  0
  153.6570  139.9257  158.6508 O   0  0  0  0  0  0  0  0  0  0  0  0
  152.2074  138.5559  157.2138 H   0  0  0  0  0  0  0  0  0  0  0  0
  152.3384  142.8261  162.5043 H   0  0  0  0  0  0  0  0  0  0  0  0
  153.8995  142.5718  161.7298 H   0  0  0  0  0  0  0  0  0  0  0  0
  152.6491  141.3298  161.6358 H   0  0  0  0  0  0  0  0  0  0  0  0
  151.2169  142.8598  160.2698 H   0  0  0  0  0  0  0  0  0  0  0  0
  152.3944  144.1321  160.4257 H   0  0  0  0  0  0  0  0  0  0  0  0
  153.2330  143.4414  158.4148 H   0  0  0  0  0  0  0  0  0  0  0  0
  153.9532  142.1184  159.2585 H   0  0  0  0  0  0  0  0  0  0  0  0
  151.1178  144.0630  158.3187 H   0  0  0  0  0  0  0  0  0  0  0  0
  149.7561  143.7604  157.3174 H   0  0  0  0  0  0  0  0  0  0  0  0
  148.7162  142.6956  154.4400 H   0  0  0  0  0  0  0  0  0  0  0  0
  149.9537  141.4705  154.2491 H   0  0  0  0  0  0  0  0  0  0  0  0
  147.7797  140.8085  153.1396 H   0  0  0  0  0  0  0  0  0  0  0  0
  148.2524  139.6521  154.3668 H   0  0  0  0  0  0  0  0  0  0  0  0
  145.8339  140.9066  156.7520 H   0  0  0  0  0  0  0  0  0  0  0  0
  147.1008  139.7174  156.5253 H   0  0  0  0  0  0  0  0  0  0  0  0
  147.9614  141.5964  157.9254 H   0  0  0  0  0  0  0  0  0  0  0  0
  147.4743  142.7686  156.7179 H   0  0  0  0  0  0  0  0  0  0  0  0
  1  2  1  0  0  0  0
  1 20  1  0  0  0  0
  1 21  1  0  0  0  0
  1 22  1  0  0  0  0
  2  3  1  0  0  0  0
  2 23  1  0  0  0  0
  2 24  1  0  0  0  0
  3  4  1  0  0  0  0
  3 25  1  0  0  0  0
  3 26  1  0  0  0  0
  4 17  1  0  0  0  0
  4  5  1  0  0  0  0
  5  6  1  0  0  0  0
  5  7  2  0  0  0  0
  6 27  1  0  0  0  0
  6 28  1  0  0  0  0
  7  8  1  0  0  0  0
  7 14  1  0  0  0  0
  8 13  1  0  0  0  0
  8  9  1  0  0  0  0
  9 10  1  0  0  0  0
  9 29  1  0  0  0  0
  9 30  1  0  0  0  0
 10 11  1  0  0  0  0
 10 31  1  0  0  0  0
 10 32  1  0  0  0  0
 11 12  1  0  0  0  0
 12 13  1  0  0  0  0
 12 33  1  0  0  0  0
 12 34  1  0  0  0  0
 13 35  1  0  0  0  0
 13 36  1  0  0  0  0
 14 15  2  0  0  0  0
 14 16  1  0  0  0  0
 16 19  1  0  0  0  0
 16 17  1  0  0  0  0
 17 18  2  0  0  0  0
M  END
> <s_m_source_file>
AV-unprocessed.smi

> <i_m_source_file_index>
2982

> <i_lp_mmshare_version>
43012

> <i_f3d_flags>
0

> <s_epik_input>
W0NIM11bQ0gyXVtDSDJdbjFjKFtOSDJdKWMoYyg9TylbbkhdYzE9TylOMltDSDJdW0NIMl1PW0NIMl1bQ0gyXTI=

> <s_epik_cmdline>
J2VwaWtfcHl0aG9uJywgJy1waCcsICc3LjAnLCAnLXRuJywgJzgnLCAnLW1hJywgJzIwMCcsICctbWV0YWxfYmluZGluZycsICctaW1hZScsICc8aW5maWxlLm1hZT4nLCAnLW9tYWUnLCAnPG91dGZpbGUubWFlPic=

> <r_lp_tautomer_probability>
1

> <r_epik_Ionization_Penalty>
1.08155e-05

> <r_epik_Ionization_Penalty_Charging>
2.81443e-06

> <r_epik_Ionization_Penalty_Neutral>
8.00112e-06

> <r_epik_State_Penalty>
-0

> <r_epik_Charging_Adjusted_Penalty>
2.81443e-06

> <i_epik_Tot_Q>
0

> <i_epik_Tot_abs_Q>
0

> <r_epik_Metal_State_Penalty>
-0

> <b_epik_Metal_Only>
0

> <s_epik_Chemistry_Notes>
This compound has an imine and may undergo hydrolysis.

> <s_lp_Force_Field>
OPLS_2005

> <r_lp_Energy>
28.8877

> <b_lp_Chiralities_Consistent>
1

> <s_lp_Variant>
AV-unprocessed.smi:2982-1

> <Gold.Version>
5.8.1

> <Gold.Id.Protein>
6NUR|6NUR_protein|mol2

> <Gold.PLP.Fitness>
32.9816

> <Gold.PLP.PLP>
-28.8478

> <Gold.PLP.part.hbond>
-2.0000

> <Gold.PLP.part.metal>
0.0000

> <Gold.PLP.part.buried>
-1.1617

> <Gold.PLP.part.nonpolar>
-24.8935

> <Gold.PLP.part.repulsive>
0.1821

> <Gold.PLP.ligand.clash>
0.0000

> <Gold.PLP.ligand.torsion>
1.7267

> <Gold.PLP.Chemscore.Hbond>
1.9840

> <Gold.PLP.Chemscore.CHOScore>
0.0000

> <Gold.PLP.Chemscore.Metal>
0.0000

> <Gold.Chemscore.Hbonds>
donor molecule, donor type, donor heavy atom, donor atom, acceptor molecule, acceptor atom, score
      L1  H     6    28       P1  8028  0.83
      P1  H  7997  8008       L1    18  0.95

> <Gold.PLP.Chemscore.Internal.Correction>
1.6351

> <Gold.Rescore>
     Score         DG    S(hbond)    S(metal)    S(lipo)     H(rot)  DE(clash)    DE(int)     intcor
     12.63     -14.50       1.61        0.00      58.13       1.24       0.01       1.86       ----

> <Gold.Chemscore.Fitness>
12.6328

> <Gold.Chemscore.DG>
-14.5039

> <Gold.Chemscore.ZeroCoef>
-5.4800

> <Gold.Chemscore.Hbond>
1.6136

> <Gold.Chemscore.Metal>
0.0000

> <Gold.Chemscore.Lipo>
58.1324

> <Gold.Chemscore.Internal_Hbond>
0.0000

> <Gold.Chemscore.DEClash>
0.0089

> <Gold.Chemscore.DEInternal>
1.8623

> <Gold.Chemscore.Rot>
1.2371

> <Gold.Chemscore.Internal.Correction>
   9.000000E+99

> <Gold.Chemscore.Hbonds>
donor molecule, donor type, donor heavy atom, donor atom, acceptor molecule, acceptor atom, score
      L1  H     6    28       P1  8028  0.61
      P1  H  7997  8008       L1    18  0.21

> <Gold.Chemscore.Hbond.Weighted>
-5.3893

> <Gold.Chemscore.Metal.Weighted>
-0.0000

> <Gold.Chemscore.Lipo.Weighted>
-6.8015

> <Gold.Chemscore.Internal_Hbond.Weighted>
0.0000

> <Gold.Chemscore.DEClash.Weighted>
0.0089

> <Gold.Chemscore.DEInternal.Weighted>
1.8623

> <Gold.Chemscore.Rot.Weighted>
3.1669

> <Gold.Chemscore.Internal.Correction.Weighted>
   9.000000E+99

> <Gold.Protein.RotatedTorsions>
[ 6907 6896 6895 6894 ] final   81.57 input  -60.11 | X-H torsion
[ 7974 7965 7964 7962 ] final -103.73 input  175.53 | X-H torsion
[ 8008 7997 7996 7995 ] final -103.09 input   59.86 | X-H torsion
[ 10167 10162 10161 10158 ] final  114.45 input  -65.29 | X-H torsion
[ 10718 10713 10712 10709 ] final   60.69 input   66.30 | X-H torsion
[ 10763 10752 10751 10750 ] final   57.34 input  -60.55 | X-H torsion
[ 11005 11000 10999 10996 ] final  -10.89 input  -57.11 | X-H torsion

> <Gold.Protein.ActiveResidues>
 VAL166  LYS551  ARG553  GLY616  TRP617  ASP618  TYR619  PRO620  LYS621  CYS622 
 ASP623  PHE694  ASN695  SER759  ASP760  ASP761  ALA762  ILE779  LEU786  VAL792 
 PHE793  MET794  SER795  GLU796  ALA797  LYS798  CYS799  TRP800  GLU811  SER814 

> <Gold.Protein.RotatedAtoms>
  152.5272  134.3183  159.9138 H   0  0  0  0  0  0  0  0  0  0  0  0  # atno 6907 bound_to 6896
  151.3133  133.4065  159.2656 H   0  0  0  0  0  0  0  0  0  0  0  0  # atno 6908 bound_to 6896
  151.0020  134.9347  159.8017 H   0  0  0  0  0  0  0  0  0  0  0  0  # atno 6909 bound_to 6896
  145.2522  140.9241  143.3089 H   0  0  0  0  0  0  0  0  0  0  0  0  # atno 7974 bound_to 7965
  154.8659  140.0425  157.1694 H   0  0  0  0  0  0  0  0  0  0  0  0  # atno 8008 bound_to 7997
  154.8790  140.2970  155.5415 H   0  0  0  0  0  0  0  0  0  0  0  0  # atno 8009 bound_to 7997
  156.2999  140.2415  156.3790 H   0  0  0  0  0  0  0  0  0  0  0  0  # atno 8010 bound_to 7997
  139.6388  144.7122  151.2280 H   0  0  0  0  0  0  0  0  0  0  0  0  # atno 10167 bound_to 10162
  157.5772  130.8953  149.9367 H   0  0  0  0  0  0  0  0  0  0  0  0  # atno 10718 bound_to 10713
  152.9848  135.5645  154.5374 H   0  0  0  0  0  0  0  0  0  0  0  0  # atno 10763 bound_to 10752
  154.4835  135.2789  155.1554 H   0  0  0  0  0  0  0  0  0  0  0  0  # atno 10764 bound_to 10752
  154.3053  135.6299  153.5495 H   0  0  0  0  0  0  0  0  0  0  0  0  # atno 10765 bound_to 10752
  140.7495  133.8604  155.9033 H   0  0  0  0  0  0  0  0  0  0  0  0  # atno 11005 bound_to 11000
  144.9493  139.4101  143.6410 LP  0  0  0  0  0  0  0  0  0  0  0  0  # atno 17320 bound_to 7965
  146.3299  139.8492  142.8876 LP  0  0  0  0  0  0  0  0  0  0  0  0  # atno 17321 bound_to 7965
  140.7479  143.6349  150.8388 LP  0  0  0  0  0  0  0  0  0  0  0  0  # atno 17342 bound_to 10162
  139.9984  143.5771  152.2885 LP  0  0  0  0  0  0  0  0  0  0  0  0  # atno 17343 bound_to 10162
  156.0816  130.3672  150.0568 LP  0  0  0  0  0  0  0  0  0  0  0  0  # atno 17370 bound_to 10713
  156.8713  130.9525  151.3609 LP  0  0  0  0  0  0  0  0  0  0  0  0  # atno 17371 bound_to 10713
  140.9764  134.1464  157.4532 LP  0  0  0  0  0  0  0  0  0  0  0  0  # atno 17394 bound_to 11000
  139.8790  134.9996  156.5963 LP  0  0  0  0  0  0  0  0  0  0  0  0  # atno 17395 bound_to 11000

$$$$
