AV-unprocessed.smi:1226|AV-procd|sdf|5145|dock5
  -GOLD-   22720 4213D 1   1.00000     0.00000
 Structure written by MMmdl.
 37 38  0  0  0  0  0  0  0  0  1 V2000
  146.9176  131.3662  152.3406 C   0  0  0  0  0  0  0  0  0  0  0  0
  145.9655  132.2686  151.6338 C   0  0  0  0  0  0  0  0  0  0  0  0
  146.0685  133.6001  151.6380 N   0  0  0  0  0  0  0  0  0  0  0  0
  145.0599  134.2205  150.8940 C   0  0  0  0  0  0  0  0  0  0  0  0
  145.0231  135.7143  150.7810 C   0  0  0  0  0  0  0  0  0  0  0  0
  145.0039  136.3993  152.1577 C   0  0  0  0  0  0  0  0  0  0  0  0
  146.3152  136.9279  152.5147 N   0  0  0  0  0  0  0  0  0  0  0  0
  146.5571  137.7335  153.5578 C   0  0  0  0  0  0  0  0  0  0  0  0
  145.6918  138.1220  154.3429 O   0  0  0  0  0  0  0  0  0  0  0  0
  147.8536  138.0618  153.6435 N   0  0  0  0  0  0  0  0  0  0  0  0
  148.4358  138.9039  154.6822 C   0  0  0  0  0  0  0  0  0  0  0  0
  149.9430  139.1093  154.4601 C   0  0  1  0  0  0  0  0  0  0  0  0
  150.6342  139.8480  155.6045 C   0  0  0  0  0  0  0  0  0  0  0  0
  152.0669  139.3979  155.4355 C   0  0  0  0  0  0  0  0  0  0  0  0
  151.8895  137.9376  155.0294 C   0  0  0  0  0  0  0  0  0  0  0  0
  150.6262  137.8608  154.3740 O   0  0  0  0  0  0  0  0  0  0  0  0
  144.1831  133.3312  150.3245 C   0  0  0  0  0  0  0  0  0  0  0  0
  144.5946  131.6810  150.7009 S   0  0  0  0  0  0  0  0  0  0  0  0
  147.4831  131.9180  153.0923 H   0  0  0  0  0  0  0  0  0  0  0  0
  147.6162  130.9309  151.6259 H   0  0  0  0  0  0  0  0  0  0  0  0
  146.3739  130.5612  152.8348 H   0  0  0  0  0  0  0  0  0  0  0  0
  145.8865  136.0602  150.2112 H   0  0  0  0  0  0  0  0  0  0  0  0
  144.1466  136.0210  150.2087 H   0  0  0  0  0  0  0  0  0  0  0  0
  144.2961  137.2286  152.1511 H   0  0  0  0  0  0  0  0  0  0  0  0
  144.6596  135.7039  152.9251 H   0  0  0  0  0  0  0  0  0  0  0  0
  147.0910  136.6610  151.9265 H   0  0  0  0  0  0  0  0  0  0  0  0
  148.4863  137.6910  152.9500 H   0  0  0  0  0  0  0  0  0  0  0  0
  147.9277  139.8677  154.6476 H   0  0  0  0  0  0  0  0  0  0  0  0
  148.2442  138.4907  155.6741 H   0  0  0  0  0  0  0  0  0  0  0  0
  150.1178  139.6525  153.5299 H   0  0  0  0  0  0  0  0  0  0  0  0
  150.5154  140.9302  155.5467 H   0  0  0  0  0  0  0  0  0  0  0  0
  150.2500  139.5118  156.5688 H   0  0  0  0  0  0  0  0  0  0  0  0
  152.5415  139.9584  154.6292 H   0  0  0  0  0  0  0  0  0  0  0  0
  152.6665  139.5203  156.3378 H   0  0  0  0  0  0  0  0  0  0  0  0
  152.6946  137.5873  154.3833 H   0  0  0  0  0  0  0  0  0  0  0  0
  151.8589  137.2967  155.9111 H   0  0  0  0  0  0  0  0  0  0  0  0
  143.3239  133.5468  149.7066 H   0  0  0  0  0  0  0  0  0  0  0  0
  1  2  1  0  0  0  0
  1 19  1  0  0  0  0
  1 20  1  0  0  0  0
  1 21  1  0  0  0  0
  2 18  1  0  0  0  0
  2  3  2  0  0  0  0
  3  4  1  0  0  0  0
  4  5  1  0  0  0  0
  4 17  2  0  0  0  0
  5  6  1  0  0  0  0
  5 22  1  0  0  0  0
  5 23  1  0  0  0  0
  6  7  1  0  0  0  0
  6 24  1  0  0  0  0
  6 25  1  0  0  0  0
  7  8  1  0  0  0  0
  7 26  1  0  0  0  0
  8  9  2  0  0  0  0
  8 10  1  0  0  0  0
 10 11  1  0  0  0  0
 10 27  1  0  0  0  0
 11 12  1  0  0  0  0
 11 28  1  0  0  0  0
 11 29  1  0  0  0  0
 12 16  1  0  0  0  0
 12 13  1  0  0  0  0
 12 30  1  0  0  0  0
 13 14  1  0  0  0  0
 13 31  1  0  0  0  0
 13 32  1  0  0  0  0
 14 15  1  0  0  0  0
 14 33  1  0  0  0  0
 14 34  1  0  0  0  0
 15 16  1  0  0  0  0
 15 35  1  0  0  0  0
 15 36  1  0  0  0  0
 17 18  1  0  0  0  0
 17 37  1  0  0  0  0
M  END
> <s_m_source_file>
AV-unprocessed.smi

> <i_m_source_file_index>
1226

> <i_lp_mmshare_version>
43012

> <i_f3d_flags>
0

> <s_epik_input>
W0NIM11jMW5jKFtjSF1zMSlbQ0gyXVtDSDJdW05IXUMoPU8pW05IXVtDSDJdW0NAQEhdMltDSDJdW0NIMl1bQ0gyXU8y

> <s_epik_cmdline>
J2VwaWtfcHl0aG9uJywgJy1waCcsICc3LjAnLCAnLXRuJywgJzgnLCAnLW1hJywgJzIwMCcsICctbWV0YWxfYmluZGluZycsICctaW1hZScsICc8aW5maWxlLm1hZT4nLCAnLW9tYWUnLCAnPG91dGZpbGUubWFlPic=

> <r_epik_Ionization_Penalty>
0.00199722

> <r_epik_Ionization_Penalty_Charging>
0

> <r_epik_Ionization_Penalty_Neutral>
0.00199722

> <r_epik_State_Penalty>
0.00132705

> <r_epik_Charging_Adjusted_Penalty>
0.00132705

> <i_epik_Tot_Q>
0

> <i_epik_Tot_abs_Q>
0

> <r_epik_Metal_State_Penalty>
-0

> <b_epik_Metal_Only>
0

> <s_lp_Force_Field>
OPLS_2005

> <r_lp_Energy>
8.90451

> <b_lp_Chiralities_Consistent>
1

> <s_lp_Variant>
AV-unprocessed.smi:1226-2

> <Gold.Version>
5.8.1

> <Gold.Id.Protein>
6NUR|6NUR_protein|mol2

> <Gold.PLP.Fitness>
40.8758

> <Gold.PLP.PLP>
-32.8320

> <Gold.PLP.part.hbond>
-2.0000

> <Gold.PLP.part.metal>
0.0000

> <Gold.PLP.part.buried>
-4.6017

> <Gold.PLP.part.nonpolar>
-27.3951

> <Gold.PLP.part.repulsive>
0.5433

> <Gold.PLP.ligand.clash>
0.0000

> <Gold.PLP.ligand.torsion>
0.3878

> <Gold.PLP.Chemscore.Hbond>
1.9280

> <Gold.PLP.Chemscore.CHOScore>
1.0000

> <Gold.PLP.Chemscore.Metal>
0.0000

> <Gold.Chemscore.Hbonds>
donor molecule, donor type, donor heavy atom, donor atom, acceptor molecule, acceptor atom, score
      L1  H     7    26       P1  7948  0.94
      L1  H    10    27       P1  7948  0.96
      L1  C    17    37       P1 10186  1.00

> <Gold.PLP.Chemscore.Internal.Correction>
0.0353

> <Gold.Rescore>
     Score         DG    S(hbond)    S(metal)    S(lipo)     H(rot)  DE(clash)    DE(int)     intcor
     16.46     -16.90       1.88        0.00      82.19       1.75       0.04       0.40       ----

> <Gold.Chemscore.Fitness>
16.4634

> <Gold.Chemscore.DG>
-16.8979

> <Gold.Chemscore.ZeroCoef>
-5.4800

> <Gold.Chemscore.Hbond>
1.8798

> <Gold.Chemscore.Metal>
0.0000

> <Gold.Chemscore.Lipo>
82.1892

> <Gold.Chemscore.Internal_Hbond>
0.0000

> <Gold.Chemscore.DEClash>
0.0379

> <Gold.Chemscore.DEInternal>
0.3965

> <Gold.Chemscore.Rot>
1.7487

> <Gold.Chemscore.Internal.Correction>
   9.000000E+99

> <Gold.Chemscore.Hbonds>
donor molecule, donor type, donor heavy atom, donor atom, acceptor molecule, acceptor atom, score
      L1  H     7    26       P1  7948  0.91
      L1  H    10    27       P1  7948  0.92

> <Gold.Chemscore.Hbond.Weighted>
-6.2786

> <Gold.Chemscore.Metal.Weighted>
-0.0000

> <Gold.Chemscore.Lipo.Weighted>
-9.6161

> <Gold.Chemscore.Internal_Hbond.Weighted>
0.0000

> <Gold.Chemscore.DEClash.Weighted>
0.0379

> <Gold.Chemscore.DEInternal.Weighted>
0.3965

> <Gold.Chemscore.Rot.Weighted>
4.4768

> <Gold.Chemscore.Internal.Correction.Weighted>
   9.000000E+99

> <Gold.Protein.RotatedTorsions>
[ 6907 6896 6895 6894 ] final   43.59 input  -60.11 | X-H torsion
[ 7974 7965 7964 7962 ] final  -39.33 input  175.53 | X-H torsion
[ 8008 7997 7996 7995 ] final   43.94 input   59.86 | X-H torsion
[ 10167 10162 10161 10158 ] final   92.09 input  -65.29 | X-H torsion
[ 10718 10713 10712 10709 ] final  -55.63 input   66.30 | X-H torsion
[ 10763 10752 10751 10750 ] final   17.68 input  -60.55 | X-H torsion
[ 11005 11000 10999 10996 ] final  -95.47 input  -57.11 | X-H torsion

> <Gold.Protein.ActiveResidues>
 VAL166  LYS551  ARG553  GLY616  TRP617  ASP618  TYR619  PRO620  LYS621  CYS622 
 ASP623  PHE694  ASN695  SER759  ASP760  ASP761  ALA762  ILE779  LEU786  VAL792 
 PHE793  MET794  SER795  GLU796  ALA797  LYS798  CYS799  TRP800  GLU811  SER814 

> <Gold.Protein.RotatedAtoms>
  152.2222  134.8402  160.0484 H   0  0  0  0  0  0  0  0  0  0  0  0  # atno 6907 bound_to 6896
  151.9182  133.3573  159.3896 H   0  0  0  0  0  0  0  0  0  0  0  0  # atno 6908 bound_to 6896
  150.7003  134.4587  159.5415 H   0  0  0  0  0  0  0  0  0  0  0  0  # atno 6909 bound_to 6896
  146.0406  140.6613  142.9089 H   0  0  0  0  0  0  0  0  0  0  0  0  # atno 7974 bound_to 7965
  155.3111  140.3391  155.4244 H   0  0  0  0  0  0  0  0  0  0  0  0  # atno 8008 bound_to 7997
  156.1955  140.1713  156.8045 H   0  0  0  0  0  0  0  0  0  0  0  0  # atno 8009 bound_to 7997
  154.5493  140.0709  156.8626 H   0  0  0  0  0  0  0  0  0  0  0  0  # atno 8010 bound_to 7997
  139.8310  144.6687  150.9400 H   0  0  0  0  0  0  0  0  0  0  0  0  # atno 10167 bound_to 10162
  156.1353  130.4157  150.0197 H   0  0  0  0  0  0  0  0  0  0  0  0  # atno 10718 bound_to 10713
  153.1316  135.6741  153.9168 H   0  0  0  0  0  0  0  0  0  0  0  0  # atno 10763 bound_to 10752
  153.8653  135.3076  155.3441 H   0  0  0  0  0  0  0  0  0  0  0  0  # atno 10764 bound_to 10752
  154.7712  135.4938  153.9735 H   0  0  0  0  0  0  0  0  0  0  0  0  # atno 10765 bound_to 10752
  141.1441  133.8028  157.0439 H   0  0  0  0  0  0  0  0  0  0  0  0  # atno 11005 bound_to 11000
  144.7073  140.3901  143.7108 LP  0  0  0  0  0  0  0  0  0  0  0  0  # atno 17320 bound_to 7965
  145.6890  139.1635  143.2657 LP  0  0  0  0  0  0  0  0  0  0  0  0  # atno 17321 bound_to 7965
  140.7806  143.4001  151.1164 LP  0  0  0  0  0  0  0  0  0  0  0  0  # atno 17342 bound_to 10162
  139.7654  143.8573  152.3109 LP  0  0  0  0  0  0  0  0  0  0  0  0  # atno 17343 bound_to 10162
  156.8098  130.9320  151.3644 LP  0  0  0  0  0  0  0  0  0  0  0  0  # atno 17370 bound_to 10713
  157.6526  130.8897  149.9664 LP  0  0  0  0  0  0  0  0  0  0  0  0  # atno 17371 bound_to 10713
  140.0675  134.9721  157.1410 LP  0  0  0  0  0  0  0  0  0  0  0  0  # atno 17394 bound_to 11000
  140.3759  134.2340  155.7174 LP  0  0  0  0  0  0  0  0  0  0  0  0  # atno 17395 bound_to 11000

$$$$
