AV-unprocessed.smi:2154|AV-procd|sdf|8773|dock2
  -GOLD-   2272011553D 1   1.00000     0.00000
 Structure written by MMmdl.
 32 33  0  0  0  0  0  0  0  0  1 V2000
  154.0752  142.1400  160.1458 C   0  0  0  0  0  0  0  0  0  0  0  0
  152.6816  142.7055  160.3141 C   0  0  1  0  0  0  0  0  0  0  0  0
  152.4550  144.1997  160.3368 C   0  0  0  0  0  0  0  0  0  0  0  0
  151.9796  143.3831  159.1585 C   0  0  2  0  0  0  0  0  0  0  0  0
  150.4956  143.1810  158.9163 C   0  0  0  0  0  0  0  0  0  0  0  0
  150.1492  142.7162  157.5796 N   0  0  0  0  0  0  0  0  0  0  0  0
  149.7245  141.4795  157.2796 C   0  0  0  0  0  0  0  0  0  0  0  0
  149.5728  140.5962  158.1248 O   0  0  0  0  0  0  0  0  0  0  0  0
  149.4034  141.2166  155.8013 C   0  0  0  0  0  0  0  0  0  0  0  0
  150.1595  140.0882  155.2386 N   0  0  0  0  0  0  0  0  0  0  0  0
  151.5114  139.9432  155.5158 C   0  0  0  0  0  0  0  0  0  0  0  0
  152.2696  138.9347  155.0240 C   0  0  0  0  0  0  0  0  0  0  0  0
  151.6794  137.9245  154.1525 C   0  0  0  0  0  0  0  0  0  0  0  0
  152.2821  136.9735  153.6597 O   0  0  0  0  0  0  0  0  0  0  0  0
  150.3182  138.1067  153.8945 N   0  0  0  0  0  0  0  0  0  0  0  0
  149.5317  139.1445  154.3964 C   0  0  0  0  0  0  0  0  0  0  0  0
  148.3390  139.2144  154.1019 O   0  0  0  0  0  0  0  0  0  0  0  0
  149.8666  137.4331  153.2930 H   0  0  0  0  0  0  0  0  0  0  0  0
  154.6673  142.7612  159.4729 H   0  0  0  0  0  0  0  0  0  0  0  0
  154.0223  141.1330  159.7323 H   0  0  0  0  0  0  0  0  0  0  0  0
  154.5797  142.0943  161.1110 H   0  0  0  0  0  0  0  0  0  0  0  0
  152.0527  142.1195  160.9817 H   0  0  0  0  0  0  0  0  0  0  0  0
  151.7047  144.5812  161.0267 H   0  0  0  0  0  0  0  0  0  0  0  0
  153.3160  144.8467  160.1823 H   0  0  0  0  0  0  0  0  0  0  0  0
  152.5587  143.5093  158.2455 H   0  0  0  0  0  0  0  0  0  0  0  0
  150.1105  142.4573  159.6356 H   0  0  0  0  0  0  0  0  0  0  0  0
  149.9774  144.1189  159.1219 H   0  0  0  0  0  0  0  0  0  0  0  0
  150.2412  143.3822  156.8264 H   0  0  0  0  0  0  0  0  0  0  0  0
  148.3315  141.0324  155.7154 H   0  0  0  0  0  0  0  0  0  0  0  0
  149.5878  142.1206  155.2170 H   0  0  0  0  0  0  0  0  0  0  0  0
  151.9922  140.6711  156.1538 H   0  0  0  0  0  0  0  0  0  0  0  0
  153.3185  138.8760  155.2759 H   0  0  0  0  0  0  0  0  0  0  0  0
  1  2  1  0  0  0  0
  1 19  1  0  0  0  0
  1 20  1  0  0  0  0
  1 21  1  0  0  0  0
  2  4  1  0  0  0  0
  2  3  1  0  0  0  0
  2 22  1  0  0  0  0
  3  4  1  0  0  0  0
  3 23  1  0  0  0  0
  3 24  1  0  0  0  0
  4  5  1  0  0  0  0
  4 25  1  0  0  0  0
  5  6  1  0  0  0  0
  5 26  1  0  0  0  0
  5 27  1  0  0  0  0
  6  7  1  0  0  0  0
  6 28  1  0  0  0  0
  7  8  2  0  0  0  0
  7  9  1  0  0  0  0
  9 10  1  0  0  0  0
  9 29  1  0  0  0  0
  9 30  1  0  0  0  0
 10 16  1  0  0  0  0
 10 11  1  0  0  0  0
 11 12  2  0  0  0  0
 11 31  1  0  0  0  0
 12 13  1  0  0  0  0
 12 32  1  0  0  0  0
 13 14  2  0  0  0  0
 13 15  1  0  0  0  0
 15 18  1  0  0  0  0
 15 16  1  0  0  0  0
 16 17  2  0  0  0  0
M  END
> <s_m_source_file>
AV-unprocessed.smi

> <i_m_source_file_index>
2154

> <i_lp_mmshare_version>
43012

> <i_f3d_flags>
0

> <s_epik_input>
W0NIM11bQ0BASF0xW0NIMl1bQ0BIXTFbQ0gyXVtOSF1DKD1PKVtDSDJdbjJbY0hdW2NIXWMoPU8pW25IXWMyPU8=

> <s_epik_cmdline>
J2VwaWtfcHl0aG9uJywgJy1waCcsICc3LjAnLCAnLXRuJywgJzgnLCAnLW1hJywgJzIwMCcsICctbWV0YWxfYmluZGluZycsICctaW1hZScsICc8aW5maWxlLm1hZT4nLCAnLW9tYWUnLCAnPG91dGZpbGUubWFlPic=

> <r_lp_tautomer_probability>
0.999537

> <r_epik_Ionization_Penalty>
0.00305319

> <r_epik_Ionization_Penalty_Charging>
0.00305317

> <r_epik_Ionization_Penalty_Neutral>
2.06703e-08

> <r_epik_State_Penalty>
0.00214626

> <r_epik_Charging_Adjusted_Penalty>
0.00519944

> <i_epik_Tot_Q>
0

> <i_epik_Tot_abs_Q>
0

> <r_epik_Metal_State_Penalty>
0.361976

> <b_epik_Metal_Only>
0

> <s_lp_Force_Field>
OPLS_2005

> <r_lp_Energy>
14.6752

> <b_lp_Chiralities_Consistent>
1

> <s_lp_Variant>
AV-unprocessed.smi:2154-4

> <Gold.Version>
5.8.1

> <Gold.Id.Protein>
6NUR|6NUR_protein|mol2

> <Gold.PLP.Fitness>
42.0730

> <Gold.PLP.PLP>
-35.7110

> <Gold.PLP.part.hbond>
-2.4821

> <Gold.PLP.part.metal>
0.0000

> <Gold.PLP.part.buried>
-6.0713

> <Gold.PLP.part.nonpolar>
-31.1229

> <Gold.PLP.part.repulsive>
2.1839

> <Gold.PLP.ligand.clash>
0.0000

> <Gold.PLP.ligand.torsion>
0.7338

> <Gold.PLP.Chemscore.Hbond>
2.4278

> <Gold.PLP.Chemscore.CHOScore>
0.0000

> <Gold.PLP.Chemscore.Metal>
0.0000

> <Gold.Chemscore.Hbonds>
donor molecule, donor type, donor heavy atom, donor atom, acceptor molecule, acceptor atom, score
      L1  H     6    28       P1  8028  0.38
      L1  H    15    18       P1  7948  0.98
      P1  H 10752 10763       L1    14  0.94

> <Gold.PLP.Chemscore.Internal.Correction>
0.5464

> <Gold.Rescore>
     Score         DG    S(hbond)    S(metal)    S(lipo)     H(rot)  DE(clash)    DE(int)     intcor
     15.41     -18.02       2.61        0.00      76.68       2.01       1.89       0.72       ----

> <Gold.Chemscore.Fitness>
15.4101

> <Gold.Chemscore.DG>
-18.0192

> <Gold.Chemscore.ZeroCoef>
-5.4800

> <Gold.Chemscore.Hbond>
2.6061

> <Gold.Chemscore.Metal>
0.0000

> <Gold.Chemscore.Lipo>
76.6792

> <Gold.Chemscore.Internal_Hbond>
0.0000

> <Gold.Chemscore.DEClash>
1.8886

> <Gold.Chemscore.DEInternal>
0.7205

> <Gold.Chemscore.Rot>
2.0065

> <Gold.Chemscore.Internal.Correction>
   9.000000E+99

> <Gold.Chemscore.Hbonds>
donor molecule, donor type, donor heavy atom, donor atom, acceptor molecule, acceptor atom, score
      L1  H     6    28       P1  8028  0.38
      L1  H    15    18       P1  7948  0.46
      P1  H 10752 10763       L1    14  0.87

> <Gold.Chemscore.Hbond.Weighted>
-8.7043

> <Gold.Chemscore.Metal.Weighted>
-0.0000

> <Gold.Chemscore.Lipo.Weighted>
-8.9715

> <Gold.Chemscore.Internal_Hbond.Weighted>
0.0000

> <Gold.Chemscore.DEClash.Weighted>
1.8886

> <Gold.Chemscore.DEInternal.Weighted>
0.7205

> <Gold.Chemscore.Rot.Weighted>
5.1366

> <Gold.Chemscore.Internal.Correction.Weighted>
   9.000000E+99

> <Gold.Protein.RotatedTorsions>
[ 6907 6896 6895 6894 ] final -165.48 input  -60.11 | X-H torsion
[ 7974 7965 7964 7962 ] final  -68.52 input  175.53 | X-H torsion
[ 8008 7997 7996 7995 ] final  101.55 input   59.86 | X-H torsion
[ 10167 10162 10161 10158 ] final   99.65 input  -65.29 | X-H torsion
[ 10718 10713 10712 10709 ] final  -31.29 input   66.30 | X-H torsion
[ 10763 10752 10751 10750 ] final   23.71 input  -60.55 | X-H torsion
[ 11005 11000 10999 10996 ] final  -31.80 input  -57.11 | X-H torsion

> <Gold.Protein.ActiveResidues>
 VAL166  LYS551  ARG553  GLY616  TRP617  ASP618  TYR619  PRO620  LYS621  CYS622 
 ASP623  PHE694  ASN695  SER759  ASP760  ASP761  ALA762  ILE779  LEU786  VAL792 
 PHE793  MET794  SER795  GLU796  ALA797  LYS798  CYS799  TRP800  GLU811  SER814 

> <Gold.Protein.RotatedAtoms>
  151.4283  133.3677  159.2765 H   0  0  0  0  0  0  0  0  0  0  0  0  # atno 6907 bound_to 6896
  150.9243  134.8662  159.7520 H   0  0  0  0  0  0  0  0  0  0  0  0  # atno 6908 bound_to 6896
  152.4997  134.4223  159.9537 H   0  0  0  0  0  0  0  0  0  0  0  0  # atno 6909 bound_to 6896
  145.7154  140.9061  143.0658 H   0  0  0  0  0  0  0  0  0  0  0  0  # atno 7974 bound_to 7965
  156.1310  140.3195  155.8349 H   0  0  0  0  0  0  0  0  0  0  0  0  # atno 8008 bound_to 7997
  155.4332  140.0520  157.3034 H   0  0  0  0  0  0  0  0  0  0  0  0  # atno 8009 bound_to 7997
  154.4899  140.2088  155.9584 H   0  0  0  0  0  0  0  0  0  0  0  0  # atno 8010 bound_to 7997
  139.7598  144.6958  151.0309 H   0  0  0  0  0  0  0  0  0  0  0  0  # atno 10167 bound_to 10162
  156.3892  130.4370  149.7408 H   0  0  0  0  0  0  0  0  0  0  0  0  # atno 10718 bound_to 10713
  153.0818  135.6621  154.0030 H   0  0  0  0  0  0  0  0  0  0  0  0  # atno 10763 bound_to 10752
  153.9649  135.2970  155.3432 H   0  0  0  0  0  0  0  0  0  0  0  0  # atno 10764 bound_to 10752
  154.7219  135.5161  153.8896 H   0  0  0  0  0  0  0  0  0  0  0  0  # atno 10765 bound_to 10752
  140.9498  133.7227  156.1203 H   0  0  0  0  0  0  0  0  0  0  0  0  # atno 11005 bound_to 11000
  144.6930  139.9131  143.7464 LP  0  0  0  0  0  0  0  0  0  0  0  0  # atno 17320 bound_to 7965
  146.0674  139.3664  143.0544 LP  0  0  0  0  0  0  0  0  0  0  0  0  # atno 17321 bound_to 7965
  140.7806  143.4710  151.0146 LP  0  0  0  0  0  0  0  0  0  0  0  0  # atno 17342 bound_to 10162
  139.8396  143.7581  152.3180 LP  0  0  0  0  0  0  0  0  0  0  0  0  # atno 17343 bound_to 10162
  156.4468  130.7888  151.2909 LP  0  0  0  0  0  0  0  0  0  0  0  0  # atno 17370 bound_to 10713
  157.7498  131.0108  150.3319 LP  0  0  0  0  0  0  0  0  0  0  0  0  # atno 17371 bound_to 10713
  140.7618  134.3931  157.5524 LP  0  0  0  0  0  0  0  0  0  0  0  0  # atno 17394 bound_to 11000
  139.8844  134.8966  156.2705 LP  0  0  0  0  0  0  0  0  0  0  0  0  # atno 17395 bound_to 11000

$$$$
