AV-unprocessed.smi:2082|AV-procd|sdf|8489|dock6
  -GOLD-   2272011193D 1   1.00000     0.00000
 Structure written by MMmdl.
 39 40  0  0  0  0  0  0  0  0  1 V2000
  152.0678  144.8038  159.0553 C   0  0  0  0  0  0  0  0  0  0  0  0
  151.4082  143.5738  158.8125 O   0  0  0  0  0  0  0  0  0  0  0  0
  151.3262  143.2646  157.4311 C   0  0  0  0  0  0  0  0  0  0  0  0
  150.5994  141.9278  157.2590 C   0  0  0  0  0  0  0  0  0  0  0  0
  150.7407  141.5023  155.9069 O   0  0  0  0  0  0  0  0  0  0  0  0
  149.8642  140.5561  155.4175 C   0  0  0  0  0  0  0  0  0  0  0  0
  148.6913  140.2833  156.1492 C   0  0  0  0  0  0  0  0  0  0  0  0
  147.7907  139.3186  155.6586 C   0  0  0  0  0  0  0  0  0  0  0  0
  148.0988  138.6483  154.4509 C   0  0  0  0  0  0  0  0  0  0  0  0
  147.2632  137.6749  153.8406 N   0  0  0  0  0  0  0  0  0  0  0  0
  145.9303  137.5115  153.9571 C   0  0  0  0  0  0  0  0  0  0  0  0
  145.2341  138.1927  154.7105 O   0  0  0  0  0  0  0  0  0  0  0  0
  145.4242  136.4953  153.2101 N   0  0  0  0  0  0  0  0  0  0  0  0
  146.1674  135.3070  152.7639 C   0  0  0  0  0  0  0  0  0  0  0  0
  145.6303  134.0877  153.5331 C   0  0  0  0  0  0  0  0  0  0  0  0
  144.1669  134.0482  153.5479 N   0  0  0  0  0  0  0  0  0  0  0  0
  143.3580  135.0818  153.2483 C   0  0  0  0  0  0  0  0  0  0  0  0
  142.1346  134.9699  153.2701 O   0  0  0  0  0  0  0  0  0  0  0  0
  143.9930  136.4342  152.8694 C   0  0  0  0  0  0  0  0  0  0  0  0
  149.2910  139.0046  153.7875 C   0  0  0  0  0  0  0  0  0  0  0  0
  150.1587  139.9275  154.2527 N   0  0  0  0  0  0  0  0  0  0  0  0
  152.1006  144.9963  160.1277 H   0  0  0  0  0  0  0  0  0  0  0  0
  151.5441  145.6342  158.5798 H   0  0  0  0  0  0  0  0  0  0  0  0
  153.0940  144.7795  158.6865 H   0  0  0  0  0  0  0  0  0  0  0  0
  150.7684  144.0511  156.9208 H   0  0  0  0  0  0  0  0  0  0  0  0
  152.3183  143.2192  156.9788 H   0  0  0  0  0  0  0  0  0  0  0  0
  151.0005  141.1884  157.9544 H   0  0  0  0  0  0  0  0  0  0  0  0
  149.5410  142.0639  157.4869 H   0  0  0  0  0  0  0  0  0  0  0  0
  148.4828  140.8095  157.0689 H   0  0  0  0  0  0  0  0  0  0  0  0
  146.8819  139.1250  156.2067 H   0  0  0  0  0  0  0  0  0  0  0  0
  147.7417  136.9864  153.2782 H   0  0  0  0  0  0  0  0  0  0  0  0
  145.9866  135.1737  151.6959 H   0  0  0  0  0  0  0  0  0  0  0  0
  147.2508  135.3751  152.8635 H   0  0  0  0  0  0  0  0  0  0  0  0
  146.0106  133.1649  153.0947 H   0  0  0  0  0  0  0  0  0  0  0  0
  145.9798  134.1159  154.5657 H   0  0  0  0  0  0  0  0  0  0  0  0
  143.7359  133.1701  153.7991 H   0  0  0  0  0  0  0  0  0  0  0  0
  143.4052  137.2217  153.3436 H   0  0  0  0  0  0  0  0  0  0  0  0
  143.8844  136.5785  151.7940 H   0  0  0  0  0  0  0  0  0  0  0  0
  149.5619  138.5316  152.8549 H   0  0  0  0  0  0  0  0  0  0  0  0
  1  2  1  0  0  0  0
  1 22  1  0  0  0  0
  1 23  1  0  0  0  0
  1 24  1  0  0  0  0
  2  3  1  0  0  0  0
  3  4  1  0  0  0  0
  3 25  1  0  0  0  0
  3 26  1  0  0  0  0
  4  5  1  0  0  0  0
  4 27  1  0  0  0  0
  4 28  1  0  0  0  0
  5  6  1  0  0  0  0
  6 21  1  0  0  0  0
  6  7  2  0  0  0  0
  7  8  1  0  0  0  0
  7 29  1  0  0  0  0
  8  9  2  0  0  0  0
  8 30  1  0  0  0  0
  9 10  1  0  0  0  0
  9 20  1  0  0  0  0
 10 11  1  0  0  0  0
 10 31  1  0  0  0  0
 11 12  2  0  0  0  0
 11 13  1  0  0  0  0
 13 19  1  0  0  0  0
 13 14  1  0  0  0  0
 14 15  1  0  0  0  0
 14 32  1  0  0  0  0
 14 33  1  0  0  0  0
 15 16  1  0  0  0  0
 15 34  1  0  0  0  0
 15 35  1  0  0  0  0
 16 17  1  0  0  0  0
 16 36  1  0  0  0  0
 17 18  2  0  0  0  0
 17 19  1  0  0  0  0
 19 37  1  0  0  0  0
 19 38  1  0  0  0  0
 20 21  2  0  0  0  0
 20 39  1  0  0  0  0
M  END
> <s_m_source_file>
AV-unprocessed.smi

> <i_m_source_file_index>
2082

> <i_lp_mmshare_version>
43012

> <i_f3d_flags>
0

> <s_epik_input>
W0NIM11PW0NIMl1bQ0gyXU9jMVtjSF1bY0hdYyhbY0hdbjEpW05IXUMoPU8pTjJbQ0gyXVtDSDJdW05IXUMoPU8pW0NIMl0y

> <s_epik_cmdline>
J2VwaWtfcHl0aG9uJywgJy1waCcsICc3LjAnLCAnLXRuJywgJzgnLCAnLW1hJywgJzIwMCcsICctbWV0YWxfYmluZGluZycsICctaW1hZScsICc8aW5maWxlLm1hZT4nLCAnLW9tYWUnLCAnPG91dGZpbGUubWFlPic=

> <r_lp_tautomer_probability>
1

> <r_epik_Ionization_Penalty>
5.92413e-05

> <r_epik_Ionization_Penalty_Charging>
0

> <r_epik_Ionization_Penalty_Neutral>
5.92413e-05

> <r_epik_State_Penalty>
-0

> <r_epik_Charging_Adjusted_Penalty>
0

> <i_epik_Tot_Q>
0

> <i_epik_Tot_abs_Q>
0

> <r_epik_Metal_State_Penalty>
-0

> <b_epik_Metal_Only>
0

> <s_lp_Force_Field>
OPLS_2005

> <r_lp_Energy>
31.1837

> <b_lp_Chiralities_Consistent>
1

> <s_lp_Variant>
AV-unprocessed.smi:2082-1

> <Gold.Version>
5.8.1

> <Gold.Id.Protein>
6NUR|6NUR_protein|mol2

> <Gold.PLP.Fitness>
36.7512

> <Gold.PLP.PLP>
-24.2507

> <Gold.PLP.part.hbond>
-3.0957

> <Gold.PLP.part.metal>
0.0000

> <Gold.PLP.part.buried>
-2.3065

> <Gold.PLP.part.nonpolar>
-19.7069

> <Gold.PLP.part.repulsive>
0.5498

> <Gold.PLP.ligand.clash>
0.0000

> <Gold.PLP.ligand.torsion>
0.6858

> <Gold.PLP.Chemscore.Hbond>
3.0000

> <Gold.PLP.Chemscore.CHOScore>
1.6130

> <Gold.PLP.Chemscore.Metal>
0.0000

> <Gold.Chemscore.Hbonds>
donor molecule, donor type, donor heavy atom, donor atom, acceptor molecule, acceptor atom, score
      L1  H    10    31       P1  7948  1.00
      L1  H    16    36       P1 10957  1.00
      P1  H  7989  7998       L1    21  1.00
      L1  C    20    39       P1  7948  0.99
      L1  C    20    39       P1  7957  0.64

> <Gold.PLP.Chemscore.Internal.Correction>
0.0328

> <Gold.Rescore>
     Score         DG    S(hbond)    S(metal)    S(lipo)     H(rot)  DE(clash)    DE(int)     intcor
     13.29     -15.63       2.59        0.00      52.55       1.81       0.46       1.88       ----

> <Gold.Chemscore.Fitness>
13.2851

> <Gold.Chemscore.DG>
-15.6313

> <Gold.Chemscore.ZeroCoef>
-5.4800

> <Gold.Chemscore.Hbond>
2.5854

> <Gold.Chemscore.Metal>
0.0000

> <Gold.Chemscore.Lipo>
52.5507

> <Gold.Chemscore.Internal_Hbond>
0.0000

> <Gold.Chemscore.DEClash>
0.4641

> <Gold.Chemscore.DEInternal>
1.8821

> <Gold.Chemscore.Rot>
1.8095

> <Gold.Chemscore.Internal.Correction>
   9.000000E+99

> <Gold.Chemscore.Hbonds>
donor molecule, donor type, donor heavy atom, donor atom, acceptor molecule, acceptor atom, score
      L1  H    10    31       P1  7948  0.95
      L1  H    16    36       P1 10957  0.93
      P1  H  7989  7998       L1    21  0.59

> <Gold.Chemscore.Hbond.Weighted>
-8.6351

> <Gold.Chemscore.Metal.Weighted>
-0.0000

> <Gold.Chemscore.Lipo.Weighted>
-6.1484

> <Gold.Chemscore.Internal_Hbond.Weighted>
0.0000

> <Gold.Chemscore.DEClash.Weighted>
0.4641

> <Gold.Chemscore.DEInternal.Weighted>
1.8821

> <Gold.Chemscore.Rot.Weighted>
4.6322

> <Gold.Chemscore.Internal.Correction.Weighted>
   9.000000E+99

> <Gold.Protein.RotatedTorsions>
[ 6907 6896 6895 6894 ] final  -84.46 input  -60.11 | X-H torsion
[ 7974 7965 7964 7962 ] final  173.55 input  175.53 | X-H torsion
[ 8008 7997 7996 7995 ] final   38.69 input   59.86 | X-H torsion
[ 10167 10162 10161 10158 ] final -175.36 input  -65.29 | X-H torsion
[ 10718 10713 10712 10709 ] final   45.22 input   66.30 | X-H torsion
[ 10763 10752 10751 10750 ] final -159.52 input  -60.55 | X-H torsion
[ 11005 11000 10999 10996 ] final  165.90 input  -57.11 | X-H torsion

> <Gold.Protein.ActiveResidues>
 VAL166  LYS551  ARG553  GLY616  TRP617  ASP618  TYR619  PRO620  LYS621  CYS622 
 ASP623  PHE694  ASN695  SER759  ASP760  ASP761  ALA762  ILE779  LEU786  VAL792 
 PHE793  MET794  SER795  GLU796  ALA797  LYS798  CYS799  TRP800  GLU811  SER814 

> <Gold.Protein.RotatedAtoms>
  150.6876  134.3355  159.4844 H   0  0  0  0  0  0  0  0  0  0  0  0  # atno 6907 bound_to 6896
  152.1214  134.9200  160.0572 H   0  0  0  0  0  0  0  0  0  0  0  0  # atno 6908 bound_to 6896
  152.0404  133.3940  159.4371 H   0  0  0  0  0  0  0  0  0  0  0  0  # atno 6909 bound_to 6896
  144.7241  139.9665  143.6436 H   0  0  0  0  0  0  0  0  0  0  0  0  # atno 7974 bound_to 7965
  155.2243  140.3333  155.4311 H   0  0  0  0  0  0  0  0  0  0  0  0  # atno 8008 bound_to 7997
  156.2320  140.1855  156.7264 H   0  0  0  0  0  0  0  0  0  0  0  0  # atno 8009 bound_to 7997
  154.5995  140.0625  156.9334 H   0  0  0  0  0  0  0  0  0  0  0  0  # atno 8010 bound_to 7997
  139.5585  144.1928  152.1200 H   0  0  0  0  0  0  0  0  0  0  0  0  # atno 10167 bound_to 10162
  157.4352  130.8048  149.7641 H   0  0  0  0  0  0  0  0  0  0  0  0  # atno 10718 bound_to 10713
  154.7468  135.3082  154.8630 H   0  0  0  0  0  0  0  0  0  0  0  0  # atno 10763 bound_to 10752
  153.9429  135.6772  153.4748 H   0  0  0  0  0  0  0  0  0  0  0  0  # atno 10764 bound_to 10752
  153.1064  135.4887  154.8885 H   0  0  0  0  0  0  0  0  0  0  0  0  # atno 10765 bound_to 10752
  140.2609  134.7903  157.3588 H   0  0  0  0  0  0  0  0  0  0  0  0  # atno 11005 bound_to 11000
  146.0597  139.3591  143.0589 LP  0  0  0  0  0  0  0  0  0  0  0  0  # atno 17320 bound_to 7965
  145.8109  140.9726  143.0949 LP  0  0  0  0  0  0  0  0  0  0  0  0  # atno 17321 bound_to 7965
  140.1437  144.5178  150.6728 LP  0  0  0  0  0  0  0  0  0  0  0  0  # atno 17342 bound_to 10162
  140.6862  143.2351  151.5255 LP  0  0  0  0  0  0  0  0  0  0  0  0  # atno 17343 bound_to 10162
  155.9928  130.3928  150.2928 LP  0  0  0  0  0  0  0  0  0  0  0  0  # atno 17370 bound_to 10713
  157.1088  131.0215  151.3056 LP  0  0  0  0  0  0  0  0  0  0  0  0  # atno 17371 bound_to 10713
  140.1466  134.4903  155.7992 LP  0  0  0  0  0  0  0  0  0  0  0  0  # atno 17394 bound_to 11000
  141.2190  133.6846  156.7304 LP  0  0  0  0  0  0  0  0  0  0  0  0  # atno 17395 bound_to 11000

$$$$
