AV-unprocessed.smi:714|AV-procd|sdf|3482|dock5
  -GOLD-   22720 0473D 1   1.00000     0.00000
 Structure written by MMmdl.
 38 39  0  0  0  0  0  0  0  0  1 V2000
  149.5248  130.9016  153.8220 C   0  0  0  0  0  0  0  0  0  0  0  0
  149.5476  131.5705  154.8434 C   0  0  0  0  0  0  0  0  0  0  0  0
  149.5593  132.3668  156.0821 C   0  0  0  0  0  0  0  0  0  0  0  0
  149.8888  133.7673  155.8427 N   0  0  0  0  0  0  0  0  0  0  0  0
  149.8392  134.7540  156.7558 C   0  0  0  0  0  0  0  0  0  0  0  0
  149.5166  134.5406  157.9257 O   0  0  0  0  0  0  0  0  0  0  0  0
  150.1935  136.0709  156.2198 C   0  0  0  0  0  0  0  0  0  0  0  0
  150.6262  136.2785  154.8476 C   0  0  0  0  0  0  0  0  0  0  0  0
  150.9121  137.5159  154.4020 C   0  0  0  0  0  0  0  0  0  0  0  0
  150.8063  138.6945  155.2660 C   0  0  0  0  0  0  0  0  0  0  0  0
  151.0449  139.8237  154.8366 O   0  0  0  0  0  0  0  0  0  0  0  0
  150.4232  138.4590  156.5650 N   0  0  0  0  0  0  0  0  0  0  0  0
  150.2848  139.5364  157.5782 C   0  0  2  0  0  0  0  0  0  0  0  0
  148.9835  140.3494  157.4227 C   0  0  0  0  0  0  0  0  0  0  0  0
  149.3966  141.8274  157.4895 C   0  0  0  0  0  0  0  0  0  0  0  0
  150.8505  141.8296  157.4746 N   0  0  0  0  0  0  0  0  0  0  0  0
  151.5899  143.0886  157.4124 C   0  0  0  0  0  0  0  0  0  0  0  0
  151.6943  143.7779  158.7856 C   0  0  0  0  0  0  0  0  0  0  0  0
  152.4755  144.8513  158.6720 F   0  0  0  0  0  0  0  0  0  0  0  0
  150.4985  144.1714  159.2231 F   0  0  0  0  0  0  0  0  0  0  0  0
  152.2369  142.9509  159.6794 F   0  0  0  0  0  0  0  0  0  0  0  0
  151.3788  140.6023  157.5325 C   0  0  0  0  0  0  0  0  0  0  0  0
  152.5785  140.3298  157.5605 O   0  0  0  0  0  0  0  0  0  0  0  0
  150.1109  137.1572  157.0127 C   0  0  0  0  0  0  0  0  0  0  0  0
  149.5007  130.3150  152.9310 H   0  0  0  0  0  0  0  0  0  0  0  0
  148.5924  132.2616  156.5766 H   0  0  0  0  0  0  0  0  0  0  0  0
  150.3081  131.9388  156.7484 H   0  0  0  0  0  0  0  0  0  0  0  0
  150.1650  134.0122  154.9032 H   0  0  0  0  0  0  0  0  0  0  0  0
  150.7264  135.4539  154.1571 H   0  0  0  0  0  0  0  0  0  0  0  0
  151.2296  137.6458  153.3777 H   0  0  0  0  0  0  0  0  0  0  0  0
  150.3183  139.1344  158.5917 H   0  0  0  0  0  0  0  0  0  0  0  0
  148.4774  140.1481  156.4780 H   0  0  0  0  0  0  0  0  0  0  0  0
  148.2729  140.1043  158.2129 H   0  0  0  0  0  0  0  0  0  0  0  0
  148.9988  142.3908  156.6446 H   0  0  0  0  0  0  0  0  0  0  0  0
  149.0385  142.2930  158.4085 H   0  0  0  0  0  0  0  0  0  0  0  0
  152.5905  142.8926  157.0248 H   0  0  0  0  0  0  0  0  0  0  0  0
  151.1123  143.7567  156.6940 H   0  0  0  0  0  0  0  0  0  0  0  0
  149.7937  137.0994  158.0443 H   0  0  0  0  0  0  0  0  0  0  0  0
  1  2  3  0  0  0  0
  1 25  1  0  0  0  0
  2  3  1  0  0  0  0
  3  4  1  0  0  0  0
  3 26  1  0  0  0  0
  3 27  1  0  0  0  0
  4  5  1  0  0  0  0
  4 28  1  0  0  0  0
  5  6  2  0  0  0  0
  5  7  1  0  0  0  0
  7 24  2  0  0  0  0
  7  8  1  0  0  0  0
  8  9  2  0  0  0  0
  8 29  1  0  0  0  0
  9 10  1  0  0  0  0
  9 30  1  0  0  0  0
 10 11  2  0  0  0  0
 10 12  1  0  0  0  0
 12 13  1  0  0  0  0
 12 24  1  0  0  0  0
 13 22  1  0  0  0  0
 13 14  1  0  0  0  0
 13 31  1  0  0  0  0
 14 15  1  0  0  0  0
 14 32  1  0  0  0  0
 14 33  1  0  0  0  0
 15 16  1  0  0  0  0
 15 34  1  0  0  0  0
 15 35  1  0  0  0  0
 16 17  1  0  0  0  0
 16 22  1  0  0  0  0
 17 18  1  0  0  0  0
 17 36  1  0  0  0  0
 17 37  1  0  0  0  0
 18 19  1  0  0  0  0
 18 20  1  0  0  0  0
 18 21  1  0  0  0  0
 22 23  2  0  0  0  0
 24 38  1  0  0  0  0
M  END
> <s_m_source_file>
AV-unprocessed.smi

> <i_m_source_file_index>
714

> <i_lp_mmshare_version>
43012

> <i_f3d_flags>
0

> <s_epik_input>
W0NIXSNDW0NIMl1bTkhdQyg9TyljMVtjSF1bY0hdYyg9TyluKFtjSF0xKVtDQEBIXTJbQ0gyXVtDSDJdTihDMj1PKVtDSDJdQyhGKShGKUY=

> <s_epik_cmdline>
J2VwaWtfcHl0aG9uJywgJy1waCcsICc3LjAnLCAnLXRuJywgJzgnLCAnLW1hJywgJzIwMCcsICctbWV0YWxfYmluZGluZycsICctaW1hZScsICc8aW5maWxlLm1hZT4nLCAnLW9tYWUnLCAnPG91dGZpbGUubWFlPic=

> <r_lp_tautomer_probability>
1

> <r_epik_Ionization_Penalty>
2.95503e-06

> <r_epik_Ionization_Penalty_Charging>
5.74209e-08

> <r_epik_Ionization_Penalty_Neutral>
2.89761e-06

> <r_epik_State_Penalty>
-0

> <r_epik_Charging_Adjusted_Penalty>
5.74209e-08

> <i_epik_Tot_Q>
0

> <i_epik_Tot_abs_Q>
0

> <r_epik_Metal_State_Penalty>
-0

> <b_epik_Metal_Only>
0

> <s_lp_Force_Field>
OPLS_2005

> <r_lp_Energy>
34.0974

> <b_lp_Chiralities_Consistent>
1

> <s_lp_Variant>
AV-unprocessed.smi:714-1

> <Gold.Version>
5.8.1

> <Gold.Id.Protein>
6NUR|6NUR_protein|mol2

> <Gold.PLP.Fitness>
47.1552

> <Gold.PLP.PLP>
-39.9078

> <Gold.PLP.part.hbond>
-3.0000

> <Gold.PLP.part.metal>
0.0000

> <Gold.PLP.part.buried>
-6.2931

> <Gold.PLP.part.nonpolar>
-30.9372

> <Gold.PLP.part.repulsive>
0.1151

> <Gold.PLP.ligand.clash>
0.0000

> <Gold.PLP.ligand.torsion>
0.8659

> <Gold.PLP.Chemscore.Hbond>
2.9360

> <Gold.PLP.Chemscore.CHOScore>
0.0000

> <Gold.PLP.Chemscore.Metal>
0.0000

> <Gold.Chemscore.Hbonds>
donor molecule, donor type, donor heavy atom, donor atom, acceptor molecule, acceptor atom, score
      P1  H  6896  6909       L1     6  0.96
      P1  H  7989  7998       L1    11  1.00
      P1  H  7997  8009       L1    23  0.94

> <Gold.PLP.Chemscore.Internal.Correction>
0.1712

> <Gold.Rescore>
     Score         DG    S(hbond)    S(metal)    S(lipo)     H(rot)  DE(clash)    DE(int)     intcor
     16.42     -18.62       2.89        0.00      65.00       1.61       0.07       2.14       ----

> <Gold.Chemscore.Fitness>
16.4221

> <Gold.Chemscore.DG>
-18.6230

> <Gold.Chemscore.ZeroCoef>
-5.4800

> <Gold.Chemscore.Hbond>
2.8947

> <Gold.Chemscore.Metal>
0.0000

> <Gold.Chemscore.Lipo>
65.0040

> <Gold.Chemscore.Internal_Hbond>
0.0000

> <Gold.Chemscore.DEClash>
0.0650

> <Gold.Chemscore.DEInternal>
2.1359

> <Gold.Chemscore.Rot>
1.6136

> <Gold.Chemscore.Internal.Correction>
   9.000000E+99

> <Gold.Chemscore.Hbonds>
donor molecule, donor type, donor heavy atom, donor atom, acceptor molecule, acceptor atom, score
      P1  H  6896  6909       L1     6  0.91
      P1  H  7989  7998       L1    11  1.00
      P1  H  7997  8009       L1    23  0.86

> <Gold.Chemscore.Hbond.Weighted>
-9.6683

> <Gold.Chemscore.Metal.Weighted>
-0.0000

> <Gold.Chemscore.Lipo.Weighted>
-7.6055

> <Gold.Chemscore.Internal_Hbond.Weighted>
0.0000

> <Gold.Chemscore.DEClash.Weighted>
0.0650

> <Gold.Chemscore.DEInternal.Weighted>
2.1359

> <Gold.Chemscore.Rot.Weighted>
4.1308

> <Gold.Chemscore.Internal.Correction.Weighted>
   9.000000E+99

> <Gold.Protein.RotatedTorsions>
[ 6907 6896 6895 6894 ] final    6.56 input  -60.11 | X-H torsion
[ 7974 7965 7964 7962 ] final -109.89 input  175.53 | X-H torsion
[ 8008 7997 7996 7995 ] final  171.03 input   59.86 | X-H torsion
[ 10167 10162 10161 10158 ] final   57.30 input  -65.29 | X-H torsion
[ 10718 10713 10712 10709 ] final  -90.71 input   66.30 | X-H torsion
[ 10763 10752 10751 10750 ] final  147.27 input  -60.55 | X-H torsion
[ 11005 11000 10999 10996 ] final  143.76 input  -57.11 | X-H torsion

> <Gold.Protein.ActiveResidues>
 VAL166  LYS551  ARG553  GLY616  TRP617  ASP618  TYR619  PRO620  LYS621  CYS622 
 ASP623  PHE694  ASN695  SER759  ASP760  ASP761  ALA762  ILE779  LEU786  VAL792 
 PHE793  MET794  SER795  GLU796  ALA797  LYS798  CYS799  TRP800  GLU811  SER814 

> <Gold.Protein.RotatedAtoms>
  151.6756  135.0969  160.0206 H   0  0  0  0  0  0  0  0  0  0  0  0  # atno 6907 bound_to 6896
  152.3866  133.6615  159.6212 H   0  0  0  0  0  0  0  0  0  0  0  0  # atno 6908 bound_to 6896
  150.7790  133.8942  159.3363 H   0  0  0  0  0  0  0  0  0  0  0  0  # atno 6909 bound_to 6896
  145.1750  140.8944  143.3513 H   0  0  0  0  0  0  0  0  0  0  0  0  # atno 7974 bound_to 7965
  156.1310  140.1522  156.9065 H   0  0  0  0  0  0  0  0  0  0  0  0  # atno 8008 bound_to 7997
  154.4909  140.0851  156.7632 H   0  0  0  0  0  0  0  0  0  0  0  0  # atno 8009 bound_to 7997
  155.4256  140.3425  155.4277 H   0  0  0  0  0  0  0  0  0  0  0  0  # atno 8010 bound_to 7997
  140.1995  144.4003  150.6535 H   0  0  0  0  0  0  0  0  0  0  0  0  # atno 10167 bound_to 10162
  155.9989  130.4920  150.5364 H   0  0  0  0  0  0  0  0  0  0  0  0  # atno 10718 bound_to 10713
  154.0356  135.2894  155.3362 H   0  0  0  0  0  0  0  0  0  0  0  0  # atno 10763 bound_to 10752
  154.6961  135.5207  153.8463 H   0  0  0  0  0  0  0  0  0  0  0  0  # atno 10764 bound_to 10752
  153.0622  135.6618  154.0564 H   0  0  0  0  0  0  0  0  0  0  0  0  # atno 10765 bound_to 10752
  140.0579  134.9221  157.1132 H   0  0  0  0  0  0  0  0  0  0  0  0  # atno 11005 bound_to 11000
  145.0194  139.3438  143.6080 LP  0  0  0  0  0  0  0  0  0  0  0  0  # atno 17320 bound_to 7965
  146.3462  139.9488  142.8731 LP  0  0  0  0  0  0  0  0  0  0  0  0  # atno 17321 bound_to 7965
  140.6400  143.2202  151.6310 LP  0  0  0  0  0  0  0  0  0  0  0  0  # atno 17342 bound_to 10162
  139.5223  144.3167  152.0946 LP  0  0  0  0  0  0  0  0  0  0  0  0  # atno 17343 bound_to 10162
  157.3306  131.0699  151.1864 LP  0  0  0  0  0  0  0  0  0  0  0  0  # atno 17370 bound_to 10713
  157.2746  130.6720  149.6036 LP  0  0  0  0  0  0  0  0  0  0  0  0  # atno 17371 bound_to 10713
  140.3816  134.2281  155.7170 LP  0  0  0  0  0  0  0  0  0  0  0  0  # atno 17394 bound_to 11000
  141.1960  133.8092  157.0691 LP  0  0  0  0  0  0  0  0  0  0  0  0  # atno 17395 bound_to 11000

$$$$
