AV-unprocessed.smi:2032|AV-procd|sdf|8244|dock3
  -GOLD-   2272010513D 1   1.00000     0.00000
 Structure written by MMmdl.
 43 44  0  0  0  0  0  0  0  0  2 V2000
  151.5086  137.6803  155.6888 C   0  0  0  0  0  0  0  0  0  0  0  0
  151.1245  138.6854  154.5873 C   0  0  1  0  0  0  0  0  0  0  0  0
  149.6732  138.5341  154.0918 C   0  0  0  0  0  0  0  0  0  0  0  0
  148.6805  139.0495  155.0771 N   0  3  2  0  0  0  0  0  0  0  0  0
  147.2530  138.8892  154.6333 C   0  0  1  0  0  0  0  0  0  0  0  0
  147.0535  139.3624  153.1716 C   0  0  0  0  0  0  0  0  0  0  0  0
  146.7449  137.4305  154.8128 C   0  0  0  0  0  0  0  0  0  0  0  0
  146.9717  136.5869  153.6410 N   0  0  0  0  0  0  0  0  0  0  0  0
  146.1328  135.6423  153.1894 C   0  0  0  0  0  0  0  0  0  0  0  0
  145.0689  135.3602  153.7413 O   0  0  0  0  0  0  0  0  0  0  0  0
  146.6124  135.0560  152.0787 N   0  0  0  0  0  0  0  0  0  0  0  0
  146.0276  134.0115  151.3154 C   0  0  0  0  0  0  0  0  0  0  0  0
  146.7176  133.0211  150.7377 N   0  0  0  0  0  0  0  0  0  0  0  0
  145.8851  132.1331  150.0518 C   0  0  0  0  0  0  0  0  0  0  0  0
  144.5550  132.4664  150.1165 C   0  0  0  0  0  0  0  0  0  0  0  0
  144.2932  133.9163  151.0484 S   0  0  0  0  0  0  0  0  0  0  0  0
  149.0438  140.4423  155.4603 C   0  0  0  0  0  0  0  0  0  0  0  0
  150.4967  140.5356  155.9605 C   0  0  2  0  0  0  0  0  0  0  0  0
  150.9056  141.9820  156.2625 C   0  0  0  0  0  0  0  0  0  0  0  0
  151.3791  140.0340  154.9658 O   0  0  0  0  0  0  0  0  0  0  0  0
  151.4465  136.6573  155.3168 H   0  0  0  0  0  0  0  0  0  0  0  0
  150.8555  137.7463  156.5584 H   0  0  0  0  0  0  0  0  0  0  0  0
  152.5326  137.8453  156.0251 H   0  0  0  0  0  0  0  0  0  0  0  0
  151.7826  138.4856  153.7412 H   0  0  0  0  0  0  0  0  0  0  0  0
  149.5500  139.0743  153.1518 H   0  0  0  0  0  0  0  0  0  0  0  0
  149.5148  137.4797  153.8754 H   0  0  0  0  0  0  0  0  0  0  0  0
  146.6404  139.5292  155.2708 H   0  0  0  0  0  0  0  0  0  0  0  0
  146.0342  139.2049  152.8230 H   0  0  0  0  0  0  0  0  0  0  0  0
  147.7186  138.8321  152.4893 H   0  0  0  0  0  0  0  0  0  0  0  0
  147.2210  140.4313  153.0512 H   0  0  0  0  0  0  0  0  0  0  0  0
  147.1803  136.9872  155.7100 H   0  0  0  0  0  0  0  0  0  0  0  0
  145.6655  137.4088  154.9508 H   0  0  0  0  0  0  0  0  0  0  0  0
  147.8253  136.7466  153.1256 H   0  0  0  0  0  0  0  0  0  0  0  0
  147.5007  135.3939  151.7388 H   0  0  0  0  0  0  0  0  0  0  0  0
  146.3246  131.2877  149.5433 H   0  0  0  0  0  0  0  0  0  0  0  0
  143.7168  131.9486  149.6744 H   0  0  0  0  0  0  0  0  0  0  0  0
  148.8909  141.1051  154.6069 H   0  0  0  0  0  0  0  0  0  0  0  0
  148.4134  140.8040  156.2701 H   0  0  0  0  0  0  0  0  0  0  0  0
  150.6064  139.9590  156.8790 H   0  0  0  0  0  0  0  0  0  0  0  0
  150.2703  142.4172  157.0342 H   0  0  0  0  0  0  0  0  0  0  0  0
  150.8291  142.6089  155.3735 H   0  0  0  0  0  0  0  0  0  0  0  0
  151.9360  142.0304  156.6157 H   0  0  0  0  0  0  0  0  0  0  0  0
  148.7853  138.4876  155.9101 H   0  0  0  0  0  0  0  0  0  0  0  0
  1  2  1  0  0  0  0
  1 21  1  0  0  0  0
  1 22  1  0  0  0  0
  1 23  1  0  0  0  0
  2 20  1  0  0  0  0
  2  3  1  0  0  0  0
  2 24  1  0  0  0  0
  3  4  1  0  0  0  0
  3 25  1  0  0  0  0
  3 26  1  0  0  0  0
  4  5  1  0  0  0  0
  4 17  1  0  0  0  0
  4 43  1  0  0  0  0
  5  6  1  0  0  0  0
  5  7  1  0  0  0  0
  5 27  1  0  0  0  0
  6 28  1  0  0  0  0
  6 29  1  0  0  0  0
  6 30  1  0  0  0  0
  7  8  1  0  0  0  0
  7 31  1  0  0  0  0
  7 32  1  0  0  0  0
  8  9  1  0  0  0  0
  8 33  1  0  0  0  0
  9 10  2  0  0  0  0
  9 11  1  0  0  0  0
 11 12  1  0  0  0  0
 11 34  1  0  0  0  0
 12 16  1  0  0  0  0
 12 13  2  0  0  0  0
 13 14  1  0  0  0  0
 14 15  2  0  0  0  0
 14 35  1  0  0  0  0
 15 16  1  0  0  0  0
 15 36  1  0  0  0  0
 17 18  1  0  0  0  0
 17 37  1  0  0  0  0
 17 38  1  0  0  0  0
 18 19  1  0  0  0  0
 18 20  1  0  0  0  0
 18 39  1  0  0  0  0
 19 40  1  0  0  0  0
 19 41  1  0  0  0  0
 19 42  1  0  0  0  0
M  CHG  1   4   1
M  END
> <s_m_source_file>
AV-unprocessed.smi

> <i_m_source_file_index>
2032

> <i_lp_mmshare_version>
43012

> <i_f3d_flags>
0

> <s_epik_input>
W0NIM11bQ0BASF0xW0NIMl1OKFtDSDJdW0NASF0oTzEpW0NIM10pW0NASF0oW0NIM10pW0NIMl1bTkhdQyg9TylbTkhdYzJuW2NIXVtjSF1zMg==

> <s_epik_cmdline>
J2VwaWtfcHl0aG9uJywgJy1waCcsICc3LjAnLCAnLXRuJywgJzgnLCAnLW1hJywgJzIwMCcsICctbWV0YWxfYmluZGluZycsICctaW1hZScsICc8aW5maWxlLm1hZT4nLCAnLW9tYWUnLCAnPG91dGZpbGUubWFlPic=

> <r_lp_tautomer_probability>
0.999

> <r_epik_Ionization_Penalty>
0.695838

> <r_epik_Ionization_Penalty_Charging>
0.695697

> <r_epik_Ionization_Penalty_Neutral>
0.000141198

> <r_epik_State_Penalty>
0.717972

> <r_epik_Charging_Adjusted_Penalty>
1.41367

> <i_epik_Tot_Q>
1

> <i_epik_Tot_abs_Q>
1

> <r_epik_Metal_State_Penalty>
0.756405

> <b_epik_Metal_Only>
0

> <s_lp_Force_Field>
OPLS_2005

> <r_lp_Energy>
22.0252

> <b_lp_Chiralities_Consistent>
1

> <s_lp_Variant>
AV-unprocessed.smi:2032-14

> <Gold.Version>
5.8.1

> <Gold.Id.Protein>
6NUR|6NUR_protein|mol2

> <Gold.PLP.Fitness>
39.0935

> <Gold.PLP.PLP>
-31.0469

> <Gold.PLP.part.hbond>
-3.0000

> <Gold.PLP.part.metal>
0.0000

> <Gold.PLP.part.buried>
-5.2674

> <Gold.PLP.part.nonpolar>
-23.5806

> <Gold.PLP.part.repulsive>
0.5793

> <Gold.PLP.ligand.clash>
0.0000

> <Gold.PLP.ligand.torsion>
1.0977

> <Gold.PLP.Chemscore.Hbond>
2.9760

> <Gold.PLP.Chemscore.CHOScore>
0.4169

> <Gold.PLP.Chemscore.Metal>
0.0000

> <Gold.Chemscore.Hbonds>
donor molecule, donor type, donor heavy atom, donor atom, acceptor molecule, acceptor atom, score
      L1  H     8    33       P1  7948  0.98
      L1  H    11    34       P1  7948  1.00
      P1  H  7989  7998       L1    20  1.00
      L1  C    14    35       P1 10747  0.28

> <Gold.PLP.Chemscore.Internal.Correction>
0.0633

> <Gold.Rescore>
     Score         DG    S(hbond)    S(metal)    S(lipo)     H(rot)  DE(clash)    DE(int)     intcor
     18.52     -19.81       2.79        0.00      78.01       1.61       0.36       0.94       ----

> <Gold.Chemscore.Fitness>
18.5167

> <Gold.Chemscore.DG>
-19.8118

> <Gold.Chemscore.ZeroCoef>
-5.4800

> <Gold.Chemscore.Hbond>
2.7929

> <Gold.Chemscore.Metal>
0.0000

> <Gold.Chemscore.Lipo>
78.0132

> <Gold.Chemscore.Internal_Hbond>
0.0000

> <Gold.Chemscore.DEClash>
0.3550

> <Gold.Chemscore.DEInternal>
0.9401

> <Gold.Chemscore.Rot>
1.6110

> <Gold.Chemscore.Internal.Correction>
   9.000000E+99

> <Gold.Chemscore.Hbonds>
donor molecule, donor type, donor heavy atom, donor atom, acceptor molecule, acceptor atom, score
      L1  H     8    33       P1  7948  0.93
      L1  H    11    34       P1  7948  0.95
      P1  H  7989  7998       L1    20  0.49

> <Gold.Chemscore.Hbond.Weighted>
-9.3284

> <Gold.Chemscore.Metal.Weighted>
-0.0000

> <Gold.Chemscore.Lipo.Weighted>
-9.1275

> <Gold.Chemscore.Internal_Hbond.Weighted>
0.0000

> <Gold.Chemscore.DEClash.Weighted>
0.3550

> <Gold.Chemscore.DEInternal.Weighted>
0.9401

> <Gold.Chemscore.Rot.Weighted>
4.1242

> <Gold.Chemscore.Internal.Correction.Weighted>
   9.000000E+99

> <Gold.Protein.RotatedTorsions>
[ 6907 6896 6895 6894 ] final  -26.33 input  -60.11 | X-H torsion
[ 7974 7965 7964 7962 ] final   23.75 input  175.53 | X-H torsion
[ 8008 7997 7996 7995 ] final  -11.27 input   59.86 | X-H torsion
[ 10167 10162 10161 10158 ] final   26.15 input  -65.29 | X-H torsion
[ 10718 10713 10712 10709 ] final  153.53 input   66.30 | X-H torsion
[ 10763 10752 10751 10750 ] final   33.35 input  -60.55 | X-H torsion
[ 11005 11000 10999 10996 ] final  113.82 input  -57.11 | X-H torsion

> <Gold.Protein.ActiveResidues>
 VAL166  LYS551  ARG553  GLY616  TRP617  ASP618  TYR619  PRO620  LYS621  CYS622 
 ASP623  PHE694  ASN695  SER759  ASP760  ASP761  ALA762  ILE779  LEU786  VAL792 
 PHE793  MET794  SER795  GLU796  ALA797  LYS798  CYS799  TRP800  GLU811  SER814 

> <Gold.Protein.RotatedAtoms>
  151.1625  135.0280  159.8716 H   0  0  0  0  0  0  0  0  0  0  0  0  # atno 6907 bound_to 6896
  152.5451  134.1263  159.8430 H   0  0  0  0  0  0  0  0  0  0  0  0  # atno 6908 bound_to 6896
  151.1359  133.4958  159.2630 H   0  0  0  0  0  0  0  0  0  0  0  0  # atno 6909 bound_to 6896
  146.1969  139.7700  142.8790 H   0  0  0  0  0  0  0  0  0  0  0  0  # atno 7974 bound_to 7965
  154.5480  140.2307  155.8531 H   0  0  0  0  0  0  0  0  0  0  0  0  # atno 8008 bound_to 7997
  156.1921  140.3074  155.9314 H   0  0  0  0  0  0  0  0  0  0  0  0  # atno 8009 bound_to 7997
  155.3126  140.0436  157.3026 H   0  0  0  0  0  0  0  0  0  0  0  0  # atno 8010 bound_to 7997
  140.5047  144.0258  150.6347 H   0  0  0  0  0  0  0  0  0  0  0  0  # atno 10167 bound_to 10162
  157.2435  131.0764  151.1777 H   0  0  0  0  0  0  0  0  0  0  0  0  # atno 10718 bound_to 10713
  153.0216  135.6389  154.1497 H   0  0  0  0  0  0  0  0  0  0  0  0  # atno 10763 bound_to 10752
  154.1231  135.2845  155.3205 H   0  0  0  0  0  0  0  0  0  0  0  0  # atno 10764 bound_to 10752
  154.6249  135.5512  153.7678 H   0  0  0  0  0  0  0  0  0  0  0  0  # atno 10765 bound_to 10752
  139.8963  134.9557  156.6797 H   0  0  0  0  0  0  0  0  0  0  0  0  # atno 11005 bound_to 11000
  145.3612  141.0326  143.3283 LP  0  0  0  0  0  0  0  0  0  0  0  0  # atno 17320 bound_to 7965
  144.8600  139.5191  143.6816 LP  0  0  0  0  0  0  0  0  0  0  0  0  # atno 17321 bound_to 7965
  140.3564  143.2933  152.0431 LP  0  0  0  0  0  0  0  0  0  0  0  0  # atno 17342 bound_to 10162
  139.4880  144.6336  151.7021 LP  0  0  0  0  0  0  0  0  0  0  0  0  # atno 17343 bound_to 10162
  157.3353  130.7006  149.6349 LP  0  0  0  0  0  0  0  0  0  0  0  0  # atno 17370 bound_to 10713
  155.9669  130.4295  150.4837 LP  0  0  0  0  0  0  0  0  0  0  0  0  # atno 17371 bound_to 10713
  140.7308  133.9060  155.8210 LP  0  0  0  0  0  0  0  0  0  0  0  0  # atno 17394 bound_to 11000
  141.0154  134.0962  157.4177 LP  0  0  0  0  0  0  0  0  0  0  0  0  # atno 17395 bound_to 11000

$$$$
