AV-unprocessed.smi:1740|AV-procd|sdf|7011|dock1
  -GOLD-   22720 8223D 1   1.00000     0.00000
 Structure written by MMmdl.
 53 55  0  0  0  0  0  0  0  0  3 V2000
  150.4949  142.5796  156.1418 N   0  0  0  0  0  0  0  0  0  0  0  0
  150.1338  141.3719  155.7032 C   0  0  0  0  0  0  0  0  0  0  0  0
  150.5550  140.3363  156.2156 O   0  0  0  0  0  0  0  0  0  0  0  0
  149.1466  141.3284  154.5320 C   0  0  0  0  0  0  0  0  0  0  0  0
  147.9020  142.0961  154.7943 N   0  3  2  0  0  0  0  0  0  0  0  0
  147.2493  141.7309  156.0797 C   0  0  0  0  0  0  0  0  0  0  0  0
  146.0622  142.6626  156.3821 C   0  0  0  0  0  0  0  0  0  0  0  0
  145.0378  142.6918  155.2342 C   0  0  2  0  0  0  0  0  0  0  0  0
  144.2735  141.4450  155.1870 N   0  0  0  0  0  0  0  0  0  0  0  0
  143.5565  140.9458  156.2046 C   0  0  0  0  0  0  0  0  0  0  0  0
  143.4495  141.4990  157.2989 O   0  0  0  0  0  0  0  0  0  0  0  0
  142.9586  139.7905  155.8697 N   0  0  0  0  0  0  0  0  0  0  0  0
  142.1170  138.9921  156.6942 C   0  0  0  0  0  0  0  0  0  0  0  0
  141.8041  139.4017  158.0157 C   0  0  0  0  0  0  0  0  0  0  0  0
  141.0318  138.5681  158.8459 C   0  0  0  0  0  0  0  0  0  0  0  0
  140.5971  137.3282  158.3477 C   0  0  0  0  0  0  0  0  0  0  0  0
  140.9204  136.9622  157.0901 N   0  3  0  0  0  0  0  0  0  0  0  0
  141.6472  137.7267  156.2367 C   0  0  0  0  0  0  0  0  0  0  0  0
  141.8918  137.2184  154.9402 N   0  0  0  0  0  0  0  0  0  0  0  0
  142.8240  136.1132  154.7454 C   0  0  0  0  0  0  0  0  0  0  0  0
  142.5422  135.5982  153.3365 C   0  0  0  0  0  0  0  0  0  0  0  0
  141.0356  135.8005  153.2089 C   0  0  0  0  0  0  0  0  0  0  0  0
  140.7732  137.0779  154.0126 C   0  0  0  0  0  0  0  0  0  0  0  0
  145.7495  142.9749  153.8962 C   0  0  0  0  0  0  0  0  0  0  0  0
  146.9433  142.0322  153.6625 C   0  0  0  0  0  0  0  0  0  0  0  0
  151.1396  142.6576  156.9156 H   0  0  0  0  0  0  0  0  0  0  0  0
  150.1231  143.4122  155.7080 H   0  0  0  0  0  0  0  0  0  0  0  0
  149.6667  141.7533  153.6725 H   0  0  0  0  0  0  0  0  0  0  0  0
  148.9034  140.2965  154.2729 H   0  0  0  0  0  0  0  0  0  0  0  0
  146.9155  140.6930  156.0390 H   0  0  0  0  0  0  0  0  0  0  0  0
  147.9673  141.7958  156.8975 H   0  0  0  0  0  0  0  0  0  0  0  0
  145.5796  142.3671  157.3146 H   0  0  0  0  0  0  0  0  0  0  0  0
  146.4410  143.6725  156.5462 H   0  0  0  0  0  0  0  0  0  0  0  0
  144.3398  143.5065  155.4363 H   0  0  0  0  0  0  0  0  0  0  0  0
  144.3080  140.9192  154.3257 H   0  0  0  0  0  0  0  0  0  0  0  0
  143.0326  139.5033  154.9046 H   0  0  0  0  0  0  0  0  0  0  0  0
  142.1660  140.3390  158.4120 H   0  0  0  0  0  0  0  0  0  0  0  0
  140.7883  138.8711  159.8539 H   0  0  0  0  0  0  0  0  0  0  0  0
  140.0077  136.6207  158.9129 H   0  0  0  0  0  0  0  0  0  0  0  0
  143.8586  136.4392  154.8575 H   0  0  0  0  0  0  0  0  0  0  0  0
  142.6323  135.3188  155.4679 H   0  0  0  0  0  0  0  0  0  0  0  0
  143.0642  136.2128  152.6017 H   0  0  0  0  0  0  0  0  0  0  0  0
  142.8489  134.5618  153.1934 H   0  0  0  0  0  0  0  0  0  0  0  0
  140.7004  135.8735  152.1739 H   0  0  0  0  0  0  0  0  0  0  0  0
  140.5142  134.9617  153.6724 H   0  0  0  0  0  0  0  0  0  0  0  0
  139.8122  137.0309  154.5268 H   0  0  0  0  0  0  0  0  0  0  0  0
  140.7618  137.9416  153.3472 H   0  0  0  0  0  0  0  0  0  0  0  0
  145.0475  142.9045  153.0645 H   0  0  0  0  0  0  0  0  0  0  0  0
  146.1091  144.0047  153.8971 H   0  0  0  0  0  0  0  0  0  0  0  0
  147.4448  142.3190  152.7374 H   0  0  0  0  0  0  0  0  0  0  0  0
  146.5995  141.0050  153.5303 H   0  0  0  0  0  0  0  0  0  0  0  0
  148.1852  143.0630  154.8719 H   0  0  0  0  0  0  0  0  0  0  0  0
  140.5891  136.0564  156.7581 H   0  0  0  0  0  0  0  0  0  0  0  0
  1  2  1  0  0  0  0
  1 26  1  0  0  0  0
  1 27  1  0  0  0  0
  2  3  2  0  0  0  0
  2  4  1  0  0  0  0
  4  5  1  0  0  0  0
  4 28  1  0  0  0  0
  4 29  1  0  0  0  0
  5 25  1  0  0  0  0
  5  6  1  0  0  0  0
  5 52  1  0  0  0  0
  6  7  1  0  0  0  0
  6 30  1  0  0  0  0
  6 31  1  0  0  0  0
  7  8  1  0  0  0  0
  7 32  1  0  0  0  0
  7 33  1  0  0  0  0
  8  9  1  0  0  0  0
  8 24  1  0  0  0  0
  8 34  1  0  0  0  0
  9 10  1  0  0  0  0
  9 35  1  0  0  0  0
 10 11  2  0  0  0  0
 10 12  1  0  0  0  0
 12 13  1  0  0  0  0
 12 36  1  0  0  0  0
 13 18  1  0  0  0  0
 13 14  2  0  0  0  0
 14 15  1  0  0  0  0
 14 37  1  0  0  0  0
 15 16  2  0  0  0  0
 15 38  1  0  0  0  0
 16 17  1  0  0  0  0
 16 39  1  0  0  0  0
 17 18  2  0  0  0  0
 17 53  1  0  0  0  0
 18 19  1  0  0  0  0
 19 23  1  0  0  0  0
 19 20  1  0  0  0  0
 20 21  1  0  0  0  0
 20 40  1  0  0  0  0
 20 41  1  0  0  0  0
 21 22  1  0  0  0  0
 21 42  1  0  0  0  0
 21 43  1  0  0  0  0
 22 23  1  0  0  0  0
 22 44  1  0  0  0  0
 22 45  1  0  0  0  0
 23 46  1  0  0  0  0
 23 47  1  0  0  0  0
 24 25  1  0  0  0  0
 24 48  1  0  0  0  0
 24 49  1  0  0  0  0
 25 50  1  0  0  0  0
 25 51  1  0  0  0  0
M  CHG  1   5   1
M  CHG  1  17   1
M  END
> <s_m_source_file>
AV-unprocessed.smi

> <i_m_source_file_index>
1740

> <i_lp_mmshare_version>
43012

> <i_f3d_flags>
0

> <s_epik_input>
W05IMl1DKD1PKVtDSDJdTjFbQ0gyXVtDSDJdW0NIXShbQ0gyXVtDSDJdMSlbTkhdQyg9TylbTkhdYzJbY0hdW2NIXVtjSF1uYzJOM1tDSDJdW0NIMl1bQ0gyXVtDSDJdMw==

> <s_epik_cmdline>
J2VwaWtfcHl0aG9uJywgJy1waCcsICc3LjAnLCAnLXRuJywgJzgnLCAnLW1hJywgJzIwMCcsICctbWV0YWxfYmluZGluZycsICctaW1hZScsICc8aW5maWxlLm1hZT4nLCAnLW9tYWUnLCAnPG91dGZpbGUubWFlPic=

> <r_lp_tautomer_probability>
0.999994

> <r_epik_Ionization_Penalty>
2.11361

> <r_epik_Ionization_Penalty_Charging>
2.11355

> <r_epik_Ionization_Penalty_Neutral>
5.98217e-05

> <r_epik_State_Penalty>
2.13444

> <r_epik_Charging_Adjusted_Penalty>
4.24799

> <i_epik_Tot_Q>
2

> <i_epik_Tot_abs_Q>
2

> <r_epik_Metal_State_Penalty>
2.23528

> <b_epik_Metal_Only>
0

> <s_lp_Force_Field>
OPLS_2005

> <r_lp_Energy>
48.4513

> <b_lp_Chiralities_Consistent>
1

> <s_lp_Variant>
AV-unprocessed.smi:1740-6

> <Gold.Version>
5.8.1

> <Gold.Id.Protein>
6NUR|6NUR_protein|mol2

> <Gold.PLP.Fitness>
45.2764

> <Gold.PLP.PLP>
-30.8305

> <Gold.PLP.part.hbond>
-4.0000

> <Gold.PLP.part.metal>
0.0000

> <Gold.PLP.part.buried>
-7.2766

> <Gold.PLP.part.nonpolar>
-19.9698

> <Gold.PLP.part.repulsive>
0.2908

> <Gold.PLP.ligand.clash>
0.0000

> <Gold.PLP.ligand.torsion>
0.2399

> <Gold.PLP.Chemscore.Hbond>
4.8406

> <Gold.PLP.Chemscore.CHOScore>
0.0000

> <Gold.PLP.Chemscore.Metal>
0.0000

> <Gold.Chemscore.Hbonds>
donor molecule, donor type, donor heavy atom, donor atom, acceptor molecule, acceptor atom, score
      L1  H     1    27       P1  8028  1.00
      L1  H     5    52       P1  8028  2.00
      L1  H     9    35       P1 10175  1.00
      L1  H    17    53       P1 11000  1.00

> <Gold.PLP.Chemscore.Internal.Correction>
0.4039

> <Gold.Rescore>
     Score         DG    S(hbond)    S(metal)    S(lipo)     H(rot)  DE(clash)    DE(int)     intcor
     14.50     -17.16       3.40        0.00      51.33       2.22       0.07       2.59       ----

> <Gold.Chemscore.Fitness>
14.5037

> <Gold.Chemscore.DG>
-17.1598

> <Gold.Chemscore.ZeroCoef>
-5.4800

> <Gold.Chemscore.Hbond>
3.4009

> <Gold.Chemscore.Metal>
0.0000

> <Gold.Chemscore.Lipo>
51.3319

> <Gold.Chemscore.Internal_Hbond>
0.0000

> <Gold.Chemscore.DEClash>
0.0650

> <Gold.Chemscore.DEInternal>
2.5911

> <Gold.Chemscore.Rot>
2.2207

> <Gold.Chemscore.Internal.Correction>
   9.000000E+99

> <Gold.Chemscore.Hbonds>
donor molecule, donor type, donor heavy atom, donor atom, acceptor molecule, acceptor atom, score
      L1  H     1    27       P1  8028  0.95
      L1  H     5    52       P1  8028  0.97
      L1  H     9    35       P1 10175  0.89
      L1  H    17    53       P1 11000  0.69

> <Gold.Chemscore.Hbond.Weighted>
-11.3589

> <Gold.Chemscore.Metal.Weighted>
-0.0000

> <Gold.Chemscore.Lipo.Weighted>
-6.0058

> <Gold.Chemscore.Internal_Hbond.Weighted>
0.0000

> <Gold.Chemscore.DEClash.Weighted>
0.0650

> <Gold.Chemscore.DEInternal.Weighted>
2.5911

> <Gold.Chemscore.Rot.Weighted>
5.6849

> <Gold.Chemscore.Internal.Correction.Weighted>
   9.000000E+99

> <Gold.Protein.RotatedTorsions>
[ 6907 6896 6895 6894 ] final   34.78 input  -60.11 | X-H torsion
[ 7974 7965 7964 7962 ] final  -97.19 input  175.53 | X-H torsion
[ 8008 7997 7996 7995 ] final   67.64 input   59.86 | X-H torsion
[ 10167 10162 10161 10158 ] final  117.84 input  -65.29 | X-H torsion
[ 10718 10713 10712 10709 ] final  -72.53 input   66.30 | X-H torsion
[ 10763 10752 10751 10750 ] final   69.36 input  -60.55 | X-H torsion
[ 11005 11000 10999 10996 ] final  -34.13 input  -57.11 | X-H torsion

> <Gold.Protein.ActiveResidues>
 VAL166  LYS551  ARG553  GLY616  TRP617  ASP618  TYR619  PRO620  LYS621  CYS622 
 ASP623  PHE694  ASN695  SER759  ASP760  ASP761  ALA762  ILE779  LEU786  VAL792 
 PHE793  MET794  SER795  GLU796  ALA797  LYS798  CYS799  TRP800  GLU811  SER814 

> <Gold.Protein.RotatedAtoms>
  152.1070  134.9301  160.0567 H   0  0  0  0  0  0  0  0  0  0  0  0  # atno 6907 bound_to 6896
  152.0493  133.4007  159.4378 H   0  0  0  0  0  0  0  0  0  0  0  0  # atno 6908 bound_to 6896
  150.6842  134.3246  159.4845 H   0  0  0  0  0  0  0  0  0  0  0  0  # atno 6909 bound_to 6896
  145.3369  140.9452  143.2630 H   0  0  0  0  0  0  0  0  0  0  0  0  # atno 7974 bound_to 7965
  155.6961  140.3495  155.4913 H   0  0  0  0  0  0  0  0  0  0  0  0  # atno 8008 bound_to 7997
  155.9482  140.1114  157.1021 H   0  0  0  0  0  0  0  0  0  0  0  0  # atno 8009 bound_to 7997
  154.4116  140.1199  156.5003 H   0  0  0  0  0  0  0  0  0  0  0  0  # atno 8010 bound_to 7997
  139.6151  144.7090  151.2757 H   0  0  0  0  0  0  0  0  0  0  0  0  # atno 10167 bound_to 10162
  156.0316  130.4374  150.2607 H   0  0  0  0  0  0  0  0  0  0  0  0  # atno 10718 bound_to 10713
  153.0283  135.5213  154.7276 H   0  0  0  0  0  0  0  0  0  0  0  0  # atno 10763 bound_to 10752
  154.6313  135.2900  155.0215 H   0  0  0  0  0  0  0  0  0  0  0  0  # atno 10764 bound_to 10752
  154.1166  135.6614  153.4947 H   0  0  0  0  0  0  0  0  0  0  0  0  # atno 10765 bound_to 10752
  140.9691  133.7120  156.1494 H   0  0  0  0  0  0  0  0  0  0  0  0  # atno 11005 bound_to 11000
  144.8820  139.4891  143.6718 LP  0  0  0  0  0  0  0  0  0  0  0  0  # atno 17320 bound_to 7965
  146.3023  139.7466  142.9082 LP  0  0  0  0  0  0  0  0  0  0  0  0  # atno 17321 bound_to 7965
  140.7345  143.6763  150.8039 LP  0  0  0  0  0  0  0  0  0  0  0  0  # atno 17342 bound_to 10162
  140.0364  143.5391  152.2737 LP  0  0  0  0  0  0  0  0  0  0  0  0  # atno 17343 bound_to 10162
  157.0709  131.0116  151.3190 LP  0  0  0  0  0  0  0  0  0  0  0  0  # atno 17370 bound_to 10713
  157.5000  130.7874  149.7595 LP  0  0  0  0  0  0  0  0  0  0  0  0  # atno 17371 bound_to 10713
  140.7355  134.4207  157.5561 LP  0  0  0  0  0  0  0  0  0  0  0  0  # atno 17394 bound_to 11000
  139.8905  134.8802  156.2365 LP  0  0  0  0  0  0  0  0  0  0  0  0  # atno 17395 bound_to 11000

$$$$
