AV-unprocessed.smi:2178|AV-procd|sdf|8854|dock8
  -GOLD-   2272012 53D 1   1.00000     0.00000
 Structure written by MMmdl.
 47 49  0  0  0  0  0  0  0  0  2 V2000
  150.0298  133.1073  155.7558 C   0  0  0  0  0  0  0  0  0  0  0  0
  149.5559  131.8599  155.0328 C   0  0  0  0  0  0  0  0  0  0  0  0
  150.4298  130.7600  154.9097 C   0  0  0  0  0  0  0  0  0  0  0  0
  150.0201  129.6008  154.2255 C   0  0  0  0  0  0  0  0  0  0  0  0
  148.7351  129.5375  153.6559 C   0  0  0  0  0  0  0  0  0  0  0  0
  147.8511  130.6297  153.7753 C   0  0  0  0  0  0  0  0  0  0  0  0
  146.4711  130.5513  153.1500 C   0  0  0  0  0  0  0  0  0  0  0  0
  148.2553  131.7893  154.4776 C   0  0  0  0  0  0  0  0  0  0  0  0
  147.3913  132.8481  154.5907 O   0  0  0  0  0  0  0  0  0  0  0  0
  147.8098  134.0048  153.8811 C   0  0  0  0  0  0  0  0  0  0  0  0
  146.7892  135.1289  154.1147 C   0  0  2  0  0  0  0  0  0  0  0  0
  146.7294  135.4021  155.5009 O   0  0  0  0  0  0  0  0  0  0  0  0
  145.3835  134.7437  153.6121 C   0  0  0  0  0  0  0  0  0  0  0  0
  145.1839  135.0510  152.1863 N   0  0  0  0  0  0  0  0  0  0  0  0
  145.4077  136.2110  151.5038 C   0  0  0  0  0  0  0  0  0  0  0  0
  145.9328  137.4921  152.0627 C   0  0  0  0  0  0  0  0  0  0  0  0
  147.0644  137.9588  151.3621 O   0  0  0  0  0  0  0  0  0  0  0  0
  145.0715  135.9858  150.2027 N   0  3  0  0  0  0  0  0  0  0  0  0
  144.6249  134.6729  150.0504 C   0  0  0  0  0  0  0  0  0  0  0  0
  144.1759  133.9897  148.9244 C   0  0  0  0  0  0  0  0  0  0  0  0
  143.7875  132.6470  149.1120 C   0  0  0  0  0  0  0  0  0  0  0  0
  143.8547  132.0340  150.3799 C   0  0  0  0  0  0  0  0  0  0  0  0
  144.3134  132.7364  151.5137 C   0  0  0  0  0  0  0  0  0  0  0  0
  144.6949  134.0644  151.3208 C   0  0  0  0  0  0  0  0  0  0  0  0
  151.1145  133.2009  155.6983 H   0  0  0  0  0  0  0  0  0  0  0  0
  149.7474  133.0643  156.8076 H   0  0  0  0  0  0  0  0  0  0  0  0
  149.5956  134.0063  155.3172 H   0  0  0  0  0  0  0  0  0  0  0  0
  151.4212  130.8034  155.3367 H   0  0  0  0  0  0  0  0  0  0  0  0
  150.6942  128.7622  154.1321 H   0  0  0  0  0  0  0  0  0  0  0  0
  148.4318  128.6467  153.1255 H   0  0  0  0  0  0  0  0  0  0  0  0
  146.2519  131.4598  152.5884 H   0  0  0  0  0  0  0  0  0  0  0  0
  145.7116  130.4328  153.9228 H   0  0  0  0  0  0  0  0  0  0  0  0
  146.3938  129.7068  152.4646 H   0  0  0  0  0  0  0  0  0  0  0  0
  148.7832  134.3085  154.2694 H   0  0  0  0  0  0  0  0  0  0  0  0
  147.9425  133.8068  152.8164 H   0  0  0  0  0  0  0  0  0  0  0  0
  147.1169  136.0292  153.5937 H   0  0  0  0  0  0  0  0  0  0  0  0
  146.2492  134.7066  155.9232 H   0  0  0  0  0  0  0  0  0  0  0  0
  145.2295  133.6703  153.7295 H   0  0  0  0  0  0  0  0  0  0  0  0
  144.6030  135.2243  154.2023 H   0  0  0  0  0  0  0  0  0  0  0  0
  145.1526  138.2526  152.0242 H   0  0  0  0  0  0  0  0  0  0  0  0
  146.1935  137.3536  153.1119 H   0  0  0  0  0  0  0  0  0  0  0  0
  147.6283  138.4132  151.9695 H   0  0  0  0  0  0  0  0  0  0  0  0
  144.1233  134.4578  147.9523 H   0  0  0  0  0  0  0  0  0  0  0  0
  143.4304  132.0764  148.2668 H   0  0  0  0  0  0  0  0  0  0  0  0
  143.5475  131.0036  150.4856 H   0  0  0  0  0  0  0  0  0  0  0  0
  144.3562  132.2560  152.4795 H   0  0  0  0  0  0  0  0  0  0  0  0
  145.1455  136.6826  149.4729 H   0  0  0  0  0  0  0  0  0  0  0  0
  1  2  1  0  0  0  0
  1 25  1  0  0  0  0
  1 26  1  0  0  0  0
  1 27  1  0  0  0  0
  2  8  1  0  0  0  0
  2  3  2  0  0  0  0
  3  4  1  0  0  0  0
  3 28  1  0  0  0  0
  4  5  2  0  0  0  0
  4 29  1  0  0  0  0
  5  6  1  0  0  0  0
  5 30  1  0  0  0  0
  6  7  1  0  0  0  0
  6  8  2  0  0  0  0
  7 31  1  0  0  0  0
  7 32  1  0  0  0  0
  7 33  1  0  0  0  0
  8  9  1  0  0  0  0
  9 10  1  0  0  0  0
 10 11  1  0  0  0  0
 10 34  1  0  0  0  0
 10 35  1  0  0  0  0
 11 12  1  0  0  0  0
 11 13  1  0  0  0  0
 11 36  1  0  0  0  0
 12 37  1  0  0  0  0
 13 14  1  0  0  0  0
 13 38  1  0  0  0  0
 13 39  1  0  0  0  0
 14 24  1  0  0  0  0
 14 15  1  0  0  0  0
 15 16  1  0  0  0  0
 15 18  2  0  0  0  0
 16 17  1  0  0  0  0
 16 40  1  0  0  0  0
 16 41  1  0  0  0  0
 17 42  1  0  0  0  0
 18 19  1  0  0  0  0
 18 47  1  0  0  0  0
 19 24  2  0  0  0  0
 19 20  1  0  0  0  0
 20 21  2  0  0  0  0
 20 43  1  0  0  0  0
 21 22  1  0  0  0  0
 21 44  1  0  0  0  0
 22 23  2  0  0  0  0
 22 45  1  0  0  0  0
 23 24  1  0  0  0  0
 23 46  1  0  0  0  0
M  CHG  1  18   1
M  END
> <s_m_source_file>
AV-unprocessed.smi

> <i_m_source_file_index>
2178

> <i_lp_mmshare_version>
43012

> <i_f3d_flags>
0

> <s_epik_input>
W0NIM11jMVtjSF1bY0hdW2NIXWMoW0NIM10pYzFPW0NIMl1bQ0BIXShbT0hdKVtDSDJdbihjKG4yKVtDSDJdW09IXSljKGMyMylbY0hdW2NIXVtjSF1bY0hdMw==

> <s_epik_cmdline>
J2VwaWtfcHl0aG9uJywgJy1waCcsICc3LjAnLCAnLXRuJywgJzgnLCAnLW1hJywgJzIwMCcsICctbWV0YWxfYmluZGluZycsICctaW1hZScsICc8aW5maWxlLm1hZT4nLCAnLW9tYWUnLCAnPG91dGZpbGUubWFlPic=

> <r_lp_tautomer_probability>
1

> <r_epik_Ionization_Penalty>
1.43125

> <r_epik_Ionization_Penalty_Charging>
1.43039

> <r_epik_Ionization_Penalty_Neutral>
0.000858184

> <r_epik_State_Penalty>
1.51493

> <r_epik_Charging_Adjusted_Penalty>
2.94531

> <i_epik_Tot_Q>
1

> <i_epik_Tot_abs_Q>
1

> <r_epik_Metal_State_Penalty>
5.5599

> <b_epik_Metal_Only>
0

> <s_lp_Force_Field>
OPLS_2005

> <r_lp_Energy>
23.8242

> <b_lp_Chiralities_Consistent>
1

> <s_lp_Variant>
AV-unprocessed.smi:2178-3

> <Gold.Version>
5.8.1

> <Gold.Id.Protein>
6NUR|6NUR_protein|mol2

> <Gold.PLP.Fitness>
42.7802

> <Gold.PLP.PLP>
-40.0494

> <Gold.PLP.part.hbond>
-4.2368

> <Gold.PLP.part.metal>
0.0000

> <Gold.PLP.part.buried>
2.5521

> <Gold.PLP.part.nonpolar>
-37.5888

> <Gold.PLP.part.repulsive>
0.1282

> <Gold.PLP.ligand.clash>
0.0000

> <Gold.PLP.ligand.torsion>
0.4756

> <Gold.PLP.Chemscore.Hbond>
1.1945

> <Gold.PLP.Chemscore.CHOScore>
0.0000

> <Gold.PLP.Chemscore.Metal>
0.0000

> <Gold.Chemscore.Hbonds>
donor molecule, donor type, donor heavy atom, donor atom, acceptor molecule, acceptor atom, score
      L1  H    18    47       P1 10171  0.11
      P1  H  7954  7966       L1    17  1.00

> <Gold.PLP.Chemscore.Internal.Correction>
0.0986

> <Gold.Rescore>
     Score         DG    S(hbond)    S(metal)    S(lipo)     H(rot)  DE(clash)    DE(int)     intcor
     10.71     -13.86       1.10        0.00     106.94       3.05       2.57       0.58       ----

> <Gold.Chemscore.Fitness>
10.7095

> <Gold.Chemscore.DG>
-13.8610

> <Gold.Chemscore.ZeroCoef>
-5.4800

> <Gold.Chemscore.Hbond>
1.0992

> <Gold.Chemscore.Metal>
0.0000

> <Gold.Chemscore.Lipo>
106.9352

> <Gold.Chemscore.Internal_Hbond>
0.0000

> <Gold.Chemscore.DEClash>
2.5720

> <Gold.Chemscore.DEInternal>
0.5796

> <Gold.Chemscore.Rot>
3.0476

> <Gold.Chemscore.Internal.Correction>
   9.000000E+99

> <Gold.Chemscore.Hbonds>
donor molecule, donor type, donor heavy atom, donor atom, acceptor molecule, acceptor atom, score
      L1  H    18    47       P1 10171  0.11
      P1  H  7954  7966       L1    17  0.26

> <Gold.Chemscore.Hbond.Weighted>
-3.6714

> <Gold.Chemscore.Metal.Weighted>
-0.0000

> <Gold.Chemscore.Lipo.Weighted>
-12.5114

> <Gold.Chemscore.Internal_Hbond.Weighted>
0.0000

> <Gold.Chemscore.DEClash.Weighted>
2.5720

> <Gold.Chemscore.DEInternal.Weighted>
0.5796

> <Gold.Chemscore.Rot.Weighted>
7.8018

> <Gold.Chemscore.Internal.Correction.Weighted>
   9.000000E+99

> <Gold.Protein.RotatedTorsions>
[ 6907 6896 6895 6894 ] final   20.71 input  -60.11 | X-H torsion
[ 7974 7965 7964 7962 ] final  -66.54 input  175.53 | X-H torsion
[ 8008 7997 7996 7995 ] final  139.66 input   59.86 | X-H torsion
[ 10167 10162 10161 10158 ] final   74.91 input  -65.29 | X-H torsion
[ 10718 10713 10712 10709 ] final  -40.71 input   66.30 | X-H torsion
[ 10763 10752 10751 10750 ] final   29.37 input  -60.55 | X-H torsion
[ 11005 11000 10999 10996 ] final  154.11 input  -57.11 | X-H torsion

> <Gold.Protein.ActiveResidues>
 VAL166  LYS551  ARG553  GLY616  TRP617  ASP618  TYR619  PRO620  LYS621  CYS622 
 ASP623  PHE694  ASN695  SER759  ASP760  ASP761  ALA762  ILE779  LEU786  VAL792 
 PHE793  MET794  SER795  GLU796  ALA797  LYS798  CYS799  TRP800  GLU811  SER814 

> <Gold.Protein.RotatedAtoms>
  151.9007  135.0379  160.0505 H   0  0  0  0  0  0  0  0  0  0  0  0  # atno 6907 bound_to 6896
  152.2361  133.5092  159.5251 H   0  0  0  0  0  0  0  0  0  0  0  0  # atno 6908 bound_to 6896
  150.7039  134.1068  159.4028 H   0  0  0  0  0  0  0  0  0  0  0  0  # atno 6909 bound_to 6896
  145.7404  140.8956  143.0533 H   0  0  0  0  0  0  0  0  0  0  0  0  # atno 7974 bound_to 7965
  156.2987  140.2362  156.4273 H   0  0  0  0  0  0  0  0  0  0  0  0  # atno 8008 bound_to 7997
  154.8301  140.0433  157.1491 H   0  0  0  0  0  0  0  0  0  0  0  0  # atno 8009 bound_to 7997
  154.9217  140.3004  155.5216 H   0  0  0  0  0  0  0  0  0  0  0  0  # atno 8010 bound_to 7997
  140.0086  144.5631  150.7677 H   0  0  0  0  0  0  0  0  0  0  0  0  # atno 10167 bound_to 10162
  156.2783  130.4214  149.8364 H   0  0  0  0  0  0  0  0  0  0  0  0  # atno 10718 bound_to 10713
  153.0434  135.6490  154.0881 H   0  0  0  0  0  0  0  0  0  0  0  0  # atno 10763 bound_to 10752
  154.0583  135.2890  155.3330 H   0  0  0  0  0  0  0  0  0  0  0  0  # atno 10764 bound_to 10752
  154.6674  135.5369  153.8160 H   0  0  0  0  0  0  0  0  0  0  0  0  # atno 10765 bound_to 10752
  140.1459  134.8707  157.2392 H   0  0  0  0  0  0  0  0  0  0  0  0  # atno 11005 bound_to 11000
  144.6872  139.9453  143.7476 LP  0  0  0  0  0  0  0  0  0  0  0  0  # atno 17320 bound_to 7965
  146.0453  139.3459  143.0672 LP  0  0  0  0  0  0  0  0  0  0  0  0  # atno 17321 bound_to 7965
  140.7390  143.2786  151.3667 LP  0  0  0  0  0  0  0  0  0  0  0  0  # atno 17342 bound_to 10162
  139.6221  144.0887  152.2400 LP  0  0  0  0  0  0  0  0  0  0  0  0  # atno 17343 bound_to 10162
  156.5821  130.8470  151.3385 LP  0  0  0  0  0  0  0  0  0  0  0  0  # atno 17370 bound_to 10713
  157.7306  130.9688  150.1841 LP  0  0  0  0  0  0  0  0  0  0  0  0  # atno 17371 bound_to 10713
  140.2664  134.3511  155.7388 LP  0  0  0  0  0  0  0  0  0  0  0  0  # atno 17394 bound_to 11000
  141.2192  133.7398  156.9157 LP  0  0  0  0  0  0  0  0  0  0  0  0  # atno 17395 bound_to 11000

$$$$
