AV-unprocessed.smi:1554|AV-procd|sdf|6249|dock9
  -GOLD-   22720 6433D 1   1.00000     0.00000
 Structure written by MMmdl.
 48 50  0  0  0  0  0  0  0  0  2 V2000
  152.3077  142.4698  160.7351 C   0  0  0  0  0  0  0  0  0  0  0  0
  152.1404  141.6834  159.4469 C   0  0  0  0  0  0  0  0  0  0  0  0
  152.6328  140.3604  159.3807 C   0  0  0  0  0  0  0  0  0  0  0  0
  152.5014  139.5967  158.2004 C   0  0  0  0  0  0  0  0  0  0  0  0
  152.9046  138.3034  157.9151 N   0  0  0  0  0  0  0  0  0  0  0  0
  152.5009  138.1673  156.6554 C   0  0  0  0  0  0  0  0  0  0  0  0
  151.8877  139.2240  156.0879 N   0  0  0  0  0  0  0  0  0  0  0  0
  151.3688  139.3192  154.7356 C   0  0  0  0  0  0  0  0  0  0  0  0
  150.8954  137.9563  154.1961 C   0  0  1  0  0  0  0  0  0  0  0  0
  152.0242  137.1708  153.8643 O   0  0  0  0  0  0  0  0  0  0  0  0
  150.0442  137.1942  155.2309 C   0  0  0  0  0  0  0  0  0  0  0  0
  149.4608  135.9400  154.6817 N   0  3  1  0  0  0  0  0  0  0  0  0
  150.3972  134.7899  154.7052 C   0  0  0  0  0  0  0  0  0  0  0  0
  150.4965  134.1833  156.1164 C   0  0  0  0  0  0  0  0  0  0  0  0
  149.2003  133.7970  156.5567 O   0  0  0  0  0  0  0  0  0  0  0  0
  148.3052  134.8998  156.6522 C   0  0  2  0  0  0  0  0  0  0  0  0
  146.9686  134.3847  157.1974 C   0  0  0  0  0  0  0  0  0  0  0  0
  148.1481  135.5509  155.2602 C   0  0  0  0  0  0  0  0  0  0  0  0
  151.8591  140.1984  157.0791 C   0  0  0  0  0  0  0  0  0  0  0  0
  151.3623  141.5128  157.1331 C   0  0  0  0  0  0  0  0  0  0  0  0
  151.5017  142.2614  158.3204 C   0  0  0  0  0  0  0  0  0  0  0  0
  150.9643  143.6809  158.3682 C   0  0  0  0  0  0  0  0  0  0  0  0
  152.8283  141.8853  161.4942 H   0  0  0  0  0  0  0  0  0  0  0  0
  151.3356  142.7526  161.1397 H   0  0  0  0  0  0  0  0  0  0  0  0
  152.8862  143.3763  160.5560 H   0  0  0  0  0  0  0  0  0  0  0  0
  153.1183  139.9198  160.2391 H   0  0  0  0  0  0  0  0  0  0  0  0
  152.6657  137.2483  156.1117 H   0  0  0  0  0  0  0  0  0  0  0  0
  150.5538  140.0446  154.7203 H   0  0  0  0  0  0  0  0  0  0  0  0
  152.1585  139.7228  154.1003 H   0  0  0  0  0  0  0  0  0  0  0  0
  150.3225  138.1270  153.2858 H   0  0  0  0  0  0  0  0  0  0  0  0
  152.0030  136.9915  152.9359 H   0  0  0  0  0  0  0  0  0  0  0  0
  150.6782  136.9570  156.0869 H   0  0  0  0  0  0  0  0  0  0  0  0
  149.2522  137.8370  155.6146 H   0  0  0  0  0  0  0  0  0  0  0  0
  150.0273  134.0319  154.0133 H   0  0  0  0  0  0  0  0  0  0  0  0
  151.3809  135.0836  154.3368 H   0  0  0  0  0  0  0  0  0  0  0  0
  151.1388  133.3027  156.1009 H   0  0  0  0  0  0  0  0  0  0  0  0
  150.9422  134.8872  156.8209 H   0  0  0  0  0  0  0  0  0  0  0  0
  148.7044  135.6224  157.3650 H   0  0  0  0  0  0  0  0  0  0  0  0
  146.2504  135.1976  157.3065 H   0  0  0  0  0  0  0  0  0  0  0  0
  147.0981  133.9234  158.1767 H   0  0  0  0  0  0  0  0  0  0  0  0
  146.5308  133.6384  156.5339 H   0  0  0  0  0  0  0  0  0  0  0  0
  147.4690  136.4007  155.3100 H   0  0  0  0  0  0  0  0  0  0  0  0
  147.6840  134.8364  154.5791 H   0  0  0  0  0  0  0  0  0  0  0  0
  150.8791  141.9412  156.2677 H   0  0  0  0  0  0  0  0  0  0  0  0
  150.4515  143.9435  157.4423 H   0  0  0  0  0  0  0  0  0  0  0  0
  151.7783  144.3912  158.5144 H   0  0  0  0  0  0  0  0  0  0  0  0
  150.2531  143.7955  159.1863 H   0  0  0  0  0  0  0  0  0  0  0  0
  149.2977  136.1418  153.7051 H   0  0  0  0  0  0  0  0  0  0  0  0
  1  2  1  0  0  0  0
  1 23  1  0  0  0  0
  1 24  1  0  0  0  0
  1 25  1  0  0  0  0
  2 21  1  0  0  0  0
  2  3  2  0  0  0  0
  3  4  1  0  0  0  0
  3 26  1  0  0  0  0
  4 19  2  0  0  0  0
  4  5  1  0  0  0  0
  5  6  2  0  0  0  0
  6  7  1  0  0  0  0
  6 27  1  0  0  0  0
  7  8  1  0  0  0  0
  7 19  1  0  0  0  0
  8  9  1  0  0  0  0
  8 28  1  0  0  0  0
  8 29  1  0  0  0  0
  9 10  1  0  0  0  0
  9 11  1  0  0  0  0
  9 30  1  0  0  0  0
 10 31  1  0  0  0  0
 11 12  1  0  0  0  0
 11 32  1  0  0  0  0
 11 33  1  0  0  0  0
 12 18  1  0  0  0  0
 12 13  1  0  0  0  0
 12 48  1  0  0  0  0
 13 14  1  0  0  0  0
 13 34  1  0  0  0  0
 13 35  1  0  0  0  0
 14 15  1  0  0  0  0
 14 36  1  0  0  0  0
 14 37  1  0  0  0  0
 15 16  1  0  0  0  0
 16 17  1  0  0  0  0
 16 18  1  0  0  0  0
 16 38  1  0  0  0  0
 17 39  1  0  0  0  0
 17 40  1  0  0  0  0
 17 41  1  0  0  0  0
 18 42  1  0  0  0  0
 18 43  1  0  0  0  0
 19 20  1  0  0  0  0
 20 21  2  0  0  0  0
 20 44  1  0  0  0  0
 21 22  1  0  0  0  0
 22 45  1  0  0  0  0
 22 46  1  0  0  0  0
 22 47  1  0  0  0  0
M  CHG  1  12   1
M  END
> <s_m_source_file>
AV-unprocessed.smi

> <i_m_source_file_index>
1554

> <i_lp_mmshare_version>
43012

> <i_f3d_flags>
0

> <s_epik_input>
W0NIM11jKFtjSF0xKWMoW0NIM10pW2NIXWMoYzEyKW4oW2NIXW4yKVtDSDJdW0NASF0oW09IXSlbQ0gyXU4zW0NIMl1bQ0gyXU9bQ0BASF0oW0NIM10pW0NIMl0z

> <s_epik_cmdline>
J2VwaWtfcHl0aG9uJywgJy1waCcsICc3LjAnLCAnLXRuJywgJzgnLCAnLW1hJywgJzIwMCcsICctbWV0YWxfYmluZGluZycsICctaW1hZScsICc8aW5maWxlLm1hZT4nLCAnLW9tYWUnLCAnPG91dGZpbGUubWFlPic=

> <r_epik_Ionization_Penalty>
0.695251

> <r_epik_Ionization_Penalty_Charging>
0.608065

> <r_epik_Ionization_Penalty_Neutral>
0.0871863

> <r_epik_State_Penalty>
0.731955

> <r_epik_Charging_Adjusted_Penalty>
1.34002

> <i_epik_Tot_Q>
1

> <i_epik_Tot_abs_Q>
1

> <r_epik_Metal_State_Penalty>
0.652186

> <b_epik_Metal_Only>
0

> <s_lp_Force_Field>
OPLS_2005

> <r_lp_Energy>
22.2934

> <b_lp_Chiralities_Consistent>
1

> <s_lp_Variant>
AV-unprocessed.smi:1554-10

> <Gold.Version>
5.8.1

> <Gold.Id.Protein>
6NUR|6NUR_protein|mol2

> <Gold.PLP.Fitness>
45.6104

> <Gold.PLP.PLP>
-35.2705

> <Gold.PLP.part.hbond>
-3.0000

> <Gold.PLP.part.metal>
0.0000

> <Gold.PLP.part.buried>
-3.5592

> <Gold.PLP.part.nonpolar>
-28.7317

> <Gold.PLP.part.repulsive>
0.0119

> <Gold.PLP.ligand.clash>
0.0000

> <Gold.PLP.ligand.torsion>
0.8105

> <Gold.PLP.Chemscore.Hbond>
3.9600

> <Gold.PLP.Chemscore.CHOScore>
0.0000

> <Gold.PLP.Chemscore.Metal>
0.0000

> <Gold.Chemscore.Hbonds>
donor molecule, donor type, donor heavy atom, donor atom, acceptor molecule, acceptor atom, score
      L1  H    10    31       P1  7949  0.94
      L1  H    12    48       P1  7948  2.00
      P1  H 10752 10765       L1    10  0.73

> <Gold.PLP.Chemscore.Internal.Correction>
0.0808

> <Gold.Rescore>
     Score         DG    S(hbond)    S(metal)    S(lipo)     H(rot)  DE(clash)    DE(int)     intcor
     17.72     -20.09       2.61        0.00      95.22       2.05       0.11       2.26       ----

> <Gold.Chemscore.Fitness>
17.7206

> <Gold.Chemscore.DG>
-20.0904

> <Gold.Chemscore.ZeroCoef>
-5.4800

> <Gold.Chemscore.Hbond>
2.6137

> <Gold.Chemscore.Metal>
0.0000

> <Gold.Chemscore.Lipo>
95.2160

> <Gold.Chemscore.Internal_Hbond>
0.0000

> <Gold.Chemscore.DEClash>
0.1053

> <Gold.Chemscore.DEInternal>
2.2644

> <Gold.Chemscore.Rot>
2.0546

> <Gold.Chemscore.Internal.Correction>
   9.000000E+99

> <Gold.Chemscore.Hbonds>
donor molecule, donor type, donor heavy atom, donor atom, acceptor molecule, acceptor atom, score
      L1  H    10    31       P1  7949  0.90
      L1  H    12    48       P1  7948  0.82
      P1  H 10752 10765       L1    10  0.12

> <Gold.Chemscore.Hbond.Weighted>
-8.7298

> <Gold.Chemscore.Metal.Weighted>
-0.0000

> <Gold.Chemscore.Lipo.Weighted>
-11.1403

> <Gold.Chemscore.Internal_Hbond.Weighted>
0.0000

> <Gold.Chemscore.DEClash.Weighted>
0.1053

> <Gold.Chemscore.DEInternal.Weighted>
2.2644

> <Gold.Chemscore.Rot.Weighted>
5.2597

> <Gold.Chemscore.Internal.Correction.Weighted>
   9.000000E+99

> <Gold.Protein.RotatedTorsions>
[ 6907 6896 6895 6894 ] final  -11.76 input  -60.11 | X-H torsion
[ 7974 7965 7964 7962 ] final   40.52 input  175.53 | X-H torsion
[ 8008 7997 7996 7995 ] final   69.17 input   59.86 | X-H torsion
[ 10167 10162 10161 10158 ] final  140.28 input  -65.29 | X-H torsion
[ 10718 10713 10712 10709 ] final   28.01 input   66.30 | X-H torsion
[ 10763 10752 10751 10750 ] final  167.49 input  -60.55 | X-H torsion
[ 11005 11000 10999 10996 ] final  128.40 input  -57.11 | X-H torsion

> <Gold.Protein.ActiveResidues>
 VAL166  LYS551  ARG553  GLY616  TRP617  ASP618  TYR619  PRO620  LYS621  CYS622 
 ASP623  PHE694  ASN695  SER759  ASP760  ASP761  ALA762  ILE779  LEU786  VAL792 
 PHE793  MET794  SER795  GLU796  ALA797  LYS798  CYS799  TRP800  GLU811  SER814 

> <Gold.Protein.RotatedAtoms>
  151.3811  135.0940  159.9496 H   0  0  0  0  0  0  0  0  0  0  0  0  # atno 6907 bound_to 6896
  152.5108  133.9071  159.7480 H   0  0  0  0  0  0  0  0  0  0  0  0  # atno 6908 bound_to 6896
  150.9504  133.6500  159.2802 H   0  0  0  0  0  0  0  0  0  0  0  0  # atno 6909 bound_to 6896
  146.0898  139.5523  142.9483 H   0  0  0  0  0  0  0  0  0  0  0  0  # atno 7974 bound_to 7965
  155.7195  140.3493  155.5010 H   0  0  0  0  0  0  0  0  0  0  0  0  # atno 8008 bound_to 7997
  155.9282  140.1079  157.1175 H   0  0  0  0  0  0  0  0  0  0  0  0  # atno 8009 bound_to 7997
  154.4081  140.1236  156.4755 H   0  0  0  0  0  0  0  0  0  0  0  0  # atno 8010 bound_to 7997
  139.5053  144.6244  151.5973 H   0  0  0  0  0  0  0  0  0  0  0  0  # atno 10167 bound_to 10162
  157.2277  130.7009  149.6299 H   0  0  0  0  0  0  0  0  0  0  0  0  # atno 10718 bound_to 10713
  154.3546  135.2753  155.2353 H   0  0  0  0  0  0  0  0  0  0  0  0  # atno 10763 bound_to 10752
  154.4567  135.5917  153.6232 H   0  0  0  0  0  0  0  0  0  0  0  0  # atno 10764 bound_to 10752
  152.9847  135.6055  154.3760 H   0  0  0  0  0  0  0  0  0  0  0  0  # atno 10765 bound_to 10752
  139.9559  134.9613  156.8996 H   0  0  0  0  0  0  0  0  0  0  0  0  # atno 11005 bound_to 11000
  145.6060  141.0347  143.1992 LP  0  0  0  0  0  0  0  0  0  0  0  0  # atno 17320 bound_to 7965
  144.7352  139.7607  143.7332 LP  0  0  0  0  0  0  0  0  0  0  0  0  # atno 17321 bound_to 7965
  140.5956  143.9702  150.6352 LP  0  0  0  0  0  0  0  0  0  0  0  0  # atno 17342 bound_to 10162
  140.2897  143.3333  152.1074 LP  0  0  0  0  0  0  0  0  0  0  0  0  # atno 17343 bound_to 10162
  155.9677  130.4499  150.5676 LP  0  0  0  0  0  0  0  0  0  0  0  0  # atno 17370 bound_to 10713
  157.3510  131.0733  151.1713 LP  0  0  0  0  0  0  0  0  0  0  0  0  # atno 17371 bound_to 10713
  140.5611  134.0534  155.7399 LP  0  0  0  0  0  0  0  0  0  0  0  0  # atno 17394 bound_to 11000
  141.1230  133.9430  157.2692 LP  0  0  0  0  0  0  0  0  0  0  0  0  # atno 17395 bound_to 11000

$$$$
