AV-unprocessed.smi:114|AV-procd|sdf|1107|dock3
  -GOLD-   2262018223D 1   1.00000     0.00000
 Structure written by MMmdl.
 32 34  0  0  0  0  0  0  0  0  1 V2000
  154.0197  137.3116  157.0595 N   0  0  0  0  0  0  0  0  0  0  0  0
  152.9440  138.1054  156.9639 C   0  0  0  0  0  0  0  0  0  0  0  0
  152.9591  139.2933  157.6127 N   0  0  0  0  0  0  0  0  0  0  0  0
  151.9053  140.1171  157.5427 C   0  0  0  0  0  0  0  0  0  0  0  0
  152.0085  141.2835  158.2218 F   0  0  0  0  0  0  0  0  0  0  0  0
  150.7617  139.9171  156.8778 N   0  0  0  0  0  0  0  0  0  0  0  0
  150.7455  138.7196  156.2246 C   0  0  0  0  0  0  0  0  0  0  0  0
  151.7923  137.7606  156.2154 C   0  0  0  0  0  0  0  0  0  0  0  0
  151.4254  136.6669  155.4418 N   0  0  0  0  0  0  0  0  0  0  0  0
  150.2265  136.9693  155.0187 C   0  0  0  0  0  0  0  0  0  0  0  0
  149.7430  138.1881  155.4457 N   0  0  0  0  0  0  0  0  0  0  0  0
  148.4310  138.8383  155.1483 C   0  0  2  0  0  0  0  0  0  0  0  0
  147.7007  137.9864  154.3316 O   0  0  0  0  0  0  0  0  0  0  0  0
  146.7381  138.7709  153.6467 C   0  0  2  0  0  0  0  0  0  0  0  0
  146.1965  137.9964  152.4360 C   0  0  0  0  0  0  0  0  0  0  0  0
  145.8428  138.8962  151.4077 O   0  0  0  0  0  0  0  0  0  0  0  0
  147.5341  140.0280  153.2665 C   0  0  1  0  0  0  0  0  0  0  0  0
  146.6777  141.1522  153.2353 O   0  0  0  0  0  0  0  0  0  0  0  0
  148.5697  140.1707  154.3835 C   0  0  2  0  0  0  0  0  0  0  0  0
  149.8609  140.3993  153.8468 O   0  0  0  0  0  0  0  0  0  0  0  0
  147.9335  138.9473  156.1135 H   0  0  0  0  0  0  0  0  0  0  0  0
  145.9351  139.0311  154.3404 H   0  0  0  0  0  0  0  0  0  0  0  0
  148.0184  139.8945  152.2976 H   0  0  0  0  0  0  0  0  0  0  0  0
  148.3264  140.9798  155.0738 H   0  0  0  0  0  0  0  0  0  0  0  0
  154.0318  136.4208  156.5836 H   0  0  0  0  0  0  0  0  0  0  0  0
  154.8155  137.6046  157.6077 H   0  0  0  0  0  0  0  0  0  0  0  0
  149.6612  136.3083  154.3778 H   0  0  0  0  0  0  0  0  0  0  0  0
  146.9664  137.3335  152.0405 H   0  0  0  0  0  0  0  0  0  0  0  0
  145.3431  137.3757  152.7101 H   0  0  0  0  0  0  0  0  0  0  0  0
  145.0956  138.5473  150.9460 H   0  0  0  0  0  0  0  0  0  0  0  0
  145.9306  140.9749  153.7867 H   0  0  0  0  0  0  0  0  0  0  0  0
  149.8913  140.0359  152.9751 H   0  0  0  0  0  0  0  0  0  0  0  0
  1  2  1  0  0  0  0
  1 25  1  0  0  0  0
  1 26  1  0  0  0  0
  2  8  1  0  0  0  0
  2  3  2  0  0  0  0
  3  4  1  0  0  0  0
  4  5  1  0  0  0  0
  4  6  2  0  0  0  0
  6  7  1  0  0  0  0
  7 11  1  0  0  0  0
  7  8  2  0  0  0  0
  8  9  1  0  0  0  0
  9 10  2  0  0  0  0
 10 11  1  0  0  0  0
 10 27  1  0  0  0  0
 11 12  1  0  0  0  0
 12 21  1  0  0  0  0
 12 19  1  0  0  0  0
 12 13  1  0  0  0  0
 13 14  1  0  0  0  0
 14 22  1  0  0  0  0
 14 15  1  0  0  0  0
 14 17  1  0  0  0  0
 15 16  1  0  0  0  0
 15 28  1  0  0  0  0
 15 29  1  0  0  0  0
 16 30  1  0  0  0  0
 17 23  1  0  0  0  0
 17 18  1  0  0  0  0
 17 19  1  0  0  0  0
 18 31  1  0  0  0  0
 19 24  1  0  0  0  0
 19 20  1  0  0  0  0
 20 32  1  0  0  0  0
M  END
> <s_m_source_file>
AV-unprocessed.smi

> <i_m_source_file_index>
114

> <i_lp_mmshare_version>
43012

> <i_f3d_flags>
0

> <s_epik_input>
RmMobjEpbmMoW05IMl0pYyhjMTIpbltjSF1uMltDQEBIXTNPW0NASF0oW0NIMl1bT0hdKVtDQEBIXShbT0hdKVtDQEBIXTNbT0hd

> <s_epik_cmdline>
J2VwaWtfcHl0aG9uJywgJy1waCcsICc3LjAnLCAnLXRuJywgJzgnLCAnLW1hJywgJzIwMCcsICctbWV0YWxfYmluZGluZycsICctaW1hZScsICc8aW5maWxlLm1hZT4nLCAnLW9tYWUnLCAnPG91dGZpbGUubWFlPic=

> <r_lp_tautomer_probability>
1

> <r_epik_Ionization_Penalty>
1.13199e-05

> <r_epik_Ionization_Penalty_Charging>
0

> <r_epik_Ionization_Penalty_Neutral>
1.13199e-05

> <r_epik_State_Penalty>
-0

> <r_epik_Charging_Adjusted_Penalty>
0

> <i_epik_Tot_Q>
0

> <i_epik_Tot_abs_Q>
0

> <r_epik_Metal_State_Penalty>
-0

> <b_epik_Metal_Only>
0

> <s_epik_Chemistry_Notes>
This compound contains an acetal/aminal-like group ( X-CH(R)-Y where X, Y are N, S, or O) that may be acid/base labile, releasing an aldehyde.

> <s_lp_Force_Field>
OPLS_2005

> <r_lp_Energy>
35.9839

> <b_lp_Chiralities_Consistent>
1

> <s_lp_Variant>
AV-unprocessed.smi:114-1

> <Gold.Version>
5.8.1

> <Gold.Id.Protein>
6NUR|6NUR_protein|mol2

> <Gold.PLP.Fitness>
39.5487

> <Gold.PLP.PLP>
-24.9631

> <Gold.PLP.part.hbond>
-6.8953

> <Gold.PLP.part.metal>
0.0000

> <Gold.PLP.part.buried>
-3.1604

> <Gold.PLP.part.nonpolar>
-16.8870

> <Gold.PLP.part.repulsive>
0.4998

> <Gold.PLP.ligand.clash>
0.0000

> <Gold.PLP.ligand.torsion>
0.3431

> <Gold.PLP.Chemscore.Hbond>
4.0864

> <Gold.PLP.Chemscore.CHOScore>
1.0000

> <Gold.PLP.Chemscore.Metal>
0.0000

> <Gold.Chemscore.Hbonds>
donor molecule, donor type, donor heavy atom, donor atom, acceptor molecule, acceptor atom, score
      L1  H    16    30       P1 10171  1.00
      L1  H    20    32       P1  7957  1.00
      P1  H  7989  7998       L1    20  0.10
      P1  H  7997  8010       L1     3  1.00
      P1  H 10752 10765       L1     9  0.75
      L1  C    10    27       P1  7948  0.86

> <Gold.PLP.Chemscore.Internal.Correction>
0.0125

> <Gold.Rescore>
     Score         DG    S(hbond)    S(metal)    S(lipo)     H(rot)  DE(clash)    DE(int)     intcor
      9.22     -10.32       3.39        0.00      32.58       4.03       0.76       0.33       ----

> <Gold.Chemscore.Fitness>
9.2248

> <Gold.Chemscore.DG>
-10.3170

> <Gold.Chemscore.ZeroCoef>
-5.4800

> <Gold.Chemscore.Hbond>
3.3940

> <Gold.Chemscore.Metal>
0.0000

> <Gold.Chemscore.Lipo>
32.5816

> <Gold.Chemscore.Internal_Hbond>
0.0000

> <Gold.Chemscore.DEClash>
0.7648

> <Gold.Chemscore.DEInternal>
0.3274

> <Gold.Chemscore.Rot>
4.0277

> <Gold.Chemscore.Internal.Correction>
   9.000000E+99

> <Gold.Chemscore.Hbonds>
donor molecule, donor type, donor heavy atom, donor atom, acceptor molecule, acceptor atom, score
      L1  H    16    30       P1 10171  0.97
      L1  H    20    32       P1  7957  0.98
      P1  H  7997  8010       L1     3  0.26
      P1  H 10752 10765       L1     9  0.68

> <Gold.Chemscore.Hbond.Weighted>
-11.3360

> <Gold.Chemscore.Metal.Weighted>
-0.0000

> <Gold.Chemscore.Lipo.Weighted>
-3.8120

> <Gold.Chemscore.Internal_Hbond.Weighted>
0.0000

> <Gold.Chemscore.DEClash.Weighted>
0.7648

> <Gold.Chemscore.DEInternal.Weighted>
0.3274

> <Gold.Chemscore.Rot.Weighted>
10.3110

> <Gold.Chemscore.Internal.Correction.Weighted>
   9.000000E+99

> <Gold.Protein.RotatedTorsions>
[ 6907 6896 6895 6894 ] final   55.36 input  -60.11 | X-H torsion
[ 7974 7965 7964 7962 ] final  128.83 input  175.53 | X-H torsion
[ 8008 7997 7996 7995 ] final   40.81 input   59.86 | X-H torsion
[ 10167 10162 10161 10158 ] final  -66.80 input  -65.29 | X-H torsion
[ 10718 10713 10712 10709 ] final  -33.42 input   66.30 | X-H torsion
[ 10763 10752 10751 10750 ] final  164.85 input  -60.55 | X-H torsion
[ 11005 11000 10999 10996 ] final   67.27 input  -57.11 | X-H torsion

> <Gold.Protein.ActiveResidues>
 VAL166  LYS551  ARG553  GLY616  TRP617  ASP618  TYR619  PRO620  LYS621  CYS622 
 ASP623  PHE694  ASN695  SER759  ASP760  ASP761  ALA762  ILE779  LEU786  VAL792 
 PHE793  MET794  SER795  GLU796  ALA797  LYS798  CYS799  TRP800  GLU811  SER814 

> <Gold.Protein.RotatedAtoms>
  152.3530  134.6978  160.0230 H   0  0  0  0  0  0  0  0  0  0  0  0  # atno 6907 bound_to 6896
  151.7326  133.3313  159.3352 H   0  0  0  0  0  0  0  0  0  0  0  0  # atno 6908 bound_to 6896
  150.7553  134.6283  159.6217 H   0  0  0  0  0  0  0  0  0  0  0  0  # atno 6909 bound_to 6896
  145.0353  139.4010  143.5129 H   0  0  0  0  0  0  0  0  0  0  0  0  # atno 7974 bound_to 7965
  155.2593  140.3358  155.4274 H   0  0  0  0  0  0  0  0  0  0  0  0  # atno 8008 bound_to 7997
  156.2182  140.1797  156.7583 H   0  0  0  0  0  0  0  0  0  0  0  0  # atno 8009 bound_to 7997
  154.5784  140.0658  156.9053 H   0  0  0  0  0  0  0  0  0  0  0  0  # atno 8010 bound_to 7997
  140.5630  143.2313  151.6689 H   0  0  0  0  0  0  0  0  0  0  0  0  # atno 10167 bound_to 10162
  156.3629  130.4326  149.7609 H   0  0  0  0  0  0  0  0  0  0  0  0  # atno 10718 bound_to 10713
  154.3151  135.2756  155.2547 H   0  0  0  0  0  0  0  0  0  0  0  0  # atno 10763 bound_to 10752
  154.4925  135.5830  153.6473 H   0  0  0  0  0  0  0  0  0  0  0  0  # atno 10764 bound_to 10752
  152.9883  135.6138  154.3331 H   0  0  0  0  0  0  0  0  0  0  0  0  # atno 10765 bound_to 10752
  139.9781  134.6789  156.0315 H   0  0  0  0  0  0  0  0  0  0  0  0  # atno 11005 bound_to 11000
  146.3503  139.9925  142.8684 LP  0  0  0  0  0  0  0  0  0  0  0  0  # atno 17320 bound_to 7965
  145.1718  140.9724  143.4317 LP  0  0  0  0  0  0  0  0  0  0  0  0  # atno 17321 bound_to 7965
  139.5079  144.3629  152.0545 LP  0  0  0  0  0  0  0  0  0  0  0  0  # atno 17342 bound_to 10162
  140.2757  144.3915  150.6136 LP  0  0  0  0  0  0  0  0  0  0  0  0  # atno 17343 bound_to 10162
  156.4766  130.8021  151.3037 LP  0  0  0  0  0  0  0  0  0  0  0  0  # atno 17370 bound_to 10713
  157.7475  131.0019  150.2980 LP  0  0  0  0  0  0  0  0  0  0  0  0  # atno 17371 bound_to 10713
  141.1456  133.6556  156.3858 LP  0  0  0  0  0  0  0  0  0  0  0  0  # atno 17394 bound_to 11000
  140.5153  134.6356  157.5299 LP  0  0  0  0  0  0  0  0  0  0  0  0  # atno 17395 bound_to 11000

$$$$
