AV-unprocessed.smi:1715|AV-procd|sdf|6913|dock5
  -GOLD-   22720 8113D 1   1.00000     0.00000
 Structure written by MMmdl.
 41 42  0  0  0  0  0  0  0  0  2 V2000
  152.8033  138.5244  154.7087 C   0  0  0  0  0  0  0  0  0  0  0  0
  151.3316  138.4862  154.2827 C   0  0  1  0  0  0  0  0  0  0  0  0
  150.5622  137.3300  154.9486 C   0  0  0  0  0  0  0  0  0  0  0  0
  149.1296  137.3707  154.5706 N   0  3  1  0  0  0  0  0  0  0  0  0
  148.3639  136.2357  155.1438 C   0  0  0  0  0  0  0  0  0  0  0  0
  146.9307  136.1455  154.5840 C   0  0  0  0  0  0  0  0  0  0  0  0
  146.9189  135.6194  153.2237 N   0  0  0  0  0  0  0  0  0  0  0  0
  145.9274  134.8899  152.6926 C   0  0  0  0  0  0  0  0  0  0  0  0
  144.9097  134.5775  153.3112 O   0  0  0  0  0  0  0  0  0  0  0  0
  146.1936  134.5527  151.4200 N   0  0  0  0  0  0  0  0  0  0  0  0
  145.3848  133.7812  150.5475 C   0  0  0  0  0  0  0  0  0  0  0  0
  145.8082  132.5954  149.8880 C   0  0  0  0  0  0  0  0  0  0  0  0
  144.8407  132.0868  149.1387 N   0  0  0  0  0  0  0  0  0  0  0  0
  143.8034  132.9360  149.3139 N   0  0  0  0  0  0  0  0  0  0  0  0
  144.0889  133.9826  150.1627 C   0  0  0  0  0  0  0  0  0  0  0  0
  148.5517  138.6994  154.8907 C   0  0  0  0  0  0  0  0  0  0  0  0
  149.3759  139.8206  154.2291 C   0  0  1  0  0  0  0  0  0  0  0  0
  148.8614  141.2149  154.6024 C   0  0  0  0  0  0  0  0  0  0  0  0
  150.7292  139.7197  154.6579 O   0  0  0  0  0  0  0  0  0  0  0  0
  142.9166  132.7890  148.8529 H   0  0  0  0  0  0  0  0  0  0  0  0
  153.3165  137.6028  154.4332 H   0  0  0  0  0  0  0  0  0  0  0  0
  152.8999  138.6522  155.7872 H   0  0  0  0  0  0  0  0  0  0  0  0
  153.3262  139.3514  154.2279 H   0  0  0  0  0  0  0  0  0  0  0  0
  151.2881  138.3808  153.1972 H   0  0  0  0  0  0  0  0  0  0  0  0
  150.9972  136.3772  154.6437 H   0  0  0  0  0  0  0  0  0  0  0  0
  150.6527  137.3914  156.0347 H   0  0  0  0  0  0  0  0  0  0  0  0
  148.8784  135.3034  154.9061 H   0  0  0  0  0  0  0  0  0  0  0  0
  148.3576  136.3144  156.2322 H   0  0  0  0  0  0  0  0  0  0  0  0
  146.2942  135.5199  155.2106 H   0  0  0  0  0  0  0  0  0  0  0  0
  146.4745  137.1357  154.5683 H   0  0  0  0  0  0  0  0  0  0  0  0
  147.7182  135.8311  152.6440 H   0  0  0  0  0  0  0  0  0  0  0  0
  147.0663  134.8813  151.0329 H   0  0  0  0  0  0  0  0  0  0  0  0
  146.7655  132.0969  149.9271 H   0  0  0  0  0  0  0  0  0  0  0  0
  143.3638  134.7456  150.4038 H   0  0  0  0  0  0  0  0  0  0  0  0
  147.5212  138.7596  154.5424 H   0  0  0  0  0  0  0  0  0  0  0  0
  148.5307  138.8361  155.9733 H   0  0  0  0  0  0  0  0  0  0  0  0
  149.3349  139.7156  153.1432 H   0  0  0  0  0  0  0  0  0  0  0  0
  147.8281  141.3513  154.2825 H   0  0  0  0  0  0  0  0  0  0  0  0
  149.4612  141.9912  154.1269 H   0  0  0  0  0  0  0  0  0  0  0  0
  148.9029  141.3759  155.6800 H   0  0  0  0  0  0  0  0  0  0  0  0
  149.0979  137.2660  153.5664 H   0  0  0  0  0  0  0  0  0  0  0  0
  1  2  1  0  0  0  0
  1 21  1  0  0  0  0
  1 22  1  0  0  0  0
  1 23  1  0  0  0  0
  2 19  1  0  0  0  0
  2  3  1  0  0  0  0
  2 24  1  0  0  0  0
  3  4  1  0  0  0  0
  3 25  1  0  0  0  0
  3 26  1  0  0  0  0
  4  5  1  0  0  0  0
  4 16  1  0  0  0  0
  4 41  1  0  0  0  0
  5  6  1  0  0  0  0
  5 27  1  0  0  0  0
  5 28  1  0  0  0  0
  6  7  1  0  0  0  0
  6 29  1  0  0  0  0
  6 30  1  0  0  0  0
  7  8  1  0  0  0  0
  7 31  1  0  0  0  0
  8  9  2  0  0  0  0
  8 10  1  0  0  0  0
 10 11  1  0  0  0  0
 10 32  1  0  0  0  0
 11 15  2  0  0  0  0
 11 12  1  0  0  0  0
 12 13  2  0  0  0  0
 12 33  1  0  0  0  0
 13 14  1  0  0  0  0
 14 20  1  0  0  0  0
 14 15  1  0  0  0  0
 15 34  1  0  0  0  0
 16 17  1  0  0  0  0
 16 35  1  0  0  0  0
 16 36  1  0  0  0  0
 17 18  1  0  0  0  0
 17 19  1  0  0  0  0
 17 37  1  0  0  0  0
 18 38  1  0  0  0  0
 18 39  1  0  0  0  0
 18 40  1  0  0  0  0
M  CHG  1   4   1
M  END
> <s_m_source_file>
AV-unprocessed.smi

> <i_m_source_file_index>
1715

> <i_lp_mmshare_version>
43012

> <i_f3d_flags>
0

> <s_epik_input>
W0NIM11bQ0BASF0xW0NIMl1OKFtDSDJdW0NASF0oTzEpW0NIM10pW0NIMl1bQ0gyXVtOSF1DKD1PKVtOSF1jMltjSF1uW25IXVtjSF0y

> <s_epik_cmdline>
J2VwaWtfcHl0aG9uJywgJy1waCcsICc3LjAnLCAnLXRuJywgJzgnLCAnLW1hJywgJzIwMCcsICctbWV0YWxfYmluZGluZycsICctaW1hZScsICc8aW5maWxlLm1hZT4nLCAnLW9tYWUnLCAnPG91dGZpbGUubWFlPic=

> <r_lp_tautomer_probability>
0.5

> <r_epik_Ionization_Penalty>
0.646007

> <r_epik_Ionization_Penalty_Charging>
0.645968

> <r_epik_Ionization_Penalty_Neutral>
3.91671e-05

> <r_epik_State_Penalty>
0.664063

> <r_epik_Charging_Adjusted_Penalty>
1.31003

> <i_epik_Tot_Q>
1

> <i_epik_Tot_abs_Q>
1

> <r_epik_Metal_State_Penalty>
0.664064

> <b_epik_Metal_Only>
0

> <s_lp_Force_Field>
OPLS_2005

> <r_lp_Energy>
16.9027

> <b_lp_Chiralities_Consistent>
1

> <s_lp_Variant>
AV-unprocessed.smi:1715-5

> <Gold.Version>
5.8.1

> <Gold.Id.Protein>
6NUR|6NUR_protein|mol2

> <Gold.PLP.Fitness>
44.6654

> <Gold.PLP.PLP>
-28.8198

> <Gold.PLP.part.hbond>
-4.4247

> <Gold.PLP.part.metal>
0.0000

> <Gold.PLP.part.buried>
-3.7725

> <Gold.PLP.part.nonpolar>
-21.6355

> <Gold.PLP.part.repulsive>
0.5170

> <Gold.PLP.ligand.clash>
0.0000

> <Gold.PLP.ligand.torsion>
0.7805

> <Gold.PLP.Chemscore.Hbond>
4.0239

> <Gold.PLP.Chemscore.CHOScore>
1.7715

> <Gold.PLP.Chemscore.Metal>
0.0000

> <Gold.Chemscore.Hbonds>
donor molecule, donor type, donor heavy atom, donor atom, acceptor molecule, acceptor atom, score
      L1  H     4    41       P1  7948  2.00
      L1  H     7    31       P1  7948  0.94
      L1  H    10    32       P1  7948  0.05
      P1  H  7989  7998       L1    19  0.95
      L1  C    12    33       P1 10747  0.96
      L1  C    15    34       P1 10186  0.76

> <Gold.PLP.Chemscore.Internal.Correction>
0.0204

> <Gold.Rescore>
     Score         DG    S(hbond)    S(metal)    S(lipo)     H(rot)  DE(clash)    DE(int)     intcor
     15.92     -16.93       2.20        0.00      71.58       1.67       0.24       0.77       ----

> <Gold.Chemscore.Fitness>
15.9182

> <Gold.Chemscore.DG>
-16.9313

> <Gold.Chemscore.ZeroCoef>
-5.4800

> <Gold.Chemscore.Hbond>
2.1987

> <Gold.Chemscore.Metal>
0.0000

> <Gold.Chemscore.Lipo>
71.5835

> <Gold.Chemscore.Internal_Hbond>
0.0000

> <Gold.Chemscore.DEClash>
0.2434

> <Gold.Chemscore.DEInternal>
0.7696

> <Gold.Chemscore.Rot>
1.6671

> <Gold.Chemscore.Internal.Correction>
   9.000000E+99

> <Gold.Chemscore.Hbonds>
donor molecule, donor type, donor heavy atom, donor atom, acceptor molecule, acceptor atom, score
      L1  H     4    41       P1  7948  0.96
      L1  H     7    31       P1  7948  0.90
      L1  H    10    32       P1  7948  0.04
      P1  H  7989  7998       L1    19  0.09

> <Gold.Chemscore.Hbond.Weighted>
-7.3437

> <Gold.Chemscore.Metal.Weighted>
-0.0000

> <Gold.Chemscore.Lipo.Weighted>
-8.3753

> <Gold.Chemscore.Internal_Hbond.Weighted>
0.0000

> <Gold.Chemscore.DEClash.Weighted>
0.2434

> <Gold.Chemscore.DEInternal.Weighted>
0.7696

> <Gold.Chemscore.Rot.Weighted>
4.2677

> <Gold.Chemscore.Internal.Correction.Weighted>
   9.000000E+99

> <Gold.Protein.RotatedTorsions>
[ 6907 6896 6895 6894 ] final  126.91 input  -60.11 | X-H torsion
[ 7974 7965 7964 7962 ] final -175.37 input  175.53 | X-H torsion
[ 8008 7997 7996 7995 ] final -153.60 input   59.86 | X-H torsion
[ 10167 10162 10161 10158 ] final  105.13 input  -65.29 | X-H torsion
[ 10718 10713 10712 10709 ] final  -72.62 input   66.30 | X-H torsion
[ 10763 10752 10751 10750 ] final  150.92 input  -60.55 | X-H torsion
[ 11005 11000 10999 10996 ] final -149.88 input  -57.11 | X-H torsion

> <Gold.Protein.ActiveResidues>
 VAL166  LYS551  ARG553  GLY616  TRP617  ASP618  TYR619  PRO620  LYS621  CYS622 
 ASP623  PHE694  ASN695  SER759  ASP760  ASP761  ALA762  ILE779  LEU786  VAL792 
 PHE793  MET794  SER795  GLU796  ALA797  LYS798  CYS799  TRP800  GLU811  SER814 

> <Gold.Protein.RotatedAtoms>
  152.3861  133.6612  159.6199 H   0  0  0  0  0  0  0  0  0  0  0  0  # atno 6907 bound_to 6896
  150.7779  133.9033  159.3356 H   0  0  0  0  0  0  0  0  0  0  0  0  # atno 6908 bound_to 6896
  151.6830  135.0960  160.0271 H   0  0  0  0  0  0  0  0  0  0  0  0  # atno 6909 bound_to 6896
  144.7128  140.1332  143.6397 H   0  0  0  0  0  0  0  0  0  0  0  0  # atno 7974 bound_to 7965
  155.6733  140.0736  157.2512 H   0  0  0  0  0  0  0  0  0  0  0  0  # atno 8008 bound_to 7997
  154.4119  140.1695  156.1954 H   0  0  0  0  0  0  0  0  0  0  0  0  # atno 8009 bound_to 7997
  155.9598  140.3371  155.6483 H   0  0  0  0  0  0  0  0  0  0  0  0  # atno 8010 bound_to 7997
  139.7119  144.7076  151.1014 H   0  0  0  0  0  0  0  0  0  0  0  0  # atno 10167 bound_to 10162
  156.0313  130.4376  150.2619 H   0  0  0  0  0  0  0  0  0  0  0  0  # atno 10718 bound_to 10713
  154.0953  135.2849  155.3263 H   0  0  0  0  0  0  0  0  0  0  0  0  # atno 10763 bound_to 10752
  154.6592  135.5340  153.8000 H   0  0  0  0  0  0  0  0  0  0  0  0  # atno 10764 bound_to 10752
  153.0398  135.6529  154.1119 H   0  0  0  0  0  0  0  0  0  0  0  0  # atno 10765 bound_to 10752
  140.7460  134.3460  157.5137 H   0  0  0  0  0  0  0  0  0  0  0  0  # atno 11005 bound_to 11000
  145.9268  139.2581  143.1348 LP  0  0  0  0  0  0  0  0  0  0  0  0  # atno 17320 bound_to 7965
  145.9564  140.8870  143.0233 LP  0  0  0  0  0  0  0  0  0  0  0  0  # atno 17321 bound_to 7965
  140.7735  143.5282  150.9455 LP  0  0  0  0  0  0  0  0  0  0  0  0  # atno 17342 bound_to 10162
  139.8967  143.6886  152.3137 LP  0  0  0  0  0  0  0  0  0  0  0  0  # atno 17343 bound_to 10162
  157.0721  131.0120  151.3186 LP  0  0  0  0  0  0  0  0  0  0  0  0  # atno 17370 bound_to 10713
  157.4991  130.7869  149.7586 LP  0  0  0  0  0  0  0  0  0  0  0  0  # atno 17371 bound_to 10713
  139.8796  134.9112  156.3030 LP  0  0  0  0  0  0  0  0  0  0  0  0  # atno 17394 bound_to 11000
  140.9794  133.7277  156.0649 LP  0  0  0  0  0  0  0  0  0  0  0  0  # atno 17395 bound_to 11000

$$$$
