AV-unprocessed.smi:2247|AV-procd|sdf|9093|dock10
  -GOLD-   2272012293D 1   1.00000     0.00000
 Structure written by MMmdl.
 33 34  0  0  0  0  0  0  0  0  2 V2000
  152.5586  143.5413  161.7250 C   0  0  0  0  0  0  0  0  0  0  0  0
  152.5500  142.4102  160.6802 C   0  0  0  0  0  0  0  0  0  0  0  0
  153.9037  141.6846  160.6175 C   0  0  0  0  0  0  0  0  0  0  0  0
  152.1582  142.8730  159.3411 N   0  0  0  0  0  0  0  0  0  0  0  0
  151.8002  144.2546  159.0632 C   0  0  0  0  0  0  0  0  0  0  0  0
  151.7335  144.3433  157.5355 C   0  0  0  0  0  0  0  0  0  0  0  0
  151.6623  142.8999  157.0119 C   0  0  2  0  0  0  0  0  0  0  0  0
  150.2886  142.5802  156.6278 N   0  0  0  0  0  0  0  0  0  0  0  0
  149.9022  141.5526  155.8576 C   0  0  0  0  0  0  0  0  0  0  0  0
  150.7432  140.7744  155.4019 O   0  0  0  0  0  0  0  0  0  0  0  0
  148.5656  141.4931  155.6621 N   0  5  0  0  0  0  0  0  0  0  0  0
  148.0563  140.5974  154.8014 C   0  0  0  0  0  0  0  0  0  0  0  0
  148.4517  139.3321  154.6507 N   0  0  0  0  0  0  0  0  0  0  0  0
  147.6394  138.7966  153.6628 C   0  0  0  0  0  0  0  0  0  0  0  0
  146.7704  139.7729  153.2588 C   0  0  0  0  0  0  0  0  0  0  0  0
  147.0210  140.9123  153.9721 O   0  0  0  0  0  0  0  0  0  0  0  0
  152.0643  142.1001  158.2498 C   0  0  0  0  0  0  0  0  0  0  0  0
  152.2972  140.8922  158.2075 O   0  0  0  0  0  0  0  0  0  0  0  0
  152.7641  143.1456  162.7200 H   0  0  0  0  0  0  0  0  0  0  0  0
  151.5927  144.0455  161.7691 H   0  0  0  0  0  0  0  0  0  0  0  0
  153.3217  144.2896  161.5099 H   0  0  0  0  0  0  0  0  0  0  0  0
  151.8026  141.6876  161.0128 H   0  0  0  0  0  0  0  0  0  0  0  0
  154.1871  141.2986  161.5969 H   0  0  0  0  0  0  0  0  0  0  0  0
  154.6958  142.3543  160.2810 H   0  0  0  0  0  0  0  0  0  0  0  0
  153.8690  140.8384  159.9302 H   0  0  0  0  0  0  0  0  0  0  0  0
  150.8259  144.4746  159.5014 H   0  0  0  0  0  0  0  0  0  0  0  0
  152.5303  144.9531  159.4736 H   0  0  0  0  0  0  0  0  0  0  0  0
  150.9026  144.9646  157.1982 H   0  0  0  0  0  0  0  0  0  0  0  0
  152.6467  144.8108  157.1645 H   0  0  0  0  0  0  0  0  0  0  0  0
  152.3627  142.7411  156.1902 H   0  0  0  0  0  0  0  0  0  0  0  0
  149.5648  143.1873  156.9829 H   0  0  0  0  0  0  0  0  0  0  0  0
  147.7417  137.7743  153.3306 H   0  0  0  0  0  0  0  0  0  0  0  0
  145.9729  139.8180  152.5323 H   0  0  0  0  0  0  0  0  0  0  0  0
  1  2  1  0  0  0  0
  1 19  1  0  0  0  0
  1 20  1  0  0  0  0
  1 21  1  0  0  0  0
  2  3  1  0  0  0  0
  2  4  1  0  0  0  0
  2 22  1  0  0  0  0
  3 23  1  0  0  0  0
  3 24  1  0  0  0  0
  3 25  1  0  0  0  0
  4 17  1  0  0  0  0
  4  5  1  0  0  0  0
  5  6  1  0  0  0  0
  5 26  1  0  0  0  0
  5 27  1  0  0  0  0
  6  7  1  0  0  0  0
  6 28  1  0  0  0  0
  6 29  1  0  0  0  0
  7  8  1  0  0  0  0
  7 17  1  0  0  0  0
  7 30  1  0  0  0  0
  8  9  1  0  0  0  0
  8 31  1  0  0  0  0
  9 10  2  0  0  0  0
  9 11  1  0  0  0  0
 11 12  1  0  0  0  0
 12 16  1  0  0  0  0
 12 13  2  0  0  0  0
 13 14  1  0  0  0  0
 14 15  2  0  0  0  0
 14 32  1  0  0  0  0
 15 16  1  0  0  0  0
 15 33  1  0  0  0  0
 17 18  2  0  0  0  0
M  CHG  1  11  -1
M  END
> <s_m_source_file>
AV-unprocessed.smi

> <i_m_source_file_index>
2247

> <i_lp_mmshare_version>
43012

> <i_f3d_flags>
0

> <s_epik_input>
W0NIM11bQ0hdKFtDSDNdKU4xW0NIMl1bQ0gyXVtDQEhdKEMxPU8pW05IXUMoPU8pW05IXWMybltjSF1bY0hdbzI=

> <s_epik_cmdline>
J2VwaWtfcHl0aG9uJywgJy1waCcsICc3LjAnLCAnLXRuJywgJzgnLCAnLW1hJywgJzIwMCcsICctbWV0YWxfYmluZGluZycsICctaW1hZScsICc8aW5maWxlLm1hZT4nLCAnLW9tYWUnLCAnPG91dGZpbGUubWFlPic=

> <r_lp_tautomer_probability>
0.785861

> <r_epik_Ionization_Penalty>
8.37364

> <r_epik_Ionization_Penalty_Charging>
6.20178

> <r_epik_Ionization_Penalty_Neutral>
2.17186

> <r_epik_State_Penalty>
6.22234

> <r_epik_Charging_Adjusted_Penalty>
12.4241

> <i_epik_Tot_Q>
-1

> <i_epik_Tot_abs_Q>
1

> <r_epik_Metal_State_Penalty>
2.14252

> <b_epik_Metal_Only>
1

> <s_lp_Force_Field>
OPLS_2005

> <r_lp_Energy>
16.3016

> <b_lp_Chiralities_Consistent>
1

> <s_lp_Variant>
AV-unprocessed.smi:2247-8

> <Gold.Version>
5.8.1

> <Gold.Id.Protein>
6NUR|6NUR_protein|mol2

> <Gold.PLP.Fitness>
45.8145

> <Gold.PLP.PLP>
-37.3381

> <Gold.PLP.part.hbond>
-2.0000

> <Gold.PLP.part.metal>
0.0000

> <Gold.PLP.part.buried>
-4.9634

> <Gold.PLP.part.nonpolar>
-30.2574

> <Gold.PLP.part.repulsive>
0.9357

> <Gold.PLP.ligand.clash>
0.0000

> <Gold.PLP.ligand.torsion>
0.6454

> <Gold.PLP.Chemscore.Hbond>
1.2295

> <Gold.PLP.Chemscore.CHOScore>
2.0000

> <Gold.PLP.Chemscore.Metal>
0.0000

> <Gold.Chemscore.Hbonds>
donor molecule, donor type, donor heavy atom, donor atom, acceptor molecule, acceptor atom, score
      L1  H     8    31       P1  8028  0.25
      P1  H  7989  7998       L1    10  0.70
      L1  C    14    32       P1  7948  1.00
      L1  C    15    33       P1 10175  1.00

> <Gold.PLP.Chemscore.Internal.Correction>
0.0786

> <Gold.Rescore>
     Score         DG    S(hbond)    S(metal)    S(lipo)     H(rot)  DE(clash)    DE(int)     intcor
     12.84     -16.28       1.29        0.00      84.51       1.32       1.49       1.94       ----

> <Gold.Chemscore.Fitness>
12.8422

> <Gold.Chemscore.DG>
-16.2767

> <Gold.Chemscore.ZeroCoef>
-5.4800

> <Gold.Chemscore.Hbond>
1.2853

> <Gold.Chemscore.Metal>
0.0000

> <Gold.Chemscore.Lipo>
84.5127

> <Gold.Chemscore.Internal_Hbond>
0.0000

> <Gold.Chemscore.DEClash>
1.4897

> <Gold.Chemscore.DEInternal>
1.9449

> <Gold.Chemscore.Rot>
1.3219

> <Gold.Chemscore.Internal.Correction>
   9.000000E+99

> <Gold.Chemscore.Hbonds>
donor molecule, donor type, donor heavy atom, donor atom, acceptor molecule, acceptor atom, score
      L1  H     8    31       P1  8028  0.25
      P1  H  7989  7998       L1    10  0.68

> <Gold.Chemscore.Hbond.Weighted>
-4.2929

> <Gold.Chemscore.Metal.Weighted>
-0.0000

> <Gold.Chemscore.Lipo.Weighted>
-9.8880

> <Gold.Chemscore.Internal_Hbond.Weighted>
0.0000

> <Gold.Chemscore.DEClash.Weighted>
1.4897

> <Gold.Chemscore.DEInternal.Weighted>
1.9449

> <Gold.Chemscore.Rot.Weighted>
3.3842

> <Gold.Chemscore.Internal.Correction.Weighted>
   9.000000E+99

> <Gold.Protein.RotatedTorsions>
[ 6907 6896 6895 6894 ] final   85.20 input  -60.11 | X-H torsion
[ 7974 7965 7964 7962 ] final  -59.74 input  175.53 | X-H torsion
[ 8008 7997 7996 7995 ] final   64.30 input   59.86 | X-H torsion
[ 10167 10162 10161 10158 ] final  122.22 input  -65.29 | X-H torsion
[ 10718 10713 10712 10709 ] final  108.96 input   66.30 | X-H torsion
[ 10763 10752 10751 10750 ] final   90.56 input  -60.55 | X-H torsion
[ 11005 11000 10999 10996 ] final -130.75 input  -57.11 | X-H torsion

> <Gold.Protein.ActiveResidues>
 VAL166  LYS551  ARG553  GLY616  TRP617  ASP618  TYR619  PRO620  LYS621  CYS622 
 ASP623  PHE694  ASN695  SER759  ASP760  ASP761  ALA762  ILE779  LEU786  VAL792 
 PHE793  MET794  SER795  GLU796  ALA797  LYS798  CYS799  TRP800  GLU811  SER814 

> <Gold.Protein.RotatedAtoms>
  152.5369  134.2623  159.8939 H   0  0  0  0  0  0  0  0  0  0  0  0  # atno 6907 bound_to 6896
  151.2582  133.4308  159.2622 H   0  0  0  0  0  0  0  0  0  0  0  0  # atno 6908 bound_to 6896
  151.0476  134.9665  159.8251 H   0  0  0  0  0  0  0  0  0  0  0  0  # atno 6909 bound_to 6896
  145.8238  140.8523  143.0119 H   0  0  0  0  0  0  0  0  0  0  0  0  # atno 7974 bound_to 7965
  155.6439  140.3497  155.4724 H   0  0  0  0  0  0  0  0  0  0  0  0  # atno 8008 bound_to 7997
  155.9903  140.1192  157.0667 H   0  0  0  0  0  0  0  0  0  0  0  0  # atno 8009 bound_to 7997
  154.4217  140.1120  156.5543 H   0  0  0  0  0  0  0  0  0  0  0  0  # atno 8010 bound_to 7997
  139.5872  144.7011  151.3380 H   0  0  0  0  0  0  0  0  0  0  0  0  # atno 10167 bound_to 10162
  157.6563  131.0904  150.6383 H   0  0  0  0  0  0  0  0  0  0  0  0  # atno 10718 bound_to 10713
  153.1989  135.4429  155.0242 H   0  0  0  0  0  0  0  0  0  0  0  0  # atno 10763 bound_to 10752
  154.8135  135.3305  154.7243 H   0  0  0  0  0  0  0  0  0  0  0  0  # atno 10764 bound_to 10752
  153.7690  135.6986  153.4965 H   0  0  0  0  0  0  0  0  0  0  0  0  # atno 10765 bound_to 10752
  140.9319  134.1308  157.4227 H   0  0  0  0  0  0  0  0  0  0  0  0  # atno 11005 bound_to 11000
  144.6745  140.0572  143.7477 LP  0  0  0  0  0  0  0  0  0  0  0  0  # atno 17320 bound_to 7965
  145.9646  139.2825  143.1135 LP  0  0  0  0  0  0  0  0  0  0  0  0  # atno 17321 bound_to 7965
  140.7141  143.7312  150.7622 LP  0  0  0  0  0  0  0  0  0  0  0  0  # atno 17342 bound_to 10162
  140.0859  143.4924  152.2505 LP  0  0  0  0  0  0  0  0  0  0  0  0  # atno 17343 bound_to 10162
  156.6690  130.4534  149.5663 LP  0  0  0  0  0  0  0  0  0  0  0  0  # atno 17370 bound_to 10713
  156.2012  130.6621  151.1169 LP  0  0  0  0  0  0  0  0  0  0  0  0  # atno 17371 bound_to 10713
  139.8798  135.0008  156.6029 LP  0  0  0  0  0  0  0  0  0  0  0  0  # atno 17394 bound_to 11000
  140.7851  133.8628  155.8600 LP  0  0  0  0  0  0  0  0  0  0  0  0  # atno 17395 bound_to 11000

$$$$
