AV-unprocessed.smi:1726|AV-procd|sdf|6964|dock7
  -GOLD-   22720 8173D 1   1.00000     0.00000
 Structure written by MMmdl.
 42 43  0  0  0  0  0  0  0  0  3 V2000
  147.1597  139.2255  152.2017 C   0  0  0  0  0  0  0  0  0  0  0  0
  146.9109  138.5652  153.5657 C   0  0  0  0  0  0  0  0  0  0  0  0
  148.0944  137.8202  154.0654 N   0  3  2  0  0  0  0  0  0  0  0  0
  147.7113  136.7154  154.9829 C   0  0  0  0  0  0  0  0  0  0  0  0
  148.9337  135.8733  155.3845 C   0  0  0  0  0  0  0  0  0  0  0  0
  150.0235  136.7498  156.0144 C   0  0  0  0  0  0  0  0  0  0  0  0
  150.3886  137.8972  155.0604 C   0  0  2  0  0  0  0  0  0  0  0  0
  151.3845  138.7643  155.6828 N   0  0  0  0  0  0  0  0  0  0  0  0
  151.1882  139.4892  156.7936 C   0  0  0  0  0  0  0  0  0  0  0  0
  150.1245  139.4925  157.4135 O   0  0  0  0  0  0  0  0  0  0  0  0
  152.3010  140.1669  157.1272 N   0  0  0  0  0  0  0  0  0  0  0  0
  152.5169  141.0495  158.1991 C   0  0  0  0  0  0  0  0  0  0  0  0
  152.0059  142.3091  158.2827 C   0  0  0  0  0  0  0  0  0  0  0  0
  152.2747  143.1860  159.4154 C   0  0  0  0  0  0  0  0  0  0  0  0
  151.7828  144.6196  159.5079 C   0  0  0  0  0  0  0  0  0  0  0  0
  150.4504  144.6687  159.5228 F   0  0  0  0  0  0  0  0  0  0  0  0
  152.2377  145.2116  160.6122 F   0  0  0  0  0  0  0  0  0  0  0  0
  152.2120  145.3152  158.4561 F   0  0  0  0  0  0  0  0  0  0  0  0
  153.1154  142.6019  160.3428 C   0  0  0  0  0  0  0  0  0  0  0  0
  153.6579  141.3645  160.3387 N   0  5  0  0  0  0  0  0  0  0  0  0
  153.3908  140.5487  159.2801 C   0  0  0  0  0  0  0  0  0  0  0  0
  153.8581  139.4114  159.2082 O   0  0  0  0  0  0  0  0  0  0  0  0
  149.1279  138.6999  154.6737 C   0  0  0  0  0  0  0  0  0  0  0  0
  146.2398  139.6675  151.8182 H   0  0  0  0  0  0  0  0  0  0  0  0
  147.5053  138.4965  151.4679 H   0  0  0  0  0  0  0  0  0  0  0  0
  147.8990  140.0238  152.2593 H   0  0  0  0  0  0  0  0  0  0  0  0
  146.5959  139.3067  154.3014 H   0  0  0  0  0  0  0  0  0  0  0  0
  146.0764  137.8724  153.4496 H   0  0  0  0  0  0  0  0  0  0  0  0
  147.2309  137.1293  155.8709 H   0  0  0  0  0  0  0  0  0  0  0  0
  146.9782  136.0697  154.4977 H   0  0  0  0  0  0  0  0  0  0  0  0
  148.6345  135.0917  156.0834 H   0  0  0  0  0  0  0  0  0  0  0  0
  149.3338  135.3656  154.5057 H   0  0  0  0  0  0  0  0  0  0  0  0
  149.6676  137.1506  156.9648 H   0  0  0  0  0  0  0  0  0  0  0  0
  150.9041  136.1464  156.2386 H   0  0  0  0  0  0  0  0  0  0  0  0
  150.8210  137.4619  154.1570 H   0  0  0  0  0  0  0  0  0  0  0  0
  152.2892  138.8160  155.2372 H   0  0  0  0  0  0  0  0  0  0  0  0
  153.1190  139.9999  156.5591 H   0  0  0  0  0  0  0  0  0  0  0  0
  151.3908  142.7094  157.4938 H   0  0  0  0  0  0  0  0  0  0  0  0
  153.3970  143.2243  161.2189 H   0  0  0  0  0  0  0  0  0  0  0  0
  149.4058  139.4841  153.9703 H   0  0  0  0  0  0  0  0  0  0  0  0
  148.7113  139.1976  155.5511 H   0  0  0  0  0  0  0  0  0  0  0  0
  148.5188  137.3834  153.2595 H   0  0  0  0  0  0  0  0  0  0  0  0
  1  2  1  0  0  0  0
  1 24  1  0  0  0  0
  1 25  1  0  0  0  0
  1 26  1  0  0  0  0
  2  3  1  0  0  0  0
  2 27  1  0  0  0  0
  2 28  1  0  0  0  0
  3 23  1  0  0  0  0
  3  4  1  0  0  0  0
  3 42  1  0  0  0  0
  4  5  1  0  0  0  0
  4 29  1  0  0  0  0
  4 30  1  0  0  0  0
  5  6  1  0  0  0  0
  5 31  1  0  0  0  0
  5 32  1  0  0  0  0
  6  7  1  0  0  0  0
  6 33  1  0  0  0  0
  6 34  1  0  0  0  0
  7  8  1  0  0  0  0
  7 23  1  0  0  0  0
  7 35  1  0  0  0  0
  8  9  1  0  0  0  0
  8 36  1  0  0  0  0
  9 10  2  0  0  0  0
  9 11  1  0  0  0  0
 11 12  1  0  0  0  0
 11 37  1  0  0  0  0
 12 21  1  0  0  0  0
 12 13  2  0  0  0  0
 13 14  1  0  0  0  0
 13 38  1  0  0  0  0
 14 15  1  0  0  0  0
 14 19  2  0  0  0  0
 15 16  1  0  0  0  0
 15 17  1  0  0  0  0
 15 18  1  0  0  0  0
 19 20  1  0  0  0  0
 19 39  1  0  0  0  0
 20 21  1  0  0  0  0
 21 22  2  0  0  0  0
 23 40  1  0  0  0  0
 23 41  1  0  0  0  0
M  CHG  1   3   1
M  CHG  1  20  -1
M  END
> <s_m_source_file>
AV-unprocessed.smi

> <i_m_source_file_index>
1726

> <i_lp_mmshare_version>
43012

> <i_f3d_flags>
0

> <s_epik_input>
W0NIM11bQ0gyXU4xW0NIMl1bQ0gyXVtDSDJdW0NASF0oW0NIMl0xKVtOSF1DKD1PKVtOSF1jMltjSF1jKEMoRikoRilGKVtjSF1bbkhdYzI9Tw==

> <s_epik_cmdline>
J2VwaWtfcHl0aG9uJywgJy1waCcsICc3LjAnLCAnLXRuJywgJzgnLCAnLW1hJywgJzIwMCcsICctbWV0YWxfYmluZGluZycsICctaW1hZScsICc8aW5maWxlLm1hZT4nLCAnLW9tYWUnLCAnPG91dGZpbGUubWFlPic=

> <r_lp_tautomer_probability>
1

> <r_epik_Ionization_Penalty>
3.01007

> <r_epik_Ionization_Penalty_Charging>
0.14897

> <r_epik_Ionization_Penalty_Neutral>
2.8611

> <r_epik_State_Penalty>
2.85632

> <r_epik_Charging_Adjusted_Penalty>
3.00529

> <i_epik_Tot_Q>
0

> <i_epik_Tot_abs_Q>
2

> <r_epik_Metal_State_Penalty>
0.443826

> <b_epik_Metal_Only>
1

> <s_lp_Force_Field>
OPLS_2005

> <r_lp_Energy>
27.5552

> <b_lp_Chiralities_Consistent>
1

> <s_lp_Variant>
AV-unprocessed.smi:1726-8

> <Gold.Version>
5.8.1

> <Gold.Id.Protein>
6NUR|6NUR_protein|mol2

> <Gold.PLP.Fitness>
45.6624

> <Gold.PLP.PLP>
-38.6541

> <Gold.PLP.part.hbond>
-2.0000

> <Gold.PLP.part.metal>
0.0000

> <Gold.PLP.part.buried>
-5.3097

> <Gold.PLP.part.nonpolar>
-30.1329

> <Gold.PLP.part.repulsive>
0.2596

> <Gold.PLP.ligand.clash>
0.0000

> <Gold.PLP.ligand.torsion>
0.9528

> <Gold.PLP.Chemscore.Hbond>
2.9500

> <Gold.PLP.Chemscore.CHOScore>
0.0000

> <Gold.PLP.Chemscore.Metal>
0.0000

> <Gold.Chemscore.Hbonds>
donor molecule, donor type, donor heavy atom, donor atom, acceptor molecule, acceptor atom, score
      L1  H     3    42       P1  7948  2.00
      P1  H  7997  8009       L1    22  0.14

> <Gold.PLP.Chemscore.Internal.Correction>
0.0638

> <Gold.Rescore>
     Score         DG    S(hbond)    S(metal)    S(lipo)     H(rot)  DE(clash)    DE(int)     intcor
     15.15     -17.32       1.80        0.00      77.78       1.28       0.39       1.78       ----

> <Gold.Chemscore.Fitness>
15.1523

> <Gold.Chemscore.DG>
-17.3223

> <Gold.Chemscore.ZeroCoef>
-5.4800

> <Gold.Chemscore.Hbond>
1.8017

> <Gold.Chemscore.Metal>
0.0000

> <Gold.Chemscore.Lipo>
77.7835

> <Gold.Chemscore.Internal_Hbond>
0.0000

> <Gold.Chemscore.DEClash>
0.3910

> <Gold.Chemscore.DEInternal>
1.7790

> <Gold.Chemscore.Rot>
1.2796

> <Gold.Chemscore.Internal.Correction>
   9.000000E+99

> <Gold.Chemscore.Hbonds>
donor molecule, donor type, donor heavy atom, donor atom, acceptor molecule, acceptor atom, score
      L1  H     3    42       P1  7948  1.00
      P1  H  7997  8009       L1    22  0.01

> <Gold.Chemscore.Hbond.Weighted>
-6.0175

> <Gold.Chemscore.Metal.Weighted>
-0.0000

> <Gold.Chemscore.Lipo.Weighted>
-9.1007

> <Gold.Chemscore.Internal_Hbond.Weighted>
0.0000

> <Gold.Chemscore.DEClash.Weighted>
0.3910

> <Gold.Chemscore.DEInternal.Weighted>
1.7790

> <Gold.Chemscore.Rot.Weighted>
3.2759

> <Gold.Chemscore.Internal.Correction.Weighted>
   9.000000E+99

> <Gold.Protein.RotatedTorsions>
[ 6907 6896 6895 6894 ] final  -60.05 input  -60.11 | X-H torsion
[ 7974 7965 7964 7962 ] final -176.36 input  175.53 | X-H torsion
[ 8008 7997 7996 7995 ] final  121.05 input   59.86 | X-H torsion
[ 10167 10162 10161 10158 ] final    1.96 input  -65.29 | X-H torsion
[ 10718 10713 10712 10709 ] final    5.65 input   66.30 | X-H torsion
[ 10763 10752 10751 10750 ] final -119.65 input  -60.55 | X-H torsion
[ 11005 11000 10999 10996 ] final  170.20 input  -57.11 | X-H torsion

> <Gold.Protein.ActiveResidues>
 VAL166  LYS551  ARG553  GLY616  TRP617  ASP618  TYR619  PRO620  LYS621  CYS622 
 ASP623  PHE694  ASN695  SER759  ASP760  ASP761  ALA762  ILE779  LEU786  VAL792 
 PHE793  MET794  SER795  GLU796  ALA797  LYS798  CYS799  TRP800  GLU811  SER814 

> <Gold.Protein.RotatedAtoms>
  150.7885  134.6889  159.6485 H   0  0  0  0  0  0  0  0  0  0  0  0  # atno 6907 bound_to 6896
  152.3986  134.6321  160.0088 H   0  0  0  0  0  0  0  0  0  0  0  0  # atno 6908 bound_to 6896
  151.6599  133.3280  159.3208 H   0  0  0  0  0  0  0  0  0  0  0  0  # atno 6909 bound_to 6896
  144.7127  140.1181  143.6407 H   0  0  0  0  0  0  0  0  0  0  0  0  # atno 7974 bound_to 7965
  156.2669  140.2817  156.1246 H   0  0  0  0  0  0  0  0  0  0  0  0  # atno 8008 bound_to 7997
  155.1118  140.0391  157.2744 H   0  0  0  0  0  0  0  0  0  0  0  0  # atno 8009 bound_to 7997
  154.6736  140.2593  155.6987 H   0  0  0  0  0  0  0  0  0  0  0  0  # atno 8010 bound_to 7997
  140.6658  143.7184  150.7824 H   0  0  0  0  0  0  0  0  0  0  0  0  # atno 10167 bound_to 10162
  156.9106  130.5755  149.5647 H   0  0  0  0  0  0  0  0  0  0  0  0  # atno 10718 bound_to 10713
  154.8623  135.4231  154.2332 H   0  0  0  0  0  0  0  0  0  0  0  0  # atno 10763 bound_to 10752
  153.3313  135.6988  153.6951 H   0  0  0  0  0  0  0  0  0  0  0  0  # atno 10764 bound_to 10752
  153.5967  135.3544  155.2904 H   0  0  0  0  0  0  0  0  0  0  0  0  # atno 10765 bound_to 10752
  140.3058  134.7557  157.3952 H   0  0  0  0  0  0  0  0  0  0  0  0  # atno 11005 bound_to 11000
  145.9395  139.2659  143.1277 LP  0  0  0  0  0  0  0  0  0  0  0  0  # atno 17320 bound_to 7965
  145.9439  140.8959  143.0294 LP  0  0  0  0  0  0  0  0  0  0  0  0  # atno 17321 bound_to 7965
  140.0861  143.4922  152.2504 LP  0  0  0  0  0  0  0  0  0  0  0  0  # atno 17342 bound_to 10162
  139.5906  144.7548  151.3410 LP  0  0  0  0  0  0  0  0  0  0  0  0  # atno 17343 bound_to 10162
  156.0538  130.5603  150.9047 LP  0  0  0  0  0  0  0  0  0  0  0  0  # atno 17370 bound_to 10713
  157.5970  131.0942  150.9025 LP  0  0  0  0  0  0  0  0  0  0  0  0  # atno 17371 bound_to 10713
  140.1068  134.5398  155.8302 LP  0  0  0  0  0  0  0  0  0  0  0  0  # atno 17394 bound_to 11000
  141.2118  133.6712  156.6615 LP  0  0  0  0  0  0  0  0  0  0  0  0  # atno 17395 bound_to 11000

$$$$
