AV-unprocessed.smi:492|AV-procd|sdf|2709|dock4
  -GOLD-   2262023153D 1   1.00000     0.00000
 Structure written by MMmdl.
 46 48  0  0  0  0  0  0  0  0  1 V2000
  142.4818  145.0274  154.7215 C   0  0  0  0  0  0  0  0  0  0  0  0
  143.0879  144.1426  155.6527 O   0  0  0  0  0  0  0  0  0  0  0  0
  144.2781  143.5440  155.2985 C   0  0  0  0  0  0  0  0  0  0  0  0
  144.9416  143.7591  154.0644 C   0  0  0  0  0  0  0  0  0  0  0  0
  146.1574  143.1053  153.7841 C   0  0  0  0  0  0  0  0  0  0  0  0
  146.7329  142.2330  154.7295 C   0  0  0  0  0  0  0  0  0  0  0  0
  148.0344  141.5210  154.4098 C   0  0  0  0  0  0  0  0  0  0  0  0
  148.9658  141.6087  155.4754 O   0  0  0  0  0  0  0  0  0  0  0  0
  149.5251  140.3548  155.8324 C   0  0  0  0  0  0  0  0  0  0  0  0
  150.1546  140.4464  157.2313 C   0  0  1  0  0  0  0  0  0  0  0  0
  150.1559  139.1597  157.8170 O   0  0  0  0  0  0  0  0  0  0  0  0
  151.5608  141.0827  157.2335 C   0  0  0  0  0  0  0  0  0  0  0  0
  151.9404  141.6099  158.5368 N   0  0  0  0  0  0  0  0  0  0  0  0
  152.5426  140.9573  159.5614 C   0  0  0  0  0  0  0  0  0  0  0  0
  152.9118  139.5106  159.4700 C   0  0  0  0  0  0  0  0  0  0  0  0
  152.7815  141.6841  160.6534 N   0  0  0  0  0  0  0  0  0  0  0  0
  152.2846  142.9255  160.3056 C   0  0  0  0  0  0  0  0  0  0  0  0
  152.2379  144.1339  161.0369 C   0  0  0  0  0  0  0  0  0  0  0  0
  151.6718  145.2927  160.4655 C   0  0  0  0  0  0  0  0  0  0  0  0
  151.1461  145.2603  159.1575 C   0  0  0  0  0  0  0  0  0  0  0  0
  151.1831  144.0667  158.4115 C   0  0  0  0  0  0  0  0  0  0  0  0
  151.7488  142.9128  158.9865 C   0  0  0  0  0  0  0  0  0  0  0  0
  146.0717  142.0080  155.9547 C   0  0  0  0  0  0  0  0  0  0  0  0
  144.8571  142.6629  156.2347 C   0  0  0  0  0  0  0  0  0  0  0  0
  141.5575  145.4186  155.1461 H   0  0  0  0  0  0  0  0  0  0  0  0
  142.2272  144.5149  153.7929 H   0  0  0  0  0  0  0  0  0  0  0  0
  143.1279  145.8779  154.4997 H   0  0  0  0  0  0  0  0  0  0  0  0
  144.5380  144.4216  153.3139 H   0  0  0  0  0  0  0  0  0  0  0  0
  146.6482  143.2786  152.8375 H   0  0  0  0  0  0  0  0  0  0  0  0
  147.8116  140.4750  154.1949 H   0  0  0  0  0  0  0  0  0  0  0  0
  148.4695  141.9551  153.5082 H   0  0  0  0  0  0  0  0  0  0  0  0
  148.7347  139.6026  155.8429 H   0  0  0  0  0  0  0  0  0  0  0  0
  150.2645  140.0359  155.0958 H   0  0  0  0  0  0  0  0  0  0  0  0
  149.4959  141.0549  157.8507 H   0  0  0  0  0  0  0  0  0  0  0  0
  149.3745  139.0708  158.3413 H   0  0  0  0  0  0  0  0  0  0  0  0
  152.3112  140.3505  156.9340 H   0  0  0  0  0  0  0  0  0  0  0  0
  151.6153  141.8842  156.4969 H   0  0  0  0  0  0  0  0  0  0  0  0
  153.3572  139.1704  160.4055 H   0  0  0  0  0  0  0  0  0  0  0  0
  153.6354  139.3527  158.6709 H   0  0  0  0  0  0  0  0  0  0  0  0
  152.0273  138.9046  159.2738 H   0  0  0  0  0  0  0  0  0  0  0  0
  152.6389  144.1686  162.0390 H   0  0  0  0  0  0  0  0  0  0  0  0
  151.6417  146.2108  161.0336 H   0  0  0  0  0  0  0  0  0  0  0  0
  150.7150  146.1521  158.7265 H   0  0  0  0  0  0  0  0  0  0  0  0
  150.7834  144.0394  157.4088 H   0  0  0  0  0  0  0  0  0  0  0  0
  146.4919  141.3335  156.6863 H   0  0  0  0  0  0  0  0  0  0  0  0
  144.3630  142.4854  157.1787 H   0  0  0  0  0  0  0  0  0  0  0  0
  1  2  1  0  0  0  0
  1 25  1  0  0  0  0
  1 26  1  0  0  0  0
  1 27  1  0  0  0  0
  2  3  1  0  0  0  0
  3 24  1  0  0  0  0
  3  4  2  0  0  0  0
  4  5  1  0  0  0  0
  4 28  1  0  0  0  0
  5  6  2  0  0  0  0
  5 29  1  0  0  0  0
  6  7  1  0  0  0  0
  6 23  1  0  0  0  0
  7  8  1  0  0  0  0
  7 30  1  0  0  0  0
  7 31  1  0  0  0  0
  8  9  1  0  0  0  0
  9 10  1  0  0  0  0
  9 32  1  0  0  0  0
  9 33  1  0  0  0  0
 10 11  1  0  0  0  0
 10 12  1  0  0  0  0
 10 34  1  0  0  0  0
 11 35  1  0  0  0  0
 12 13  1  0  0  0  0
 12 36  1  0  0  0  0
 12 37  1  0  0  0  0
 13 22  1  0  0  0  0
 13 14  1  0  0  0  0
 14 15  1  0  0  0  0
 14 16  2  0  0  0  0
 15 38  1  0  0  0  0
 15 39  1  0  0  0  0
 15 40  1  0  0  0  0
 16 17  1  0  0  0  0
 17 22  2  0  0  0  0
 17 18  1  0  0  0  0
 18 19  2  0  0  0  0
 18 41  1  0  0  0  0
 19 20  1  0  0  0  0
 19 42  1  0  0  0  0
 20 21  2  0  0  0  0
 20 43  1  0  0  0  0
 21 22  1  0  0  0  0
 21 44  1  0  0  0  0
 23 24  2  0  0  0  0
 23 45  1  0  0  0  0
 24 46  1  0  0  0  0
M  END
> <s_m_source_file>
AV-unprocessed.smi

> <i_m_source_file_index>
492

> <i_lp_mmshare_version>
43012

> <i_f3d_flags>
0

> <s_epik_input>
W0NIM11PYzFbY0hdW2NIXWMoW2NIXVtjSF0xKVtDSDJdT1tDSDJdW0NASF0oW09IXSlbQ0gyXW4oYyhuMilbQ0gzXSljKGMyMylbY0hdW2NIXVtjSF1bY0hdMw==

> <s_epik_cmdline>
J2VwaWtfcHl0aG9uJywgJy1waCcsICc3LjAnLCAnLXRuJywgJzgnLCAnLW1hJywgJzIwMCcsICctbWV0YWxfYmluZGluZycsICctaW1hZScsICc8aW5maWxlLm1hZT4nLCAnLW9tYWUnLCAnPG91dGZpbGUubWFlPic=

> <r_lp_tautomer_probability>
1

> <r_epik_Ionization_Penalty>
0.132603

> <r_epik_Ionization_Penalty_Charging>
0

> <r_epik_Ionization_Penalty_Neutral>
0.132603

> <r_epik_State_Penalty>
0.121982

> <r_epik_Charging_Adjusted_Penalty>
0.121982

> <i_epik_Tot_Q>
0

> <i_epik_Tot_abs_Q>
0

> <r_epik_Metal_State_Penalty>
0.000135431

> <b_epik_Metal_Only>
0

> <s_lp_Force_Field>
OPLS_2005

> <r_lp_Energy>
18.9568

> <b_lp_Chiralities_Consistent>
1

> <s_lp_Variant>
AV-unprocessed.smi:492-2

> <Gold.Version>
5.8.1

> <Gold.Id.Protein>
6NUR|6NUR_protein|mol2

> <Gold.PLP.Fitness>
47.9676

> <Gold.PLP.PLP>
-50.4043

> <Gold.PLP.part.hbond>
0.0000

> <Gold.PLP.part.metal>
0.0000

> <Gold.PLP.part.buried>
-9.2759

> <Gold.PLP.part.nonpolar>
-41.3878

> <Gold.PLP.part.repulsive>
0.4124

> <Gold.PLP.ligand.clash>
0.0000

> <Gold.PLP.ligand.torsion>
1.3508

> <Gold.PLP.Chemscore.Hbond>
0.0000

> <Gold.PLP.Chemscore.CHOScore>
0.0000

> <Gold.PLP.Chemscore.Metal>
0.0000

> <Gold.PLP.Chemscore.Internal.Correction>
0.2648

> <Gold.Rescore>
     Score         DG    S(hbond)    S(metal)    S(lipo)     H(rot)  DE(clash)    DE(int)     intcor
     13.53     -14.97       0.00        0.00     133.57       2.40       0.18       1.26       ----

> <Gold.Chemscore.Fitness>
13.5260

> <Gold.Chemscore.DG>
-14.9655

> <Gold.Chemscore.ZeroCoef>
-5.4800

> <Gold.Chemscore.Hbond>
0.0000

> <Gold.Chemscore.Metal>
0.0000

> <Gold.Chemscore.Lipo>
133.5663

> <Gold.Chemscore.Internal_Hbond>
0.0000

> <Gold.Chemscore.DEClash>
0.1798

> <Gold.Chemscore.DEInternal>
1.2597

> <Gold.Chemscore.Rot>
2.3991

> <Gold.Chemscore.Internal.Correction>
   9.000000E+99

> <Gold.Chemscore.Hbond.Weighted>
-0.0000

> <Gold.Chemscore.Metal.Weighted>
-0.0000

> <Gold.Chemscore.Lipo.Weighted>
-15.6273

> <Gold.Chemscore.Internal_Hbond.Weighted>
0.0000

> <Gold.Chemscore.DEClash.Weighted>
0.1798

> <Gold.Chemscore.DEInternal.Weighted>
1.2597

> <Gold.Chemscore.Rot.Weighted>
6.1417

> <Gold.Chemscore.Internal.Correction.Weighted>
   9.000000E+99

> <Gold.Protein.RotatedTorsions>
[ 6907 6896 6895 6894 ] final  -32.70 input  -60.11 | X-H torsion
[ 7974 7965 7964 7962 ] final   97.27 input  175.53 | X-H torsion
[ 8008 7997 7996 7995 ] final -179.01 input   59.86 | X-H torsion
[ 10167 10162 10161 10158 ] final   20.80 input  -65.29 | X-H torsion
[ 10718 10713 10712 10709 ] final -131.09 input   66.30 | X-H torsion
[ 10763 10752 10751 10750 ] final  -93.86 input  -60.55 | X-H torsion
[ 11005 11000 10999 10996 ] final -159.36 input  -57.11 | X-H torsion

> <Gold.Protein.ActiveResidues>
 VAL166  LYS551  ARG553  GLY616  TRP617  ASP618  TYR619  PRO620  LYS621  CYS622 
 ASP623  PHE694  ASN695  SER759  ASP760  ASP761  ALA762  ILE779  LEU786  VAL792 
 PHE793  MET794  SER795  GLU796  ALA797  LYS798  CYS799  TRP800  GLU811  SER814 

> <Gold.Protein.RotatedAtoms>
  151.0753  134.9824  159.8328 H   0  0  0  0  0  0  0  0  0  0  0  0  # atno 6907 bound_to 6896
  152.5413  134.2249  159.8812 H   0  0  0  0  0  0  0  0  0  0  0  0  # atno 6908 bound_to 6896
  151.2276  133.4424  159.2636 H   0  0  0  0  0  0  0  0  0  0  0  0  # atno 6909 bound_to 6896
  145.4277  139.2314  143.3161 H   0  0  0  0  0  0  0  0  0  0  0  0  # atno 7974 bound_to 7965
  156.0255  140.1270  157.0313 H   0  0  0  0  0  0  0  0  0  0  0  0  # atno 8008 bound_to 7997
  154.4328  140.1060  156.6095 H   0  0  0  0  0  0  0  0  0  0  0  0  # atno 8009 bound_to 7997
  155.5883  140.3469  155.4561 H   0  0  0  0  0  0  0  0  0  0  0  0  # atno 8010 bound_to 7997
  140.5476  143.9567  150.6557 H   0  0  0  0  0  0  0  0  0  0  0  0  # atno 10167 bound_to 10162
  156.2210  130.6978  151.0755 H   0  0  0  0  0  0  0  0  0  0  0  0  # atno 10718 bound_to 10713
  154.6999  135.5179  153.8512 H   0  0  0  0  0  0  0  0  0  0  0  0  # atno 10763 bound_to 10752
  153.0696  135.6596  154.0286 H   0  0  0  0  0  0  0  0  0  0  0  0  # atno 10764 bound_to 10752
  154.0147  135.2999  155.3368 H   0  0  0  0  0  0  0  0  0  0  0  0  # atno 10765 bound_to 10752
  140.6434  134.4527  157.5234 H   0  0  0  0  0  0  0  0  0  0  0  0  # atno 11005 bound_to 11000
  146.2623  140.5010  142.8848 LP  0  0  0  0  0  0  0  0  0  0  0  0  # atno 17320 bound_to 7965
  144.8203  140.6539  143.6357 LP  0  0  0  0  0  0  0  0  0  0  0  0  # atno 17321 bound_to 7965
  140.2984  143.3277  152.0995 LP  0  0  0  0  0  0  0  0  0  0  0  0  # atno 17342 bound_to 10162
  139.5014  144.6712  151.6238 LP  0  0  0  0  0  0  0  0  0  0  0  0  # atno 17343 bound_to 10162
  157.7087  131.0744  150.6577 LP  0  0  0  0  0  0  0  0  0  0  0  0  # atno 17370 bound_to 10713
  156.6640  130.4520  149.5678 LP  0  0  0  0  0  0  0  0  0  0  0  0  # atno 17371 bound_to 10713
  139.9072  134.8424  156.1663 LP  0  0  0  0  0  0  0  0  0  0  0  0  # atno 17394 bound_to 11000
  141.0590  133.6851  156.1915 LP  0  0  0  0  0  0  0  0  0  0  0  0  # atno 17395 bound_to 11000

$$$$
