AV-unprocessed.smi:1554|AV-procd|sdf|6263|dock1
  -GOLD-   22720 6453D 1   1.00000     0.00000
 Structure written by MMmdl.
 49 51  0  0  0  0  0  0  0  0  3 V2000
  152.1667  144.5016  160.3940 C   0  0  0  0  0  0  0  0  0  0  0  0
  151.8895  143.3960  159.3893 C   0  0  0  0  0  0  0  0  0  0  0  0
  151.0613  143.6840  158.2809 C   0  0  0  0  0  0  0  0  0  0  0  0
  150.8297  142.6533  157.3776 C   0  0  0  0  0  0  0  0  0  0  0  0
  150.0741  142.6172  156.2035 N   0  3  0  0  0  0  0  0  0  0  0  0
  150.1502  141.3742  155.6521 C   0  0  0  0  0  0  0  0  0  0  0  0
  150.9411  140.6155  156.4591 N   0  0  0  0  0  0  0  0  0  0  0  0
  151.3484  139.2097  156.3308 C   0  0  0  0  0  0  0  0  0  0  0  0
  150.5914  138.4645  155.2132 C   0  0  1  0  0  0  0  0  0  0  0  0
  151.0292  138.9553  153.9596 O   0  0  0  0  0  0  0  0  0  0  0  0
  150.8419  136.9436  155.2795 C   0  0  0  0  0  0  0  0  0  0  0  0
  149.7197  136.1376  154.7325 N   0  3  2  0  0  0  0  0  0  0  0  0
  148.4230  136.3772  155.4136 C   0  0  0  0  0  0  0  0  0  0  0  0
  147.3131  135.5312  154.7682 C   0  0  0  0  0  0  0  0  0  0  0  0
  147.6752  134.1568  154.8091 O   0  0  0  0  0  0  0  0  0  0  0  0
  148.8687  133.8918  154.0805 C   0  0  2  0  0  0  0  0  0  0  0  0
  149.1205  132.3800  154.1082 C   0  0  0  0  0  0  0  0  0  0  0  0
  150.0289  134.6875  154.7100 C   0  0  0  0  0  0  0  0  0  0  0  0
  151.3884  141.3717  157.5475 C   0  0  0  0  0  0  0  0  0  0  0  0
  152.2043  141.0698  158.6350 C   0  0  0  0  0  0  0  0  0  0  0  0
  152.4531  142.1054  159.5642 C   0  0  0  0  0  0  0  0  0  0  0  0
  153.3437  141.8088  160.7589 C   0  0  0  0  0  0  0  0  0  0  0  0
  151.6527  145.4248  160.1245 H   0  0  0  0  0  0  0  0  0  0  0  0
  153.2347  144.7165  160.4412 H   0  0  0  0  0  0  0  0  0  0  0  0
  151.8273  144.2100  161.3880 H   0  0  0  0  0  0  0  0  0  0  0  0
  150.6287  144.6640  158.1413 H   0  0  0  0  0  0  0  0  0  0  0  0
  149.6675  141.0485  154.7418 H   0  0  0  0  0  0  0  0  0  0  0  0
  152.4217  139.1983  156.1350 H   0  0  0  0  0  0  0  0  0  0  0  0
  151.2059  138.7201  157.2951 H   0  0  0  0  0  0  0  0  0  0  0  0
  149.5290  138.6828  155.3122 H   0  0  0  0  0  0  0  0  0  0  0  0
  151.7678  138.4424  153.6698 H   0  0  0  0  0  0  0  0  0  0  0  0
  151.7545  136.7202  154.7240 H   0  0  0  0  0  0  0  0  0  0  0  0
  151.0317  136.6346  156.3087 H   0  0  0  0  0  0  0  0  0  0  0  0
  148.5128  136.1253  156.4716 H   0  0  0  0  0  0  0  0  0  0  0  0
  148.1460  137.4292  155.3584 H   0  0  0  0  0  0  0  0  0  0  0  0
  146.3759  135.6657  155.3086 H   0  0  0  0  0  0  0  0  0  0  0  0
  147.1333  135.8432  153.7380 H   0  0  0  0  0  0  0  0  0  0  0  0
  148.7314  134.2010  153.0426 H   0  0  0  0  0  0  0  0  0  0  0  0
  150.0233  132.1216  153.5541 H   0  0  0  0  0  0  0  0  0  0  0  0
  148.2885  131.8384  153.6574 H   0  0  0  0  0  0  0  0  0  0  0  0
  149.2386  132.0174  155.1298 H   0  0  0  0  0  0  0  0  0  0  0  0
  150.9418  134.5160  154.1378 H   0  0  0  0  0  0  0  0  0  0  0  0
  150.2178  134.3401  155.7274 H   0  0  0  0  0  0  0  0  0  0  0  0
  152.6342  140.0881  158.7672 H   0  0  0  0  0  0  0  0  0  0  0  0
  153.6951  140.7765  160.7493 H   0  0  0  0  0  0  0  0  0  0  0  0
  152.8008  141.9671  161.6911 H   0  0  0  0  0  0  0  0  0  0  0  0
  154.2193  142.4585  160.7532 H   0  0  0  0  0  0  0  0  0  0  0  0
  149.6065  136.4141  153.7678 H   0  0  0  0  0  0  0  0  0  0  0  0
  149.5459  143.3828  155.8044 H   0  0  0  0  0  0  0  0  0  0  0  0
  1  2  1  0  0  0  0
  1 23  1  0  0  0  0
  1 24  1  0  0  0  0
  1 25  1  0  0  0  0
  2 21  1  0  0  0  0
  2  3  2  0  0  0  0
  3  4  1  0  0  0  0
  3 26  1  0  0  0  0
  4 19  2  0  0  0  0
  4  5  1  0  0  0  0
  5  6  2  0  0  0  0
  5 49  1  0  0  0  0
  6  7  1  0  0  0  0
  6 27  1  0  0  0  0
  7  8  1  0  0  0  0
  7 19  1  0  0  0  0
  8  9  1  0  0  0  0
  8 28  1  0  0  0  0
  8 29  1  0  0  0  0
  9 10  1  0  0  0  0
  9 11  1  0  0  0  0
  9 30  1  0  0  0  0
 10 31  1  0  0  0  0
 11 12  1  0  0  0  0
 11 32  1  0  0  0  0
 11 33  1  0  0  0  0
 12 18  1  0  0  0  0
 12 13  1  0  0  0  0
 12 48  1  0  0  0  0
 13 14  1  0  0  0  0
 13 34  1  0  0  0  0
 13 35  1  0  0  0  0
 14 15  1  0  0  0  0
 14 36  1  0  0  0  0
 14 37  1  0  0  0  0
 15 16  1  0  0  0  0
 16 17  1  0  0  0  0
 16 18  1  0  0  0  0
 16 38  1  0  0  0  0
 17 39  1  0  0  0  0
 17 40  1  0  0  0  0
 17 41  1  0  0  0  0
 18 42  1  0  0  0  0
 18 43  1  0  0  0  0
 19 20  1  0  0  0  0
 20 21  2  0  0  0  0
 20 44  1  0  0  0  0
 21 22  1  0  0  0  0
 22 45  1  0  0  0  0
 22 46  1  0  0  0  0
 22 47  1  0  0  0  0
M  CHG  1   5   1
M  CHG  1  12   1
M  END
> <s_m_source_file>
AV-unprocessed.smi

> <i_m_source_file_index>
1554

> <i_lp_mmshare_version>
43012

> <i_f3d_flags>
0

> <s_epik_input>
W0NIM11jKFtjSF0xKWMoW0NIM10pW2NIXWMoYzEyKW4oW2NIXW4yKVtDSDJdW0NASF0oW09IXSlbQ0gyXU4zW0NIMl1bQ0gyXU9bQ0BASF0oW0NIM10pW0NIMl0z

> <s_epik_cmdline>
J2VwaWtfcHl0aG9uJywgJy1waCcsICc3LjAnLCAnLXRuJywgJzgnLCAnLW1hJywgJzIwMCcsICctbWV0YWxfYmluZGluZycsICctaW1hZScsICc8aW5maWxlLm1hZT4nLCAnLW9tYWUnLCAnPG91dGZpbGUubWFlPic=

> <r_epik_Ionization_Penalty>
1.8848

> <r_epik_Ionization_Penalty_Charging>
1.88479

> <r_epik_Ionization_Penalty_Neutral>
1.42224e-05

> <r_epik_State_Penalty>
1.94551

> <r_epik_Charging_Adjusted_Penalty>
3.8303

> <i_epik_Tot_Q>
2

> <i_epik_Tot_abs_Q>
2

> <r_epik_Metal_State_Penalty>
5.95849

> <b_epik_Metal_Only>
0

> <s_lp_Force_Field>
OPLS_2005

> <r_lp_Energy>
30.4692

> <b_lp_Chiralities_Consistent>
1

> <s_lp_Variant>
AV-unprocessed.smi:1554-24

> <Gold.Version>
5.8.1

> <Gold.Id.Protein>
6NUR|6NUR_protein|mol2

> <Gold.PLP.Fitness>
57.8438

> <Gold.PLP.PLP>
-43.6953

> <Gold.PLP.part.hbond>
-2.9324

> <Gold.PLP.part.metal>
0.0000

> <Gold.PLP.part.buried>
-2.8548

> <Gold.PLP.part.nonpolar>
-38.5848

> <Gold.PLP.part.repulsive>
0.2308

> <Gold.PLP.ligand.clash>
0.0000

> <Gold.PLP.ligand.torsion>
0.4777

> <Gold.PLP.Chemscore.Hbond>
5.0000

> <Gold.PLP.Chemscore.CHOScore>
0.0000

> <Gold.PLP.Chemscore.Metal>
0.0000

> <Gold.Chemscore.Hbonds>
donor molecule, donor type, donor heavy atom, donor atom, acceptor molecule, acceptor atom, score
      L1  H     5    49       P1  8028  1.82
      L1  H    12    48       P1  7948  2.00
      P1  H  7989  7998       L1    10  0.98

> <Gold.PLP.Chemscore.Internal.Correction>
0.1039

> <Gold.Rescore>
     Score         DG    S(hbond)    S(metal)    S(lipo)     H(rot)  DE(clash)    DE(int)     intcor
     19.90     -22.15       2.57        0.00     115.48       2.11       1.68       0.57       ----

> <Gold.Chemscore.Fitness>
19.9024

> <Gold.Chemscore.DG>
-22.1549

> <Gold.Chemscore.ZeroCoef>
-5.4800

> <Gold.Chemscore.Hbond>
2.5662

> <Gold.Chemscore.Metal>
0.0000

> <Gold.Chemscore.Lipo>
115.4780

> <Gold.Chemscore.Internal_Hbond>
0.0000

> <Gold.Chemscore.DEClash>
1.6791

> <Gold.Chemscore.DEInternal>
0.5734

> <Gold.Chemscore.Rot>
2.1122

> <Gold.Chemscore.Internal.Correction>
   9.000000E+99

> <Gold.Chemscore.Hbonds>
donor molecule, donor type, donor heavy atom, donor atom, acceptor molecule, acceptor atom, score
      L1  H     5    49       P1  8028  0.88
      L1  H    12    48       P1  7948  0.58
      P1  H  7989  7998       L1    10  0.26

> <Gold.Chemscore.Hbond.Weighted>
-8.5712

> <Gold.Chemscore.Metal.Weighted>
-0.0000

> <Gold.Chemscore.Lipo.Weighted>
-13.5109

> <Gold.Chemscore.Internal_Hbond.Weighted>
0.0000

> <Gold.Chemscore.DEClash.Weighted>
1.6791

> <Gold.Chemscore.DEInternal.Weighted>
0.5734

> <Gold.Chemscore.Rot.Weighted>
5.4073

> <Gold.Chemscore.Internal.Correction.Weighted>
   9.000000E+99

> <Gold.Protein.RotatedTorsions>
[ 6907 6896 6895 6894 ] final  -82.66 input  -60.11 | X-H torsion
[ 7974 7965 7964 7962 ] final   -6.36 input  175.53 | X-H torsion
[ 8008 7997 7996 7995 ] final  -53.69 input   59.86 | X-H torsion
[ 10167 10162 10161 10158 ] final -130.62 input  -65.29 | X-H torsion
[ 10718 10713 10712 10709 ] final  -21.07 input   66.30 | X-H torsion
[ 10763 10752 10751 10750 ] final  -74.14 input  -60.55 | X-H torsion
[ 11005 11000 10999 10996 ] final -147.08 input  -57.11 | X-H torsion

> <Gold.Protein.ActiveResidues>
 VAL166  LYS551  ARG553  GLY616  TRP617  ASP618  TYR619  PRO620  LYS621  CYS622 
 ASP623  PHE694  ASN695  SER759  ASP760  ASP761  ALA762  ILE779  LEU786  VAL792 
 PHE793  MET794  SER795  GLU796  ALA797  LYS798  CYS799  TRP800  GLU811  SER814 

> <Gold.Protein.RotatedAtoms>
  150.6894  134.3630  159.4958 H   0  0  0  0  0  0  0  0  0  0  0  0  # atno 6907 bound_to 6896
  152.1456  134.9025  160.0560 H   0  0  0  0  0  0  0  0  0  0  0  0  # atno 6908 bound_to 6896
  152.0142  133.3838  159.4269 H   0  0  0  0  0  0  0  0  0  0  0  0  # atno 6909 bound_to 6896
  146.2332  140.2159  142.8336 H   0  0  0  0  0  0  0  0  0  0  0  0  # atno 7974 bound_to 7965
  154.4140  140.1194  156.5195 H   0  0  0  0  0  0  0  0  0  0  0  0  # atno 8008 bound_to 7997
  155.6717  140.3496  155.4802 H   0  0  0  0  0  0  0  0  0  0  0  0  # atno 8009 bound_to 7997
  155.9627  140.1126  157.0872 H   0  0  0  0  0  0  0  0  0  0  0  0  # atno 8010 bound_to 7997
  139.9274  143.6311  152.2538 H   0  0  0  0  0  0  0  0  0  0  0  0  # atno 10167 bound_to 10162
  156.5232  130.4637  149.6586 H   0  0  0  0  0  0  0  0  0  0  0  0  # atno 10718 bound_to 10713
  154.4691  135.5874  153.6309 H   0  0  0  0  0  0  0  0  0  0  0  0  # atno 10763 bound_to 10752
  152.9832  135.6062  154.3390 H   0  0  0  0  0  0  0  0  0  0  0  0  # atno 10764 bound_to 10752
  154.3269  135.2843  155.2470 H   0  0  0  0  0  0  0  0  0  0  0  0  # atno 10765 bound_to 10752
  140.7753  134.3141  157.5062 H   0  0  0  0  0  0  0  0  0  0  0  0  # atno 11005 bound_to 11000
  144.9670  140.8332  143.5478 LP  0  0  0  0  0  0  0  0  0  0  0  0  # atno 17320 bound_to 7965
  145.2136  139.2193  143.5130 LP  0  0  0  0  0  0  0  0  0  0  0  0  # atno 17321 bound_to 7965
  139.6810  144.7655  151.1608 LP  0  0  0  0  0  0  0  0  0  0  0  0  # atno 17342 bound_to 10162
  140.7646  143.5724  150.8981 LP  0  0  0  0  0  0  0  0  0  0  0  0  # atno 17343 bound_to 10162
  156.3130  130.7239  151.2136 LP  0  0  0  0  0  0  0  0  0  0  0  0  # atno 17370 bound_to 10713
  157.7433  131.0476  150.4953 LP  0  0  0  0  0  0  0  0  0  0  0  0  # atno 17371 bound_to 10713
  139.8750  134.9286  156.3454 LP  0  0  0  0  0  0  0  0  0  0  0  0  # atno 17394 bound_to 11000
  140.9534  133.7436  156.0303 LP  0  0  0  0  0  0  0  0  0  0  0  0  # atno 17395 bound_to 11000

$$$$
