AV-unprocessed.smi:221|AV-procd|sdf|1691|dock9
  -GOLD-   2262020133D 1   1.00000     0.00000
 Structure written by MMmdl.
 50 53  0  0  0  0  0  0  0  0  1 V2000
  142.0732  134.2879  154.3399 N   0  0  0  0  0  0  0  0  0  0  0  0
  142.3726  135.1911  153.4012 C   0  0  0  0  0  0  0  0  0  0  0  0
  143.1641  134.9417  152.4944 O   0  0  0  0  0  0  0  0  0  0  0  0
  141.6982  136.5755  153.4913 C   0  0  1  0  0  0  0  0  0  0  0  0
  140.5663  136.7051  154.5215 C   0  0  0  0  0  0  0  0  0  0  0  0
  140.4083  138.2220  154.6918 C   0  0  1  0  0  0  0  0  0  0  0  0
  140.4153  138.5447  155.9856 F   0  0  0  0  0  0  0  0  0  0  0  0
  141.6151  138.8404  153.9652 C   0  0  0  0  0  0  0  0  0  0  0  0
  142.5528  137.7493  153.7199 N   0  0  0  0  0  0  0  0  0  0  0  0
  143.5520  137.7394  154.6430 C   0  0  0  0  0  0  0  0  0  0  0  0
  143.2862  137.6596  155.9745 N   0  0  0  0  0  0  0  0  0  0  0  0
  144.2842  137.6699  156.8627 C   0  0  0  0  0  0  0  0  0  0  0  0
  145.5969  137.7609  156.6414 N   0  0  0  0  0  0  0  0  0  0  0  0
  145.8678  137.8550  155.3082 C   0  0  0  0  0  0  0  0  0  0  0  0
  144.9134  137.8534  154.2531 C   0  0  0  0  0  0  0  0  0  0  0  0
  145.5567  137.9670  153.0270 N   0  0  0  0  0  0  0  0  0  0  0  0
  146.8223  138.0351  153.3396 C   0  0  0  0  0  0  0  0  0  0  0  0
  147.0981  137.9808  154.6871 N   0  0  0  0  0  0  0  0  0  0  0  0
  148.4119  138.0405  155.3038 C   0  0  0  0  0  0  0  0  0  0  0  0
  149.4421  138.8353  154.4636 C   0  0  1  0  0  0  0  0  0  0  0  0
  149.0860  140.3380  154.3487 C   0  0  0  0  0  0  0  0  0  0  0  0
  149.6132  140.9047  153.1665 O   0  0  0  0  0  0  0  0  0  0  0  0
  150.8881  138.6085  154.9738 C   0  0  2  0  0  0  0  0  0  0  0  0
  151.9734  139.2650  154.1387 C   0  0  0  0  0  0  0  0  0  0  0  0
  153.2199  138.5044  154.5760 C   0  0  0  0  0  0  0  0  0  0  0  0
  152.7787  137.1834  154.8676 O   0  0  0  0  0  0  0  0  0  0  0  0
  151.3565  137.1494  154.9405 C   0  0  0  0  0  0  0  0  0  0  0  0
  141.2577  136.7279  152.5041 H   0  0  0  0  0  0  0  0  0  0  0  0
  139.4689  138.5858  154.2744 H   0  0  0  0  0  0  0  0  0  0  0  0
  142.4943  133.3710  154.3053 H   0  0  0  0  0  0  0  0  0  0  0  0
  141.4239  134.5234  155.0763 H   0  0  0  0  0  0  0  0  0  0  0  0
  139.6447  136.2330  154.1794 H   0  0  0  0  0  0  0  0  0  0  0  0
  140.8424  136.2395  155.4689 H   0  0  0  0  0  0  0  0  0  0  0  0
  141.3069  139.2419  152.9989 H   0  0  0  0  0  0  0  0  0  0  0  0
  142.0436  139.6728  154.5278 H   0  0  0  0  0  0  0  0  0  0  0  0
  143.9879  137.5975  157.8989 H   0  0  0  0  0  0  0  0  0  0  0  0
  147.5960  138.1321  152.5917 H   0  0  0  0  0  0  0  0  0  0  0  0
  148.3135  138.4800  156.2971 H   0  0  0  0  0  0  0  0  0  0  0  0
  148.7487  137.0147  155.4554 H   0  0  0  0  0  0  0  0  0  0  0  0
  149.3952  138.4341  153.4500 H   0  0  0  0  0  0  0  0  0  0  0  0
  148.0060  140.4828  154.3539 H   0  0  0  0  0  0  0  0  0  0  0  0
  149.4647  140.8983  155.2035 H   0  0  0  0  0  0  0  0  0  0  0  0
  149.5408  140.2704  152.4698 H   0  0  0  0  0  0  0  0  0  0  0  0
  150.9755  138.9729  155.9987 H   0  0  0  0  0  0  0  0  0  0  0  0
  151.7896  139.1022  153.0758 H   0  0  0  0  0  0  0  0  0  0  0  0
  152.0605  140.3382  154.3110 H   0  0  0  0  0  0  0  0  0  0  0  0
  153.9999  138.5068  153.8143 H   0  0  0  0  0  0  0  0  0  0  0  0
  153.6326  138.9420  155.4858 H   0  0  0  0  0  0  0  0  0  0  0  0
  151.0247  136.5859  155.8128 H   0  0  0  0  0  0  0  0  0  0  0  0
  150.9827  136.6420  154.0501 H   0  0  0  0  0  0  0  0  0  0  0  0
  1  2  1  0  0  0  0
  1 30  1  0  0  0  0
  1 31  1  0  0  0  0
  2  3  2  0  0  0  0
  2  4  1  0  0  0  0
  4 28  1  0  0  0  0
  4  9  1  0  0  0  0
  4  5  1  0  0  0  0
  5  6  1  0  0  0  0
  5 32  1  0  0  0  0
  5 33  1  0  0  0  0
  6 29  1  0  0  0  0
  6  7  1  0  0  0  0
  6  8  1  0  0  0  0
  8  9  1  0  0  0  0
  8 34  1  0  0  0  0
  8 35  1  0  0  0  0
  9 10  1  0  0  0  0
 10 15  1  0  0  0  0
 10 11  2  0  0  0  0
 11 12  1  0  0  0  0
 12 13  2  0  0  0  0
 12 36  1  0  0  0  0
 13 14  1  0  0  0  0
 14 18  1  0  0  0  0
 14 15  2  0  0  0  0
 15 16  1  0  0  0  0
 16 17  2  0  0  0  0
 17 18  1  0  0  0  0
 17 37  1  0  0  0  0
 18 19  1  0  0  0  0
 19 20  1  0  0  0  0
 19 38  1  0  0  0  0
 19 39  1  0  0  0  0
 20 21  1  0  0  0  0
 20 23  1  0  0  0  0
 20 40  1  0  0  0  0
 21 22  1  0  0  0  0
 21 41  1  0  0  0  0
 21 42  1  0  0  0  0
 22 43  1  0  0  0  0
 23 27  1  0  0  0  0
 23 24  1  0  0  0  0
 23 44  1  0  0  0  0
 24 25  1  0  0  0  0
 24 45  1  0  0  0  0
 24 46  1  0  0  0  0
 25 26  1  0  0  0  0
 25 47  1  0  0  0  0
 25 48  1  0  0  0  0
 26 27  1  0  0  0  0
 27 49  1  0  0  0  0
 27 50  1  0  0  0  0
M  END
> <s_m_source_file>
AV-unprocessed.smi

> <i_m_source_file_index>
221

> <i_lp_mmshare_version>
43012

> <i_f3d_flags>
0

> <s_epik_input>
W05IMl1DKD1PKVtDQEBIXTFbQ0gyXVtDQEBIXShGKVtDSDJdTjFjKG5bY0hdbjIpYyhjMjMpbltjSF1uM1tDSDJdW0NASF0oW0NIMl1bT0hdKVtDQEBIXTRbQ0gyXVtDSDJdT1tDSDJdNA==

> <s_epik_cmdline>
J2VwaWtfcHl0aG9uJywgJy1waCcsICc3LjAnLCAnLXRuJywgJzgnLCAnLW1hJywgJzIwMCcsICctbWV0YWxfYmluZGluZycsICctaW1hZScsICc8aW5maWxlLm1hZT4nLCAnLW9tYWUnLCAnPG91dGZpbGUubWFlPic=

> <r_lp_tautomer_probability>
1

> <r_epik_Ionization_Penalty>
0.000818822

> <r_epik_Ionization_Penalty_Charging>
0

> <r_epik_Ionization_Penalty_Neutral>
0.000818822

> <r_epik_State_Penalty>
0.000440551

> <r_epik_Charging_Adjusted_Penalty>
0.000440551

> <i_epik_Tot_Q>
0

> <i_epik_Tot_abs_Q>
0

> <r_epik_Metal_State_Penalty>
-0

> <b_epik_Metal_Only>
0

> <s_lp_Force_Field>
OPLS_2005

> <r_lp_Energy>
55.0143

> <b_lp_Chiralities_Consistent>
1

> <s_lp_Variant>
AV-unprocessed.smi:221-6

> <Gold.Version>
5.8.1

> <Gold.Id.Protein>
6NUR|6NUR_protein|mol2

> <Gold.PLP.Fitness>
46.3338

> <Gold.PLP.PLP>
-31.0959

> <Gold.PLP.part.hbond>
-5.5223

> <Gold.PLP.part.metal>
0.0000

> <Gold.PLP.part.buried>
-5.2606

> <Gold.PLP.part.nonpolar>
-20.8701

> <Gold.PLP.part.repulsive>
0.7538

> <Gold.PLP.ligand.clash>
0.0000

> <Gold.PLP.ligand.torsion>
0.8347

> <Gold.PLP.Chemscore.Hbond>
4.5616

> <Gold.PLP.Chemscore.CHOScore>
1.0000

> <Gold.PLP.Chemscore.Metal>
0.0000

> <Gold.Chemscore.Hbonds>
donor molecule, donor type, donor heavy atom, donor atom, acceptor molecule, acceptor atom, score
      L1  H     1    30       P1 10957  1.00
      L1  H     1    31       P1 11000  1.00
      L1  H    22    43       P1  7957  0.47
      P1  H  7989  7998       L1    22  0.18
      P1  H  8011  8017       L1    22  1.00
      P1  H 10752 10763       L1    26  0.37
      L1  C    17    37       P1  7948  0.87

> <Gold.PLP.Chemscore.Internal.Correction>
0.2226

> <Gold.Rescore>
     Score         DG    S(hbond)    S(metal)    S(lipo)     H(rot)  DE(clash)    DE(int)     intcor
     13.09     -15.34       3.68        0.00      60.66       3.72       0.12       2.13       ----

> <Gold.Chemscore.Fitness>
13.0851

> <Gold.Chemscore.DG>
-15.3372

> <Gold.Chemscore.ZeroCoef>
-5.4800

> <Gold.Chemscore.Hbond>
3.6779

> <Gold.Chemscore.Metal>
0.0000

> <Gold.Chemscore.Lipo>
60.6567

> <Gold.Chemscore.Internal_Hbond>
0.0000

> <Gold.Chemscore.DEClash>
0.1195

> <Gold.Chemscore.DEInternal>
2.1325

> <Gold.Chemscore.Rot>
3.7202

> <Gold.Chemscore.Internal.Correction>
   9.000000E+99

> <Gold.Chemscore.Hbonds>
donor molecule, donor type, donor heavy atom, donor atom, acceptor molecule, acceptor atom, score
      L1  H     1    30       P1 10957  0.97
      L1  H     1    31       P1 11000  0.87
      L1  H    22    43       P1  7957  0.45
      P1  H  7989  7998       L1    22  0.02
      P1  H  8011  8017       L1    22  0.40
      P1  H 10752 10763       L1    26  0.06

> <Gold.Chemscore.Hbond.Weighted>
-12.2841

> <Gold.Chemscore.Metal.Weighted>
-0.0000

> <Gold.Chemscore.Lipo.Weighted>
-7.0968

> <Gold.Chemscore.Internal_Hbond.Weighted>
0.0000

> <Gold.Chemscore.DEClash.Weighted>
0.1195

> <Gold.Chemscore.DEInternal.Weighted>
2.1325

> <Gold.Chemscore.Rot.Weighted>
9.5237

> <Gold.Chemscore.Internal.Correction.Weighted>
   9.000000E+99

> <Gold.Protein.RotatedTorsions>
[ 6907 6896 6895 6894 ] final   30.96 input  -60.11 | X-H torsion
[ 7974 7965 7964 7962 ] final  -66.72 input  175.53 | X-H torsion
[ 8008 7997 7996 7995 ] final  102.77 input   59.86 | X-H torsion
[ 10167 10162 10161 10158 ] final  -92.29 input  -65.29 | X-H torsion
[ 10718 10713 10712 10709 ] final   12.16 input   66.30 | X-H torsion
[ 10763 10752 10751 10750 ] final   64.26 input  -60.55 | X-H torsion
[ 11005 11000 10999 10996 ] final -157.84 input  -57.11 | X-H torsion

> <Gold.Protein.ActiveResidues>
 VAL166  LYS551  ARG553  GLY616  TRP617  ASP618  TYR619  PRO620  LYS621  CYS622 
 ASP623  PHE694  ASN695  SER759  ASP760  ASP761  ALA762  ILE779  LEU786  VAL792 
 PHE793  MET794  SER795  GLU796  ALA797  LYS798  CYS799  TRP800  GLU811  SER814 

> <Gold.Protein.RotatedAtoms>
  152.0535  134.9639  160.0574 H   0  0  0  0  0  0  0  0  0  0  0  0  # atno 6907 bound_to 6896
  152.1031  133.4255  159.4604 H   0  0  0  0  0  0  0  0  0  0  0  0  # atno 6908 bound_to 6896
  150.6840  134.2656  159.4610 H   0  0  0  0  0  0  0  0  0  0  0  0  # atno 6909 bound_to 6896
  145.7383  140.8965  143.0543 H   0  0  0  0  0  0  0  0  0  0  0  0  # atno 7974 bound_to 7965
  156.1423  140.3176  155.8515 H   0  0  0  0  0  0  0  0  0  0  0  0  # atno 8008 bound_to 7997
  155.4130  140.0507  157.3047 H   0  0  0  0  0  0  0  0  0  0  0  0  # atno 8009 bound_to 7997
  154.4987  140.2121  155.9405 H   0  0  0  0  0  0  0  0  0  0  0  0  # atno 8010 bound_to 7997
  140.3363  143.2967  151.9885 H   0  0  0  0  0  0  0  0  0  0  0  0  # atno 10167 bound_to 10162
  157.0061  130.6098  149.5702 H   0  0  0  0  0  0  0  0  0  0  0  0  # atno 10718 bound_to 10713
  153.0049  135.5399  154.6482 H   0  0  0  0  0  0  0  0  0  0  0  0  # atno 10763 bound_to 10752
  154.5721  135.2842  155.0819 H   0  0  0  0  0  0  0  0  0  0  0  0  # atno 10764 bound_to 10752
  154.1981  135.6488  153.5131 H   0  0  0  0  0  0  0  0  0  0  0  0  # atno 10765 bound_to 10752
  140.6602  134.4357  157.5234 H   0  0  0  0  0  0  0  0  0  0  0  0  # atno 11005 bound_to 11000
  144.6876  139.9425  143.7475 LP  0  0  0  0  0  0  0  0  0  0  0  0  # atno 17320 bound_to 7965
  146.0472  139.3477  143.0661 LP  0  0  0  0  0  0  0  0  0  0  0  0  # atno 17321 bound_to 7965
  139.4848  144.6194  151.7285 LP  0  0  0  0  0  0  0  0  0  0  0  0  # atno 17342 bound_to 10162
  140.5350  144.0669  150.6067 LP  0  0  0  0  0  0  0  0  0  0  0  0  # atno 17343 bound_to 10162
  156.0153  130.5247  150.8115 LP  0  0  0  0  0  0  0  0  0  0  0  0  # atno 17370 bound_to 10713
  157.5355  131.0938  150.9898 LP  0  0  0  0  0  0  0  0  0  0  0  0  # atno 17371 bound_to 10713
  139.9015  134.8544  156.1875 LP  0  0  0  0  0  0  0  0  0  0  0  0  # atno 17394 bound_to 11000
  141.0471  133.6908  156.1703 LP  0  0  0  0  0  0  0  0  0  0  0  0  # atno 17395 bound_to 11000

$$$$
