AV-unprocessed.smi:1072|AV-procd|sdf|4687|dock3
  -GOLD-   22720 3203D 1   1.00000     0.00000
 Structure written by MMmdl.
 45 46  0  0  0  0  0  0  0  0  2 V2000
  153.9245  136.5543  158.3040 C   0  0  0  0  0  0  0  0  0  0  0  0
  153.0671  137.0306  157.1510 C   0  0  0  0  0  0  0  0  0  0  0  0
  152.0134  136.3751  156.8432 N   0  0  0  0  0  0  0  0  0  0  0  0
  151.2128  136.8147  155.7753 C   0  0  0  0  0  0  0  0  0  0  0  0
  149.9822  135.9756  155.4783 C   0  0  0  0  0  0  0  0  0  0  0  0
  151.5384  137.9306  155.0618 C   0  0  0  0  0  0  0  0  0  0  0  0
  150.6998  138.4476  153.8928 C   0  0  0  0  0  0  0  0  0  0  0  0
  149.2919  138.9346  154.2438 C   0  0  0  0  0  0  0  0  0  0  0  0
  148.9225  138.9721  155.4171 O   0  0  0  0  0  0  0  0  0  0  0  0
  148.5227  139.2983  153.2027 N   0  0  0  0  0  0  0  0  0  0  0  0
  147.1372  139.7898  153.2120 C   0  0  1  0  0  0  0  0  0  0  0  0
  147.0975  141.2302  153.7670 C   0  0  0  0  0  0  0  0  0  0  0  0
  146.5010  139.7381  151.7979 C   0  0  0  0  0  0  0  0  0  0  0  0
  146.3826  138.3048  151.2495 C   0  0  0  0  0  0  0  0  0  0  0  0
  145.5743  137.4038  152.2004 C   0  0  1  0  0  0  0  0  0  0  0  0
  145.4656  135.9709  151.6602 C   0  0  0  0  0  0  0  0  0  0  0  0
  146.1853  137.4301  153.6136 C   0  0  0  0  0  0  0  0  0  0  0  0
  146.3199  138.8687  154.1498 C   0  0  0  0  0  0  0  0  0  0  0  0
  152.7587  138.6599  155.4510 C   0  0  0  0  0  0  0  0  0  0  0  0
  153.0914  139.6803  154.8493 O   0  0  0  0  0  0  0  0  0  0  0  0
  153.4875  138.1635  156.4912 N   0  5  0  0  0  0  0  0  0  0  0  0
  153.4077  135.7923  158.8888 H   0  0  0  0  0  0  0  0  0  0  0  0
  154.1671  137.3851  158.9674 H   0  0  0  0  0  0  0  0  0  0  0  0
  154.8553  136.1281  157.9291 H   0  0  0  0  0  0  0  0  0  0  0  0
  150.0484  135.5393  154.4815 H   0  0  0  0  0  0  0  0  0  0  0  0
  149.0792  136.5837  155.5333 H   0  0  0  0  0  0  0  0  0  0  0  0
  149.8788  135.1599  156.1947 H   0  0  0  0  0  0  0  0  0  0  0  0
  151.2164  139.2516  153.3683 H   0  0  0  0  0  0  0  0  0  0  0  0
  150.6182  137.6476  153.1562 H   0  0  0  0  0  0  0  0  0  0  0  0
  148.9466  139.2238  152.2894 H   0  0  0  0  0  0  0  0  0  0  0  0
  146.0715  141.5828  153.8760 H   0  0  0  0  0  0  0  0  0  0  0  0
  147.6075  141.9365  153.1118 H   0  0  0  0  0  0  0  0  0  0  0  0
  147.5701  141.2902  154.7481 H   0  0  0  0  0  0  0  0  0  0  0  0
  145.5034  140.1773  151.8383 H   0  0  0  0  0  0  0  0  0  0  0  0
  147.0592  140.3541  151.0929 H   0  0  0  0  0  0  0  0  0  0  0  0
  145.9055  138.3315  150.2692 H   0  0  0  0  0  0  0  0  0  0  0  0
  147.3772  137.8856  151.0921 H   0  0  0  0  0  0  0  0  0  0  0  0
  144.5631  137.8081  152.2663 H   0  0  0  0  0  0  0  0  0  0  0  0
  146.4476  135.5058  151.5685 H   0  0  0  0  0  0  0  0  0  0  0  0
  144.9980  135.9572  150.6753 H   0  0  0  0  0  0  0  0  0  0  0  0
  144.8618  135.3469  152.3197 H   0  0  0  0  0  0  0  0  0  0  0  0
  145.5651  136.8469  154.2953 H   0  0  0  0  0  0  0  0  0  0  0  0
  147.1624  136.9452  153.6035 H   0  0  0  0  0  0  0  0  0  0  0  0
  146.7721  138.8458  155.1424 H   0  0  0  0  0  0  0  0  0  0  0  0
  145.3198  139.2828  154.2871 H   0  0  0  0  0  0  0  0  0  0  0  0
  1  2  1  0  0  0  0
  1 22  1  0  0  0  0
  1 23  1  0  0  0  0
  1 24  1  0  0  0  0
  2 21  1  0  0  0  0
  2  3  2  0  0  0  0
  3  4  1  0  0  0  0
  4  5  1  0  0  0  0
  4  6  2  0  0  0  0
  5 25  1  0  0  0  0
  5 26  1  0  0  0  0
  5 27  1  0  0  0  0
  6  7  1  0  0  0  0
  6 19  1  0  0  0  0
  7  8  1  0  0  0  0
  7 28  1  0  0  0  0
  7 29  1  0  0  0  0
  8  9  2  0  0  0  0
  8 10  1  0  0  0  0
 10 11  1  0  0  0  0
 10 30  1  0  0  0  0
 11 18  1  0  0  0  0
 11 12  1  0  0  0  0
 11 13  1  0  0  0  0
 12 31  1  0  0  0  0
 12 32  1  0  0  0  0
 12 33  1  0  0  0  0
 13 14  1  0  0  0  0
 13 34  1  0  0  0  0
 13 35  1  0  0  0  0
 14 15  1  0  0  0  0
 14 36  1  0  0  0  0
 14 37  1  0  0  0  0
 15 16  1  0  0  0  0
 15 17  1  0  0  0  0
 15 38  1  0  0  0  0
 16 39  1  0  0  0  0
 16 40  1  0  0  0  0
 16 41  1  0  0  0  0
 17 18  1  0  0  0  0
 17 42  1  0  0  0  0
 17 43  1  0  0  0  0
 18 44  1  0  0  0  0
 18 45  1  0  0  0  0
 19 20  2  0  0  0  0
 19 21  1  0  0  0  0
M  CHG  1  21  -1
M  END
> <s_m_source_file>
AV-unprocessed.smi

> <i_m_source_file_index>
1072

> <i_lp_mmshare_version>
43012

> <i_f3d_flags>
0

> <s_epik_input>
W0NIM11jMW5jKFtDSDNdKWMoYyg9TylbbkhdMSlbQ0gyXUMoPU8pW05IXVtDQEBdMihbQ0gzXSlbQ0gyXVtDSDJdW0NAQEhdKFtDSDNdKVtDSDJdW0NIMl0y

> <s_epik_cmdline>
J2VwaWtfcHl0aG9uJywgJy1waCcsICc3LjAnLCAnLXRuJywgJzgnLCAnLW1hJywgJzIwMCcsICctbWV0YWxfYmluZGluZycsICctaW1hZScsICc8aW5maWxlLm1hZT4nLCAnLW9tYWUnLCAnPG91dGZpbGUubWFlPic=

> <r_lp_tautomer_probability>
0.839158

> <r_epik_Ionization_Penalty>
6.73882

> <r_epik_Ionization_Penalty_Charging>
8.02239e-08

> <r_epik_Ionization_Penalty_Neutral>
6.73882

> <r_epik_State_Penalty>
4.55873

> <r_epik_Charging_Adjusted_Penalty>
4.55873

> <i_epik_Tot_Q>
-1

> <i_epik_Tot_abs_Q>
1

> <r_epik_Metal_State_Penalty>
0.872514

> <b_epik_Metal_Only>
1

> <s_lp_Force_Field>
OPLS_2005

> <r_lp_Energy>
14.8033

> <b_lp_Chiralities_Consistent>
1

> <s_lp_Variant>
AV-unprocessed.smi:1072-5

> <Gold.Version>
5.8.1

> <Gold.Id.Protein>
6NUR|6NUR_protein|mol2

> <Gold.PLP.Fitness>
38.6938

> <Gold.PLP.PLP>
-33.2988

> <Gold.PLP.part.hbond>
-4.0241

> <Gold.PLP.part.metal>
0.0000

> <Gold.PLP.part.buried>
1.1166

> <Gold.PLP.part.nonpolar>
-31.0515

> <Gold.PLP.part.repulsive>
0.1806

> <Gold.PLP.ligand.clash>
0.0000

> <Gold.PLP.ligand.torsion>
0.2935

> <Gold.PLP.Chemscore.Hbond>
1.9925

> <Gold.PLP.Chemscore.CHOScore>
0.0000

> <Gold.PLP.Chemscore.Metal>
0.0000

> <Gold.Chemscore.Hbonds>
donor molecule, donor type, donor heavy atom, donor atom, acceptor molecule, acceptor atom, score
      L1  H    10    30       P1  7957  0.89
      P1  H  7989  7998       L1    20  0.14
      P1  H  7997  8009       L1    20  1.00
      P1  H 10752 10764       L1     3  0.02

> <Gold.PLP.Chemscore.Internal.Correction>
0.0047

> <Gold.Rescore>
     Score         DG    S(hbond)    S(metal)    S(lipo)     H(rot)  DE(clash)    DE(int)     intcor
     14.84     -17.77       1.91        0.00      82.00       1.43       1.32       1.61       ----

> <Gold.Chemscore.Fitness>
14.8411

> <Gold.Chemscore.DG>
-17.7731

> <Gold.Chemscore.ZeroCoef>
-5.4800

> <Gold.Chemscore.Hbond>
1.9070

> <Gold.Chemscore.Metal>
0.0000

> <Gold.Chemscore.Lipo>
82.0029

> <Gold.Chemscore.Internal_Hbond>
0.0000

> <Gold.Chemscore.DEClash>
1.3193

> <Gold.Chemscore.DEInternal>
1.6126

> <Gold.Chemscore.Rot>
1.4339

> <Gold.Chemscore.Internal.Correction>
   9.000000E+99

> <Gold.Chemscore.Hbonds>
donor molecule, donor type, donor heavy atom, donor atom, acceptor molecule, acceptor atom, score
      L1  H    10    30       P1  7957  0.82
      P1  H  7989  7998       L1    20  0.14
      P1  H  7997  8009       L1    20  0.30

> <Gold.Chemscore.Hbond.Weighted>
-6.3695

> <Gold.Chemscore.Metal.Weighted>
-0.0000

> <Gold.Chemscore.Lipo.Weighted>
-9.5943

> <Gold.Chemscore.Internal_Hbond.Weighted>
0.0000

> <Gold.Chemscore.DEClash.Weighted>
1.3193

> <Gold.Chemscore.DEInternal.Weighted>
1.6126

> <Gold.Chemscore.Rot.Weighted>
3.6708

> <Gold.Chemscore.Internal.Correction.Weighted>
   9.000000E+99

> <Gold.Protein.RotatedTorsions>
[ 6907 6896 6895 6894 ] final  160.35 input  -60.11 | X-H torsion
[ 7974 7965 7964 7962 ] final  -54.42 input  175.53 | X-H torsion
[ 8008 7997 7996 7995 ] final -132.67 input   59.86 | X-H torsion
[ 10167 10162 10161 10158 ] final    4.66 input  -65.29 | X-H torsion
[ 10718 10713 10712 10709 ] final  173.52 input   66.30 | X-H torsion
[ 10763 10752 10751 10750 ] final  -16.34 input  -60.55 | X-H torsion
[ 11005 11000 10999 10996 ] final  158.67 input  -57.11 | X-H torsion

> <Gold.Protein.ActiveResidues>
 VAL166  LYS551  ARG553  GLY616  TRP617  ASP618  TYR619  PRO620  LYS621  CYS622 
 ASP623  PHE694  ASN695  SER759  ASP760  ASP761  ALA762  ILE779  LEU786  VAL792 
 PHE793  MET794  SER795  GLU796  ALA797  LYS798  CYS799  TRP800  GLU811  SER814 

> <Gold.Protein.RotatedAtoms>
  151.9719  133.3729  159.4074 H   0  0  0  0  0  0  0  0  0  0  0  0  # atno 6907 bound_to 6896
  150.6947  134.4130  159.5180 H   0  0  0  0  0  0  0  0  0  0  0  0  # atno 6908 bound_to 6896
  152.1836  134.8733  160.0575 H   0  0  0  0  0  0  0  0  0  0  0  0  # atno 6909 bound_to 6896
  145.8857  140.8110  142.9817 H   0  0  0  0  0  0  0  0  0  0  0  0  # atno 7974 bound_to 7965
  155.3328  140.0468  157.3043 H   0  0  0  0  0  0  0  0  0  0  0  0  # atno 8008 bound_to 7997
  154.5319  140.2260  155.8755 H   0  0  0  0  0  0  0  0  0  0  0  0  # atno 8009 bound_to 7997
  156.1797  140.3077  155.9131 H   0  0  0  0  0  0  0  0  0  0  0  0  # atno 8010 bound_to 7997
  140.6523  143.7514  150.7595 H   0  0  0  0  0  0  0  0  0  0  0  0  # atno 10167 bound_to 10162
  156.9630  131.0066  151.2923 H   0  0  0  0  0  0  0  0  0  0  0  0  # atno 10718 bound_to 10713
  153.5570  135.7010  153.5564 H   0  0  0  0  0  0  0  0  0  0  0  0  # atno 10763 bound_to 10752
  153.3463  135.4007  155.1611 H   0  0  0  0  0  0  0  0  0  0  0  0  # atno 10764 bound_to 10752
  154.8653  135.3754  154.5085 H   0  0  0  0  0  0  0  0  0  0  0  0  # atno 10765 bound_to 10752
  140.1887  134.8423  157.2887 H   0  0  0  0  0  0  0  0  0  0  0  0  # atno 11005 bound_to 11000
  144.6728  140.1453  143.7434 LP  0  0  0  0  0  0  0  0  0  0  0  0  # atno 17320 bound_to 7965
  145.8969  139.2408  143.1516 LP  0  0  0  0  0  0  0  0  0  0  0  0  # atno 17321 bound_to 7965
  140.1167  143.4649  152.2337 LP  0  0  0  0  0  0  0  0  0  0  0  0  # atno 17342 bound_to 10162
  139.5740  144.7477  151.3815 LP  0  0  0  0  0  0  0  0  0  0  0  0  # atno 17343 bound_to 10162
  157.5645  130.8268  149.8309 LP  0  0  0  0  0  0  0  0  0  0  0  0  # atno 17370 bound_to 10713
  156.0314  130.3763  150.1677 LP  0  0  0  0  0  0  0  0  0  0  0  0  # atno 17371 bound_to 10713
  140.2184  134.4053  155.7578 LP  0  0  0  0  0  0  0  0  0  0  0  0  # atno 17394 bound_to 11000
  141.2225  133.7153  156.8451 LP  0  0  0  0  0  0  0  0  0  0  0  0  # atno 17395 bound_to 11000

$$$$
