AV-unprocessed.smi:164|AV-procd|sdf|1384|dock8
  -GOLD-   2262019113D 1   1.00000     0.00000
 Structure written by MMmdl.
 53 55  0  0  0  0  0  0  0  0  1 V2000
  152.4575  130.9689  155.4697 C   0  0  0  0  0  0  0  0  0  0  0  0
  151.5134  132.1590  155.4563 C   0  0  0  0  0  0  0  0  0  0  0  0
  150.3415  132.0912  154.6756 C   0  0  0  0  0  0  0  0  0  0  0  0
  149.4486  133.1762  154.6359 C   0  0  0  0  0  0  0  0  0  0  0  0
  149.7132  134.3381  155.3862 C   0  0  0  0  0  0  0  0  0  0  0  0
  148.7456  135.5055  155.3274 C   0  0  0  0  0  0  0  0  0  0  0  0
  150.8761  134.4088  156.1871 C   0  0  0  0  0  0  0  0  0  0  0  0
  151.1142  135.5399  156.9248 O   0  0  0  0  0  0  0  0  0  0  0  0
  152.2065  136.3105  156.4431 C   0  0  0  0  0  0  0  0  0  0  0  0
  151.6753  137.4022  155.5033 C   0  0  2  0  0  0  0  0  0  0  0  0
  151.7903  136.9082  154.1843 O   0  0  0  0  0  0  0  0  0  0  0  0
  152.4863  138.7118  155.6244 C   0  0  0  0  0  0  0  0  0  0  0  0
  151.6878  139.8476  156.0546 N   0  0  0  0  0  0  0  0  0  0  0  0
  150.6021  140.2462  155.2379 C   0  0  0  0  0  0  0  0  0  0  0  0
  150.3362  139.6829  154.1747 O   0  0  0  0  0  0  0  0  0  0  0  0
  149.8243  141.3583  155.7706 C   0  0  0  0  0  0  0  0  0  0  0  0
  148.7486  141.7994  155.0966 F   0  0  0  0  0  0  0  0  0  0  0  0
  150.1544  141.9447  156.9415 C   0  0  0  0  0  0  0  0  0  0  0  0
  151.2454  141.5577  157.7068 N   0  0  0  0  0  0  0  0  0  0  0  0
  151.5547  142.1688  159.0655 C   0  0  1  0  0  0  0  0  0  0  0  0
  152.9204  142.8630  159.1511 C   0  0  0  0  0  0  0  0  0  0  0  0
  152.5854  144.3302  158.8959 C   0  0  0  0  0  0  0  0  0  0  0  0
  151.0632  144.3594  158.7205 C   0  0  0  0  0  0  0  0  0  0  0  0
  150.6115  143.1576  159.3295 O   0  0  0  0  0  0  0  0  0  0  0  0
  152.0186  140.4500  157.2918 C   0  0  0  0  0  0  0  0  0  0  0  0
  152.9432  140.0255  157.9895 O   0  0  0  0  0  0  0  0  0  0  0  0
  151.7924  133.3272  156.2091 C   0  0  0  0  0  0  0  0  0  0  0  0
  153.0678  133.4197  157.0362 C   0  0  0  0  0  0  0  0  0  0  0  0
  152.0147  130.1053  154.9723 H   0  0  0  0  0  0  0  0  0  0  0  0
  152.6960  130.6760  156.4925 H   0  0  0  0  0  0  0  0  0  0  0  0
  153.3852  131.2149  154.9527 H   0  0  0  0  0  0  0  0  0  0  0  0
  150.1235  131.2056  154.0970 H   0  0  0  0  0  0  0  0  0  0  0  0
  148.5590  133.1112  154.0266 H   0  0  0  0  0  0  0  0  0  0  0  0
  149.2806  136.4352  155.1329 H   0  0  0  0  0  0  0  0  0  0  0  0
  148.2121  135.6060  156.2725 H   0  0  0  0  0  0  0  0  0  0  0  0
  148.0095  135.3710  154.5346 H   0  0  0  0  0  0  0  0  0  0  0  0
  152.7637  136.7578  157.2682 H   0  0  0  0  0  0  0  0  0  0  0  0
  152.8962  135.6574  155.9062 H   0  0  0  0  0  0  0  0  0  0  0  0
  150.6197  137.5709  155.7197 H   0  0  0  0  0  0  0  0  0  0  0  0
  150.9220  136.7615  153.8413 H   0  0  0  0  0  0  0  0  0  0  0  0
  153.2861  138.6151  156.3602 H   0  0  0  0  0  0  0  0  0  0  0  0
  153.0072  138.9672  154.7003 H   0  0  0  0  0  0  0  0  0  0  0  0
  149.5132  142.7419  157.2822 H   0  0  0  0  0  0  0  0  0  0  0  0
  151.4832  141.3443  159.7767 H   0  0  0  0  0  0  0  0  0  0  0  0
  153.2964  142.7465  160.1681 H   0  0  0  0  0  0  0  0  0  0  0  0
  153.6585  142.4298  158.4762 H   0  0  0  0  0  0  0  0  0  0  0  0
  152.8850  144.9361  159.7518 H   0  0  0  0  0  0  0  0  0  0  0  0
  153.0943  144.7241  158.0157 H   0  0  0  0  0  0  0  0  0  0  0  0
  150.6062  145.2337  159.1837 H   0  0  0  0  0  0  0  0  0  0  0  0
  150.7923  144.3605  157.6640 H   0  0  0  0  0  0  0  0  0  0  0  0
  153.2929  134.4436  157.3332 H   0  0  0  0  0  0  0  0  0  0  0  0
  153.9265  133.0580  156.4708 H   0  0  0  0  0  0  0  0  0  0  0  0
  152.9730  132.8178  157.9401 H   0  0  0  0  0  0  0  0  0  0  0  0
  1  2  1  0  0  0  0
  1 29  1  0  0  0  0
  1 30  1  0  0  0  0
  1 31  1  0  0  0  0
  2 27  1  0  0  0  0
  2  3  2  0  0  0  0
  3  4  1  0  0  0  0
  3 32  1  0  0  0  0
  4  5  2  0  0  0  0
  4 33  1  0  0  0  0
  5  6  1  0  0  0  0
  5  7  1  0  0  0  0
  6 34  1  0  0  0  0
  6 35  1  0  0  0  0
  6 36  1  0  0  0  0
  7  8  1  0  0  0  0
  7 27  2  0  0  0  0
  8  9  1  0  0  0  0
  9 10  1  0  0  0  0
  9 37  1  0  0  0  0
  9 38  1  0  0  0  0
 10 11  1  0  0  0  0
 10 12  1  0  0  0  0
 10 39  1  0  0  0  0
 11 40  1  0  0  0  0
 12 13  1  0  0  0  0
 12 41  1  0  0  0  0
 12 42  1  0  0  0  0
 13 25  1  0  0  0  0
 13 14  1  0  0  0  0
 14 15  2  0  0  0  0
 14 16  1  0  0  0  0
 16 17  1  0  0  0  0
 16 18  2  0  0  0  0
 18 19  1  0  0  0  0
 18 43  1  0  0  0  0
 19 20  1  0  0  0  0
 19 25  1  0  0  0  0
 20 24  1  0  0  0  0
 20 21  1  0  0  0  0
 20 44  1  0  0  0  0
 21 22  1  0  0  0  0
 21 45  1  0  0  0  0
 21 46  1  0  0  0  0
 22 23  1  0  0  0  0
 22 47  1  0  0  0  0
 22 48  1  0  0  0  0
 23 24  1  0  0  0  0
 23 49  1  0  0  0  0
 23 50  1  0  0  0  0
 25 26  2  0  0  0  0
 27 28  1  0  0  0  0
 28 51  1  0  0  0  0
 28 52  1  0  0  0  0
 28 53  1  0  0  0  0
M  END
> <s_m_source_file>
AV-unprocessed.smi

> <i_m_source_file_index>
164

> <i_lp_mmshare_version>
43012

> <i_f3d_flags>
0

> <s_epik_input>
W0NIM11jMVtjSF1bY0hdYyhbQ0gzXSljKGMxW0NIM10pT1tDSDJdW0NASF0oW09IXSlbQ0gyXW4yYyg9TyljKEYpW2NIXW4oYzI9TylbQ0BASF0zW0NIMl1bQ0gyXVtDSDJdTzM=

> <s_epik_cmdline>
J2VwaWtfcHl0aG9uJywgJy1waCcsICc3LjAnLCAnLXRuJywgJzgnLCAnLW1hJywgJzIwMCcsICctbWV0YWxfYmluZGluZycsICctaW1hZScsICc8aW5maWxlLm1hZT4nLCAnLW9tYWUnLCAnPG91dGZpbGUubWFlPic=

> <r_lp_tautomer_probability>
1

> <r_epik_Ionization_Penalty>
1.45842e-07

> <r_epik_Ionization_Penalty_Charging>
2.86622e-08

> <r_epik_Ionization_Penalty_Neutral>
1.1718e-07

> <r_epik_State_Penalty>
-0

> <r_epik_Charging_Adjusted_Penalty>
2.86622e-08

> <i_epik_Tot_Q>
0

> <i_epik_Tot_abs_Q>
0

> <r_epik_Metal_State_Penalty>
-0

> <b_epik_Metal_Only>
0

> <s_epik_Chemistry_Notes>
This compound contains an acetal/aminal-like group ( X-CH(R)-Y where X, Y are N, S, or O) that may be acid/base labile, releasing an aldehyde.

> <s_lp_Force_Field>
OPLS_2005

> <r_lp_Energy>
42.2677

> <b_lp_Chiralities_Consistent>
1

> <s_lp_Variant>
AV-unprocessed.smi:164-3

> <Gold.Version>
5.8.1

> <Gold.Id.Protein>
6NUR|6NUR_protein|mol2

> <Gold.PLP.Fitness>
55.9981

> <Gold.PLP.PLP>
-49.6661

> <Gold.PLP.part.hbond>
-4.0000

> <Gold.PLP.part.metal>
0.0000

> <Gold.PLP.part.buried>
0.7853

> <Gold.PLP.part.nonpolar>
-45.5625

> <Gold.PLP.part.repulsive>
0.5820

> <Gold.PLP.ligand.clash>
0.0000

> <Gold.PLP.ligand.torsion>
1.5992

> <Gold.PLP.Chemscore.Hbond>
2.1500

> <Gold.PLP.Chemscore.CHOScore>
0.9458

> <Gold.PLP.Chemscore.Metal>
0.0000

> <Gold.Chemscore.Hbonds>
donor molecule, donor type, donor heavy atom, donor atom, acceptor molecule, acceptor atom, score
      P1  H  7989  7998       L1    15  0.20
      P1  H  7997  8010       L1    26  1.00
      P1  H 10752 10763       L1    11  1.00
      L1  C    18    43       P1  8028  0.61

> <Gold.PLP.Chemscore.Internal.Correction>
0.2429

> <Gold.Rescore>
     Score         DG    S(hbond)    S(metal)    S(lipo)     H(rot)  DE(clash)    DE(int)     intcor
     13.27     -16.66       1.79        0.00     104.18       2.73       0.40       2.99       ----

> <Gold.Chemscore.Fitness>
13.2718

> <Gold.Chemscore.DG>
-16.6603

> <Gold.Chemscore.ZeroCoef>
-5.4800

> <Gold.Chemscore.Hbond>
1.7917

> <Gold.Chemscore.Metal>
0.0000

> <Gold.Chemscore.Lipo>
104.1762

> <Gold.Chemscore.Internal_Hbond>
0.0000

> <Gold.Chemscore.DEClash>
0.3959

> <Gold.Chemscore.DEInternal>
2.9926

> <Gold.Chemscore.Rot>
2.7315

> <Gold.Chemscore.Internal.Correction>
   9.000000E+99

> <Gold.Chemscore.Hbonds>
donor molecule, donor type, donor heavy atom, donor atom, acceptor molecule, acceptor atom, score
      P1  H  7997  8010       L1    26  0.54
      P1  H 10752 10763       L1    11  0.29

> <Gold.Chemscore.Hbond.Weighted>
-5.9842

> <Gold.Chemscore.Metal.Weighted>
-0.0000

> <Gold.Chemscore.Lipo.Weighted>
-12.1886

> <Gold.Chemscore.Internal_Hbond.Weighted>
0.0000

> <Gold.Chemscore.DEClash.Weighted>
0.3959

> <Gold.Chemscore.DEInternal.Weighted>
2.9926

> <Gold.Chemscore.Rot.Weighted>
6.9925

> <Gold.Chemscore.Internal.Correction.Weighted>
   9.000000E+99

> <Gold.Protein.RotatedTorsions>
[ 6907 6896 6895 6894 ] final   74.49 input  -60.11 | X-H torsion
[ 7974 7965 7964 7962 ] final  -87.94 input  175.53 | X-H torsion
[ 8008 7997 7996 7995 ] final   44.03 input   59.86 | X-H torsion
[ 10167 10162 10161 10158 ] final  177.82 input  -65.29 | X-H torsion
[ 10718 10713 10712 10709 ] final   55.41 input   66.30 | X-H torsion
[ 10763 10752 10751 10750 ] final   49.05 input  -60.55 | X-H torsion
[ 11005 11000 10999 10996 ] final  -17.95 input  -57.11 | X-H torsion

> <Gold.Protein.ActiveResidues>
 VAL166  LYS551  ARG553  GLY616  TRP617  ASP618  TYR619  PRO620  LYS621  CYS622 
 ASP623  PHE694  ASN695  SER759  ASP760  ASP761  ALA762  ILE779  LEU786  VAL792 
 PHE793  MET794  SER795  GLU796  ALA797  LYS798  CYS799  TRP800  GLU811  SER814 

> <Gold.Protein.RotatedAtoms>
  152.4978  134.4264  159.9497 H   0  0  0  0  0  0  0  0  0  0  0  0  # atno 6907 bound_to 6896
  151.4240  133.3684  159.2767 H   0  0  0  0  0  0  0  0  0  0  0  0  # atno 6908 bound_to 6896
  150.9202  134.8642  159.7543 H   0  0  0  0  0  0  0  0  0  0  0  0  # atno 6909 bound_to 6896
  145.4599  140.9561  143.1976 H   0  0  0  0  0  0  0  0  0  0  0  0  # atno 7974 bound_to 7965
  155.3126  140.3392  155.4243 H   0  0  0  0  0  0  0  0  0  0  0  0  # atno 8008 bound_to 7997
  156.1948  140.1711  156.8058 H   0  0  0  0  0  0  0  0  0  0  0  0  # atno 8009 bound_to 7997
  154.5486  140.0710  156.8613 H   0  0  0  0  0  0  0  0  0  0  0  0  # atno 8010 bound_to 7997
  139.5268  144.2753  152.0593 H   0  0  0  0  0  0  0  0  0  0  0  0  # atno 10167 bound_to 10162
  157.5342  130.8652  149.8730 H   0  0  0  0  0  0  0  0  0  0  0  0  # atno 10718 bound_to 10713
  152.9788  135.5924  154.4025 H   0  0  0  0  0  0  0  0  0  0  0  0  # atno 10763 bound_to 10752
  154.3669  135.2767  155.2290 H   0  0  0  0  0  0  0  0  0  0  0  0  # atno 10764 bound_to 10752
  154.4262  135.6047  153.6095 H   0  0  0  0  0  0  0  0  0  0  0  0  # atno 10765 bound_to 10752
  140.8220  133.8061  155.9669 H   0  0  0  0  0  0  0  0  0  0  0  0  # atno 11005 bound_to 11000
  144.8009  139.6142  143.7072 LP  0  0  0  0  0  0  0  0  0  0  0  0  # atno 17320 bound_to 7965
  146.2457  139.6093  142.9461 LP  0  0  0  0  0  0  0  0  0  0  0  0  # atno 17321 bound_to 7965
  140.2211  144.4465  150.6342 LP  0  0  0  0  0  0  0  0  0  0  0  0  # atno 17342 bound_to 10162
  140.6418  143.2205  151.6274 LP  0  0  0  0  0  0  0  0  0  0  0  0  # atno 17343 bound_to 10162
  156.0446  130.3731  150.1350 LP  0  0  0  0  0  0  0  0  0  0  0  0  # atno 17370 bound_to 10713
  156.9533  130.9781  151.3494 LP  0  0  0  0  0  0  0  0  0  0  0  0  # atno 17371 bound_to 10713
  140.9089  134.2285  157.4997 LP  0  0  0  0  0  0  0  0  0  0  0  0  # atno 17394 bound_to 11000
  139.8708  134.9741  156.4834 LP  0  0  0  0  0  0  0  0  0  0  0  0  # atno 17395 bound_to 11000

$$$$
