AV-unprocessed.smi:434|AV-procd|sdf|2553|dock3
  -GOLD-   2262022523D 1   1.00000     0.00000
 Structure written by MMmdl.
 39 41  0  0  0  0  0  0  0  0  1 V2000
  152.3852  138.7679  159.0280 C   0  0  0  0  0  0  0  0  0  0  0  0
  152.2829  140.2549  159.1536 C   0  0  0  0  0  0  0  0  0  0  0  0
  153.0782  140.9566  159.9611 N   0  0  0  0  0  0  0  0  0  0  0  0
  152.6486  142.2538  159.7565 C   0  0  0  0  0  0  0  0  0  0  0  0
  153.0946  143.4690  160.3238 C   0  0  0  0  0  0  0  0  0  0  0  0
  152.4942  144.6911  159.9560 C   0  0  0  0  0  0  0  0  0  0  0  0
  151.4409  144.7157  159.0191 C   0  0  0  0  0  0  0  0  0  0  0  0
  150.9810  143.5163  158.4419 C   0  0  0  0  0  0  0  0  0  0  0  0
  151.5840  142.2991  158.8117 C   0  0  0  0  0  0  0  0  0  0  0  0
  151.3750  140.9722  158.4469 N   0  0  0  0  0  0  0  0  0  0  0  0
  150.3851  140.4764  157.4995 C   0  0  0  0  0  0  0  0  0  0  0  0
  149.2071  139.7582  158.1883 C   0  0  1  0  0  0  0  0  0  0  0  0
  148.0535  139.8841  157.3799 O   0  0  0  0  0  0  0  0  0  0  0  0
  149.4920  138.2634  158.4025 C   0  0  0  0  0  0  0  0  0  0  0  0
  148.5747  137.7495  159.3540 O   0  0  0  0  0  0  0  0  0  0  0  0
  148.8759  136.4207  159.7425 C   0  0  0  0  0  0  0  0  0  0  0  0
  147.9343  136.0779  160.8467 C   0  0  0  0  0  0  0  0  0  0  0  0
  147.2578  134.9392  161.1877 C   0  0  0  0  0  0  0  0  0  0  0  0
  146.5164  135.2495  162.3614 C   0  0  0  0  0  0  0  0  0  0  0  0
  146.7972  136.5548  162.6496 C   0  0  0  0  0  0  0  0  0  0  0  0
  147.6612  137.0746  161.7355 O   0  0  0  0  0  0  0  0  0  0  0  0
  153.1263  138.3756  159.7251 H   0  0  0  0  0  0  0  0  0  0  0  0
  152.6881  138.4954  158.0168 H   0  0  0  0  0  0  0  0  0  0  0  0
  151.4267  138.2992  159.2495 H   0  0  0  0  0  0  0  0  0  0  0  0
  153.8997  143.4609  161.0435 H   0  0  0  0  0  0  0  0  0  0  0  0
  152.8434  145.6139  160.3958 H   0  0  0  0  0  0  0  0  0  0  0  0
  150.9855  145.6560  158.7443 H   0  0  0  0  0  0  0  0  0  0  0  0
  150.1725  143.5321  157.7262 H   0  0  0  0  0  0  0  0  0  0  0  0
  150.0216  141.3153  156.9043 H   0  0  0  0  0  0  0  0  0  0  0  0
  150.8805  139.8043  156.7984 H   0  0  0  0  0  0  0  0  0  0  0  0
  149.0132  140.2312  159.1516 H   0  0  0  0  0  0  0  0  0  0  0  0
  148.2879  139.6732  156.4890 H   0  0  0  0  0  0  0  0  0  0  0  0
  149.4430  137.7122  157.4614 H   0  0  0  0  0  0  0  0  0  0  0  0
  150.5003  138.1346  158.7995 H   0  0  0  0  0  0  0  0  0  0  0  0
  148.7478  135.7348  158.9036 H   0  0  0  0  0  0  0  0  0  0  0  0
  149.9082  136.3447  160.0869 H   0  0  0  0  0  0  0  0  0  0  0  0
  147.2934  133.9985  160.6585 H   0  0  0  0  0  0  0  0  0  0  0  0
  145.8618  134.6004  162.9239 H   0  0  0  0  0  0  0  0  0  0  0  0
  146.4851  137.2354  163.4279 H   0  0  0  0  0  0  0  0  0  0  0  0
  1  2  1  0  0  0  0
  1 22  1  0  0  0  0
  1 23  1  0  0  0  0
  1 24  1  0  0  0  0
  2 10  1  0  0  0  0
  2  3  2  0  0  0  0
  3  4  1  0  0  0  0
  4  9  2  0  0  0  0
  4  5  1  0  0  0  0
  5  6  2  0  0  0  0
  5 25  1  0  0  0  0
  6  7  1  0  0  0  0
  6 26  1  0  0  0  0
  7  8  2  0  0  0  0
  7 27  1  0  0  0  0
  8  9  1  0  0  0  0
  8 28  1  0  0  0  0
  9 10  1  0  0  0  0
 10 11  1  0  0  0  0
 11 12  1  0  0  0  0
 11 29  1  0  0  0  0
 11 30  1  0  0  0  0
 12 13  1  0  0  0  0
 12 14  1  0  0  0  0
 12 31  1  0  0  0  0
 13 32  1  0  0  0  0
 14 15  1  0  0  0  0
 14 33  1  0  0  0  0
 14 34  1  0  0  0  0
 15 16  1  0  0  0  0
 16 17  1  0  0  0  0
 16 35  1  0  0  0  0
 16 36  1  0  0  0  0
 17 21  1  0  0  0  0
 17 18  2  0  0  0  0
 18 19  1  0  0  0  0
 18 37  1  0  0  0  0
 19 20  2  0  0  0  0
 19 38  1  0  0  0  0
 20 21  1  0  0  0  0
 20 39  1  0  0  0  0
M  END
> <s_m_source_file>
AV-unprocessed.smi

> <i_m_source_file_index>
434

> <i_lp_mmshare_version>
43012

> <i_f3d_flags>
0

> <s_epik_input>
W2NIXTFbY0hdW2NIXVtjSF1jKGMxMiluKGMobjIpW0NIM10pW0NIMl1bQ0BIXShbT0hdKVtDSDJdT1tDSDJdYzNbY0hdW2NIXVtjSF1vMw==

> <s_epik_cmdline>
J2VwaWtfcHl0aG9uJywgJy1waCcsICc3LjAnLCAnLXRuJywgJzgnLCAnLW1hJywgJzIwMCcsICctbWV0YWxfYmluZGluZycsICctaW1hZScsICc8aW5maWxlLm1hZT4nLCAnLW9tYWUnLCAnPG91dGZpbGUubWFlPic=

> <r_epik_Ionization_Penalty>
0.126634

> <r_epik_Ionization_Penalty_Charging>
0

> <r_epik_Ionization_Penalty_Neutral>
0.126634

> <r_epik_State_Penalty>
0.116082

> <r_epik_Charging_Adjusted_Penalty>
0.116082

> <i_epik_Tot_Q>
0

> <i_epik_Tot_abs_Q>
0

> <r_epik_Metal_State_Penalty>
0.00012822

> <b_epik_Metal_Only>
0

> <s_lp_Force_Field>
OPLS_2005

> <r_lp_Energy>
9.69126

> <b_lp_Chiralities_Consistent>
1

> <s_lp_Variant>
AV-unprocessed.smi:434-2

> <Gold.Version>
5.8.1

> <Gold.Id.Protein>
6NUR|6NUR_protein|mol2

> <Gold.PLP.Fitness>
49.0729

> <Gold.PLP.PLP>
-45.7189

> <Gold.PLP.part.hbond>
-3.4252

> <Gold.PLP.part.metal>
0.0000

> <Gold.PLP.part.buried>
-6.3058

> <Gold.PLP.part.nonpolar>
-35.8508

> <Gold.PLP.part.repulsive>
0.0000

> <Gold.PLP.ligand.clash>
0.0000

> <Gold.PLP.ligand.torsion>
0.9603

> <Gold.PLP.Chemscore.Hbond>
1.7360

> <Gold.PLP.Chemscore.CHOScore>
0.0000

> <Gold.PLP.Chemscore.Metal>
0.0000

> <Gold.Chemscore.Hbonds>
donor molecule, donor type, donor heavy atom, donor atom, acceptor molecule, acceptor atom, score
      P1  H  6931  6943       L1    21  1.00
      P1  H  6934  6947       L1    21  0.51

> <Gold.PLP.Chemscore.Internal.Correction>
0.0667

> <Gold.Rescore>
     Score         DG    S(hbond)    S(metal)    S(lipo)     H(rot)  DE(clash)    DE(int)     intcor
     16.64     -17.58       1.39        0.00     115.21       2.36       0.01       0.93       ----

> <Gold.Chemscore.Fitness>
16.6423

> <Gold.Chemscore.DG>
-17.5786

> <Gold.Chemscore.ZeroCoef>
-5.4800

> <Gold.Chemscore.Hbond>
1.3948

> <Gold.Chemscore.Metal>
0.0000

> <Gold.Chemscore.Lipo>
115.2072

> <Gold.Chemscore.Internal_Hbond>
0.0000

> <Gold.Chemscore.DEClash>
0.0073

> <Gold.Chemscore.DEInternal>
0.9290

> <Gold.Chemscore.Rot>
2.3591

> <Gold.Chemscore.Internal.Correction>
   9.000000E+99

> <Gold.Chemscore.Hbonds>
donor molecule, donor type, donor heavy atom, donor atom, acceptor molecule, acceptor atom, score
      P1  H  6931  6943       L1    21  0.83
      P1  H  6934  6947       L1    21  0.46

> <Gold.Chemscore.Hbond.Weighted>
-4.6586

> <Gold.Chemscore.Metal.Weighted>
-0.0000

> <Gold.Chemscore.Lipo.Weighted>
-13.4792

> <Gold.Chemscore.Internal_Hbond.Weighted>
0.0000

> <Gold.Chemscore.DEClash.Weighted>
0.0073

> <Gold.Chemscore.DEInternal.Weighted>
0.9290

> <Gold.Chemscore.Rot.Weighted>
6.0393

> <Gold.Chemscore.Internal.Correction.Weighted>
   9.000000E+99

> <Gold.Protein.RotatedTorsions>
[ 6907 6896 6895 6894 ] final   72.31 input  -60.11 | X-H torsion
[ 7974 7965 7964 7962 ] final   28.65 input  175.53 | X-H torsion
[ 8008 7997 7996 7995 ] final -100.77 input   59.86 | X-H torsion
[ 10167 10162 10161 10158 ] final  -49.82 input  -65.29 | X-H torsion
[ 10718 10713 10712 10709 ] final   77.97 input   66.30 | X-H torsion
[ 10763 10752 10751 10750 ] final  -20.94 input  -60.55 | X-H torsion
[ 11005 11000 10999 10996 ] final   12.38 input  -57.11 | X-H torsion

> <Gold.Protein.ActiveResidues>
 VAL166  LYS551  ARG553  GLY616  TRP617  ASP618  TYR619  PRO620  LYS621  CYS622 
 ASP623  PHE694  ASN695  SER759  ASP760  ASP761  ALA762  ILE779  LEU786  VAL792 
 PHE793  MET794  SER795  GLU796  ALA797  LYS798  CYS799  TRP800  GLU811  SER814 

> <Gold.Protein.RotatedAtoms>
  152.4861  134.4590  159.9598 H   0  0  0  0  0  0  0  0  0  0  0  0  # atno 6907 bound_to 6896
  151.4586  133.3592  159.2813 H   0  0  0  0  0  0  0  0  0  0  0  0  # atno 6908 bound_to 6896
  150.8972  134.8406  159.7395 H   0  0  0  0  0  0  0  0  0  0  0  0  # atno 6909 bound_to 6896
  146.1716  139.7027  142.8963 H   0  0  0  0  0  0  0  0  0  0  0  0  # atno 7974 bound_to 7965
  154.8332  140.0439  157.1491 H   0  0  0  0  0  0  0  0  0  0  0  0  # atno 8008 bound_to 7997
  154.9129  140.3016  155.5236 H   0  0  0  0  0  0  0  0  0  0  0  0  # atno 8009 bound_to 7997
  156.2988  140.2355  156.4170 H   0  0  0  0  0  0  0  0  0  0  0  0  # atno 8010 bound_to 7997
  140.6667  143.2682  151.4270 H   0  0  0  0  0  0  0  0  0  0  0  0  # atno 10167 bound_to 10162
  157.6729  130.9847  150.1719 H   0  0  0  0  0  0  0  0  0  0  0  0  # atno 10718 bound_to 10713
  153.6283  135.6990  153.5285 H   0  0  0  0  0  0  0  0  0  0  0  0  # atno 10763 bound_to 10752
  153.2880  135.4165  155.1140 H   0  0  0  0  0  0  0  0  0  0  0  0  # atno 10764 bound_to 10752
  154.8528  135.3618  154.5825 H   0  0  0  0  0  0  0  0  0  0  0  0  # atno 10765 bound_to 10752
  140.4927  134.0825  155.7775 H   0  0  0  0  0  0  0  0  0  0  0  0  # atno 11005 bound_to 11000
  145.4324  141.0416  143.2903 LP  0  0  0  0  0  0  0  0  0  0  0  0  # atno 17320 bound_to 7965
  144.8172  139.5855  143.7003 LP  0  0  0  0  0  0  0  0  0  0  0  0  # atno 17321 bound_to 7965
  139.5919  144.1481  152.2098 LP  0  0  0  0  0  0  0  0  0  0  0  0  # atno 17342 bound_to 10162
  140.0838  144.5678  150.7103 LP  0  0  0  0  0  0  0  0  0  0  0  0  # atno 17343 bound_to 10162
  156.2471  130.3697  149.8273 LP  0  0  0  0  0  0  0  0  0  0  0  0  # atno 17370 bound_to 10713
  156.6056  130.8565  151.3442 LP  0  0  0  0  0  0  0  0  0  0  0  0  # atno 17371 bound_to 10713
  141.1476  133.9027  157.2177 LP  0  0  0  0  0  0  0  0  0  0  0  0  # atno 17394 bound_to 11000
  139.9760  135.0114  156.9631 LP  0  0  0  0  0  0  0  0  0  0  0  0  # atno 17395 bound_to 11000

$$$$
