AV-unprocessed.smi:618|AV-procd|sdf|3077|dock9
  -GOLD-   22720 0 03D 1   1.00000     0.00000
 Structure written by MMmdl.
 41 43  0  0  0  0  0  0  0  0  2 V2000
  150.3940  140.7119  156.6430 O   0  0  0  0  0  0  0  0  0  0  0  0
  150.1923  141.8995  156.3934 C   0  0  0  0  0  0  0  0  0  0  0  0
  149.4726  142.3194  155.3433 N   0  0  0  0  0  0  0  0  0  0  0  0
  148.8439  141.4505  154.3513 C   0  0  0  0  0  0  0  0  0  0  0  0
  147.3466  141.7557  154.1414 C   0  0  1  0  0  0  0  0  0  0  0  0
  146.4375  141.1912  155.2495 C   0  0  0  0  0  0  0  0  0  0  0  0
  145.0108  141.5182  155.0003 N   0  3  1  0  0  0  0  0  0  0  0  0
  144.1621  141.2563  156.1839 C   0  0  0  0  0  0  0  0  0  0  0  0
  143.9937  142.6027  156.9123 C   0  0  0  0  0  0  0  0  0  0  0  0
  144.6812  143.6453  156.0229 C   0  0  0  0  0  0  0  0  0  0  0  0
  144.7921  142.9435  154.6694 C   0  0  1  0  0  0  0  0  0  0  0  0
  145.8415  143.5139  153.6937 C   0  0  0  0  0  0  0  0  0  0  0  0
  147.1600  143.1639  154.0877 O   0  0  0  0  0  0  0  0  0  0  0  0
  150.6397  142.9390  157.1187 N   0  0  0  0  0  0  0  0  0  0  0  0
  151.4340  142.9342  158.2984 C   0  0  0  0  0  0  0  0  0  0  0  0
  152.1583  141.8155  158.7789 C   0  0  0  0  0  0  0  0  0  0  0  0
  152.9164  141.9519  159.9578 C   0  0  0  0  0  0  0  0  0  0  0  0
  152.9291  143.1997  160.6103 C   0  0  0  0  0  0  0  0  0  0  0  0
  152.2535  144.2768  160.1587 N   0  0  0  0  0  0  0  0  0  0  0  0
  151.5288  144.1387  159.0281 C   0  0  0  0  0  0  0  0  0  0  0  0
  149.3491  143.3138  155.2205 H   0  0  0  0  0  0  0  0  0  0  0  0
  149.3777  141.5059  153.4010 H   0  0  0  0  0  0  0  0  0  0  0  0
  148.9563  140.4237  154.6999 H   0  0  0  0  0  0  0  0  0  0  0  0
  147.0562  141.3242  153.1816 H   0  0  0  0  0  0  0  0  0  0  0  0
  146.5483  140.1084  155.3151 H   0  0  0  0  0  0  0  0  0  0  0  0
  146.7358  141.5983  156.2169 H   0  0  0  0  0  0  0  0  0  0  0  0
  143.1901  140.9044  155.8366 H   0  0  0  0  0  0  0  0  0  0  0  0
  144.5733  140.4796  156.8308 H   0  0  0  0  0  0  0  0  0  0  0  0
  142.9349  142.8343  157.0343 H   0  0  0  0  0  0  0  0  0  0  0  0
  144.4422  142.5826  157.9061 H   0  0  0  0  0  0  0  0  0  0  0  0
  144.1257  144.5819  155.9656 H   0  0  0  0  0  0  0  0  0  0  0  0
  145.6743  143.8709  156.4143 H   0  0  0  0  0  0  0  0  0  0  0  0
  143.8145  143.0125  154.1888 H   0  0  0  0  0  0  0  0  0  0  0  0
  145.6583  143.1425  152.6842 H   0  0  0  0  0  0  0  0  0  0  0  0
  145.7604  144.5999  153.6431 H   0  0  0  0  0  0  0  0  0  0  0  0
  150.3369  143.8518  156.8123 H   0  0  0  0  0  0  0  0  0  0  0  0
  152.1613  140.8647  158.2707 H   0  0  0  0  0  0  0  0  0  0  0  0
  153.4786  141.1180  160.3514 H   0  0  0  0  0  0  0  0  0  0  0  0
  153.5006  143.3379  161.5161 H   0  0  0  0  0  0  0  0  0  0  0  0
  151.0040  145.0228  158.6963 H   0  0  0  0  0  0  0  0  0  0  0  0
  144.6986  140.9496  154.2259 H   0  0  0  0  0  0  0  0  0  0  0  0
  1  2  2  0  0  0  0
  2  3  1  0  0  0  0
  2 14  1  0  0  0  0
  3  4  1  0  0  0  0
  3 21  1  0  0  0  0
  4  5  1  0  0  0  0
  4 22  1  0  0  0  0
  4 23  1  0  0  0  0
  5 13  1  0  0  0  0
  5  6  1  0  0  0  0
  5 24  1  0  0  0  0
  6  7  1  0  0  0  0
  6 25  1  0  0  0  0
  6 26  1  0  0  0  0
  7 11  1  0  0  0  0
  7  8  1  0  0  0  0
  7 41  1  0  0  0  0
  8  9  1  0  0  0  0
  8 27  1  0  0  0  0
  8 28  1  0  0  0  0
  9 10  1  0  0  0  0
  9 29  1  0  0  0  0
  9 30  1  0  0  0  0
 10 11  1  0  0  0  0
 10 31  1  0  0  0  0
 10 32  1  0  0  0  0
 11 12  1  0  0  0  0
 11 33  1  0  0  0  0
 12 13  1  0  0  0  0
 12 34  1  0  0  0  0
 12 35  1  0  0  0  0
 14 15  1  0  0  0  0
 14 36  1  0  0  0  0
 15 20  1  0  0  0  0
 15 16  2  0  0  0  0
 16 17  1  0  0  0  0
 16 37  1  0  0  0  0
 17 18  2  0  0  0  0
 17 38  1  0  0  0  0
 18 19  1  0  0  0  0
 18 39  1  0  0  0  0
 19 20  2  0  0  0  0
 20 40  1  0  0  0  0
M  CHG  1   7   1
M  END
> <s_m_source_file>
AV-unprocessed.smi

> <i_m_source_file_index>
618

> <i_lp_mmshare_version>
43012

> <i_f3d_flags>
0

> <s_epik_input>
W2NIXTFuW2NIXVtjSF1bY0hdYzFbTkhdQyg9TylbTkhdW0NIMl1bQ0BIXShbQ0gyXTIpT1tDSDJdW0NAQEhdKE4yMylbQ0gyXVtDSDJdW0NIMl0z

> <s_epik_cmdline>
J2VwaWtfcHl0aG9uJywgJy1waCcsICc3LjAnLCAnLXRuJywgJzgnLCAnLW1hJywgJzIwMCcsICctbWV0YWxfYmluZGluZycsICctaW1hZScsICc8aW5maWxlLm1hZT4nLCAnLW9tYWUnLCAnPG91dGZpbGUubWFlPic=

> <r_epik_Ionization_Penalty>
0.111044

> <r_epik_Ionization_Penalty_Charging>
0.10673

> <r_epik_Ionization_Penalty_Neutral>
0.00431361

> <r_epik_State_Penalty>
0.0978747

> <r_epik_Charging_Adjusted_Penalty>
0.204605

> <i_epik_Tot_Q>
1

> <i_epik_Tot_abs_Q>
1

> <r_epik_Metal_State_Penalty>
0.0947591

> <b_epik_Metal_Only>
0

> <s_lp_Force_Field>
OPLS_2005

> <r_lp_Energy>
41.8914

> <b_lp_Chiralities_Consistent>
1

> <s_lp_Variant>
AV-unprocessed.smi:618-4

> <Gold.Version>
5.8.1

> <Gold.Id.Protein>
6NUR|6NUR_protein|mol2

> <Gold.PLP.Fitness>
48.0590

> <Gold.PLP.PLP>
-35.8749

> <Gold.PLP.part.hbond>
-3.9633

> <Gold.PLP.part.metal>
0.0000

> <Gold.PLP.part.buried>
-4.7807

> <Gold.PLP.part.nonpolar>
-29.7857

> <Gold.PLP.part.repulsive>
2.7220

> <Gold.PLP.ligand.clash>
0.0000

> <Gold.PLP.ligand.torsion>
0.2226

> <Gold.PLP.Chemscore.Hbond>
4.2095

> <Gold.PLP.Chemscore.CHOScore>
0.0000

> <Gold.PLP.Chemscore.Metal>
0.0000

> <Gold.Chemscore.Hbonds>
donor molecule, donor type, donor heavy atom, donor atom, acceptor molecule, acceptor atom, score
      L1  H     3    21       P1  8028  1.00
      L1  H     7    41       P1 10175  1.85
      L1  H    14    36       P1  8028  0.83
      P1  H  8022  8030       L1    13  0.33

> <Gold.PLP.Chemscore.Internal.Correction>
0.0007

> <Gold.Rescore>
     Score         DG    S(hbond)    S(metal)    S(lipo)     H(rot)  DE(clash)    DE(int)     intcor
     20.16     -22.54       2.89        0.00      90.94       1.27       1.00       1.38       ----

> <Gold.Chemscore.Fitness>
20.1593

> <Gold.Chemscore.DG>
-22.5395

> <Gold.Chemscore.ZeroCoef>
-5.4800

> <Gold.Chemscore.Hbond>
2.8920

> <Gold.Chemscore.Metal>
0.0000

> <Gold.Chemscore.Lipo>
90.9425

> <Gold.Chemscore.Internal_Hbond>
0.0000

> <Gold.Chemscore.DEClash>
1.0019

> <Gold.Chemscore.DEInternal>
1.3784

> <Gold.Chemscore.Rot>
1.2656

> <Gold.Chemscore.Internal.Correction>
   9.000000E+99

> <Gold.Chemscore.Hbonds>
donor molecule, donor type, donor heavy atom, donor atom, acceptor molecule, acceptor atom, score
      L1  H     3    21       P1  8028  0.92
      L1  H     7    41       P1 10175  0.81
      L1  H    14    36       P1  8028  0.76
      P1  H  8022  8030       L1    13  0.25

> <Gold.Chemscore.Hbond.Weighted>
-9.6591

> <Gold.Chemscore.Metal.Weighted>
-0.0000

> <Gold.Chemscore.Lipo.Weighted>
-10.6403

> <Gold.Chemscore.Internal_Hbond.Weighted>
0.0000

> <Gold.Chemscore.DEClash.Weighted>
1.0019

> <Gold.Chemscore.DEInternal.Weighted>
1.3784

> <Gold.Chemscore.Rot.Weighted>
3.2399

> <Gold.Chemscore.Internal.Correction.Weighted>
   9.000000E+99

> <Gold.Protein.RotatedTorsions>
[ 6907 6896 6895 6894 ] final   53.21 input  -60.11 | X-H torsion
[ 7974 7965 7964 7962 ] final   21.90 input  175.53 | X-H torsion
[ 8008 7997 7996 7995 ] final  142.47 input   59.86 | X-H torsion
[ 10167 10162 10161 10158 ] final -103.69 input  -65.29 | X-H torsion
[ 10718 10713 10712 10709 ] final  -51.77 input   66.30 | X-H torsion
[ 10763 10752 10751 10750 ] final -169.65 input  -60.55 | X-H torsion
[ 11005 11000 10999 10996 ] final   84.85 input  -57.11 | X-H torsion

> <Gold.Protein.ActiveResidues>
 VAL166  LYS551  ARG553  GLY616  TRP617  ASP618  TYR619  PRO620  LYS621  CYS622 
 ASP623  PHE694  ASN695  SER759  ASP760  ASP761  ALA762  ILE779  LEU786  VAL792 
 PHE793  MET794  SER795  GLU796  ALA797  LYS798  CYS799  TRP800  GLU811  SER814 

> <Gold.Protein.RotatedAtoms>
  152.3314  134.7255  160.0288 H   0  0  0  0  0  0  0  0  0  0  0  0  # atno 6907 bound_to 6896
  151.7670  133.3333  159.3442 H   0  0  0  0  0  0  0  0  0  0  0  0  # atno 6908 bound_to 6896
  150.7425  134.5985  159.6069 H   0  0  0  0  0  0  0  0  0  0  0  0  # atno 6909 bound_to 6896
  146.2052  139.7962  142.8731 H   0  0  0  0  0  0  0  0  0  0  0  0  # atno 7974 bound_to 7965
  156.2949  140.2288  156.4733 H   0  0  0  0  0  0  0  0  0  0  0  0  # atno 8008 bound_to 7997
  154.7916  140.0454  157.1226 H   0  0  0  0  0  0  0  0  0  0  0  0  # atno 8009 bound_to 7997
  154.9638  140.3058  155.5022 H   0  0  0  0  0  0  0  0  0  0  0  0  # atno 8010 bound_to 7997
  140.2173  143.3702  152.1000 H   0  0  0  0  0  0  0  0  0  0  0  0  # atno 10167 bound_to 10162
  156.1681  130.4149  149.9689 H   0  0  0  0  0  0  0  0  0  0  0  0  # atno 10718 bound_to 10713
  154.6500  135.2910  154.9999 H   0  0  0  0  0  0  0  0  0  0  0  0  # atno 10763 bound_to 10752
  154.1095  135.6564  153.4886 H   0  0  0  0  0  0  0  0  0  0  0  0  # atno 10764 bound_to 10752
  153.0371  135.5262  154.7403 H   0  0  0  0  0  0  0  0  0  0  0  0  # atno 10765 bound_to 10752
  139.8988  134.8245  156.2502 H   0  0  0  0  0  0  0  0  0  0  0  0  # atno 11005 bound_to 11000
  145.3345  141.0274  143.3427 LP  0  0  0  0  0  0  0  0  0  0  0  0  # atno 17320 bound_to 7965
  144.8775  139.4950  143.6738 LP  0  0  0  0  0  0  0  0  0  0  0  0  # atno 17321 bound_to 7965
  139.5157  144.6967  151.5610 LP  0  0  0  0  0  0  0  0  0  0  0  0  # atno 17342 bound_to 10162
  140.6281  143.9130  150.6581 LP  0  0  0  0  0  0  0  0  0  0  0  0  # atno 17343 bound_to 10162
  156.7498  130.9111  151.3637 LP  0  0  0  0  0  0  0  0  0  0  0  0  # atno 17370 bound_to 10713
  157.6782  130.9115  150.0203 LP  0  0  0  0  0  0  0  0  0  0  0  0  # atno 17371 bound_to 10713
  141.0229  133.7031  156.1298 LP  0  0  0  0  0  0  0  0  0  0  0  0  # atno 17394 bound_to 11000
  140.7208  134.4361  157.5575 LP  0  0  0  0  0  0  0  0  0  0  0  0  # atno 17395 bound_to 11000

$$$$
