AV-unprocessed.smi:2990|AV-procd|sdf|11396|dock6
  -GOLD-   2272016323D 1   1.00000     0.00000
 Structure written by MMmdl.
 40 42  0  0  0  0  0  0  0  0  2 V2000
  150.7206  136.3808  155.7302 C   0  0  0  0  0  0  0  0  0  0  0  0
  150.0321  137.6439  155.3342 C   0  0  0  0  0  0  0  0  0  0  0  0
  149.3501  137.8547  154.1730 N   0  3  0  0  0  0  0  0  0  0  0  0
  148.8464  139.1564  154.1505 C   0  0  0  0  0  0  0  0  0  0  0  0
  148.0957  139.8275  153.1902 C   0  0  0  0  0  0  0  0  0  0  0  0
  147.7428  141.1617  153.4818 C   0  0  0  0  0  0  0  0  0  0  0  0
  148.1359  141.7789  154.6874 C   0  0  0  0  0  0  0  0  0  0  0  0
  148.8987  141.0888  155.6528 C   0  0  0  0  0  0  0  0  0  0  0  0
  149.2408  139.7696  155.3571 C   0  0  0  0  0  0  0  0  0  0  0  0
  149.9656  138.7989  156.0565 N   0  0  0  0  0  0  0  0  0  0  0  0
  150.5253  139.1333  157.3746 C   0  0  0  0  0  0  0  0  0  0  0  0
  152.0672  139.1617  157.3865 C   0  0  1  0  0  0  0  0  0  0  0  0
  152.5398  139.9275  156.2963 O   0  0  0  0  0  0  0  0  0  0  0  0
  152.6295  139.7577  158.6846 C   0  0  0  0  0  0  0  0  0  0  0  0
  152.5453  141.1750  158.6127 O   0  0  0  0  0  0  0  0  0  0  0  0
  152.6463  141.8949  159.7838 C   0  0  0  0  0  0  0  0  0  0  0  0
  152.0403  143.1682  159.8063 C   0  0  0  0  0  0  0  0  0  0  0  0
  152.0951  143.9727  160.9608 C   0  0  0  0  0  0  0  0  0  0  0  0
  152.7592  143.5080  162.1109 C   0  0  0  0  0  0  0  0  0  0  0  0
  153.3668  142.2388  162.1034 C   0  0  0  0  0  0  0  0  0  0  0  0
  153.3123  141.4344  160.9482 C   0  0  0  0  0  0  0  0  0  0  0  0
  150.5023  135.5853  155.0174 H   0  0  0  0  0  0  0  0  0  0  0  0
  150.3873  136.0614  156.7179 H   0  0  0  0  0  0  0  0  0  0  0  0
  151.7993  136.5351  155.7591 H   0  0  0  0  0  0  0  0  0  0  0  0
  147.7944  139.3573  152.2656 H   0  0  0  0  0  0  0  0  0  0  0  0
  147.1592  141.7230  152.7664 H   0  0  0  0  0  0  0  0  0  0  0  0
  147.8469  142.8027  154.8756 H   0  0  0  0  0  0  0  0  0  0  0  0
  149.1958  141.5695  156.5731 H   0  0  0  0  0  0  0  0  0  0  0  0
  150.1264  140.1050  157.6681 H   0  0  0  0  0  0  0  0  0  0  0  0
  150.1418  138.4150  158.1002 H   0  0  0  0  0  0  0  0  0  0  0  0
  152.4573  138.1508  157.2664 H   0  0  0  0  0  0  0  0  0  0  0  0
  151.9067  139.8743  155.5971 H   0  0  0  0  0  0  0  0  0  0  0  0
  152.0452  139.4019  159.5352 H   0  0  0  0  0  0  0  0  0  0  0  0
  153.6635  139.4381  158.8253 H   0  0  0  0  0  0  0  0  0  0  0  0
  151.5289  143.5332  158.9276 H   0  0  0  0  0  0  0  0  0  0  0  0
  151.6273  144.9462  160.9632 H   0  0  0  0  0  0  0  0  0  0  0  0
  152.8021  144.1236  162.9973 H   0  0  0  0  0  0  0  0  0  0  0  0
  153.8761  141.8801  162.9857 H   0  0  0  0  0  0  0  0  0  0  0  0
  153.7888  140.4667  160.9819 H   0  0  0  0  0  0  0  0  0  0  0  0
  149.2402  137.1569  153.4484 H   0  0  0  0  0  0  0  0  0  0  0  0
  1  2  1  0  0  0  0
  1 22  1  0  0  0  0
  1 23  1  0  0  0  0
  1 24  1  0  0  0  0
  2 10  1  0  0  0  0
  2  3  2  0  0  0  0
  3  4  1  0  0  0  0
  3 40  1  0  0  0  0
  4  9  2  0  0  0  0
  4  5  1  0  0  0  0
  5  6  2  0  0  0  0
  5 25  1  0  0  0  0
  6  7  1  0  0  0  0
  6 26  1  0  0  0  0
  7  8  2  0  0  0  0
  7 27  1  0  0  0  0
  8  9  1  0  0  0  0
  8 28  1  0  0  0  0
  9 10  1  0  0  0  0
 10 11  1  0  0  0  0
 11 12  1  0  0  0  0
 11 29  1  0  0  0  0
 11 30  1  0  0  0  0
 12 13  1  0  0  0  0
 12 14  1  0  0  0  0
 12 31  1  0  0  0  0
 13 32  1  0  0  0  0
 14 15  1  0  0  0  0
 14 33  1  0  0  0  0
 14 34  1  0  0  0  0
 15 16  1  0  0  0  0
 16 21  1  0  0  0  0
 16 17  2  0  0  0  0
 17 18  1  0  0  0  0
 17 35  1  0  0  0  0
 18 19  2  0  0  0  0
 18 36  1  0  0  0  0
 19 20  1  0  0  0  0
 19 37  1  0  0  0  0
 20 21  2  0  0  0  0
 20 38  1  0  0  0  0
 21 39  1  0  0  0  0
M  CHG  1   3   1
M  END
> <s_m_source_file>
AV-unprocessed.smi

> <i_m_source_file_index>
2990

> <i_lp_mmshare_version>
43012

> <i_f3d_flags>
0

> <s_epik_input>
W2NIXTFbY0hdW2NIXVtjSF1jKGMxMiluKGMobjIpW0NIM10pW0NIMl1bQ0BIXShbT0hdKVtDSDJdT2MzW2NIXVtjSF1bY0hdW2NIXVtjSF0z

> <s_epik_cmdline>
J2VwaWtfcHl0aG9uJywgJy1waCcsICc3LjAnLCAnLXRuJywgJzgnLCAnLW1hJywgJzIwMCcsICctbWV0YWxfYmluZGluZycsICctaW1hZScsICc8aW5maWxlLm1hZT4nLCAnLW9tYWUnLCAnPG91dGZpbGUubWFlPic=

> <r_lp_tautomer_probability>
1

> <r_epik_Ionization_Penalty>
1.00673

> <r_epik_Ionization_Penalty_Charging>
1.00673

> <r_epik_Ionization_Penalty_Neutral>
2.3993e-06

> <r_epik_State_Penalty>
1.05579

> <r_epik_Charging_Adjusted_Penalty>
2.06252

> <i_epik_Tot_Q>
1

> <i_epik_Tot_abs_Q>
1

> <r_epik_Metal_State_Penalty>
5.03947

> <b_epik_Metal_Only>
0

> <s_lp_Force_Field>
OPLS_2005

> <r_lp_Energy>
17.9265

> <b_lp_Chiralities_Consistent>
1

> <s_lp_Variant>
AV-unprocessed.smi:2990-4

> <Gold.Version>
5.8.1

> <Gold.Id.Protein>
6NUR|6NUR_protein|mol2

> <Gold.PLP.Fitness>
48.0646

> <Gold.PLP.PLP>
-40.4002

> <Gold.PLP.part.hbond>
-2.0000

> <Gold.PLP.part.metal>
0.0000

> <Gold.PLP.part.buried>
-0.8747

> <Gold.PLP.part.nonpolar>
-36.0419

> <Gold.PLP.part.repulsive>
0.0069

> <Gold.PLP.ligand.clash>
0.0000

> <Gold.PLP.ligand.torsion>
0.6872

> <Gold.PLP.Chemscore.Hbond>
3.0000

> <Gold.PLP.Chemscore.CHOScore>
0.0000

> <Gold.PLP.Chemscore.Metal>
0.0000

> <Gold.Chemscore.Hbonds>
donor molecule, donor type, donor heavy atom, donor atom, acceptor molecule, acceptor atom, score
      L1  H     3    40       P1  7948  2.00
      P1  H  7997  8008       L1    13  1.00

> <Gold.PLP.Chemscore.Internal.Correction>
0.0388

> <Gold.Rescore>
     Score         DG    S(hbond)    S(metal)    S(lipo)     H(rot)  DE(clash)    DE(int)     intcor
     18.79     -20.79       1.92        0.00     122.24       2.12       1.34       0.66       ----

> <Gold.Chemscore.Fitness>
18.7902

> <Gold.Chemscore.DG>
-20.7868

> <Gold.Chemscore.ZeroCoef>
-5.4800

> <Gold.Chemscore.Hbond>
1.9244

> <Gold.Chemscore.Metal>
0.0000

> <Gold.Chemscore.Lipo>
122.2437

> <Gold.Chemscore.Internal_Hbond>
0.0000

> <Gold.Chemscore.DEClash>
1.3399

> <Gold.Chemscore.DEInternal>
0.6568

> <Gold.Chemscore.Rot>
2.1184

> <Gold.Chemscore.Internal.Correction>
   9.000000E+99

> <Gold.Chemscore.Hbonds>
donor molecule, donor type, donor heavy atom, donor atom, acceptor molecule, acceptor atom, score
      L1  H     3    40       P1  7948  0.99
      P1  H  7997  8008       L1    13  0.93

> <Gold.Chemscore.Hbond.Weighted>
-6.4275

> <Gold.Chemscore.Metal.Weighted>
-0.0000

> <Gold.Chemscore.Lipo.Weighted>
-14.3025

> <Gold.Chemscore.Internal_Hbond.Weighted>
0.0000

> <Gold.Chemscore.DEClash.Weighted>
1.3399

> <Gold.Chemscore.DEInternal.Weighted>
0.6568

> <Gold.Chemscore.Rot.Weighted>
5.4231

> <Gold.Chemscore.Internal.Correction.Weighted>
   9.000000E+99

> <Gold.Protein.RotatedTorsions>
[ 6907 6896 6895 6894 ] final   78.87 input  -60.11 | X-H torsion
[ 7974 7965 7964 7962 ] final   55.59 input  175.53 | X-H torsion
[ 8008 7997 7996 7995 ] final  -27.25 input   59.86 | X-H torsion
[ 10167 10162 10161 10158 ] final   -7.47 input  -65.29 | X-H torsion
[ 10718 10713 10712 10709 ] final  -83.69 input   66.30 | X-H torsion
[ 10763 10752 10751 10750 ] final   74.50 input  -60.55 | X-H torsion
[ 11005 11000 10999 10996 ] final  165.00 input  -57.11 | X-H torsion

> <Gold.Protein.ActiveResidues>
 VAL166  LYS551  ARG553  GLY616  TRP617  ASP618  TYR619  PRO620  LYS621  CYS622 
 ASP623  PHE694  ASN695  SER759  ASP760  ASP761  ALA762  ILE779  LEU786  VAL792 
 PHE793  MET794  SER795  GLU796  ALA797  LYS798  CYS799  TRP800  GLU811  SER814 

> <Gold.Protein.RotatedAtoms>
  152.5177  134.3597  159.9280 H   0  0  0  0  0  0  0  0  0  0  0  0  # atno 6907 bound_to 6896
  151.3549  133.3905  159.2691 H   0  0  0  0  0  0  0  0  0  0  0  0  # atno 6908 bound_to 6896
  150.9697  134.9091  159.7839 H   0  0  0  0  0  0  0  0  0  0  0  0  # atno 6909 bound_to 6896
  145.9488  139.3953  143.0319 H   0  0  0  0  0  0  0  0  0  0  0  0  # atno 7974 bound_to 7965
  154.4386  140.1877  156.0902 H   0  0  0  0  0  0  0  0  0  0  0  0  # atno 8008 bound_to 7997
  156.0371  140.3324  155.7177 H   0  0  0  0  0  0  0  0  0  0  0  0  # atno 8009 bound_to 7997
  155.5754  140.0616  157.2787 H   0  0  0  0  0  0  0  0  0  0  0  0  # atno 8010 bound_to 7997
  140.7030  143.6077  150.8734 H   0  0  0  0  0  0  0  0  0  0  0  0  # atno 10167 bound_to 10162
  156.0015  130.4673  150.4296 H   0  0  0  0  0  0  0  0  0  0  0  0  # atno 10718 bound_to 10713
  153.0591  135.5023  154.8051 H   0  0  0  0  0  0  0  0  0  0  0  0  # atno 10763 bound_to 10752
  154.6854  135.2975  154.9557 H   0  0  0  0  0  0  0  0  0  0  0  0  # atno 10764 bound_to 10752
  154.0329  135.6727  153.4835 H   0  0  0  0  0  0  0  0  0  0  0  0  # atno 10765 bound_to 10752
  140.2517  134.7972  157.3507 H   0  0  0  0  0  0  0  0  0  0  0  0  # atno 11005 bound_to 11000
  145.8200  140.9684  143.0904 LP  0  0  0  0  0  0  0  0  0  0  0  0  # atno 17320 bound_to 7965
  144.6792  140.0029  143.7484 LP  0  0  0  0  0  0  0  0  0  0  0  0  # atno 17321 bound_to 7965
  139.9801  143.5961  152.2946 LP  0  0  0  0  0  0  0  0  0  0  0  0  # atno 17342 bound_to 10162
  139.6579  144.7662  151.2020 LP  0  0  0  0  0  0  0  0  0  0  0  0  # atno 17343 bound_to 10162
  157.2345  131.0511  151.2472 LP  0  0  0  0  0  0  0  0  0  0  0  0  # atno 17370 bound_to 10713
  157.3679  130.7165  149.6545 LP  0  0  0  0  0  0  0  0  0  0  0  0  # atno 17371 bound_to 10713
  140.1552  134.4799  155.7933 LP  0  0  0  0  0  0  0  0  0  0  0  0  # atno 17394 bound_to 11000
  141.2200  133.6878  156.7448 LP  0  0  0  0  0  0  0  0  0  0  0  0  # atno 17395 bound_to 11000

$$$$
