AV-unprocessed.smi:3301|AV-procd|sdf|12654|dock3
  -GOLD-   2272018593D 1   1.00000     0.00000
 Structure written by MMmdl.
 36 37  0  0  0  0  0  0  0  0  1 V2000
  149.5746  141.5165  157.9637 C   0  0  0  0  0  0  0  0  0  0  0  0
  151.1081  141.5412  158.0128 C   0  0  2  0  0  0  0  0  0  0  0  0
  151.6636  142.8991  157.5313 C   0  0  0  0  0  0  0  0  0  0  0  0
  151.6594  143.9099  158.5734 N   0  0  0  0  0  0  0  0  0  0  0  0
  152.3413  143.8702  159.7825 C   0  0  0  0  0  0  0  0  0  0  0  0
  152.0257  145.0313  160.4506 C   0  0  0  0  0  0  0  0  0  0  0  0
  151.1663  145.8020  159.6710 N   0  0  0  0  0  0  0  0  0  0  0  0
  150.9973  145.0751  158.5740 C   0  0  0  0  0  0  0  0  0  0  0  0
  151.6282  140.4462  157.1942 N   0  0  0  0  0  0  0  0  0  0  0  0
  151.3421  140.2337  155.8999 C   0  0  0  0  0  0  0  0  0  0  0  0
  150.6264  140.9814  155.2323 O   0  0  0  0  0  0  0  0  0  0  0  0
  151.9700  138.9897  155.2616 C   0  0  0  0  0  0  0  0  0  0  0  0
  151.0552  137.8483  155.2620 N   0  0  0  0  0  0  0  0  0  0  0  0
  149.7329  137.9529  154.6677 C   0  0  0  0  0  0  0  0  0  0  0  0
  149.0010  136.6744  155.1004 C   0  0  0  0  0  0  0  0  0  0  0  0
  150.0873  135.7308  155.6283 C   0  0  0  0  0  0  0  0  0  0  0  0
  151.2938  136.6398  155.7867 C   0  0  0  0  0  0  0  0  0  0  0  0
  152.3357  136.2782  156.3319 O   0  0  0  0  0  0  0  0  0  0  0  0
  149.1500  142.2997  158.5924 H   0  0  0  0  0  0  0  0  0  0  0  0
  149.1853  140.5625  158.3208 H   0  0  0  0  0  0  0  0  0  0  0  0
  149.2060  141.6688  156.9487 H   0  0  0  0  0  0  0  0  0  0  0  0
  151.3973  141.3947  159.0551 H   0  0  0  0  0  0  0  0  0  0  0  0
  152.6820  142.7853  157.1568 H   0  0  0  0  0  0  0  0  0  0  0  0
  151.0663  143.2754  156.7001 H   0  0  0  0  0  0  0  0  0  0  0  0
  152.9671  143.0369  160.0660 H   0  0  0  0  0  0  0  0  0  0  0  0
  152.3489  145.3685  161.4243 H   0  0  0  0  0  0  0  0  0  0  0  0
  150.3699  145.3935  157.7546 H   0  0  0  0  0  0  0  0  0  0  0  0
  152.2315  139.7820  157.6573 H   0  0  0  0  0  0  0  0  0  0  0  0
  152.2566  139.2301  154.2371 H   0  0  0  0  0  0  0  0  0  0  0  0
  152.8885  138.7197  155.7861 H   0  0  0  0  0  0  0  0  0  0  0  0
  149.2129  138.8504  155.0055 H   0  0  0  0  0  0  0  0  0  0  0  0
  149.8295  138.0008  153.5823 H   0  0  0  0  0  0  0  0  0  0  0  0
  148.2910  136.9020  155.8968 H   0  0  0  0  0  0  0  0  0  0  0  0
  148.4393  136.2323  154.2770 H   0  0  0  0  0  0  0  0  0  0  0  0
  149.8084  135.2698  156.5764 H   0  0  0  0  0  0  0  0  0  0  0  0
  150.3171  134.9446  154.9085 H   0  0  0  0  0  0  0  0  0  0  0  0
  1  2  1  0  0  0  0
  1 19  1  0  0  0  0
  1 20  1  0  0  0  0
  1 21  1  0  0  0  0
  2  3  1  0  0  0  0
  2  9  1  0  0  0  0
  2 22  1  0  0  0  0
  3  4  1  0  0  0  0
  3 23  1  0  0  0  0
  3 24  1  0  0  0  0
  4  8  1  0  0  0  0
  4  5  1  0  0  0  0
  5  6  2  0  0  0  0
  5 25  1  0  0  0  0
  6  7  1  0  0  0  0
  6 26  1  0  0  0  0
  7  8  2  0  0  0  0
  8 27  1  0  0  0  0
  9 10  1  0  0  0  0
  9 28  1  0  0  0  0
 10 11  2  0  0  0  0
 10 12  1  0  0  0  0
 12 13  1  0  0  0  0
 12 29  1  0  0  0  0
 12 30  1  0  0  0  0
 13 17  1  0  0  0  0
 13 14  1  0  0  0  0
 14 15  1  0  0  0  0
 14 31  1  0  0  0  0
 14 32  1  0  0  0  0
 15 16  1  0  0  0  0
 15 33  1  0  0  0  0
 15 34  1  0  0  0  0
 16 17  1  0  0  0  0
 16 35  1  0  0  0  0
 16 36  1  0  0  0  0
 17 18  2  0  0  0  0
M  END
> <s_m_source_file>
AV-unprocessed.smi

> <i_m_source_file_index>
3301

> <i_lp_mmshare_version>
43012

> <i_f3d_flags>
0

> <s_epik_input>
W2NIXTFuW2NIXVtjSF1uMVtDSDJdW0NAQEhdKFtDSDNdKVtOSF1DKD1PKVtDSDJdTjJbQ0gyXVtDSDJdW0NIMl1DMj1P

> <s_epik_cmdline>
J2VwaWtfcHl0aG9uJywgJy1waCcsICc3LjAnLCAnLXRuJywgJzgnLCAnLW1hJywgJzIwMCcsICctbWV0YWxfYmluZGluZycsICctaW1hZScsICc8aW5maWxlLm1hZT4nLCAnLW9tYWUnLCAnPG91dGZpbGUubWFlPic=

> <r_lp_tautomer_probability>
1

> <r_epik_Ionization_Penalty>
0.623868

> <r_epik_Ionization_Penalty_Charging>
0.623868

> <r_epik_Ionization_Penalty_Neutral>
4.45089e-08

> <r_epik_State_Penalty>
0.640129

> <r_epik_Charging_Adjusted_Penalty>
1.264

> <i_epik_Tot_Q>
0

> <i_epik_Tot_abs_Q>
0

> <r_epik_Metal_State_Penalty>
0.307431

> <b_epik_Metal_Only>
0

> <s_lp_Force_Field>
OPLS_2005

> <r_lp_Energy>
13.1823

> <b_lp_Chiralities_Consistent>
1

> <s_lp_Variant>
AV-unprocessed.smi:3301-3

> <Gold.Version>
5.8.1

> <Gold.Id.Protein>
6NUR|6NUR_protein|mol2

> <Gold.PLP.Fitness>
41.4493

> <Gold.PLP.PLP>
-35.0220

> <Gold.PLP.part.hbond>
-3.9221

> <Gold.PLP.part.metal>
0.0000

> <Gold.PLP.part.buried>
-4.3788

> <Gold.PLP.part.nonpolar>
-27.6353

> <Gold.PLP.part.repulsive>
0.3791

> <Gold.PLP.ligand.clash>
0.0000

> <Gold.PLP.ligand.torsion>
0.6463

> <Gold.PLP.Chemscore.Hbond>
1.7520

> <Gold.PLP.Chemscore.CHOScore>
0.7958

> <Gold.PLP.Chemscore.Metal>
0.0000

> <Gold.Chemscore.Hbonds>
donor molecule, donor type, donor heavy atom, donor atom, acceptor molecule, acceptor atom, score
      P1  H  7989  7998       L1    11  0.70
      P1  H 10752 10764       L1    18  1.00
      L1  C     8    27       P1  8028  0.32
      L1  C     8    27       P1  8029  0.46

> <Gold.PLP.Chemscore.Internal.Correction>
0.0766

> <Gold.Rescore>
     Score         DG    S(hbond)    S(metal)    S(lipo)     H(rot)  DE(clash)    DE(int)     intcor
      9.65     -11.60       1.30        0.00      64.70       2.26       0.15       1.80       ----

> <Gold.Chemscore.Fitness>
9.6532

> <Gold.Chemscore.DG>
-11.5997

> <Gold.Chemscore.ZeroCoef>
-5.4800

> <Gold.Chemscore.Hbond>
1.3017

> <Gold.Chemscore.Metal>
0.0000

> <Gold.Chemscore.Lipo>
64.6977

> <Gold.Chemscore.Internal_Hbond>
0.0000

> <Gold.Chemscore.DEClash>
0.1513

> <Gold.Chemscore.DEInternal>
1.7952

> <Gold.Chemscore.Rot>
2.2647

> <Gold.Chemscore.Internal.Correction>
   9.000000E+99

> <Gold.Chemscore.Hbonds>
donor molecule, donor type, donor heavy atom, donor atom, acceptor molecule, acceptor atom, score
      P1  H  7989  7998       L1    11  0.15
      P1  H 10752 10764       L1    18  0.81

> <Gold.Chemscore.Hbond.Weighted>
-4.3475

> <Gold.Chemscore.Metal.Weighted>
-0.0000

> <Gold.Chemscore.Lipo.Weighted>
-7.5696

> <Gold.Chemscore.Internal_Hbond.Weighted>
0.0000

> <Gold.Chemscore.DEClash.Weighted>
0.1513

> <Gold.Chemscore.DEInternal.Weighted>
1.7952

> <Gold.Chemscore.Rot.Weighted>
5.7975

> <Gold.Chemscore.Internal.Correction.Weighted>
   9.000000E+99

> <Gold.Protein.RotatedTorsions>
[ 6907 6896 6895 6894 ] final -151.33 input  -60.11 | X-H torsion
[ 7974 7965 7964 7962 ] final    4.63 input  175.53 | X-H torsion
[ 8008 7997 7996 7995 ] final   65.91 input   59.86 | X-H torsion
[ 10167 10162 10161 10158 ] final  -70.09 input  -65.29 | X-H torsion
[ 10718 10713 10712 10709 ] final  171.17 input   66.30 | X-H torsion
[ 10763 10752 10751 10750 ] final  -11.68 input  -60.55 | X-H torsion
[ 11005 11000 10999 10996 ] final  -47.51 input  -57.11 | X-H torsion

> <Gold.Protein.ActiveResidues>
 VAL166  LYS551  ARG553  GLY616  TRP617  ASP618  TYR619  PRO620  LYS621  CYS622 
 ASP623  PHE694  ASN695  SER759  ASP760  ASP761  ALA762  ILE779  LEU786  VAL792 
 PHE793  MET794  SER795  GLU796  ALA797  LYS798  CYS799  TRP800  GLU811  SER814 

> <Gold.Protein.RotatedAtoms>
  151.2116  133.4553  159.2598 H   0  0  0  0  0  0  0  0  0  0  0  0  # atno 6907 bound_to 6896
  151.0971  134.9951  159.8441 H   0  0  0  0  0  0  0  0  0  0  0  0  # atno 6908 bound_to 6896
  152.5440  134.2045  159.8778 H   0  0  0  0  0  0  0  0  0  0  0  0  # atno 6909 bound_to 6896
  146.2443  140.0506  142.8375 H   0  0  0  0  0  0  0  0  0  0  0  0  # atno 7974 bound_to 7965
  155.6692  140.3497  155.4812 H   0  0  0  0  0  0  0  0  0  0  0  0  # atno 8008 bound_to 7997
  155.9703  140.1154  157.0841 H   0  0  0  0  0  0  0  0  0  0  0  0  # atno 8009 bound_to 7997
  154.4164  140.1158  156.5283 H   0  0  0  0  0  0  0  0  0  0  0  0  # atno 8010 bound_to 7997
  140.5379  143.2316  151.7142 H   0  0  0  0  0  0  0  0  0  0  0  0  # atno 10167 bound_to 10162
  156.9974  131.0166  151.2840 H   0  0  0  0  0  0  0  0  0  0  0  0  # atno 10718 bound_to 10713
  153.4873  135.7017  153.5904 H   0  0  0  0  0  0  0  0  0  0  0  0  # atno 10763 bound_to 10752
  153.4091  135.3853  155.2038 H   0  0  0  0  0  0  0  0  0  0  0  0  # atno 10764 bound_to 10752
  154.8718  135.3900  154.4330 H   0  0  0  0  0  0  0  0  0  0  0  0  # atno 10765 bound_to 10752
  141.0645  133.6698  156.3307 H   0  0  0  0  0  0  0  0  0  0  0  0  # atno 11005 bound_to 11000
  145.0988  140.9332  143.4725 LP  0  0  0  0  0  0  0  0  0  0  0  0  # atno 17320 bound_to 7965
  145.0694  139.3043  143.5839 LP  0  0  0  0  0  0  0  0  0  0  0  0  # atno 17321 bound_to 7965
  139.4978  144.4014  152.0178 LP  0  0  0  0  0  0  0  0  0  0  0  0  # atno 17342 bound_to 10162
  140.3120  144.3527  150.6031 LP  0  0  0  0  0  0  0  0  0  0  0  0  # atno 17343 bound_to 10162
  157.5415  130.8123  149.8034 LP  0  0  0  0  0  0  0  0  0  0  0  0  # atno 17370 bound_to 10713
  156.0184  130.3805  150.2038 LP  0  0  0  0  0  0  0  0  0  0  0  0  # atno 17371 bound_to 10713
  140.5802  134.5753  157.5478 LP  0  0  0  0  0  0  0  0  0  0  0  0  # atno 17394 bound_to 11000
  139.9463  134.7696  156.0554 LP  0  0  0  0  0  0  0  0  0  0  0  0  # atno 17395 bound_to 11000

$$$$
