AV-unprocessed.smi:2191|AV-procd|sdf|8893|dock7
  -GOLD-   2272012103D 1   1.00000     0.00000
 Structure written by MMmdl.
 36 38  0  0  0  0  0  0  0  0  1 V2000
  153.3434  139.0099  156.8408 O   0  0  0  0  0  0  0  0  0  0  0  0
  152.1119  139.6797  157.0291 C   0  0  1  0  0  0  0  0  0  0  0  0
  152.2615  140.6399  158.2194 C   0  0  0  0  0  0  0  0  0  0  0  0
  151.8113  141.9299  157.8277 O   0  0  0  0  0  0  0  0  0  0  0  0
  151.8130  142.9371  158.7691 C   0  0  0  0  0  0  0  0  0  0  0  0
  151.5366  144.2415  158.3095 C   0  0  0  0  0  0  0  0  0  0  0  0
  151.5192  145.3318  159.2005 C   0  0  0  0  0  0  0  0  0  0  0  0
  151.7791  145.1265  160.5680 C   0  0  0  0  0  0  0  0  0  0  0  0
  152.0549  143.8301  161.0412 C   0  0  0  0  0  0  0  0  0  0  0  0
  152.0732  142.7398  160.1494 C   0  0  0  0  0  0  0  0  0  0  0  0
  151.7406  140.4263  155.7330 C   0  0  0  0  0  0  0  0  0  0  0  0
  150.6698  139.7752  154.9986 N   0  0  0  0  0  0  0  0  0  0  0  0
  150.6186  138.4846  154.6166 C   0  0  0  0  0  0  0  0  0  0  0  0
  149.5378  138.0880  153.9508 N   0  0  0  0  0  0  0  0  0  0  0  0
  148.7998  139.2580  153.8946 C   0  0  0  0  0  0  0  0  0  0  0  0
  147.5356  139.5177  153.3184 C   0  0  0  0  0  0  0  0  0  0  0  0
  146.9703  140.8081  153.3877 C   0  0  0  0  0  0  0  0  0  0  0  0
  147.6593  141.8573  154.0304 C   0  0  0  0  0  0  0  0  0  0  0  0
  148.9211  141.6231  154.6101 C   0  0  0  0  0  0  0  0  0  0  0  0
  149.4805  140.3334  154.5417 C   0  0  0  0  0  0  0  0  0  0  0  0
  153.2053  138.2959  156.2371 H   0  0  0  0  0  0  0  0  0  0  0  0
  151.3377  138.9427  157.2467 H   0  0  0  0  0  0  0  0  0  0  0  0
  151.7143  140.2663  159.0871 H   0  0  0  0  0  0  0  0  0  0  0  0
  153.3149  140.7132  158.4950 H   0  0  0  0  0  0  0  0  0  0  0  0
  151.3360  144.4078  157.2611 H   0  0  0  0  0  0  0  0  0  0  0  0
  151.3063  146.3250  158.8343 H   0  0  0  0  0  0  0  0  0  0  0  0
  151.7668  145.9616  161.2528 H   0  0  0  0  0  0  0  0  0  0  0  0
  152.2535  143.6711  162.0907 H   0  0  0  0  0  0  0  0  0  0  0  0
  152.2898  141.7612  160.5502 H   0  0  0  0  0  0  0  0  0  0  0  0
  151.4225  141.4442  155.9627 H   0  0  0  0  0  0  0  0  0  0  0  0
  152.6105  140.5132  155.0808 H   0  0  0  0  0  0  0  0  0  0  0  0
  151.4216  137.7974  154.8400 H   0  0  0  0  0  0  0  0  0  0  0  0
  146.9991  138.7219  152.8231 H   0  0  0  0  0  0  0  0  0  0  0  0
  146.0027  140.9938  152.9449 H   0  0  0  0  0  0  0  0  0  0  0  0
  147.2193  142.8427  154.0774 H   0  0  0  0  0  0  0  0  0  0  0  0
  149.4530  142.4249  155.1001 H   0  0  0  0  0  0  0  0  0  0  0  0
  1  2  1  0  0  0  0
  1 21  1  0  0  0  0
  2  3  1  0  0  0  0
  2 11  1  0  0  0  0
  2 22  1  0  0  0  0
  3  4  1  0  0  0  0
  3 23  1  0  0  0  0
  3 24  1  0  0  0  0
  4  5  1  0  0  0  0
  5 10  1  0  0  0  0
  5  6  2  0  0  0  0
  6  7  1  0  0  0  0
  6 25  1  0  0  0  0
  7  8  2  0  0  0  0
  7 26  1  0  0  0  0
  8  9  1  0  0  0  0
  8 27  1  0  0  0  0
  9 10  2  0  0  0  0
  9 28  1  0  0  0  0
 10 29  1  0  0  0  0
 11 12  1  0  0  0  0
 11 30  1  0  0  0  0
 11 31  1  0  0  0  0
 12 20  1  0  0  0  0
 12 13  1  0  0  0  0
 13 14  2  0  0  0  0
 13 32  1  0  0  0  0
 14 15  1  0  0  0  0
 15 20  2  0  0  0  0
 15 16  1  0  0  0  0
 16 17  2  0  0  0  0
 16 33  1  0  0  0  0
 17 18  1  0  0  0  0
 17 34  1  0  0  0  0
 18 19  2  0  0  0  0
 18 35  1  0  0  0  0
 19 20  1  0  0  0  0
 19 36  1  0  0  0  0
M  END
> <s_m_source_file>
AV-unprocessed.smi

> <i_m_source_file_index>
2191

> <i_lp_mmshare_version>
43012

> <i_f3d_flags>
0

> <s_epik_input>
W2NIXTFbY0hdW2NIXVtjSF1jKGMxMiluKFtjSF1uMilbQ0gyXVtDQEhdKFtPSF0pW0NIMl1PYzNbY0hdW2NIXVtjSF1bY0hdW2NIXTM=

> <s_epik_cmdline>
J2VwaWtfcHl0aG9uJywgJy1waCcsICc3LjAnLCAnLXRuJywgJzgnLCAnLW1hJywgJzIwMCcsICctbWV0YWxfYmluZGluZycsICctaW1hZScsICc8aW5maWxlLm1hZT4nLCAnLW9tYWUnLCAnPG91dGZpbGUubWFlPic=

> <r_lp_tautomer_probability>
1

> <r_epik_Ionization_Penalty>
0.0640132

> <r_epik_Ionization_Penalty_Charging>
0

> <r_epik_Ionization_Penalty_Neutral>
0.0640132

> <r_epik_State_Penalty>
0.0557325

> <r_epik_Charging_Adjusted_Penalty>
0.0557325

> <i_epik_Tot_Q>
0

> <i_epik_Tot_abs_Q>
0

> <r_epik_Metal_State_Penalty>
5.8435e-05

> <b_epik_Metal_Only>
0

> <s_lp_Force_Field>
OPLS_2005

> <r_lp_Energy>
16.2786

> <b_lp_Chiralities_Consistent>
1

> <s_lp_Variant>
AV-unprocessed.smi:2191-2

> <Gold.Version>
5.8.1

> <Gold.Id.Protein>
6NUR|6NUR_protein|mol2

> <Gold.PLP.Fitness>
48.4383

> <Gold.PLP.PLP>
-48.3521

> <Gold.PLP.part.hbond>
-1.0000

> <Gold.PLP.part.metal>
0.0000

> <Gold.PLP.part.buried>
-1.6152

> <Gold.PLP.part.nonpolar>
-45.6361

> <Gold.PLP.part.repulsive>
0.7065

> <Gold.PLP.ligand.clash>
0.0000

> <Gold.PLP.ligand.torsion>
1.4794

> <Gold.PLP.Chemscore.Hbond>
1.0000

> <Gold.PLP.Chemscore.CHOScore>
0.0000

> <Gold.PLP.Chemscore.Metal>
0.0000

> <Gold.Chemscore.Hbonds>
donor molecule, donor type, donor heavy atom, donor atom, acceptor molecule, acceptor atom, score
      P1  H  7997  8009       L1     1  0.91

> <Gold.PLP.Chemscore.Internal.Correction>
0.0451

> <Gold.Rescore>
     Score         DG    S(hbond)    S(metal)    S(lipo)     H(rot)  DE(clash)    DE(int)     intcor
     15.93     -17.45       0.77        0.00     128.94       2.22       0.17       1.36       ----

> <Gold.Chemscore.Fitness>
15.9277

> <Gold.Chemscore.DG>
-17.4519

> <Gold.Chemscore.ZeroCoef>
-5.4800

> <Gold.Chemscore.Hbond>
0.7694

> <Gold.Chemscore.Metal>
0.0000

> <Gold.Chemscore.Lipo>
128.9355

> <Gold.Chemscore.Internal_Hbond>
0.0000

> <Gold.Chemscore.DEClash>
0.1658

> <Gold.Chemscore.DEInternal>
1.3585

> <Gold.Chemscore.Rot>
2.2200

> <Gold.Chemscore.Internal.Correction>
   9.000000E+99

> <Gold.Chemscore.Hbonds>
donor molecule, donor type, donor heavy atom, donor atom, acceptor molecule, acceptor atom, score
      P1  H  7997  8009       L1     1  0.52

> <Gold.Chemscore.Hbond.Weighted>
-2.5697

> <Gold.Chemscore.Metal.Weighted>
-0.0000

> <Gold.Chemscore.Lipo.Weighted>
-15.0855

> <Gold.Chemscore.Internal_Hbond.Weighted>
0.0000

> <Gold.Chemscore.DEClash.Weighted>
0.1658

> <Gold.Chemscore.DEInternal.Weighted>
1.3585

> <Gold.Chemscore.Rot.Weighted>
5.6832

> <Gold.Chemscore.Internal.Correction.Weighted>
   9.000000E+99

> <Gold.Protein.RotatedTorsions>
[ 6907 6896 6895 6894 ] final   21.25 input  -60.11 | X-H torsion
[ 7974 7965 7964 7962 ] final  126.93 input  175.53 | X-H torsion
[ 8008 7997 7996 7995 ] final -177.66 input   59.86 | X-H torsion
[ 10167 10162 10161 10158 ] final   95.62 input  -65.29 | X-H torsion
[ 10718 10713 10712 10709 ] final  123.59 input   66.30 | X-H torsion
[ 10763 10752 10751 10750 ] final  151.56 input  -60.55 | X-H torsion
[ 11005 11000 10999 10996 ] final  152.50 input  -57.11 | X-H torsion

> <Gold.Protein.ActiveResidues>
 VAL166  LYS551  ARG553  GLY616  TRP617  ASP618  TYR619  PRO620  LYS621  CYS622 
 ASP623  PHE694  ASN695  SER759  ASP760  ASP761  ALA762  ILE779  LEU786  VAL792 
 PHE793  MET794  SER795  GLU796  ALA797  LYS798  CYS799  TRP800  GLU811  SER814 

> <Gold.Protein.RotatedAtoms>
  151.9088  135.0347  160.0512 H   0  0  0  0  0  0  0  0  0  0  0  0  # atno 6907 bound_to 6896
  152.2296  133.5043  159.5217 H   0  0  0  0  0  0  0  0  0  0  0  0  # atno 6908 bound_to 6896
  150.7022  134.1150  159.4056 H   0  0  0  0  0  0  0  0  0  0  0  0  # atno 6909 bound_to 6896
  145.0563  139.3842  143.5029 H   0  0  0  0  0  0  0  0  0  0  0  0  # atno 7974 bound_to 7965
  156.0095  140.1237  157.0467 H   0  0  0  0  0  0  0  0  0  0  0  0  # atno 8008 bound_to 7997
  154.4271  140.1090  156.5879 H   0  0  0  0  0  0  0  0  0  0  0  0  # atno 8009 bound_to 7997
  155.6099  140.3471  155.4621 H   0  0  0  0  0  0  0  0  0  0  0  0  # atno 8010 bound_to 7997
  139.7971  144.6829  150.9814 H   0  0  0  0  0  0  0  0  0  0  0  0  # atno 10167 bound_to 10162
  157.5652  131.1087  150.8467 H   0  0  0  0  0  0  0  0  0  0  0  0  # atno 10718 bound_to 10713
  154.1057  135.2842  155.3242 H   0  0  0  0  0  0  0  0  0  0  0  0  # atno 10763 bound_to 10752
  154.6524  135.5364  153.7921 H   0  0  0  0  0  0  0  0  0  0  0  0  # atno 10764 bound_to 10752
  153.0363  135.6513  154.1219 H   0  0  0  0  0  0  0  0  0  0  0  0  # atno 10765 bound_to 10752
  140.1313  134.8800  157.2208 H   0  0  0  0  0  0  0  0  0  0  0  0  # atno 11005 bound_to 11000
  146.3521  140.0238  142.8656 LP  0  0  0  0  0  0  0  0  0  0  0  0  # atno 17320 bound_to 7965
  145.1465  140.9600  143.4458 LP  0  0  0  0  0  0  0  0  0  0  0  0  # atno 17321 bound_to 7965
  140.7820  143.4320  151.0680 LP  0  0  0  0  0  0  0  0  0  0  0  0  # atno 17342 bound_to 10162
  139.7994  143.8105  152.3161 LP  0  0  0  0  0  0  0  0  0  0  0  0  # atno 17343 bound_to 10162
  156.8953  130.5227  149.5284 LP  0  0  0  0  0  0  0  0  0  0  0  0  # atno 17370 bound_to 10713
  156.0701  130.5736  150.9367 LP  0  0  0  0  0  0  0  0  0  0  0  0  # atno 17371 bound_to 10713
  140.2838  134.3319  155.7335 LP  0  0  0  0  0  0  0  0  0  0  0  0  # atno 17394 bound_to 11000
  141.2171  133.7494  156.9403 LP  0  0  0  0  0  0  0  0  0  0  0  0  # atno 17395 bound_to 11000

$$$$
