AV-unprocessed.smi:2886|AV-procd|sdf|11087|dock7
  -GOLD-   2272015563D 1   1.00000     0.00000
 Structure written by MMmdl.
 28 30  0  0  0  0  0  0  0  0  1 V2000
  150.9811  138.0570  154.0949 O   0  0  0  0  0  0  0  0  0  0  0  0
  150.6540  139.1872  154.4516 C   0  0  0  0  0  0  0  0  0  0  0  0
  149.7445  139.9115  153.7581 N   0  0  0  0  0  0  0  0  0  0  0  0
  149.3102  141.1803  154.0552 N   0  0  0  0  0  0  0  0  0  0  0  0
  149.7934  141.7660  155.0971 C   0  0  0  0  0  0  0  0  0  0  0  0
  150.7747  141.1371  155.9752 C   0  0  0  0  0  0  0  0  0  0  0  0
  151.2958  141.7689  157.0976 N   0  0  0  0  0  0  0  0  0  0  0  0
  151.0062  143.0988  157.6156 C   0  0  2  0  0  0  0  0  0  0  0  0
  152.2503  143.9886  157.6743 C   0  0  0  0  0  0  0  0  0  0  0  0
  152.2774  144.3917  159.1542 C   0  0  1  0  0  0  0  0  0  0  0  0
  151.1224  145.3334  159.5229 C   0  0  0  0  0  0  0  0  0  0  0  0
  149.9268  144.3809  159.5142 C   0  0  0  0  0  0  0  0  0  0  0  0
  150.5802  143.0580  159.0925 C   0  0  2  0  0  0  0  0  0  0  0  0
  151.8317  143.1854  159.7486 O   0  0  0  0  0  0  0  0  0  0  0  0
  151.1821  139.8830  155.6333 C   0  0  0  0  0  0  0  0  0  0  0  0
  152.3518  139.0454  156.5978 Cl  0  0  0  0  0  0  0  0  0  0  0  0
  149.3253  139.5136  152.9300 H   0  0  0  0  0  0  0  0  0  0  0  0
  149.4854  142.7762  155.3641 H   0  0  0  0  0  0  0  0  0  0  0  0
  151.8601  141.1986  157.7118 H   0  0  0  0  0  0  0  0  0  0  0  0
  150.2137  143.5638  157.0301 H   0  0  0  0  0  0  0  0  0  0  0  0
  153.1535  143.4327  157.4174 H   0  0  0  0  0  0  0  0  0  0  0  0
  152.1826  144.8496  157.0085 H   0  0  0  0  0  0  0  0  0  0  0  0
  153.2536  144.7300  159.5023 H   0  0  0  0  0  0  0  0  0  0  0  0
  151.2664  145.7566  160.5175 H   0  0  0  0  0  0  0  0  0  0  0  0
  151.0161  146.1546  158.8133 H   0  0  0  0  0  0  0  0  0  0  0  0
  149.4980  144.2981  160.5136 H   0  0  0  0  0  0  0  0  0  0  0  0
  149.1379  144.6947  158.8300 H   0  0  0  0  0  0  0  0  0  0  0  0
  150.0040  142.1762  159.3749 H   0  0  0  0  0  0  0  0  0  0  0  0
  1  2  2  0  0  0  0
  2 15  1  0  0  0  0
  2  3  1  0  0  0  0
  3 17  1  0  0  0  0
  3  4  1  0  0  0  0
  4  5  2  0  0  0  0
  5  6  1  0  0  0  0
  5 18  1  0  0  0  0
  6  7  1  0  0  0  0
  6 15  2  0  0  0  0
  7  8  1  0  0  0  0
  7 19  1  0  0  0  0
  8 13  1  0  0  0  0
  8  9  1  0  0  0  0
  8 20  1  0  0  0  0
  9 10  1  0  0  0  0
  9 21  1  0  0  0  0
  9 22  1  0  0  0  0
 10 14  1  0  0  0  0
 10 11  1  0  0  0  0
 10 23  1  0  0  0  0
 11 12  1  0  0  0  0
 11 24  1  0  0  0  0
 11 25  1  0  0  0  0
 12 13  1  0  0  0  0
 12 26  1  0  0  0  0
 12 27  1  0  0  0  0
 13 14  1  0  0  0  0
 13 28  1  0  0  0  0
 15 16  1  0  0  0  0
M  END
> <s_m_source_file>
AV-unprocessed.smi

> <i_m_source_file_index>
2886

> <i_lp_mmshare_version>
43012

> <i_f3d_flags>
0

> <s_epik_input>
Tz1jMVtuSF1uW2NIXWMoYzFDbClbTkhdW0NASF0oW0NIMl1bQ0BASF0yMylbQ0BASF0oTzMpW0NIMl1bQ0gyXTI=

> <s_epik_cmdline>
J2VwaWtfcHl0aG9uJywgJy1waCcsICc3LjAnLCAnLXRuJywgJzgnLCAnLW1hJywgJzIwMCcsICctbWV0YWxfYmluZGluZycsICctaW1hZScsICc8aW5maWxlLm1hZT4nLCAnLW9tYWUnLCAnPG91dGZpbGUubWFlPic=

> <r_lp_tautomer_probability>
0.986175

> <r_epik_Ionization_Penalty>
0.000975594

> <r_epik_Ionization_Penalty_Charging>
0.000940184

> <r_epik_Ionization_Penalty_Neutral>
3.54099e-05

> <r_epik_State_Penalty>
0.00620319

> <r_epik_Charging_Adjusted_Penalty>
0.00714337

> <i_epik_Tot_Q>
0

> <i_epik_Tot_abs_Q>
0

> <r_epik_Metal_State_Penalty>
0.287699

> <b_epik_Metal_Only>
0

> <s_lp_Force_Field>
OPLS_2005

> <r_lp_Energy>
54.6963

> <b_lp_Chiralities_Consistent>
1

> <s_lp_Variant>
AV-unprocessed.smi:2886-1

> <Gold.Version>
5.8.1

> <Gold.Id.Protein>
6NUR|6NUR_protein|mol2

> <Gold.PLP.Fitness>
39.1253

> <Gold.PLP.PLP>
-32.8332

> <Gold.PLP.part.hbond>
-3.0000

> <Gold.PLP.part.metal>
0.0000

> <Gold.PLP.part.buried>
-3.3884

> <Gold.PLP.part.nonpolar>
-27.8393

> <Gold.PLP.part.repulsive>
1.9257

> <Gold.PLP.ligand.clash>
0.0000

> <Gold.PLP.ligand.torsion>
0.0193

> <Gold.PLP.Chemscore.Hbond>
1.1037

> <Gold.PLP.Chemscore.CHOScore>
1.0000

> <Gold.PLP.Chemscore.Metal>
0.0000

> <Gold.Chemscore.Hbonds>
donor molecule, donor type, donor heavy atom, donor atom, acceptor molecule, acceptor atom, score
      L1  H     3    17       P1  7957  0.54
      P1  H  8011  8017       L1     4  0.53
      L1  C     5    18       P1  8028  1.00

> <Gold.PLP.Chemscore.Internal.Correction>
0.0196

> <Gold.Rescore>
     Score         DG    S(hbond)    S(metal)    S(lipo)     H(rot)  DE(clash)    DE(int)     intcor
     14.95     -16.77       1.01        0.00      89.69       1.00       1.81       0.02       ----

> <Gold.Chemscore.Fitness>
14.9494

> <Gold.Chemscore.DG>
-16.7728

> <Gold.Chemscore.ZeroCoef>
-5.4800

> <Gold.Chemscore.Hbond>
1.0056

> <Gold.Chemscore.Metal>
0.0000

> <Gold.Chemscore.Lipo>
89.6943

> <Gold.Chemscore.Internal_Hbond>
0.0000

> <Gold.Chemscore.DEClash>
1.8083

> <Gold.Chemscore.DEInternal>
0.0151

> <Gold.Chemscore.Rot>
1.0000

> <Gold.Chemscore.Internal.Correction>
   9.000000E+99

> <Gold.Chemscore.Hbonds>
donor molecule, donor type, donor heavy atom, donor atom, acceptor molecule, acceptor atom, score
      L1  H     3    17       P1  7957  0.54
      P1  H  8011  8017       L1     4  0.19

> <Gold.Chemscore.Hbond.Weighted>
-3.3586

> <Gold.Chemscore.Metal.Weighted>
-0.0000

> <Gold.Chemscore.Lipo.Weighted>
-10.4942

> <Gold.Chemscore.Internal_Hbond.Weighted>
0.0000

> <Gold.Chemscore.DEClash.Weighted>
1.8083

> <Gold.Chemscore.DEInternal.Weighted>
0.0151

> <Gold.Chemscore.Rot.Weighted>
2.5600

> <Gold.Chemscore.Internal.Correction.Weighted>
   9.000000E+99

> <Gold.Protein.RotatedTorsions>
[ 6907 6896 6895 6894 ] final   49.94 input  -60.11 | X-H torsion
[ 7974 7965 7964 7962 ] final  130.45 input  175.53 | X-H torsion
[ 8008 7997 7996 7995 ] final -108.83 input   59.86 | X-H torsion
[ 10167 10162 10161 10158 ] final   28.92 input  -65.29 | X-H torsion
[ 10718 10713 10712 10709 ] final   66.25 input   66.30 | X-H torsion
[ 10763 10752 10751 10750 ] final  160.36 input  -60.55 | X-H torsion
[ 11005 11000 10999 10996 ] final  -99.52 input  -57.11 | X-H torsion

> <Gold.Protein.ActiveResidues>
 VAL166  LYS551  ARG553  GLY616  TRP617  ASP618  TYR619  PRO620  LYS621  CYS622 
 ASP623  PHE694  ASN695  SER759  ASP760  ASP761  ALA762  ILE779  LEU786  VAL792 
 PHE793  MET794  SER795  GLU796  ALA797  LYS798  CYS799  TRP800  GLU811  SER814 

> <Gold.Protein.RotatedAtoms>
  152.2964  134.7662  160.0366 H   0  0  0  0  0  0  0  0  0  0  0  0  # atno 6907 bound_to 6896
  151.8191  133.3387  159.3587 H   0  0  0  0  0  0  0  0  0  0  0  0  # atno 6908 bound_to 6896
  150.7253  134.5520  159.5844 H   0  0  0  0  0  0  0  0  0  0  0  0  # atno 6909 bound_to 6896
  145.0178  139.4160  143.5212 H   0  0  0  0  0  0  0  0  0  0  0  0  # atno 7974 bound_to 7965
  154.9501  140.0401  157.2140 H   0  0  0  0  0  0  0  0  0  0  0  0  # atno 8008 bound_to 7997
  154.7986  140.2848  155.5916 H   0  0  0  0  0  0  0  0  0  0  0  0  # atno 8009 bound_to 7997
  156.2958  140.2559  156.2849 H   0  0  0  0  0  0  0  0  0  0  0  0  # atno 8010 bound_to 7997
  140.4811  144.0614  150.6265 H   0  0  0  0  0  0  0  0  0  0  0  0  # atno 10167 bound_to 10162
  157.6157  130.9258  150.0084 H   0  0  0  0  0  0  0  0  0  0  0  0  # atno 10718 bound_to 10713
  154.2463  135.2773  155.2834 H   0  0  0  0  0  0  0  0  0  0  0  0  # atno 10763 bound_to 10752
  154.5503  135.5677  153.6919 H   0  0  0  0  0  0  0  0  0  0  0  0  # atno 10764 bound_to 10752
  152.9989  135.6273  154.2608 H   0  0  0  0  0  0  0  0  0  0  0  0  # atno 10765 bound_to 10752
  141.1306  133.8327  157.0982 H   0  0  0  0  0  0  0  0  0  0  0  0  # atno 11005 bound_to 11000
  146.3480  139.9659  142.8712 LP  0  0  0  0  0  0  0  0  0  0  0  0  # atno 17320 bound_to 7965
  145.1936  140.9823  143.4197 LP  0  0  0  0  0  0  0  0  0  0  0  0  # atno 17321 bound_to 7965
  140.3857  143.2779  152.0119 LP  0  0  0  0  0  0  0  0  0  0  0  0  # atno 17342 bound_to 10162
  139.4833  144.6119  151.7418 LP  0  0  0  0  0  0  0  0  0  0  0  0  # atno 17343 bound_to 10162
  156.1278  130.3644  149.9780 LP  0  0  0  0  0  0  0  0  0  0  0  0  # atno 17370 bound_to 10713
  156.7847  130.9234  151.3646 LP  0  0  0  0  0  0  0  0  0  0  0  0  # atno 17371 bound_to 10713
  140.0350  134.9883  157.0853 LP  0  0  0  0  0  0  0  0  0  0  0  0  # atno 17394 bound_to 11000
  140.4225  134.1866  155.7165 LP  0  0  0  0  0  0  0  0  0  0  0  0  # atno 17395 bound_to 11000

$$$$
