AV-unprocessed.smi:2855|AV-procd|sdf|10990|dock1
  -GOLD-   2272015443D 1   1.00000     0.00000
 Structure written by MMmdl.
 46 47  0  0  0  0  0  0  0  0  2 V2000
  143.6886  132.0751  150.8423 C   0  0  0  0  0  0  0  0  0  0  0  0
  144.8273  132.8096  150.1126 C   0  0  1  0  0  0  0  0  0  0  0  0
  144.4454  134.2428  149.7036 C   0  0  0  0  0  0  0  0  0  0  0  0
  144.3842  135.1960  150.9073 C   0  0  0  0  0  0  0  0  0  0  0  0
  145.7122  135.2188  151.7017 C   0  0  1  0  0  0  0  0  0  0  0  0
  145.7021  136.2433  152.8765 C   0  0  0  0  0  0  0  0  0  0  0  0
  144.4518  136.1610  153.7722 C   0  0  0  0  0  0  0  0  0  0  0  0
  145.9308  137.6878  152.3983 C   0  0  0  0  0  0  0  0  0  0  0  0
  146.1151  133.7766  152.1236 C   0  0  2  0  0  0  0  0  0  0  0  0
  147.4416  133.7613  152.7397 N   0  0  0  0  0  0  0  0  0  0  0  0
  148.0530  132.6973  153.2830 C   0  0  0  0  0  0  0  0  0  0  0  0
  147.5385  131.5806  153.3539 O   0  0  0  0  0  0  0  0  0  0  0  0
  149.4517  132.9586  153.8590 C   0  0  0  0  0  0  0  0  0  0  0  0
  149.4295  133.6222  155.1727 N   0  0  0  0  0  0  0  0  0  0  0  0
  148.8847  134.9165  155.2420 C   0  0  0  0  0  0  0  0  0  0  0  0
  148.8248  135.6012  156.3999 C   0  0  0  0  0  0  0  0  0  0  0  0
  149.3436  134.9660  157.6050 C   0  0  0  0  0  0  0  0  0  0  0  0
  149.2997  135.5777  158.6706 O   0  0  0  0  0  0  0  0  0  0  0  0
  149.8588  133.7072  157.4873 N   0  5  0  0  0  0  0  0  0  0  0  0
  149.9124  133.0224  156.3027 C   0  0  0  0  0  0  0  0  0  0  0  0
  150.3818  131.8869  156.2184 O   0  0  0  0  0  0  0  0  0  0  0  0
  146.1420  132.8175  150.9145 C   0  0  0  0  0  0  0  0  0  0  0  0
  143.4244  132.5560  151.7839 H   0  0  0  0  0  0  0  0  0  0  0  0
  143.9695  131.0459  151.0672 H   0  0  0  0  0  0  0  0  0  0  0  0
  142.7893  132.0409  150.2265 H   0  0  0  0  0  0  0  0  0  0  0  0
  145.0116  132.2495  149.1948 H   0  0  0  0  0  0  0  0  0  0  0  0
  145.1806  134.6193  148.9912 H   0  0  0  0  0  0  0  0  0  0  0  0
  143.4896  134.2422  149.1787 H   0  0  0  0  0  0  0  0  0  0  0  0
  144.1411  136.1931  150.5421 H   0  0  0  0  0  0  0  0  0  0  0  0
  143.5599  134.9020  151.5563 H   0  0  0  0  0  0  0  0  0  0  0  0
  146.4820  135.5583  151.0062 H   0  0  0  0  0  0  0  0  0  0  0  0
  146.5562  136.0196  153.5151 H   0  0  0  0  0  0  0  0  0  0  0  0
  143.5475  136.4418  153.2328 H   0  0  0  0  0  0  0  0  0  0  0  0
  144.5423  136.8357  154.6238 H   0  0  0  0  0  0  0  0  0  0  0  0
  144.3045  135.1597  154.1752 H   0  0  0  0  0  0  0  0  0  0  0  0
  145.0891  138.0629  151.8166 H   0  0  0  0  0  0  0  0  0  0  0  0
  146.8265  137.7633  151.7812 H   0  0  0  0  0  0  0  0  0  0  0  0
  146.0628  138.3607  153.2461 H   0  0  0  0  0  0  0  0  0  0  0  0
  145.3737  133.3963  152.8262 H   0  0  0  0  0  0  0  0  0  0  0  0
  147.9468  134.6352  152.7382 H   0  0  0  0  0  0  0  0  0  0  0  0
  149.9990  132.0164  153.9291 H   0  0  0  0  0  0  0  0  0  0  0  0
  150.0072  133.5590  153.1373 H   0  0  0  0  0  0  0  0  0  0  0  0
  148.5180  135.3123  154.3063 H   0  0  0  0  0  0  0  0  0  0  0  0
  148.4020  136.5943  156.4364 H   0  0  0  0  0  0  0  0  0  0  0  0
  146.3787  131.8053  151.2458 H   0  0  0  0  0  0  0  0  0  0  0  0
  146.9532  133.1105  150.2460 H   0  0  0  0  0  0  0  0  0  0  0  0
  1  2  1  0  0  0  0
  1 23  1  0  0  0  0
  1 24  1  0  0  0  0
  1 25  1  0  0  0  0
  2 22  1  0  0  0  0
  2  3  1  0  0  0  0
  2 26  1  0  0  0  0
  3  4  1  0  0  0  0
  3 27  1  0  0  0  0
  3 28  1  0  0  0  0
  4  5  1  0  0  0  0
  4 29  1  0  0  0  0
  4 30  1  0  0  0  0
  5  6  1  0  0  0  0
  5  9  1  0  0  0  0
  5 31  1  0  0  0  0
  6  7  1  0  0  0  0
  6  8  1  0  0  0  0
  6 32  1  0  0  0  0
  7 33  1  0  0  0  0
  7 34  1  0  0  0  0
  7 35  1  0  0  0  0
  8 36  1  0  0  0  0
  8 37  1  0  0  0  0
  8 38  1  0  0  0  0
  9 10  1  0  0  0  0
  9 22  1  0  0  0  0
  9 39  1  0  0  0  0
 10 11  1  0  0  0  0
 10 40  1  0  0  0  0
 11 12  2  0  0  0  0
 11 13  1  0  0  0  0
 13 14  1  0  0  0  0
 13 41  1  0  0  0  0
 13 42  1  0  0  0  0
 14 20  1  0  0  0  0
 14 15  1  0  0  0  0
 15 16  2  0  0  0  0
 15 43  1  0  0  0  0
 16 17  1  0  0  0  0
 16 44  1  0  0  0  0
 17 18  2  0  0  0  0
 17 19  1  0  0  0  0
 19 20  1  0  0  0  0
 20 21  2  0  0  0  0
 22 45  1  0  0  0  0
 22 46  1  0  0  0  0
M  CHG  1  19  -1
M  END
> <s_m_source_file>
AV-unprocessed.smi

> <i_m_source_file_index>
2855

> <i_lp_mmshare_version>
43012

> <i_f3d_flags>
0

> <s_epik_input>
W0NIM11bQ0BASF0xW0NIMl1bQ0gyXVtDQEBIXShbQ0hdKFtDSDNdKVtDSDNdKVtDQEhdKFtDSDJdMSlbTkhdQyg9TylbQ0gyXW4yW2NIXVtjSF1jKD1PKVtuSF1jMj1P

> <s_epik_cmdline>
J2VwaWtfcHl0aG9uJywgJy1waCcsICc3LjAnLCAnLXRuJywgJzgnLCAnLW1hJywgJzIwMCcsICctbWV0YWxfYmluZGluZycsICctaW1hZScsICc8aW5maWxlLm1hZT4nLCAnLW9tYWUnLCAnPG91dGZpbGUubWFlPic=

> <r_lp_tautomer_probability>
0.999537

> <r_epik_Ionization_Penalty>
3.12102

> <r_epik_Ionization_Penalty_Charging>
2.9581e-08

> <r_epik_Ionization_Penalty_Neutral>
3.12102

> <r_epik_State_Penalty>
3.12011

> <r_epik_Charging_Adjusted_Penalty>
3.12011

> <i_epik_Tot_Q>
-1

> <i_epik_Tot_abs_Q>
1

> <r_epik_Metal_State_Penalty>
0.463583

> <b_epik_Metal_Only>
1

> <s_lp_Force_Field>
OPLS_2005

> <r_lp_Energy>
25.2964

> <b_lp_Chiralities_Consistent>
1

> <s_lp_Variant>
AV-unprocessed.smi:2855-14

> <Gold.Version>
5.8.1

> <Gold.Id.Protein>
6NUR|6NUR_protein|mol2

> <Gold.PLP.Fitness>
44.2609

> <Gold.PLP.PLP>
-33.4170

> <Gold.PLP.part.hbond>
-2.5535

> <Gold.PLP.part.metal>
0.0000

> <Gold.PLP.part.buried>
-3.8178

> <Gold.PLP.part.nonpolar>
-28.7026

> <Gold.PLP.part.repulsive>
0.0762

> <Gold.PLP.ligand.clash>
0.0000

> <Gold.PLP.ligand.torsion>
0.6260

> <Gold.PLP.Chemscore.Hbond>
3.0000

> <Gold.PLP.Chemscore.CHOScore>
1.0000

> <Gold.PLP.Chemscore.Metal>
0.0000

> <Gold.Chemscore.Hbonds>
donor molecule, donor type, donor heavy atom, donor atom, acceptor molecule, acceptor atom, score
      L1  H    10    40       P1  7948  0.98
      P1  H  6896  6909       L1    19  0.80
      L1  C    15    43       P1  7948  0.75

> <Gold.PLP.Chemscore.Internal.Correction>
0.0959

> <Gold.Rescore>
     Score         DG    S(hbond)    S(metal)    S(lipo)     H(rot)  DE(clash)    DE(int)     intcor
     14.02     -14.68       1.70        0.00      69.67       1.81       0.07       0.59       ----

> <Gold.Chemscore.Fitness>
14.0152

> <Gold.Chemscore.DG>
-14.6812

> <Gold.Chemscore.ZeroCoef>
-5.4800

> <Gold.Chemscore.Hbond>
1.7015

> <Gold.Chemscore.Metal>
0.0000

> <Gold.Chemscore.Lipo>
69.6717

> <Gold.Chemscore.Internal_Hbond>
0.0000

> <Gold.Chemscore.DEClash>
0.0718

> <Gold.Chemscore.DEInternal>
0.5942

> <Gold.Chemscore.Rot>
1.8100

> <Gold.Chemscore.Internal.Correction>
   9.000000E+99

> <Gold.Chemscore.Hbonds>
donor molecule, donor type, donor heavy atom, donor atom, acceptor molecule, acceptor atom, score
      L1  H    10    40       P1  7948  0.66
      P1  H  6896  6909       L1    19  0.01

> <Gold.Chemscore.Hbond.Weighted>
-5.6830

> <Gold.Chemscore.Metal.Weighted>
-0.0000

> <Gold.Chemscore.Lipo.Weighted>
-8.1516

> <Gold.Chemscore.Internal_Hbond.Weighted>
0.0000

> <Gold.Chemscore.DEClash.Weighted>
0.0718

> <Gold.Chemscore.DEInternal.Weighted>
0.5942

> <Gold.Chemscore.Rot.Weighted>
4.6335

> <Gold.Chemscore.Internal.Correction.Weighted>
   9.000000E+99

> <Gold.Protein.RotatedTorsions>
[ 6907 6896 6895 6894 ] final   11.62 input  -60.11 | X-H torsion
[ 7974 7965 7964 7962 ] final   19.19 input  175.53 | X-H torsion
[ 8008 7997 7996 7995 ] final   61.34 input   59.86 | X-H torsion
[ 10167 10162 10161 10158 ] final  129.54 input  -65.29 | X-H torsion
[ 10718 10713 10712 10709 ] final   54.71 input   66.30 | X-H torsion
[ 10763 10752 10751 10750 ] final  103.06 input  -60.55 | X-H torsion
[ 11005 11000 10999 10996 ] final -161.97 input  -57.11 | X-H torsion

> <Gold.Protein.ActiveResidues>
 VAL166  LYS551  ARG553  GLY616  TRP617  ASP618  TYR619  PRO620  LYS621  CYS622 
 ASP623  PHE694  ASN695  SER759  ASP760  ASP761  ALA762  ILE779  LEU786  VAL792 
 PHE793  MET794  SER795  GLU796  ALA797  LYS798  CYS799  TRP800  GLU811  SER814 

> <Gold.Protein.RotatedAtoms>
  151.7573  135.0818  160.0339 H   0  0  0  0  0  0  0  0  0  0  0  0  # atno 6907 bound_to 6896
  152.3377  133.6026  159.5862 H   0  0  0  0  0  0  0  0  0  0  0  0  # atno 6908 bound_to 6896
  150.7460  133.9687  159.3580 H   0  0  0  0  0  0  0  0  0  0  0  0  # atno 6909 bound_to 6896
  146.2158  139.8349  142.8652 H   0  0  0  0  0  0  0  0  0  0  0  0  # atno 7974 bound_to 7965
  155.5968  140.3493  155.4582 H   0  0  0  0  0  0  0  0  0  0  0  0  # atno 8008 bound_to 7997
  156.0259  140.1264  157.0334 H   0  0  0  0  0  0  0  0  0  0  0  0  # atno 8009 bound_to 7997
  154.4333  140.1053  156.6015 H   0  0  0  0  0  0  0  0  0  0  0  0  # atno 8010 bound_to 7997
  139.5473  144.6784  151.4433 H   0  0  0  0  0  0  0  0  0  0  0  0  # atno 10167 bound_to 10162
  157.5281  130.8611  149.8649 H   0  0  0  0  0  0  0  0  0  0  0  0  # atno 10718 bound_to 10713
  153.3477  135.3989  155.1621 H   0  0  0  0  0  0  0  0  0  0  0  0  # atno 10763 bound_to 10752
  154.8656  135.3649  154.5263 H   0  0  0  0  0  0  0  0  0  0  0  0  # atno 10764 bound_to 10752
  153.5712  135.7079  153.5563 H   0  0  0  0  0  0  0  0  0  0  0  0  # atno 10765 bound_to 10752
  140.6144  134.4815  157.5218 H   0  0  0  0  0  0  0  0  0  0  0  0  # atno 11005 bound_to 11000
  145.2959  141.0180  143.3636 LP  0  0  0  0  0  0  0  0  0  0  0  0  # atno 17320 bound_to 7965
  144.9042  139.4610  143.6618 LP  0  0  0  0  0  0  0  0  0  0  0  0  # atno 17321 bound_to 7965
  140.6725  143.8262  150.7017 LP  0  0  0  0  0  0  0  0  0  0  0  0  # atno 17342 bound_to 10162
  140.1691  143.4210  152.2014 LP  0  0  0  0  0  0  0  0  0  0  0  0  # atno 17343 bound_to 10162
  156.0402  130.3741  150.1456 LP  0  0  0  0  0  0  0  0  0  0  0  0  # atno 17370 bound_to 10713
  156.9642  130.9814  151.3473 LP  0  0  0  0  0  0  0  0  0  0  0  0  # atno 17371 bound_to 10713
  139.9179  134.8209  156.1307 LP  0  0  0  0  0  0  0  0  0  0  0  0  # atno 17394 bound_to 11000
  141.0785  133.6764  156.2287 LP  0  0  0  0  0  0  0  0  0  0  0  0  # atno 17395 bound_to 11000

$$$$
