AV-unprocessed.smi:2078|AV-procd|sdf|8464|dock1
  -GOLD-   2272011163D 1   1.00000     0.00000
 Structure written by MMmdl.
 42 43  0  0  0  0  0  0  0  0  2 V2000
  150.4144  142.0031  157.3572 C   0  0  0  0  0  0  0  0  0  0  0  0
  150.3261  141.0864  156.1847 C   0  0  0  0  0  0  0  0  0  0  0  0
  149.2697  140.5667  155.4906 C   0  0  0  0  0  0  0  0  0  0  0  0
  149.9001  139.7706  154.4976 C   0  0  0  0  0  0  0  0  0  0  0  0
  149.1329  139.0445  153.5513 N   0  0  0  0  0  0  0  0  0  0  0  0
  147.7939  138.9972  153.4474 C   0  0  0  0  0  0  0  0  0  0  0  0
  147.0019  139.5914  154.1796 O   0  0  0  0  0  0  0  0  0  0  0  0
  147.4088  138.2083  152.4336 N   0  0  0  0  0  0  0  0  0  0  0  0
  146.0229  137.9596  152.0547 C   0  0  0  0  0  0  0  0  0  0  0  0
  145.4339  136.7554  152.8151 C   0  0  0  0  0  0  0  0  0  0  0  0
  146.0032  135.4655  152.3515 N   0  3  2  0  0  0  0  0  0  0  0  0
  145.4269  135.0043  151.0603 C   0  0  0  0  0  0  0  0  0  0  0  0
  146.1506  133.7486  150.5495 C   0  0  0  0  0  0  0  0  0  0  0  0
  146.1173  132.6284  151.5988 C   0  0  0  0  0  0  0  0  0  0  0  0
  146.6528  133.1184  152.9571 C   0  0  1  0  0  0  0  0  0  0  0  0
  148.1829  133.2823  152.9711 C   0  0  0  0  0  0  0  0  0  0  0  0
  145.9247  134.4071  153.3932 C   0  0  0  0  0  0  0  0  0  0  0  0
  151.2215  139.8025  154.5769 N   0  0  0  0  0  0  0  0  0  0  0  0
  151.5014  140.6455  155.6588 O   0  0  0  0  0  0  0  0  0  0  0  0
  149.7830  142.8796  157.2107 H   0  0  0  0  0  0  0  0  0  0  0  0
  151.4374  142.3474  157.5110 H   0  0  0  0  0  0  0  0  0  0  0  0
  150.0878  141.4982  158.2663 H   0  0  0  0  0  0  0  0  0  0  0  0
  148.2170  140.7314  155.6679 H   0  0  0  0  0  0  0  0  0  0  0  0
  149.6615  138.5060  152.8812 H   0  0  0  0  0  0  0  0  0  0  0  0
  148.1234  137.7589  151.8793 H   0  0  0  0  0  0  0  0  0  0  0  0
  145.4403  138.8658  152.2226 H   0  0  0  0  0  0  0  0  0  0  0  0
  145.9951  137.7691  150.9814 H   0  0  0  0  0  0  0  0  0  0  0  0
  145.6546  136.8891  153.8752 H   0  0  0  0  0  0  0  0  0  0  0  0
  144.3465  136.7247  152.7305 H   0  0  0  0  0  0  0  0  0  0  0  0
  144.3631  134.7979  151.1887 H   0  0  0  0  0  0  0  0  0  0  0  0
  145.5053  135.7858  150.3056 H   0  0  0  0  0  0  0  0  0  0  0  0
  145.6855  133.4029  149.6256 H   0  0  0  0  0  0  0  0  0  0  0  0
  147.1826  133.9945  150.2974 H   0  0  0  0  0  0  0  0  0  0  0  0
  145.0884  132.2870  151.7214 H   0  0  0  0  0  0  0  0  0  0  0  0
  146.6854  131.7649  151.2508 H   0  0  0  0  0  0  0  0  0  0  0  0
  146.4210  132.3476  153.6935 H   0  0  0  0  0  0  0  0  0  0  0  0
  148.5172  134.0562  152.2800 H   0  0  0  0  0  0  0  0  0  0  0  0
  148.6794  132.3523  152.6923 H   0  0  0  0  0  0  0  0  0  0  0  0
  148.5368  133.5555  153.9658 H   0  0  0  0  0  0  0  0  0  0  0  0
  146.3574  134.7685  154.3271 H   0  0  0  0  0  0  0  0  0  0  0  0
  144.8754  134.1896  153.6002 H   0  0  0  0  0  0  0  0  0  0  0  0
  146.9875  135.6287  152.1947 H   0  0  0  0  0  0  0  0  0  0  0  0
  1  2  1  0  0  0  0
  1 20  1  0  0  0  0
  1 21  1  0  0  0  0
  1 22  1  0  0  0  0
  2 19  1  0  0  0  0
  2  3  2  0  0  0  0
  3  4  1  0  0  0  0
  3 23  1  0  0  0  0
  4  5  1  0  0  0  0
  4 18  2  0  0  0  0
  5  6  1  0  0  0  0
  5 24  1  0  0  0  0
  6  7  2  0  0  0  0
  6  8  1  0  0  0  0
  8  9  1  0  0  0  0
  8 25  1  0  0  0  0
  9 10  1  0  0  0  0
  9 26  1  0  0  0  0
  9 27  1  0  0  0  0
 10 11  1  0  0  0  0
 10 28  1  0  0  0  0
 10 29  1  0  0  0  0
 11 17  1  0  0  0  0
 11 12  1  0  0  0  0
 11 42  1  0  0  0  0
 12 13  1  0  0  0  0
 12 30  1  0  0  0  0
 12 31  1  0  0  0  0
 13 14  1  0  0  0  0
 13 32  1  0  0  0  0
 13 33  1  0  0  0  0
 14 15  1  0  0  0  0
 14 34  1  0  0  0  0
 14 35  1  0  0  0  0
 15 16  1  0  0  0  0
 15 17  1  0  0  0  0
 15 36  1  0  0  0  0
 16 37  1  0  0  0  0
 16 38  1  0  0  0  0
 16 39  1  0  0  0  0
 17 40  1  0  0  0  0
 17 41  1  0  0  0  0
 18 19  1  0  0  0  0
M  CHG  1  11   1
M  END
> <s_m_source_file>
AV-unprocessed.smi

> <i_m_source_file_index>
2078

> <i_lp_mmshare_version>
43012

> <i_f3d_flags>
0

> <s_epik_input>
W0NIM11jMVtjSF1jKG5vMSlbTkhdQyg9TylbTkhdW0NIMl1bQ0gyXU4yW0NIMl1bQ0gyXVtDSDJdW0NAQEhdKFtDSDNdKVtDSDJdMg==

> <s_epik_cmdline>
J2VwaWtfcHl0aG9uJywgJy1waCcsICc3LjAnLCAnLXRuJywgJzgnLCAnLW1hJywgJzIwMCcsICctbWV0YWxfYmluZGluZycsICctaW1hZScsICc8aW5maWxlLm1hZT4nLCAnLW9tYWUnLCAnPG91dGZpbGUubWFlPic=

> <r_epik_Ionization_Penalty>
0.00216453

> <r_epik_Ionization_Penalty_Charging>
0.00212879

> <r_epik_Ionization_Penalty_Neutral>
3.57418e-05

> <r_epik_State_Penalty>
0.00146033

> <r_epik_Charging_Adjusted_Penalty>
0.00358912

> <i_epik_Tot_Q>
1

> <i_epik_Tot_abs_Q>
1

> <r_epik_Metal_State_Penalty>
0.0215827

> <b_epik_Metal_Only>
0

> <s_lp_Force_Field>
OPLS_2005

> <r_lp_Energy>
15.3902

> <b_lp_Chiralities_Consistent>
1

> <s_lp_Variant>
AV-unprocessed.smi:2078-2

> <Gold.Version>
5.8.1

> <Gold.Id.Protein>
6NUR|6NUR_protein|mol2

> <Gold.PLP.Fitness>
42.6423

> <Gold.PLP.PLP>
-32.1314

> <Gold.PLP.part.hbond>
-5.7615

> <Gold.PLP.part.metal>
0.0000

> <Gold.PLP.part.buried>
-2.4130

> <Gold.PLP.part.nonpolar>
-24.1932

> <Gold.PLP.part.repulsive>
0.3895

> <Gold.PLP.ligand.clash>
0.0000

> <Gold.PLP.ligand.torsion>
0.4284

> <Gold.PLP.Chemscore.Hbond>
3.7840

> <Gold.PLP.Chemscore.CHOScore>
0.0000

> <Gold.PLP.Chemscore.Metal>
0.0000

> <Gold.Chemscore.Hbonds>
donor molecule, donor type, donor heavy atom, donor atom, acceptor molecule, acceptor atom, score
      L1  H     8    25       P1  7948  0.78
      L1  H    11    42       P1  7948  1.85
      P1  H  7989  7998       L1    18  0.70

> <Gold.PLP.Chemscore.Internal.Correction>
0.0158

> <Gold.Rescore>
     Score         DG    S(hbond)    S(metal)    S(lipo)     H(rot)  DE(clash)    DE(int)     intcor
     15.02     -17.15       2.56        0.00      61.05       1.57       0.21       1.92       ----

> <Gold.Chemscore.Fitness>
15.0207

> <Gold.Chemscore.DG>
-17.1513

> <Gold.Chemscore.ZeroCoef>
-5.4800

> <Gold.Chemscore.Hbond>
2.5591

> <Gold.Chemscore.Metal>
0.0000

> <Gold.Chemscore.Lipo>
61.0472

> <Gold.Chemscore.Internal_Hbond>
0.0000

> <Gold.Chemscore.DEClash>
0.2087

> <Gold.Chemscore.DEInternal>
1.9219

> <Gold.Chemscore.Rot>
1.5697

> <Gold.Chemscore.Internal.Correction>
   9.000000E+99

> <Gold.Chemscore.Hbonds>
donor molecule, donor type, donor heavy atom, donor atom, acceptor molecule, acceptor atom, score
      L1  H     5    24       P1  7957  0.01
      L1  H     8    25       P1  7948  0.78
      L1  H    11    42       P1  7948  0.89
      P1  H  7989  7998       L1    18  0.03

> <Gold.Chemscore.Hbond.Weighted>
-8.5473

> <Gold.Chemscore.Metal.Weighted>
-0.0000

> <Gold.Chemscore.Lipo.Weighted>
-7.1425

> <Gold.Chemscore.Internal_Hbond.Weighted>
0.0000

> <Gold.Chemscore.DEClash.Weighted>
0.2087

> <Gold.Chemscore.DEInternal.Weighted>
1.9219

> <Gold.Chemscore.Rot.Weighted>
4.0185

> <Gold.Chemscore.Internal.Correction.Weighted>
   9.000000E+99

> <Gold.Protein.RotatedTorsions>
[ 6907 6896 6895 6894 ] final -178.30 input  -60.11 | X-H torsion
[ 7974 7965 7964 7962 ] final  -19.86 input  175.53 | X-H torsion
[ 8008 7997 7996 7995 ] final   89.76 input   59.86 | X-H torsion
[ 10167 10162 10161 10158 ] final  135.12 input  -65.29 | X-H torsion
[ 10718 10713 10712 10709 ] final  -89.28 input   66.30 | X-H torsion
[ 10763 10752 10751 10750 ] final -106.18 input  -60.55 | X-H torsion
[ 11005 11000 10999 10996 ] final  -91.18 input  -57.11 | X-H torsion

> <Gold.Protein.ActiveResidues>
 VAL166  LYS551  ARG553  GLY616  TRP617  ASP618  TYR619  PRO620  LYS621  CYS622 
 ASP623  PHE694  ASN695  SER759  ASP760  ASP761  ALA762  ILE779  LEU786  VAL792 
 PHE793  MET794  SER795  GLU796  ALA797  LYS798  CYS799  TRP800  GLU811  SER814 

> <Gold.Protein.RotatedAtoms>
  151.6350  133.3329  159.3117 H   0  0  0  0  0  0  0  0  0  0  0  0  # atno 6907 bound_to 6896
  150.8037  134.7151  159.6635 H   0  0  0  0  0  0  0  0  0  0  0  0  # atno 6908 bound_to 6896
  152.4131  134.6094  160.0073 H   0  0  0  0  0  0  0  0  0  0  0  0  # atno 6909 bound_to 6896
  146.1819  140.4121  142.8491 H   0  0  0  0  0  0  0  0  0  0  0  0  # atno 7974 bound_to 7965
  156.0039  140.3357  155.6872 H   0  0  0  0  0  0  0  0  0  0  0  0  # atno 8008 bound_to 7997
  155.6253  140.0679  157.2683 H   0  0  0  0  0  0  0  0  0  0  0  0  # atno 8009 bound_to 7997
  154.4258  140.1769  156.1402 H   0  0  0  0  0  0  0  0  0  0  0  0  # atno 8010 bound_to 7997
  139.5229  144.6533  151.5238 H   0  0  0  0  0  0  0  0  0  0  0  0  # atno 10167 bound_to 10162
  155.9984  130.4866  150.5147 H   0  0  0  0  0  0  0  0  0  0  0  0  # atno 10718 bound_to 10713
  154.7995  135.4721  154.0241 H   0  0  0  0  0  0  0  0  0  0  0  0  # atno 10763 bound_to 10752
  153.1758  135.6832  153.8552 H   0  0  0  0  0  0  0  0  0  0  0  0  # atno 10764 bound_to 10752
  153.8119  135.3216  155.3379 H   0  0  0  0  0  0  0  0  0  0  0  0  # atno 10765 bound_to 10752
  141.1550  133.7739  156.9843 H   0  0  0  0  0  0  0  0  0  0  0  0  # atno 11005 bound_to 11000
  144.8330  140.6737  143.6279 LP  0  0  0  0  0  0  0  0  0  0  0  0  # atno 17320 bound_to 7965
  145.4051  139.1590  143.4156 LP  0  0  0  0  0  0  0  0  0  0  0  0  # atno 17321 bound_to 7965
  140.6347  143.9007  150.6636 LP  0  0  0  0  0  0  0  0  0  0  0  0  # atno 17342 bound_to 10162
  140.2323  143.3726  152.1556 LP  0  0  0  0  0  0  0  0  0  0  0  0  # atno 17343 bound_to 10162
  157.3116  131.0665  151.1997 LP  0  0  0  0  0  0  0  0  0  0  0  0  # atno 17370 bound_to 10713
  157.2941  130.6810  149.6129 LP  0  0  0  0  0  0  0  0  0  0  0  0  # atno 17371 bound_to 10713
  140.1045  134.9515  157.1973 LP  0  0  0  0  0  0  0  0  0  0  0  0  # atno 17394 bound_to 11000
  140.3275  134.2847  155.7234 LP  0  0  0  0  0  0  0  0  0  0  0  0  # atno 17395 bound_to 11000

$$$$
