AV-unprocessed.smi:753|AV-procd|sdf|3606|dock7
  -GOLD-   22720 1 03D 1   1.00000     0.00000
 Structure written by MMmdl.
 44 46  0  0  0  0  0  0  0  0  2 V2000
  150.9938  142.3025  156.6611 C   0  0  0  0  0  0  0  0  0  0  0  0
  150.0200  141.5815  155.7534 C   0  0  0  0  0  0  0  0  0  0  0  0
  150.2640  140.2792  155.2668 C   0  0  0  0  0  0  0  0  0  0  0  0
  149.3121  139.6697  154.4236 C   0  0  0  0  0  0  0  0  0  0  0  0
  148.1353  140.3733  154.0853 C   0  0  0  0  0  0  0  0  0  0  0  0
  147.0968  139.7456  153.1776 C   0  0  0  0  0  0  0  0  0  0  0  0
  146.4902  138.4721  153.7879 C   0  0  0  0  0  0  0  0  0  0  0  0
  146.7409  137.3085  152.9472 N   0  0  0  0  0  0  0  0  0  0  0  0
  145.7922  136.4851  152.4706 C   0  0  0  0  0  0  0  0  0  0  0  0
  144.5945  136.6212  152.7137 O   0  0  0  0  0  0  0  0  0  0  0  0
  146.2512  135.4879  151.6941 N   0  0  0  0  0  0  0  0  0  0  0  0
  145.4809  134.4340  151.0291 C   0  0  1  0  0  0  0  0  0  0  0  0
  146.3940  133.3046  150.5030 C   0  0  0  0  0  0  0  0  0  0  0  0
  145.8284  132.0520  151.1979 C   0  0  2  0  0  0  0  0  0  0  0  0
  144.4391  131.7223  150.6178 C   0  0  0  0  0  0  0  0  0  0  0  0
  143.5512  132.8400  151.1993 C   0  0  0  0  0  0  0  0  0  0  0  0
  144.5559  133.6769  152.0124 C   0  0  1  0  0  0  0  0  0  0  0  0
  145.4721  132.5944  152.5749 C   0  0  0  0  0  0  0  0  0  0  0  0
  147.9454  141.6733  154.6007 C   0  0  0  0  0  0  0  0  0  0  0  0
  148.8820  142.2228  155.4044 N   0  3  0  0  0  0  0  0  0  0  0  0
  151.8438  141.6666  156.9104 H   0  0  0  0  0  0  0  0  0  0  0  0
  150.5029  142.5939  157.5903 H   0  0  0  0  0  0  0  0  0  0  0  0
  151.3720  143.2016  156.1740 H   0  0  0  0  0  0  0  0  0  0  0  0
  151.1679  139.7511  155.5336 H   0  0  0  0  0  0  0  0  0  0  0  0
  149.4859  138.6744  154.0409 H   0  0  0  0  0  0  0  0  0  0  0  0
  146.3149  140.4793  152.9761 H   0  0  0  0  0  0  0  0  0  0  0  0
  147.5578  139.5167  152.2158 H   0  0  0  0  0  0  0  0  0  0  0  0
  146.9279  138.2824  154.7681 H   0  0  0  0  0  0  0  0  0  0  0  0
  145.4172  138.5953  153.9447 H   0  0  0  0  0  0  0  0  0  0  0  0
  147.7015  137.1188  152.7001 H   0  0  0  0  0  0  0  0  0  0  0  0
  147.2514  135.4470  151.5620 H   0  0  0  0  0  0  0  0  0  0  0  0
  144.9118  134.8671  150.2044 H   0  0  0  0  0  0  0  0  0  0  0  0
  146.3640  133.2209  149.4160 H   0  0  0  0  0  0  0  0  0  0  0  0
  147.4347  133.4608  150.7920 H   0  0  0  0  0  0  0  0  0  0  0  0
  146.5152  131.2051  151.1993 H   0  0  0  0  0  0  0  0  0  0  0  0
  144.4383  131.7134  149.5272 H   0  0  0  0  0  0  0  0  0  0  0  0
  144.0968  130.7452  150.9609 H   0  0  0  0  0  0  0  0  0  0  0  0
  143.0509  133.4228  150.4250 H   0  0  0  0  0  0  0  0  0  0  0  0
  142.7833  132.4184  151.8493 H   0  0  0  0  0  0  0  0  0  0  0  0
  144.0785  134.3087  152.7621 H   0  0  0  0  0  0  0  0  0  0  0  0
  144.9525  131.8700  153.2049 H   0  0  0  0  0  0  0  0  0  0  0  0
  146.3304  132.9912  153.1196 H   0  0  0  0  0  0  0  0  0  0  0  0
  147.0811  142.2876  154.3941 H   0  0  0  0  0  0  0  0  0  0  0  0
  148.7235  143.1645  155.7637 H   0  0  0  0  0  0  0  0  0  0  0  0
  1  2  1  0  0  0  0
  1 21  1  0  0  0  0
  1 22  1  0  0  0  0
  1 23  1  0  0  0  0
  2 20  1  0  0  0  0
  2  3  2  0  0  0  0
  3  4  1  0  0  0  0
  3 24  1  0  0  0  0
  4  5  2  0  0  0  0
  4 25  1  0  0  0  0
  5  6  1  0  0  0  0
  5 19  1  0  0  0  0
  6  7  1  0  0  0  0
  6 26  1  0  0  0  0
  6 27  1  0  0  0  0
  7  8  1  0  0  0  0
  7 28  1  0  0  0  0
  7 29  1  0  0  0  0
  8  9  1  0  0  0  0
  8 30  1  0  0  0  0
  9 10  2  0  0  0  0
  9 11  1  0  0  0  0
 11 12  1  0  0  0  0
 11 31  1  0  0  0  0
 12 17  1  0  0  0  0
 12 13  1  0  0  0  0
 12 32  1  0  0  0  0
 13 14  1  0  0  0  0
 13 33  1  0  0  0  0
 13 34  1  0  0  0  0
 14 18  1  0  0  0  0
 14 15  1  0  0  0  0
 14 35  1  0  0  0  0
 15 16  1  0  0  0  0
 15 36  1  0  0  0  0
 15 37  1  0  0  0  0
 16 17  1  0  0  0  0
 16 38  1  0  0  0  0
 16 39  1  0  0  0  0
 17 18  1  0  0  0  0
 17 40  1  0  0  0  0
 18 41  1  0  0  0  0
 18 42  1  0  0  0  0
 19 20  2  0  0  0  0
 19 43  1  0  0  0  0
 20 44  1  0  0  0  0
M  CHG  1  20   1
M  END
> <s_m_source_file>
AV-unprocessed.smi

> <i_m_source_file_index>
753

> <i_lp_mmshare_version>
43012

> <i_f3d_flags>
0

> <s_epik_input>
W0NIM11jMVtjSF1bY0hdYyhbY0hdbjEpW0NIMl1bQ0gyXVtOSF1DKD1PKVtOSF1bQ0BIXShbQ0gyXVtDQEBIXTIzKVtDQEBIXShbQ0gyXTMpW0NIMl1bQ0gyXTI=

> <s_epik_cmdline>
J2VwaWtfcHl0aG9uJywgJy1waCcsICc3LjAnLCAnLXRuJywgJzgnLCAnLW1hJywgJzIwMCcsICctbWV0YWxfYmluZGluZycsICctaW1hZScsICc8aW5maWxlLm1hZT4nLCAnLW9tYWUnLCAnPG91dGZpbGUubWFlPic=

> <r_epik_Ionization_Penalty>
1.41708

> <r_epik_Ionization_Penalty_Charging>
1.41702

> <r_epik_Ionization_Penalty_Neutral>
5.73163e-05

> <r_epik_State_Penalty>
1.50048

> <r_epik_Charging_Adjusted_Penalty>
2.9175

> <i_epik_Tot_Q>
1

> <i_epik_Tot_abs_Q>
1

> <r_epik_Metal_State_Penalty>
1.55295

> <b_epik_Metal_Only>
0

> <s_lp_Force_Field>
OPLS_2005

> <r_lp_Energy>
57.1024

> <b_lp_Chiralities_Consistent>
1

> <s_lp_Variant>
AV-unprocessed.smi:753-8

> <Gold.Version>
5.8.1

> <Gold.Id.Protein>
6NUR|6NUR_protein|mol2

> <Gold.PLP.Fitness>
51.4879

> <Gold.PLP.PLP>
-40.4434

> <Gold.PLP.part.hbond>
-2.8554

> <Gold.PLP.part.metal>
0.0000

> <Gold.PLP.part.buried>
-5.3667

> <Gold.PLP.part.nonpolar>
-32.3431

> <Gold.PLP.part.repulsive>
0.4165

> <Gold.PLP.ligand.clash>
0.0000

> <Gold.PLP.ligand.torsion>
0.4911

> <Gold.PLP.Chemscore.Hbond>
4.0000

> <Gold.PLP.Chemscore.CHOScore>
0.0000

> <Gold.PLP.Chemscore.Metal>
0.0000

> <Gold.Chemscore.Hbonds>
donor molecule, donor type, donor heavy atom, donor atom, acceptor molecule, acceptor atom, score
      L1  H     8    30       P1  7948  1.00
      L1  H    11    31       P1  7948  0.99
      L1  H    20    44       P1  8028  2.00

> <Gold.PLP.Chemscore.Internal.Correction>
0.0267

> <Gold.Rescore>
     Score         DG    S(hbond)    S(metal)    S(lipo)     H(rot)  DE(clash)    DE(int)     intcor
     22.46     -23.11       2.90        0.00     100.71       1.50       0.21       0.44       ----

> <Gold.Chemscore.Fitness>
22.4556

> <Gold.Chemscore.DG>
-23.1077

> <Gold.Chemscore.ZeroCoef>
-5.4800

> <Gold.Chemscore.Hbond>
2.9015

> <Gold.Chemscore.Metal>
0.0000

> <Gold.Chemscore.Lipo>
100.7124

> <Gold.Chemscore.Internal_Hbond>
0.0000

> <Gold.Chemscore.DEClash>
0.2098

> <Gold.Chemscore.DEInternal>
0.4424

> <Gold.Chemscore.Rot>
1.5027

> <Gold.Chemscore.Internal.Correction>
   9.000000E+99

> <Gold.Chemscore.Hbonds>
donor molecule, donor type, donor heavy atom, donor atom, acceptor molecule, acceptor atom, score
      L1  H     8    30       P1  7948  0.97
      L1  H    11    31       P1  7948  0.91
      L1  H    20    44       P1  8028  0.92

> <Gold.Chemscore.Hbond.Weighted>
-9.6912

> <Gold.Chemscore.Metal.Weighted>
-0.0000

> <Gold.Chemscore.Lipo.Weighted>
-11.7834

> <Gold.Chemscore.Internal_Hbond.Weighted>
0.0000

> <Gold.Chemscore.DEClash.Weighted>
0.2098

> <Gold.Chemscore.DEInternal.Weighted>
0.4424

> <Gold.Chemscore.Rot.Weighted>
3.8468

> <Gold.Chemscore.Internal.Correction.Weighted>
   9.000000E+99

> <Gold.Protein.RotatedTorsions>
[ 6907 6896 6895 6894 ] final -121.28 input  -60.11 | X-H torsion
[ 7974 7965 7964 7962 ] final  141.08 input  175.53 | X-H torsion
[ 8008 7997 7996 7995 ] final -158.66 input   59.86 | X-H torsion
[ 10167 10162 10161 10158 ] final  -10.85 input  -65.29 | X-H torsion
[ 10718 10713 10712 10709 ] final -125.30 input   66.30 | X-H torsion
[ 10763 10752 10751 10750 ] final  115.68 input  -60.55 | X-H torsion
[ 11005 11000 10999 10996 ] final   29.74 input  -57.11 | X-H torsion

> <Gold.Protein.ActiveResidues>
 VAL166  LYS551  ARG553  GLY616  TRP617  ASP618  TYR619  PRO620  LYS621  CYS622 
 ASP623  PHE694  ASN695  SER759  ASP760  ASP761  ALA762  ILE779  LEU786  VAL792 
 PHE793  MET794  SER795  GLU796  ALA797  LYS798  CYS799  TRP800  GLU811  SER814 

> <Gold.Protein.RotatedAtoms>
  150.8469  133.7847  159.3039 H   0  0  0  0  0  0  0  0  0  0  0  0  # atno 6907 bound_to 6896
  151.5531  135.1065  159.9964 H   0  0  0  0  0  0  0  0  0  0  0  0  # atno 6908 bound_to 6896
  152.4521  133.7606  159.6801 H   0  0  0  0  0  0  0  0  0  0  0  0  # atno 6909 bound_to 6896
  144.9128  139.5270  143.5700 H   0  0  0  0  0  0  0  0  0  0  0  0  # atno 7974 bound_to 7965
  155.7509  140.0826  157.2201 H   0  0  0  0  0  0  0  0  0  0  0  0  # atno 8008 bound_to 7997
  154.4012  140.1560  156.2779 H   0  0  0  0  0  0  0  0  0  0  0  0  # atno 8009 bound_to 7997
  155.8931  140.3414  155.5973 H   0  0  0  0  0  0  0  0  0  0  0  0  # atno 8010 bound_to 7997
  140.7124  143.5703  150.9100 H   0  0  0  0  0  0  0  0  0  0  0  0  # atno 10167 bound_to 10162
  156.1663  130.6637  151.0120 H   0  0  0  0  0  0  0  0  0  0  0  0  # atno 10718 bound_to 10713
  153.5258  135.3588  155.2653 H   0  0  0  0  0  0  0  0  0  0  0  0  # atno 10763 bound_to 10752
  154.8731  135.4056  154.3208 H   0  0  0  0  0  0  0  0  0  0  0  0  # atno 10764 bound_to 10752
  153.3887  135.7071  153.6578 H   0  0  0  0  0  0  0  0  0  0  0  0  # atno 10765 bound_to 10752
  140.3018  134.2748  155.7752 H   0  0  0  0  0  0  0  0  0  0  0  0  # atno 11005 bound_to 11000
  146.3167  139.7948  142.8978 LP  0  0  0  0  0  0  0  0  0  0  0  0  # atno 17320 bound_to 7965
  145.3425  141.0290  143.3384 LP  0  0  0  0  0  0  0  0  0  0  0  0  # atno 17321 bound_to 7965
  139.9429  143.6361  152.3049 LP  0  0  0  0  0  0  0  0  0  0  0  0  # atno 17342 bound_to 10162
  139.6852  144.7652  151.1537 LP  0  0  0  0  0  0  0  0  0  0  0  0  # atno 17343 bound_to 10162
  157.6770  131.0848  150.7468 LP  0  0  0  0  0  0  0  0  0  0  0  0  # atno 17370 bound_to 10713
  156.7528  130.4774  149.5453 LP  0  0  0  0  0  0  0  0  0  0  0  0  # atno 17371 bound_to 10713
  141.2126  133.7651  156.9777 LP  0  0  0  0  0  0  0  0  0  0  0  0  # atno 17394 bound_to 11000
  140.1103  134.9481  157.2055 LP  0  0  0  0  0  0  0  0  0  0  0  0  # atno 17395 bound_to 11000

$$$$
