AV-unprocessed.smi:1840|AV-procd|sdf|7490|dock3
  -GOLD-   22720 9193D 1   1.00000     0.00000
 Structure written by MMmdl.
 43 44  0  0  0  0  0  0  0  0  1 V2000
  146.4195  139.3281  154.0932 C   0  0  0  0  0  0  0  0  0  0  0  0
  147.8227  138.8129  154.4410 C   0  0  2  0  0  0  0  0  0  0  0  0
  148.9160  139.7977  153.9735 C   0  0  0  0  0  0  0  0  0  0  0  0
  150.2424  139.4224  154.4310 N   0  0  0  0  0  0  0  0  0  0  0  0
  150.8957  138.2180  154.2720 C   0  0  0  0  0  0  0  0  0  0  0  0
  152.1083  138.3296  154.8892 C   0  0  0  0  0  0  0  0  0  0  0  0
  152.1065  139.6581  155.3992 C   0  0  0  0  0  0  0  0  0  0  0  0
  150.9901  140.3109  155.1201 N   0  0  0  0  0  0  0  0  0  0  0  0
  148.0130  137.5003  153.8253 N   0  0  0  0  0  0  0  0  0  0  0  0
  147.3381  136.3854  154.1404 C   0  0  0  0  0  0  0  0  0  0  0  0
  146.4215  136.3382  154.9608 O   0  0  0  0  0  0  0  0  0  0  0  0
  147.8054  135.3231  153.4716 N   0  0  0  0  0  0  0  0  0  0  0  0
  147.3427  133.9438  153.6304 C   0  0  1  0  0  0  0  0  0  0  0  0
  145.8407  133.8375  153.2967 C   0  0  0  0  0  0  0  0  0  0  0  0
  145.5659  134.0245  151.7946 C   0  0  0  0  0  0  0  0  0  0  0  0
  146.3927  133.0413  150.9525 C   0  0  0  0  0  0  0  0  0  0  0  0
  147.8935  133.1632  151.2620 C   0  0  0  0  0  0  0  0  0  0  0  0
  148.1815  132.9706  152.7656 C   0  0  1  0  0  0  0  0  0  0  0  0
  149.6880  133.0522  153.0694 C   0  0  0  0  0  0  0  0  0  0  0  0
  146.2299  140.2935  154.5634 H   0  0  0  0  0  0  0  0  0  0  0  0
  145.6504  138.6373  154.4400 H   0  0  0  0  0  0  0  0  0  0  0  0
  146.2964  139.4527  153.0167 H   0  0  0  0  0  0  0  0  0  0  0  0
  147.8723  138.7245  155.5280 H   0  0  0  0  0  0  0  0  0  0  0  0
  148.9291  139.8677  152.8850 H   0  0  0  0  0  0  0  0  0  0  0  0
  148.7017  140.8005  154.3459 H   0  0  0  0  0  0  0  0  0  0  0  0
  150.4441  137.3886  153.7476 H   0  0  0  0  0  0  0  0  0  0  0  0
  152.8782  137.5764  154.9672 H   0  0  0  0  0  0  0  0  0  0  0  0
  152.8783  140.1640  155.9605 H   0  0  0  0  0  0  0  0  0  0  0  0
  148.7444  137.4284  153.1334 H   0  0  0  0  0  0  0  0  0  0  0  0
  148.5599  135.4709  152.8178 H   0  0  0  0  0  0  0  0  0  0  0  0
  147.4746  133.6469  154.6726 H   0  0  0  0  0  0  0  0  0  0  0  0
  145.4757  132.8569  153.6048 H   0  0  0  0  0  0  0  0  0  0  0  0
  145.2716  134.5665  153.8751 H   0  0  0  0  0  0  0  0  0  0  0  0
  144.5037  133.8842  151.5922 H   0  0  0  0  0  0  0  0  0  0  0  0
  145.8014  135.0478  151.5000 H   0  0  0  0  0  0  0  0  0  0  0  0
  146.0607  132.0217  151.1518 H   0  0  0  0  0  0  0  0  0  0  0  0
  146.2162  133.2215  149.8917 H   0  0  0  0  0  0  0  0  0  0  0  0
  148.4445  132.4230  150.6808 H   0  0  0  0  0  0  0  0  0  0  0  0
  148.2549  134.1390  150.9348 H   0  0  0  0  0  0  0  0  0  0  0  0
  147.8646  131.9595  153.0261 H   0  0  0  0  0  0  0  0  0  0  0  0
  150.1075  134.0175  152.7854 H   0  0  0  0  0  0  0  0  0  0  0  0
  150.2373  132.2833  152.5259 H   0  0  0  0  0  0  0  0  0  0  0  0
  149.8819  132.9057  154.1323 H   0  0  0  0  0  0  0  0  0  0  0  0
  1  2  1  0  0  0  0
  1 20  1  0  0  0  0
  1 21  1  0  0  0  0
  1 22  1  0  0  0  0
  2  3  1  0  0  0  0
  2  9  1  0  0  0  0
  2 23  1  0  0  0  0
  3  4  1  0  0  0  0
  3 24  1  0  0  0  0
  3 25  1  0  0  0  0
  4  8  1  0  0  0  0
  4  5  1  0  0  0  0
  5  6  2  0  0  0  0
  5 26  1  0  0  0  0
  6  7  1  0  0  0  0
  6 27  1  0  0  0  0
  7  8  2  0  0  0  0
  7 28  1  0  0  0  0
  9 10  1  0  0  0  0
  9 29  1  0  0  0  0
 10 11  2  0  0  0  0
 10 12  1  0  0  0  0
 12 13  1  0  0  0  0
 12 30  1  0  0  0  0
 13 18  1  0  0  0  0
 13 14  1  0  0  0  0
 13 31  1  0  0  0  0
 14 15  1  0  0  0  0
 14 32  1  0  0  0  0
 14 33  1  0  0  0  0
 15 16  1  0  0  0  0
 15 34  1  0  0  0  0
 15 35  1  0  0  0  0
 16 17  1  0  0  0  0
 16 36  1  0  0  0  0
 16 37  1  0  0  0  0
 17 18  1  0  0  0  0
 17 38  1  0  0  0  0
 17 39  1  0  0  0  0
 18 19  1  0  0  0  0
 18 40  1  0  0  0  0
 19 41  1  0  0  0  0
 19 42  1  0  0  0  0
 19 43  1  0  0  0  0
M  END
> <s_m_source_file>
AV-unprocessed.smi

> <i_m_source_file_index>
1840

> <i_lp_mmshare_version>
43012

> <i_f3d_flags>
0

> <s_epik_input>
bjFbY0hdW2NIXVtjSF1uMVtDSDJdW0NAQEhdKFtDSDNdKVtOSF1DKD1PKVtOSF1bQ0BASF0yW0NIMl1bQ0gyXVtDSDJdW0NIMl1bQ0BIXTJbQ0gzXQ==

> <s_epik_cmdline>
J2VwaWtfcHl0aG9uJywgJy1waCcsICc3LjAnLCAnLXRuJywgJzgnLCAnLW1hJywgJzIwMCcsICctbWV0YWxfYmluZGluZycsICctaW1hZScsICc8aW5maWxlLm1hZT4nLCAnLW9tYWUnLCAnPG91dGZpbGUubWFlPic=

> <r_lp_tautomer_probability>
1

> <r_epik_Ionization_Penalty>
7.38659e-05

> <r_epik_Ionization_Penalty_Charging>
0

> <r_epik_Ionization_Penalty_Neutral>
7.38659e-05

> <r_epik_State_Penalty>
-0

> <r_epik_Charging_Adjusted_Penalty>
0

> <i_epik_Tot_Q>
0

> <i_epik_Tot_abs_Q>
0

> <r_epik_Metal_State_Penalty>
-0

> <b_epik_Metal_Only>
0

> <s_lp_Force_Field>
OPLS_2005

> <r_lp_Energy>
7.22709

> <b_lp_Chiralities_Consistent>
1

> <s_lp_Variant>
AV-unprocessed.smi:1840-3

> <Gold.Version>
5.8.1

> <Gold.Id.Protein>
6NUR|6NUR_protein|mol2

> <Gold.PLP.Fitness>
42.0232

> <Gold.PLP.PLP>
-31.3458

> <Gold.PLP.part.hbond>
-3.0000

> <Gold.PLP.part.metal>
0.0000

> <Gold.PLP.part.buried>
-1.5434

> <Gold.PLP.part.nonpolar>
-26.7302

> <Gold.PLP.part.repulsive>
0.0756

> <Gold.PLP.ligand.clash>
0.0000

> <Gold.PLP.ligand.torsion>
0.1144

> <Gold.PLP.Chemscore.Hbond>
2.5300

> <Gold.PLP.Chemscore.CHOScore>
1.0997

> <Gold.PLP.Chemscore.Metal>
0.0000

> <Gold.Chemscore.Hbonds>
donor molecule, donor type, donor heavy atom, donor atom, acceptor molecule, acceptor atom, score
      L1  H     9    29       P1  7948  0.61
      L1  H    12    30       P1  7948  0.29
      P1  H  7989  7998       L1     8  0.21
      L1  C     5    26       P1  7948  0.65
      L1  C     5    26       P1  7949  0.24

> <Gold.PLP.Chemscore.Internal.Correction>
0.0172

> <Gold.Rescore>
     Score         DG    S(hbond)    S(metal)    S(lipo)     H(rot)  DE(clash)    DE(int)     intcor
     14.89     -15.77       1.91        0.00      67.38       1.56       0.26       0.62       ----

> <Gold.Chemscore.Fitness>
14.8921

> <Gold.Chemscore.DG>
-15.7664

> <Gold.Chemscore.ZeroCoef>
-5.4800

> <Gold.Chemscore.Hbond>
1.9134

> <Gold.Chemscore.Metal>
0.0000

> <Gold.Chemscore.Lipo>
67.3768

> <Gold.Chemscore.Internal_Hbond>
0.0000

> <Gold.Chemscore.DEClash>
0.2566

> <Gold.Chemscore.DEInternal>
0.6176

> <Gold.Chemscore.Rot>
1.5576

> <Gold.Chemscore.Internal.Correction>
   9.000000E+99

> <Gold.Chemscore.Hbonds>
donor molecule, donor type, donor heavy atom, donor atom, acceptor molecule, acceptor atom, score
      L1  H     9    29       P1  7948  0.60
      L1  H    12    30       P1  7948  0.27

> <Gold.Chemscore.Hbond.Weighted>
-6.3908

> <Gold.Chemscore.Metal.Weighted>
-0.0000

> <Gold.Chemscore.Lipo.Weighted>
-7.8831

> <Gold.Chemscore.Internal_Hbond.Weighted>
0.0000

> <Gold.Chemscore.DEClash.Weighted>
0.2566

> <Gold.Chemscore.DEInternal.Weighted>
0.6176

> <Gold.Chemscore.Rot.Weighted>
3.9875

> <Gold.Chemscore.Internal.Correction.Weighted>
   9.000000E+99

> <Gold.Protein.RotatedTorsions>
[ 6907 6896 6895 6894 ] final -157.39 input  -60.11 | X-H torsion
[ 7974 7965 7964 7962 ] final  104.31 input  175.53 | X-H torsion
[ 8008 7997 7996 7995 ] final  175.28 input   59.86 | X-H torsion
[ 10167 10162 10161 10158 ] final  126.30 input  -65.29 | X-H torsion
[ 10718 10713 10712 10709 ] final  157.57 input   66.30 | X-H torsion
[ 10763 10752 10751 10750 ] final -139.39 input  -60.55 | X-H torsion
[ 11005 11000 10999 10996 ] final -126.50 input  -57.11 | X-H torsion

> <Gold.Protein.ActiveResidues>
 VAL166  LYS551  ARG553  GLY616  TRP617  ASP618  TYR619  PRO620  LYS621  CYS622 
 ASP623  PHE694  ASN695  SER759  ASP760  ASP761  ALA762  ILE779  LEU786  VAL792 
 PHE793  MET794  SER795  GLU796  ALA797  LYS798  CYS799  TRP800  GLU811  SER814 

> <Gold.Protein.RotatedAtoms>
  151.3021  133.4117  159.2640 H   0  0  0  0  0  0  0  0  0  0  0  0  # atno 6907 bound_to 6896
  151.0186  134.9452  159.8057 H   0  0  0  0  0  0  0  0  0  0  0  0  # atno 6908 bound_to 6896
  152.5319  134.2985  159.9122 H   0  0  0  0  0  0  0  0  0  0  0  0  # atno 6909 bound_to 6896
  145.3345  139.2478  143.3643 H   0  0  0  0  0  0  0  0  0  0  0  0  # atno 7974 bound_to 7965
  156.0887  140.1413  156.9620 H   0  0  0  0  0  0  0  0  0  0  0  0  # atno 8008 bound_to 7997
  154.4628  140.0937  156.6988 H   0  0  0  0  0  0  0  0  0  0  0  0  # atno 8009 bound_to 7997
  155.4956  140.3449  155.4364 H   0  0  0  0  0  0  0  0  0  0  0  0  # atno 8010 bound_to 7997
  139.5639  144.6899  151.3966 H   0  0  0  0  0  0  0  0  0  0  0  0  # atno 10167 bound_to 10162
  157.1897  131.0652  151.2086 H   0  0  0  0  0  0  0  0  0  0  0  0  # atno 10718 bound_to 10713
  154.8610  135.3584  154.5538 H   0  0  0  0  0  0  0  0  0  0  0  0  # atno 10763 bound_to 10752
  153.6155  135.7008  153.5335 H   0  0  0  0  0  0  0  0  0  0  0  0  # atno 10764 bound_to 10752
  153.3173  135.4161  155.1347 H   0  0  0  0  0  0  0  0  0  0  0  0  # atno 10765 bound_to 10752
  140.9676  134.0850  157.3903 H   0  0  0  0  0  0  0  0  0  0  0  0  # atno 11005 bound_to 11000
  146.3032  140.3929  142.8696 LP  0  0  0  0  0  0  0  0  0  0  0  0  # atno 17320 bound_to 7965
  144.8838  140.7435  143.5970 LP  0  0  0  0  0  0  0  0  0  0  0  0  # atno 17321 bound_to 7965
  140.6921  143.7837  150.7270 LP  0  0  0  0  0  0  0  0  0  0  0  0  # atno 17342 bound_to 10162
  140.1323  143.4515  152.2247 LP  0  0  0  0  0  0  0  0  0  0  0  0  # atno 17343 bound_to 10162
  157.3872  130.7263  149.6672 LP  0  0  0  0  0  0  0  0  0  0  0  0  # atno 17370 bound_to 10713
  155.9713  130.4156  150.4190 LP  0  0  0  0  0  0  0  0  0  0  0  0  # atno 17371 bound_to 10713
  139.8900  135.0109  156.6713 LP  0  0  0  0  0  0  0  0  0  0  0  0  # atno 17394 bound_to 11000
  140.7376  133.9005  155.8255 LP  0  0  0  0  0  0  0  0  0  0  0  0  # atno 17395 bound_to 11000

$$$$
