AV-unprocessed.smi:2118|AV-procd|sdf|8629|dock2
  -GOLD-   2272011373D 1   1.00000     0.00000
 Structure written by MMmdl.
 39 40  0  0  0  0  0  0  0  0  2 V2000
  152.0275  145.4150  160.0722 C   0  0  0  0  0  0  0  0  0  0  0  0
  152.2666  144.2377  159.1162 C   0  0  0  0  0  0  0  0  0  0  0  0
  151.1546  144.1196  158.0665 C   0  0  0  0  0  0  0  0  0  0  0  0
  151.4022  142.9407  157.1100 C   0  0  0  0  0  0  0  0  0  0  0  0
  151.5766  141.6675  157.8395 N   0  0  0  0  0  0  0  0  0  0  0  0
  151.4929  140.2092  156.8937 S   0  0  0  0  0  0  0  0  0  0  0  0
  151.3039  140.6262  155.4944 O   0  0  0  0  0  0  0  0  0  0  0  0
  152.7091  139.4478  157.2235 O   0  0  0  0  0  0  0  0  0  0  0  0
  150.1399  139.6024  157.5495 N   0  5  0  0  0  0  0  0  0  0  0  0
  148.8726  140.2520  157.2680 C   0  0  0  0  0  0  0  0  0  0  0  0
  148.5946  140.2215  155.7515 C   0  0  0  0  0  0  0  0  0  0  0  0
  147.7697  141.4020  155.2548 C   0  0  0  0  0  0  0  0  0  0  0  0
  147.6587  141.6807  153.8749 C   0  0  0  0  0  0  0  0  0  0  0  0
  146.8757  142.7757  153.4619 C   0  0  0  0  0  0  0  0  0  0  0  0
  146.2305  143.5483  154.4478 C   0  0  0  0  0  0  0  0  0  0  0  0
  146.3213  143.2900  155.7699 N   0  0  0  0  0  0  0  0  0  0  0  0
  147.0745  142.2379  156.1579 C   0  0  0  0  0  0  0  0  0  0  0  0
  152.6085  141.7315  158.9004 C   0  0  0  0  0  0  0  0  0  0  0  0
  152.3636  142.9028  159.8659 C   0  0  0  0  0  0  0  0  0  0  0  0
  151.0954  145.2944  160.6255 H   0  0  0  0  0  0  0  0  0  0  0  0
  151.9719  146.3577  159.5271 H   0  0  0  0  0  0  0  0  0  0  0  0
  152.8367  145.5015  160.7979 H   0  0  0  0  0  0  0  0  0  0  0  0
  153.2116  144.4129  158.5993 H   0  0  0  0  0  0  0  0  0  0  0  0
  150.1906  143.9887  158.5604 H   0  0  0  0  0  0  0  0  0  0  0  0
  151.0837  145.0442  157.4925 H   0  0  0  0  0  0  0  0  0  0  0  0
  150.5595  142.8615  156.4238 H   0  0  0  0  0  0  0  0  0  0  0  0
  152.2889  143.1233  156.5016 H   0  0  0  0  0  0  0  0  0  0  0  0
  148.0465  139.7647  157.7873 H   0  0  0  0  0  0  0  0  0  0  0  0
  148.8727  141.2877  157.6099 H   0  0  0  0  0  0  0  0  0  0  0  0
  149.5372  140.2022  155.2023 H   0  0  0  0  0  0  0  0  0  0  0  0
  148.0724  139.3002  155.4891 H   0  0  0  0  0  0  0  0  0  0  0  0
  148.1664  141.0667  153.1453 H   0  0  0  0  0  0  0  0  0  0  0  0
  146.7724  143.0177  152.4146 H   0  0  0  0  0  0  0  0  0  0  0  0
  145.6228  144.3957  154.1664 H   0  0  0  0  0  0  0  0  0  0  0  0
  147.1257  142.0585  157.2219 H   0  0  0  0  0  0  0  0  0  0  0  0
  152.6276  140.8020  159.4681 H   0  0  0  0  0  0  0  0  0  0  0  0
  153.5886  141.8289  158.4318 H   0  0  0  0  0  0  0  0  0  0  0  0
  153.1704  142.9435  160.5983 H   0  0  0  0  0  0  0  0  0  0  0  0
  151.4456  142.7238  160.4279 H   0  0  0  0  0  0  0  0  0  0  0  0
  1  2  1  0  0  0  0
  1 20  1  0  0  0  0
  1 21  1  0  0  0  0
  1 22  1  0  0  0  0
  2 19  1  0  0  0  0
  2  3  1  0  0  0  0
  2 23  1  0  0  0  0
  3  4  1  0  0  0  0
  3 24  1  0  0  0  0
  3 25  1  0  0  0  0
  4  5  1  0  0  0  0
  4 26  1  0  0  0  0
  4 27  1  0  0  0  0
  5  6  1  0  0  0  0
  5 18  1  0  0  0  0
  6  7  2  0  0  0  0
  6  8  2  0  0  0  0
  6  9  1  0  0  0  0
  9 10  1  0  0  0  0
 10 11  1  0  0  0  0
 10 28  1  0  0  0  0
 10 29  1  0  0  0  0
 11 12  1  0  0  0  0
 11 30  1  0  0  0  0
 11 31  1  0  0  0  0
 12 17  1  0  0  0  0
 12 13  2  0  0  0  0
 13 14  1  0  0  0  0
 13 32  1  0  0  0  0
 14 15  2  0  0  0  0
 14 33  1  0  0  0  0
 15 16  1  0  0  0  0
 15 34  1  0  0  0  0
 16 17  2  0  0  0  0
 17 35  1  0  0  0  0
 18 19  1  0  0  0  0
 18 36  1  0  0  0  0
 18 37  1  0  0  0  0
 19 38  1  0  0  0  0
 19 39  1  0  0  0  0
M  CHG  1   9  -1
M  END
> <s_m_source_file>
AV-unprocessed.smi

> <i_m_source_file_index>
2118

> <i_lp_mmshare_version>
43012

> <i_f3d_flags>
0

> <s_epik_input>
W0NIM11bQ0hdMVtDSDJdW0NIMl1OKFtDSDJdW0NIMl0xKVMoPU8pKD1PKVtOSF1bQ0gyXVtDSDJdYzJbY0hdW2NIXVtjSF1uW2NIXTI=

> <s_epik_cmdline>
J2VwaWtfcHl0aG9uJywgJy1waCcsICc3LjAnLCAnLXRuJywgJzgnLCAnLW1hJywgJzIwMCcsICctbWV0YWxfYmluZGluZycsICctaW1hZScsICc8aW5maWxlLm1hZT4nLCAnLW9tYWUnLCAnPG91dGZpbGUubWFlPic=

> <r_epik_Ionization_Penalty>
1.98317

> <r_epik_Ionization_Penalty_Charging>
1.95606

> <r_epik_Ionization_Penalty_Neutral>
0.0271171

> <r_epik_State_Penalty>
2.28376

> <r_epik_Charging_Adjusted_Penalty>
4.23982

> <i_epik_Tot_Q>
-1

> <i_epik_Tot_abs_Q>
1

> <r_epik_Metal_State_Penalty>
0.598332

> <b_epik_Metal_Only>
0

> <s_lp_Force_Field>
OPLS_2005

> <r_lp_Energy>
6.66289

> <b_lp_Chiralities_Consistent>
1

> <s_lp_Variant>
AV-unprocessed.smi:2118-2

> <Gold.Version>
5.8.1

> <Gold.Id.Protein>
6NUR|6NUR_protein|mol2

> <Gold.PLP.Fitness>
41.4785

> <Gold.PLP.PLP>
-36.8320

> <Gold.PLP.part.hbond>
-2.0000

> <Gold.PLP.part.metal>
0.0000

> <Gold.PLP.part.buried>
-6.4923

> <Gold.PLP.part.nonpolar>
-28.9132

> <Gold.PLP.part.repulsive>
0.2056

> <Gold.PLP.ligand.clash>
0.0000

> <Gold.PLP.ligand.torsion>
1.1554

> <Gold.PLP.Chemscore.Hbond>
1.8080

> <Gold.PLP.Chemscore.CHOScore>
0.0000

> <Gold.PLP.Chemscore.Metal>
0.0000

> <Gold.Chemscore.Hbonds>
donor molecule, donor type, donor heavy atom, donor atom, acceptor molecule, acceptor atom, score
      P1  H  7989  7998       L1     7  0.82
      P1  H  7997  8008       L1     8  0.91

> <Gold.PLP.Chemscore.Internal.Correction>
1.5334

> <Gold.Rescore>
     Score         DG    S(hbond)    S(metal)    S(lipo)     H(rot)  DE(clash)    DE(int)     intcor
     16.85     -19.30       1.91        0.00      94.78       1.42       0.03       2.43       ----

> <Gold.Chemscore.Fitness>
16.8475

> <Gold.Chemscore.DG>
-19.3023

> <Gold.Chemscore.ZeroCoef>
-5.4800

> <Gold.Chemscore.Hbond>
1.9077

> <Gold.Chemscore.Metal>
0.0000

> <Gold.Chemscore.Lipo>
94.7841

> <Gold.Chemscore.Internal_Hbond>
0.0000

> <Gold.Chemscore.DEClash>
0.0279

> <Gold.Chemscore.DEInternal>
2.4269

> <Gold.Chemscore.Rot>
1.4216

> <Gold.Chemscore.Internal.Correction>
   9.000000E+99

> <Gold.Chemscore.Hbonds>
donor molecule, donor type, donor heavy atom, donor atom, acceptor molecule, acceptor atom, score
      P1  H  7989  7998       L1     7  0.76
      P1  H  7997  8008       L1     8  0.76

> <Gold.Chemscore.Hbond.Weighted>
-6.3718

> <Gold.Chemscore.Metal.Weighted>
-0.0000

> <Gold.Chemscore.Lipo.Weighted>
-11.0897

> <Gold.Chemscore.Internal_Hbond.Weighted>
0.0000

> <Gold.Chemscore.DEClash.Weighted>
0.0279

> <Gold.Chemscore.DEInternal.Weighted>
2.4269

> <Gold.Chemscore.Rot.Weighted>
3.6392

> <Gold.Chemscore.Internal.Correction.Weighted>
   9.000000E+99

> <Gold.Protein.RotatedTorsions>
[ 6907 6896 6895 6894 ] final    7.10 input  -60.11 | X-H torsion
[ 7974 7965 7964 7962 ] final   56.05 input  175.53 | X-H torsion
[ 8008 7997 7996 7995 ] final  -39.57 input   59.86 | X-H torsion
[ 10167 10162 10161 10158 ] final  -99.61 input  -65.29 | X-H torsion
[ 10718 10713 10712 10709 ] final -156.85 input   66.30 | X-H torsion
[ 10763 10752 10751 10750 ] final -174.24 input  -60.55 | X-H torsion
[ 11005 11000 10999 10996 ] final -108.08 input  -57.11 | X-H torsion

> <Gold.Protein.ActiveResidues>
 VAL166  LYS551  ARG553  GLY616  TRP617  ASP618  TYR619  PRO620  LYS621  CYS622 
 ASP623  PHE694  ASN695  SER759  ASP760  ASP761  ALA762  ILE779  LEU786  VAL792 
 PHE793  MET794  SER795  GLU796  ALA797  LYS798  CYS799  TRP800  GLU811  SER814 

> <Gold.Protein.RotatedAtoms>
  151.6843  135.0957  160.0221 H   0  0  0  0  0  0  0  0  0  0  0  0  # atno 6907 bound_to 6896
  152.3816  133.6550  159.6174 H   0  0  0  0  0  0  0  0  0  0  0  0  # atno 6908 bound_to 6896
  150.7752  133.9020  159.3385 H   0  0  0  0  0  0  0  0  0  0  0  0  # atno 6909 bound_to 6896
  145.9439  139.3912  143.0347 H   0  0  0  0  0  0  0  0  0  0  0  0  # atno 7974 bound_to 7965
  154.4021  140.1548  156.2886 H   0  0  0  0  0  0  0  0  0  0  0  0  # atno 8008 bound_to 7997
  155.8806  140.3444  155.5863 H   0  0  0  0  0  0  0  0  0  0  0  0  # atno 8009 bound_to 7997
  155.7671  140.0825  157.2117 H   0  0  0  0  0  0  0  0  0  0  0  0  # atno 8010 bound_to 7997
  140.2606  143.3410  152.0629 H   0  0  0  0  0  0  0  0  0  0  0  0  # atno 10167 bound_to 10162
  156.5322  130.8526  151.2720 H   0  0  0  0  0  0  0  0  0  0  0  0  # atno 10718 bound_to 10713
  154.5985  135.2852  155.0560 H   0  0  0  0  0  0  0  0  0  0  0  0  # atno 10763 bound_to 10752
  154.1834  135.6453  153.5044 H   0  0  0  0  0  0  0  0  0  0  0  0  # atno 10764 bound_to 10752
  153.0148  135.5429  154.6696 H   0  0  0  0  0  0  0  0  0  0  0  0  # atno 10765 bound_to 10752
  141.0920  133.9037  157.2052 H   0  0  0  0  0  0  0  0  0  0  0  0  # atno 11005 bound_to 11000
  145.8262  140.9654  143.0872 LP  0  0  0  0  0  0  0  0  0  0  0  0  # atno 17320 bound_to 7965
  144.6784  140.0105  143.7484 LP  0  0  0  0  0  0  0  0  0  0  0  0  # atno 17321 bound_to 7965
  139.5018  144.6721  151.6218 LP  0  0  0  0  0  0  0  0  0  0  0  0  # atno 17342 bound_to 10162
  140.5969  143.9680  150.6360 LP  0  0  0  0  0  0  0  0  0  0  0  0  # atno 17343 bound_to 10162
  157.7420  130.9881  150.2483 LP  0  0  0  0  0  0  0  0  0  0  0  0  # atno 17370 bound_to 10713
  156.3049  130.3763  149.7715 LP  0  0  0  0  0  0  0  0  0  0  0  0  # atno 17371 bound_to 10713
  139.9749  135.0117  156.9605 LP  0  0  0  0  0  0  0  0  0  0  0  0  # atno 17394 bound_to 11000
  140.5228  134.0890  155.7296 LP  0  0  0  0  0  0  0  0  0  0  0  0  # atno 17395 bound_to 11000

$$$$
