AV-unprocessed.smi:1762|AV-procd|sdf|7101|dock6
  -GOLD-   22720 8323D 1   1.00000     0.00000
 Structure written by MMmdl.
 52 53  0  0  0  0  0  0  0  0  1 V2000
  152.9316  143.0907  162.7488 C   0  0  0  0  0  0  0  0  0  0  0  0
  152.1677  143.1820  161.4230 C   0  0  2  0  0  0  0  0  0  0  0  0
  152.5016  142.0137  160.4776 C   0  0  0  0  0  0  0  0  0  0  0  0
  151.8405  142.1379  159.1679 N   0  0  0  0  0  0  0  0  0  0  0  0
  152.0880  140.9993  158.2391 C   0  0  1  0  0  0  0  0  0  0  0  0
  151.7670  139.6183  158.8586 C   0  0  0  0  0  0  0  0  0  0  0  0
  150.6293  139.1517  158.7871 O   0  0  0  0  0  0  0  0  0  0  0  0
  152.7790  138.9846  159.4722 N   0  0  0  0  0  0  0  0  0  0  0  0
  152.6864  137.6738  160.1033 C   0  0  0  0  0  0  0  0  0  0  0  0
  154.0637  137.1739  160.5708 C   0  0  0  0  0  0  0  0  0  0  0  0
  153.9943  136.4759  161.9157 C   0  0  0  0  0  0  0  0  0  0  0  0
  153.6310  137.1884  163.0782 C   0  0  0  0  0  0  0  0  0  0  0  0
  153.5899  136.4964  164.3041 C   0  0  0  0  0  0  0  0  0  0  0  0
  153.9130  135.1259  164.3204 C   0  0  0  0  0  0  0  0  0  0  0  0
  154.2655  134.5061  163.1049 C   0  0  0  0  0  0  0  0  0  0  0  0
  154.3091  135.1607  161.9243 N   0  0  0  0  0  0  0  0  0  0  0  0
  151.4141  141.1390  156.8320 C   0  0  0  0  0  0  0  0  0  0  0  0
  149.8839  141.3152  156.8917 C   0  0  0  0  0  0  0  0  0  0  0  0
  151.7839  140.0057  155.8527 C   0  0  0  0  0  0  0  0  0  0  0  0
  152.2023  143.4379  158.5886 C   0  0  0  0  0  0  0  0  0  0  0  0
  151.9140  144.6290  159.5244 C   0  0  1  0  0  0  0  0  0  0  0  0
  150.4165  144.9649  159.6398 C   0  0  0  0  0  0  0  0  0  0  0  0
  152.5122  144.4150  160.8008 O   0  0  0  0  0  0  0  0  0  0  0  0
  152.6918  142.1676  163.2770 H   0  0  0  0  0  0  0  0  0  0  0  0
  152.6755  143.9236  163.4040 H   0  0  0  0  0  0  0  0  0  0  0  0
  154.0095  143.1138  162.5866 H   0  0  0  0  0  0  0  0  0  0  0  0
  151.1005  143.1735  161.6464 H   0  0  0  0  0  0  0  0  0  0  0  0
  153.5822  141.9485  160.3389 H   0  0  0  0  0  0  0  0  0  0  0  0
  152.1998  141.1035  160.9941 H   0  0  0  0  0  0  0  0  0  0  0  0
  153.1633  140.9862  158.0480 H   0  0  0  0  0  0  0  0  0  0  0  0
  153.6807  139.4386  159.4925 H   0  0  0  0  0  0  0  0  0  0  0  0
  152.0111  137.7569  160.9552 H   0  0  0  0  0  0  0  0  0  0  0  0
  152.2323  136.9589  159.4149 H   0  0  0  0  0  0  0  0  0  0  0  0
  154.4863  136.4865  159.8366 H   0  0  0  0  0  0  0  0  0  0  0  0
  154.7606  138.0105  160.6405 H   0  0  0  0  0  0  0  0  0  0  0  0
  153.3918  138.2409  163.0332 H   0  0  0  0  0  0  0  0  0  0  0  0
  153.3172  137.0079  165.2153 H   0  0  0  0  0  0  0  0  0  0  0  0
  153.8918  134.5631  165.2419 H   0  0  0  0  0  0  0  0  0  0  0  0
  154.5204  133.4570  163.0807 H   0  0  0  0  0  0  0  0  0  0  0  0
  151.8174  142.0327  156.3588 H   0  0  0  0  0  0  0  0  0  0  0  0
  149.3866  140.4270  157.2807 H   0  0  0  0  0  0  0  0  0  0  0  0
  149.4765  141.5058  155.8985 H   0  0  0  0  0  0  0  0  0  0  0  0
  149.6011  142.1580  157.5226 H   0  0  0  0  0  0  0  0  0  0  0  0
  151.3354  139.0535  156.1377 H   0  0  0  0  0  0  0  0  0  0  0  0
  152.8638  139.8660  155.8008 H   0  0  0  0  0  0  0  0  0  0  0  0
  151.4364  140.2350  154.8450 H   0  0  0  0  0  0  0  0  0  0  0  0
  153.2632  143.4393  158.3323 H   0  0  0  0  0  0  0  0  0  0  0  0
  151.6625  143.6210  157.6620 H   0  0  0  0  0  0  0  0  0  0  0  0
  152.4028  145.5089  159.1052 H   0  0  0  0  0  0  0  0  0  0  0  0
  150.0081  145.2505  158.6702 H   0  0  0  0  0  0  0  0  0  0  0  0
  150.2560  145.7986  160.3235 H   0  0  0  0  0  0  0  0  0  0  0  0
  149.8321  144.1184  159.9998 H   0  0  0  0  0  0  0  0  0  0  0  0
  1  2  1  0  0  0  0
  1 24  1  0  0  0  0
  1 25  1  0  0  0  0
  1 26  1  0  0  0  0
  2 23  1  0  0  0  0
  2  3  1  0  0  0  0
  2 27  1  0  0  0  0
  3  4  1  0  0  0  0
  3 28  1  0  0  0  0
  3 29  1  0  0  0  0
  4  5  1  0  0  0  0
  4 20  1  0  0  0  0
  5  6  1  0  0  0  0
  5 17  1  0  0  0  0
  5 30  1  0  0  0  0
  6  7  2  0  0  0  0
  6  8  1  0  0  0  0
  8  9  1  0  0  0  0
  8 31  1  0  0  0  0
  9 10  1  0  0  0  0
  9 32  1  0  0  0  0
  9 33  1  0  0  0  0
 10 11  1  0  0  0  0
 10 34  1  0  0  0  0
 10 35  1  0  0  0  0
 11 16  1  0  0  0  0
 11 12  2  0  0  0  0
 12 13  1  0  0  0  0
 12 36  1  0  0  0  0
 13 14  2  0  0  0  0
 13 37  1  0  0  0  0
 14 15  1  0  0  0  0
 14 38  1  0  0  0  0
 15 16  2  0  0  0  0
 15 39  1  0  0  0  0
 17 18  1  0  0  0  0
 17 19  1  0  0  0  0
 17 40  1  0  0  0  0
 18 41  1  0  0  0  0
 18 42  1  0  0  0  0
 18 43  1  0  0  0  0
 19 44  1  0  0  0  0
 19 45  1  0  0  0  0
 19 46  1  0  0  0  0
 20 21  1  0  0  0  0
 20 47  1  0  0  0  0
 20 48  1  0  0  0  0
 21 22  1  0  0  0  0
 21 23  1  0  0  0  0
 21 49  1  0  0  0  0
 22 50  1  0  0  0  0
 22 51  1  0  0  0  0
 22 52  1  0  0  0  0
M  END
> <s_m_source_file>
AV-unprocessed.smi

> <i_m_source_file_index>
1762

> <i_lp_mmshare_version>
43012

> <i_f3d_flags>
0

> <s_epik_input>
W0NIM11bQ0BASF0xW0NIMl1OKFtDSDJdW0NASF0oTzEpW0NIM10pW0NAQEhdKFtDSF0oW0NIM10pW0NIM10pQyg9TylbTkhdW0NIMl1bQ0gyXWMyW2NIXVtjSF1bY0hdW2NIXW4y

> <s_epik_cmdline>
J2VwaWtfcHl0aG9uJywgJy1waCcsICc3LjAnLCAnLXRuJywgJzgnLCAnLW1hJywgJzIwMCcsICctbWV0YWxfYmluZGluZycsICctaW1hZScsICc8aW5maWxlLm1hZT4nLCAnLW9tYWUnLCAnPG91dGZpbGUubWFlPic=

> <r_epik_Ionization_Penalty>
0.0399736

> <r_epik_Ionization_Penalty_Charging>
0

> <r_epik_Ionization_Penalty_Neutral>
0.0399736

> <r_epik_State_Penalty>
0.0317634

> <r_epik_Charging_Adjusted_Penalty>
0.0317634

> <i_epik_Tot_Q>
0

> <i_epik_Tot_abs_Q>
0

> <r_epik_Metal_State_Penalty>
0.0307795

> <b_epik_Metal_Only>
0

> <s_lp_Force_Field>
OPLS_2005

> <r_lp_Energy>
29.8059

> <b_lp_Chiralities_Consistent>
1

> <s_lp_Variant>
AV-unprocessed.smi:1762-3

> <Gold.Version>
5.8.1

> <Gold.Id.Protein>
6NUR|6NUR_protein|mol2

> <Gold.PLP.Fitness>
49.6914

> <Gold.PLP.PLP>
-51.4524

> <Gold.PLP.part.hbond>
0.0000

> <Gold.PLP.part.metal>
0.0000

> <Gold.PLP.part.buried>
-4.7871

> <Gold.PLP.part.nonpolar>
-46.2074

> <Gold.PLP.part.repulsive>
0.1893

> <Gold.PLP.ligand.clash>
0.0000

> <Gold.PLP.ligand.torsion>
1.0046

> <Gold.PLP.Chemscore.Hbond>
0.0000

> <Gold.PLP.Chemscore.CHOScore>
0.0000

> <Gold.PLP.Chemscore.Metal>
0.0000

> <Gold.PLP.Chemscore.Internal.Correction>
0.2483

> <Gold.Rescore>
     Score         DG    S(hbond)    S(metal)    S(lipo)     H(rot)  DE(clash)    DE(int)     intcor
     15.91     -18.13       0.00        0.00     143.11       1.60       0.07       2.15       ----

> <Gold.Chemscore.Fitness>
15.9082

> <Gold.Chemscore.DG>
-18.1295

> <Gold.Chemscore.ZeroCoef>
-5.4800

> <Gold.Chemscore.Hbond>
0.0000

> <Gold.Chemscore.Metal>
0.0000

> <Gold.Chemscore.Lipo>
143.1073

> <Gold.Chemscore.Internal_Hbond>
0.0000

> <Gold.Chemscore.DEClash>
0.0737

> <Gold.Chemscore.DEInternal>
2.1476

> <Gold.Chemscore.Rot>
1.5993

> <Gold.Chemscore.Internal.Correction>
   9.000000E+99

> <Gold.Chemscore.Hbond.Weighted>
-0.0000

> <Gold.Chemscore.Metal.Weighted>
-0.0000

> <Gold.Chemscore.Lipo.Weighted>
-16.7436

> <Gold.Chemscore.Internal_Hbond.Weighted>
0.0000

> <Gold.Chemscore.DEClash.Weighted>
0.0737

> <Gold.Chemscore.DEInternal.Weighted>
2.1476

> <Gold.Chemscore.Rot.Weighted>
4.0941

> <Gold.Chemscore.Internal.Correction.Weighted>
   9.000000E+99

> <Gold.Protein.RotatedTorsions>
[ 6907 6896 6895 6894 ] final    1.71 input  -60.11 | X-H torsion
[ 7974 7965 7964 7962 ] final   36.48 input  175.53 | X-H torsion
[ 8008 7997 7996 7995 ] final  174.85 input   59.86 | X-H torsion
[ 10167 10162 10161 10158 ] final   86.27 input  -65.29 | X-H torsion
[ 10718 10713 10712 10709 ] final   65.37 input   66.30 | X-H torsion
[ 10763 10752 10751 10750 ] final   86.32 input  -60.55 | X-H torsion
[ 11005 11000 10999 10996 ] final   70.05 input  -57.11 | X-H torsion

> <Gold.Protein.ActiveResidues>
 VAL166  LYS551  ARG553  GLY616  TRP617  ASP618  TYR619  PRO620  LYS621  CYS622 
 ASP623  PHE694  ASN695  SER759  ASP760  ASP761  ALA762  ILE779  LEU786  VAL792 
 PHE793  MET794  SER795  GLU796  ALA797  LYS798  CYS799  TRP800  GLU811  SER814 

> <Gold.Protein.RotatedAtoms>
  151.5971  135.1050  160.0051 H   0  0  0  0  0  0  0  0  0  0  0  0  # atno 6907 bound_to 6896
  152.4277  133.7219  159.6549 H   0  0  0  0  0  0  0  0  0  0  0  0  # atno 6908 bound_to 6896
  150.8167  133.8253  159.3180 H   0  0  0  0  0  0  0  0  0  0  0  0  # atno 6909 bound_to 6896
  146.1208  139.6013  142.9291 H   0  0  0  0  0  0  0  0  0  0  0  0  # atno 7974 bound_to 7965
  156.0932  140.1424  156.9565 H   0  0  0  0  0  0  0  0  0  0  0  0  # atno 8008 bound_to 7997
  154.4655  140.0928  156.7054 H   0  0  0  0  0  0  0  0  0  0  0  0  # atno 8009 bound_to 7997
  155.4885  140.3447  155.4353 H   0  0  0  0  0  0  0  0  0  0  0  0  # atno 8010 bound_to 7997
  139.8893  144.6395  150.8757 H   0  0  0  0  0  0  0  0  0  0  0  0  # atno 10167 bound_to 10162
  157.6101  130.9210  149.9967 H   0  0  0  0  0  0  0  0  0  0  0  0  # atno 10718 bound_to 10713
  153.1559  135.4584  154.9704 H   0  0  0  0  0  0  0  0  0  0  0  0  # atno 10763 bound_to 10752
  154.7861  135.3204  154.7885 H   0  0  0  0  0  0  0  0  0  0  0  0  # atno 10764 bound_to 10752
  153.8383  135.6932  153.4860 H   0  0  0  0  0  0  0  0  0  0  0  0  # atno 10765 bound_to 10752
  139.9619  134.7046  156.0627 H   0  0  0  0  0  0  0  0  0  0  0  0  # atno 11005 bound_to 11000
  145.5469  141.0416  143.2300 LP  0  0  0  0  0  0  0  0  0  0  0  0  # atno 17320 bound_to 7965
  144.7596  139.6990  143.7240 LP  0  0  0  0  0  0  0  0  0  0  0  0  # atno 17321 bound_to 7965
  140.7730  143.3523  151.1990 LP  0  0  0  0  0  0  0  0  0  0  0  0  # atno 17342 bound_to 10162
  139.7125  143.9354  152.2953 LP  0  0  0  0  0  0  0  0  0  0  0  0  # atno 17343 bound_to 10162
  156.1200  130.3646  149.9903 LP  0  0  0  0  0  0  0  0  0  0  0  0  # atno 17370 bound_to 10713
  156.7985  130.9282  151.3646 LP  0  0  0  0  0  0  0  0  0  0  0  0  # atno 17371 bound_to 10713
  141.1297  133.6590  156.3431 LP  0  0  0  0  0  0  0  0  0  0  0  0  # atno 17394 bound_to 11000
  140.5481  134.6055  157.5400 LP  0  0  0  0  0  0  0  0  0  0  0  0  # atno 17395 bound_to 11000

$$$$
