AV-unprocessed.smi:2069|AV-procd|sdf|8435|dock9
  -GOLD-   2272011133D 1   1.00000     0.00000
 Structure written by MMmdl.
 37 38  0  0  0  0  0  0  0  0  2 V2000
  143.3687  134.5582  162.9778 C   0  0  0  0  0  0  0  0  0  0  0  0
  144.4076  135.5013  162.4756 C   0  0  0  0  0  0  0  0  0  0  0  0
  144.1858  136.8101  162.3327 N   0  0  0  0  0  0  0  0  0  0  0  0
  145.2998  137.4792  161.8466 N   0  0  0  0  0  0  0  0  0  0  0  0
  146.3426  136.6684  161.6192 C   0  0  0  0  0  0  0  0  0  0  0  0
  147.5173  137.1210  161.1503 N   0  5  0  0  0  0  0  0  0  0  0  0
  148.1884  136.4151  160.2119 C   0  0  0  0  0  0  0  0  0  0  0  0
  148.1178  135.1984  160.0235 O   0  0  0  0  0  0  0  0  0  0  0  0
  148.9954  137.1649  159.4475 N   0  0  0  0  0  0  0  0  0  0  0  0
  149.8528  136.6759  158.3700 C   0  0  0  0  0  0  0  0  0  0  0  0
  150.9492  137.6937  157.9382 C   0  0  2  0  0  0  0  0  0  0  0  0
  151.5632  138.3366  159.2080 C   0  0  0  0  0  0  0  0  0  0  0  0
  150.4662  138.7014  156.9646 N   0  0  0  0  0  0  0  0  0  0  0  0
  150.1687  138.1234  155.6489 C   0  0  0  0  0  0  0  0  0  0  0  0
  149.7029  139.1739  154.6259 C   0  0  0  0  0  0  0  0  0  0  0  0
  150.6860  140.1920  154.4998 O   0  0  0  0  0  0  0  0  0  0  0  0
  150.9484  140.8337  155.7399 C   0  0  0  0  0  0  0  0  0  0  0  0
  151.4246  139.7957  156.7705 C   0  0  0  0  0  0  0  0  0  0  0  0
  146.0210  134.9810  162.0194 S   0  0  0  0  0  0  0  0  0  0  0  0
  142.6616  134.3257  162.1815 H   0  0  0  0  0  0  0  0  0  0  0  0
  142.8256  135.0036  163.8118 H   0  0  0  0  0  0  0  0  0  0  0  0
  143.8308  133.6315  163.3185 H   0  0  0  0  0  0  0  0  0  0  0  0
  149.0206  138.1564  159.6353 H   0  0  0  0  0  0  0  0  0  0  0  0
  150.2793  135.7349  158.7146 H   0  0  0  0  0  0  0  0  0  0  0  0
  149.2175  136.4321  157.5181 H   0  0  0  0  0  0  0  0  0  0  0  0
  151.7446  137.1224  157.4571 H   0  0  0  0  0  0  0  0  0  0  0  0
  151.8722  137.5940  159.9427 H   0  0  0  0  0  0  0  0  0  0  0  0
  150.8506  139.0024  159.6958 H   0  0  0  0  0  0  0  0  0  0  0  0
  152.4640  138.9078  158.9891 H   0  0  0  0  0  0  0  0  0  0  0  0
  151.0487  137.6060  155.2637 H   0  0  0  0  0  0  0  0  0  0  0  0
  149.3731  137.3852  155.7234 H   0  0  0  0  0  0  0  0  0  0  0  0
  149.5449  138.7092  153.6526 H   0  0  0  0  0  0  0  0  0  0  0  0
  148.7506  139.6120  154.9290 H   0  0  0  0  0  0  0  0  0  0  0  0
  151.7127  141.5962  155.5901 H   0  0  0  0  0  0  0  0  0  0  0  0
  150.0510  141.3449  156.0921 H   0  0  0  0  0  0  0  0  0  0  0  0
  151.5935  140.3288  157.7043 H   0  0  0  0  0  0  0  0  0  0  0  0
  152.3884  139.3916  156.4570 H   0  0  0  0  0  0  0  0  0  0  0  0
  1  2  1  0  0  0  0
  1 20  1  0  0  0  0
  1 21  1  0  0  0  0
  1 22  1  0  0  0  0
  2 19  1  0  0  0  0
  2  3  2  0  0  0  0
  3  4  1  0  0  0  0
  4  5  2  0  0  0  0
  5  6  1  0  0  0  0
  5 19  1  0  0  0  0
  6  7  1  0  0  0  0
  7  8  2  0  0  0  0
  7  9  1  0  0  0  0
  9 10  1  0  0  0  0
  9 23  1  0  0  0  0
 10 11  1  0  0  0  0
 10 24  1  0  0  0  0
 10 25  1  0  0  0  0
 11 12  1  0  0  0  0
 11 13  1  0  0  0  0
 11 26  1  0  0  0  0
 12 27  1  0  0  0  0
 12 28  1  0  0  0  0
 12 29  1  0  0  0  0
 13 18  1  0  0  0  0
 13 14  1  0  0  0  0
 14 15  1  0  0  0  0
 14 30  1  0  0  0  0
 14 31  1  0  0  0  0
 15 16  1  0  0  0  0
 15 32  1  0  0  0  0
 15 33  1  0  0  0  0
 16 17  1  0  0  0  0
 17 18  1  0  0  0  0
 17 34  1  0  0  0  0
 17 35  1  0  0  0  0
 18 36  1  0  0  0  0
 18 37  1  0  0  0  0
M  CHG  1   6  -1
M  END
> <s_m_source_file>
AV-unprocessed.smi

> <i_m_source_file_index>
2069

> <i_lp_mmshare_version>
43012

> <i_f3d_flags>
0

> <s_epik_input>
W0NIM11jMW5uYyhzMSlbTkhdQyg9TylbTkhdW0NIMl1bQ0BIXShbQ0gzXSlOMltDSDJdW0NIMl1PW0NIMl1bQ0gyXTI=

> <s_epik_cmdline>
J2VwaWtfcHl0aG9uJywgJy1waCcsICc3LjAnLCAnLXRuJywgJzgnLCAnLW1hJywgJzIwMCcsICctbWV0YWxfYmluZGluZycsICctaW1hZScsICc8aW5maWxlLm1hZT4nLCAnLW9tYWUnLCAnPG91dGZpbGUubWFlPic=

> <r_lp_tautomer_probability>
1

> <r_epik_Ionization_Penalty>
3.82002

> <r_epik_Ionization_Penalty_Charging>
3.36369

> <r_epik_Ionization_Penalty_Neutral>
0.456339

> <r_epik_State_Penalty>
3.571

> <r_epik_Charging_Adjusted_Penalty>
6.93469

> <i_epik_Tot_Q>
-1

> <i_epik_Tot_abs_Q>
1

> <r_epik_Metal_State_Penalty>
0.710436

> <b_epik_Metal_Only>
1

> <s_lp_Force_Field>
OPLS_2005

> <r_lp_Energy>
26.0796

> <b_lp_Chiralities_Consistent>
1

> <s_lp_Variant>
AV-unprocessed.smi:2069-5

> <Gold.Version>
5.8.1

> <Gold.Id.Protein>
6NUR|6NUR_protein|mol2

> <Gold.PLP.Fitness>
40.2725

> <Gold.PLP.PLP>
-27.7480

> <Gold.PLP.part.hbond>
-3.0000

> <Gold.PLP.part.metal>
0.0000

> <Gold.PLP.part.buried>
-5.5662

> <Gold.PLP.part.nonpolar>
-20.2200

> <Gold.PLP.part.repulsive>
0.3583

> <Gold.PLP.ligand.clash>
0.0000

> <Gold.PLP.ligand.torsion>
0.9300

> <Gold.PLP.Chemscore.Hbond>
4.7600

> <Gold.PLP.Chemscore.CHOScore>
0.0000

> <Gold.PLP.Chemscore.Metal>
0.0000

> <Gold.Chemscore.Hbonds>
donor molecule, donor type, donor heavy atom, donor atom, acceptor molecule, acceptor atom, score
      P1  H  6931  6943       L1     6  1.84
      P1  H  6934  6947       L1     6  1.92
      P1  H  7989  7998       L1    16  1.00

> <Gold.PLP.Chemscore.Internal.Correction>
0.1045

> <Gold.Rescore>
     Score         DG    S(hbond)    S(metal)    S(lipo)     H(rot)  DE(clash)    DE(int)     intcor
     12.59     -14.78       1.89        0.00      59.84       1.57       0.18       2.01       ----

> <Gold.Chemscore.Fitness>
12.5921

> <Gold.Chemscore.DG>
-14.7801

> <Gold.Chemscore.ZeroCoef>
-5.4800

> <Gold.Chemscore.Hbond>
1.8942

> <Gold.Chemscore.Metal>
0.0000

> <Gold.Chemscore.Lipo>
59.8373

> <Gold.Chemscore.Internal_Hbond>
0.0000

> <Gold.Chemscore.DEClash>
0.1769

> <Gold.Chemscore.DEInternal>
2.0111

> <Gold.Chemscore.Rot>
1.5732

> <Gold.Chemscore.Internal.Correction>
   9.000000E+99

> <Gold.Chemscore.Hbonds>
donor molecule, donor type, donor heavy atom, donor atom, acceptor molecule, acceptor atom, score
      P1  H  6931  6943       L1     6  0.21
      P1  H  6934  6947       L1     6  0.36
      P1  H  7989  7998       L1    16  0.47

> <Gold.Chemscore.Hbond.Weighted>
-6.3266

> <Gold.Chemscore.Metal.Weighted>
-0.0000

> <Gold.Chemscore.Lipo.Weighted>
-7.0010

> <Gold.Chemscore.Internal_Hbond.Weighted>
0.0000

> <Gold.Chemscore.DEClash.Weighted>
0.1769

> <Gold.Chemscore.DEInternal.Weighted>
2.0111

> <Gold.Chemscore.Rot.Weighted>
4.0274

> <Gold.Chemscore.Internal.Correction.Weighted>
   9.000000E+99

> <Gold.Protein.RotatedTorsions>
[ 6907 6896 6895 6894 ] final   -9.09 input  -60.11 | X-H torsion
[ 7974 7965 7964 7962 ] final -128.13 input  175.53 | X-H torsion
[ 8008 7997 7996 7995 ] final   79.88 input   59.86 | X-H torsion
[ 10167 10162 10161 10158 ] final  178.63 input  -65.29 | X-H torsion
[ 10718 10713 10712 10709 ] final   48.77 input   66.30 | X-H torsion
[ 10763 10752 10751 10750 ] final -107.91 input  -60.55 | X-H torsion
[ 11005 11000 10999 10996 ] final  -35.69 input  -57.11 | X-H torsion

> <Gold.Protein.ActiveResidues>
 VAL166  LYS551  ARG553  GLY616  TRP617  ASP618  TYR619  PRO620  LYS621  CYS622 
 ASP623  PHE694  ASN695  SER759  ASP760  ASP761  ALA762  ILE779  LEU786  VAL792 
 PHE793  MET794  SER795  GLU796  ALA797  LYS798  CYS799  TRP800  GLU811  SER814 

> <Gold.Protein.RotatedAtoms>
  151.4233  135.1000  159.9620 H   0  0  0  0  0  0  0  0  0  0  0  0  # atno 6907 bound_to 6896
  152.4981  133.8687  159.7297 H   0  0  0  0  0  0  0  0  0  0  0  0  # atno 6908 bound_to 6896
  150.9208  133.6825  159.2860 H   0  0  0  0  0  0  0  0  0  0  0  0  # atno 6909 bound_to 6896
  144.9701  140.7536  143.4676 H   0  0  0  0  0  0  0  0  0  0  0  0  # atno 7974 bound_to 7965
  155.8759  140.3446  155.5853 H   0  0  0  0  0  0  0  0  0  0  0  0  # atno 8008 bound_to 7997
  155.7775  140.0854  157.2095 H   0  0  0  0  0  0  0  0  0  0  0  0  # atno 8009 bound_to 7997
  154.4020  140.1507  156.3001 H   0  0  0  0  0  0  0  0  0  0  0  0  # atno 8010 bound_to 7997
  139.5302  144.2657  152.0670 H   0  0  0  0  0  0  0  0  0  0  0  0  # atno 10167 bound_to 10162
  157.4720  130.8261  149.7998 H   0  0  0  0  0  0  0  0  0  0  0  0  # atno 10718 bound_to 10713
  154.8104  135.4657  154.0501 H   0  0  0  0  0  0  0  0  0  0  0  0  # atno 10763 bound_to 10752
  153.1937  135.6859  153.8327 H   0  0  0  0  0  0  0  0  0  0  0  0  # atno 10764 bound_to 10752
  153.7836  135.3253  155.3346 H   0  0  0  0  0  0  0  0  0  0  0  0  # atno 10765 bound_to 10752
  140.9816  133.7053  156.1694 H   0  0  0  0  0  0  0  0  0  0  0  0  # atno 11005 bound_to 11000
  145.2572  139.2007  143.4911 LP  0  0  0  0  0  0  0  0  0  0  0  0  # atno 17320 bound_to 7965
  146.3379  140.2495  142.8598 LP  0  0  0  0  0  0  0  0  0  0  0  0  # atno 17321 bound_to 7965
  140.2119  144.4554  150.6382 LP  0  0  0  0  0  0  0  0  0  0  0  0  # atno 17342 bound_to 10162
  140.6475  143.2217  151.6153 LP  0  0  0  0  0  0  0  0  0  0  0  0  # atno 17343 bound_to 10162
  156.0078  130.3847  150.2369 LP  0  0  0  0  0  0  0  0  0  0  0  0  # atno 17370 bound_to 10713
  157.0552  131.0074  151.3240 LP  0  0  0  0  0  0  0  0  0  0  0  0  # atno 17371 bound_to 10713
  140.7178  134.4392  157.5577 LP  0  0  0  0  0  0  0  0  0  0  0  0  # atno 17394 bound_to 11000
  139.8953  134.8687  156.2140 LP  0  0  0  0  0  0  0  0  0  0  0  0  # atno 17395 bound_to 11000

$$$$
