AV-unprocessed.smi:656|AV-procd|sdf|3219|dock8
  -GOLD-   22720 0153D 1   1.00000     0.00000
 Structure written by MMmdl.
 41 42  0  0  0  0  0  0  0  0  2 V2000
  143.8371  132.3902  149.7525 C   0  0  0  0  0  0  0  0  0  0  0  0
  144.5802  131.9131  151.0051 C   0  0  0  0  0  0  0  0  0  0  0  0
  144.7958  133.0466  152.0230 C   0  0  0  0  0  0  0  0  0  0  0  0
  145.9074  132.7647  152.9669 N   0  3  2  0  0  0  0  0  0  0  0  0
  145.9244  133.7165  154.1081 C   0  0  0  0  0  0  0  0  0  0  0  0
  146.9977  133.3356  155.1447 C   0  0  0  0  0  0  0  0  0  0  0  0
  148.3957  133.2227  154.5133 C   0  0  2  0  0  0  0  0  0  0  0  0
  148.9028  134.5467  154.1525 N   0  0  0  0  0  0  0  0  0  0  0  0
  149.6013  135.3569  154.9618 C   0  0  0  0  0  0  0  0  0  0  0  0
  149.9062  135.0613  156.1172 O   0  0  0  0  0  0  0  0  0  0  0  0
  149.9128  136.5100  154.3451 N   0  0  0  0  0  0  0  0  0  0  0  0
  150.6662  137.5991  154.8569 C   0  0  0  0  0  0  0  0  0  0  0  0
  151.5911  137.2705  155.8709 C   0  0  0  0  0  0  0  0  0  0  0  0
  152.3661  138.3030  156.4263 C   0  0  0  0  0  0  0  0  0  0  0  0
  152.1616  139.6007  155.9271 C   0  0  0  0  0  0  0  0  0  0  0  0
  151.2644  139.8698  154.9539 N   0  0  0  0  0  0  0  0  0  0  0  0
  150.5303  138.8820  154.4300 N   0  0  0  0  0  0  0  0  0  0  0  0
  148.3341  132.2759  153.2984 C   0  0  0  0  0  0  0  0  0  0  0  0
  147.2356  132.6858  152.3021 C   0  0  0  0  0  0  0  0  0  0  0  0
  143.6991  131.5703  149.0471 H   0  0  0  0  0  0  0  0  0  0  0  0
  144.3912  133.1784  149.2420 H   0  0  0  0  0  0  0  0  0  0  0  0
  142.8508  132.7819  150.0032 H   0  0  0  0  0  0  0  0  0  0  0  0
  144.0138  131.1055  151.4705 H   0  0  0  0  0  0  0  0  0  0  0  0
  145.5338  131.4852  150.6976 H   0  0  0  0  0  0  0  0  0  0  0  0
  144.9707  133.9966  151.5153 H   0  0  0  0  0  0  0  0  0  0  0  0
  143.8709  133.1669  152.5892 H   0  0  0  0  0  0  0  0  0  0  0  0
  146.0960  134.7280  153.7365 H   0  0  0  0  0  0  0  0  0  0  0  0
  144.9489  133.7227  154.5961 H   0  0  0  0  0  0  0  0  0  0  0  0
  147.0073  134.0611  155.9591 H   0  0  0  0  0  0  0  0  0  0  0  0
  146.7316  132.3788  155.5961 H   0  0  0  0  0  0  0  0  0  0  0  0
  149.0713  132.7983  155.2583 H   0  0  0  0  0  0  0  0  0  0  0  0
  148.6927  134.8771  153.2221 H   0  0  0  0  0  0  0  0  0  0  0  0
  149.5804  136.6202  153.3987 H   0  0  0  0  0  0  0  0  0  0  0  0
  151.7066  136.2538  156.2174 H   0  0  0  0  0  0  0  0  0  0  0  0
  153.0887  138.1078  157.2047 H   0  0  0  0  0  0  0  0  0  0  0  0
  152.7252  140.4368  156.3135 H   0  0  0  0  0  0  0  0  0  0  0  0
  149.2993  132.2316  152.7926 H   0  0  0  0  0  0  0  0  0  0  0  0
  148.1351  131.2619  153.6479 H   0  0  0  0  0  0  0  0  0  0  0  0
  147.2127  131.9564  151.4935 H   0  0  0  0  0  0  0  0  0  0  0  0
  147.4770  133.6483  151.8483 H   0  0  0  0  0  0  0  0  0  0  0  0
  145.7213  131.8546  153.3635 H   0  0  0  0  0  0  0  0  0  0  0  0
  1  2  1  0  0  0  0
  1 20  1  0  0  0  0
  1 21  1  0  0  0  0
  1 22  1  0  0  0  0
  2  3  1  0  0  0  0
  2 23  1  0  0  0  0
  2 24  1  0  0  0  0
  3  4  1  0  0  0  0
  3 25  1  0  0  0  0
  3 26  1  0  0  0  0
  4 19  1  0  0  0  0
  4  5  1  0  0  0  0
  4 41  1  0  0  0  0
  5  6  1  0  0  0  0
  5 27  1  0  0  0  0
  5 28  1  0  0  0  0
  6  7  1  0  0  0  0
  6 29  1  0  0  0  0
  6 30  1  0  0  0  0
  7  8  1  0  0  0  0
  7 18  1  0  0  0  0
  7 31  1  0  0  0  0
  8  9  1  0  0  0  0
  8 32  1  0  0  0  0
  9 10  2  0  0  0  0
  9 11  1  0  0  0  0
 11 12  1  0  0  0  0
 11 33  1  0  0  0  0
 12 17  1  0  0  0  0
 12 13  2  0  0  0  0
 13 14  1  0  0  0  0
 13 34  1  0  0  0  0
 14 15  2  0  0  0  0
 14 35  1  0  0  0  0
 15 16  1  0  0  0  0
 15 36  1  0  0  0  0
 16 17  2  0  0  0  0
 18 19  1  0  0  0  0
 18 37  1  0  0  0  0
 18 38  1  0  0  0  0
 19 39  1  0  0  0  0
 19 40  1  0  0  0  0
M  CHG  1   4   1
M  END
> <s_m_source_file>
AV-unprocessed.smi

> <i_m_source_file_index>
656

> <i_lp_mmshare_version>
43012

> <i_f3d_flags>
0

> <s_epik_input>
W0NIM11bQ0gyXVtDSDJdTjFbQ0gyXVtDSDJdW0NIXShbQ0gyXVtDSDJdMSlbTkhdQyg9TylbTkhdYzJbY0hdW2NIXVtjSF1ubjI=

> <s_epik_cmdline>
J2VwaWtfcHl0aG9uJywgJy1waCcsICc3LjAnLCAnLXRuJywgJzgnLCAnLW1hJywgJzIwMCcsICctbWV0YWxfYmluZGluZycsICctaW1hZScsICc8aW5maWxlLm1hZT4nLCAnLW9tYWUnLCAnPG91dGZpbGUubWFlPic=

> <r_lp_tautomer_probability>
1

> <r_epik_Ionization_Penalty>
0.00614766

> <r_epik_Ionization_Penalty_Charging>
0.00269617

> <r_epik_Ionization_Penalty_Neutral>
0.00345149

> <r_epik_State_Penalty>
-0

> <r_epik_Charging_Adjusted_Penalty>
0.00269617

> <i_epik_Tot_Q>
1

> <i_epik_Tot_abs_Q>
1

> <r_epik_Metal_State_Penalty>
-0

> <b_epik_Metal_Only>
0

> <s_lp_Force_Field>
OPLS_2005

> <r_lp_Energy>
22.9398

> <b_lp_Chiralities_Consistent>
1

> <s_lp_Variant>
AV-unprocessed.smi:656-2

> <Gold.Version>
5.8.1

> <Gold.Id.Protein>
6NUR|6NUR_protein|mol2

> <Gold.PLP.Fitness>
37.2180

> <Gold.PLP.PLP>
-29.5979

> <Gold.PLP.part.hbond>
-3.6627

> <Gold.PLP.part.metal>
0.0000

> <Gold.PLP.part.buried>
-4.4087

> <Gold.PLP.part.nonpolar>
-22.5417

> <Gold.PLP.part.repulsive>
0.3005

> <Gold.PLP.ligand.clash>
0.0000

> <Gold.PLP.ligand.torsion>
0.6637

> <Gold.PLP.Chemscore.Hbond>
2.9760

> <Gold.PLP.Chemscore.CHOScore>
0.0000

> <Gold.PLP.Chemscore.Metal>
0.0000

> <Gold.Chemscore.Hbonds>
donor molecule, donor type, donor heavy atom, donor atom, acceptor molecule, acceptor atom, score
      L1  H     8    32       P1  7948  0.96
      L1  H    11    33       P1  7948  1.00
      P1  H  7989  7998       L1    16  1.00

> <Gold.PLP.Chemscore.Internal.Correction>
0.0195

> <Gold.Rescore>
     Score         DG    S(hbond)    S(metal)    S(lipo)     H(rot)  DE(clash)    DE(int)     intcor
     13.81     -15.85       2.04        0.00      62.25       1.45       0.00       2.04       ----

> <Gold.Chemscore.Fitness>
13.8114

> <Gold.Chemscore.DG>
-15.8494

> <Gold.Chemscore.ZeroCoef>
-5.4800

> <Gold.Chemscore.Hbond>
2.0367

> <Gold.Chemscore.Metal>
0.0000

> <Gold.Chemscore.Lipo>
62.2504

> <Gold.Chemscore.Internal_Hbond>
0.0000

> <Gold.Chemscore.DEClash>
0.0000

> <Gold.Chemscore.DEInternal>
2.0380

> <Gold.Chemscore.Rot>
1.4518

> <Gold.Chemscore.Internal.Correction>
   9.000000E+99

> <Gold.Chemscore.Hbonds>
donor molecule, donor type, donor heavy atom, donor atom, acceptor molecule, acceptor atom, score
      L1  H     8    32       P1  7948  0.41
      L1  H    11    33       P1  7948  0.60
      P1  H  7989  7998       L1    16  0.34

> <Gold.Chemscore.Hbond.Weighted>
-6.8027

> <Gold.Chemscore.Metal.Weighted>
-0.0000

> <Gold.Chemscore.Lipo.Weighted>
-7.2833

> <Gold.Chemscore.Internal_Hbond.Weighted>
0.0000

> <Gold.Chemscore.DEClash.Weighted>
0.0000

> <Gold.Chemscore.DEInternal.Weighted>
2.0380

> <Gold.Chemscore.Rot.Weighted>
3.7165

> <Gold.Chemscore.Internal.Correction.Weighted>
   9.000000E+99

> <Gold.Protein.RotatedTorsions>
[ 6907 6896 6895 6894 ] final   36.86 input  -60.11 | X-H torsion
[ 7974 7965 7964 7962 ] final -155.15 input  175.53 | X-H torsion
[ 8008 7997 7996 7995 ] final  128.45 input   59.86 | X-H torsion
[ 10167 10162 10161 10158 ] final   45.04 input  -65.29 | X-H torsion
[ 10718 10713 10712 10709 ] final   72.11 input   66.30 | X-H torsion
[ 10763 10752 10751 10750 ] final   15.34 input  -60.55 | X-H torsion
[ 11005 11000 10999 10996 ] final -115.95 input  -57.11 | X-H torsion

> <Gold.Protein.ActiveResidues>
 VAL166  LYS551  ARG553  GLY616  TRP617  ASP618  TYR619  PRO620  LYS621  CYS622 
 ASP623  PHE694  ASN695  SER759  ASP760  ASP761  ALA762  ILE779  LEU786  VAL792 
 PHE793  MET794  SER795  GLU796  ALA797  LYS798  CYS799  TRP800  GLU811  SER814 

> <Gold.Protein.RotatedAtoms>
  152.1354  134.9103  160.0556 H   0  0  0  0  0  0  0  0  0  0  0  0  # atno 6907 bound_to 6896
  152.0192  133.3887  159.4259 H   0  0  0  0  0  0  0  0  0  0  0  0  # atno 6908 bound_to 6896
  150.6860  134.3567  159.4976 H   0  0  0  0  0  0  0  0  0  0  0  0  # atno 6909 bound_to 6896
  144.7654  140.4289  143.5946 H   0  0  0  0  0  0  0  0  0  0  0  0  # atno 7974 bound_to 7965
  156.2915  140.2644  156.2438 H   0  0  0  0  0  0  0  0  0  0  0  0  # atno 8008 bound_to 7997
  154.9950  140.0388  157.2354 H   0  0  0  0  0  0  0  0  0  0  0  0  # atno 8009 bound_to 7997
  154.7652  140.2768  155.6187 H   0  0  0  0  0  0  0  0  0  0  0  0  # atno 8010 bound_to 7997
  140.3282  144.2622  150.6172 H   0  0  0  0  0  0  0  0  0  0  0  0  # atno 10167 bound_to 10162
  157.6485  130.9562  150.0883 H   0  0  0  0  0  0  0  0  0  0  0  0  # atno 10718 bound_to 10713
  153.1535  135.6783  153.8847 H   0  0  0  0  0  0  0  0  0  0  0  0  # atno 10763 bound_to 10752
  153.8266  135.3123  155.3416 H   0  0  0  0  0  0  0  0  0  0  0  0  # atno 10764 bound_to 10752
  154.7880  135.4851  154.0075 H   0  0  0  0  0  0  0  0  0  0  0  0  # atno 10765 bound_to 10752
  141.0454  133.9770  157.2926 H   0  0  0  0  0  0  0  0  0  0  0  0  # atno 11005 bound_to 11000
  145.6487  139.1561  143.2874 LP  0  0  0  0  0  0  0  0  0  0  0  0  # atno 17320 bound_to 7965
  146.1757  140.6577  142.9213 LP  0  0  0  0  0  0  0  0  0  0  0  0  # atno 17321 bound_to 7965
  140.5422  143.2221  151.8066 LP  0  0  0  0  0  0  0  0  0  0  0  0  # atno 17342 bound_to 10162
  139.4861  144.4586  151.9568 LP  0  0  0  0  0  0  0  0  0  0  0  0  # atno 17343 bound_to 10162
  156.1840  130.3651  149.8998 LP  0  0  0  0  0  0  0  0  0  0  0  0  # atno 17370 bound_to 10713
  156.6943  130.8908  151.3592 LP  0  0  0  0  0  0  0  0  0  0  0  0  # atno 17371 bound_to 10713
  139.9308  135.0200  156.8393 LP  0  0  0  0  0  0  0  0  0  0  0  0  # atno 17394 bound_to 11000
  140.6156  134.0042  155.7596 LP  0  0  0  0  0  0  0  0  0  0  0  0  # atno 17395 bound_to 11000

$$$$
