AV-unprocessed.smi:1110|AV-procd|sdf|4790|dock2
  -GOLD-   22720 3333D 1   1.00000     0.00000
 Structure written by MMmdl.
 44 45  0  0  0  0  0  0  0  0  2 V2000
  151.7373  137.1033  156.2831 C   0  0  0  0  0  0  0  0  0  0  0  0
  150.9686  135.9635  155.6010 C   0  0  0  0  0  0  0  0  0  0  0  0
  149.4370  136.1960  155.5450 C   0  0  2  0  0  0  0  0  0  0  0  0
  148.6420  134.8729  155.4252 C   0  0  0  0  0  0  0  0  0  0  0  0
  148.2364  134.6090  154.0467 N   0  0  0  0  0  0  0  0  0  0  0  0
  147.6811  133.4708  153.6034 C   0  0  0  0  0  0  0  0  0  0  0  0
  147.3428  132.5474  154.3437 O   0  0  0  0  0  0  0  0  0  0  0  0
  147.5074  133.3495  152.0845 C   0  0  0  0  0  0  0  0  0  0  0  0
  146.1109  133.0797  151.7000 N   0  0  0  0  0  0  0  0  0  0  0  0
  145.8156  131.7939  151.2048 C   0  0  0  0  0  0  0  0  0  0  0  0
  144.5745  131.4448  150.8302 C   0  0  0  0  0  0  0  0  0  0  0  0
  143.5238  132.4281  150.9462 C   0  0  0  0  0  0  0  0  0  0  0  0
  143.7950  133.6625  151.4142 C   0  0  0  0  0  0  0  0  0  0  0  0
  145.1503  134.0499  151.8213 C   0  0  0  0  0  0  0  0  0  0  0  0
  145.4080  135.1795  152.2411 O   0  0  0  0  0  0  0  0  0  0  0  0
  149.0233  137.1737  154.4951 N   0  3  0  0  0  0  0  0  0  0  0  0
  147.5989  137.5784  154.5252 C   0  0  0  0  0  0  0  0  0  0  0  0
  147.5609  138.9813  153.9238 C   0  0  0  0  0  0  0  0  0  0  0  0
  148.8851  139.5812  154.3823 C   0  0  0  0  0  0  0  0  0  0  0  0
  149.8513  138.3953  154.3320 C   0  0  0  0  0  0  0  0  0  0  0  0
  152.8112  136.9195  156.2445 H   0  0  0  0  0  0  0  0  0  0  0  0
  151.4629  137.2039  157.3328 H   0  0  0  0  0  0  0  0  0  0  0  0
  151.5482  138.0581  155.7918 H   0  0  0  0  0  0  0  0  0  0  0  0
  151.3706  135.8491  154.5950 H   0  0  0  0  0  0  0  0  0  0  0  0
  151.1966  135.0332  156.1206 H   0  0  0  0  0  0  0  0  0  0  0  0
  149.1398  136.6488  156.4927 H   0  0  0  0  0  0  0  0  0  0  0  0
  149.2248  134.0425  155.8274 H   0  0  0  0  0  0  0  0  0  0  0  0
  147.7348  134.9230  156.0269 H   0  0  0  0  0  0  0  0  0  0  0  0
  148.4554  135.3218  153.3652 H   0  0  0  0  0  0  0  0  0  0  0  0
  147.8744  134.2693  151.6273 H   0  0  0  0  0  0  0  0  0  0  0  0
  148.1485  132.5559  151.6953 H   0  0  0  0  0  0  0  0  0  0  0  0
  146.6552  131.1169  151.1443 H   0  0  0  0  0  0  0  0  0  0  0  0
  144.3676  130.4550  150.4504 H   0  0  0  0  0  0  0  0  0  0  0  0
  142.5149  132.1722  150.6567 H   0  0  0  0  0  0  0  0  0  0  0  0
  142.9954  134.3845  151.4946 H   0  0  0  0  0  0  0  0  0  0  0  0
  146.9777  136.8734  153.9721 H   0  0  0  0  0  0  0  0  0  0  0  0
  147.2265  137.6136  155.5490 H   0  0  0  0  0  0  0  0  0  0  0  0
  147.5384  138.9197  152.8347 H   0  0  0  0  0  0  0  0  0  0  0  0
  146.6958  139.5597  154.2490 H   0  0  0  0  0  0  0  0  0  0  0  0
  149.2095  140.4183  153.7633 H   0  0  0  0  0  0  0  0  0  0  0  0
  148.7910  139.9383  155.4090 H   0  0  0  0  0  0  0  0  0  0  0  0
  150.6577  138.4935  155.0574 H   0  0  0  0  0  0  0  0  0  0  0  0
  150.3163  138.3484  153.3471 H   0  0  0  0  0  0  0  0  0  0  0  0
  149.1257  136.6787  153.6201 H   0  0  0  0  0  0  0  0  0  0  0  0
  1  2  1  0  0  0  0
  1 21  1  0  0  0  0
  1 22  1  0  0  0  0
  1 23  1  0  0  0  0
  2  3  1  0  0  0  0
  2 24  1  0  0  0  0
  2 25  1  0  0  0  0
  3  4  1  0  0  0  0
  3 16  1  0  0  0  0
  3 26  1  0  0  0  0
  4  5  1  0  0  0  0
  4 27  1  0  0  0  0
  4 28  1  0  0  0  0
  5  6  1  0  0  0  0
  5 29  1  0  0  0  0
  6  7  2  0  0  0  0
  6  8  1  0  0  0  0
  8  9  1  0  0  0  0
  8 30  1  0  0  0  0
  8 31  1  0  0  0  0
  9 14  1  0  0  0  0
  9 10  1  0  0  0  0
 10 11  2  0  0  0  0
 10 32  1  0  0  0  0
 11 12  1  0  0  0  0
 11 33  1  0  0  0  0
 12 13  2  0  0  0  0
 12 34  1  0  0  0  0
 13 14  1  0  0  0  0
 13 35  1  0  0  0  0
 14 15  2  0  0  0  0
 16 20  1  0  0  0  0
 16 17  1  0  0  0  0
 16 44  1  0  0  0  0
 17 18  1  0  0  0  0
 17 36  1  0  0  0  0
 17 37  1  0  0  0  0
 18 19  1  0  0  0  0
 18 38  1  0  0  0  0
 18 39  1  0  0  0  0
 19 20  1  0  0  0  0
 19 40  1  0  0  0  0
 19 41  1  0  0  0  0
 20 42  1  0  0  0  0
 20 43  1  0  0  0  0
M  CHG  1  16   1
M  END
> <s_m_source_file>
AV-unprocessed.smi

> <i_m_source_file_index>
1110

> <i_lp_mmshare_version>
43012

> <i_f3d_flags>
0

> <s_epik_input>
W0NIMl0xW0NIMl1bQ0gyXVtDSDJdTjFbQ0BIXShbQ0gyXVtDSDNdKVtDSDJdW05IXUMoPU8pW0NIMl1uMltjSF1bY0hdW2NIXVtjSF1jMj1P

> <s_epik_cmdline>
J2VwaWtfcHl0aG9uJywgJy1waCcsICc3LjAnLCAnLXRuJywgJzgnLCAnLW1hJywgJzIwMCcsICctbWV0YWxfYmluZGluZycsICctaW1hZScsICc8aW5maWxlLm1hZT4nLCAnLW9tYWUnLCAnPG91dGZpbGUubWFlPic=

> <r_lp_tautomer_probability>
1

> <r_epik_Ionization_Penalty>
0.00361135

> <r_epik_Ionization_Penalty_Charging>
0.00361127

> <r_epik_Ionization_Penalty_Neutral>
7.8489e-08

> <r_epik_State_Penalty>
0.00256751

> <r_epik_Charging_Adjusted_Penalty>
0.00617878

> <i_epik_Tot_Q>
1

> <i_epik_Tot_abs_Q>
1

> <r_epik_Metal_State_Penalty>
-0

> <b_epik_Metal_Only>
0

> <s_lp_Force_Field>
OPLS_2005

> <r_lp_Energy>
45.664

> <b_lp_Chiralities_Consistent>
1

> <s_lp_Variant>
AV-unprocessed.smi:1110-1

> <Gold.Version>
5.8.1

> <Gold.Id.Protein>
6NUR|6NUR_protein|mol2

> <Gold.PLP.Fitness>
40.8991

> <Gold.PLP.PLP>
-30.5470

> <Gold.PLP.part.hbond>
-2.0000

> <Gold.PLP.part.metal>
0.0000

> <Gold.PLP.part.buried>
-4.0877

> <Gold.PLP.part.nonpolar>
-25.1727

> <Gold.PLP.part.repulsive>
0.1551

> <Gold.PLP.ligand.clash>
0.0000

> <Gold.PLP.ligand.torsion>
0.9471

> <Gold.PLP.Chemscore.Hbond>
3.0000

> <Gold.PLP.Chemscore.CHOScore>
1.0000

> <Gold.PLP.Chemscore.Metal>
0.0000

> <Gold.Chemscore.Hbonds>
donor molecule, donor type, donor heavy atom, donor atom, acceptor molecule, acceptor atom, score
      L1  H     5    29       P1  7948  1.00
      L1  H    16    44       P1  7948  2.00
      L1  C    10    32       P1 10747  1.00

> <Gold.PLP.Chemscore.Internal.Correction>
0.2464

> <Gold.Rescore>
     Score         DG    S(hbond)    S(metal)    S(lipo)     H(rot)  DE(clash)    DE(int)     intcor
     15.01     -16.21       1.98        0.00      78.70       1.99       0.02       1.18       ----

> <Gold.Chemscore.Fitness>
15.0115

> <Gold.Chemscore.DG>
-16.2067

> <Gold.Chemscore.ZeroCoef>
-5.4800

> <Gold.Chemscore.Hbond>
1.9794

> <Gold.Chemscore.Metal>
0.0000

> <Gold.Chemscore.Lipo>
78.7014

> <Gold.Chemscore.Internal_Hbond>
0.0000

> <Gold.Chemscore.DEClash>
0.0174

> <Gold.Chemscore.DEInternal>
1.1778

> <Gold.Chemscore.Rot>
1.9893

> <Gold.Chemscore.Internal.Correction>
   9.000000E+99

> <Gold.Chemscore.Hbonds>
donor molecule, donor type, donor heavy atom, donor atom, acceptor molecule, acceptor atom, score
      L1  H     5    29       P1  7948  0.97
      L1  H    16    44       P1  7948  0.99

> <Gold.Chemscore.Hbond.Weighted>
-6.6113

> <Gold.Chemscore.Metal.Weighted>
-0.0000

> <Gold.Chemscore.Lipo.Weighted>
-9.2081

> <Gold.Chemscore.Internal_Hbond.Weighted>
0.0000

> <Gold.Chemscore.DEClash.Weighted>
0.0174

> <Gold.Chemscore.DEInternal.Weighted>
1.1778

> <Gold.Chemscore.Rot.Weighted>
5.0927

> <Gold.Chemscore.Internal.Correction.Weighted>
   9.000000E+99

> <Gold.Protein.RotatedTorsions>
[ 6907 6896 6895 6894 ] final   33.08 input  -60.11 | X-H torsion
[ 7974 7965 7964 7962 ] final  -42.71 input  175.53 | X-H torsion
[ 8008 7997 7996 7995 ] final -109.98 input   59.86 | X-H torsion
[ 10167 10162 10161 10158 ] final  -47.72 input  -65.29 | X-H torsion
[ 10718 10713 10712 10709 ] final   46.03 input   66.30 | X-H torsion
[ 10763 10752 10751 10750 ] final -146.61 input  -60.55 | X-H torsion
[ 11005 11000 10999 10996 ] final  144.82 input  -57.11 | X-H torsion

> <Gold.Protein.ActiveResidues>
 VAL166  LYS551  ARG553  GLY616  TRP617  ASP618  TYR619  PRO620  LYS621  CYS622 
 ASP623  PHE694  ASN695  SER759  ASP760  ASP761  ALA762  ILE779  LEU786  VAL792 
 PHE793  MET794  SER795  GLU796  ALA797  LYS798  CYS799  TRP800  GLU811  SER814 

> <Gold.Protein.RotatedAtoms>
  152.0835  134.9455  160.0572 H   0  0  0  0  0  0  0  0  0  0  0  0  # atno 6907 bound_to 6896
  152.0734  133.4113  159.4477 H   0  0  0  0  0  0  0  0  0  0  0  0  # atno 6908 bound_to 6896
  150.6836  134.2985  159.4740 H   0  0  0  0  0  0  0  0  0  0  0  0  # atno 6909 bound_to 6896
  146.0089  140.6987  142.9234 H   0  0  0  0  0  0  0  0  0  0  0  0  # atno 7974 bound_to 7965
  154.9676  140.0398  157.2219 H   0  0  0  0  0  0  0  0  0  0  0  0  # atno 8008 bound_to 7997
  154.7831  140.2822  155.6026 H   0  0  0  0  0  0  0  0  0  0  0  0  # atno 8009 bound_to 7997
  156.2939  140.2588  156.2661 H   0  0  0  0  0  0  0  0  0  0  0  0  # atno 8010 bound_to 7997
  140.6763  143.2772  151.3967 H   0  0  0  0  0  0  0  0  0  0  0  0  # atno 10167 bound_to 10162
  157.4438  130.8097  149.7721 H   0  0  0  0  0  0  0  0  0  0  0  0  # atno 10718 bound_to 10713
  154.8327  135.3382  154.6689 H   0  0  0  0  0  0  0  0  0  0  0  0  # atno 10763 bound_to 10752
  153.7307  135.6952  153.4994 H   0  0  0  0  0  0  0  0  0  0  0  0  # atno 10764 bound_to 10752
  153.2314  135.4415  155.0551 H   0  0  0  0  0  0  0  0  0  0  0  0  # atno 10765 bound_to 10752
  140.0663  134.9177  157.1269 H   0  0  0  0  0  0  0  0  0  0  0  0  # atno 11005 bound_to 11000
  144.6946  140.3364  143.7207 LP  0  0  0  0  0  0  0  0  0  0  0  0  # atno 17320 bound_to 7965
  145.7372  139.1753  143.2396 LP  0  0  0  0  0  0  0  0  0  0  0  0  # atno 17321 bound_to 7965
  139.6057  144.1202  152.2246 LP  0  0  0  0  0  0  0  0  0  0  0  0  # atno 17342 bound_to 10162
  140.0600  144.5864  150.7270 LP  0  0  0  0  0  0  0  0  0  0  0  0  # atno 17343 bound_to 10162
  155.9959  130.3909  150.2799 LP  0  0  0  0  0  0  0  0  0  0  0  0  # atno 17370 bound_to 10713
  157.0966  131.0184  151.3101 LP  0  0  0  0  0  0  0  0  0  0  0  0  # atno 17371 bound_to 10713
  140.3694  134.2406  155.7179 LP  0  0  0  0  0  0  0  0  0  0  0  0  # atno 17394 bound_to 11000
  141.1994  133.8013  157.0539 LP  0  0  0  0  0  0  0  0  0  0  0  0  # atno 17395 bound_to 11000

$$$$
