AV-unprocessed.smi:85|AV-procd|sdf|810|dock7
  -GOLD-   2262017203D 1   1.00000     0.00000
 Structure written by MMmdl.
 62 65  0  0  0  0  0  0  0  0  1 V2000
  150.1835  139.6306  154.8734 C   0  0  0  0  0  0  0  0  0  0  0  0
  149.7091  140.3640  156.1392 C   0  0  0  0  0  0  0  0  0  0  0  0
  150.6374  140.2485  157.2660 N   0  0  0  0  0  0  0  0  0  0  0  0
  150.5047  139.1268  158.0169 C   0  0  0  0  0  0  0  0  0  0  0  0
  151.6087  138.6858  158.6705 N   0  0  0  0  0  0  0  0  0  0  0  0
  151.5462  137.5861  159.4262 C   0  0  0  0  0  0  0  0  0  0  0  0
  150.4987  136.7939  159.6618 N   0  0  0  0  0  0  0  0  0  0  0  0
  149.3867  137.2314  159.0043 C   0  0  0  0  0  0  0  0  0  0  0  0
  149.3042  138.3719  158.1565 C   0  0  0  0  0  0  0  0  0  0  0  0
  148.0155  138.4899  157.6494 N   0  0  0  0  0  0  0  0  0  0  0  0
  147.3718  137.4851  158.1756 C   0  0  0  0  0  0  0  0  0  0  0  0
  148.1127  136.6896  159.0204 N   0  0  0  0  0  0  0  0  0  0  0  0
  147.6409  135.5183  159.7454 C   0  0  0  0  0  0  0  0  0  0  0  0
  146.9476  135.8262  161.1068 C   0  0  0  0  0  0  0  0  0  0  0  0
  146.3452  134.5343  161.7306 C   0  0  0  0  0  0  0  0  0  0  0  0
  147.3386  133.5797  162.0475 O   0  0  0  0  0  0  0  0  0  0  0  0
  147.9933  136.4726  162.0498 C   0  0  0  0  0  0  0  0  0  0  0  0
  147.3651  137.0855  163.3139 C   0  0  0  0  0  0  0  0  0  0  0  0
  146.3817  138.0444  162.9482 O   0  0  0  0  0  0  0  0  0  0  0  0
  145.3046  137.4767  162.2148 C   0  0  0  0  0  0  0  0  0  0  0  0
  145.8214  136.8701  160.8972 C   0  0  0  0  0  0  0  0  0  0  0  0
  150.9458  141.4894  157.9938 C   0  0  2  0  0  0  0  0  0  0  0  0
  151.1600  142.7145  157.0871 C   0  0  0  0  0  0  0  0  0  0  0  0
  151.3990  143.9671  157.9404 C   0  0  0  0  0  0  0  0  0  0  0  0
  152.5167  143.7727  158.8060 O   0  0  0  0  0  0  0  0  0  0  0  0
  152.4280  142.6767  159.7231 C   0  0  0  0  0  0  0  0  0  0  0  0
  153.8107  142.5997  160.3916 C   0  0  0  0  0  0  0  0  0  0  0  0
  151.3632  142.9525  160.8064 C   0  0  0  0  0  0  0  0  0  0  0  0
  152.1548  141.3679  158.9441 C   0  0  0  0  0  0  0  0  0  0  0  0
  149.4950  139.8080  154.0472 H   0  0  0  0  0  0  0  0  0  0  0  0
  150.2401  138.5522  155.0229 H   0  0  0  0  0  0  0  0  0  0  0  0
  151.1688  139.9806  154.5645 H   0  0  0  0  0  0  0  0  0  0  0  0
  149.5883  141.4214  155.9019 H   0  0  0  0  0  0  0  0  0  0  0  0
  148.7210  140.0060  156.4257 H   0  0  0  0  0  0  0  0  0  0  0  0
  152.4665  137.3020  159.9148 H   0  0  0  0  0  0  0  0  0  0  0  0
  146.3274  137.3019  157.9692 H   0  0  0  0  0  0  0  0  0  0  0  0
  146.9576  134.9760  159.0907 H   0  0  0  0  0  0  0  0  0  0  0  0
  148.4916  134.8521  159.8954 H   0  0  0  0  0  0  0  0  0  0  0  0
  145.7938  134.7472  162.6446 H   0  0  0  0  0  0  0  0  0  0  0  0
  145.6266  134.0730  161.0531 H   0  0  0  0  0  0  0  0  0  0  0  0
  148.1356  133.8165  161.5984 H   0  0  0  0  0  0  0  0  0  0  0  0
  148.7602  135.7502  162.3309 H   0  0  0  0  0  0  0  0  0  0  0  0
  148.5170  137.2675  161.5172 H   0  0  0  0  0  0  0  0  0  0  0  0
  146.9292  136.3215  163.9582 H   0  0  0  0  0  0  0  0  0  0  0  0
  148.1341  137.5855  163.9028 H   0  0  0  0  0  0  0  0  0  0  0  0
  144.7830  136.7364  162.8220 H   0  0  0  0  0  0  0  0  0  0  0  0
  144.5813  138.2633  161.9987 H   0  0  0  0  0  0  0  0  0  0  0  0
  146.1948  137.6863  160.2773 H   0  0  0  0  0  0  0  0  0  0  0  0
  144.9863  136.4309  160.3509 H   0  0  0  0  0  0  0  0  0  0  0  0
  150.0625  141.6952  158.5984 H   0  0  0  0  0  0  0  0  0  0  0  0
  152.0226  142.5681  156.4359 H   0  0  0  0  0  0  0  0  0  0  0  0
  150.2949  142.8652  156.4404 H   0  0  0  0  0  0  0  0  0  0  0  0
  151.6100  144.8190  157.2938 H   0  0  0  0  0  0  0  0  0  0  0  0
  150.5067  144.2286  158.5088 H   0  0  0  0  0  0  0  0  0  0  0  0
  153.8615  141.7767  161.1054 H   0  0  0  0  0  0  0  0  0  0  0  0
  154.0413  143.5195  160.9298 H   0  0  0  0  0  0  0  0  0  0  0  0
  154.5999  142.4470  159.6542 H   0  0  0  0  0  0  0  0  0  0  0  0
  151.3594  142.1624  161.5580 H   0  0  0  0  0  0  0  0  0  0  0  0
  150.3538  143.0115  160.4026 H   0  0  0  0  0  0  0  0  0  0  0  0
  151.5631  143.8927  161.3210 H   0  0  0  0  0  0  0  0  0  0  0  0
  152.0152  140.5436  159.6442 H   0  0  0  0  0  0  0  0  0  0  0  0
  153.0416  141.1266  158.3582 H   0  0  0  0  0  0  0  0  0  0  0  0
  1  2  1  0  0  0  0
  1 30  1  0  0  0  0
  1 31  1  0  0  0  0
  1 32  1  0  0  0  0
  2  3  1  0  0  0  0
  2 33  1  0  0  0  0
  2 34  1  0  0  0  0
  3  4  1  0  0  0  0
  3 22  1  0  0  0  0
  4  9  1  0  0  0  0
  4  5  2  0  0  0  0
  5  6  1  0  0  0  0
  6  7  2  0  0  0  0
  6 35  1  0  0  0  0
  7  8  1  0  0  0  0
  8 12  1  0  0  0  0
  8  9  2  0  0  0  0
  9 10  1  0  0  0  0
 10 11  2  0  0  0  0
 11 12  1  0  0  0  0
 11 36  1  0  0  0  0
 12 13  1  0  0  0  0
 13 14  1  0  0  0  0
 13 37  1  0  0  0  0
 13 38  1  0  0  0  0
 14 21  1  0  0  0  0
 14 15  1  0  0  0  0
 14 17  1  0  0  0  0
 15 16  1  0  0  0  0
 15 39  1  0  0  0  0
 15 40  1  0  0  0  0
 16 41  1  0  0  0  0
 17 18  1  0  0  0  0
 17 42  1  0  0  0  0
 17 43  1  0  0  0  0
 18 19  1  0  0  0  0
 18 44  1  0  0  0  0
 18 45  1  0  0  0  0
 19 20  1  0  0  0  0
 20 21  1  0  0  0  0
 20 46  1  0  0  0  0
 20 47  1  0  0  0  0
 21 48  1  0  0  0  0
 21 49  1  0  0  0  0
 22 29  1  0  0  0  0
 22 23  1  0  0  0  0
 22 50  1  0  0  0  0
 23 24  1  0  0  0  0
 23 51  1  0  0  0  0
 23 52  1  0  0  0  0
 24 25  1  0  0  0  0
 24 53  1  0  0  0  0
 24 54  1  0  0  0  0
 25 26  1  0  0  0  0
 26 27  1  0  0  0  0
 26 28  1  0  0  0  0
 26 29  1  0  0  0  0
 27 55  1  0  0  0  0
 27 56  1  0  0  0  0
 27 57  1  0  0  0  0
 28 58  1  0  0  0  0
 28 59  1  0  0  0  0
 28 60  1  0  0  0  0
 29 61  1  0  0  0  0
 29 62  1  0  0  0  0
M  END
> <s_m_source_file>
AV-unprocessed.smi

> <i_m_source_file_index>
85

> <i_lp_mmshare_version>
43012

> <i_f3d_flags>
0

> <s_epik_input>
W0NIM11DMShbQ0gzXSlPW0NIMl1bQ0gyXVtDQEhdKFtDSDJdMSlOKFtDSDJdW0NIM10pYyhuW2NIXW4yKWMoYzIzKW5bY0hdbjNbQ0gyXUM0KFtDSDJdW09IXSlbQ0gyXVtDSDJdT1tDSDJdW0NIMl00

> <s_epik_cmdline>
J2VwaWtfcHl0aG9uJywgJy1waCcsICc3LjAnLCAnLXRuJywgJzgnLCAnLW1hJywgJzIwMCcsICctbWV0YWxfYmluZGluZycsICctaW1hZScsICc8aW5maWxlLm1hZT4nLCAnLW9tYWUnLCAnPG91dGZpbGUubWFlPic=

> <r_lp_tautomer_probability>
1

> <r_epik_Ionization_Penalty>
0.00336056

> <r_epik_Ionization_Penalty_Charging>
0

> <r_epik_Ionization_Penalty_Neutral>
0.00336056

> <r_epik_State_Penalty>
0.00222191

> <r_epik_Charging_Adjusted_Penalty>
0.00222191

> <i_epik_Tot_Q>
0

> <i_epik_Tot_abs_Q>
0

> <r_epik_Metal_State_Penalty>
-0

> <b_epik_Metal_Only>
0

> <s_lp_Force_Field>
OPLS_2005

> <r_lp_Energy>
35.7443

> <b_lp_Chiralities_Consistent>
1

> <s_lp_Variant>
AV-unprocessed.smi:85-1

> <Gold.Version>
5.8.1

> <Gold.Id.Protein>
6NUR|6NUR_protein|mol2

> <Gold.PLP.Fitness>
46.0964

> <Gold.PLP.PLP>
-44.9516

> <Gold.PLP.part.hbond>
-2.9435

> <Gold.PLP.part.metal>
0.0000

> <Gold.PLP.part.buried>
-3.2504

> <Gold.PLP.part.nonpolar>
-37.9984

> <Gold.PLP.part.repulsive>
0.0007

> <Gold.PLP.ligand.clash>
0.0000

> <Gold.PLP.ligand.torsion>
1.3646

> <Gold.PLP.Chemscore.Hbond>
1.0034

> <Gold.PLP.Chemscore.CHOScore>
0.0000

> <Gold.PLP.Chemscore.Metal>
0.0000

> <Gold.Chemscore.Hbonds>
donor molecule, donor type, donor heavy atom, donor atom, acceptor molecule, acceptor atom, score
      P1  H  6896  6909       L1     7  1.00
      P1  H  6934  6947       L1    19  0.03

> <Gold.PLP.Chemscore.Internal.Correction>
0.8637

> <Gold.Rescore>
     Score         DG    S(hbond)    S(metal)    S(lipo)     H(rot)  DE(clash)    DE(int)     intcor
     11.27     -17.14       1.00        0.00     129.06       2.65       2.26       3.60       ----

> <Gold.Chemscore.Fitness>
11.2736

> <Gold.Chemscore.DG>
-17.1407

> <Gold.Chemscore.ZeroCoef>
-5.4800

> <Gold.Chemscore.Hbond>
0.9989

> <Gold.Chemscore.Metal>
0.0000

> <Gold.Chemscore.Lipo>
129.0629

> <Gold.Chemscore.Internal_Hbond>
0.0000

> <Gold.Chemscore.DEClash>
2.2648

> <Gold.Chemscore.DEInternal>
3.6024

> <Gold.Chemscore.Rot>
2.6469

> <Gold.Chemscore.Internal.Correction>
   9.000000E+99

> <Gold.Chemscore.Hbonds>
donor molecule, donor type, donor heavy atom, donor atom, acceptor molecule, acceptor atom, score
      P1  H  6896  6909       L1     7  0.50

> <Gold.Chemscore.Hbond.Weighted>
-3.3364

> <Gold.Chemscore.Metal.Weighted>
-0.0000

> <Gold.Chemscore.Lipo.Weighted>
-15.1004

> <Gold.Chemscore.Internal_Hbond.Weighted>
0.0000

> <Gold.Chemscore.DEClash.Weighted>
2.2648

> <Gold.Chemscore.DEInternal.Weighted>
3.6024

> <Gold.Chemscore.Rot.Weighted>
6.7761

> <Gold.Chemscore.Internal.Correction.Weighted>
   9.000000E+99

> <Gold.Protein.RotatedTorsions>
[ 6907 6896 6895 6894 ] final   99.76 input  -60.11 | X-H torsion
[ 7974 7965 7964 7962 ] final   47.75 input  175.53 | X-H torsion
[ 8008 7997 7996 7995 ] final  -15.78 input   59.86 | X-H torsion
[ 10167 10162 10161 10158 ] final  -39.33 input  -65.29 | X-H torsion
[ 10718 10713 10712 10709 ] final -160.43 input   66.30 | X-H torsion
[ 10763 10752 10751 10750 ] final   94.76 input  -60.55 | X-H torsion
[ 11005 11000 10999 10996 ] final  120.57 input  -57.11 | X-H torsion

> <Gold.Protein.ActiveResidues>
 VAL166  LYS551  ARG553  GLY616  TRP617  ASP618  TYR619  PRO620  LYS621  CYS622 
 ASP623  PHE694  ASN695  SER759  ASP760  ASP761  ALA762  ILE779  LEU786  VAL792 
 PHE793  MET794  SER795  GLU796  ALA797  LYS798  CYS799  TRP800  GLU811  SER814 

> <Gold.Protein.RotatedAtoms>
  152.5386  134.0380  159.8054 H   0  0  0  0  0  0  0  0  0  0  0  0  # atno 6907 bound_to 6896
  151.0540  133.5592  159.2647 H   0  0  0  0  0  0  0  0  0  0  0  0  # atno 6908 bound_to 6896
  151.2515  135.0631  159.9117 H   0  0  0  0  0  0  0  0  0  0  0  0  # atno 6909 bound_to 6896
  146.0268  139.4716  142.9862 H   0  0  0  0  0  0  0  0  0  0  0  0  # atno 7974 bound_to 7965
  154.5103  140.2187  155.9169 H   0  0  0  0  0  0  0  0  0  0  0  0  # atno 8008 bound_to 7997
  156.1544  140.3155  155.8668 H   0  0  0  0  0  0  0  0  0  0  0  0  # atno 8009 bound_to 7997
  155.3875  140.0476  157.3032 H   0  0  0  0  0  0  0  0  0  0  0  0  # atno 8010 bound_to 7997
  140.7067  143.3221  151.2767 H   0  0  0  0  0  0  0  0  0  0  0  0  # atno 10167 bound_to 10162
  156.5821  130.8734  151.2867 H   0  0  0  0  0  0  0  0  0  0  0  0  # atno 10718 bound_to 10713
  153.2454  135.4278  155.0741 H   0  0  0  0  0  0  0  0  0  0  0  0  # atno 10763 bound_to 10752
  154.8359  135.3413  154.6589 H   0  0  0  0  0  0  0  0  0  0  0  0  # atno 10764 bound_to 10752
  153.7012  135.7028  153.5119 H   0  0  0  0  0  0  0  0  0  0  0  0  # atno 10765 bound_to 10752
  139.9190  134.9635  156.7827 H   0  0  0  0  0  0  0  0  0  0  0  0  # atno 11005 bound_to 11000
  145.7105  141.0108  143.1456 LP  0  0  0  0  0  0  0  0  0  0  0  0  # atno 17320 bound_to 7965
  144.7013  139.8751  143.7443 LP  0  0  0  0  0  0  0  0  0  0  0  0  # atno 17321 bound_to 7965
  139.6678  144.0074  152.2734 LP  0  0  0  0  0  0  0  0  0  0  0  0  # atno 17342 bound_to 10162
  139.9662  144.6524  150.8032 LP  0  0  0  0  0  0  0  0  0  0  0  0  # atno 17343 bound_to 10162
  157.7324  130.9714  150.1926 LP  0  0  0  0  0  0  0  0  0  0  0  0  # atno 17370 bound_to 10713
  156.2623  130.3712  149.8118 LP  0  0  0  0  0  0  0  0  0  0  0  0  # atno 17371 bound_to 10713
  140.6531  133.9713  155.7765 LP  0  0  0  0  0  0  0  0  0  0  0  0  # atno 17394 bound_to 11000
  141.0694  134.0227  157.3547 LP  0  0  0  0  0  0  0  0  0  0  0  0  # atno 17395 bound_to 11000

$$$$
