AV-unprocessed.smi:3336|AV-procd|sdf|12854|dock5
  -GOLD-   2272019243D 1   1.00000     0.00000
 Structure written by MMmdl.
 42 43  0  0  0  0  0  0  0  0  2 V2000
  151.7076  141.0447  156.2158 C   0  0  0  0  0  0  0  0  0  0  0  0
  150.5119  141.5199  157.0633 C   0  0  1  0  0  0  0  0  0  0  0  0
  150.8380  142.7895  157.8765 C   0  0  0  0  0  0  0  0  0  0  0  0
  151.8644  142.5747  158.8811 N   0  0  0  0  0  0  0  0  0  0  0  0
  152.3641  143.4691  159.8045 C   0  0  0  0  0  0  0  0  0  0  0  0
  153.3051  142.8087  160.5413 C   0  0  0  0  0  0  0  0  0  0  0  0
  153.3041  141.4955  159.9928 C   0  0  0  0  0  0  0  0  0  0  0  0
  152.4385  141.3582  159.0012 N   0  0  0  0  0  0  0  0  0  0  0  0
  149.3292  141.7791  156.2082 N   0  3  0  0  0  0  0  0  0  0  0  0
  149.2860  141.0564  154.9126 C   0  0  2  0  0  0  0  0  0  0  0  0
  148.1769  141.6635  154.0369 C   0  0  0  0  0  0  0  0  0  0  0  0
  149.0431  139.5442  155.1125 C   0  0  0  0  0  0  0  0  0  0  0  0
  148.0395  139.1995  155.7396 O   0  0  0  0  0  0  0  0  0  0  0  0
  149.9146  138.6375  154.6032 N   0  0  0  0  0  0  0  0  0  0  0  0
  151.1040  139.0242  153.8361 C   0  0  0  0  0  0  0  0  0  0  0  0
  152.3557  138.5725  154.6076 C   0  0  0  0  0  0  0  0  0  0  0  0
  152.3057  137.1633  154.8113 O   0  0  0  0  0  0  0  0  0  0  0  0
  151.1515  136.7472  155.5353 C   0  0  0  0  0  0  0  0  0  0  0  0
  149.8786  137.1811  154.7845 C   0  0  0  0  0  0  0  0  0  0  0  0
  152.5676  140.8036  156.8411 H   0  0  0  0  0  0  0  0  0  0  0  0
  152.0193  141.8130  155.5075 H   0  0  0  0  0  0  0  0  0  0  0  0
  151.4713  140.1463  155.6465 H   0  0  0  0  0  0  0  0  0  0  0  0
  150.2581  140.7307  157.7725 H   0  0  0  0  0  0  0  0  0  0  0  0
  151.1683  143.5895  157.2122 H   0  0  0  0  0  0  0  0  0  0  0  0
  149.9424  143.1543  158.3819 H   0  0  0  0  0  0  0  0  0  0  0  0
  152.0148  144.4899  159.8597 H   0  0  0  0  0  0  0  0  0  0  0  0
  153.9010  143.2022  161.3514 H   0  0  0  0  0  0  0  0  0  0  0  0
  153.9012  140.6439  160.2846 H   0  0  0  0  0  0  0  0  0  0  0  0
  148.5025  141.5081  156.7224 H   0  0  0  0  0  0  0  0  0  0  0  0
  150.2467  141.2198  154.4284 H   0  0  0  0  0  0  0  0  0  0  0  0
  148.1260  141.1882  153.0573 H   0  0  0  0  0  0  0  0  0  0  0  0
  148.3518  142.7268  153.8702 H   0  0  0  0  0  0  0  0  0  0  0  0
  147.1969  141.5593  154.5045 H   0  0  0  0  0  0  0  0  0  0  0  0
  151.0729  138.5443  152.8568 H   0  0  0  0  0  0  0  0  0  0  0  0
  151.1614  140.0960  153.6425 H   0  0  0  0  0  0  0  0  0  0  0  0
  153.2556  138.8164  154.0431 H   0  0  0  0  0  0  0  0  0  0  0  0
  152.4289  139.0872  155.5669 H   0  0  0  0  0  0  0  0  0  0  0  0
  151.1753  135.6626  155.6432 H   0  0  0  0  0  0  0  0  0  0  0  0
  151.1733  137.1679  156.5418 H   0  0  0  0  0  0  0  0  0  0  0  0
  149.0109  136.8179  155.3293 H   0  0  0  0  0  0  0  0  0  0  0  0
  149.8397  136.6993  153.8064 H   0  0  0  0  0  0  0  0  0  0  0  0
  149.2843  142.7723  156.0321 H   0  0  0  0  0  0  0  0  0  0  0  0
  1  2  1  0  0  0  0
  1 20  1  0  0  0  0
  1 21  1  0  0  0  0
  1 22  1  0  0  0  0
  2  3  1  0  0  0  0
  2  9  1  0  0  0  0
  2 23  1  0  0  0  0
  3  4  1  0  0  0  0
  3 24  1  0  0  0  0
  3 25  1  0  0  0  0
  4  8  1  0  0  0  0
  4  5  1  0  0  0  0
  5  6  2  0  0  0  0
  5 26  1  0  0  0  0
  6  7  1  0  0  0  0
  6 27  1  0  0  0  0
  7  8  2  0  0  0  0
  7 28  1  0  0  0  0
  9 10  1  0  0  0  0
  9 29  1  0  0  0  0
  9 42  1  0  0  0  0
 10 11  1  0  0  0  0
 10 12  1  0  0  0  0
 10 30  1  0  0  0  0
 11 31  1  0  0  0  0
 11 32  1  0  0  0  0
 11 33  1  0  0  0  0
 12 13  2  0  0  0  0
 12 14  1  0  0  0  0
 14 19  1  0  0  0  0
 14 15  1  0  0  0  0
 15 16  1  0  0  0  0
 15 34  1  0  0  0  0
 15 35  1  0  0  0  0
 16 17  1  0  0  0  0
 16 36  1  0  0  0  0
 16 37  1  0  0  0  0
 17 18  1  0  0  0  0
 18 19  1  0  0  0  0
 18 38  1  0  0  0  0
 18 39  1  0  0  0  0
 19 40  1  0  0  0  0
 19 41  1  0  0  0  0
M  CHG  1   9   1
M  END
> <s_m_source_file>
AV-unprocessed.smi

> <i_m_source_file_index>
3336

> <i_lp_mmshare_version>
43012

> <i_f3d_flags>
0

> <s_epik_input>
bjFbY0hdW2NIXVtjSF1uMVtDSDJdW0NAQEhdKFtDSDNdKVtOSF1bQ0BIXShbQ0gzXSlDKD1PKU4yW0NIMl1bQ0gyXU9bQ0gyXVtDSDJdMg==

> <s_epik_cmdline>
J2VwaWtfcHl0aG9uJywgJy1waCcsICc3LjAnLCAnLXRuJywgJzgnLCAnLW1hJywgJzIwMCcsICctbWV0YWxfYmluZGluZycsICctaW1hZScsICc8aW5maWxlLm1hZT4nLCAnLW9tYWUnLCAnPG91dGZpbGUubWFlPic=

> <r_lp_tautomer_probability>
1

> <r_epik_Ionization_Penalty>
0.200288

> <r_epik_Ionization_Penalty_Charging>
0.200285

> <r_epik_Ionization_Penalty_Neutral>
3.37705e-06

> <r_epik_State_Penalty>
0.190126

> <r_epik_Charging_Adjusted_Penalty>
0.39041

> <i_epik_Tot_Q>
1

> <i_epik_Tot_abs_Q>
1

> <r_epik_Metal_State_Penalty>
0.190133

> <b_epik_Metal_Only>
0

> <s_lp_Force_Field>
OPLS_2005

> <r_lp_Energy>
27.5118

> <b_lp_Chiralities_Consistent>
1

> <s_lp_Variant>
AV-unprocessed.smi:3336-2

> <Gold.Version>
5.8.1

> <Gold.Id.Protein>
6NUR|6NUR_protein|mol2

> <Gold.PLP.Fitness>
45.2386

> <Gold.PLP.PLP>
-37.3283

> <Gold.PLP.part.hbond>
-2.0000

> <Gold.PLP.part.metal>
0.0000

> <Gold.PLP.part.buried>
-5.2606

> <Gold.PLP.part.nonpolar>
-30.2635

> <Gold.PLP.part.repulsive>
0.1605

> <Gold.PLP.ligand.clash>
0.0000

> <Gold.PLP.ligand.torsion>
0.5861

> <Gold.PLP.Chemscore.Hbond>
3.0000

> <Gold.PLP.Chemscore.CHOScore>
0.0000

> <Gold.PLP.Chemscore.Metal>
0.0000

> <Gold.Chemscore.Hbonds>
donor molecule, donor type, donor heavy atom, donor atom, acceptor molecule, acceptor atom, score
      L1  H     9    42       P1  8028  2.00
      P1  H 10752 10765       L1    17  0.64

> <Gold.PLP.Chemscore.Internal.Correction>
0.0824

> <Gold.Rescore>
     Score         DG    S(hbond)    S(metal)    S(lipo)     H(rot)  DE(clash)    DE(int)     intcor
     17.06     -18.04       1.91        0.00      93.47       1.85       0.04       0.95       ----

> <Gold.Chemscore.Fitness>
17.0553

> <Gold.Chemscore.DG>
-18.0435

> <Gold.Chemscore.ZeroCoef>
-5.4800

> <Gold.Chemscore.Hbond>
1.9085

> <Gold.Chemscore.Metal>
0.0000

> <Gold.Chemscore.Lipo>
93.4683

> <Gold.Chemscore.Internal_Hbond>
0.0000

> <Gold.Chemscore.DEClash>
0.0402

> <Gold.Chemscore.DEInternal>
0.9480

> <Gold.Chemscore.Rot>
1.8541

> <Gold.Chemscore.Internal.Correction>
   9.000000E+99

> <Gold.Chemscore.Hbonds>
donor molecule, donor type, donor heavy atom, donor atom, acceptor molecule, acceptor atom, score
      L1  H     9    42       P1  8028  0.94
      P1  H 10752 10765       L1    17  0.11

> <Gold.Chemscore.Hbond.Weighted>
-6.3743

> <Gold.Chemscore.Metal.Weighted>
-0.0000

> <Gold.Chemscore.Lipo.Weighted>
-10.9358

> <Gold.Chemscore.Internal_Hbond.Weighted>
0.0000

> <Gold.Chemscore.DEClash.Weighted>
0.0402

> <Gold.Chemscore.DEInternal.Weighted>
0.9480

> <Gold.Chemscore.Rot.Weighted>
4.7465

> <Gold.Chemscore.Internal.Correction.Weighted>
   9.000000E+99

> <Gold.Protein.RotatedTorsions>
[ 6907 6896 6895 6894 ] final -133.11 input  -60.11 | X-H torsion
[ 7974 7965 7964 7962 ] final  155.68 input  175.53 | X-H torsion
[ 8008 7997 7996 7995 ] final  139.37 input   59.86 | X-H torsion
[ 10167 10162 10161 10158 ] final   -8.77 input  -65.29 | X-H torsion
[ 10718 10713 10712 10709 ] final -166.25 input   66.30 | X-H torsion
[ 10763 10752 10751 10750 ] final -179.20 input  -60.55 | X-H torsion
[ 11005 11000 10999 10996 ] final  -43.82 input  -57.11 | X-H torsion

> <Gold.Protein.ActiveResidues>
 VAL166  LYS551  ARG553  GLY616  TRP617  ASP618  TYR619  PRO620  LYS621  CYS622 
 ASP623  PHE694  ASN695  SER759  ASP760  ASP761  ALA762  ILE779  LEU786  VAL792 
 PHE793  MET794  SER795  GLU796  ALA797  LYS798  CYS799  TRP800  GLU811  SER814 

> <Gold.Protein.RotatedAtoms>
  150.9702  133.6352  159.2739 H   0  0  0  0  0  0  0  0  0  0  0  0  # atno 6907 bound_to 6896
  151.3644  135.0909  159.9454 H   0  0  0  0  0  0  0  0  0  0  0  0  # atno 6908 bound_to 6896
  152.5180  133.9269  159.7616 H   0  0  0  0  0  0  0  0  0  0  0  0  # atno 6909 bound_to 6896
  144.8010  139.7101  143.6182 H   0  0  0  0  0  0  0  0  0  0  0  0  # atno 7974 bound_to 7965
  156.2990  140.2369  156.4226 H   0  0  0  0  0  0  0  0  0  0  0  0  # atno 8008 bound_to 7997
  154.8342  140.0431  157.1518 H   0  0  0  0  0  0  0  0  0  0  0  0  # atno 8009 bound_to 7997
  154.9174  140.2999  155.5237 H   0  0  0  0  0  0  0  0  0  0  0  0  # atno 8010 bound_to 7997
  140.7068  143.5932  150.8873 H   0  0  0  0  0  0  0  0  0  0  0  0  # atno 10167 bound_to 10162
  156.6652  130.9062  151.3035 H   0  0  0  0  0  0  0  0  0  0  0  0  # atno 10718 bound_to 10713
  154.5381  135.2804  155.1120 H   0  0  0  0  0  0  0  0  0  0  0  0  # atno 10763 bound_to 10752
  154.2613  135.6321  153.5279 H   0  0  0  0  0  0  0  0  0  0  0  0  # atno 10764 bound_to 10752
  152.9972  135.5606  154.5913 H   0  0  0  0  0  0  0  0  0  0  0  0  # atno 10765 bound_to 10752
  141.0409  133.6780  156.2786 H   0  0  0  0  0  0  0  0  0  0  0  0  # atno 11005 bound_to 11000
  146.2291  139.5779  142.9567 LP  0  0  0  0  0  0  0  0  0  0  0  0  # atno 17320 bound_to 7965
  145.5554  141.0409  143.2255 LP  0  0  0  0  0  0  0  0  0  0  0  0  # atno 17321 bound_to 7965
  139.9657  143.6113  152.2989 LP  0  0  0  0  0  0  0  0  0  0  0  0  # atno 17342 bound_to 10162
  139.6682  144.7661  151.1833 LP  0  0  0  0  0  0  0  0  0  0  0  0  # atno 17343 bound_to 10162
  157.7096  130.9425  150.1045 LP  0  0  0  0  0  0  0  0  0  0  0  0  # atno 17370 bound_to 10713
  156.1981  130.3658  149.8824 LP  0  0  0  0  0  0  0  0  0  0  0  0  # atno 17371 bound_to 10713
  140.6235  134.5337  157.5550 LP  0  0  0  0  0  0  0  0  0  0  0  0  # atno 17394 bound_to 11000
  139.9275  134.8027  156.1025 LP  0  0  0  0  0  0  0  0  0  0  0  0  # atno 17395 bound_to 11000

$$$$
