AV-unprocessed.smi:1413|AV-procd|sdf|5752|dock4
  -GOLD-   22720 5393D 1   1.00000     0.00000
 Structure written by MMmdl.
 53 55  0  0  0  0  0  0  0  0  1 V2000
  151.5653  144.7837  158.3642 C   0  0  0  0  0  0  0  0  0  0  0  0
  152.0006  143.3173  158.2746 C   0  0  2  0  0  0  0  0  0  0  0  0
  151.0247  142.4795  157.4284 C   0  0  0  0  0  0  0  0  0  0  0  0
  151.4135  141.0769  157.4610 N   0  0  0  0  0  0  0  0  0  0  0  0
  150.6706  140.2765  156.5818 C   0  0  0  0  0  0  0  0  0  0  0  0
  149.6276  139.4807  157.0981 C   0  0  0  0  0  0  0  0  0  0  0  0
  148.8838  138.6808  156.2103 C   0  0  0  0  0  0  0  0  0  0  0  0
  149.2105  138.6886  154.8394 C   0  0  0  0  0  0  0  0  0  0  0  0
  148.4297  137.8904  153.9610 N   0  0  0  0  0  0  0  0  0  0  0  0
  147.1545  137.4933  154.1087 C   0  0  0  0  0  0  0  0  0  0  0  0
  146.4194  137.8041  155.0455 O   0  0  0  0  0  0  0  0  0  0  0  0
  146.7672  136.7266  153.0789 N   0  0  0  0  0  0  0  0  0  0  0  0
  145.4295  136.1737  152.8785 C   0  0  2  0  0  0  0  0  0  0  0  0
  145.0458  135.3443  154.1137 C   0  0  0  0  0  0  0  0  0  0  0  0
  145.4123  135.3409  151.5817 C   0  0  1  0  0  0  0  0  0  0  0  0
  146.3941  134.1652  151.5591 C   0  0  0  0  0  0  0  0  0  0  0  0
  145.7146  133.1255  150.6777 C   0  0  0  0  0  0  0  0  0  0  0  0
  144.3289  133.7122  150.4067 C   0  0  0  0  0  0  0  0  0  0  0  0
  144.1597  134.6927  151.4174 O   0  0  0  0  0  0  0  0  0  0  0  0
  150.2708  139.5274  154.4188 C   0  0  0  0  0  0  0  0  0  0  0  0
  150.9851  140.3002  155.2650 N   0  0  0  0  0  0  0  0  0  0  0  0
  151.4851  140.5538  158.8200 C   0  0  0  0  0  0  0  0  0  0  0  0
  152.4296  141.4115  159.6857 C   0  0  1  0  0  0  0  0  0  0  0  0
  153.9199  141.1936  159.3689 C   0  0  0  0  0  0  0  0  0  0  0  0
  152.0570  142.7901  159.6009 O   0  0  0  0  0  0  0  0  0  0  0  0
  151.5148  145.2393  157.3749 H   0  0  0  0  0  0  0  0  0  0  0  0
  152.2696  145.3635  158.9613 H   0  0  0  0  0  0  0  0  0  0  0  0
  150.5818  144.8756  158.8261 H   0  0  0  0  0  0  0  0  0  0  0  0
  152.9936  143.2863  157.8255 H   0  0  0  0  0  0  0  0  0  0  0  0
  150.0089  142.5863  157.8124 H   0  0  0  0  0  0  0  0  0  0  0  0
  151.0193  142.8372  156.3978 H   0  0  0  0  0  0  0  0  0  0  0  0
  149.3977  139.4853  158.1535 H   0  0  0  0  0  0  0  0  0  0  0  0
  148.0754  138.0675  156.5811 H   0  0  0  0  0  0  0  0  0  0  0  0
  148.8760  137.6378  153.0915 H   0  0  0  0  0  0  0  0  0  0  0  0
  147.4447  136.5334  152.3562 H   0  0  0  0  0  0  0  0  0  0  0  0
  144.6992  136.9788  152.7802 H   0  0  0  0  0  0  0  0  0  0  0  0
  144.0363  134.9430  154.0244 H   0  0  0  0  0  0  0  0  0  0  0  0
  145.0736  135.9530  155.0181 H   0  0  0  0  0  0  0  0  0  0  0  0
  145.7263  134.5042  154.2564 H   0  0  0  0  0  0  0  0  0  0  0  0
  145.5875  135.9828  150.7156 H   0  0  0  0  0  0  0  0  0  0  0  0
  147.3756  134.4569  151.1837 H   0  0  0  0  0  0  0  0  0  0  0  0
  146.5282  133.7575  152.5620 H   0  0  0  0  0  0  0  0  0  0  0  0
  146.2591  132.9509  149.7493 H   0  0  0  0  0  0  0  0  0  0  0  0
  145.6388  132.1748  151.2065 H   0  0  0  0  0  0  0  0  0  0  0  0
  144.2988  134.1956  149.4290 H   0  0  0  0  0  0  0  0  0  0  0  0
  143.5387  132.9619  150.4416 H   0  0  0  0  0  0  0  0  0  0  0  0
  150.5538  139.6131  153.3812 H   0  0  0  0  0  0  0  0  0  0  0  0
  150.4871  140.5595  159.2607 H   0  0  0  0  0  0  0  0  0  0  0  0
  151.8208  139.5162  158.8047 H   0  0  0  0  0  0  0  0  0  0  0  0
  152.2827  141.1199  160.7261 H   0  0  0  0  0  0  0  0  0  0  0  0
  154.2079  140.1601  159.5636 H   0  0  0  0  0  0  0  0  0  0  0  0
  154.5470  141.8335  159.9901 H   0  0  0  0  0  0  0  0  0  0  0  0
  154.1563  141.4033  158.3261 H   0  0  0  0  0  0  0  0  0  0  0  0
  1  2  1  0  0  0  0
  1 26  1  0  0  0  0
  1 27  1  0  0  0  0
  1 28  1  0  0  0  0
  2 25  1  0  0  0  0
  2  3  1  0  0  0  0
  2 29  1  0  0  0  0
  3  4  1  0  0  0  0
  3 30  1  0  0  0  0
  3 31  1  0  0  0  0
  4  5  1  0  0  0  0
  4 22  1  0  0  0  0
  5 21  1  0  0  0  0
  5  6  2  0  0  0  0
  6  7  1  0  0  0  0
  6 32  1  0  0  0  0
  7  8  2  0  0  0  0
  7 33  1  0  0  0  0
  8  9  1  0  0  0  0
  8 20  1  0  0  0  0
  9 10  1  0  0  0  0
  9 34  1  0  0  0  0
 10 11  2  0  0  0  0
 10 12  1  0  0  0  0
 12 13  1  0  0  0  0
 12 35  1  0  0  0  0
 13 14  1  0  0  0  0
 13 15  1  0  0  0  0
 13 36  1  0  0  0  0
 14 37  1  0  0  0  0
 14 38  1  0  0  0  0
 14 39  1  0  0  0  0
 15 19  1  0  0  0  0
 15 16  1  0  0  0  0
 15 40  1  0  0  0  0
 16 17  1  0  0  0  0
 16 41  1  0  0  0  0
 16 42  1  0  0  0  0
 17 18  1  0  0  0  0
 17 43  1  0  0  0  0
 17 44  1  0  0  0  0
 18 19  1  0  0  0  0
 18 45  1  0  0  0  0
 18 46  1  0  0  0  0
 20 21  2  0  0  0  0
 20 47  1  0  0  0  0
 22 23  1  0  0  0  0
 22 48  1  0  0  0  0
 22 49  1  0  0  0  0
 23 24  1  0  0  0  0
 23 25  1  0  0  0  0
 23 50  1  0  0  0  0
 24 51  1  0  0  0  0
 24 52  1  0  0  0  0
 24 53  1  0  0  0  0
M  END
> <s_m_source_file>
AV-unprocessed.smi

> <i_m_source_file_index>
1413

> <i_lp_mmshare_version>
43012

> <i_f3d_flags>
0

> <s_epik_input>
W0NIM11bQ0BASF0xW0NIMl1OKFtDSDJdW0NASF0oTzEpW0NIM10pYzJbY0hdW2NIXWMoW2NIXW4yKVtOSF1DKD1PKVtOSF1bQ0BIXShbQ0gzXSlbQ0BASF0zW0NIMl1bQ0gyXVtDSDJdTzM=

> <s_epik_cmdline>
J2VwaWtfcHl0aG9uJywgJy1waCcsICc3LjAnLCAnLXRuJywgJzgnLCAnLW1hJywgJzIwMCcsICctbWV0YWxfYmluZGluZycsICctaW1hZScsICc8aW5maWxlLm1hZT4nLCAnLW9tYWUnLCAnPG91dGZpbGUubWFlPic=

> <r_lp_tautomer_probability>
1

> <r_epik_Ionization_Penalty>
0.00271172

> <r_epik_Ionization_Penalty_Charging>
0

> <r_epik_Ionization_Penalty_Neutral>
0.00271172

> <r_epik_State_Penalty>
0.00186503

> <r_epik_Charging_Adjusted_Penalty>
0.00186503

> <i_epik_Tot_Q>
0

> <i_epik_Tot_abs_Q>
0

> <r_epik_Metal_State_Penalty>
-0

> <b_epik_Metal_Only>
0

> <s_lp_Force_Field>
OPLS_2005

> <r_lp_Energy>
38.8739

> <b_lp_Chiralities_Consistent>
1

> <s_lp_Variant>
AV-unprocessed.smi:1413-5

> <Gold.Version>
5.8.1

> <Gold.Id.Protein>
6NUR|6NUR_protein|mol2

> <Gold.PLP.Fitness>
44.9010

> <Gold.PLP.PLP>
-37.6541

> <Gold.PLP.part.hbond>
-3.0000

> <Gold.PLP.part.metal>
0.0000

> <Gold.PLP.part.buried>
-6.8751

> <Gold.PLP.part.nonpolar>
-28.4809

> <Gold.PLP.part.repulsive>
0.2814

> <Gold.PLP.ligand.clash>
0.0000

> <Gold.PLP.ligand.torsion>
0.8061

> <Gold.PLP.Chemscore.Hbond>
1.9120

> <Gold.PLP.Chemscore.CHOScore>
1.0000

> <Gold.PLP.Chemscore.Metal>
0.0000

> <Gold.Chemscore.Hbonds>
donor molecule, donor type, donor heavy atom, donor atom, acceptor molecule, acceptor atom, score
      L1  H     9    34       P1  7948  0.85
      L1  H    12    35       P1  7948  1.00
      L1  C    20    47       P1  7957  1.00

> <Gold.PLP.Chemscore.Internal.Correction>
0.1231

> <Gold.Rescore>
     Score         DG    S(hbond)    S(metal)    S(lipo)     H(rot)  DE(clash)    DE(int)     intcor
     17.37     -20.54       1.94        0.00     102.85       1.35       0.02       3.14       ----

> <Gold.Chemscore.Fitness>
17.3721

> <Gold.Chemscore.DG>
-20.5392

> <Gold.Chemscore.ZeroCoef>
-5.4800

> <Gold.Chemscore.Hbond>
1.9383

> <Gold.Chemscore.Metal>
0.0000

> <Gold.Chemscore.Lipo>
102.8532

> <Gold.Chemscore.Internal_Hbond>
0.0000

> <Gold.Chemscore.DEClash>
0.0239

> <Gold.Chemscore.DEInternal>
3.1433

> <Gold.Chemscore.Rot>
1.3471

> <Gold.Chemscore.Internal.Correction>
   9.000000E+99

> <Gold.Chemscore.Hbonds>
donor molecule, donor type, donor heavy atom, donor atom, acceptor molecule, acceptor atom, score
      L1  H     9    34       P1  7948  0.83
      L1  H    12    35       P1  7948  0.96

> <Gold.Chemscore.Hbond.Weighted>
-6.4739

> <Gold.Chemscore.Metal.Weighted>
-0.0000

> <Gold.Chemscore.Lipo.Weighted>
-12.0338

> <Gold.Chemscore.Internal_Hbond.Weighted>
0.0000

> <Gold.Chemscore.DEClash.Weighted>
0.0239

> <Gold.Chemscore.DEInternal.Weighted>
3.1433

> <Gold.Chemscore.Rot.Weighted>
3.4485

> <Gold.Chemscore.Internal.Correction.Weighted>
   9.000000E+99

> <Gold.Protein.RotatedTorsions>
[ 6907 6896 6895 6894 ] final   11.38 input  -60.11 | X-H torsion
[ 7974 7965 7964 7962 ] final   99.81 input  175.53 | X-H torsion
[ 8008 7997 7996 7995 ] final   15.70 input   59.86 | X-H torsion
[ 10167 10162 10161 10158 ] final  -20.52 input  -65.29 | X-H torsion
[ 10718 10713 10712 10709 ] final  141.63 input   66.30 | X-H torsion
[ 10763 10752 10751 10750 ] final   37.65 input  -60.55 | X-H torsion
[ 11005 11000 10999 10996 ] final  144.66 input  -57.11 | X-H torsion

> <Gold.Protein.ActiveResidues>
 VAL166  LYS551  ARG553  GLY616  TRP617  ASP618  TYR619  PRO620  LYS621  CYS622 
 ASP623  PHE694  ASN695  SER759  ASP760  ASP761  ALA762  ILE779  LEU786  VAL792 
 PHE793  MET794  SER795  GLU796  ALA797  LYS798  CYS799  TRP800  GLU811  SER814 

> <Gold.Protein.RotatedAtoms>
  151.7534  135.0827  160.0334 H   0  0  0  0  0  0  0  0  0  0  0  0  # atno 6907 bound_to 6896
  152.3401  133.6053  159.5879 H   0  0  0  0  0  0  0  0  0  0  0  0  # atno 6908 bound_to 6896
  150.7474  133.9651  159.3569 H   0  0  0  0  0  0  0  0  0  0  0  0  # atno 6909 bound_to 6896
  145.3939  139.2358  143.3337 H   0  0  0  0  0  0  0  0  0  0  0  0  # atno 7974 bound_to 7965
  154.8664  140.2952  155.5507 H   0  0  0  0  0  0  0  0  0  0  0  0  # atno 8008 bound_to 7997
  156.3021  140.2468  156.3579 H   0  0  0  0  0  0  0  0  0  0  0  0  # atno 8009 bound_to 7997
  154.8863  140.0396  157.1801 H   0  0  0  0  0  0  0  0  0  0  0  0  # atno 8010 bound_to 7997
  140.7276  143.4714  151.0241 H   0  0  0  0  0  0  0  0  0  0  0  0  # atno 10167 bound_to 10162
  157.3898  131.1003  151.0658 H   0  0  0  0  0  0  0  0  0  0  0  0  # atno 10718 bound_to 10713
  153.0029  135.6272  154.2179 H   0  0  0  0  0  0  0  0  0  0  0  0  # atno 10763 bound_to 10752
  154.1922  135.2808  155.3020 H   0  0  0  0  0  0  0  0  0  0  0  0  # atno 10764 bound_to 10752
  154.5750  135.5665  153.7190 H   0  0  0  0  0  0  0  0  0  0  0  0  # atno 10765 bound_to 10752
  140.0650  134.9184  157.1248 H   0  0  0  0  0  0  0  0  0  0  0  0  # atno 11005 bound_to 11000
  146.2784  140.4626  142.8786 LP  0  0  0  0  0  0  0  0  0  0  0  0  # atno 17320 bound_to 7965
  144.8421  140.6873  143.6223 LP  0  0  0  0  0  0  0  0  0  0  0  0  # atno 17321 bound_to 7965
  139.8406  143.7568  152.3180 LP  0  0  0  0  0  0  0  0  0  0  0  0  # atno 17342 bound_to 10162
  139.7716  144.7475  151.0216 LP  0  0  0  0  0  0  0  0  0  0  0  0  # atno 17343 bound_to 10162
  157.1696  130.6261  149.5636 LP  0  0  0  0  0  0  0  0  0  0  0  0  # atno 17370 bound_to 10713
  155.9795  130.4789  150.6721 LP  0  0  0  0  0  0  0  0  0  0  0  0  # atno 17371 bound_to 10713
  140.3713  134.2387  155.7178 LP  0  0  0  0  0  0  0  0  0  0  0  0  # atno 17394 bound_to 11000
  141.1989  133.8025  157.0562 LP  0  0  0  0  0  0  0  0  0  0  0  0  # atno 17395 bound_to 11000

$$$$
