AV-unprocessed.smi:296|AV-procd|sdf|2258|dock1
  -GOLD-   2262022143D 1   1.00000     0.00000
 Structure written by MMmdl.
 36 37  0  0  0  0  0  0  0  0  1 V2000
  148.1443  137.2123  160.5211 N   0  0  0  0  0  0  0  0  0  0  0  0
  148.7645  136.9419  159.5821 C   0  0  0  0  0  0  0  0  0  0  0  0
  149.5431  136.6022  158.4031 C   0  0  0  0  0  0  0  0  0  0  0  0
  149.6931  135.3082  157.9961 N   0  0  0  0  0  0  0  0  0  0  0  0
  150.4490  135.5158  156.9249 C   0  0  0  0  0  0  0  0  0  0  0  0
  150.7315  136.8035  156.7003 N   0  0  0  0  0  0  0  0  0  0  0  0
  151.5072  137.4281  155.6445 C   0  0  0  0  0  0  0  0  0  0  0  0
  151.3974  138.9517  155.7071 C   0  0  0  0  0  0  0  0  0  0  0  0
  151.0027  139.5785  154.7246 O   0  0  0  0  0  0  0  0  0  0  0  0
  151.7569  139.5291  156.8647 N   0  0  0  0  0  0  0  0  0  0  0  0
  151.7571  140.9630  157.1403 C   0  0  0  0  0  0  0  0  0  0  0  0
  152.2263  141.2691  158.5749 C   0  0  0  0  0  0  0  0  0  0  0  0
  152.0206  142.7180  158.9892 C   0  0  0  0  0  0  0  0  0  0  0  0
  152.2684  143.1416  160.2439 C   0  0  0  0  0  0  0  0  0  0  0  0
  152.1185  144.5809  160.7025 C   0  0  0  0  0  0  0  0  0  0  0  0
  152.0047  145.5595  159.5218 C   0  0  0  0  0  0  0  0  0  0  0  0
  151.0519  145.0202  158.4484 C   0  0  0  0  0  0  0  0  0  0  0  0
  151.5340  143.6659  157.8980 C   0  0  0  0  0  0  0  0  0  0  0  0
  150.1396  137.5412  157.6717 N   0  0  0  0  0  0  0  0  0  0  0  0
  150.8014  134.7160  156.2898 H   0  0  0  0  0  0  0  0  0  0  0  0
  152.5520  137.1250  155.7285 H   0  0  0  0  0  0  0  0  0  0  0  0
  151.1431  137.0659  154.6820 H   0  0  0  0  0  0  0  0  0  0  0  0
  152.0632  138.9250  157.6139 H   0  0  0  0  0  0  0  0  0  0  0  0
  152.3567  141.5090  156.4107 H   0  0  0  0  0  0  0  0  0  0  0  0
  150.7350  141.3205  157.0141 H   0  0  0  0  0  0  0  0  0  0  0  0
  151.6937  140.6304  159.2803 H   0  0  0  0  0  0  0  0  0  0  0  0
  153.2813  141.0087  158.6720 H   0  0  0  0  0  0  0  0  0  0  0  0
  152.5973  142.4372  160.9938 H   0  0  0  0  0  0  0  0  0  0  0  0
  151.2313  144.6440  161.3333 H   0  0  0  0  0  0  0  0  0  0  0  0
  152.9716  144.8499  161.3257 H   0  0  0  0  0  0  0  0  0  0  0  0
  151.6677  146.5342  159.8759 H   0  0  0  0  0  0  0  0  0  0  0  0
  152.9900  145.7137  159.0792 H   0  0  0  0  0  0  0  0  0  0  0  0
  150.0570  144.9040  158.8803 H   0  0  0  0  0  0  0  0  0  0  0  0
  150.9524  145.7383  157.6339 H   0  0  0  0  0  0  0  0  0  0  0  0
  152.3506  143.8268  157.1945 H   0  0  0  0  0  0  0  0  0  0  0  0
  150.7260  143.1941  157.3380 H   0  0  0  0  0  0  0  0  0  0  0  0
  1  2  3  0  0  0  0
  2  3  1  0  0  0  0
  3 19  2  0  0  0  0
  3  4  1  0  0  0  0
  4  5  2  0  0  0  0
  5  6  1  0  0  0  0
  5 20  1  0  0  0  0
  6  7  1  0  0  0  0
  6 19  1  0  0  0  0
  7  8  1  0  0  0  0
  7 21  1  0  0  0  0
  7 22  1  0  0  0  0
  8  9  2  0  0  0  0
  8 10  1  0  0  0  0
 10 11  1  0  0  0  0
 10 23  1  0  0  0  0
 11 12  1  0  0  0  0
 11 24  1  0  0  0  0
 11 25  1  0  0  0  0
 12 13  1  0  0  0  0
 12 26  1  0  0  0  0
 12 27  1  0  0  0  0
 13 18  1  0  0  0  0
 13 14  2  0  0  0  0
 14 15  1  0  0  0  0
 14 28  1  0  0  0  0
 15 16  1  0  0  0  0
 15 29  1  0  0  0  0
 15 30  1  0  0  0  0
 16 17  1  0  0  0  0
 16 31  1  0  0  0  0
 16 32  1  0  0  0  0
 17 18  1  0  0  0  0
 17 33  1  0  0  0  0
 17 34  1  0  0  0  0
 18 35  1  0  0  0  0
 18 36  1  0  0  0  0
M  END
> <s_m_source_file>
AV-unprocessed.smi

> <i_m_source_file_index>
296

> <i_lp_mmshare_version>
43012

> <i_f3d_flags>
0

> <s_epik_input>
TiNDYzFuW2NIXW4objEpW0NIMl1DKD1PKVtOSF1bQ0gyXVtDSDJdQzI9W0NIXVtDSDJdW0NIMl1bQ0gyXVtDSDJdMg==

> <s_epik_cmdline>
J2VwaWtfcHl0aG9uJywgJy1waCcsICc3LjAnLCAnLXRuJywgJzgnLCAnLW1hJywgJzIwMCcsICctbWV0YWxfYmluZGluZycsICctaW1hZScsICc8aW5maWxlLm1hZT4nLCAnLW9tYWUnLCAnPG91dGZpbGUubWFlPic=

> <r_lp_tautomer_probability>
1

> <r_epik_Ionization_Penalty>
6.69355e-08

> <r_epik_Ionization_Penalty_Charging>
0

> <r_epik_Ionization_Penalty_Neutral>
6.69355e-08

> <r_epik_State_Penalty>
-0

> <r_epik_Charging_Adjusted_Penalty>
0

> <i_epik_Tot_Q>
0

> <i_epik_Tot_abs_Q>
0

> <r_epik_Metal_State_Penalty>
-0

> <b_epik_Metal_Only>
0

> <s_lp_Force_Field>
OPLS_2005

> <r_lp_Energy>
11.6781

> <b_lp_Chiralities_Consistent>
1

> <s_lp_Variant>
AV-unprocessed.smi:296-1

> <Gold.Version>
5.8.1

> <Gold.Id.Protein>
6NUR|6NUR_protein|mol2

> <Gold.PLP.Fitness>
47.6247

> <Gold.PLP.PLP>
-37.6689

> <Gold.PLP.part.hbond>
-4.0000

> <Gold.PLP.part.metal>
0.0000

> <Gold.PLP.part.buried>
-5.8990

> <Gold.PLP.part.nonpolar>
-28.3520

> <Gold.PLP.part.repulsive>
0.1699

> <Gold.PLP.ligand.clash>
0.0000

> <Gold.PLP.ligand.torsion>
0.1230

> <Gold.PLP.Chemscore.Hbond>
3.3674

> <Gold.PLP.Chemscore.CHOScore>
0.0000

> <Gold.PLP.Chemscore.Metal>
0.0000

> <Gold.Chemscore.Hbonds>
donor molecule, donor type, donor heavy atom, donor atom, acceptor molecule, acceptor atom, score
      P1  H  6896  6907       L1     4  0.99
      P1  H  6931  6943       L1     1  0.75
      P1  H  6934  6947       L1     1  0.60
      P1  H  7989  7998       L1     9  1.00

> <Gold.PLP.Chemscore.Internal.Correction>
0.0996

> <Gold.Rescore>
     Score         DG    S(hbond)    S(metal)    S(lipo)     H(rot)  DE(clash)    DE(int)     intcor
     17.23     -19.13       2.91        0.00      91.19       2.63       0.07       1.84       ----

> <Gold.Chemscore.Fitness>
17.2293

> <Gold.Chemscore.DG>
-19.1338

> <Gold.Chemscore.ZeroCoef>
-5.4800

> <Gold.Chemscore.Hbond>
2.9074

> <Gold.Chemscore.Metal>
0.0000

> <Gold.Chemscore.Lipo>
91.1873

> <Gold.Chemscore.Internal_Hbond>
0.0000

> <Gold.Chemscore.DEClash>
0.0668

> <Gold.Chemscore.DEInternal>
1.8377

> <Gold.Chemscore.Rot>
2.6273

> <Gold.Chemscore.Internal.Correction>
   9.000000E+99

> <Gold.Chemscore.Hbonds>
donor molecule, donor type, donor heavy atom, donor atom, acceptor molecule, acceptor atom, score
      P1  H  6896  6907       L1     4  0.49
      P1  H  6931  6943       L1     1  0.71
      P1  H  6934  6947       L1     1  0.58
      P1  H  7989  7998       L1     9  1.00

> <Gold.Chemscore.Hbond.Weighted>
-9.7107

> <Gold.Chemscore.Metal.Weighted>
-0.0000

> <Gold.Chemscore.Lipo.Weighted>
-10.6689

> <Gold.Chemscore.Internal_Hbond.Weighted>
0.0000

> <Gold.Chemscore.DEClash.Weighted>
0.0668

> <Gold.Chemscore.DEInternal.Weighted>
1.8377

> <Gold.Chemscore.Rot.Weighted>
6.7259

> <Gold.Chemscore.Internal.Correction.Weighted>
   9.000000E+99

> <Gold.Protein.RotatedTorsions>
[ 6907 6896 6895 6894 ] final  -87.96 input  -60.11 | X-H torsion
[ 7974 7965 7964 7962 ] final   34.15 input  175.53 | X-H torsion
[ 8008 7997 7996 7995 ] final  -42.01 input   59.86 | X-H torsion
[ 10167 10162 10161 10158 ] final -124.62 input  -65.29 | X-H torsion
[ 10718 10713 10712 10709 ] final  138.82 input   66.30 | X-H torsion
[ 10763 10752 10751 10750 ] final  172.11 input  -60.55 | X-H torsion
[ 11005 11000 10999 10996 ] final -131.60 input  -57.11 | X-H torsion

> <Gold.Protein.ActiveResidues>
 VAL166  LYS551  ARG553  GLY616  TRP617  ASP618  TYR619  PRO620  LYS621  CYS622 
 ASP623  PHE694  ASN695  SER759  ASP760  ASP761  ALA762  ILE779  LEU786  VAL792 
 PHE793  MET794  SER795  GLU796  ALA797  LYS798  CYS799  TRP800  GLU811  SER814 

> <Gold.Protein.RotatedAtoms>
  150.6867  134.2815  159.4628 H   0  0  0  0  0  0  0  0  0  0  0  0  # atno 6907 bound_to 6896
  152.0728  134.9519  160.0583 H   0  0  0  0  0  0  0  0  0  0  0  0  # atno 6908 bound_to 6896
  152.0902  133.4162  159.4577 H   0  0  0  0  0  0  0  0  0  0  0  0  # atno 6909 bound_to 6896
  146.1372  139.6305  142.9187 H   0  0  0  0  0  0  0  0  0  0  0  0  # atno 7974 bound_to 7965
  154.4001  140.1484  156.3285 H   0  0  0  0  0  0  0  0  0  0  0  0  # atno 8008 bound_to 7997
  155.8465  140.3459  155.5644 H   0  0  0  0  0  0  0  0  0  0  0  0  # atno 8009 bound_to 7997
  155.8030  140.0873  157.1937 H   0  0  0  0  0  0  0  0  0  0  0  0  # atno 8010 bound_to 7997
  139.9909  143.5642  152.2342 H   0  0  0  0  0  0  0  0  0  0  0  0  # atno 10167 bound_to 10162
  157.4212  131.1039  151.0352 H   0  0  0  0  0  0  0  0  0  0  0  0  # atno 10718 bound_to 10713
  154.4214  135.2758  155.1973 H   0  0  0  0  0  0  0  0  0  0  0  0  # atno 10763 bound_to 10752
  154.3917  135.6065  153.5850 H   0  0  0  0  0  0  0  0  0  0  0  0  # atno 10764 bound_to 10752
  152.9833  135.5905  154.4511 H   0  0  0  0  0  0  0  0  0  0  0  0  # atno 10765 bound_to 10752
  140.9244  134.1401  157.4287 H   0  0  0  0  0  0  0  0  0  0  0  0  # atno 11005 bound_to 11000
  145.5129  141.0435  143.2478 LP  0  0  0  0  0  0  0  0  0  0  0  0  # atno 17320 bound_to 7965
  144.7753  139.6644  143.7177 LP  0  0  0  0  0  0  0  0  0  0  0  0  # atno 17321 bound_to 7965
  139.6341  144.7648  151.2475 LP  0  0  0  0  0  0  0  0  0  0  0  0  # atno 17342 bound_to 10162
  140.7455  143.6429  150.8318 LP  0  0  0  0  0  0  0  0  0  0  0  0  # atno 17343 bound_to 10162
  157.1281  130.6090  149.5522 LP  0  0  0  0  0  0  0  0  0  0  0  0  # atno 17370 bound_to 10713
  155.9881  130.4923  150.7155 LP  0  0  0  0  0  0  0  0  0  0  0  0  # atno 17371 bound_to 10713
  139.8782  134.9983  156.5893 LP  0  0  0  0  0  0  0  0  0  0  0  0  # atno 17394 bound_to 11000
  140.7945  133.8555  155.8674 LP  0  0  0  0  0  0  0  0  0  0  0  0  # atno 17395 bound_to 11000

$$$$
