AV-unprocessed.smi:763|AV-procd|sdf|3639|dock3
  -GOLD-   22720 1 33D 1   1.00000     0.00000
 Structure written by MMmdl.
 43 44  0  0  0  0  0  0  0  0  2 V2000
  151.7664  130.3414  158.1976 C   0  0  0  0  0  0  0  0  0  0  0  0
  151.8026  131.6738  157.7182 O   0  0  0  0  0  0  0  0  0  0  0  0
  151.0287  131.8488  156.5427 C   0  0  0  0  0  0  0  0  0  0  0  0
  151.1476  133.3016  156.0734 C   0  0  0  0  0  0  0  0  0  0  0  0
  150.7308  134.1545  157.1343 O   0  0  0  0  0  0  0  0  0  0  0  0
  150.6763  135.5191  156.9164 C   0  0  0  0  0  0  0  0  0  0  0  0
  151.2976  136.0130  155.8149 N   0  0  0  0  0  0  0  0  0  0  0  0
  151.2512  137.3405  155.5918 C   0  0  0  0  0  0  0  0  0  0  0  0
  150.5914  138.2378  156.4473 C   0  0  0  0  0  0  0  0  0  0  0  0
  149.9495  137.7209  157.5867 C   0  0  0  0  0  0  0  0  0  0  0  0
  149.9781  136.3286  157.8478 C   0  0  0  0  0  0  0  0  0  0  0  0
  149.3810  135.7695  158.9144 N   0  5  0  0  0  0  0  0  0  0  0  0
  148.4665  136.5282  160.0130 S   0  0  0  0  0  0  0  0  0  0  0  0
  149.1911  136.7029  161.2817 O   0  0  0  0  0  0  0  0  0  0  0  0
  147.8343  137.7280  159.4444 O   0  0  0  0  0  0  0  0  0  0  0  0
  147.1372  135.2399  160.3051 C   0  0  1  0  0  0  0  0  0  0  0  0
  147.3189  134.5446  161.6711 C   0  0  0  0  0  0  0  0  0  0  0  0
  146.9378  135.4660  162.8425 C   0  0  0  0  0  0  0  0  0  0  0  0
  145.4824  135.9431  162.7129 C   0  0  0  0  0  0  0  0  0  0  0  0
  145.2356  136.6462  161.3684 C   0  0  0  0  0  0  0  0  0  0  0  0
  145.6828  135.7662  160.1818 C   0  0  1  0  0  0  0  0  0  0  0  0
  145.4726  136.4425  158.9589 O   0  0  0  0  0  0  0  0  0  0  0  0
  152.3707  130.2606  159.1010 H   0  0  0  0  0  0  0  0  0  0  0  0
  152.1703  129.6469  157.4595 H   0  0  0  0  0  0  0  0  0  0  0  0
  150.7485  130.0377  158.4449 H   0  0  0  0  0  0  0  0  0  0  0  0
  151.3517  131.1671  155.7543 H   0  0  0  0  0  0  0  0  0  0  0  0
  149.9850  131.6217  156.7655 H   0  0  0  0  0  0  0  0  0  0  0  0
  152.1887  133.5123  155.8244 H   0  0  0  0  0  0  0  0  0  0  0  0
  150.5470  133.4599  155.1760 H   0  0  0  0  0  0  0  0  0  0  0  0
  151.7551  137.6977  154.7059 H   0  0  0  0  0  0  0  0  0  0  0  0
  150.5760  139.2965  156.2360 H   0  0  0  0  0  0  0  0  0  0  0  0
  149.4408  138.4052  158.2494 H   0  0  0  0  0  0  0  0  0  0  0  0
  147.2921  134.4765  159.5420 H   0  0  0  0  0  0  0  0  0  0  0  0
  146.6887  133.6550  161.7040 H   0  0  0  0  0  0  0  0  0  0  0  0
  148.3404  134.1831  161.7884 H   0  0  0  0  0  0  0  0  0  0  0  0
  147.0694  134.9363  163.7861 H   0  0  0  0  0  0  0  0  0  0  0  0
  147.6063  136.3269  162.8766 H   0  0  0  0  0  0  0  0  0  0  0  0
  144.8117  135.0879  162.8035 H   0  0  0  0  0  0  0  0  0  0  0  0
  145.2365  136.6166  163.5341 H   0  0  0  0  0  0  0  0  0  0  0  0
  144.1750  136.8807  161.2721 H   0  0  0  0  0  0  0  0  0  0  0  0
  145.7494  137.6053  161.3651 H   0  0  0  0  0  0  0  0  0  0  0  0
  145.0256  134.8961  160.1577 H   0  0  0  0  0  0  0  0  0  0  0  0
  145.5372  137.3726  159.1139 H   0  0  0  0  0  0  0  0  0  0  0  0
  1  2  1  0  0  0  0
  1 23  1  0  0  0  0
  1 24  1  0  0  0  0
  1 25  1  0  0  0  0
  2  3  1  0  0  0  0
  3  4  1  0  0  0  0
  3 26  1  0  0  0  0
  3 27  1  0  0  0  0
  4  5  1  0  0  0  0
  4 28  1  0  0  0  0
  4 29  1  0  0  0  0
  5  6  1  0  0  0  0
  6 11  1  0  0  0  0
  6  7  2  0  0  0  0
  7  8  1  0  0  0  0
  8  9  2  0  0  0  0
  8 30  1  0  0  0  0
  9 10  1  0  0  0  0
  9 31  1  0  0  0  0
 10 11  2  0  0  0  0
 10 32  1  0  0  0  0
 11 12  1  0  0  0  0
 12 13  1  0  0  0  0
 13 14  2  0  0  0  0
 13 15  2  0  0  0  0
 13 16  1  0  0  0  0
 16 21  1  0  0  0  0
 16 17  1  0  0  0  0
 16 33  1  0  0  0  0
 17 18  1  0  0  0  0
 17 34  1  0  0  0  0
 17 35  1  0  0  0  0
 18 19  1  0  0  0  0
 18 36  1  0  0  0  0
 18 37  1  0  0  0  0
 19 20  1  0  0  0  0
 19 38  1  0  0  0  0
 19 39  1  0  0  0  0
 20 21  1  0  0  0  0
 20 40  1  0  0  0  0
 20 41  1  0  0  0  0
 21 22  1  0  0  0  0
 21 42  1  0  0  0  0
 22 43  1  0  0  0  0
M  CHG  1  12  -1
M  END
> <s_m_source_file>
AV-unprocessed.smi

> <i_m_source_file_index>
763

> <i_lp_mmshare_version>
43012

> <i_f3d_flags>
0

> <s_epik_input>
W0NIM11PW0NIMl1bQ0gyXU9jMW5bY0hdW2NIXVtjSF1jMVtOSF1TKD1PKSg9TylbQ0BASF0yW0NIMl1bQ0gyXVtDSDJdW0NIMl1bQ0BIXTJbT0hd

> <s_epik_cmdline>
J2VwaWtfcHl0aG9uJywgJy1waCcsICc3LjAnLCAnLXRuJywgJzgnLCAnLW1hJywgJzIwMCcsICctbWV0YWxfYmluZGluZycsICctaW1hZScsICc8aW5maWxlLm1hZT4nLCAnLW9tYWUnLCAnPG91dGZpbGUubWFlPic=

> <r_epik_Ionization_Penalty>
0.985866

> <r_epik_Ionization_Penalty_Charging>
0.984689

> <r_epik_Ionization_Penalty_Neutral>
0.00117669

> <r_epik_State_Penalty>
1.03185

> <r_epik_Charging_Adjusted_Penalty>
2.01654

> <i_epik_Tot_Q>
-1

> <i_epik_Tot_abs_Q>
1

> <r_epik_Metal_State_Penalty>
0.379327

> <b_epik_Metal_Only>
0

> <s_lp_Force_Field>
OPLS_2005

> <r_lp_Energy>
9.05773

> <b_lp_Chiralities_Consistent>
1

> <s_lp_Variant>
AV-unprocessed.smi:763-6

> <Gold.Version>
5.8.1

> <Gold.Id.Protein>
6NUR|6NUR_protein|mol2

> <Gold.PLP.Fitness>
39.1234

> <Gold.PLP.PLP>
-24.1274

> <Gold.PLP.part.hbond>
-5.8459

> <Gold.PLP.part.metal>
0.0000

> <Gold.PLP.part.buried>
-4.3384

> <Gold.PLP.part.nonpolar>
-15.0102

> <Gold.PLP.part.repulsive>
0.0595

> <Gold.PLP.ligand.clash>
0.0000

> <Gold.PLP.ligand.torsion>
1.1120

> <Gold.PLP.Chemscore.Hbond>
5.3458

> <Gold.PLP.Chemscore.CHOScore>
0.0000

> <Gold.PLP.Chemscore.Metal>
0.0000

> <Gold.Chemscore.Hbonds>
donor molecule, donor type, donor heavy atom, donor atom, acceptor molecule, acceptor atom, score
      P1  H  6896  6908       L1     2  0.39
      P1  H  6896  6909       L1    12  2.00
      P1  H  6931  6943       L1    14  0.99
      P1  H  6934  6947       L1    15  0.50
      P1  H 10752 10763       L1     7  1.00

> <Gold.PLP.Chemscore.Internal.Correction>
1.1827

> <Gold.Rescore>
     Score         DG    S(hbond)    S(metal)    S(lipo)     H(rot)  DE(clash)    DE(int)     intcor
     13.60     -16.76       3.24        0.00      55.39       2.35       0.14       3.02       ----

> <Gold.Chemscore.Fitness>
13.6010

> <Gold.Chemscore.DG>
-16.7619

> <Gold.Chemscore.ZeroCoef>
-5.4800

> <Gold.Chemscore.Hbond>
3.2395

> <Gold.Chemscore.Metal>
0.0000

> <Gold.Chemscore.Lipo>
55.3853

> <Gold.Chemscore.Internal_Hbond>
0.0000

> <Gold.Chemscore.DEClash>
0.1394

> <Gold.Chemscore.DEInternal>
3.0215

> <Gold.Chemscore.Rot>
2.3509

> <Gold.Chemscore.Internal.Correction>
   9.000000E+99

> <Gold.Chemscore.Hbonds>
donor molecule, donor type, donor heavy atom, donor atom, acceptor molecule, acceptor atom, score
      P1  H  6896  6908       L1     2  0.35
      P1  H  6896  6909       L1    12  0.37
      P1  H  6931  6943       L1    14  0.83
      P1  H  6934  6947       L1    15  0.41
      P1  H 10752 10763       L1     7  0.28

> <Gold.Chemscore.Hbond.Weighted>
-10.8201

> <Gold.Chemscore.Metal.Weighted>
-0.0000

> <Gold.Chemscore.Lipo.Weighted>
-6.4801

> <Gold.Chemscore.Internal_Hbond.Weighted>
0.0000

> <Gold.Chemscore.DEClash.Weighted>
0.1394

> <Gold.Chemscore.DEInternal.Weighted>
3.0215

> <Gold.Chemscore.Rot.Weighted>
6.0182

> <Gold.Chemscore.Internal.Correction.Weighted>
   9.000000E+99

> <Gold.Protein.RotatedTorsions>
[ 6907 6896 6895 6894 ] final   48.77 input  -60.11 | X-H torsion
[ 7974 7965 7964 7962 ] final   66.19 input  175.53 | X-H torsion
[ 8008 7997 7996 7995 ] final  -53.49 input   59.86 | X-H torsion
[ 10167 10162 10161 10158 ] final  132.35 input  -65.29 | X-H torsion
[ 10718 10713 10712 10709 ] final  -58.20 input   66.30 | X-H torsion
[ 10763 10752 10751 10750 ] final   77.21 input  -60.55 | X-H torsion
[ 11005 11000 10999 10996 ] final   93.56 input  -57.11 | X-H torsion

> <Gold.Protein.ActiveResidues>
 VAL166  LYS551  ARG553  GLY616  TRP617  ASP618  TYR619  PRO620  LYS621  CYS622 
 ASP623  PHE694  ASN695  SER759  ASP760  ASP761  ALA762  ILE779  LEU786  VAL792 
 PHE793  MET794  SER795  GLU796  ALA797  LYS798  CYS799  TRP800  GLU811  SER814 

> <Gold.Protein.RotatedAtoms>
  152.2832  134.7805  160.0392 H   0  0  0  0  0  0  0  0  0  0  0  0  # atno 6907 bound_to 6896
  151.8377  133.3413  159.3641 H   0  0  0  0  0  0  0  0  0  0  0  0  # atno 6908 bound_to 6896
  150.7198  134.5350  159.5763 H   0  0  0  0  0  0  0  0  0  0  0  0  # atno 6909 bound_to 6896
  145.8295  139.3131  143.0995 H   0  0  0  0  0  0  0  0  0  0  0  0  # atno 7974 bound_to 7965
  154.4135  140.1198  156.5163 H   0  0  0  0  0  0  0  0  0  0  0  0  # atno 8008 bound_to 7997
  155.6748  140.3496  155.4813 H   0  0  0  0  0  0  0  0  0  0  0  0  # atno 8009 bound_to 7997
  155.9602  140.1121  157.0892 H   0  0  0  0  0  0  0  0  0  0  0  0  # atno 8010 bound_to 7997
  139.5343  144.6666  151.4840 H   0  0  0  0  0  0  0  0  0  0  0  0  # atno 10167 bound_to 10162
  156.1153  130.4171  150.0545 H   0  0  0  0  0  0  0  0  0  0  0  0  # atno 10718 bound_to 10713
  153.0782  135.4922  154.8448 H   0  0  0  0  0  0  0  0  0  0  0  0  # atno 10763 bound_to 10752
  154.7116  135.3021  154.9191 H   0  0  0  0  0  0  0  0  0  0  0  0  # atno 10764 bound_to 10752
  153.9883  135.6781  153.4806 H   0  0  0  0  0  0  0  0  0  0  0  0  # atno 10765 bound_to 10752
  139.8808  134.8796  156.3735 H   0  0  0  0  0  0  0  0  0  0  0  0  # atno 11005 bound_to 11000
  145.9586  140.8853  143.0222 LP  0  0  0  0  0  0  0  0  0  0  0  0  # atno 17320 bound_to 7965
  144.6741  140.1780  143.7408 LP  0  0  0  0  0  0  0  0  0  0  0  0  # atno 17321 bound_to 7965
  140.6541  143.8636  150.6816 LP  0  0  0  0  0  0  0  0  0  0  0  0  # atno 17342 bound_to 10162
  140.2010  143.3959  152.1791 LP  0  0  0  0  0  0  0  0  0  0  0  0  # atno 17343 bound_to 10162
  156.8497  130.9454  151.3626 LP  0  0  0  0  0  0  0  0  0  0  0  0  # atno 17370 bound_to 10713
  157.6336  130.8749  149.9318 LP  0  0  0  0  0  0  0  0  0  0  0  0  # atno 17371 bound_to 10713
  140.9448  133.7490  156.0193 LP  0  0  0  0  0  0  0  0  0  0  0  0  # atno 17394 bound_to 11000
  140.8177  134.3326  157.5392 LP  0  0  0  0  0  0  0  0  0  0  0  0  # atno 17395 bound_to 11000

$$$$
