AV-unprocessed.smi:2822|AV-procd|sdf|10869|dock2
  -GOLD-   2272015313D 1   1.00000     0.00000
 Structure written by MMmdl.
 40 42  0  0  0  0  0  0  0  0  2 V2000
  152.8789  142.5436  161.9568 Cl  0  0  0  0  0  0  0  0  0  0  0  0
  152.2488  143.0826  160.4392 C   0  0  0  0  0  0  0  0  0  0  0  0
  152.0269  144.4582  160.2231 C   0  0  0  0  0  0  0  0  0  0  0  0
  151.5421  144.9606  159.0681 N   0  0  0  0  0  0  0  0  0  0  0  0
  151.2565  144.0921  158.0759 C   0  0  0  0  0  0  0  0  0  0  0  0
  151.4401  142.6991  158.1868 C   0  0  0  0  0  0  0  0  0  0  0  0
  151.9508  142.1744  159.3974 C   0  0  0  0  0  0  0  0  0  0  0  0
  152.1672  140.8021  159.5934 N   0  0  0  0  0  0  0  0  0  0  0  0
  151.3476  139.8082  158.9183 C   0  0  0  0  0  0  0  0  0  0  0  0
  152.1279  139.1126  157.7852 C   0  0  1  0  0  0  0  0  0  0  0  0
  151.3561  137.9422  157.1474 C   0  0  0  0  0  0  0  0  0  0  0  0
  150.2268  138.4262  156.3191 N   0  3  2  0  0  0  0  0  0  0  0  0
  149.4494  137.3081  155.7263 C   0  0  0  0  0  0  0  0  0  0  0  0
  148.2344  137.8286  154.9428 C   0  0  0  0  0  0  0  0  0  0  0  0
  148.6695  138.8273  153.8635 C   0  0  0  0  0  0  0  0  0  0  0  0
  149.4890  139.9591  154.4971 C   0  0  0  0  0  0  0  0  0  0  0  0
  150.6857  139.4075  155.2987 C   0  0  1  0  0  0  0  0  0  0  0  0
  151.4683  140.5476  155.9778 C   0  0  0  0  0  0  0  0  0  0  0  0
  152.5340  140.0224  156.7622 O   0  0  0  0  0  0  0  0  0  0  0  0
  152.2463  145.1762  160.9995 H   0  0  0  0  0  0  0  0  0  0  0  0
  150.8684  144.5199  157.1633 H   0  0  0  0  0  0  0  0  0  0  0  0
  151.1852  142.0653  157.3510 H   0  0  0  0  0  0  0  0  0  0  0  0
  153.0185  140.5002  160.0469 H   0  0  0  0  0  0  0  0  0  0  0  0
  151.0407  139.0640  159.6542 H   0  0  0  0  0  0  0  0  0  0  0  0
  150.4352  140.2693  158.5413 H   0  0  0  0  0  0  0  0  0  0  0  0
  153.0410  138.7044  158.2206 H   0  0  0  0  0  0  0  0  0  0  0  0
  152.0333  137.3600  156.5201 H   0  0  0  0  0  0  0  0  0  0  0  0
  150.9879  137.2688  157.9224 H   0  0  0  0  0  0  0  0  0  0  0  0
  150.0945  136.7225  155.0690 H   0  0  0  0  0  0  0  0  0  0  0  0
  149.1124  136.6383  156.5182 H   0  0  0  0  0  0  0  0  0  0  0  0
  147.7012  136.9948  154.4851 H   0  0  0  0  0  0  0  0  0  0  0  0
  147.5324  138.3076  155.6267 H   0  0  0  0  0  0  0  0  0  0  0  0
  149.2666  138.3175  153.1064 H   0  0  0  0  0  0  0  0  0  0  0  0
  147.7964  139.2341  153.3523 H   0  0  0  0  0  0  0  0  0  0  0  0
  149.8400  140.6381  153.7189 H   0  0  0  0  0  0  0  0  0  0  0  0
  148.8443  140.5478  155.1516 H   0  0  0  0  0  0  0  0  0  0  0  0
  151.3582  138.8902  154.6116 H   0  0  0  0  0  0  0  0  0  0  0  0
  151.8953  141.2066  155.2214 H   0  0  0  0  0  0  0  0  0  0  0  0
  150.8122  141.1692  156.5876 H   0  0  0  0  0  0  0  0  0  0  0  0
  149.6007  138.9212  156.9381 H   0  0  0  0  0  0  0  0  0  0  0  0
  1  2  1  0  0  0  0
  2  7  1  0  0  0  0
  2  3  2  0  0  0  0
  3  4  1  0  0  0  0
  3 20  1  0  0  0  0
  4  5  2  0  0  0  0
  5  6  1  0  0  0  0
  5 21  1  0  0  0  0
  6  7  2  0  0  0  0
  6 22  1  0  0  0  0
  7  8  1  0  0  0  0
  8  9  1  0  0  0  0
  8 23  1  0  0  0  0
  9 10  1  0  0  0  0
  9 24  1  0  0  0  0
  9 25  1  0  0  0  0
 10 19  1  0  0  0  0
 10 11  1  0  0  0  0
 10 26  1  0  0  0  0
 11 12  1  0  0  0  0
 11 27  1  0  0  0  0
 11 28  1  0  0  0  0
 12 17  1  0  0  0  0
 12 13  1  0  0  0  0
 12 40  1  0  0  0  0
 13 14  1  0  0  0  0
 13 29  1  0  0  0  0
 13 30  1  0  0  0  0
 14 15  1  0  0  0  0
 14 31  1  0  0  0  0
 14 32  1  0  0  0  0
 15 16  1  0  0  0  0
 15 33  1  0  0  0  0
 15 34  1  0  0  0  0
 16 17  1  0  0  0  0
 16 35  1  0  0  0  0
 16 36  1  0  0  0  0
 17 18  1  0  0  0  0
 17 37  1  0  0  0  0
 18 19  1  0  0  0  0
 18 38  1  0  0  0  0
 18 39  1  0  0  0  0
M  CHG  1  12   1
M  END
> <s_m_source_file>
AV-unprocessed.smi

> <i_m_source_file_index>
2822

> <i_lp_mmshare_version>
43012

> <i_f3d_flags>
0

> <s_epik_input>
Q2xjMVtjSF1uW2NIXVtjSF1jMVtOSF1bQ0gyXVtDQEhdKFtDSDJdMilPW0NIMl1bQ0BASF0oTjIzKVtDSDJdW0NIMl1bQ0gyXVtDSDJdMw==

> <s_epik_cmdline>
J2VwaWtfcHl0aG9uJywgJy1waCcsICc3LjAnLCAnLXRuJywgJzgnLCAnLW1hJywgJzIwMCcsICctbWV0YWxfYmluZGluZycsICctaW1hZScsICc8aW5maWxlLm1hZT4nLCAnLW9tYWUnLCAnPG91dGZpbGUubWFlPic=

> <r_lp_tautomer_probability>
0.999999

> <r_epik_Ionization_Penalty>
0.88937

> <r_epik_Ionization_Penalty_Charging>
0.0803403

> <r_epik_Ionization_Penalty_Neutral>
0.80903

> <r_epik_State_Penalty>
0.931884

> <r_epik_Charging_Adjusted_Penalty>
1.01222

> <i_epik_Tot_Q>
1

> <i_epik_Tot_abs_Q>
1

> <r_epik_Metal_State_Penalty>
0.0782275

> <b_epik_Metal_Only>
0

> <s_lp_Force_Field>
OPLS_2005

> <r_lp_Energy>
31.9591

> <b_lp_Chiralities_Consistent>
1

> <s_lp_Variant>
AV-unprocessed.smi:2822-10

> <Gold.Version>
5.8.1

> <Gold.Id.Protein>
6NUR|6NUR_protein|mol2

> <Gold.PLP.Fitness>
40.6826

> <Gold.PLP.PLP>
-35.2277

> <Gold.PLP.part.hbond>
-1.0000

> <Gold.PLP.part.metal>
0.0000

> <Gold.PLP.part.buried>
-2.9789

> <Gold.PLP.part.nonpolar>
-30.9130

> <Gold.PLP.part.repulsive>
0.2202

> <Gold.PLP.ligand.clash>
0.0000

> <Gold.PLP.ligand.torsion>
0.2761

> <Gold.PLP.Chemscore.Hbond>
1.0000

> <Gold.PLP.Chemscore.CHOScore>
1.0000

> <Gold.PLP.Chemscore.Metal>
0.0000

> <Gold.Chemscore.Hbonds>
donor molecule, donor type, donor heavy atom, donor atom, acceptor molecule, acceptor atom, score
      P1  H  7997  8008       L1    19  1.00
      L1  C     5    21       P1  8028  1.00

> <Gold.PLP.Chemscore.Internal.Correction>
0.0071

> <Gold.Rescore>
     Score         DG    S(hbond)    S(metal)    S(lipo)     H(rot)  DE(clash)    DE(int)     intcor
     18.58     -18.85       0.97        0.00     112.22       1.17       0.04       0.23       ----

> <Gold.Chemscore.Fitness>
18.5753

> <Gold.Chemscore.DG>
-18.8467

> <Gold.Chemscore.ZeroCoef>
-5.4800

> <Gold.Chemscore.Hbond>
0.9672

> <Gold.Chemscore.Metal>
0.0000

> <Gold.Chemscore.Lipo>
112.2195

> <Gold.Chemscore.Internal_Hbond>
0.0000

> <Gold.Chemscore.DEClash>
0.0447

> <Gold.Chemscore.DEInternal>
0.2267

> <Gold.Chemscore.Rot>
1.1693

> <Gold.Chemscore.Internal.Correction>
   9.000000E+99

> <Gold.Chemscore.Hbonds>
donor molecule, donor type, donor heavy atom, donor atom, acceptor molecule, acceptor atom, score
      P1  H  7997  8008       L1    19  0.85

> <Gold.Chemscore.Hbond.Weighted>
-3.2304

> <Gold.Chemscore.Metal.Weighted>
-0.0000

> <Gold.Chemscore.Lipo.Weighted>
-13.1297

> <Gold.Chemscore.Internal_Hbond.Weighted>
0.0000

> <Gold.Chemscore.DEClash.Weighted>
0.0447

> <Gold.Chemscore.DEInternal.Weighted>
0.2267

> <Gold.Chemscore.Rot.Weighted>
2.9934

> <Gold.Chemscore.Internal.Correction.Weighted>
   9.000000E+99

> <Gold.Protein.RotatedTorsions>
[ 6907 6896 6895 6894 ] final  124.75 input  -60.11 | X-H torsion
[ 7974 7965 7964 7962 ] final  -54.86 input  175.53 | X-H torsion
[ 8008 7997 7996 7995 ] final  -55.22 input   59.86 | X-H torsion
[ 10167 10162 10161 10158 ] final   91.90 input  -65.29 | X-H torsion
[ 10718 10713 10712 10709 ] final  139.90 input   66.30 | X-H torsion
[ 10763 10752 10751 10750 ] final  -75.87 input  -60.55 | X-H torsion
[ 11005 11000 10999 10996 ] final  135.81 input  -57.11 | X-H torsion

> <Gold.Protein.ActiveResidues>
 VAL166  LYS551  ARG553  GLY616  TRP617  ASP618  TYR619  PRO620  LYS621  CYS622 
 ASP623  PHE694  ASN695  SER759  ASP760  ASP761  ALA762  ILE779  LEU786  VAL792 
 PHE793  MET794  SER795  GLU796  ALA797  LYS798  CYS799  TRP800  GLU811  SER814 

> <Gold.Protein.RotatedAtoms>
  152.4051  133.6877  159.6349 H   0  0  0  0  0  0  0  0  0  0  0  0  # atno 6907 bound_to 6896
  150.7937  133.8723  159.3271 H   0  0  0  0  0  0  0  0  0  0  0  0  # atno 6908 bound_to 6896
  151.6479  135.1007  160.0206 H   0  0  0  0  0  0  0  0  0  0  0  0  # atno 6909 bound_to 6896
  145.8808  140.8146  142.9841 H   0  0  0  0  0  0  0  0  0  0  0  0  # atno 7974 bound_to 7965
  154.4188  140.1158  156.5441 H   0  0  0  0  0  0  0  0  0  0  0  0  # atno 8008 bound_to 7997
  155.6477  140.3496  155.4718 H   0  0  0  0  0  0  0  0  0  0  0  0  # atno 8009 bound_to 7997
  155.9818  140.1162  157.0709 H   0  0  0  0  0  0  0  0  0  0  0  0  # atno 8010 bound_to 7997
  139.8329  144.6678  150.9377 H   0  0  0  0  0  0  0  0  0  0  0  0  # atno 10167 bound_to 10162
  157.4093  131.1026  151.0471 H   0  0  0  0  0  0  0  0  0  0  0  0  # atno 10718 bound_to 10713
  154.4923  135.5817  153.6468 H   0  0  0  0  0  0  0  0  0  0  0  0  # atno 10763 bound_to 10752
  152.9864  135.6115  154.3109 H   0  0  0  0  0  0  0  0  0  0  0  0  # atno 10764 bound_to 10752
  154.3010  135.2847  155.2590 H   0  0  0  0  0  0  0  0  0  0  0  0  # atno 10765 bound_to 10752
  140.0004  134.9480  157.0059 H   0  0  0  0  0  0  0  0  0  0  0  0  # atno 11005 bound_to 11000
  144.6727  140.1380  143.7439 LP  0  0  0  0  0  0  0  0  0  0  0  0  # atno 17320 bound_to 7965
  145.9026  139.2439  143.1484 LP  0  0  0  0  0  0  0  0  0  0  0  0  # atno 17321 bound_to 7965
  140.7805  143.3984  151.1191 LP  0  0  0  0  0  0  0  0  0  0  0  0  # atno 17342 bound_to 10162
  139.7636  143.8598  152.3106 LP  0  0  0  0  0  0  0  0  0  0  0  0  # atno 17343 bound_to 10162
  157.1441  130.6156  149.5563 LP  0  0  0  0  0  0  0  0  0  0  0  0  # atno 17370 bound_to 10713
  155.9846  130.4871  150.6989 LP  0  0  0  0  0  0  0  0  0  0  0  0  # atno 17371 bound_to 10713
  140.4738  134.1359  155.7207 LP  0  0  0  0  0  0  0  0  0  0  0  0  # atno 17394 bound_to 11000
  141.1637  133.8743  157.1775 LP  0  0  0  0  0  0  0  0  0  0  0  0  # atno 17395 bound_to 11000

$$$$
