AV-unprocessed.smi:284|AV-procd|sdf|2157|dock1
  -GOLD-   2262021503D 1   1.00000     0.00000
 Structure written by MMmdl.
 60 62  0  0  0  0  0  0  0  0  1 V2000
  147.2775  139.1161  153.8815 C   0  0  0  0  0  0  0  0  0  0  0  0
  148.3996  138.1879  154.3200 C   0  0  0  0  0  0  0  0  0  0  0  0
  148.1849  136.8809  154.5987 C   0  0  0  0  0  0  0  0  0  0  0  0
  149.1854  136.0094  154.9939 N   0  0  0  0  0  0  0  0  0  0  0  0
  148.9256  134.5435  155.2818 C   0  0  2  0  0  0  0  0  0  0  0  0
  149.7282  133.6502  154.3175 C   0  0  0  0  0  0  0  0  0  0  0  0
  148.6805  132.6966  153.7721 C   0  0  1  0  0  0  0  0  0  0  0  0
  148.6241  131.5178  154.5535 O   0  0  0  0  0  0  0  0  0  0  0  0
  147.3959  133.5248  153.8811 C   0  0  1  0  0  0  0  0  0  0  0  0
  146.0641  132.7536  153.8758 C   0  0  0  0  0  0  0  0  0  0  0  0
  144.9976  133.6144  154.2150 O   0  0  0  0  0  0  0  0  0  0  0  0
  147.5714  134.2461  155.0956 O   0  0  0  0  0  0  0  0  0  0  0  0
  150.5055  136.4844  155.1328 C   0  0  0  0  0  0  0  0  0  0  0  0
  151.4134  135.7253  155.4807 O   0  0  0  0  0  0  0  0  0  0  0  0
  150.7620  137.8451  154.8540 N   0  0  0  0  0  0  0  0  0  0  0  0
  152.1537  138.3372  154.9652 C   0  0  0  0  0  0  0  0  0  0  0  0
  152.3959  139.2212  156.1995 C   0  0  0  0  0  0  0  0  0  0  0  0
  153.2767  138.9285  157.0084 O   0  0  0  0  0  0  0  0  0  0  0  0
  151.5904  140.2961  156.2902 N   0  0  0  0  0  0  0  0  0  0  0  0
  151.5208  141.3111  157.2864 C   0  0  0  0  0  0  0  0  0  0  0  0
  152.2183  141.0657  158.4856 C   0  0  0  0  0  0  0  0  0  0  0  0
  152.2134  142.0084  159.5313 C   0  0  0  0  0  0  0  0  0  0  0  0
  151.5064  143.2286  159.4042 C   0  0  0  0  0  0  0  0  0  0  0  0
  151.4766  144.2881  160.5222 C   0  0  0  0  0  0  0  0  0  0  0  0
  150.0156  144.5658  160.9331 C   0  0  0  0  0  0  0  0  0  0  0  0
  152.1067  145.6334  160.0963 C   0  0  0  0  0  0  0  0  0  0  0  0
  152.2604  143.7713  161.7465 C   0  0  0  0  0  0  0  0  0  0  0  0
  150.8075  143.4685  158.1985 C   0  0  0  0  0  0  0  0  0  0  0  0
  150.8107  142.5276  157.1514 C   0  0  0  0  0  0  0  0  0  0  0  0
  149.7502  138.7430  154.4348 C   0  0  0  0  0  0  0  0  0  0  0  0
  150.0195  139.9187  154.1805 O   0  0  0  0  0  0  0  0  0  0  0  0
  146.3176  138.6012  153.8353 H   0  0  0  0  0  0  0  0  0  0  0  0
  147.4852  139.5226  152.8910 H   0  0  0  0  0  0  0  0  0  0  0  0
  147.1758  139.9483  154.5790 H   0  0  0  0  0  0  0  0  0  0  0  0
  147.1736  136.5178  154.5004 H   0  0  0  0  0  0  0  0  0  0  0  0
  149.1776  134.3991  156.3338 H   0  0  0  0  0  0  0  0  0  0  0  0
  150.1360  134.2559  153.5066 H   0  0  0  0  0  0  0  0  0  0  0  0
  150.5549  133.1575  154.8308 H   0  0  0  0  0  0  0  0  0  0  0  0
  148.8907  132.4140  152.7401 H   0  0  0  0  0  0  0  0  0  0  0  0
  149.2969  130.9259  154.2537 H   0  0  0  0  0  0  0  0  0  0  0  0
  147.3855  134.2534  153.0688 H   0  0  0  0  0  0  0  0  0  0  0  0
  145.8701  132.2887  152.9092 H   0  0  0  0  0  0  0  0  0  0  0  0
  146.0996  131.9499  154.6116 H   0  0  0  0  0  0  0  0  0  0  0  0
  144.3009  133.0962  154.5887 H   0  0  0  0  0  0  0  0  0  0  0  0
  152.8665  137.5115  154.9917 H   0  0  0  0  0  0  0  0  0  0  0  0
  152.4346  138.8971  154.0713 H   0  0  0  0  0  0  0  0  0  0  0  0
  150.9239  140.3969  155.5385 H   0  0  0  0  0  0  0  0  0  0  0  0
  152.7674  140.1438  158.6109 H   0  0  0  0  0  0  0  0  0  0  0  0
  152.7664  141.7648  160.4248 H   0  0  0  0  0  0  0  0  0  0  0  0
  149.9603  145.3286  161.7104 H   0  0  0  0  0  0  0  0  0  0  0  0
  149.5223  143.6760  161.3248 H   0  0  0  0  0  0  0  0  0  0  0  0
  149.4283  144.9197  160.0850 H   0  0  0  0  0  0  0  0  0  0  0  0
  151.5800  146.0761  159.2500 H   0  0  0  0  0  0  0  0  0  0  0  0
  153.1560  145.5186  159.8212 H   0  0  0  0  0  0  0  0  0  0  0  0
  152.0693  146.3604  160.9084 H   0  0  0  0  0  0  0  0  0  0  0  0
  152.2765  144.5108  162.5480 H   0  0  0  0  0  0  0  0  0  0  0  0
  153.2958  143.5486  161.4862 H   0  0  0  0  0  0  0  0  0  0  0  0
  151.8239  142.8627  162.1611 H   0  0  0  0  0  0  0  0  0  0  0  0
  150.2561  144.3866  158.0621 H   0  0  0  0  0  0  0  0  0  0  0  0
  150.2573  142.7759  156.2611 H   0  0  0  0  0  0  0  0  0  0  0  0
  1  2  1  0  0  0  0
  1 32  1  0  0  0  0
  1 33  1  0  0  0  0
  1 34  1  0  0  0  0
  2 30  1  0  0  0  0
  2  3  2  0  0  0  0
  3  4  1  0  0  0  0
  3 35  1  0  0  0  0
  4  5  1  0  0  0  0
  4 13  1  0  0  0  0
  5 12  1  0  0  0  0
  5  6  1  0  0  0  0
  5 36  1  0  0  0  0
  6  7  1  0  0  0  0
  6 37  1  0  0  0  0
  6 38  1  0  0  0  0
  7  8  1  0  0  0  0
  7  9  1  0  0  0  0
  7 39  1  0  0  0  0
  8 40  1  0  0  0  0
  9 10  1  0  0  0  0
  9 12  1  0  0  0  0
  9 41  1  0  0  0  0
 10 11  1  0  0  0  0
 10 42  1  0  0  0  0
 10 43  1  0  0  0  0
 11 44  1  0  0  0  0
 13 14  2  0  0  0  0
 13 15  1  0  0  0  0
 15 16  1  0  0  0  0
 15 30  1  0  0  0  0
 16 17  1  0  0  0  0
 16 45  1  0  0  0  0
 16 46  1  0  0  0  0
 17 18  2  0  0  0  0
 17 19  1  0  0  0  0
 19 20  1  0  0  0  0
 19 47  1  0  0  0  0
 20 29  1  0  0  0  0
 20 21  2  0  0  0  0
 21 22  1  0  0  0  0
 21 48  1  0  0  0  0
 22 23  2  0  0  0  0
 22 49  1  0  0  0  0
 23 24  1  0  0  0  0
 23 28  1  0  0  0  0
 24 25  1  0  0  0  0
 24 26  1  0  0  0  0
 24 27  1  0  0  0  0
 25 50  1  0  0  0  0
 25 51  1  0  0  0  0
 25 52  1  0  0  0  0
 26 53  1  0  0  0  0
 26 54  1  0  0  0  0
 26 55  1  0  0  0  0
 27 56  1  0  0  0  0
 27 57  1  0  0  0  0
 27 58  1  0  0  0  0
 28 29  2  0  0  0  0
 28 59  1  0  0  0  0
 29 60  1  0  0  0  0
 30 31  2  0  0  0  0
M  END
> <s_m_source_file>
AV-unprocessed.smi

> <i_m_source_file_index>
284

> <i_lp_mmshare_version>
43012

> <i_f3d_flags>
0

> <s_epik_input>
W09IXVtDSDJdW0NAQEhdKE8xKVtDQEhdKFtPSF0pW0NIMl1bQ0BIXTFuKFtjSF1jMltDSDNdKWMoPU8pbihjMj1PKVtDSDJdQyg9TylbTkhdYzNbY0hdW2NIXWMoQyhbQ0gzXSkoW0NIM10pW0NIM10pW2NIXVtjSF0z

> <s_epik_cmdline>
J2VwaWtfcHl0aG9uJywgJy1waCcsICc3LjAnLCAnLXRuJywgJzgnLCAnLW1hJywgJzIwMCcsICctbWV0YWxfYmluZGluZycsICctaW1hZScsICc8aW5maWxlLm1hZT4nLCAnLW9tYWUnLCAnPG91dGZpbGUubWFlPic=

> <r_lp_tautomer_probability>
1

> <r_epik_Ionization_Penalty>
4.92358e-06

> <r_epik_Ionization_Penalty_Charging>
1.29777e-07

> <r_epik_Ionization_Penalty_Neutral>
4.79381e-06

> <r_epik_State_Penalty>
-0

> <r_epik_Charging_Adjusted_Penalty>
1.29777e-07

> <i_epik_Tot_Q>
0

> <i_epik_Tot_abs_Q>
0

> <r_epik_Metal_State_Penalty>
-0

> <b_epik_Metal_Only>
0

> <s_epik_Chemistry_Notes>
This compound contains an acetal/aminal-like group ( X-CH(R)-Y where X, Y are N, S, or O) that may be acid/base labile, releasing an aldehyde.

> <s_lp_Force_Field>
OPLS_2005

> <r_lp_Energy>
42.5826

> <b_lp_Chiralities_Consistent>
1

> <s_lp_Variant>
AV-unprocessed.smi:284-1

> <Gold.Version>
5.8.1

> <Gold.Id.Protein>
6NUR|6NUR_protein|mol2

> <Gold.PLP.Fitness>
60.6343

> <Gold.PLP.PLP>
-49.4048

> <Gold.PLP.part.hbond>
-4.0000

> <Gold.PLP.part.metal>
0.0000

> <Gold.PLP.part.buried>
-2.5059

> <Gold.PLP.part.nonpolar>
-44.5332

> <Gold.PLP.part.repulsive>
1.1742

> <Gold.PLP.ligand.clash>
0.0000

> <Gold.PLP.ligand.torsion>
0.2837

> <Gold.PLP.Chemscore.Hbond>
3.8775

> <Gold.PLP.Chemscore.CHOScore>
0.0000

> <Gold.PLP.Chemscore.Metal>
0.0000

> <Gold.Chemscore.Hbonds>
donor molecule, donor type, donor heavy atom, donor atom, acceptor molecule, acceptor atom, score
      L1  H    11    44       P1 10957  0.80
      P1  H  7989  7998       L1    31  1.00
      P1  H  7997  8009       L1    18  0.90
      P1  H 10752 10764       L1    14  1.00

> <Gold.PLP.Chemscore.Internal.Correction>
0.1644

> <Gold.Rescore>
     Score         DG    S(hbond)    S(metal)    S(lipo)     H(rot)  DE(clash)    DE(int)     intcor
     18.15     -24.17       3.44        0.00     133.30       3.27       0.72       5.30       ----

> <Gold.Chemscore.Fitness>
18.1526

> <Gold.Chemscore.DG>
-24.1718

> <Gold.Chemscore.ZeroCoef>
-5.4800

> <Gold.Chemscore.Hbond>
3.4360

> <Gold.Chemscore.Metal>
0.0000

> <Gold.Chemscore.Lipo>
133.2967

> <Gold.Chemscore.Internal_Hbond>
0.0000

> <Gold.Chemscore.DEClash>
0.7220

> <Gold.Chemscore.DEInternal>
5.2972

> <Gold.Chemscore.Rot>
3.2735

> <Gold.Chemscore.Internal.Correction>
   9.000000E+99

> <Gold.Chemscore.Hbonds>
donor molecule, donor type, donor heavy atom, donor atom, acceptor molecule, acceptor atom, score
      L1  H    11    44       P1 10957  0.78
      P1  H  7989  7998       L1    31  0.92
      P1  H  7997  8009       L1    18  0.18
      P1  H 10752 10764       L1    14  1.00

> <Gold.Chemscore.Hbond.Weighted>
-11.4762

> <Gold.Chemscore.Metal.Weighted>
-0.0000

> <Gold.Chemscore.Lipo.Weighted>
-15.5957

> <Gold.Chemscore.Internal_Hbond.Weighted>
0.0000

> <Gold.Chemscore.DEClash.Weighted>
0.7220

> <Gold.Chemscore.DEInternal.Weighted>
5.2972

> <Gold.Chemscore.Rot.Weighted>
8.3801

> <Gold.Chemscore.Internal.Correction.Weighted>
   9.000000E+99

> <Gold.Protein.RotatedTorsions>
[ 6907 6896 6895 6894 ] final  -26.42 input  -60.11 | X-H torsion
[ 7974 7965 7964 7962 ] final   85.85 input  175.53 | X-H torsion
[ 8008 7997 7996 7995 ] final -175.89 input   59.86 | X-H torsion
[ 10167 10162 10161 10158 ] final   68.01 input  -65.29 | X-H torsion
[ 10718 10713 10712 10709 ] final   93.00 input   66.30 | X-H torsion
[ 10763 10752 10751 10750 ] final  -42.98 input  -60.55 | X-H torsion
[ 11005 11000 10999 10996 ] final  -95.55 input  -57.11 | X-H torsion

> <Gold.Protein.ActiveResidues>
 VAL166  LYS551  ARG553  GLY616  TRP617  ASP618  TYR619  PRO620  LYS621  CYS622 
 ASP623  PHE694  ASN695  SER759  ASP760  ASP761  ALA762  ILE779  LEU786  VAL792 
 PHE793  MET794  SER795  GLU796  ALA797  LYS798  CYS799  TRP800  GLU811  SER814 

> <Gold.Protein.RotatedAtoms>
  151.1613  135.0274  159.8710 H   0  0  0  0  0  0  0  0  0  0  0  0  # atno 6907 bound_to 6896
  152.5451  134.1276  159.8435 H   0  0  0  0  0  0  0  0  0  0  0  0  # atno 6908 bound_to 6896
  151.1372  133.4950  159.2630 H   0  0  0  0  0  0  0  0  0  0  0  0  # atno 6909 bound_to 6896
  145.5800  139.2324  143.2358 H   0  0  0  0  0  0  0  0  0  0  0  0  # atno 7974 bound_to 7965
  155.9881  140.1195  157.0664 H   0  0  0  0  0  0  0  0  0  0  0  0  # atno 8008 bound_to 7997
  154.4203  140.1131  156.5596 H   0  0  0  0  0  0  0  0  0  0  0  0  # atno 8009 bound_to 7997
  155.6380  140.3473  155.4707 H   0  0  0  0  0  0  0  0  0  0  0  0  # atno 8010 bound_to 7997
  140.0833  144.5052  150.7147 H   0  0  0  0  0  0  0  0  0  0  0  0  # atno 10167 bound_to 10162
  157.6956  131.0463  150.3967 H   0  0  0  0  0  0  0  0  0  0  0  0  # atno 10718 bound_to 10713
  153.9880  135.6709  153.4753 H   0  0  0  0  0  0  0  0  0  0  0  0  # atno 10763 bound_to 10752
  153.0718  135.4970  154.8317 H   0  0  0  0  0  0  0  0  0  0  0  0  # atno 10764 bound_to 10752
  154.7126  135.3100  154.9136 H   0  0  0  0  0  0  0  0  0  0  0  0  # atno 10765 bound_to 10752
  141.1438  133.8034  157.0451 H   0  0  0  0  0  0  0  0  0  0  0  0  # atno 11005 bound_to 11000
  146.1723  140.6627  142.9227 LP  0  0  0  0  0  0  0  0  0  0  0  0  # atno 17320 bound_to 7965
  144.7398  140.4911  143.6877 LP  0  0  0  0  0  0  0  0  0  0  0  0  # atno 17321 bound_to 7965
  140.7066  143.2473  151.4706 LP  0  0  0  0  0  0  0  0  0  0  0  0  # atno 17342 bound_to 10162
  139.5767  144.1803  152.1912 LP  0  0  0  0  0  0  0  0  0  0  0  0  # atno 17343 bound_to 10162
  156.4365  130.3983  149.6725 LP  0  0  0  0  0  0  0  0  0  0  0  0  # atno 17370 bound_to 10713
  156.3924  130.7634  151.2636 LP  0  0  0  0  0  0  0  0  0  0  0  0  # atno 17371 bound_to 10713
  140.0668  134.9724  157.1399 LP  0  0  0  0  0  0  0  0  0  0  0  0  # atno 17394 bound_to 11000
  140.3768  134.2330  155.7173 LP  0  0  0  0  0  0  0  0  0  0  0  0  # atno 17395 bound_to 11000

$$$$
