AV-unprocessed.smi:1601|AV-procd|sdf|6436|dock1
  -GOLD-   22720 7 83D 1   1.00000     0.00000
 Structure written by MMmdl.
 42 43  0  0  0  0  0  0  0  0  2 V2000
  147.3484  139.2053  153.5709 C   0  0  0  0  0  0  0  0  0  0  0  0
  147.4861  138.0476  154.5918 C   0  0  1  0  0  0  0  0  0  0  0  0
  146.2881  137.0696  154.4566 C   0  0  0  0  0  0  0  0  0  0  0  0
  146.2218  136.4494  153.1388 N   0  0  0  0  0  0  0  0  0  0  0  0
  145.6729  135.2520  152.8851 C   0  0  0  0  0  0  0  0  0  0  0  0
  145.1387  134.5622  153.7545 O   0  0  0  0  0  0  0  0  0  0  0  0
  145.7496  134.7690  151.4280 C   0  0  2  0  0  0  0  0  0  0  0  0
  145.2007  135.7978  150.4213 C   0  0  0  0  0  0  0  0  0  0  0  0
  145.0748  133.4847  151.2879 N   0  0  0  0  0  0  0  0  0  0  0  0
  145.6261  132.2317  151.1009 C   0  0  0  0  0  0  0  0  0  0  0  0
  144.5958  131.3407  151.0099 C   0  0  0  0  0  0  0  0  0  0  0  0
  143.4353  132.1512  151.1503 C   0  0  0  0  0  0  0  0  0  0  0  0
  143.7244  133.4323  151.3116 N   0  0  0  0  0  0  0  0  0  0  0  0
  148.8081  137.3469  154.4587 N   0  3  0  0  0  0  0  0  0  0  0  0
  149.9808  138.2602  154.5691 C   0  0  0  0  0  0  0  0  0  0  0  0
  151.3079  137.4997  154.4105 C   0  0  0  0  0  0  0  0  0  0  0  0
  151.3879  136.4701  155.3825 O   0  0  0  0  0  0  0  0  0  0  0  0
  150.3511  135.5186  155.2062 C   0  0  0  0  0  0  0  0  0  0  0  0
  148.9830  136.1969  155.3911 C   0  0  0  0  0  0  0  0  0  0  0  0
  146.3669  139.6774  153.6090 H   0  0  0  0  0  0  0  0  0  0  0  0
  147.4994  138.8523  152.5504 H   0  0  0  0  0  0  0  0  0  0  0  0
  148.0557  140.0114  153.7598 H   0  0  0  0  0  0  0  0  0  0  0  0
  147.4453  138.4813  155.5924 H   0  0  0  0  0  0  0  0  0  0  0  0
  146.3515  136.2998  155.2281 H   0  0  0  0  0  0  0  0  0  0  0  0
  145.3365  137.5835  154.5855 H   0  0  0  0  0  0  0  0  0  0  0  0
  146.6410  136.9521  152.3693 H   0  0  0  0  0  0  0  0  0  0  0  0
  146.8069  134.6236  151.1971 H   0  0  0  0  0  0  0  0  0  0  0  0
  145.7242  136.7508  150.5048 H   0  0  0  0  0  0  0  0  0  0  0  0
  144.1373  135.9875  150.5727 H   0  0  0  0  0  0  0  0  0  0  0  0
  145.3299  135.4447  149.3977 H   0  0  0  0  0  0  0  0  0  0  0  0
  146.6945  132.0811  151.0481 H   0  0  0  0  0  0  0  0  0  0  0  0
  144.6609  130.2727  150.8643 H   0  0  0  0  0  0  0  0  0  0  0  0
  142.3983  131.8491  151.1369 H   0  0  0  0  0  0  0  0  0  0  0  0
  149.9571  139.0271  153.7973 H   0  0  0  0  0  0  0  0  0  0  0  0
  149.9569  138.7696  155.5337 H   0  0  0  0  0  0  0  0  0  0  0  0
  151.4023  137.0821  153.4065 H   0  0  0  0  0  0  0  0  0  0  0  0
  152.1481  138.1798  154.5504 H   0  0  0  0  0  0  0  0  0  0  0  0
  150.4271  135.0546  154.2216 H   0  0  0  0  0  0  0  0  0  0  0  0
  150.4762  134.7230  155.9410 H   0  0  0  0  0  0  0  0  0  0  0  0
  148.8720  136.5402  156.4209 H   0  0  0  0  0  0  0  0  0  0  0  0
  148.2280  135.4324  155.2188 H   0  0  0  0  0  0  0  0  0  0  0  0
  148.8338  136.9609  153.5255 H   0  0  0  0  0  0  0  0  0  0  0  0
  1  2  1  0  0  0  0
  1 20  1  0  0  0  0
  1 21  1  0  0  0  0
  1 22  1  0  0  0  0
  2  3  1  0  0  0  0
  2 14  1  0  0  0  0
  2 23  1  0  0  0  0
  3  4  1  0  0  0  0
  3 24  1  0  0  0  0
  3 25  1  0  0  0  0
  4  5  1  0  0  0  0
  4 26  1  0  0  0  0
  5  6  2  0  0  0  0
  5  7  1  0  0  0  0
  7  8  1  0  0  0  0
  7  9  1  0  0  0  0
  7 27  1  0  0  0  0
  8 28  1  0  0  0  0
  8 29  1  0  0  0  0
  8 30  1  0  0  0  0
  9 13  1  0  0  0  0
  9 10  1  0  0  0  0
 10 11  2  0  0  0  0
 10 31  1  0  0  0  0
 11 12  1  0  0  0  0
 11 32  1  0  0  0  0
 12 13  2  0  0  0  0
 12 33  1  0  0  0  0
 14 19  1  0  0  0  0
 14 15  1  0  0  0  0
 14 42  1  0  0  0  0
 15 16  1  0  0  0  0
 15 34  1  0  0  0  0
 15 35  1  0  0  0  0
 16 17  1  0  0  0  0
 16 36  1  0  0  0  0
 16 37  1  0  0  0  0
 17 18  1  0  0  0  0
 18 19  1  0  0  0  0
 18 38  1  0  0  0  0
 18 39  1  0  0  0  0
 19 40  1  0  0  0  0
 19 41  1  0  0  0  0
M  CHG  1  14   1
M  END
> <s_m_source_file>
AV-unprocessed.smi

> <i_m_source_file_index>
1601

> <i_lp_mmshare_version>
43012

> <i_f3d_flags>
0

> <s_epik_input>
W0NIMl0xW0NIMl1PW0NIMl1bQ0gyXU4xW0NASF0oW0NIM10pW0NIMl1bTkhdQyg9TylbQ0BIXShbQ0gzXSluMltjSF1bY0hdW2NIXW4y

> <s_epik_cmdline>
J2VwaWtfcHl0aG9uJywgJy1waCcsICc3LjAnLCAnLXRuJywgJzgnLCAnLW1hJywgJzIwMCcsICctbWV0YWxfYmluZGluZycsICctaW1hZScsICc8aW5maWxlLm1hZT4nLCAnLW9tYWUnLCAnPG91dGZpbGUubWFlPic=

> <r_lp_tautomer_probability>
1

> <r_epik_Ionization_Penalty>
0.732551

> <r_epik_Ionization_Penalty_Charging>
0.732531

> <r_epik_Ionization_Penalty_Neutral>
2.04647e-05

> <r_epik_State_Penalty>
0.757939

> <r_epik_Charging_Adjusted_Penalty>
1.49047

> <i_epik_Tot_Q>
1

> <i_epik_Tot_abs_Q>
1

> <r_epik_Metal_State_Penalty>
0.757952

> <b_epik_Metal_Only>
0

> <s_lp_Force_Field>
OPLS_2005

> <r_lp_Energy>
25.0975

> <b_lp_Chiralities_Consistent>
1

> <s_lp_Variant>
AV-unprocessed.smi:1601-6

> <Gold.Version>
5.8.1

> <Gold.Id.Protein>
6NUR|6NUR_protein|mol2

> <Gold.PLP.Fitness>
42.7404

> <Gold.PLP.PLP>
-28.5798

> <Gold.PLP.part.hbond>
-3.0000

> <Gold.PLP.part.metal>
0.0000

> <Gold.PLP.part.buried>
-2.5445

> <Gold.PLP.part.nonpolar>
-24.7506

> <Gold.PLP.part.repulsive>
0.3681

> <Gold.PLP.ligand.clash>
0.0000

> <Gold.PLP.ligand.torsion>
0.4656

> <Gold.PLP.Chemscore.Hbond>
3.0390

> <Gold.PLP.Chemscore.CHOScore>
1.9360

> <Gold.PLP.Chemscore.Metal>
0.0000

> <Gold.Chemscore.Hbonds>
donor molecule, donor type, donor heavy atom, donor atom, acceptor molecule, acceptor atom, score
      L1  H    14    42       P1  7948  2.00
      P1  H 10752 10765       L1    17  1.00
      L1  C    10    31       P1 10747  0.57
      L1  C    12    33       P1 10952  0.43

> <Gold.PLP.Chemscore.Internal.Correction>
0.1668

> <Gold.Rescore>
     Score         DG    S(hbond)    S(metal)    S(lipo)     H(rot)  DE(clash)    DE(int)     intcor
     12.92     -14.30       1.45        0.00      74.70       1.86       0.62       0.75       ----

> <Gold.Chemscore.Fitness>
12.9213

> <Gold.Chemscore.DG>
-14.2993

> <Gold.Chemscore.ZeroCoef>
-5.4800

> <Gold.Chemscore.Hbond>
1.4519

> <Gold.Chemscore.Metal>
0.0000

> <Gold.Chemscore.Lipo>
74.6962

> <Gold.Chemscore.Internal_Hbond>
0.0000

> <Gold.Chemscore.DEClash>
0.6232

> <Gold.Chemscore.DEInternal>
0.7548

> <Gold.Chemscore.Rot>
1.8631

> <Gold.Chemscore.Internal.Correction>
   9.000000E+99

> <Gold.Chemscore.Hbonds>
donor molecule, donor type, donor heavy atom, donor atom, acceptor molecule, acceptor atom, score
      L1  H     4    26       P1  7948  0.01
      L1  H    14    42       P1  7948  1.00
      P1  H 10752 10765       L1    17  0.11

> <Gold.Chemscore.Hbond.Weighted>
-4.8495

> <Gold.Chemscore.Metal.Weighted>
-0.0000

> <Gold.Chemscore.Lipo.Weighted>
-8.7395

> <Gold.Chemscore.Internal_Hbond.Weighted>
0.0000

> <Gold.Chemscore.DEClash.Weighted>
0.6232

> <Gold.Chemscore.DEInternal.Weighted>
0.7548

> <Gold.Chemscore.Rot.Weighted>
4.7697

> <Gold.Chemscore.Internal.Correction.Weighted>
   9.000000E+99

> <Gold.Protein.RotatedTorsions>
[ 6907 6896 6895 6894 ] final -167.26 input  -60.11 | X-H torsion
[ 7974 7965 7964 7962 ] final  106.37 input  175.53 | X-H torsion
[ 8008 7997 7996 7995 ] final  105.19 input   59.86 | X-H torsion
[ 10167 10162 10161 10158 ] final  -15.82 input  -65.29 | X-H torsion
[ 10718 10713 10712 10709 ] final   50.54 input   66.30 | X-H torsion
[ 10763 10752 10751 10750 ] final -168.79 input  -60.55 | X-H torsion
[ 11005 11000 10999 10996 ] final   25.47 input  -57.11 | X-H torsion

> <Gold.Protein.ActiveResidues>
 VAL166  LYS551  ARG553  GLY616  TRP617  ASP618  TYR619  PRO620  LYS621  CYS622 
 ASP623  PHE694  ASN695  SER759  ASP760  ASP761  ALA762  ILE779  LEU786  VAL792 
 PHE793  MET794  SER795  GLU796  ALA797  LYS798  CYS799  TRP800  GLU811  SER814 

> <Gold.Protein.RotatedAtoms>
  151.4567  133.3603  159.2802 H   0  0  0  0  0  0  0  0  0  0  0  0  # atno 6907 bound_to 6896
  150.9053  134.8469  159.7399 H   0  0  0  0  0  0  0  0  0  0  0  0  # atno 6908 bound_to 6896
  152.4902  134.4492  159.9621 H   0  0  0  0  0  0  0  0  0  0  0  0  # atno 6909 bound_to 6896
  145.3075  139.2550  143.3781 H   0  0  0  0  0  0  0  0  0  0  0  0  # atno 7974 bound_to 7965
  156.1638  140.3135  155.8853 H   0  0  0  0  0  0  0  0  0  0  0  0  # atno 8008 bound_to 7997
  155.3728  140.0483  157.3062 H   0  0  0  0  0  0  0  0  0  0  0  0  # atno 8009 bound_to 7997
  154.5172  140.2185  155.9054 H   0  0  0  0  0  0  0  0  0  0  0  0  # atno 8010 bound_to 7997
  140.7224  143.5179  150.9670 H   0  0  0  0  0  0  0  0  0  0  0  0  # atno 10167 bound_to 10162
  157.4894  130.8366  149.8185 H   0  0  0  0  0  0  0  0  0  0  0  0  # atno 10718 bound_to 10713
  154.6592  135.2922  154.9889 H   0  0  0  0  0  0  0  0  0  0  0  0  # atno 10763 bound_to 10752
  154.0954  135.6584  153.4863 H   0  0  0  0  0  0  0  0  0  0  0  0  # atno 10764 bound_to 10752
  153.0420  135.5230  154.7535 H   0  0  0  0  0  0  0  0  0  0  0  0  # atno 10765 bound_to 10752
  140.3475  134.2265  155.7683 H   0  0  0  0  0  0  0  0  0  0  0  0  # atno 11005 bound_to 11000
  146.3130  140.3603  142.8664 LP  0  0  0  0  0  0  0  0  0  0  0  0  # atno 17320 bound_to 7965
  144.9043  140.7680  143.5847 LP  0  0  0  0  0  0  0  0  0  0  0  0  # atno 17321 bound_to 7965
  139.8895  143.6971  152.3147 LP  0  0  0  0  0  0  0  0  0  0  0  0  # atno 17342 bound_to 10162
  139.7282  144.7588  151.0845 LP  0  0  0  0  0  0  0  0  0  0  0  0  # atno 17343 bound_to 10162
  156.0165  130.3812  150.2095 LP  0  0  0  0  0  0  0  0  0  0  0  0  # atno 17370 bound_to 10713
  157.0283  131.0000  151.3319 LP  0  0  0  0  0  0  0  0  0  0  0  0  # atno 17371 bound_to 10713
  141.2021  133.7945  157.0405 LP  0  0  0  0  0  0  0  0  0  0  0  0  # atno 17394 bound_to 11000
  140.0730  134.9691  157.1499 LP  0  0  0  0  0  0  0  0  0  0  0  0  # atno 17395 bound_to 11000

$$$$
