AV-unprocessed.smi:889|AV-procd|sdf|4056|dock1
  -GOLD-   22720 1543D 1   1.00000     0.00000
 Structure written by MMmdl.
 43 44  0  0  0  0  0  0  0  0  1 V2000
  152.8414  142.9937  162.5975 C   0  0  0  0  0  0  0  0  0  0  0  0
  152.3867  143.3323  161.2188 C   0  0  0  0  0  0  0  0  0  0  0  0
  152.4229  142.6515  160.0355 C   0  0  0  0  0  0  0  0  0  0  0  0
  151.8202  143.5494  159.1111 C   0  0  0  0  0  0  0  0  0  0  0  0
  151.5724  143.3496  157.6399 C   0  0  0  0  0  0  0  0  0  0  0  0
  150.7493  142.0825  157.4050 C   0  0  0  0  0  0  0  0  0  0  0  0
  151.1345  141.0038  157.8558 O   0  0  0  0  0  0  0  0  0  0  0  0
  149.6134  142.2285  156.7077 N   0  0  0  0  0  0  0  0  0  0  0  0
  148.6764  141.1533  156.4039 C   0  0  0  0  0  0  0  0  0  0  0  0
  148.5933  140.8722  154.8892 C   0  0  0  0  0  0  0  0  0  0  0  0
  149.8986  140.2011  154.3990 C   0  0  0  0  0  0  0  0  0  0  0  0
  150.3474  138.9012  155.1133 C   0  0  0  0  0  0  0  0  0  0  0  0
  151.6960  138.3583  154.6128 C   0  0  0  0  0  0  0  0  0  0  0  0
  149.2596  137.8233  154.9894 C   0  0  0  0  0  0  0  0  0  0  0  0
  147.3037  140.1414  154.4474 C   0  0  0  0  0  0  0  0  0  0  0  0
  146.6530  141.4887  154.1476 C   0  0  0  0  0  0  0  0  0  0  0  0
  148.0680  142.0496  154.0345 C   0  0  0  0  0  0  0  0  0  0  0  0
  151.4513  144.6788  159.6955 N   0  0  0  0  0  0  0  0  0  0  0  0
  151.8119  144.5502  161.0413 O   0  0  0  0  0  0  0  0  0  0  0  0
  152.4861  142.0052  162.8888 H   0  0  0  0  0  0  0  0  0  0  0  0
  152.4649  143.7139  163.3245 H   0  0  0  0  0  0  0  0  0  0  0  0
  153.9299  142.9926  162.6553 H   0  0  0  0  0  0  0  0  0  0  0  0
  152.8189  141.6629  159.8572 H   0  0  0  0  0  0  0  0  0  0  0  0
  151.0406  144.2077  157.2273 H   0  0  0  0  0  0  0  0  0  0  0  0
  152.5119  143.2759  157.0897 H   0  0  0  0  0  0  0  0  0  0  0  0
  149.3771  143.1502  156.3690 H   0  0  0  0  0  0  0  0  0  0  0  0
  149.0059  140.2647  156.9440 H   0  0  0  0  0  0  0  0  0  0  0  0
  147.6907  141.3888  156.8069 H   0  0  0  0  0  0  0  0  0  0  0  0
  149.8177  139.9967  153.3306 H   0  0  0  0  0  0  0  0  0  0  0  0
  150.7152  140.9207  154.4732 H   0  0  0  0  0  0  0  0  0  0  0  0
  150.4508  139.1070  156.1788 H   0  0  0  0  0  0  0  0  0  0  0  0
  151.6857  138.2024  153.5337 H   0  0  0  0  0  0  0  0  0  0  0  0
  151.9331  137.4039  155.0837 H   0  0  0  0  0  0  0  0  0  0  0  0
  152.5141  139.0371  154.8488 H   0  0  0  0  0  0  0  0  0  0  0  0
  149.0934  137.5443  153.9486 H   0  0  0  0  0  0  0  0  0  0  0  0
  148.3104  138.1735  155.3964 H   0  0  0  0  0  0  0  0  0  0  0  0
  149.5350  136.9208  155.5358 H   0  0  0  0  0  0  0  0  0  0  0  0
  147.4392  139.5395  153.5471 H   0  0  0  0  0  0  0  0  0  0  0  0
  146.8077  139.5664  155.2303 H   0  0  0  0  0  0  0  0  0  0  0  0
  146.0725  141.5215  153.2252 H   0  0  0  0  0  0  0  0  0  0  0  0
  146.0980  141.8946  154.9944 H   0  0  0  0  0  0  0  0  0  0  0  0
  148.1920  143.0359  154.4824 H   0  0  0  0  0  0  0  0  0  0  0  0
  148.4383  142.0343  153.0079 H   0  0  0  0  0  0  0  0  0  0  0  0
  1  2  1  0  0  0  0
  1 20  1  0  0  0  0
  1 21  1  0  0  0  0
  1 22  1  0  0  0  0
  2 19  1  0  0  0  0
  2  3  2  0  0  0  0
  3  4  1  0  0  0  0
  3 23  1  0  0  0  0
  4  5  1  0  0  0  0
  4 18  2  0  0  0  0
  5  6  1  0  0  0  0
  5 24  1  0  0  0  0
  5 25  1  0  0  0  0
  6  7  2  0  0  0  0
  6  8  1  0  0  0  0
  8  9  1  0  0  0  0
  8 26  1  0  0  0  0
  9 10  1  0  0  0  0
  9 27  1  0  0  0  0
  9 28  1  0  0  0  0
 10 17  1  0  0  0  0
 10 11  1  0  0  0  0
 10 15  1  0  0  0  0
 11 12  1  0  0  0  0
 11 29  1  0  0  0  0
 11 30  1  0  0  0  0
 12 13  1  0  0  0  0
 12 14  1  0  0  0  0
 12 31  1  0  0  0  0
 13 32  1  0  0  0  0
 13 33  1  0  0  0  0
 13 34  1  0  0  0  0
 14 35  1  0  0  0  0
 14 36  1  0  0  0  0
 14 37  1  0  0  0  0
 15 16  1  0  0  0  0
 15 38  1  0  0  0  0
 15 39  1  0  0  0  0
 16 17  1  0  0  0  0
 16 40  1  0  0  0  0
 16 41  1  0  0  0  0
 17 42  1  0  0  0  0
 17 43  1  0  0  0  0
 18 19  1  0  0  0  0
M  END
> <s_m_source_file>
AV-unprocessed.smi

> <i_m_source_file_index>
889

> <i_lp_mmshare_version>
43012

> <i_f3d_flags>
0

> <s_epik_input>
W0NIM11jMVtjSF1jKG5vMSlbQ0gyXUMoPU8pW05IXVtDSDJdQzIoW0NIMl1bQ0hdKFtDSDNdKVtDSDNdKVtDSDJdW0NIMl1bQ0gyXTI=

> <s_epik_cmdline>
J2VwaWtfcHl0aG9uJywgJy1waCcsICc3LjAnLCAnLXRuJywgJzgnLCAnLW1hJywgJzIwMCcsICctbWV0YWxfYmluZGluZycsICctaW1hZScsICc8aW5maWxlLm1hZT4nLCAnLW9tYWUnLCAnPG91dGZpbGUubWFlPic=

> <r_lp_tautomer_probability>
1

> <r_epik_Ionization_Penalty>
7.05168e-08

> <r_epik_Ionization_Penalty_Charging>
0

> <r_epik_Ionization_Penalty_Neutral>
7.05168e-08

> <r_epik_State_Penalty>
-0

> <r_epik_Charging_Adjusted_Penalty>
0

> <i_epik_Tot_Q>
0

> <i_epik_Tot_abs_Q>
0

> <r_epik_Metal_State_Penalty>
-0

> <b_epik_Metal_Only>
0

> <s_lp_Force_Field>
OPLS_2005

> <r_lp_Energy>
19.2899

> <b_lp_Chiralities_Consistent>
1

> <s_lp_Variant>
AV-unprocessed.smi:889-1

> <Gold.Version>
5.8.1

> <Gold.Id.Protein>
6NUR|6NUR_protein|mol2

> <Gold.PLP.Fitness>
43.7265

> <Gold.PLP.PLP>
-40.8198

> <Gold.PLP.part.hbond>
-1.0000

> <Gold.PLP.part.metal>
0.0000

> <Gold.PLP.part.buried>
-3.4088

> <Gold.PLP.part.nonpolar>
-34.9466

> <Gold.PLP.part.repulsive>
0.2688

> <Gold.PLP.ligand.clash>
0.0000

> <Gold.PLP.ligand.torsion>
0.2657

> <Gold.PLP.Chemscore.Hbond>
1.0000

> <Gold.PLP.Chemscore.CHOScore>
0.0000

> <Gold.PLP.Chemscore.Metal>
0.0000

> <Gold.Chemscore.Hbonds>
donor molecule, donor type, donor heavy atom, donor atom, acceptor molecule, acceptor atom, score
      L1  H     8    26       P1  8028  1.00

> <Gold.PLP.Chemscore.Internal.Correction>
0.4381

> <Gold.Rescore>
     Score         DG    S(hbond)    S(metal)    S(lipo)     H(rot)  DE(clash)    DE(int)     intcor
     16.00     -17.74       1.00        0.00     113.10       1.68       0.11       1.64       ----

> <Gold.Chemscore.Fitness>
15.9955

> <Gold.Chemscore.DG>
-17.7397

> <Gold.Chemscore.ZeroCoef>
-5.4800

> <Gold.Chemscore.Hbond>
0.9999

> <Gold.Chemscore.Metal>
0.0000

> <Gold.Chemscore.Lipo>
113.0996

> <Gold.Chemscore.Internal_Hbond>
0.0000

> <Gold.Chemscore.DEClash>
0.1065

> <Gold.Chemscore.DEInternal>
1.6377

> <Gold.Chemscore.Rot>
1.6846

> <Gold.Chemscore.Internal.Correction>
   9.000000E+99

> <Gold.Chemscore.Hbonds>
donor molecule, donor type, donor heavy atom, donor atom, acceptor molecule, acceptor atom, score
      L1  H     8    26       P1  8028  1.00

> <Gold.Chemscore.Hbond.Weighted>
-3.3398

> <Gold.Chemscore.Metal.Weighted>
-0.0000

> <Gold.Chemscore.Lipo.Weighted>
-13.2327

> <Gold.Chemscore.Internal_Hbond.Weighted>
0.0000

> <Gold.Chemscore.DEClash.Weighted>
0.1065

> <Gold.Chemscore.DEInternal.Weighted>
1.6377

> <Gold.Chemscore.Rot.Weighted>
4.3127

> <Gold.Chemscore.Internal.Correction.Weighted>
   9.000000E+99

> <Gold.Protein.RotatedTorsions>
[ 6907 6896 6895 6894 ] final   50.36 input  -60.11 | X-H torsion
[ 7974 7965 7964 7962 ] final  165.23 input  175.53 | X-H torsion
[ 8008 7997 7996 7995 ] final  -95.40 input   59.86 | X-H torsion
[ 10167 10162 10161 10158 ] final -112.03 input  -65.29 | X-H torsion
[ 10718 10713 10712 10709 ] final   48.06 input   66.30 | X-H torsion
[ 10763 10752 10751 10750 ] final -146.52 input  -60.55 | X-H torsion
[ 11005 11000 10999 10996 ] final -139.98 input  -57.11 | X-H torsion

> <Gold.Protein.ActiveResidues>
 VAL166  LYS551  ARG553  GLY616  TRP617  ASP618  TYR619  PRO620  LYS621  CYS622 
 ASP623  PHE694  ASN695  SER759  ASP760  ASP761  ALA762  ILE779  LEU786  VAL792 
 PHE793  MET794  SER795  GLU796  ALA797  LYS798  CYS799  TRP800  GLU811  SER814 

> <Gold.Protein.RotatedAtoms>
  152.3009  134.7612  160.0357 H   0  0  0  0  0  0  0  0  0  0  0  0  # atno 6907 bound_to 6896
  151.8125  133.3378  159.3568 H   0  0  0  0  0  0  0  0  0  0  0  0  # atno 6908 bound_to 6896
  150.7273  134.5580  159.5872 H   0  0  0  0  0  0  0  0  0  0  0  0  # atno 6909 bound_to 6896
  144.7511  139.8440  143.6366 H   0  0  0  0  0  0  0  0  0  0  0  0  # atno 7974 bound_to 7965
  154.7608  140.0480  157.0972 H   0  0  0  0  0  0  0  0  0  0  0  0  # atno 8008 bound_to 7997
  154.9940  140.3116  155.4875 H   0  0  0  0  0  0  0  0  0  0  0  0  # atno 8009 bound_to 7997
  156.2904  140.2213  156.5046 H   0  0  0  0  0  0  0  0  0  0  0  0  # atno 8010 bound_to 7997
  140.1271  143.4392  152.1652 H   0  0  0  0  0  0  0  0  0  0  0  0  # atno 10167 bound_to 10162
  157.4648  130.8219  149.7925 H   0  0  0  0  0  0  0  0  0  0  0  0  # atno 10718 bound_to 10713
  154.8332  135.3384  154.6674 H   0  0  0  0  0  0  0  0  0  0  0  0  # atno 10763 bound_to 10752
  153.7292  135.6953  153.4998 H   0  0  0  0  0  0  0  0  0  0  0  0  # atno 10764 bound_to 10752
  153.2325  135.4411  155.0563 H   0  0  0  0  0  0  0  0  0  0  0  0  # atno 10765 bound_to 10752
  140.8467  134.2335  157.4782 H   0  0  0  0  0  0  0  0  0  0  0  0  # atno 11005 bound_to 11000
  146.1462  139.4533  143.0077 LP  0  0  0  0  0  0  0  0  0  0  0  0  # atno 17320 bound_to 7965
  145.6940  141.0156  143.1540 LP  0  0  0  0  0  0  0  0  0  0  0  0  # atno 17321 bound_to 7965
  139.5538  144.7358  151.4354 LP  0  0  0  0  0  0  0  0  0  0  0  0  # atno 17342 bound_to 10162
  140.6838  143.8020  150.7158 LP  0  0  0  0  0  0  0  0  0  0  0  0  # atno 17343 bound_to 10162
  156.0045  130.3862  150.2481 LP  0  0  0  0  0  0  0  0  0  0  0  0  # atno 17370 bound_to 10713
  157.0660  131.0103  151.3206 LP  0  0  0  0  0  0  0  0  0  0  0  0  # atno 17371 bound_to 10713
  139.8703  134.9663  156.4557 LP  0  0  0  0  0  0  0  0  0  0  0  0  # atno 17394 bound_to 11000
  140.8835  133.7900  155.9493 LP  0  0  0  0  0  0  0  0  0  0  0  0  # atno 17395 bound_to 11000

$$$$
