AV-unprocessed.smi:290|AV-procd|sdf|2234|dock9
  -GOLD-   2262022103D 1   1.00000     0.00000
 Structure written by MMmdl.
 59 62  0  0  0  0  0  0  0  0  2 V2000
  152.2328  141.0265  158.7765 C   0  0  0  0  0  0  0  0  0  0  0  0
  151.5989  142.3942  159.0740 C   0  0  1  0  0  0  0  0  0  0  0  0
  152.5255  143.1477  159.8510 O   0  0  0  0  0  0  0  0  0  0  0  0
  152.3079  144.5246  159.6022 C   0  0  0  0  0  0  0  0  0  0  0  0
  152.0812  144.5487  158.0985 C   0  0  0  0  0  0  0  0  0  0  0  0
  151.2499  143.2911  157.8516 C   0  0  2  0  0  0  0  0  0  0  0  0
  149.8821  143.6484  157.9583 O   0  0  0  0  0  0  0  0  0  0  0  0
  151.4767  142.6655  156.4501 C   0  0  0  0  0  0  0  0  0  0  0  0
  150.6786  141.4715  156.2125 N   0  0  0  0  0  0  0  0  0  0  0  0
  149.3188  141.4162  156.0150 C   0  0  0  0  0  0  0  0  0  0  0  0
  148.8348  140.2200  155.8271 N   0  0  0  0  0  0  0  0  0  0  0  0
  149.9432  139.3803  155.8824 C   0  0  0  0  0  0  0  0  0  0  0  0
  150.1477  137.9714  155.7647 C   0  0  0  0  0  0  0  0  0  0  0  0
  149.1792  137.0451  155.5314 N   0  0  0  0  0  0  0  0  0  0  0  0
  147.8060  137.4696  155.3137 C   0  0  0  0  0  0  0  0  0  0  0  0
  147.2487  136.4878  154.2918 C   0  0  0  0  0  0  0  0  0  0  0  0
  148.0267  135.1873  154.5508 C   0  0  1  0  0  0  0  0  0  0  0  0
  148.0280  134.2957  153.3505 N   0  3  1  0  0  0  0  0  0  0  0  0
  149.1000  133.2706  153.3395 C   0  0  0  0  0  0  0  0  0  0  0  0
  146.6979  133.6882  153.0729 C   0  0  0  0  0  0  0  0  0  0  0  0
  146.7889  132.5722  152.0193 C   0  0  0  0  0  0  0  0  0  0  0  0
  147.0684  133.1314  150.7532 O   0  0  0  0  0  0  0  0  0  0  0  0
  149.4206  135.7119  154.9861 C   0  0  2  0  0  0  0  0  0  0  0  0
  150.1078  134.8226  156.0455 C   0  0  0  0  0  0  0  0  0  0  0  0
  151.4221  137.5179  155.8965 N   0  0  0  0  0  0  0  0  0  0  0  0
  152.4288  138.3663  156.1196 C   0  0  0  0  0  0  0  0  0  0  0  0
  152.3862  139.6923  156.2480 N   0  0  0  0  0  0  0  0  0  0  0  0
  151.1122  140.1601  156.1246 C   0  0  0  0  0  0  0  0  0  0  0  0
  147.5644  134.6627  155.3892 H   0  0  0  0  0  0  0  0  0  0  0  0
  150.0455  135.8148  154.1001 H   0  0  0  0  0  0  0  0  0  0  0  0
  151.5641  140.3975  158.1886 H   0  0  0  0  0  0  0  0  0  0  0  0
  152.4483  140.4944  159.7033 H   0  0  0  0  0  0  0  0  0  0  0  0
  153.1730  141.1286  158.2346 H   0  0  0  0  0  0  0  0  0  0  0  0
  150.7124  142.2332  159.6907 H   0  0  0  0  0  0  0  0  0  0  0  0
  151.4225  144.8649  160.1415 H   0  0  0  0  0  0  0  0  0  0  0  0
  153.1596  145.1305  159.9114 H   0  0  0  0  0  0  0  0  0  0  0  0
  151.6092  145.4684  157.7500 H   0  0  0  0  0  0  0  0  0  0  0  0
  153.0480  144.4630  157.6010 H   0  0  0  0  0  0  0  0  0  0  0  0
  149.5318  143.7613  157.0879 H   0  0  0  0  0  0  0  0  0  0  0  0
  151.2291  143.3838  155.6683 H   0  0  0  0  0  0  0  0  0  0  0  0
  152.5275  142.4079  156.3115 H   0  0  0  0  0  0  0  0  0  0  0  0
  148.6913  142.2958  156.0207 H   0  0  0  0  0  0  0  0  0  0  0  0
  147.2624  137.4000  156.2565 H   0  0  0  0  0  0  0  0  0  0  0  0
  147.7324  138.4954  154.9499 H   0  0  0  0  0  0  0  0  0  0  0  0
  146.1682  136.3810  154.3865 H   0  0  0  0  0  0  0  0  0  0  0  0
  147.4616  136.8565  153.2870 H   0  0  0  0  0  0  0  0  0  0  0  0
  149.0349  132.6288  154.2190 H   0  0  0  0  0  0  0  0  0  0  0  0
  150.0886  133.7271  153.3073 H   0  0  0  0  0  0  0  0  0  0  0  0
  149.0275  132.6334  152.4587 H   0  0  0  0  0  0  0  0  0  0  0  0
  146.2755  133.2982  154.0004 H   0  0  0  0  0  0  0  0  0  0  0  0
  145.9811  134.4286  152.7206 H   0  0  0  0  0  0  0  0  0  0  0  0
  147.5496  131.8332  152.2697 H   0  0  0  0  0  0  0  0  0  0  0  0
  145.8383  132.0420  151.9571 H   0  0  0  0  0  0  0  0  0  0  0  0
  147.6340  132.5399  150.2795 H   0  0  0  0  0  0  0  0  0  0  0  0
  150.3256  133.8231  155.6758 H   0  0  0  0  0  0  0  0  0  0  0  0
  149.4801  134.7133  156.9304 H   0  0  0  0  0  0  0  0  0  0  0  0
  151.0549  135.2475  156.3762 H   0  0  0  0  0  0  0  0  0  0  0  0
  153.4079  137.9187  156.2077 H   0  0  0  0  0  0  0  0  0  0  0  0
  148.2167  134.9065  152.5680 H   0  0  0  0  0  0  0  0  0  0  0  0
  1  2  1  0  0  0  0
  1 31  1  0  0  0  0
  1 32  1  0  0  0  0
  1 33  1  0  0  0  0
  2  6  1  0  0  0  0
  2  3  1  0  0  0  0
  2 34  1  0  0  0  0
  3  4  1  0  0  0  0
  4  5  1  0  0  0  0
  4 35  1  0  0  0  0
  4 36  1  0  0  0  0
  5  6  1  0  0  0  0
  5 37  1  0  0  0  0
  5 38  1  0  0  0  0
  6  7  1  0  0  0  0
  6  8  1  0  0  0  0
  7 39  1  0  0  0  0
  8  9  1  0  0  0  0
  8 40  1  0  0  0  0
  8 41  1  0  0  0  0
  9 28  1  0  0  0  0
  9 10  1  0  0  0  0
 10 11  2  0  0  0  0
 10 42  1  0  0  0  0
 11 12  1  0  0  0  0
 12 28  2  0  0  0  0
 12 13  1  0  0  0  0
 13 14  1  0  0  0  0
 13 25  2  0  0  0  0
 14 23  1  0  0  0  0
 14 15  1  0  0  0  0
 15 16  1  0  0  0  0
 15 43  1  0  0  0  0
 15 44  1  0  0  0  0
 16 17  1  0  0  0  0
 16 45  1  0  0  0  0
 16 46  1  0  0  0  0
 17 29  1  0  0  0  0
 17 18  1  0  0  0  0
 17 23  1  0  0  0  0
 18 19  1  0  0  0  0
 18 20  1  0  0  0  0
 18 59  1  0  0  0  0
 19 47  1  0  0  0  0
 19 48  1  0  0  0  0
 19 49  1  0  0  0  0
 20 21  1  0  0  0  0
 20 50  1  0  0  0  0
 20 51  1  0  0  0  0
 21 22  1  0  0  0  0
 21 52  1  0  0  0  0
 21 53  1  0  0  0  0
 22 54  1  0  0  0  0
 23 30  1  0  0  0  0
 23 24  1  0  0  0  0
 24 55  1  0  0  0  0
 24 56  1  0  0  0  0
 24 57  1  0  0  0  0
 25 26  1  0  0  0  0
 26 27  2  0  0  0  0
 26 58  1  0  0  0  0
 27 28  1  0  0  0  0
M  CHG  1  18   1
M  END
> <s_m_source_file>
AV-unprocessed.smi

> <i_m_source_file_index>
290

> <i_lp_mmshare_version>
43012

> <i_f3d_flags>
0

> <s_epik_input>
W0NIMl0xW0NIMl1PW0NAQEhdKFtDSDNdKVtDQEBdMShbT0hdKVtDSDJdbihbY0hdbjIpYyhjMjMpbltjSF1uYzNONFtDSDJdW0NIMl1bQ0BIXShbQ0BIXTRbQ0gzXSlOKFtDSDNdKVtDSDJdW0NIMl1bT0hd

> <s_epik_cmdline>
J2VwaWtfcHl0aG9uJywgJy1waCcsICc3LjAnLCAnLXRuJywgJzgnLCAnLW1hJywgJzIwMCcsICctbWV0YWxfYmluZGluZycsICctaW1hZScsICc8aW5maWxlLm1hZT4nLCAnLW9tYWUnLCAnPG91dGZpbGUubWFlPic=

> <r_lp_tautomer_probability>
1

> <r_epik_Ionization_Penalty>
0.0036983

> <r_epik_Ionization_Penalty_Charging>
0.0032725

> <r_epik_Ionization_Penalty_Neutral>
0.000425798

> <r_epik_State_Penalty>
-0

> <r_epik_Charging_Adjusted_Penalty>
0.0032725

> <i_epik_Tot_Q>
1

> <i_epik_Tot_abs_Q>
1

> <r_epik_Metal_State_Penalty>
-0

> <b_epik_Metal_Only>
0

> <s_lp_Force_Field>
OPLS_2005

> <r_lp_Energy>
60.3603

> <b_lp_Chiralities_Consistent>
1

> <s_lp_Variant>
AV-unprocessed.smi:290-20

> <Gold.Version>
5.8.1

> <Gold.Id.Protein>
6NUR|6NUR_protein|mol2

> <Gold.PLP.Fitness>
58.2214

> <Gold.PLP.PLP>
-41.0832

> <Gold.PLP.part.hbond>
-4.6183

> <Gold.PLP.part.metal>
0.0000

> <Gold.PLP.part.buried>
-5.2378

> <Gold.PLP.part.nonpolar>
-31.0942

> <Gold.PLP.part.repulsive>
0.0383

> <Gold.PLP.ligand.clash>
0.0000

> <Gold.PLP.ligand.torsion>
0.5784

> <Gold.PLP.Chemscore.Hbond>
5.0000

> <Gold.PLP.Chemscore.CHOScore>
1.0000

> <Gold.PLP.Chemscore.Metal>
0.0000

> <Gold.Chemscore.Hbonds>
donor molecule, donor type, donor heavy atom, donor atom, acceptor molecule, acceptor atom, score
      L1  H     7    39       P1  8028  1.00
      L1  H    18    59       P1  7948  2.00
      L1  H    22    54       P1 10747  0.73
      P1  H  7997  8008       L1    27  1.00
      L1  C    10    42       P1  8028  1.00

> <Gold.PLP.Chemscore.Internal.Correction>
0.2951

> <Gold.Rescore>
     Score         DG    S(hbond)    S(metal)    S(lipo)     H(rot)  DE(clash)    DE(int)     intcor
     13.27     -18.89       3.19        0.00      96.95       3.35       1.48       4.14       ----

> <Gold.Chemscore.Fitness>
13.2710

> <Gold.Chemscore.DG>
-18.8892

> <Gold.Chemscore.ZeroCoef>
-5.4800

> <Gold.Chemscore.Hbond>
3.1877

> <Gold.Chemscore.Metal>
0.0000

> <Gold.Chemscore.Lipo>
96.9471

> <Gold.Chemscore.Internal_Hbond>
0.0000

> <Gold.Chemscore.DEClash>
1.4782

> <Gold.Chemscore.DEInternal>
4.1400

> <Gold.Chemscore.Rot>
3.3518

> <Gold.Chemscore.Internal.Correction>
   9.000000E+99

> <Gold.Chemscore.Hbonds>
donor molecule, donor type, donor heavy atom, donor atom, acceptor molecule, acceptor atom, score
      L1  H     7    39       P1  8028  0.80
      L1  H    18    59       P1  7948  0.63
      L1  H    22    54       P1 10747  0.69
      P1  H  7997  8008       L1    27  0.29

> <Gold.Chemscore.Hbond.Weighted>
-10.6469

> <Gold.Chemscore.Metal.Weighted>
-0.0000

> <Gold.Chemscore.Lipo.Weighted>
-11.3428

> <Gold.Chemscore.Internal_Hbond.Weighted>
0.0000

> <Gold.Chemscore.DEClash.Weighted>
1.4782

> <Gold.Chemscore.DEInternal.Weighted>
4.1400

> <Gold.Chemscore.Rot.Weighted>
8.5806

> <Gold.Chemscore.Internal.Correction.Weighted>
   9.000000E+99

> <Gold.Protein.RotatedTorsions>
[ 6907 6896 6895 6894 ] final   20.03 input  -60.11 | X-H torsion
[ 7974 7965 7964 7962 ] final -169.50 input  175.53 | X-H torsion
[ 8008 7997 7996 7995 ] final  -50.28 input   59.86 | X-H torsion
[ 10167 10162 10161 10158 ] final   62.22 input  -65.29 | X-H torsion
[ 10718 10713 10712 10709 ] final  -88.03 input   66.30 | X-H torsion
[ 10763 10752 10751 10750 ] final -167.21 input  -60.55 | X-H torsion
[ 11005 11000 10999 10996 ] final   71.41 input  -57.11 | X-H torsion

> <Gold.Protein.ActiveResidues>
 VAL166  LYS551  ARG553  GLY616  TRP617  ASP618  TYR619  PRO620  LYS621  CYS622 
 ASP623  PHE694  ASN695  SER759  ASP760  ASP761  ALA762  ILE779  LEU786  VAL792 
 PHE793  MET794  SER795  GLU796  ALA797  LYS798  CYS799  TRP800  GLU811  SER814 

> <Gold.Protein.RotatedAtoms>
  151.8900  135.0420  160.0496 H   0  0  0  0  0  0  0  0  0  0  0  0  # atno 6907 bound_to 6896
  152.2443  133.5157  159.5297 H   0  0  0  0  0  0  0  0  0  0  0  0  # atno 6908 bound_to 6896
  150.7063  134.0962  159.3992 H   0  0  0  0  0  0  0  0  0  0  0  0  # atno 6909 bound_to 6896
  144.7184  140.2212  143.6316 H   0  0  0  0  0  0  0  0  0  0  0  0  # atno 7974 bound_to 7965
  154.4059  140.1276  156.4640 H   0  0  0  0  0  0  0  0  0  0  0  0  # atno 8008 bound_to 7997
  155.7245  140.3492  155.5011 H   0  0  0  0  0  0  0  0  0  0  0  0  # atno 8009 bound_to 7997
  155.9184  140.1048  157.1216 H   0  0  0  0  0  0  0  0  0  0  0  0  # atno 8010 bound_to 7997
  140.1462  144.4506  150.6784 H   0  0  0  0  0  0  0  0  0  0  0  0  # atno 10167 bound_to 10162
  155.9984  130.4821  150.4958 H   0  0  0  0  0  0  0  0  0  0  0  0  # atno 10718 bound_to 10713
  154.6755  135.2946  154.9684 H   0  0  0  0  0  0  0  0  0  0  0  0  # atno 10763 bound_to 10752
  154.0697  135.6620  153.4826 H   0  0  0  0  0  0  0  0  0  0  0  0  # atno 10764 bound_to 10752
  153.0513  135.5172  154.7772 H   0  0  0  0  0  0  0  0  0  0  0  0  # atno 10765 bound_to 10752
  139.9545  134.7169  156.0785 H   0  0  0  0  0  0  0  0  0  0  0  0  # atno 11005 bound_to 11000
  145.8499  139.2170  143.1778 LP  0  0  0  0  0  0  0  0  0  0  0  0  # atno 17320 bound_to 7965
  146.0270  140.8294  142.9895 LP  0  0  0  0  0  0  0  0  0  0  0  0  # atno 17321 bound_to 7965
  140.6730  143.2293  151.5577 LP  0  0  0  0  0  0  0  0  0  0  0  0  # atno 17342 bound_to 10162
  139.5448  144.2551  152.1420 LP  0  0  0  0  0  0  0  0  0  0  0  0  # atno 17343 bound_to 10162
  157.2948  131.0633  151.2109 LP  0  0  0  0  0  0  0  0  0  0  0  0  # atno 17370 bound_to 10713
  157.3109  130.6889  149.6215 LP  0  0  0  0  0  0  0  0  0  0  0  0  # atno 17371 bound_to 10713
  141.1214  133.6612  156.3224 LP  0  0  0  0  0  0  0  0  0  0  0  0  # atno 17394 bound_to 11000
  140.5642  134.5904  157.5441 LP  0  0  0  0  0  0  0  0  0  0  0  0  # atno 17395 bound_to 11000

$$$$
