AV-unprocessed.smi:508|AV-procd|sdf|2758|dock6
  -GOLD-   2262023223D 1   1.00000     0.00000
 Structure written by MMmdl.
 49 51  0  0  0  0  0  0  0  0  1 V2000
  148.1833  140.2436  154.1061 C   0  0  0  0  0  0  0  0  0  0  0  0
  147.1070  139.1622  153.9874 C   0  0  0  0  0  0  0  0  0  0  0  0
  146.7436  138.7324  155.2882 O   0  0  0  0  0  0  0  0  0  0  0  0
  147.8039  138.0844  155.9698 C   0  0  0  0  0  0  0  0  0  0  0  0
  147.5623  138.2179  157.4821 C   0  0  0  0  0  0  0  0  0  0  0  0
  148.7196  137.8131  158.2743 N   0  0  0  0  0  0  0  0  0  0  0  0
  148.8024  136.9435  159.3272 C   0  0  0  0  0  0  0  0  0  0  0  0
  147.7151  136.2131  159.8394 N   0  0  0  0  0  0  0  0  0  0  0  0
  146.2922  136.4223  159.5651 C   0  0  0  0  0  0  0  0  0  0  0  0
  145.4335  136.7145  160.8136 C   0  0  0  0  0  0  0  0  0  0  0  0
  145.1401  135.4618  161.6521 C   0  0  0  0  0  0  0  0  0  0  0  0
  146.2587  135.0622  162.6307 C   0  0  0  0  0  0  0  0  0  0  0  0
  147.7022  135.2252  162.1199 C   0  0  0  0  0  0  0  0  0  0  0  0
  147.8942  134.9821  160.6139 C   0  0  0  0  0  0  0  0  0  0  0  0
  150.0263  136.8628  159.8623 N   0  0  0  0  0  0  0  0  0  0  0  0
  150.7838  137.7261  159.0912 C   0  0  0  0  0  0  0  0  0  0  0  0
  150.0190  138.3100  158.1368 C   0  0  0  0  0  0  0  0  0  0  0  0
  150.5643  139.2959  157.1911 C   0  0  0  0  0  0  0  0  0  0  0  0
  149.8906  139.8570  156.3300 O   0  0  0  0  0  0  0  0  0  0  0  0
  151.8885  139.5260  157.3650 N   0  0  0  0  0  0  0  0  0  0  0  0
  152.7142  138.9644  158.2995 C   0  0  0  0  0  0  0  0  0  0  0  0
  153.9062  139.2700  158.3307 O   0  0  0  0  0  0  0  0  0  0  0  0
  152.1634  138.0677  159.1783 N   0  0  0  0  0  0  0  0  0  0  0  0
  152.9970  137.4407  160.2060 C   0  0  0  0  0  0  0  0  0  0  0  0
  152.3136  140.1897  156.7342 H   0  0  0  0  0  0  0  0  0  0  0  0
  148.4885  140.5996  153.1222 H   0  0  0  0  0  0  0  0  0  0  0  0
  149.0691  139.8596  154.6129 H   0  0  0  0  0  0  0  0  0  0  0  0
  147.8168  141.1000  154.6727 H   0  0  0  0  0  0  0  0  0  0  0  0
  146.2361  139.5612  153.4655 H   0  0  0  0  0  0  0  0  0  0  0  0
  147.4859  138.3210  153.4053 H   0  0  0  0  0  0  0  0  0  0  0  0
  147.8537  137.0372  155.6719 H   0  0  0  0  0  0  0  0  0  0  0  0
  148.7558  138.5365  155.6907 H   0  0  0  0  0  0  0  0  0  0  0  0
  147.3131  139.2495  157.7298 H   0  0  0  0  0  0  0  0  0  0  0  0
  146.6915  137.6464  157.7866 H   0  0  0  0  0  0  0  0  0  0  0  0
  146.1775  137.2336  158.8537 H   0  0  0  0  0  0  0  0  0  0  0  0
  145.8988  135.5490  159.0432 H   0  0  0  0  0  0  0  0  0  0  0  0
  145.8707  137.4955  161.4352 H   0  0  0  0  0  0  0  0  0  0  0  0
  144.4794  137.1113  160.4660 H   0  0  0  0  0  0  0  0  0  0  0  0
  144.2282  135.6226  162.2278 H   0  0  0  0  0  0  0  0  0  0  0  0
  144.9178  134.6266  160.9865 H   0  0  0  0  0  0  0  0  0  0  0  0
  146.1562  135.6405  163.5497 H   0  0  0  0  0  0  0  0  0  0  0  0
  146.0972  134.0233  162.9211 H   0  0  0  0  0  0  0  0  0  0  0  0
  148.0771  136.2171  162.3774 H   0  0  0  0  0  0  0  0  0  0  0  0
  148.3330  134.5294  162.6739 H   0  0  0  0  0  0  0  0  0  0  0  0
  147.2341  134.1897  160.2583 H   0  0  0  0  0  0  0  0  0  0  0  0
  148.9031  134.6015  160.4565 H   0  0  0  0  0  0  0  0  0  0  0  0
  153.7180  136.7641  159.7461 H   0  0  0  0  0  0  0  0  0  0  0  0
  152.4134  136.8632  160.9231 H   0  0  0  0  0  0  0  0  0  0  0  0
  153.5479  138.1925  160.7732 H   0  0  0  0  0  0  0  0  0  0  0  0
  1  2  1  0  0  0  0
  1 26  1  0  0  0  0
  1 27  1  0  0  0  0
  1 28  1  0  0  0  0
  2  3  1  0  0  0  0
  2 29  1  0  0  0  0
  2 30  1  0  0  0  0
  3  4  1  0  0  0  0
  4  5  1  0  0  0  0
  4 31  1  0  0  0  0
  4 32  1  0  0  0  0
  5  6  1  0  0  0  0
  5 33  1  0  0  0  0
  5 34  1  0  0  0  0
  6 17  1  0  0  0  0
  6  7  1  0  0  0  0
  7  8  1  0  0  0  0
  7 15  2  0  0  0  0
  8 14  1  0  0  0  0
  8  9  1  0  0  0  0
  9 10  1  0  0  0  0
  9 35  1  0  0  0  0
  9 36  1  0  0  0  0
 10 11  1  0  0  0  0
 10 37  1  0  0  0  0
 10 38  1  0  0  0  0
 11 12  1  0  0  0  0
 11 39  1  0  0  0  0
 11 40  1  0  0  0  0
 12 13  1  0  0  0  0
 12 41  1  0  0  0  0
 12 42  1  0  0  0  0
 13 14  1  0  0  0  0
 13 43  1  0  0  0  0
 13 44  1  0  0  0  0
 14 45  1  0  0  0  0
 14 46  1  0  0  0  0
 15 16  1  0  0  0  0
 16 23  1  0  0  0  0
 16 17  2  0  0  0  0
 17 18  1  0  0  0  0
 18 19  2  0  0  0  0
 18 20  1  0  0  0  0
 20 25  1  0  0  0  0
 20 21  1  0  0  0  0
 21 22  2  0  0  0  0
 21 23  1  0  0  0  0
 23 24  1  0  0  0  0
 24 47  1  0  0  0  0
 24 48  1  0  0  0  0
 24 49  1  0  0  0  0
M  END
> <s_m_source_file>
AV-unprocessed.smi

> <i_m_source_file_index>
508

> <i_lp_mmshare_version>
43012

> <i_f3d_flags>
0

> <s_epik_input>
W0NIM11uMWMoPU8pW25IXWMoPU8pYyhjMTIpbihbQ0gyXVtDSDJdT1tDSDJdW0NIM10pYyhuMilOM1tDSDJdW0NIMl1bQ0gyXVtDSDJdW0NIMl1bQ0gyXTM=

> <s_epik_cmdline>
J2VwaWtfcHl0aG9uJywgJy1waCcsICc3LjAnLCAnLXRuJywgJzgnLCAnLW1hJywgJzIwMCcsICctbWV0YWxfYmluZGluZycsICctaW1hZScsICc8aW5maWxlLm1hZT4nLCAnLW9tYWUnLCAnPG91dGZpbGUubWFlPic=

> <r_lp_tautomer_probability>
1

> <r_epik_Ionization_Penalty>
0.000193589

> <r_epik_Ionization_Penalty_Charging>
2.00901e-05

> <r_epik_Ionization_Penalty_Neutral>
0.000173499

> <r_epik_State_Penalty>
-0

> <r_epik_Charging_Adjusted_Penalty>
2.00901e-05

> <i_epik_Tot_Q>
0

> <i_epik_Tot_abs_Q>
0

> <r_epik_Metal_State_Penalty>
0.0191145

> <b_epik_Metal_Only>
0

> <s_lp_Force_Field>
OPLS_2005

> <r_lp_Energy>
44.1417

> <b_lp_Chiralities_Consistent>
1

> <s_lp_Variant>
AV-unprocessed.smi:508-1

> <Gold.Version>
5.8.1

> <Gold.Id.Protein>
6NUR|6NUR_protein|mol2

> <Gold.PLP.Fitness>
35.5305

> <Gold.PLP.PLP>
-30.3307

> <Gold.PLP.part.hbond>
-2.5536

> <Gold.PLP.part.metal>
0.0000

> <Gold.PLP.part.buried>
-5.8624

> <Gold.PLP.part.nonpolar>
-23.2189

> <Gold.PLP.part.repulsive>
0.0978

> <Gold.PLP.ligand.clash>
0.0000

> <Gold.PLP.ligand.torsion>
0.3877

> <Gold.PLP.Chemscore.Hbond>
1.9750

> <Gold.PLP.Chemscore.CHOScore>
0.0000

> <Gold.PLP.Chemscore.Metal>
0.0000

> <Gold.Chemscore.Hbonds>
donor molecule, donor type, donor heavy atom, donor atom, acceptor molecule, acceptor atom, score
      P1  H  6896  6907       L1    15  0.86
      P1  H  7997  8010       L1    22  1.00

> <Gold.PLP.Chemscore.Internal.Correction>
0.0501

> <Gold.Rescore>
     Score         DG    S(hbond)    S(metal)    S(lipo)     H(rot)  DE(clash)    DE(int)     intcor
     11.94     -13.27       1.92        0.00      46.42       1.58       0.00       1.33       ----

> <Gold.Chemscore.Fitness>
11.9408

> <Gold.Chemscore.DG>
-13.2682

> <Gold.Chemscore.ZeroCoef>
-5.4800

> <Gold.Chemscore.Hbond>
1.9172

> <Gold.Chemscore.Metal>
0.0000

> <Gold.Chemscore.Lipo>
46.4180

> <Gold.Chemscore.Internal_Hbond>
0.0000

> <Gold.Chemscore.DEClash>
0.0000

> <Gold.Chemscore.DEInternal>
1.3273

> <Gold.Chemscore.Rot>
1.5806

> <Gold.Chemscore.Internal.Correction>
   9.000000E+99

> <Gold.Chemscore.Hbonds>
donor molecule, donor type, donor heavy atom, donor atom, acceptor molecule, acceptor atom, score
      P1  H  6896  6907       L1    15  0.42
      P1  H  7997  8010       L1    22  0.99

> <Gold.Chemscore.Hbond.Weighted>
-6.4035

> <Gold.Chemscore.Metal.Weighted>
-0.0000

> <Gold.Chemscore.Lipo.Weighted>
-5.4309

> <Gold.Chemscore.Internal_Hbond.Weighted>
0.0000

> <Gold.Chemscore.DEClash.Weighted>
0.0000

> <Gold.Chemscore.DEInternal.Weighted>
1.3273

> <Gold.Chemscore.Rot.Weighted>
4.0463

> <Gold.Chemscore.Internal.Correction.Weighted>
   9.000000E+99

> <Gold.Protein.RotatedTorsions>
[ 6907 6896 6895 6894 ] final  -27.85 input  -60.11 | X-H torsion
[ 7974 7965 7964 7962 ] final  142.23 input  175.53 | X-H torsion
[ 8008 7997 7996 7995 ] final   22.68 input   59.86 | X-H torsion
[ 10167 10162 10161 10158 ] final  -39.54 input  -65.29 | X-H torsion
[ 10718 10713 10712 10709 ] final  129.55 input   66.30 | X-H torsion
[ 10763 10752 10751 10750 ] final  153.19 input  -60.55 | X-H torsion
[ 11005 11000 10999 10996 ] final  -63.89 input  -57.11 | X-H torsion

> <Gold.Protein.ActiveResidues>
 VAL166  LYS551  ARG553  GLY616  TRP617  ASP618  TYR619  PRO620  LYS621  CYS622 
 ASP623  PHE694  ASN695  SER759  ASP760  ASP761  ALA762  ILE779  LEU786  VAL792 
 PHE793  MET794  SER795  GLU796  ALA797  LYS798  CYS799  TRP800  GLU811  SER814 

> <Gold.Protein.RotatedAtoms>
  151.1411  135.0180  159.8625 H   0  0  0  0  0  0  0  0  0  0  0  0  # atno 6907 bound_to 6896
  152.5452  134.1498  159.8524 H   0  0  0  0  0  0  0  0  0  0  0  0  # atno 6908 bound_to 6896
  151.1574  133.4822  159.2627 H   0  0  0  0  0  0  0  0  0  0  0  0  # atno 6909 bound_to 6896
  144.9026  139.5402  143.5746 H   0  0  0  0  0  0  0  0  0  0  0  0  # atno 7974 bound_to 7965
  154.9693  140.3088  155.4995 H   0  0  0  0  0  0  0  0  0  0  0  0  # atno 8008 bound_to 7997
  156.2968  140.2287  156.4724 H   0  0  0  0  0  0  0  0  0  0  0  0  # atno 8009 bound_to 7997
  154.7891  140.0441  157.1175 H   0  0  0  0  0  0  0  0  0  0  0  0  # atno 8010 bound_to 7997
  140.7061  143.3208  151.2797 H   0  0  0  0  0  0  0  0  0  0  0  0  # atno 10167 bound_to 10162
  157.5144  131.1097  150.9246 H   0  0  0  0  0  0  0  0  0  0  0  0  # atno 10718 bound_to 10713
  154.1322  135.2826  155.3182 H   0  0  0  0  0  0  0  0  0  0  0  0  # atno 10763 bound_to 10752
  154.6347  135.5423  153.7724 H   0  0  0  0  0  0  0  0  0  0  0  0  # atno 10764 bound_to 10752
  153.0277  135.6471  154.1472 H   0  0  0  0  0  0  0  0  0  0  0  0  # atno 10765 bound_to 10752
  141.1407  133.6658  156.5749 H   0  0  0  0  0  0  0  0  0  0  0  0  # atno 11005 bound_to 11000
  146.3116  139.7768  142.9015 LP  0  0  0  0  0  0  0  0  0  0  0  0  # atno 17320 bound_to 7965
  145.3590  141.0322  143.3295 LP  0  0  0  0  0  0  0  0  0  0  0  0  # atno 17321 bound_to 7965
  139.6661  144.0102  152.2724 LP  0  0  0  0  0  0  0  0  0  0  0  0  # atno 17342 bound_to 10162
  139.9686  144.6509  150.8011 LP  0  0  0  0  0  0  0  0  0  0  0  0  # atno 17343 bound_to 10162
  156.9877  130.5551  149.5301 LP  0  0  0  0  0  0  0  0  0  0  0  0  # atno 17370 bound_to 10713
  156.0310  130.5401  150.8534 LP  0  0  0  0  0  0  0  0  0  0  0  0  # atno 17371 bound_to 10713
  140.3883  134.7462  157.4705 LP  0  0  0  0  0  0  0  0  0  0  0  0  # atno 17394 bound_to 11000
  140.0585  134.6029  155.8776 LP  0  0  0  0  0  0  0  0  0  0  0  0  # atno 17395 bound_to 11000

$$$$
