AV-unprocessed.smi:1124|AV-procd|sdf|4833|dock7
  -GOLD-   22720 3393D 1   1.00000     0.00000
 Structure written by MMmdl.
 52 53  0  0  0  0  0  0  0  0  2 V2000
  143.9750  132.7590  149.0744 C   0  0  0  0  0  0  0  0  0  0  0  0
  144.8222  133.6151  149.9344 N   0  3  0  0  0  0  0  0  0  0  0  0
  145.9899  132.8799  150.4684 C   0  0  0  0  0  0  0  0  0  0  0  0
  144.0521  134.3278  150.9890 C   0  0  0  0  0  0  0  0  0  0  0  0
  144.8655  135.4581  151.6782 C   0  0  0  0  0  0  0  0  0  0  0  0
  145.7226  136.2020  150.6318 C   0  0  0  0  0  0  0  0  0  0  0  0
  143.9201  136.4662  152.3685 C   0  0  0  0  0  0  0  0  0  0  0  0
  145.8381  134.8532  152.7276 C   0  0  0  0  0  0  0  0  0  0  0  0
  146.8322  135.8010  153.2278 N   0  0  0  0  0  0  0  0  0  0  0  0
  146.8038  136.4064  154.4262 C   0  0  0  0  0  0  0  0  0  0  0  0
  145.9145  136.2240  155.2581 O   0  0  0  0  0  0  0  0  0  0  0  0
  147.9642  137.3259  154.7046 C   0  0  0  0  0  0  0  0  0  0  0  0
  148.0028  138.5977  154.0865 C   0  0  0  0  0  0  0  0  0  0  0  0
  149.0560  139.4817  154.3786 C   0  0  0  0  0  0  0  0  0  0  0  0
  150.0387  139.0649  155.2920 C   0  0  0  0  0  0  0  0  0  0  0  0
  150.0193  137.8595  155.8948 N   0  0  0  0  0  0  0  0  0  0  0  0
  149.0101  136.9965  155.6179 C   0  0  0  0  0  0  0  0  0  0  0  0
  149.0699  135.7369  156.2478 N   0  0  0  0  0  0  0  0  0  0  0  0
  148.8243  135.6912  157.6857 C   0  0  0  0  0  0  0  0  0  0  0  0
  148.6884  134.2295  158.1451 C   0  0  0  0  0  0  0  0  0  0  0  0
  149.8530  133.5001  157.7673 O   0  0  0  0  0  0  0  0  0  0  0  0
  150.0439  133.4882  156.3550 C   0  0  0  0  0  0  0  0  0  0  0  0
  150.2137  134.9287  155.8429 C   0  0  0  0  0  0  0  0  0  0  0  0
  143.5434  131.9357  149.6451 H   0  0  0  0  0  0  0  0  0  0  0  0
  144.5599  132.3377  148.2561 H   0  0  0  0  0  0  0  0  0  0  0  0
  143.1598  133.3355  148.6363 H   0  0  0  0  0  0  0  0  0  0  0  0
  145.6750  132.0765  151.1356 H   0  0  0  0  0  0  0  0  0  0  0  0
  146.6457  133.5510  151.0242 H   0  0  0  0  0  0  0  0  0  0  0  0
  146.5738  132.4427  149.6577 H   0  0  0  0  0  0  0  0  0  0  0  0
  143.1377  134.7315  150.5527 H   0  0  0  0  0  0  0  0  0  0  0  0
  143.7155  133.6185  151.7473 H   0  0  0  0  0  0  0  0  0  0  0  0
  146.3449  136.9656  151.0999 H   0  0  0  0  0  0  0  0  0  0  0  0
  145.1095  136.7061  149.8842 H   0  0  0  0  0  0  0  0  0  0  0  0
  146.3876  135.5173  150.1040 H   0  0  0  0  0  0  0  0  0  0  0  0
  144.4824  137.2198  152.9208 H   0  0  0  0  0  0  0  0  0  0  0  0
  143.2492  135.9744  153.0740 H   0  0  0  0  0  0  0  0  0  0  0  0
  143.2989  136.9958  151.6461 H   0  0  0  0  0  0  0  0  0  0  0  0
  145.2785  134.4154  153.5564 H   0  0  0  0  0  0  0  0  0  0  0  0
  146.3908  134.0255  152.2815 H   0  0  0  0  0  0  0  0  0  0  0  0
  147.6131  136.0012  152.6193 H   0  0  0  0  0  0  0  0  0  0  0  0
  147.2280  138.9065  153.3994 H   0  0  0  0  0  0  0  0  0  0  0  0
  149.1057  140.4581  153.9195 H   0  0  0  0  0  0  0  0  0  0  0  0
  150.8624  139.7157  155.5460 H   0  0  0  0  0  0  0  0  0  0  0  0
  149.6490  136.1682  158.2173 H   0  0  0  0  0  0  0  0  0  0  0  0
  147.9163  136.2458  157.9255 H   0  0  0  0  0  0  0  0  0  0  0  0
  148.5754  134.1843  159.2284 H   0  0  0  0  0  0  0  0  0  0  0  0
  147.8002  133.7664  157.7117 H   0  0  0  0  0  0  0  0  0  0  0  0
  150.9304  132.8989  156.1208 H   0  0  0  0  0  0  0  0  0  0  0  0
  149.1983  133.0005  155.8670 H   0  0  0  0  0  0  0  0  0  0  0  0
  150.3225  134.9262  154.7582 H   0  0  0  0  0  0  0  0  0  0  0  0
  151.1241  135.3672  156.2535 H   0  0  0  0  0  0  0  0  0  0  0  0
  145.1979  134.3346  149.3334 H   0  0  0  0  0  0  0  0  0  0  0  0
  1  2  1  0  0  0  0
  1 24  1  0  0  0  0
  1 25  1  0  0  0  0
  1 26  1  0  0  0  0
  2  3  1  0  0  0  0
  2  4  1  0  0  0  0
  2 52  1  0  0  0  0
  3 27  1  0  0  0  0
  3 28  1  0  0  0  0
  3 29  1  0  0  0  0
  4  5  1  0  0  0  0
  4 30  1  0  0  0  0
  4 31  1  0  0  0  0
  5  6  1  0  0  0  0
  5  7  1  0  0  0  0
  5  8  1  0  0  0  0
  6 32  1  0  0  0  0
  6 33  1  0  0  0  0
  6 34  1  0  0  0  0
  7 35  1  0  0  0  0
  7 36  1  0  0  0  0
  7 37  1  0  0  0  0
  8  9  1  0  0  0  0
  8 38  1  0  0  0  0
  8 39  1  0  0  0  0
  9 10  1  0  0  0  0
  9 40  1  0  0  0  0
 10 11  2  0  0  0  0
 10 12  1  0  0  0  0
 12 17  1  0  0  0  0
 12 13  2  0  0  0  0
 13 14  1  0  0  0  0
 13 41  1  0  0  0  0
 14 15  2  0  0  0  0
 14 42  1  0  0  0  0
 15 16  1  0  0  0  0
 15 43  1  0  0  0  0
 16 17  2  0  0  0  0
 17 18  1  0  0  0  0
 18 23  1  0  0  0  0
 18 19  1  0  0  0  0
 19 20  1  0  0  0  0
 19 44  1  0  0  0  0
 19 45  1  0  0  0  0
 20 21  1  0  0  0  0
 20 46  1  0  0  0  0
 20 47  1  0  0  0  0
 21 22  1  0  0  0  0
 22 23  1  0  0  0  0
 22 48  1  0  0  0  0
 22 49  1  0  0  0  0
 23 50  1  0  0  0  0
 23 51  1  0  0  0  0
M  CHG  1   2   1
M  END
> <s_m_source_file>
AV-unprocessed.smi

> <i_m_source_file_index>
1124

> <i_lp_mmshare_version>
43012

> <i_f3d_flags>
0

> <s_epik_input>
W0NIM11OKFtDSDNdKVtDSDJdQyhbQ0gzXSkoW0NIM10pW0NIMl1bTkhdQyg9TyljMVtjSF1bY0hdW2NIXW5jMU4yW0NIMl1bQ0gyXU9bQ0gyXVtDSDJdMg==

> <s_epik_cmdline>
J2VwaWtfcHl0aG9uJywgJy1waCcsICc3LjAnLCAnLXRuJywgJzgnLCAnLW1hJywgJzIwMCcsICctbWV0YWxfYmluZGluZycsICctaW1hZScsICc8aW5maWxlLm1hZT4nLCAnLW9tYWUnLCAnPG91dGZpbGUubWFlPic=

> <r_lp_tautomer_probability>
1

> <r_epik_Ionization_Penalty>
0.000493047

> <r_epik_Ionization_Penalty_Charging>
0.000482013

> <r_epik_Ionization_Penalty_Neutral>
1.10333e-05

> <r_epik_State_Penalty>
0.000299147

> <r_epik_Charging_Adjusted_Penalty>
0.000781161

> <i_epik_Tot_Q>
1

> <i_epik_Tot_abs_Q>
1

> <r_epik_Metal_State_Penalty>
-0

> <b_epik_Metal_Only>
0

> <s_lp_Force_Field>
OPLS_2005

> <r_lp_Energy>
38.5131

> <b_lp_Chiralities_Consistent>
1

> <s_lp_Variant>
AV-unprocessed.smi:1124-1

> <Gold.Version>
5.8.1

> <Gold.Id.Protein>
6NUR|6NUR_protein|mol2

> <Gold.PLP.Fitness>
34.8891

> <Gold.PLP.PLP>
-29.2084

> <Gold.PLP.part.hbond>
-3.0000

> <Gold.PLP.part.metal>
0.0000

> <Gold.PLP.part.buried>
-3.1050

> <Gold.PLP.part.nonpolar>
-23.7009

> <Gold.PLP.part.repulsive>
0.1630

> <Gold.PLP.ligand.clash>
0.0000

> <Gold.PLP.ligand.torsion>
2.0292

> <Gold.PLP.Chemscore.Hbond>
2.9920

> <Gold.PLP.Chemscore.CHOScore>
0.0000

> <Gold.PLP.Chemscore.Metal>
0.0000

> <Gold.Chemscore.Hbonds>
donor molecule, donor type, donor heavy atom, donor atom, acceptor molecule, acceptor atom, score
      L1  H     2    52       P1  7921  0.96
      L1  H     9    40       P1  7948  1.00
      P1  H  6896  6907       L1    21  1.00

> <Gold.PLP.Chemscore.Internal.Correction>
0.7630

> <Gold.Rescore>
     Score         DG    S(hbond)    S(metal)    S(lipo)     H(rot)  DE(clash)    DE(int)     intcor
     17.39     -19.54       2.85        0.00      76.70       1.73       0.01       2.14       ----

> <Gold.Chemscore.Fitness>
17.3941

> <Gold.Chemscore.DG>
-19.5428

> <Gold.Chemscore.ZeroCoef>
-5.4800

> <Gold.Chemscore.Hbond>
2.8531

> <Gold.Chemscore.Metal>
0.0000

> <Gold.Chemscore.Lipo>
76.7020

> <Gold.Chemscore.Internal_Hbond>
0.0000

> <Gold.Chemscore.DEClash>
0.0089

> <Gold.Chemscore.DEInternal>
2.1398

> <Gold.Chemscore.Rot>
1.7347

> <Gold.Chemscore.Internal.Correction>
   9.000000E+99

> <Gold.Chemscore.Hbonds>
donor molecule, donor type, donor heavy atom, donor atom, acceptor molecule, acceptor atom, score
      L1  H     2    52       P1  7921  0.88
      L1  H     9    40       P1  7948  0.95
      P1  H  6896  6907       L1    21  0.35

> <Gold.Chemscore.Hbond.Weighted>
-9.5294

> <Gold.Chemscore.Metal.Weighted>
-0.0000

> <Gold.Chemscore.Lipo.Weighted>
-8.9741

> <Gold.Chemscore.Internal_Hbond.Weighted>
0.0000

> <Gold.Chemscore.DEClash.Weighted>
0.0089

> <Gold.Chemscore.DEInternal.Weighted>
2.1398

> <Gold.Chemscore.Rot.Weighted>
4.4408

> <Gold.Chemscore.Internal.Correction.Weighted>
   9.000000E+99

> <Gold.Protein.RotatedTorsions>
[ 6907 6896 6895 6894 ] final -129.34 input  -60.11 | X-H torsion
[ 7974 7965 7964 7962 ] final  -64.07 input  175.53 | X-H torsion
[ 8008 7997 7996 7995 ] final  110.41 input   59.86 | X-H torsion
[ 10167 10162 10161 10158 ] final   67.75 input  -65.29 | X-H torsion
[ 10718 10713 10712 10709 ] final  -29.34 input   66.30 | X-H torsion
[ 10763 10752 10751 10750 ] final   90.75 input  -60.55 | X-H torsion
[ 11005 11000 10999 10996 ] final -123.03 input  -57.11 | X-H torsion

> <Gold.Protein.ActiveResidues>
 VAL166  LYS551  ARG553  GLY616  TRP617  ASP618  TYR619  PRO620  LYS621  CYS622 
 ASP623  PHE694  ASN695  SER759  ASP760  ASP761  ALA762  ILE779  LEU786  VAL792 
 PHE793  MET794  SER795  GLU796  ALA797  LYS798  CYS799  TRP800  GLU811  SER814 

> <Gold.Protein.RotatedAtoms>
  150.9276  133.6805  159.2817 H   0  0  0  0  0  0  0  0  0  0  0  0  # atno 6907 bound_to 6896
  151.4238  135.1000  159.9631 H   0  0  0  0  0  0  0  0  0  0  0  0  # atno 6908 bound_to 6896
  152.5010  133.8722  159.7359 H   0  0  0  0  0  0  0  0  0  0  0  0  # atno 6909 bound_to 6896
  145.7713  140.8811  143.0379 H   0  0  0  0  0  0  0  0  0  0  0  0  # atno 7974 bound_to 7965
  156.2051  140.3039  155.9609 H   0  0  0  0  0  0  0  0  0  0  0  0  # atno 8008 bound_to 7997
  155.2861  140.0440  157.3036 H   0  0  0  0  0  0  0  0  0  0  0  0  # atno 8009 bound_to 7997
  154.5622  140.2323  155.8327 H   0  0  0  0  0  0  0  0  0  0  0  0  # atno 8010 bound_to 7997
  140.0862  144.5028  150.7129 H   0  0  0  0  0  0  0  0  0  0  0  0  # atno 10167 bound_to 10162
  156.4137  130.4413  149.7234 H   0  0  0  0  0  0  0  0  0  0  0  0  # atno 10718 bound_to 10713
  153.2009  135.4422  155.0265 H   0  0  0  0  0  0  0  0  0  0  0  0  # atno 10763 bound_to 10752
  154.8146  135.3309  154.7214 H   0  0  0  0  0  0  0  0  0  0  0  0  # atno 10764 bound_to 10752
  153.7659  135.6988  153.4971 H   0  0  0  0  0  0  0  0  0  0  0  0  # atno 10765 bound_to 10752
  140.9950  134.0485  157.3608 H   0  0  0  0  0  0  0  0  0  0  0  0  # atno 11005 bound_to 11000
  144.6812  139.9859  143.7484 LP  0  0  0  0  0  0  0  0  0  0  0  0  # atno 17320 bound_to 7965
  146.0167  139.3216  143.0837 LP  0  0  0  0  0  0  0  0  0  0  0  0  # atno 17321 bound_to 7965
  140.7052  143.2463  151.4746 LP  0  0  0  0  0  0  0  0  0  0  0  0  # atno 17342 bound_to 10162
  139.5751  144.1838  152.1891 LP  0  0  0  0  0  0  0  0  0  0  0  0  # atno 17343 bound_to 10162
  156.4202  130.7765  151.2782 LP  0  0  0  0  0  0  0  0  0  0  0  0  # atno 17370 bound_to 10713
  157.7507  131.0185  150.3629 LP  0  0  0  0  0  0  0  0  0  0  0  0  # atno 17371 bound_to 10713
  139.9010  135.0164  156.7269 LP  0  0  0  0  0  0  0  0  0  0  0  0  # atno 17394 bound_to 11000
  140.6980  133.9331  155.8007 LP  0  0  0  0  0  0  0  0  0  0  0  0  # atno 17395 bound_to 11000

$$$$
