AV-unprocessed.smi:2547|AV-procd|sdf|10004|dock4
  -GOLD-   2272014 53D 1   1.00000     0.00000
 Structure written by MMmdl.
 45 46  0  0  0  0  0  0  0  0  3 V2000
  143.8804  142.6464  155.3975 C   0  0  0  0  0  0  0  0  0  0  0  0
  145.0185  141.9987  154.7108 N   0  3  2  0  0  0  0  0  0  0  0  0
  145.7698  141.0820  155.6037 C   0  0  0  0  0  0  0  0  0  0  0  0
  146.8590  140.3226  154.8256 C   0  0  0  0  0  0  0  0  0  0  0  0
  147.8165  141.2799  154.0869 C   0  0  2  0  0  0  0  0  0  0  0  0
  148.6929  141.9968  155.0134 N   0  0  0  0  0  0  0  0  0  0  0  0
  149.4187  141.4279  155.9874 C   0  0  0  0  0  0  0  0  0  0  0  0
  149.4078  140.2200  156.2230 O   0  0  0  0  0  0  0  0  0  0  0  0
  150.1274  142.3449  156.6690 N   0  0  0  0  0  0  0  0  0  0  0  0
  151.0161  142.1365  157.7575 C   0  0  0  0  0  0  0  0  0  0  0  0
  151.8041  140.9733  157.9319 C   0  0  0  0  0  0  0  0  0  0  0  0
  152.6649  140.8823  159.0424 C   0  0  0  0  0  0  0  0  0  0  0  0
  152.7342  141.9517  159.9567 C   0  0  0  0  0  0  0  0  0  0  0  0
  151.9424  143.1064  159.7458 C   0  0  0  0  0  0  0  0  0  0  0  0
  151.9577  144.2222  160.6109 N   0  0  0  0  0  0  0  0  0  0  0  0
  151.5806  145.5353  160.1038 C   0  0  0  0  0  0  0  0  0  0  0  0
  152.5099  144.0868  161.9543 C   0  0  0  0  0  0  0  0  0  0  0  0
  151.1327  143.1389  158.6576 N   0  3  0  0  0  0  0  0  0  0  0  0
  147.0075  142.2705  153.2302 C   0  0  0  0  0  0  0  0  0  0  0  0
  145.9095  142.9803  154.0441 C   0  0  0  0  0  0  0  0  0  0  0  0
  144.2266  143.2907  156.2067 H   0  0  0  0  0  0  0  0  0  0  0  0
  143.2086  141.8982  155.8194 H   0  0  0  0  0  0  0  0  0  0  0  0
  143.3038  143.2532  154.6986 H   0  0  0  0  0  0  0  0  0  0  0  0
  146.2144  141.6495  156.4228 H   0  0  0  0  0  0  0  0  0  0  0  0
  145.0813  140.3655  156.0534 H   0  0  0  0  0  0  0  0  0  0  0  0
  147.4116  139.6665  155.4992 H   0  0  0  0  0  0  0  0  0  0  0  0
  146.3804  139.6671  154.0968 H   0  0  0  0  0  0  0  0  0  0  0  0
  148.4472  140.6943  153.4151 H   0  0  0  0  0  0  0  0  0  0  0  0
  148.7639  142.9965  154.8923 H   0  0  0  0  0  0  0  0  0  0  0  0
  149.9692  143.3088  156.4147 H   0  0  0  0  0  0  0  0  0  0  0  0
  151.7745  140.1545  157.2292 H   0  0  0  0  0  0  0  0  0  0  0  0
  153.2706  140.0003  159.1891 H   0  0  0  0  0  0  0  0  0  0  0  0
  153.3988  141.8678  160.8036 H   0  0  0  0  0  0  0  0  0  0  0  0
  150.5606  145.5218  159.7183 H   0  0  0  0  0  0  0  0  0  0  0  0
  152.2533  145.8430  159.3026 H   0  0  0  0  0  0  0  0  0  0  0  0
  151.6272  146.2910  160.8880 H   0  0  0  0  0  0  0  0  0  0  0  0
  151.9179  143.3847  162.5422 H   0  0  0  0  0  0  0  0  0  0  0  0
  152.5133  145.0416  162.4803 H   0  0  0  0  0  0  0  0  0  0  0  0
  153.5384  143.7261  161.9131 H   0  0  0  0  0  0  0  0  0  0  0  0
  147.6704  143.0057  152.7723 H   0  0  0  0  0  0  0  0  0  0  0  0
  146.5420  141.7296  152.4051 H   0  0  0  0  0  0  0  0  0  0  0  0
  145.3209  143.6149  153.3805 H   0  0  0  0  0  0  0  0  0  0  0  0
  146.3565  143.6364  154.7927 H   0  0  0  0  0  0  0  0  0  0  0  0
  144.6219  141.4259  153.9792 H   0  0  0  0  0  0  0  0  0  0  0  0
  150.5686  143.9762  158.5136 H   0  0  0  0  0  0  0  0  0  0  0  0
  1  2  1  0  0  0  0
  1 21  1  0  0  0  0
  1 22  1  0  0  0  0
  1 23  1  0  0  0  0
  2 20  1  0  0  0  0
  2  3  1  0  0  0  0
  2 44  1  0  0  0  0
  3  4  1  0  0  0  0
  3 24  1  0  0  0  0
  3 25  1  0  0  0  0
  4  5  1  0  0  0  0
  4 26  1  0  0  0  0
  4 27  1  0  0  0  0
  5  6  1  0  0  0  0
  5 19  1  0  0  0  0
  5 28  1  0  0  0  0
  6  7  1  0  0  0  0
  6 29  1  0  0  0  0
  7  8  2  0  0  0  0
  7  9  1  0  0  0  0
  9 10  1  0  0  0  0
  9 30  1  0  0  0  0
 10 18  1  0  0  0  0
 10 11  2  0  0  0  0
 11 12  1  0  0  0  0
 11 31  1  0  0  0  0
 12 13  2  0  0  0  0
 12 32  1  0  0  0  0
 13 14  1  0  0  0  0
 13 33  1  0  0  0  0
 14 15  1  0  0  0  0
 14 18  2  0  0  0  0
 15 16  1  0  0  0  0
 15 17  1  0  0  0  0
 16 34  1  0  0  0  0
 16 35  1  0  0  0  0
 16 36  1  0  0  0  0
 17 37  1  0  0  0  0
 17 38  1  0  0  0  0
 17 39  1  0  0  0  0
 18 45  1  0  0  0  0
 19 20  1  0  0  0  0
 19 40  1  0  0  0  0
 19 41  1  0  0  0  0
 20 42  1  0  0  0  0
 20 43  1  0  0  0  0
M  CHG  1   2   1
M  CHG  1  18   1
M  END
> <s_m_source_file>
AV-unprocessed.smi

> <i_m_source_file_index>
2547

> <i_lp_mmshare_version>
43012

> <i_f3d_flags>
0

> <s_epik_input>
W0NIM11OMVtDSDJdW0NIMl1bQ0hdKFtDSDJdW0NIMl0xKVtOSF1DKD1PKVtOSF1jMltjSF1bY0hdW2NIXWMobjIpTihbQ0gzXSlbQ0gzXQ==

> <s_epik_cmdline>
J2VwaWtfcHl0aG9uJywgJy1waCcsICc3LjAnLCAnLXRuJywgJzgnLCAnLW1hJywgJzIwMCcsICctbWV0YWxfYmluZGluZycsICctaW1hZScsICc8aW5maWxlLm1hZT4nLCAnLW9tYWUnLCAnPG91dGZpbGUubWFlPic=

> <r_lp_tautomer_probability>
0.999994

> <r_epik_Ionization_Penalty>
2.17028

> <r_epik_Ionization_Penalty_Charging>
2.10368

> <r_epik_Ionization_Penalty_Neutral>
0.0666017

> <r_epik_State_Penalty>
2.2357

> <r_epik_Charging_Adjusted_Penalty>
4.33938

> <i_epik_Tot_Q>
2

> <i_epik_Tot_abs_Q>
2

> <r_epik_Metal_State_Penalty>
2.25749

> <b_epik_Metal_Only>
0

> <s_lp_Force_Field>
OPLS_2005

> <r_lp_Energy>
27.0899

> <b_lp_Chiralities_Consistent>
1

> <s_lp_Variant>
AV-unprocessed.smi:2547-4

> <Gold.Version>
5.8.1

> <Gold.Id.Protein>
6NUR|6NUR_protein|mol2

> <Gold.PLP.Fitness>
51.3038

> <Gold.PLP.PLP>
-40.2177

> <Gold.PLP.part.hbond>
-3.0000

> <Gold.PLP.part.metal>
0.0000

> <Gold.PLP.part.buried>
-8.0224

> <Gold.PLP.part.nonpolar>
-29.8374

> <Gold.PLP.part.repulsive>
0.3009

> <Gold.PLP.ligand.clash>
0.0000

> <Gold.PLP.ligand.torsion>
0.4672

> <Gold.PLP.Chemscore.Hbond>
4.0000

> <Gold.PLP.Chemscore.CHOScore>
0.0000

> <Gold.PLP.Chemscore.Metal>
0.0000

> <Gold.Chemscore.Hbonds>
donor molecule, donor type, donor heavy atom, donor atom, acceptor molecule, acceptor atom, score
      L1  H     2    44       P1 10175  2.00
      L1  H     6    29       P1  8028  1.00
      L1  H     9    30       P1  8028  1.00

> <Gold.PLP.Chemscore.Internal.Correction>
0.0205

> <Gold.Rescore>
     Score         DG    S(hbond)    S(metal)    S(lipo)     H(rot)  DE(clash)    DE(int)     intcor
     18.40     -21.53       2.87        0.00      77.07       1.00       1.30       1.82       ----

> <Gold.Chemscore.Fitness>
18.4022

> <Gold.Chemscore.DG>
-21.5267

> <Gold.Chemscore.ZeroCoef>
-5.4800

> <Gold.Chemscore.Hbond>
2.8712

> <Gold.Chemscore.Metal>
0.0000

> <Gold.Chemscore.Lipo>
77.0665

> <Gold.Chemscore.Internal_Hbond>
0.0000

> <Gold.Chemscore.DEClash>
1.3021

> <Gold.Chemscore.DEInternal>
1.8223

> <Gold.Chemscore.Rot>
1.0000

> <Gold.Chemscore.Internal.Correction>
   9.000000E+99

> <Gold.Chemscore.Hbonds>
donor molecule, donor type, donor heavy atom, donor atom, acceptor molecule, acceptor atom, score
      L1  H     2    44       P1 10175  0.29
      L1  H     6    29       P1  8028  0.94
      L1  H     9    30       P1  8028  0.96

> <Gold.Chemscore.Hbond.Weighted>
-9.5899

> <Gold.Chemscore.Metal.Weighted>
-0.0000

> <Gold.Chemscore.Lipo.Weighted>
-9.0168

> <Gold.Chemscore.Internal_Hbond.Weighted>
0.0000

> <Gold.Chemscore.DEClash.Weighted>
1.3021

> <Gold.Chemscore.DEInternal.Weighted>
1.8223

> <Gold.Chemscore.Rot.Weighted>
2.5600

> <Gold.Chemscore.Internal.Correction.Weighted>
   9.000000E+99

> <Gold.Protein.RotatedTorsions>
[ 6907 6896 6895 6894 ] final   76.55 input  -60.11 | X-H torsion
[ 7974 7965 7964 7962 ] final -162.83 input  175.53 | X-H torsion
[ 8008 7997 7996 7995 ] final  169.82 input   59.86 | X-H torsion
[ 10167 10162 10161 10158 ] final  -49.39 input  -65.29 | X-H torsion
[ 10718 10713 10712 10709 ] final   -2.04 input   66.30 | X-H torsion
[ 10763 10752 10751 10750 ] final   97.84 input  -60.55 | X-H torsion
[ 11005 11000 10999 10996 ] final   15.84 input  -57.11 | X-H torsion

> <Gold.Protein.ActiveResidues>
 VAL166  LYS551  ARG553  GLY616  TRP617  ASP618  TYR619  PRO620  LYS621  CYS622 
 ASP623  PHE694  ASN695  SER759  ASP760  ASP761  ALA762  ILE779  LEU786  VAL792 
 PHE793  MET794  SER795  GLU796  ALA797  LYS798  CYS799  TRP800  GLU811  SER814 

> <Gold.Protein.RotatedAtoms>
  152.5078  134.3952  159.9397 H   0  0  0  0  0  0  0  0  0  0  0  0  # atno 6907 bound_to 6896
  151.3913  133.3781  159.2729 H   0  0  0  0  0  0  0  0  0  0  0  0  # atno 6908 bound_to 6896
  150.9430  134.8858  159.7683 H   0  0  0  0  0  0  0  0  0  0  0  0  # atno 6909 bound_to 6896
  144.7345  140.3196  143.6173 H   0  0  0  0  0  0  0  0  0  0  0  0  # atno 7974 bound_to 7965
  156.1422  140.1554  156.8902 H   0  0  0  0  0  0  0  0  0  0  0  0  # atno 8008 bound_to 7997
  154.4998  140.0828  156.7811 H   0  0  0  0  0  0  0  0  0  0  0  0  # atno 8009 bound_to 7997
  155.4056  140.3416  155.4262 H   0  0  0  0  0  0  0  0  0  0  0  0  # atno 8010 bound_to 7997
  140.6687  143.2700  151.4208 H   0  0  0  0  0  0  0  0  0  0  0  0  # atno 10167 bound_to 10162
  156.7967  130.5379  149.5727 H   0  0  0  0  0  0  0  0  0  0  0  0  # atno 10718 bound_to 10713
  153.2818  135.4169  155.1086 H   0  0  0  0  0  0  0  0  0  0  0  0  # atno 10763 bound_to 10752
  154.8492  135.3497  154.6101 H   0  0  0  0  0  0  0  0  0  0  0  0  # atno 10764 bound_to 10752
  153.6522  135.7052  153.5263 H   0  0  0  0  0  0  0  0  0  0  0  0  # atno 10765 bound_to 10752
  140.4538  134.1197  155.7706 H   0  0  0  0  0  0  0  0  0  0  0  0  # atno 11005 bound_to 11000
  145.7582  139.1816  143.2282 LP  0  0  0  0  0  0  0  0  0  0  0  0  # atno 17320 bound_to 7965
  146.1007  140.7547  142.9550 LP  0  0  0  0  0  0  0  0  0  0  0  0  # atno 17321 bound_to 7965
  139.5946  144.1425  152.2129 LP  0  0  0  0  0  0  0  0  0  0  0  0  # atno 17342 bound_to 10162
  140.0790  144.5716  150.7136 LP  0  0  0  0  0  0  0  0  0  0  0  0  # atno 17343 bound_to 10162
  156.1126  130.6051  151.0071 LP  0  0  0  0  0  0  0  0  0  0  0  0  # atno 17370 bound_to 10713
  157.6574  131.0887  150.7916 LP  0  0  0  0  0  0  0  0  0  0  0  0  # atno 17371 bound_to 10713
  141.1652  133.8716  157.1734 LP  0  0  0  0  0  0  0  0  0  0  0  0  # atno 17394 bound_to 11000
  139.9990  135.0035  157.0146 LP  0  0  0  0  0  0  0  0  0  0  0  0  # atno 17395 bound_to 11000

$$$$
