AV-unprocessed.smi:3116|AV-procd|sdf|11867|dock4
  -GOLD-   2272017253D 1   1.00000     0.00000
 Structure written by MMmdl.
 34 34  0  0  0  0  0  0  0  0  2 V2000
  144.6146  136.8991  153.4533 C   0  0  0  0  0  0  0  0  0  0  0  0
  146.1418  136.9235  153.6118 C   0  0  1  0  0  0  0  0  0  0  0  0
  146.7416  135.8073  152.8427 N   0  3  0  0  0  0  0  0  0  0  0  0
  146.6726  134.4682  153.4792 C   0  0  2  0  0  0  0  0  0  0  0  0
  147.6126  134.4579  154.6966 C   0  0  0  0  0  0  0  0  0  0  0  0
  147.0201  133.3578  152.4500 C   0  0  1  0  0  0  0  0  0  0  0  0
  147.3804  132.0113  153.1072 C   0  0  0  0  0  0  0  0  0  0  0  0
  145.9463  133.1642  151.4819 N   0  0  0  0  0  0  0  0  0  0  0  0
  145.9017  132.2791  150.4240 C   0  0  0  0  0  0  0  0  0  0  0  0
  144.7078  132.4622  149.7875 C   0  0  0  0  0  0  0  0  0  0  0  0
  144.0771  133.4908  150.5407 C   0  0  0  0  0  0  0  0  0  0  0  0
  144.8202  133.9096  151.5521 N   0  0  0  0  0  0  0  0  0  0  0  0
  146.6992  138.2821  153.1648 C   0  0  0  0  0  0  0  0  0  0  0  0
  147.6402  138.2720  152.2173 N   0  0  0  0  0  0  0  0  0  0  0  0
  146.2966  139.3258  153.6755 O   0  0  0  0  0  0  0  0  0  0  0  0
  144.1429  137.6961  154.0296 H   0  0  0  0  0  0  0  0  0  0  0  0
  144.2020  135.9541  153.8088 H   0  0  0  0  0  0  0  0  0  0  0  0
  144.3162  137.0201  152.4110 H   0  0  0  0  0  0  0  0  0  0  0  0
  146.3661  136.7804  154.6692 H   0  0  0  0  0  0  0  0  0  0  0  0
  146.2650  135.7455  151.9547 H   0  0  0  0  0  0  0  0  0  0  0  0
  145.6612  134.2966  153.8517 H   0  0  0  0  0  0  0  0  0  0  0  0
  147.5137  133.5400  155.2754 H   0  0  0  0  0  0  0  0  0  0  0  0
  147.3865  135.2822  155.3738 H   0  0  0  0  0  0  0  0  0  0  0  0
  148.6559  134.5547  154.3947 H   0  0  0  0  0  0  0  0  0  0  0  0
  147.8947  133.6852  151.8852 H   0  0  0  0  0  0  0  0  0  0  0  0
  148.2973  132.0804  153.6915 H   0  0  0  0  0  0  0  0  0  0  0  0
  147.5436  131.2403  152.3533 H   0  0  0  0  0  0  0  0  0  0  0  0
  146.5875  131.6635  153.7702 H   0  0  0  0  0  0  0  0  0  0  0  0
  146.7146  131.6001  150.2125 H   0  0  0  0  0  0  0  0  0  0  0  0
  144.3391  131.9383  148.9179 H   0  0  0  0  0  0  0  0  0  0  0  0
  143.1091  133.9434  150.3832 H   0  0  0  0  0  0  0  0  0  0  0  0
  148.0384  139.1387  151.8854 H   0  0  0  0  0  0  0  0  0  0  0  0
  147.9507  137.3916  151.8314 H   0  0  0  0  0  0  0  0  0  0  0  0
  147.7103  136.0361  152.6703 H   0  0  0  0  0  0  0  0  0  0  0  0
  1  2  1  0  0  0  0
  1 16  1  0  0  0  0
  1 17  1  0  0  0  0
  1 18  1  0  0  0  0
  2  3  1  0  0  0  0
  2 13  1  0  0  0  0
  2 19  1  0  0  0  0
  3  4  1  0  0  0  0
  3 20  1  0  0  0  0
  3 34  1  0  0  0  0
  4  5  1  0  0  0  0
  4  6  1  0  0  0  0
  4 21  1  0  0  0  0
  5 22  1  0  0  0  0
  5 23  1  0  0  0  0
  5 24  1  0  0  0  0
  6  7  1  0  0  0  0
  6  8  1  0  0  0  0
  6 25  1  0  0  0  0
  7 26  1  0  0  0  0
  7 27  1  0  0  0  0
  7 28  1  0  0  0  0
  8 12  1  0  0  0  0
  8  9  1  0  0  0  0
  9 10  2  0  0  0  0
  9 29  1  0  0  0  0
 10 11  1  0  0  0  0
 10 30  1  0  0  0  0
 11 12  2  0  0  0  0
 11 31  1  0  0  0  0
 13 14  1  0  0  0  0
 13 15  2  0  0  0  0
 14 32  1  0  0  0  0
 14 33  1  0  0  0  0
M  CHG  1   3   1
M  END
> <s_m_source_file>
AV-unprocessed.smi

> <i_m_source_file_index>
3116

> <i_lp_mmshare_version>
43012

> <i_f3d_flags>
0

> <s_epik_input>
W05IMl1DKD1PKVtDQEhdKFtDSDNdKVtOSF1bQ0BIXShbQ0gzXSlbQ0BIXShbQ0gzXSluMVtjSF1bY0hdW2NIXW4x

> <s_epik_cmdline>
J2VwaWtfcHl0aG9uJywgJy1waCcsICc3LjAnLCAnLXRuJywgJzgnLCAnLW1hJywgJzIwMCcsICctbWV0YWxfYmluZGluZycsICctaW1hZScsICc8aW5maWxlLm1hZT4nLCAnLW9tYWUnLCAnPG91dGZpbGUubWFlPic=

> <r_lp_tautomer_probability>
1

> <r_epik_Ionization_Penalty>
0.15658

> <r_epik_Ionization_Penalty_Charging>
0.156568

> <r_epik_Ionization_Penalty_Neutral>
1.19778e-05

> <r_epik_State_Penalty>
0.145866

> <r_epik_Charging_Adjusted_Penalty>
0.302434

> <i_epik_Tot_Q>
1

> <i_epik_Tot_abs_Q>
1

> <r_epik_Metal_State_Penalty>
0.146064

> <b_epik_Metal_Only>
0

> <s_lp_Force_Field>
OPLS_2005

> <r_lp_Energy>
9.77371

> <b_lp_Chiralities_Consistent>
1

> <s_lp_Variant>
AV-unprocessed.smi:3116-6

> <Gold.Version>
5.8.1

> <Gold.Id.Protein>
6NUR|6NUR_protein|mol2

> <Gold.PLP.Fitness>
38.5055

> <Gold.PLP.PLP>
-21.8021

> <Gold.PLP.part.hbond>
-2.5997

> <Gold.PLP.part.metal>
0.0000

> <Gold.PLP.part.buried>
-5.3606

> <Gold.PLP.part.nonpolar>
-15.8383

> <Gold.PLP.part.repulsive>
0.3705

> <Gold.PLP.ligand.clash>
0.0000

> <Gold.PLP.ligand.torsion>
0.5562

> <Gold.PLP.Chemscore.Hbond>
3.8960

> <Gold.PLP.Chemscore.CHOScore>
2.0000

> <Gold.PLP.Chemscore.Metal>
0.0000

> <Gold.Chemscore.Hbonds>
donor molecule, donor type, donor heavy atom, donor atom, acceptor molecule, acceptor atom, score
      L1  H     3    34       P1  7948  1.79
      L1  H    14    32       P1  7957  0.93
      L1  H    14    33       P1  7948  0.92
      L1  C     9    29       P1 10747  1.00
      L1  C    11    31       P1 10186  1.00

> <Gold.PLP.Chemscore.Internal.Correction>
0.1277

> <Gold.Rescore>
     Score         DG    S(hbond)    S(metal)    S(lipo)     H(rot)  DE(clash)    DE(int)     intcor
     13.59     -14.22       2.74        0.00      50.09       2.45       0.00       0.62       ----

> <Gold.Chemscore.Fitness>
13.5948

> <Gold.Chemscore.DG>
-14.2152

> <Gold.Chemscore.ZeroCoef>
-5.4800

> <Gold.Chemscore.Hbond>
2.7358

> <Gold.Chemscore.Metal>
0.0000

> <Gold.Chemscore.Lipo>
50.0910

> <Gold.Chemscore.Internal_Hbond>
0.0000

> <Gold.Chemscore.DEClash>
0.0029

> <Gold.Chemscore.DEInternal>
0.6175

> <Gold.Chemscore.Rot>
2.4465

> <Gold.Chemscore.Internal.Correction>
   9.000000E+99

> <Gold.Chemscore.Hbonds>
donor molecule, donor type, donor heavy atom, donor atom, acceptor molecule, acceptor atom, score
      L1  H     3    34       P1  7948  0.86
      L1  H    14    32       P1  7957  0.90
      L1  H    14    33       P1  7948  0.83

> <Gold.Chemscore.Hbond.Weighted>
-9.1376

> <Gold.Chemscore.Metal.Weighted>
-0.0000

> <Gold.Chemscore.Lipo.Weighted>
-5.8607

> <Gold.Chemscore.Internal_Hbond.Weighted>
0.0000

> <Gold.Chemscore.DEClash.Weighted>
0.0029

> <Gold.Chemscore.DEInternal.Weighted>
0.6175

> <Gold.Chemscore.Rot.Weighted>
6.2631

> <Gold.Chemscore.Internal.Correction.Weighted>
   9.000000E+99

> <Gold.Protein.RotatedTorsions>
[ 6907 6896 6895 6894 ] final  155.80 input  -60.11 | X-H torsion
[ 7974 7965 7964 7962 ] final    7.38 input  175.53 | X-H torsion
[ 8008 7997 7996 7995 ] final  -11.45 input   59.86 | X-H torsion
[ 10167 10162 10161 10158 ] final  119.26 input  -65.29 | X-H torsion
[ 10718 10713 10712 10709 ] final  112.63 input   66.30 | X-H torsion
[ 10763 10752 10751 10750 ] final -161.34 input  -60.55 | X-H torsion
[ 11005 11000 10999 10996 ] final  133.53 input  -57.11 | X-H torsion

> <Gold.Protein.ActiveResidues>
 VAL166  LYS551  ARG553  GLY616  TRP617  ASP618  TYR619  PRO620  LYS621  CYS622 
 ASP623  PHE694  ASN695  SER759  ASP760  ASP761  ALA762  ILE779  LEU786  VAL792 
 PHE793  MET794  SER795  GLU796  ALA797  LYS798  CYS799  TRP800  GLU811  SER814 

> <Gold.Protein.RotatedAtoms>
  152.0389  133.3969  159.4328 H   0  0  0  0  0  0  0  0  0  0  0  0  # atno 6907 bound_to 6896
  150.6877  134.3437  159.4888 H   0  0  0  0  0  0  0  0  0  0  0  0  # atno 6908 bound_to 6896
  152.1233  134.9189  160.0613 H   0  0  0  0  0  0  0  0  0  0  0  0  # atno 6909 bound_to 6896
  146.2427  140.0093  142.8408 H   0  0  0  0  0  0  0  0  0  0  0  0  # atno 7974 bound_to 7965
  154.5464  140.2302  155.8556 H   0  0  0  0  0  0  0  0  0  0  0  0  # atno 8008 bound_to 7997
  156.1907  140.3078  155.9287 H   0  0  0  0  0  0  0  0  0  0  0  0  # atno 8009 bound_to 7997
  155.3156  140.0438  157.3027 H   0  0  0  0  0  0  0  0  0  0  0  0  # atno 8010 bound_to 7997
  139.6058  144.7069  151.2957 H   0  0  0  0  0  0  0  0  0  0  0  0  # atno 10167 bound_to 10162
  157.6382  131.0971  150.6924 H   0  0  0  0  0  0  0  0  0  0  0  0  # atno 10718 bound_to 10713
  154.7312  135.3047  154.8887 H   0  0  0  0  0  0  0  0  0  0  0  0  # atno 10763 bound_to 10752
  153.9730  135.6739  153.4751 H   0  0  0  0  0  0  0  0  0  0  0  0  # atno 10764 bound_to 10752
  153.0920  135.4954  154.8629 H   0  0  0  0  0  0  0  0  0  0  0  0  # atno 10765 bound_to 10752
  139.9857  134.9533  156.9737 H   0  0  0  0  0  0  0  0  0  0  0  0  # atno 11005 bound_to 11000
  145.1343  140.9535  143.4526 LP  0  0  0  0  0  0  0  0  0  0  0  0  # atno 17320 bound_to 7965
  145.0357  139.3302  143.6002 LP  0  0  0  0  0  0  0  0  0  0  0  0  # atno 17321 bound_to 7965
  140.7283  143.6938  150.7900 LP  0  0  0  0  0  0  0  0  0  0  0  0  # atno 17342 bound_to 10162
  140.0523  143.5237  152.2667 LP  0  0  0  0  0  0  0  0  0  0  0  0  # atno 17343 bound_to 10162
  156.7252  130.4693  149.5513 LP  0  0  0  0  0  0  0  0  0  0  0  0  # atno 17370 bound_to 10713
  156.1639  130.6392  151.0753 LP  0  0  0  0  0  0  0  0  0  0  0  0  # atno 17371 bound_to 10713
  140.5007  134.1100  155.7250 LP  0  0  0  0  0  0  0  0  0  0  0  0  # atno 17394 bound_to 11000
  141.1522  133.8947  157.2068 LP  0  0  0  0  0  0  0  0  0  0  0  0  # atno 17395 bound_to 11000

$$$$
