AV-unprocessed.smi:1493|AV-procd|sdf|6048|dock10
  -GOLD-   22720 6163D 1   1.00000     0.00000
 Structure written by MMmdl.
 33 33  0  0  0  0  0  0  0  0  2 V2000
  153.1442  142.3522  161.7426 C   0  0  0  0  0  0  0  0  0  0  0  0
  152.5552  143.4546  160.8558 C   0  0  0  0  0  0  0  0  0  0  0  0
  152.4422  143.0266  159.3823 C   0  0  0  0  0  0  0  0  0  0  0  0
  151.6964  144.0406  158.4942 C   0  0  2  0  0  0  0  0  0  0  0  0
  150.5464  144.7166  159.2580 C   0  0  0  0  0  0  0  0  0  0  0  0
  151.1816  143.3826  157.2956 N   0  0  0  0  0  0  0  0  0  0  0  0
  150.6132  142.1673  157.2566 C   0  0  0  0  0  0  0  0  0  0  0  0
  150.4496  141.4674  158.2574 O   0  0  0  0  0  0  0  0  0  0  0  0
  150.1511  141.6892  155.8712 C   0  0  0  0  0  0  0  0  0  0  0  0
  150.5570  140.3128  155.5503 N   0  0  0  0  0  0  0  0  0  0  0  0
  151.9802  140.1697  155.2554 N   0  5  0  0  0  0  0  0  0  0  0  0
  152.4683  138.9449  154.9238 C   0  0  0  0  0  0  0  0  0  0  0  0
  153.6494  138.7512  154.6456 O   0  0  0  0  0  0  0  0  0  0  0  0
  151.5452  137.8223  154.9062 C   0  0  0  0  0  0  0  0  0  0  0  0
  150.2416  137.9785  155.2101 C   0  0  0  0  0  0  0  0  0  0  0  0
  149.6745  139.2730  155.5678 C   0  0  0  0  0  0  0  0  0  0  0  0
  148.4877  139.4199  155.8612 O   0  0  0  0  0  0  0  0  0  0  0  0
  153.2113  142.6830  162.7792 H   0  0  0  0  0  0  0  0  0  0  0  0
  154.1473  142.0767  161.4157 H   0  0  0  0  0  0  0  0  0  0  0  0
  152.5249  141.4552  161.7188 H   0  0  0  0  0  0  0  0  0  0  0  0
  151.5697  143.7297  161.2328 H   0  0  0  0  0  0  0  0  0  0  0  0
  153.1766  144.3466  160.9403 H   0  0  0  0  0  0  0  0  0  0  0  0
  153.4400  142.8492  158.9782 H   0  0  0  0  0  0  0  0  0  0  0  0
  151.9229  142.0686  159.3344 H   0  0  0  0  0  0  0  0  0  0  0  0
  152.4093  144.8125  158.1981 H   0  0  0  0  0  0  0  0  0  0  0  0
  150.9142  145.2275  160.1481 H   0  0  0  0  0  0  0  0  0  0  0  0
  149.7997  143.9882  159.5764 H   0  0  0  0  0  0  0  0  0  0  0  0
  150.0431  145.4602  158.6391 H   0  0  0  0  0  0  0  0  0  0  0  0
  151.2685  143.8887  156.4263 H   0  0  0  0  0  0  0  0  0  0  0  0
  149.0652  141.7893  155.8277 H   0  0  0  0  0  0  0  0  0  0  0  0
  150.5384  142.3649  155.1064 H   0  0  0  0  0  0  0  0  0  0  0  0
  151.9130  136.8409  154.6460 H   0  0  0  0  0  0  0  0  0  0  0  0
  149.5927  137.1160  155.1859 H   0  0  0  0  0  0  0  0  0  0  0  0
  1  2  1  0  0  0  0
  1 18  1  0  0  0  0
  1 19  1  0  0  0  0
  1 20  1  0  0  0  0
  2  3  1  0  0  0  0
  2 21  1  0  0  0  0
  2 22  1  0  0  0  0
  3  4  1  0  0  0  0
  3 23  1  0  0  0  0
  3 24  1  0  0  0  0
  4  5  1  0  0  0  0
  4  6  1  0  0  0  0
  4 25  1  0  0  0  0
  5 26  1  0  0  0  0
  5 27  1  0  0  0  0
  5 28  1  0  0  0  0
  6  7  1  0  0  0  0
  6 29  1  0  0  0  0
  7  8  2  0  0  0  0
  7  9  1  0  0  0  0
  9 30  1  0  0  0  0
  9 31  1  0  0  0  0
  9 10  1  0  0  0  0
 10 11  1  0  0  0  0
 10 16  1  0  0  0  0
 11 12  1  0  0  0  0
 12 13  2  0  0  0  0
 12 14  1  0  0  0  0
 14 32  1  0  0  0  0
 14 15  2  0  0  0  0
 15 33  1  0  0  0  0
 15 16  1  0  0  0  0
 16 17  2  0  0  0  0
M  CHG  1  11  -1
M  END
> <s_m_source_file>
AV-unprocessed.smi

> <i_m_source_file_index>
1493

> <i_lp_mmshare_version>
43012

> <i_f3d_flags>
0

> <s_epik_input>
W0NIM11bQ0gyXVtDSDJdW0NASF0oW0NIM10pW05IXUMoPU8pW0NIMl1uMVtuSF1jKD1PKVtjSF1bY0hdYzE9Tw==

> <s_epik_cmdline>
J2VwaWtfcHl0aG9uJywgJy1waCcsICc3LjAnLCAnLXRuJywgJzgnLCAnLW1hJywgJzIwMCcsICctbWV0YWxfYmluZGluZycsICctaW1hZScsICc8aW5maWxlLm1hZT4nLCAnLW9tYWUnLCAnPG91dGZpbGUubWFlPic=

> <r_lp_tautomer_probability>
1

> <r_epik_Ionization_Penalty>
0.0986298

> <r_epik_Ionization_Penalty_Charging>
0.0986298

> <r_epik_Ionization_Penalty_Neutral>
1.93017e-08

> <r_epik_State_Penalty>
0.0347731

> <r_epik_Charging_Adjusted_Penalty>
0.133403

> <i_epik_Tot_Q>
-1

> <i_epik_Tot_abs_Q>
1

> <r_epik_Metal_State_Penalty>
0.0347731

> <b_epik_Metal_Only>
0

> <s_lp_Force_Field>
OPLS_2005

> <r_lp_Energy>
18.8288

> <b_lp_Chiralities_Consistent>
1

> <s_lp_Variant>
AV-unprocessed.smi:1493-1

> <Gold.Version>
5.8.1

> <Gold.Id.Protein>
6NUR|6NUR_protein|mol2

> <Gold.PLP.Fitness>
41.1242

> <Gold.PLP.PLP>
-38.9173

> <Gold.PLP.part.hbond>
-2.7759

> <Gold.PLP.part.metal>
0.0000

> <Gold.PLP.part.buried>
-6.0770

> <Gold.PLP.part.nonpolar>
-31.4646

> <Gold.PLP.part.repulsive>
0.0557

> <Gold.PLP.ligand.clash>
0.0000

> <Gold.PLP.ligand.torsion>
0.8483

> <Gold.PLP.Chemscore.Hbond>
1.2928

> <Gold.PLP.Chemscore.CHOScore>
0.0000

> <Gold.PLP.Chemscore.Metal>
0.0000

> <Gold.Chemscore.Hbonds>
donor molecule, donor type, donor heavy atom, donor atom, acceptor molecule, acceptor atom, score
      P1  H  7989  7998       L1    11  0.39
      P1  H  7997  8009       L1    13  0.98

> <Gold.PLP.Chemscore.Internal.Correction>
0.0251

> <Gold.Rescore>
     Score         DG    S(hbond)    S(metal)    S(lipo)     H(rot)  DE(clash)    DE(int)     intcor
     12.56     -14.36       1.84        0.00      70.21       2.14       0.04       1.75       ----

> <Gold.Chemscore.Fitness>
12.5646

> <Gold.Chemscore.DG>
-14.3590

> <Gold.Chemscore.ZeroCoef>
-5.4800

> <Gold.Chemscore.Hbond>
1.8372

> <Gold.Chemscore.Metal>
0.0000

> <Gold.Chemscore.Lipo>
70.2067

> <Gold.Chemscore.Internal_Hbond>
0.0000

> <Gold.Chemscore.DEClash>
0.0398

> <Gold.Chemscore.DEInternal>
1.7546

> <Gold.Chemscore.Rot>
2.1372

> <Gold.Chemscore.Internal.Correction>
   9.000000E+99

> <Gold.Chemscore.Hbonds>
donor molecule, donor type, donor heavy atom, donor atom, acceptor molecule, acceptor atom, score
      P1  H  7997  8009       L1    13  0.30

> <Gold.Chemscore.Hbond.Weighted>
-6.1362

> <Gold.Chemscore.Metal.Weighted>
-0.0000

> <Gold.Chemscore.Lipo.Weighted>
-8.2142

> <Gold.Chemscore.Internal_Hbond.Weighted>
0.0000

> <Gold.Chemscore.DEClash.Weighted>
0.0398

> <Gold.Chemscore.DEInternal.Weighted>
1.7546

> <Gold.Chemscore.Rot.Weighted>
5.4713

> <Gold.Chemscore.Internal.Correction.Weighted>
   9.000000E+99

> <Gold.Protein.RotatedTorsions>
[ 6907 6896 6895 6894 ] final  104.05 input  -60.11 | X-H torsion
[ 7974 7965 7964 7962 ] final  -85.64 input  175.53 | X-H torsion
[ 8008 7997 7996 7995 ] final -124.65 input   59.86 | X-H torsion
[ 10167 10162 10161 10158 ] final   48.89 input  -65.29 | X-H torsion
[ 10718 10713 10712 10709 ] final  -27.72 input   66.30 | X-H torsion
[ 10763 10752 10751 10750 ] final    1.42 input  -60.55 | X-H torsion
[ 11005 11000 10999 10996 ] final  -54.06 input  -57.11 | X-H torsion

> <Gold.Protein.ActiveResidues>
 VAL166  LYS551  ARG553  GLY616  TRP617  ASP618  TYR619  PRO620  LYS621  CYS622 
 ASP623  PHE694  ASN695  SER759  ASP760  ASP761  ALA762  ILE779  LEU786  VAL792 
 PHE793  MET794  SER795  GLU796  ALA797  LYS798  CYS799  TRP800  GLU811  SER814 

> <Gold.Protein.RotatedAtoms>
  152.5276  133.9734  159.7772 H   0  0  0  0  0  0  0  0  0  0  0  0  # atno 6907 bound_to 6896
  151.0001  133.6056  159.2703 H   0  0  0  0  0  0  0  0  0  0  0  0  # atno 6908 bound_to 6896
  151.3168  135.0815  159.9345 H   0  0  0  0  0  0  0  0  0  0  0  0  # atno 6909 bound_to 6896
  145.4906  140.9553  143.1814 H   0  0  0  0  0  0  0  0  0  0  0  0  # atno 7974 bound_to 7965
  155.2003  140.0415  157.2916 H   0  0  0  0  0  0  0  0  0  0  0  0  # atno 8008 bound_to 7997
  154.6079  140.2469  155.7678 H   0  0  0  0  0  0  0  0  0  0  0  0  # atno 8009 bound_to 7997
  156.2361  140.2921  156.0327 H   0  0  0  0  0  0  0  0  0  0  0  0  # atno 8010 bound_to 7997
  140.2886  144.3072  150.6246 H   0  0  0  0  0  0  0  0  0  0  0  0  # atno 10167 bound_to 10162
  156.4345  130.4452  149.7094 H   0  0  0  0  0  0  0  0  0  0  0  0  # atno 10718 bound_to 10713
  153.3083  135.6961  153.7139 H   0  0  0  0  0  0  0  0  0  0  0  0  # atno 10763 bound_to 10752
  153.6027  135.3459  155.2951 H   0  0  0  0  0  0  0  0  0  0  0  0  # atno 10764 bound_to 10752
  154.8568  135.4344  154.2213 H   0  0  0  0  0  0  0  0  0  0  0  0  # atno 10765 bound_to 10752
  141.1007  133.6618  156.4264 H   0  0  0  0  0  0  0  0  0  0  0  0  # atno 11005 bound_to 11000
  144.7836  139.6474  143.7144 LP  0  0  0  0  0  0  0  0  0  0  0  0  # atno 17320 bound_to 7965
  146.2286  139.5771  142.9570 LP  0  0  0  0  0  0  0  0  0  0  0  0  # atno 17321 bound_to 7965
  140.5751  143.2177  151.7529 LP  0  0  0  0  0  0  0  0  0  0  0  0  # atno 17342 bound_to 10162
  139.4944  144.4161  152.0029 LP  0  0  0  0  0  0  0  0  0  0  0  0  # atno 17343 bound_to 10162
  156.3984  130.7662  151.2668 LP  0  0  0  0  0  0  0  0  0  0  0  0  # atno 17370 bound_to 10713
  157.7507  131.0247  150.3888 LP  0  0  0  0  0  0  0  0  0  0  0  0  # atno 17371 bound_to 10713
  140.5029  134.6468  157.5255 LP  0  0  0  0  0  0  0  0  0  0  0  0  # atno 17394 bound_to 11000
  139.9857  134.7065  155.9778 LP  0  0  0  0  0  0  0  0  0  0  0  0  # atno 17395 bound_to 11000

$$$$
