AV-unprocessed.smi:2930|AV-procd|sdf|11240|dock2
  -GOLD-   2272016133D 1   1.00000     0.00000
 Structure written by MMmdl.
 40 41  0  0  0  0  0  0  0  0  1 V2000
  148.3903  140.7273  154.1085 C   0  0  0  0  0  0  0  0  0  0  0  0
  147.0058  140.7150  154.7709 C   0  0  2  0  0  0  0  0  0  0  0  0
  146.1019  139.8857  153.9776 N   0  0  0  0  0  0  0  0  0  0  0  0
  146.2931  138.5954  153.6672 C   0  0  0  0  0  0  0  0  0  0  0  0
  147.2809  137.9492  154.0156 O   0  0  0  0  0  0  0  0  0  0  0  0
  145.2792  138.1220  152.9233 N   0  0  0  0  0  0  0  0  0  0  0  0
  145.0919  136.8069  152.4201 C   0  0  0  0  0  0  0  0  0  0  0  0
  143.9239  136.3373  151.7729 C   0  0  0  0  0  0  0  0  0  0  0  0
  143.8328  135.0741  151.3052 N   0  0  0  0  0  0  0  0  0  0  0  0
  144.8907  134.2689  151.4687 C   0  0  0  0  0  0  0  0  0  0  0  0
  144.7866  132.9623  150.9829 N   0  0  0  0  0  0  0  0  0  0  0  0
  143.5154  132.4361  150.4943 C   0  0  0  0  0  0  0  0  0  0  0  0
  145.9428  132.0710  150.9579 C   0  0  0  0  0  0  0  0  0  0  0  0
  146.0423  134.6186  152.0569 N   0  0  0  0  0  0  0  0  0  0  0  0
  146.1469  135.8791  152.5273 C   0  0  0  0  0  0  0  0  0  0  0  0
  146.4295  142.1241  154.9231 C   0  0  0  0  0  0  0  0  0  0  0  0
  144.9523  142.3121  155.3024 C   0  0  0  0  0  0  0  0  0  0  0  0
  144.9324  143.5643  154.4214 C   0  0  0  0  0  0  0  0  0  0  0  0
  146.1392  142.9822  153.6812 C   0  0  0  0  0  0  0  0  0  0  0  0
  149.1018  141.3093  154.6949 H   0  0  0  0  0  0  0  0  0  0  0  0
  148.3492  141.1624  153.1092 H   0  0  0  0  0  0  0  0  0  0  0  0
  148.7905  139.7171  154.0169 H   0  0  0  0  0  0  0  0  0  0  0  0
  147.1280  140.2688  155.7596 H   0  0  0  0  0  0  0  0  0  0  0  0
  145.2608  140.3315  153.6424 H   0  0  0  0  0  0  0  0  0  0  0  0
  144.5741  138.7929  152.6554 H   0  0  0  0  0  0  0  0  0  0  0  0
  143.0593  136.9584  151.6001 H   0  0  0  0  0  0  0  0  0  0  0  0
  143.1562  133.0301  149.6534 H   0  0  0  0  0  0  0  0  0  0  0  0
  142.7634  132.4660  151.2833 H   0  0  0  0  0  0  0  0  0  0  0  0
  143.6030  131.4030  150.1581 H   0  0  0  0  0  0  0  0  0  0  0  0
  146.3191  131.9107  151.9687 H   0  0  0  0  0  0  0  0  0  0  0  0
  146.7437  132.5026  150.3569 H   0  0  0  0  0  0  0  0  0  0  0  0
  145.6986  131.0966  150.5347 H   0  0  0  0  0  0  0  0  0  0  0  0
  147.0828  136.1469  152.9957 H   0  0  0  0  0  0  0  0  0  0  0  0
  147.0360  142.7138  155.6142 H   0  0  0  0  0  0  0  0  0  0  0  0
  144.3112  141.5171  154.9176 H   0  0  0  0  0  0  0  0  0  0  0  0
  144.7729  142.4952  156.3622 H   0  0  0  0  0  0  0  0  0  0  0  0
  144.0360  143.6812  153.8119 H   0  0  0  0  0  0  0  0  0  0  0  0
  145.1723  144.4748  154.9727 H   0  0  0  0  0  0  0  0  0  0  0  0
  146.9183  143.7041  153.4344 H   0  0  0  0  0  0  0  0  0  0  0  0
  145.8516  142.3884  152.8120 H   0  0  0  0  0  0  0  0  0  0  0  0
  1  2  1  0  0  0  0
  1 20  1  0  0  0  0
  1 21  1  0  0  0  0
  1 22  1  0  0  0  0
  2  3  1  0  0  0  0
  2 16  1  0  0  0  0
  2 23  1  0  0  0  0
  3  4  1  0  0  0  0
  3 24  1  0  0  0  0
  4  5  2  0  0  0  0
  4  6  1  0  0  0  0
  6  7  1  0  0  0  0
  6 25  1  0  0  0  0
  7 15  1  0  0  0  0
  7  8  2  0  0  0  0
  8  9  1  0  0  0  0
  8 26  1  0  0  0  0
  9 10  2  0  0  0  0
 10 11  1  0  0  0  0
 10 14  1  0  0  0  0
 11 12  1  0  0  0  0
 11 13  1  0  0  0  0
 12 27  1  0  0  0  0
 12 28  1  0  0  0  0
 12 29  1  0  0  0  0
 13 30  1  0  0  0  0
 13 31  1  0  0  0  0
 13 32  1  0  0  0  0
 14 15  2  0  0  0  0
 15 33  1  0  0  0  0
 16 19  1  0  0  0  0
 16 17  1  0  0  0  0
 16 34  1  0  0  0  0
 17 18  1  0  0  0  0
 17 35  1  0  0  0  0
 17 36  1  0  0  0  0
 18 19  1  0  0  0  0
 18 37  1  0  0  0  0
 18 38  1  0  0  0  0
 19 39  1  0  0  0  0
 19 40  1  0  0  0  0
M  END
> <s_m_source_file>
AV-unprocessed.smi

> <i_m_source_file_index>
2930

> <i_lp_mmshare_version>
43012

> <i_f3d_flags>
0

> <s_epik_input>
W0NIMl0xW0NIMl1bQ0gyXVtDSF0xW0NASF0oW0NIM10pW05IXUMoPU8pW05IXWMyW2NIXW5jKE4oW0NIM10pW0NIM10pbltjSF0y

> <s_epik_cmdline>
J2VwaWtfcHl0aG9uJywgJy1waCcsICc3LjAnLCAnLXRuJywgJzgnLCAnLW1hJywgJzIwMCcsICctbWV0YWxfYmluZGluZycsICctaW1hZScsICc8aW5maWxlLm1hZT4nLCAnLW9tYWUnLCAnPG91dGZpbGUubWFlPic=

> <r_lp_tautomer_probability>
1

> <r_epik_Ionization_Penalty>
0.000323856

> <r_epik_Ionization_Penalty_Charging>
0

> <r_epik_Ionization_Penalty_Neutral>
0.000323856

> <r_epik_State_Penalty>
-0

> <r_epik_Charging_Adjusted_Penalty>
0

> <i_epik_Tot_Q>
0

> <i_epik_Tot_abs_Q>
0

> <r_epik_Metal_State_Penalty>
-0

> <b_epik_Metal_Only>
0

> <s_lp_Force_Field>
OPLS_2005

> <r_lp_Energy>
8.18879

> <b_lp_Chiralities_Consistent>
1

> <s_lp_Variant>
AV-unprocessed.smi:2930-1

> <Gold.Version>
5.8.1

> <Gold.Id.Protein>
6NUR|6NUR_protein|mol2

> <Gold.PLP.Fitness>
39.4499

> <Gold.PLP.PLP>
-29.6357

> <Gold.PLP.part.hbond>
-2.0000

> <Gold.PLP.part.metal>
0.0000

> <Gold.PLP.part.buried>
-2.3513

> <Gold.PLP.part.nonpolar>
-25.8334

> <Gold.PLP.part.repulsive>
0.4693

> <Gold.PLP.ligand.clash>
0.0000

> <Gold.PLP.ligand.torsion>
0.1374

> <Gold.PLP.Chemscore.Hbond>
2.0000

> <Gold.PLP.Chemscore.CHOScore>
1.3197

> <Gold.PLP.Chemscore.Metal>
0.0000

> <Gold.Chemscore.Hbonds>
donor molecule, donor type, donor heavy atom, donor atom, acceptor molecule, acceptor atom, score
      L1  H     3    24       P1 10175  1.00
      L1  H     6    25       P1 10175  1.00
      L1  C     8    26       P1 10171  0.48
      L1  C    15    33       P1  7948  0.82

> <Gold.PLP.Chemscore.Internal.Correction>
0.1300

> <Gold.Rescore>
     Score         DG    S(hbond)    S(metal)    S(lipo)     H(rot)  DE(clash)    DE(int)     intcor
     14.33     -16.49       1.97        0.00      64.05       1.19       0.58       1.58       ----

> <Gold.Chemscore.Fitness>
14.3319

> <Gold.Chemscore.DG>
-16.4900

> <Gold.Chemscore.ZeroCoef>
-5.4800

> <Gold.Chemscore.Hbond>
1.9687

> <Gold.Chemscore.Metal>
0.0000

> <Gold.Chemscore.Lipo>
64.0484

> <Gold.Chemscore.Internal_Hbond>
0.0000

> <Gold.Chemscore.DEClash>
0.5818

> <Gold.Chemscore.DEInternal>
1.5763

> <Gold.Chemscore.Rot>
1.1949

> <Gold.Chemscore.Internal.Correction>
   9.000000E+99

> <Gold.Chemscore.Hbonds>
donor molecule, donor type, donor heavy atom, donor atom, acceptor molecule, acceptor atom, score
      L1  H     3    24       P1 10175  0.96
      L1  H     6    25       P1 10175  1.00

> <Gold.Chemscore.Hbond.Weighted>
-6.5753

> <Gold.Chemscore.Metal.Weighted>
-0.0000

> <Gold.Chemscore.Lipo.Weighted>
-7.4937

> <Gold.Chemscore.Internal_Hbond.Weighted>
0.0000

> <Gold.Chemscore.DEClash.Weighted>
0.5818

> <Gold.Chemscore.DEInternal.Weighted>
1.5763

> <Gold.Chemscore.Rot.Weighted>
3.0590

> <Gold.Chemscore.Internal.Correction.Weighted>
   9.000000E+99

> <Gold.Protein.RotatedTorsions>
[ 6907 6896 6895 6894 ] final  131.29 input  -60.11 | X-H torsion
[ 7974 7965 7964 7962 ] final  -89.58 input  175.53 | X-H torsion
[ 8008 7997 7996 7995 ] final   89.87 input   59.86 | X-H torsion
[ 10167 10162 10161 10158 ] final -144.43 input  -65.29 | X-H torsion
[ 10718 10713 10712 10709 ] final  -33.45 input   66.30 | X-H torsion
[ 10763 10752 10751 10750 ] final   52.84 input  -60.55 | X-H torsion
[ 11005 11000 10999 10996 ] final   57.23 input  -57.11 | X-H torsion

> <Gold.Protein.ActiveResidues>
 VAL166  LYS551  ARG553  GLY616  TRP617  ASP618  TYR619  PRO620  LYS621  CYS622 
 ASP623  PHE694  ASN695  SER759  ASP760  ASP761  ALA762  ILE779  LEU786  VAL792 
 PHE793  MET794  SER795  GLU796  ALA797  LYS798  CYS799  TRP800  GLU811  SER814 

> <Gold.Protein.RotatedAtoms>
  152.3441  133.6102  159.5897 H   0  0  0  0  0  0  0  0  0  0  0  0  # atno 6907 bound_to 6896
  150.7497  133.9676  159.3544 H   0  0  0  0  0  0  0  0  0  0  0  0  # atno 6908 bound_to 6896
  151.7536  135.0827  160.0386 H   0  0  0  0  0  0  0  0  0  0  0  0  # atno 6909 bound_to 6896
  145.4379  140.9558  143.2092 H   0  0  0  0  0  0  0  0  0  0  0  0  # atno 7974 bound_to 7965
  156.0052  140.3356  155.6885 H   0  0  0  0  0  0  0  0  0  0  0  0  # atno 8008 bound_to 7997
  155.6235  140.0677  157.2689 H   0  0  0  0  0  0  0  0  0  0  0  0  # atno 8009 bound_to 7997
  154.4262  140.1772  156.1384 H   0  0  0  0  0  0  0  0  0  0  0  0  # atno 8010 bound_to 7997
  139.7899  143.7980  152.2649 H   0  0  0  0  0  0  0  0  0  0  0  0  # atno 10167 bound_to 10162
  156.3626  130.4326  149.7611 H   0  0  0  0  0  0  0  0  0  0  0  0  # atno 10718 bound_to 10713
  152.9791  135.5799  154.4644 H   0  0  0  0  0  0  0  0  0  0  0  0  # atno 10763 bound_to 10752
  154.4215  135.2771  155.1974 H   0  0  0  0  0  0  0  0  0  0  0  0  # atno 10764 bound_to 10752
  154.3721  135.6165  153.5799 H   0  0  0  0  0  0  0  0  0  0  0  0  # atno 10765 bound_to 10752
  140.0468  134.5794  155.9312 H   0  0  0  0  0  0  0  0  0  0  0  0  # atno 11005 bound_to 11000
  144.8141  139.5909  143.7016 LP  0  0  0  0  0  0  0  0  0  0  0  0  # atno 17320 bound_to 7965
  146.2572  139.6329  142.9387 LP  0  0  0  0  0  0  0  0  0  0  0  0  # atno 17321 bound_to 7965
  139.8068  144.7352  150.9750 LP  0  0  0  0  0  0  0  0  0  0  0  0  # atno 17342 bound_to 10162
  140.7820  143.4290  151.0724 LP  0  0  0  0  0  0  0  0  0  0  0  0  # atno 17343 bound_to 10162
  156.4770  130.8023  151.3039 LP  0  0  0  0  0  0  0  0  0  0  0  0  # atno 17370 bound_to 10713
  157.7475  131.0018  150.2976 LP  0  0  0  0  0  0  0  0  0  0  0  0  # atno 17371 bound_to 10713
  141.1911  133.6570  156.5441 LP  0  0  0  0  0  0  0  0  0  0  0  0  # atno 17394 bound_to 11000
  140.3980  134.7381  157.4762 LP  0  0  0  0  0  0  0  0  0  0  0  0  # atno 17395 bound_to 11000

$$$$
