AV-unprocessed.smi:1769|AV-procd|sdf|7152|dock9
  -GOLD-   22720 8393D 1   1.00000     0.00000
 Structure written by MMmdl.
 41 42  0  0  0  0  0  0  0  0  1 V2000
  151.8946  145.1697  160.7336 C   0  0  0  0  0  0  0  0  0  0  0  0
  151.3493  144.7986  159.3526 C   0  0  0  0  0  0  0  0  0  0  0  0
  150.3026  145.3307  158.9818 O   0  0  0  0  0  0  0  0  0  0  0  0
  152.0254  143.9041  158.5920 N   0  0  0  0  0  0  0  0  0  0  0  0
  153.2269  143.1696  159.0088 C   0  0  0  0  0  0  0  0  0  0  0  0
  152.8506  141.6935  159.2309 C   0  0  0  0  0  0  0  0  0  0  0  0
  152.2062  141.0916  157.9667 C   0  0  0  0  0  0  0  0  0  0  0  0
  151.0523  141.9752  157.4362 C   0  0  2  0  0  0  0  0  0  0  0  0
  150.5071  141.4536  156.1011 C   0  0  0  0  0  0  0  0  0  0  0  0
  151.1423  140.6194  155.4553 O   0  0  0  0  0  0  0  0  0  0  0  0
  149.3408  141.9757  155.6881 N   0  0  0  0  0  0  0  0  0  0  0  0
  148.6912  141.6973  154.4094 C   0  0  0  0  0  0  0  0  0  0  0  0
  147.2311  141.2371  154.5884 C   0  0  0  0  0  0  0  0  0  0  0  0
  146.2432  142.3837  154.7178 C   0  0  0  0  0  0  0  0  0  0  0  0
  145.9223  143.1956  153.6100 C   0  0  0  0  0  0  0  0  0  0  0  0
  144.9746  144.2236  153.7739 C   0  0  0  0  0  0  0  0  0  0  0  0
  144.3906  144.4005  155.0440 C   0  0  0  0  0  0  0  0  0  0  0  0
  144.6949  143.6342  156.1135 N   0  0  0  0  0  0  0  0  0  0  0  0
  145.6019  142.6479  155.9466 C   0  0  0  0  0  0  0  0  0  0  0  0
  151.5308  143.4374  157.2913 C   0  0  0  0  0  0  0  0  0  0  0  0
  151.9804  144.2858  161.3665 H   0  0  0  0  0  0  0  0  0  0  0  0
  151.2279  145.8725  161.2345 H   0  0  0  0  0  0  0  0  0  0  0  0
  152.8733  145.6422  160.6482 H   0  0  0  0  0  0  0  0  0  0  0  0
  153.9820  143.2469  158.2253 H   0  0  0  0  0  0  0  0  0  0  0  0
  153.6973  143.5723  159.9046 H   0  0  0  0  0  0  0  0  0  0  0  0
  153.7344  141.1185  159.5081 H   0  0  0  0  0  0  0  0  0  0  0  0
  152.1556  141.6173  160.0680 H   0  0  0  0  0  0  0  0  0  0  0  0
  152.9765  140.9859  157.2011 H   0  0  0  0  0  0  0  0  0  0  0  0
  151.8452  140.0846  158.1795 H   0  0  0  0  0  0  0  0  0  0  0  0
  150.2440  141.9524  158.1701 H   0  0  0  0  0  0  0  0  0  0  0  0
  148.8920  142.6549  156.2856 H   0  0  0  0  0  0  0  0  0  0  0  0
  148.7302  142.5721  153.7580 H   0  0  0  0  0  0  0  0  0  0  0  0
  149.2595  140.9181  153.9012 H   0  0  0  0  0  0  0  0  0  0  0  0
  146.9372  140.6162  153.7414 H   0  0  0  0  0  0  0  0  0  0  0  0
  147.1529  140.6006  155.4706 H   0  0  0  0  0  0  0  0  0  0  0  0
  146.3813  143.0254  152.6472 H   0  0  0  0  0  0  0  0  0  0  0  0
  144.6983  144.8582  152.9447 H   0  0  0  0  0  0  0  0  0  0  0  0
  143.6591  145.1784  155.2050 H   0  0  0  0  0  0  0  0  0  0  0  0
  145.8164  142.0459  156.8174 H   0  0  0  0  0  0  0  0  0  0  0  0
  150.7257  144.0637  156.9041 H   0  0  0  0  0  0  0  0  0  0  0  0
  152.3350  143.5083  156.5569 H   0  0  0  0  0  0  0  0  0  0  0  0
  1  2  1  0  0  0  0
  1 21  1  0  0  0  0
  1 22  1  0  0  0  0
  1 23  1  0  0  0  0
  2  3  2  0  0  0  0
  2  4  1  0  0  0  0
  4 20  1  0  0  0  0
  4  5  1  0  0  0  0
  5  6  1  0  0  0  0
  5 24  1  0  0  0  0
  5 25  1  0  0  0  0
  6  7  1  0  0  0  0
  6 26  1  0  0  0  0
  6 27  1  0  0  0  0
  7  8  1  0  0  0  0
  7 28  1  0  0  0  0
  7 29  1  0  0  0  0
  8  9  1  0  0  0  0
  8 20  1  0  0  0  0
  8 30  1  0  0  0  0
  9 10  2  0  0  0  0
  9 11  1  0  0  0  0
 11 12  1  0  0  0  0
 11 31  1  0  0  0  0
 12 13  1  0  0  0  0
 12 32  1  0  0  0  0
 12 33  1  0  0  0  0
 13 14  1  0  0  0  0
 13 34  1  0  0  0  0
 13 35  1  0  0  0  0
 14 19  1  0  0  0  0
 14 15  2  0  0  0  0
 15 16  1  0  0  0  0
 15 36  1  0  0  0  0
 16 17  2  0  0  0  0
 16 37  1  0  0  0  0
 17 18  1  0  0  0  0
 17 38  1  0  0  0  0
 18 19  2  0  0  0  0
 19 39  1  0  0  0  0
 20 40  1  0  0  0  0
 20 41  1  0  0  0  0
M  END
> <s_m_source_file>
AV-unprocessed.smi

> <i_m_source_file_index>
1769

> <i_lp_mmshare_version>
43012

> <i_f3d_flags>
0

> <s_epik_input>
W0NIM11DKD1PKU4xW0NIMl1bQ0gyXVtDSDJdW0NASF0oW0NIMl0xKUMoPU8pW05IXVtDSDJdW0NIMl1jMltjSF1bY0hdW2NIXW5bY0hdMg==

> <s_epik_cmdline>
J2VwaWtfcHl0aG9uJywgJy1waCcsICc3LjAnLCAnLXRuJywgJzgnLCAnLW1hJywgJzIwMCcsICctbWV0YWxfYmluZGluZycsICctaW1hZScsICc8aW5maWxlLm1hZT4nLCAnLW9tYWUnLCAnPG91dGZpbGUubWFlPic=

> <r_epik_Ionization_Penalty>
0.0134099

> <r_epik_Ionization_Penalty_Charging>
0

> <r_epik_Ionization_Penalty_Neutral>
0.0134099

> <r_epik_State_Penalty>
0.010434

> <r_epik_Charging_Adjusted_Penalty>
0.010434

> <i_epik_Tot_Q>
0

> <i_epik_Tot_abs_Q>
0

> <r_epik_Metal_State_Penalty>
0.0102025

> <b_epik_Metal_Only>
0

> <s_lp_Force_Field>
OPLS_2005

> <r_lp_Energy>
22.8084

> <b_lp_Chiralities_Consistent>
1

> <s_lp_Variant>
AV-unprocessed.smi:1769-2

> <Gold.Version>
5.8.1

> <Gold.Id.Protein>
6NUR|6NUR_protein|mol2

> <Gold.PLP.Fitness>
48.3552

> <Gold.PLP.PLP>
-45.9889

> <Gold.PLP.part.hbond>
-2.1035

> <Gold.PLP.part.metal>
0.0000

> <Gold.PLP.part.buried>
-5.7298

> <Gold.PLP.part.nonpolar>
-38.8508

> <Gold.PLP.part.repulsive>
1.2672

> <Gold.PLP.ligand.clash>
0.0000

> <Gold.PLP.ligand.torsion>
0.5406

> <Gold.PLP.Chemscore.Hbond>
1.1386

> <Gold.PLP.Chemscore.CHOScore>
0.0000

> <Gold.PLP.Chemscore.Metal>
0.0000

> <Gold.Chemscore.Hbonds>
donor molecule, donor type, donor heavy atom, donor atom, acceptor molecule, acceptor atom, score
      L1  H    11    31       P1  8028  0.25
      P1  H  7989  7998       L1    10  0.86

> <Gold.PLP.Chemscore.Internal.Correction>
0.0318

> <Gold.Rescore>
     Score         DG    S(hbond)    S(metal)    S(lipo)     H(rot)  DE(clash)    DE(int)     intcor
     16.30     -17.05       1.11        0.00     100.45       1.52       0.28       0.46       ----

> <Gold.Chemscore.Fitness>
16.3036

> <Gold.Chemscore.DG>
-17.0462

> <Gold.Chemscore.ZeroCoef>
-5.4800

> <Gold.Chemscore.Hbond>
1.1095

> <Gold.Chemscore.Metal>
0.0000

> <Gold.Chemscore.Lipo>
100.4544

> <Gold.Chemscore.Internal_Hbond>
0.0000

> <Gold.Chemscore.DEClash>
0.2797

> <Gold.Chemscore.DEInternal>
0.4630

> <Gold.Chemscore.Rot>
1.5205

> <Gold.Chemscore.Internal.Correction>
   9.000000E+99

> <Gold.Chemscore.Hbonds>
donor molecule, donor type, donor heavy atom, donor atom, acceptor molecule, acceptor atom, score
      L1  H    11    31       P1  8028  0.26
      P1  H  7989  7998       L1    10  0.79

> <Gold.Chemscore.Hbond.Weighted>
-3.7056

> <Gold.Chemscore.Metal.Weighted>
-0.0000

> <Gold.Chemscore.Lipo.Weighted>
-11.7532

> <Gold.Chemscore.Internal_Hbond.Weighted>
0.0000

> <Gold.Chemscore.DEClash.Weighted>
0.2797

> <Gold.Chemscore.DEInternal.Weighted>
0.4630

> <Gold.Chemscore.Rot.Weighted>
3.8926

> <Gold.Chemscore.Internal.Correction.Weighted>
   9.000000E+99

> <Gold.Protein.RotatedTorsions>
[ 6907 6896 6895 6894 ] final   27.55 input  -60.11 | X-H torsion
[ 7974 7965 7964 7962 ] final  -40.11 input  175.53 | X-H torsion
[ 8008 7997 7996 7995 ] final  160.53 input   59.86 | X-H torsion
[ 10167 10162 10161 10158 ] final   -6.80 input  -65.29 | X-H torsion
[ 10718 10713 10712 10709 ] final  -73.73 input   66.30 | X-H torsion
[ 10763 10752 10751 10750 ] final -178.49 input  -60.55 | X-H torsion
[ 11005 11000 10999 10996 ] final   66.92 input  -57.11 | X-H torsion

> <Gold.Protein.ActiveResidues>
 VAL166  LYS551  ARG553  GLY616  TRP617  ASP618  TYR619  PRO620  LYS621  CYS622 
 ASP623  PHE694  ASN695  SER759  ASP760  ASP761  ALA762  ILE779  LEU786  VAL792 
 PHE793  MET794  SER795  GLU796  ALA797  LYS798  CYS799  TRP800  GLU811  SER814 

> <Gold.Protein.RotatedAtoms>
  152.0040  134.9913  160.0565 H   0  0  0  0  0  0  0  0  0  0  0  0  # atno 6907 bound_to 6896
  152.1492  133.4507  159.4813 H   0  0  0  0  0  0  0  0  0  0  0  0  # atno 6908 bound_to 6896
  150.6873  134.2128  159.4409 H   0  0  0  0  0  0  0  0  0  0  0  0  # atno 6909 bound_to 6896
  146.0334  140.6702  142.9121 H   0  0  0  0  0  0  0  0  0  0  0  0  # atno 7974 bound_to 7965
  156.2166  140.1801  156.7575 H   0  0  0  0  0  0  0  0  0  0  0  0  # atno 8008 bound_to 7997
  154.5800  140.0668  156.9120 H   0  0  0  0  0  0  0  0  0  0  0  0  # atno 8009 bound_to 7997
  155.2519  140.3329  155.4284 H   0  0  0  0  0  0  0  0  0  0  0  0  # atno 8010 bound_to 7997
  140.7009  143.6153  150.8665 H   0  0  0  0  0  0  0  0  0  0  0  0  # atno 10167 bound_to 10162
  156.0269  130.4401  150.2787 H   0  0  0  0  0  0  0  0  0  0  0  0  # atno 10718 bound_to 10713
  154.5470  135.2810  155.1043 H   0  0  0  0  0  0  0  0  0  0  0  0  # atno 10763 bound_to 10752
  154.2503  135.6340  153.5242 H   0  0  0  0  0  0  0  0  0  0  0  0  # atno 10764 bound_to 10752
  152.9993  135.5581  154.6026 H   0  0  0  0  0  0  0  0  0  0  0  0  # atno 10765 bound_to 10752
  139.9802  134.6756  156.0277 H   0  0  0  0  0  0  0  0  0  0  0  0  # atno 11005 bound_to 11000
  144.7041  140.3777  143.7132 LP  0  0  0  0  0  0  0  0  0  0  0  0  # atno 17320 bound_to 7965
  145.7003  139.1659  143.2596 LP  0  0  0  0  0  0  0  0  0  0  0  0  # atno 17321 bound_to 7965
  139.9875  143.5884  152.2922 LP  0  0  0  0  0  0  0  0  0  0  0  0  # atno 17342 bound_to 10162
  139.6527  144.7661  151.2117 LP  0  0  0  0  0  0  0  0  0  0  0  0  # atno 17343 bound_to 10162
  157.0890  131.0164  151.3128 LP  0  0  0  0  0  0  0  0  0  0  0  0  # atno 17370 bound_to 10713
  157.4869  130.7798  149.7468 LP  0  0  0  0  0  0  0  0  0  0  0  0  # atno 17371 bound_to 10713
  141.1475  133.6553  156.3912 LP  0  0  0  0  0  0  0  0  0  0  0  0  # atno 17394 bound_to 11000
  140.5112  134.6393  157.5285 LP  0  0  0  0  0  0  0  0  0  0  0  0  # atno 17395 bound_to 11000

$$$$
