AV-unprocessed.smi:759|AV-procd|sdf|3620|dock7
  -GOLD-   22720 1 13D 1   1.00000     0.00000
 Structure written by MMmdl.
 24 25  0  0  0  0  0  0  0  0  2 V2000
  152.9198  138.6540  158.3152 C   0  0  0  0  0  0  0  0  0  0  0  0
  151.6655  138.3347  158.6287 N   0  0  0  0  0  0  0  0  0  0  0  0
  150.9824  139.4683  158.8967 N   0  0  0  0  0  0  0  0  0  0  0  0
  151.9139  140.4067  158.7174 C   0  0  0  0  0  0  0  0  0  0  0  0
  151.5967  141.8580  158.9093 C   0  0  1  0  0  0  0  0  0  0  0  0
  152.8589  142.6985  159.1806 C   0  0  0  0  0  0  0  0  0  0  0  0
  152.4890  144.1794  159.3570 C   0  0  0  0  0  0  0  0  0  0  0  0
  151.6723  144.6895  158.1577 C   0  0  0  0  0  0  0  0  0  0  0  0
  150.4640  143.8601  157.9559 N   0  3  0  0  0  0  0  0  0  0  0  0
  150.7738  142.4298  157.7371 C   0  0  0  0  0  0  0  0  0  0  0  0
  153.1545  139.9590  158.3494 N   0  0  0  0  0  0  0  0  0  0  0  0
  151.2524  137.4137  158.6709 H   0  0  0  0  0  0  0  0  0  0  0  0
  153.6716  137.9224  158.0577 H   0  0  0  0  0  0  0  0  0  0  0  0
  150.9705  141.9345  159.8005 H   0  0  0  0  0  0  0  0  0  0  0  0
  153.3737  142.3334  160.0701 H   0  0  0  0  0  0  0  0  0  0  0  0
  153.5597  142.5976  158.3506 H   0  0  0  0  0  0  0  0  0  0  0  0
  151.9124  144.3066  160.2742 H   0  0  0  0  0  0  0  0  0  0  0  0
  153.3930  144.7777  159.4749 H   0  0  0  0  0  0  0  0  0  0  0  0
  151.3702  145.7246  158.3184 H   0  0  0  0  0  0  0  0  0  0  0  0
  152.2774  144.6708  157.2502 H   0  0  0  0  0  0  0  0  0  0  0  0
  149.8787  143.9407  158.7753 H   0  0  0  0  0  0  0  0  0  0  0  0
  151.3203  142.3273  156.7983 H   0  0  0  0  0  0  0  0  0  0  0  0
  149.8391  141.8799  157.6235 H   0  0  0  0  0  0  0  0  0  0  0  0
  149.9551  144.2105  157.1568 H   0  0  0  0  0  0  0  0  0  0  0  0
  1 11  2  0  0  0  0
  1 13  1  0  0  0  0
  1  2  1  0  0  0  0
  2 12  1  0  0  0  0
  2  3  1  0  0  0  0
  3  4  2  0  0  0  0
  4 11  1  0  0  0  0
  4  5  1  0  0  0  0
  5 10  1  0  0  0  0
  5  6  1  0  0  0  0
  5 14  1  0  0  0  0
  6  7  1  0  0  0  0
  6 15  1  0  0  0  0
  6 16  1  0  0  0  0
  7  8  1  0  0  0  0
  7 17  1  0  0  0  0
  7 18  1  0  0  0  0
  8  9  1  0  0  0  0
  8 19  1  0  0  0  0
  8 20  1  0  0  0  0
  9 10  1  0  0  0  0
  9 21  1  0  0  0  0
  9 24  1  0  0  0  0
 10 22  1  0  0  0  0
 10 23  1  0  0  0  0
M  CHG  1   9   1
M  END
> <s_m_source_file>
AV-unprocessed.smi

> <i_m_source_file_index>
759

> <i_lp_mmshare_version>
43012

> <i_f3d_flags>
0

> <s_epik_input>
W25IXTFbY0hdbm5jMVtDQEBIXTJbQ0gyXVtDSDJdW0NIMl1bTkhdW0NIMl0y

> <s_epik_cmdline>
J2VwaWtfcHl0aG9uJywgJy1waCcsICc3LjAnLCAnLXRuJywgJzgnLCAnLW1hJywgJzIwMCcsICctbWV0YWxfYmluZGluZycsICctaW1hZScsICc8aW5maWxlLm1hZT4nLCAnLW9tYWUnLCAnPG91dGZpbGUubWFlPic=

> <r_lp_tautomer_probability>
0.948284

> <r_epik_Ionization_Penalty>
0.0050177

> <r_epik_Ionization_Penalty_Charging>
0.000345518

> <r_epik_Ionization_Penalty_Neutral>
0.00467218

> <r_epik_State_Penalty>
0.271452

> <r_epik_Charging_Adjusted_Penalty>
0.271797

> <i_epik_Tot_Q>
1

> <i_epik_Tot_abs_Q>
1

> <r_epik_Metal_State_Penalty>
0.537172

> <b_epik_Metal_Only>
0

> <s_lp_Force_Field>
OPLS_2005

> <r_lp_Energy>
9.69095

> <b_lp_Chiralities_Consistent>
1

> <s_lp_Variant>
AV-unprocessed.smi:759-2

> <Gold.Version>
5.8.1

> <Gold.Id.Protein>
6NUR|6NUR_protein|mol2

> <Gold.PLP.Fitness>
30.7895

> <Gold.PLP.PLP>
-22.7441

> <Gold.PLP.part.hbond>
-2.0000

> <Gold.PLP.part.metal>
0.0000

> <Gold.PLP.part.buried>
-3.2671

> <Gold.PLP.part.nonpolar>
-17.5565

> <Gold.PLP.part.repulsive>
0.1184

> <Gold.PLP.ligand.clash>
0.0000

> <Gold.PLP.ligand.torsion>
0.4987

> <Gold.PLP.Chemscore.Hbond>
3.0000

> <Gold.PLP.Chemscore.CHOScore>
0.0000

> <Gold.PLP.Chemscore.Metal>
0.0000

> <Gold.Chemscore.Hbonds>
donor molecule, donor type, donor heavy atom, donor atom, acceptor molecule, acceptor atom, score
      L1  H     9    24       P1  8028  2.00
      P1  H  7997  8010       L1    11  1.00

> <Gold.PLP.Chemscore.Internal.Correction>
0.0427

> <Gold.Rescore>
     Score         DG    S(hbond)    S(metal)    S(lipo)     H(rot)  DE(clash)    DE(int)     intcor
     15.13     -15.65       1.85        0.00      56.00       1.00       0.10       0.42       ----

> <Gold.Chemscore.Fitness>
15.1318

> <Gold.Chemscore.DG>
-15.6477

> <Gold.Chemscore.ZeroCoef>
-5.4800

> <Gold.Chemscore.Hbond>
1.8489

> <Gold.Chemscore.Metal>
0.0000

> <Gold.Chemscore.Lipo>
56.0030

> <Gold.Chemscore.Internal_Hbond>
0.0000

> <Gold.Chemscore.DEClash>
0.0998

> <Gold.Chemscore.DEInternal>
0.4161

> <Gold.Chemscore.Rot>
1.0000

> <Gold.Chemscore.Internal.Correction>
   9.000000E+99

> <Gold.Chemscore.Hbonds>
donor molecule, donor type, donor heavy atom, donor atom, acceptor molecule, acceptor atom, score
      L1  H     9    24       P1  8028  0.70
      P1  H  7997  8010       L1    11  0.24

> <Gold.Chemscore.Hbond.Weighted>
-6.1754

> <Gold.Chemscore.Metal.Weighted>
-0.0000

> <Gold.Chemscore.Lipo.Weighted>
-6.5523

> <Gold.Chemscore.Internal_Hbond.Weighted>
0.0000

> <Gold.Chemscore.DEClash.Weighted>
0.0998

> <Gold.Chemscore.DEInternal.Weighted>
0.4161

> <Gold.Chemscore.Rot.Weighted>
2.5600

> <Gold.Chemscore.Internal.Correction.Weighted>
   9.000000E+99

> <Gold.Protein.RotatedTorsions>
[ 6907 6896 6895 6894 ] final   35.10 input  -60.11 | X-H torsion
[ 7974 7965 7964 7962 ] final -141.27 input  175.53 | X-H torsion
[ 8008 7997 7996 7995 ] final   24.16 input   59.86 | X-H torsion
[ 10167 10162 10161 10158 ] final   -5.22 input  -65.29 | X-H torsion
[ 10718 10713 10712 10709 ] final  107.84 input   66.30 | X-H torsion
[ 10763 10752 10751 10750 ] final -125.45 input  -60.55 | X-H torsion
[ 11005 11000 10999 10996 ] final  -60.26 input  -57.11 | X-H torsion

> <Gold.Protein.ActiveResidues>
 VAL166  LYS551  ARG553  GLY616  TRP617  ASP618  TYR619  PRO620  LYS621  CYS622 
 ASP623  PHE694  ASN695  SER759  ASP760  ASP761  ALA762  ILE779  LEU786  VAL792 
 PHE793  MET794  SER795  GLU796  ALA797  LYS798  CYS799  TRP800  GLU811  SER814 

> <Gold.Protein.RotatedAtoms>
  152.1115  134.9271  160.0566 H   0  0  0  0  0  0  0  0  0  0  0  0  # atno 6907 bound_to 6896
  152.0447  133.3988  159.4360 H   0  0  0  0  0  0  0  0  0  0  0  0  # atno 6908 bound_to 6896
  150.6844  134.3296  159.4865 H   0  0  0  0  0  0  0  0  0  0  0  0  # atno 6909 bound_to 6896
  144.8533  140.6100  143.5376 H   0  0  0  0  0  0  0  0  0  0  0  0  # atno 7974 bound_to 7965
  154.9919  140.3115  155.4902 H   0  0  0  0  0  0  0  0  0  0  0  0  # atno 8008 bound_to 7997
  156.2938  140.2247  156.4965 H   0  0  0  0  0  0  0  0  0  0  0  0  # atno 8009 bound_to 7997
  154.7695  140.0453  157.1028 H   0  0  0  0  0  0  0  0  0  0  0  0  # atno 8010 bound_to 7997
  140.6955  143.6334  150.8502 H   0  0  0  0  0  0  0  0  0  0  0  0  # atno 10167 bound_to 10162
  157.6612  131.0881  150.6216 H   0  0  0  0  0  0  0  0  0  0  0  0  # atno 10718 bound_to 10713
  154.8736  135.4029  154.3270 H   0  0  0  0  0  0  0  0  0  0  0  0  # atno 10763 bound_to 10752
  153.4089  135.7020  153.6378 H   0  0  0  0  0  0  0  0  0  0  0  0  # atno 10764 bound_to 10752
  153.5089  135.3711  155.2547 H   0  0  0  0  0  0  0  0  0  0  0  0  # atno 10765 bound_to 10752
  141.1280  133.6621  156.5196 H   0  0  0  0  0  0  0  0  0  0  0  0  # atno 11005 bound_to 11000
  145.4457  139.1530  143.3946 LP  0  0  0  0  0  0  0  0  0  0  0  0  # atno 17320 bound_to 7965
  146.2802  140.4581  142.8779 LP  0  0  0  0  0  0  0  0  0  0  0  0  # atno 17321 bound_to 7965
  140.0051  143.5702  152.2860 LP  0  0  0  0  0  0  0  0  0  0  0  0  # atno 17342 bound_to 10162
  139.6406  144.7654  151.2347 LP  0  0  0  0  0  0  0  0  0  0  0  0  # atno 17343 bound_to 10162
  156.6519  130.4487  149.5716 LP  0  0  0  0  0  0  0  0  0  0  0  0  # atno 17370 bound_to 10713
  156.2131  130.6691  151.1291 LP  0  0  0  0  0  0  0  0  0  0  0  0  # atno 17371 bound_to 10713
  140.4303  134.7108  157.4938 LP  0  0  0  0  0  0  0  0  0  0  0  0  # atno 17394 bound_to 11000
  140.0299  134.6422  155.9121 LP  0  0  0  0  0  0  0  0  0  0  0  0  # atno 17395 bound_to 11000

$$$$
