AV-unprocessed.smi:29|AV-procd|sdf|192|dock8
  -GOLD-   2262015463D 1   1.00000     0.00000
 Structure written by MMmdl.
 56 59  0  0  0  0  0  0  0  0  1 V2000
  151.1537  136.9663  159.8509 O   0  0  0  0  0  0  0  0  0  0  0  0
  150.4138  137.2779  158.9198 C   0  0  0  0  0  0  0  0  0  0  0  0
  151.0574  137.7412  157.5999 C   0  0  0  0  0  0  0  0  0  0  0  0
  150.7548  139.1385  157.2072 N   0  0  0  0  0  0  0  0  0  0  0  0
  151.5661  140.1765  157.7272 C   0  0  0  0  0  0  0  0  0  0  0  0
  152.4798  139.9384  158.5180 O   0  0  0  0  0  0  0  0  0  0  0  0
  151.2424  141.5194  157.2627 C   0  0  0  0  0  0  0  0  0  0  0  0
  151.9955  142.5597  157.6579 F   0  0  0  0  0  0  0  0  0  0  0  0
  150.2027  141.7355  156.4317 C   0  0  0  0  0  0  0  0  0  0  0  0
  149.3708  140.7217  155.9853 N   0  0  0  0  0  0  0  0  0  0  0  0
  148.2317  140.9640  155.0058 C   0  0  1  0  0  0  0  0  0  0  0  0
  146.8423  140.5941  155.5436 C   0  0  0  0  0  0  0  0  0  0  0  0
  146.2931  141.9272  156.0436 C   0  0  0  0  0  0  0  0  0  0  0  0
  147.3963  142.9455  155.7361 C   0  0  0  0  0  0  0  0  0  0  0  0
  148.1763  142.3256  154.7228 O   0  0  0  0  0  0  0  0  0  0  0  0
  149.6656  139.3852  156.3372 C   0  0  0  0  0  0  0  0  0  0  0  0
  148.9806  138.4548  155.9071 O   0  0  0  0  0  0  0  0  0  0  0  0
  149.0678  137.2619  158.9746 N   0  0  0  0  0  0  0  0  0  0  0  0
  148.1848  136.9191  160.0394 C   0  0  0  0  0  0  0  0  0  0  0  0
  148.4346  137.2464  161.3954 C   0  0  0  0  0  0  0  0  0  0  0  0
  147.5258  136.8779  162.4090 C   0  0  0  0  0  0  0  0  0  0  0  0
  147.8217  137.2392  163.8574 C   0  0  0  0  0  0  0  0  0  0  0  0
  148.9191  137.9898  163.9609 F   0  0  0  0  0  0  0  0  0  0  0  0
  146.7908  137.9179  164.3592 F   0  0  0  0  0  0  0  0  0  0  0  0
  148.0025  136.1344  164.5816 F   0  0  0  0  0  0  0  0  0  0  0  0
  146.3625  136.1589  162.0673 C   0  0  0  0  0  0  0  0  0  0  0  0
  146.1114  135.8154  160.7273 C   0  0  0  0  0  0  0  0  0  0  0  0
  147.0166  136.1873  159.7077 C   0  0  0  0  0  0  0  0  0  0  0  0
  146.7681  135.8284  158.3713 N   0  0  0  0  0  0  0  0  0  0  0  0
  147.2182  134.4845  158.0338 C   0  0  0  0  0  0  0  0  0  0  0  0
  147.0479  134.2400  156.5256 C   0  0  0  0  0  0  0  0  0  0  0  0
  145.6931  134.4733  156.1510 O   0  0  0  0  0  0  0  0  0  0  0  0
  145.2854  135.8124  156.4181 C   0  0  0  0  0  0  0  0  0  0  0  0
  145.4087  136.1019  157.9241 C   0  0  0  0  0  0  0  0  0  0  0  0
  152.1350  137.5875  157.6767 H   0  0  0  0  0  0  0  0  0  0  0  0
  150.7544  137.0445  156.8170 H   0  0  0  0  0  0  0  0  0  0  0  0
  150.0381  142.7517  156.1108 H   0  0  0  0  0  0  0  0  0  0  0  0
  148.4824  140.3777  154.1201 H   0  0  0  0  0  0  0  0  0  0  0  0
  146.2381  140.2407  154.7074 H   0  0  0  0  0  0  0  0  0  0  0  0
  146.8708  139.7972  156.2861 H   0  0  0  0  0  0  0  0  0  0  0  0
  145.3791  142.1787  155.5044 H   0  0  0  0  0  0  0  0  0  0  0  0
  146.0559  141.9048  157.1074 H   0  0  0  0  0  0  0  0  0  0  0  0
  146.9991  143.9037  155.4007 H   0  0  0  0  0  0  0  0  0  0  0  0
  148.0144  143.1292  156.6159 H   0  0  0  0  0  0  0  0  0  0  0  0
  148.6035  137.5947  158.1418 H   0  0  0  0  0  0  0  0  0  0  0  0
  149.3272  137.7719  161.6928 H   0  0  0  0  0  0  0  0  0  0  0  0
  145.6594  135.8579  162.8295 H   0  0  0  0  0  0  0  0  0  0  0  0
  145.2181  135.2577  160.4872 H   0  0  0  0  0  0  0  0  0  0  0  0
  148.2649  134.3629  158.3164 H   0  0  0  0  0  0  0  0  0  0  0  0
  146.6424  133.7478  158.5953 H   0  0  0  0  0  0  0  0  0  0  0  0
  147.7086  134.8910  155.9546 H   0  0  0  0  0  0  0  0  0  0  0  0
  147.3171  133.2139  156.2756 H   0  0  0  0  0  0  0  0  0  0  0  0
  145.8910  136.5093  155.8380 H   0  0  0  0  0  0  0  0  0  0  0  0
  144.2529  135.9422  156.0935 H   0  0  0  0  0  0  0  0  0  0  0  0
  144.7025  135.4818  158.4774 H   0  0  0  0  0  0  0  0  0  0  0  0
  145.1546  137.1430  158.1273 H   0  0  0  0  0  0  0  0  0  0  0  0
  1  2  2  0  0  0  0
  2  3  1  0  0  0  0
  2 18  1  0  0  0  0
  3  4  1  0  0  0  0
  3 35  1  0  0  0  0
  3 36  1  0  0  0  0
  4 16  1  0  0  0  0
  4  5  1  0  0  0  0
  5  6  2  0  0  0  0
  5  7  1  0  0  0  0
  7  8  1  0  0  0  0
  7  9  2  0  0  0  0
  9 10  1  0  0  0  0
  9 37  1  0  0  0  0
 10 11  1  0  0  0  0
 10 16  1  0  0  0  0
 11 15  1  0  0  0  0
 11 12  1  0  0  0  0
 11 38  1  0  0  0  0
 12 13  1  0  0  0  0
 12 39  1  0  0  0  0
 12 40  1  0  0  0  0
 13 14  1  0  0  0  0
 13 41  1  0  0  0  0
 13 42  1  0  0  0  0
 14 15  1  0  0  0  0
 14 43  1  0  0  0  0
 14 44  1  0  0  0  0
 16 17  2  0  0  0  0
 18 19  1  0  0  0  0
 18 45  1  0  0  0  0
 19 28  1  0  0  0  0
 19 20  2  0  0  0  0
 20 21  1  0  0  0  0
 20 46  1  0  0  0  0
 21 22  1  0  0  0  0
 21 26  2  0  0  0  0
 22 23  1  0  0  0  0
 22 24  1  0  0  0  0
 22 25  1  0  0  0  0
 26 27  1  0  0  0  0
 26 47  1  0  0  0  0
 27 28  2  0  0  0  0
 27 48  1  0  0  0  0
 28 29  1  0  0  0  0
 29 34  1  0  0  0  0
 29 30  1  0  0  0  0
 30 31  1  0  0  0  0
 30 49  1  0  0  0  0
 30 50  1  0  0  0  0
 31 32  1  0  0  0  0
 31 51  1  0  0  0  0
 31 52  1  0  0  0  0
 32 33  1  0  0  0  0
 33 34  1  0  0  0  0
 33 53  1  0  0  0  0
 33 54  1  0  0  0  0
 34 55  1  0  0  0  0
 34 56  1  0  0  0  0
M  END
> <s_m_source_file>
AV-unprocessed.smi

> <i_m_source_file_index>
29

> <i_lp_mmshare_version>
43012

> <i_f3d_flags>
0

> <s_epik_input>
TzFbQ0gyXVtDSDJdW0NIMl1bQ0BIXTFuKGMyPU8pW2NIXWMoRiljKD1PKW4yW0NIMl1DKD1PKVtOSF1jM1tjSF1jKEMoRikoRilGKVtjSF1bY0hdYzNONFtDSDJdW0NIMl1PW0NIMl1bQ0gyXTQ=

> <s_epik_cmdline>
J2VwaWtfcHl0aG9uJywgJy1waCcsICc3LjAnLCAnLXRuJywgJzgnLCAnLW1hJywgJzIwMCcsICctbWV0YWxfYmluZGluZycsICctaW1hZScsICc8aW5maWxlLm1hZT4nLCAnLW9tYWUnLCAnPG91dGZpbGUubWFlPic=

> <r_lp_tautomer_probability>
1

> <r_epik_Ionization_Penalty>
3.5967e-06

> <r_epik_Ionization_Penalty_Charging>
3.88729e-08

> <r_epik_Ionization_Penalty_Neutral>
3.55783e-06

> <r_epik_State_Penalty>
-0

> <r_epik_Charging_Adjusted_Penalty>
3.88729e-08

> <i_epik_Tot_Q>
0

> <i_epik_Tot_abs_Q>
0

> <r_epik_Metal_State_Penalty>
-0

> <b_epik_Metal_Only>
0

> <s_epik_Chemistry_Notes>
This compound contains an acetal/aminal-like group ( X-CH(R)-Y where X, Y are N, S, or O) that may be acid/base labile, releasing an aldehyde.

> <s_lp_Force_Field>
OPLS_2005

> <r_lp_Energy>
46.7793

> <b_lp_Chiralities_Consistent>
1

> <s_lp_Variant>
AV-unprocessed.smi:29-2

> <Gold.Version>
5.8.1

> <Gold.Id.Protein>
6NUR|6NUR_protein|mol2

> <Gold.PLP.Fitness>
54.6292

> <Gold.PLP.PLP>
-49.7289

> <Gold.PLP.part.hbond>
-2.0000

> <Gold.PLP.part.metal>
0.0000

> <Gold.PLP.part.buried>
-4.3124

> <Gold.PLP.part.nonpolar>
-44.5679

> <Gold.PLP.part.repulsive>
0.4958

> <Gold.PLP.ligand.clash>
1.2772

> <Gold.PLP.ligand.torsion>
1.2413

> <Gold.PLP.Chemscore.Hbond>
1.5920

> <Gold.PLP.Chemscore.CHOScore>
1.0000

> <Gold.PLP.Chemscore.Metal>
0.0000

> <Gold.Chemscore.Hbonds>
donor molecule, donor type, donor heavy atom, donor atom, acceptor molecule, acceptor atom, score
      P1  H  6896  6908       L1     1  1.00
      L1  C     9    37       P1  8028  1.00

> <Gold.PLP.Chemscore.Internal.Correction>
0.8841

> <Gold.Rescore>
     Score         DG    S(hbond)    S(metal)    S(lipo)     H(rot)  DE(clash)    DE(int)     intcor
     12.42     -14.51       1.82        0.00      68.27       1.96       0.86       1.23       ----

> <Gold.Chemscore.Fitness>
12.4224

> <Gold.Chemscore.DG>
-14.5130

> <Gold.Chemscore.ZeroCoef>
-5.4800

> <Gold.Chemscore.Hbond>
1.8185

> <Gold.Chemscore.Metal>
0.0000

> <Gold.Chemscore.Lipo>
68.2664

> <Gold.Chemscore.Internal_Hbond>
0.0000

> <Gold.Chemscore.DEClash>
0.8599

> <Gold.Chemscore.DEInternal>
1.2307

> <Gold.Chemscore.Rot>
1.9641

> <Gold.Chemscore.Internal.Correction>
   9.000000E+99

> <Gold.Chemscore.Hbonds>
donor molecule, donor type, donor heavy atom, donor atom, acceptor molecule, acceptor atom, score
      P1  H  6896  6908       L1     1  0.74

> <Gold.Chemscore.Hbond.Weighted>
-6.0738

> <Gold.Chemscore.Metal.Weighted>
-0.0000

> <Gold.Chemscore.Lipo.Weighted>
-7.9872

> <Gold.Chemscore.Internal_Hbond.Weighted>
0.0000

> <Gold.Chemscore.DEClash.Weighted>
0.8599

> <Gold.Chemscore.DEInternal.Weighted>
1.2307

> <Gold.Chemscore.Rot.Weighted>
5.0280

> <Gold.Chemscore.Internal.Correction.Weighted>
   9.000000E+99

> <Gold.Protein.RotatedTorsions>
[ 6907 6896 6895 6894 ] final -134.13 input  -60.11 | X-H torsion
[ 7974 7965 7964 7962 ] final   -4.47 input  175.53 | X-H torsion
[ 8008 7997 7996 7995 ] final   10.75 input   59.86 | X-H torsion
[ 10167 10162 10161 10158 ] final  -67.39 input  -65.29 | X-H torsion
[ 10718 10713 10712 10709 ] final -112.48 input   66.30 | X-H torsion
[ 10763 10752 10751 10750 ] final  115.79 input  -60.55 | X-H torsion
[ 11005 11000 10999 10996 ] final -101.19 input  -57.11 | X-H torsion

> <Gold.Protein.ActiveResidues>
 VAL166  LYS551  ARG553  GLY616  TRP617  ASP618  TYR619  PRO620  LYS621  CYS622 
 ASP623  PHE694  ASN695  SER759  ASP760  ASP761  ALA762  ILE779  LEU786  VAL792 
 PHE793  MET794  SER795  GLU796  ALA797  LYS798  CYS799  TRP800  GLU811  SER814 

> <Gold.Protein.RotatedAtoms>
  150.9822  133.6233  159.2720 H   0  0  0  0  0  0  0  0  0  0  0  0  # atno 6907 bound_to 6896
  151.3484  135.0878  159.9404 H   0  0  0  0  0  0  0  0  0  0  0  0  # atno 6908 bound_to 6896
  152.5219  133.9420  159.7685 H   0  0  0  0  0  0  0  0  0  0  0  0  # atno 6909 bound_to 6896
  146.2372  140.1875  142.8332 H   0  0  0  0  0  0  0  0  0  0  0  0  # atno 7974 bound_to 7965
  154.7976  140.2846  155.5945 H   0  0  0  0  0  0  0  0  0  0  0  0  # atno 8008 bound_to 7997
  156.2973  140.2592  156.2766 H   0  0  0  0  0  0  0  0  0  0  0  0  # atno 8009 bound_to 7997
  154.9596  140.0378  157.2173 H   0  0  0  0  0  0  0  0  0  0  0  0  # atno 8010 bound_to 7997
  140.5587  143.2312  151.6771 H   0  0  0  0  0  0  0  0  0  0  0  0  # atno 10167 bound_to 10162
  156.0708  130.5922  150.8514 H   0  0  0  0  0  0  0  0  0  0  0  0  # atno 10718 bound_to 10713
  153.5276  135.3585  155.2661 H   0  0  0  0  0  0  0  0  0  0  0  0  # atno 10763 bound_to 10752
  154.8730  135.4060  154.3189 H   0  0  0  0  0  0  0  0  0  0  0  0  # atno 10764 bound_to 10752
  153.3871  135.7070  153.6589 H   0  0  0  0  0  0  0  0  0  0  0  0  # atno 10765 bound_to 10752
  141.1241  133.8458  157.1200 H   0  0  0  0  0  0  0  0  0  0  0  0  # atno 11005 bound_to 11000
  144.9884  140.8524  143.5354 LP  0  0  0  0  0  0  0  0  0  0  0  0  # atno 17320 bound_to 7965
  145.1878  139.2317  143.5258 LP  0  0  0  0  0  0  0  0  0  0  0  0  # atno 17321 bound_to 7965
  139.5060  144.3699  152.0481 LP  0  0  0  0  0  0  0  0  0  0  0  0  # atno 17342 bound_to 10162
  140.2823  144.3846  150.6115 LP  0  0  0  0  0  0  0  0  0  0  0  0  # atno 17343 bound_to 10162
  157.5777  131.0946  150.9319 LP  0  0  0  0  0  0  0  0  0  0  0  0  # atno 17370 bound_to 10713
  156.9521  130.5424  149.5283 LP  0  0  0  0  0  0  0  0  0  0  0  0  # atno 17371 bound_to 10713
  140.0223  134.9940  157.0616 LP  0  0  0  0  0  0  0  0  0  0  0  0  # atno 17394 bound_to 11000
  140.4420  134.1671  155.7174 LP  0  0  0  0  0  0  0  0  0  0  0  0  # atno 17395 bound_to 11000

$$$$
