AV-unprocessed.smi:2910|AV-procd|sdf|11176|dock7
  -GOLD-   2272016 63D 1   1.00000     0.00000
 Structure written by MMmdl.
 47 48  0  0  0  0  0  0  0  0  1 V2000
  151.8146  131.7874  157.0484 C   0  0  0  0  0  0  0  0  0  0  0  0
  150.8019  132.7689  156.5371 C   0  0  0  0  0  0  0  0  0  0  0  0
  150.3676  132.9614  155.1935 C   0  0  0  0  0  0  0  0  0  0  0  0
  149.4536  133.9723  155.3143 C   0  0  0  0  0  0  0  0  0  0  0  0
  148.7171  134.5794  154.3460 N   0  0  0  0  0  0  0  0  0  0  0  0
  147.4258  134.3846  154.0269 C   0  0  0  0  0  0  0  0  0  0  0  0
  146.6576  133.6144  154.6031 O   0  0  0  0  0  0  0  0  0  0  0  0
  147.0673  135.1496  152.9844 N   0  0  0  0  0  0  0  0  0  0  0  0
  145.7427  135.1879  152.3582 C   0  0  1  0  0  0  0  0  0  0  0  0
  145.5715  136.5403  151.6254 C   0  0  0  0  0  0  0  0  0  0  0  0
  146.0862  137.7560  152.4162 C   0  0  0  0  0  0  0  0  0  0  0  0
  145.9609  138.9225  151.6320 O   0  0  0  0  0  0  0  0  0  0  0  0
  145.5546  133.9489  151.4347 C   0  0  0  0  0  0  0  0  0  0  0  0
  144.2652  134.0353  150.5807 C   0  0  0  0  0  0  0  0  0  0  0  0
  144.0695  132.8016  149.6845 C   0  0  0  0  0  0  0  0  0  0  0  0
  144.0673  131.5073  150.5066 C   0  0  0  0  0  0  0  0  0  0  0  0
  145.3546  131.3912  151.3311 C   0  0  0  0  0  0  0  0  0  0  0  0
  145.5502  132.6194  152.2336 C   0  0  0  0  0  0  0  0  0  0  0  0
  149.3674  134.3379  156.6391 N   0  0  0  0  0  0  0  0  0  0  0  0
  148.5429  135.3551  157.2619 C   0  0  0  0  0  0  0  0  0  0  0  0
  150.2023  133.5896  157.3922 N   0  0  0  0  0  0  0  0  0  0  0  0
  152.2082  131.1708  156.2401 H   0  0  0  0  0  0  0  0  0  0  0  0
  151.3763  131.1206  157.7912 H   0  0  0  0  0  0  0  0  0  0  0  0
  152.6568  132.2998  157.5140 H   0  0  0  0  0  0  0  0  0  0  0  0
  150.6884  132.4369  154.3062 H   0  0  0  0  0  0  0  0  0  0  0  0
  149.2150  135.2593  153.7907 H   0  0  0  0  0  0  0  0  0  0  0  0
  147.7702  135.7506  152.5795 H   0  0  0  0  0  0  0  0  0  0  0  0
  144.9713  135.1380  153.1289 H   0  0  0  0  0  0  0  0  0  0  0  0
  146.0727  136.4982  150.6573 H   0  0  0  0  0  0  0  0  0  0  0  0
  144.5167  136.7128  151.4158 H   0  0  0  0  0  0  0  0  0  0  0  0
  145.5173  137.8844  153.3376 H   0  0  0  0  0  0  0  0  0  0  0  0
  147.1340  137.6368  152.6919 H   0  0  0  0  0  0  0  0  0  0  0  0
  145.1358  139.3355  151.8369 H   0  0  0  0  0  0  0  0  0  0  0  0
  146.4026  133.9148  150.7488 H   0  0  0  0  0  0  0  0  0  0  0  0
  143.3990  134.1506  151.2337 H   0  0  0  0  0  0  0  0  0  0  0  0
  144.2846  134.9127  149.9360 H   0  0  0  0  0  0  0  0  0  0  0  0
  143.1344  132.8903  149.1311 H   0  0  0  0  0  0  0  0  0  0  0  0
  144.8660  132.7608  148.9403 H   0  0  0  0  0  0  0  0  0  0  0  0
  143.2020  131.4940  151.1706 H   0  0  0  0  0  0  0  0  0  0  0  0
  143.9666  130.6450  149.8469 H   0  0  0  0  0  0  0  0  0  0  0  0
  145.3258  130.4860  151.9382 H   0  0  0  0  0  0  0  0  0  0  0  0
  146.2104  131.2885  150.6625 H   0  0  0  0  0  0  0  0  0  0  0  0
  146.4849  132.4906  152.7791 H   0  0  0  0  0  0  0  0  0  0  0  0
  144.7596  132.6475  152.9848 H   0  0  0  0  0  0  0  0  0  0  0  0
  148.7164  136.3153  156.7752 H   0  0  0  0  0  0  0  0  0  0  0  0
  148.7827  135.4489  158.3222 H   0  0  0  0  0  0  0  0  0  0  0  0
  147.4912  135.0867  157.1584 H   0  0  0  0  0  0  0  0  0  0  0  0
  1  2  1  0  0  0  0
  1 22  1  0  0  0  0
  1 23  1  0  0  0  0
  1 24  1  0  0  0  0
  2 21  2  0  0  0  0
  2  3  1  0  0  0  0
  3  4  2  0  0  0  0
  3 25  1  0  0  0  0
  4  5  1  0  0  0  0
  4 19  1  0  0  0  0
  5  6  1  0  0  0  0
  5 26  1  0  0  0  0
  6  7  2  0  0  0  0
  6  8  1  0  0  0  0
  8  9  1  0  0  0  0
  8 27  1  0  0  0  0
  9 10  1  0  0  0  0
  9 13  1  0  0  0  0
  9 28  1  0  0  0  0
 10 11  1  0  0  0  0
 10 29  1  0  0  0  0
 10 30  1  0  0  0  0
 11 12  1  0  0  0  0
 11 31  1  0  0  0  0
 11 32  1  0  0  0  0
 12 33  1  0  0  0  0
 13 18  1  0  0  0  0
 13 14  1  0  0  0  0
 13 34  1  0  0  0  0
 14 15  1  0  0  0  0
 14 35  1  0  0  0  0
 14 36  1  0  0  0  0
 15 16  1  0  0  0  0
 15 37  1  0  0  0  0
 15 38  1  0  0  0  0
 16 17  1  0  0  0  0
 16 39  1  0  0  0  0
 16 40  1  0  0  0  0
 17 18  1  0  0  0  0
 17 41  1  0  0  0  0
 17 42  1  0  0  0  0
 18 43  1  0  0  0  0
 18 44  1  0  0  0  0
 19 20  1  0  0  0  0
 19 21  1  0  0  0  0
 20 45  1  0  0  0  0
 20 46  1  0  0  0  0
 20 47  1  0  0  0  0
M  END
> <s_m_source_file>
AV-unprocessed.smi

> <i_m_source_file_index>
2910

> <i_lp_mmshare_version>
43012

> <i_f3d_flags>
0

> <s_epik_input>
W0NIM11jMVtjSF1jKG4objEpW0NIM10pW05IXUMoPU8pW05IXVtDQEhdKFtDSDJdW0NIMl1bT0hdKVtDSF0yW0NIMl1bQ0gyXVtDSDJdW0NIMl1bQ0gyXTI=

> <s_epik_cmdline>
J2VwaWtfcHl0aG9uJywgJy1waCcsICc3LjAnLCAnLXRuJywgJzgnLCAnLW1hJywgJzIwMCcsICctbWV0YWxfYmluZGluZycsICctaW1hZScsICc8aW5maWxlLm1hZT4nLCAnLW9tYWUnLCAnPG91dGZpbGUubWFlPic=

> <r_lp_tautomer_probability>
1

> <r_epik_Ionization_Penalty>
0.000101449

> <r_epik_Ionization_Penalty_Charging>
0

> <r_epik_Ionization_Penalty_Neutral>
0.000101449

> <r_epik_State_Penalty>
-0

> <r_epik_Charging_Adjusted_Penalty>
0

> <i_epik_Tot_Q>
0

> <i_epik_Tot_abs_Q>
0

> <r_epik_Metal_State_Penalty>
-0

> <b_epik_Metal_Only>
0

> <s_lp_Force_Field>
OPLS_2005

> <r_lp_Energy>
16.2271

> <b_lp_Chiralities_Consistent>
1

> <s_lp_Variant>
AV-unprocessed.smi:2910-2

> <Gold.Version>
5.8.1

> <Gold.Id.Protein>
6NUR|6NUR_protein|mol2

> <Gold.PLP.Fitness>
42.1786

> <Gold.PLP.PLP>
-34.2411

> <Gold.PLP.part.hbond>
-4.6921

> <Gold.PLP.part.metal>
0.0000

> <Gold.PLP.part.buried>
-4.9077

> <Gold.PLP.part.nonpolar>
-25.7671

> <Gold.PLP.part.repulsive>
0.0589

> <Gold.PLP.ligand.clash>
0.0000

> <Gold.PLP.ligand.torsion>
1.1964

> <Gold.PLP.Chemscore.Hbond>
3.4113

> <Gold.PLP.Chemscore.CHOScore>
0.0000

> <Gold.PLP.Chemscore.Metal>
0.0000

> <Gold.Chemscore.Hbonds>
donor molecule, donor type, donor heavy atom, donor atom, acceptor molecule, acceptor atom, score
      L1  H     5    26       P1  7948  0.54
      L1  H     8    27       P1  7948  0.80
      L1  H    12    33       P1 10175  1.00
      P1  H  6896  6909       L1    21  1.00

> <Gold.PLP.Chemscore.Internal.Correction>
0.0962

> <Gold.Rescore>
     Score         DG    S(hbond)    S(metal)    S(lipo)     H(rot)  DE(clash)    DE(int)     intcor
     17.11     -19.73       3.25        0.00      78.65       2.27       0.06       2.56       ----

> <Gold.Chemscore.Fitness>
17.1064

> <Gold.Chemscore.DG>
-19.7311

> <Gold.Chemscore.ZeroCoef>
-5.4800

> <Gold.Chemscore.Hbond>
3.2547

> <Gold.Chemscore.Metal>
0.0000

> <Gold.Chemscore.Lipo>
78.6542

> <Gold.Chemscore.Internal_Hbond>
0.0000

> <Gold.Chemscore.DEClash>
0.0648

> <Gold.Chemscore.DEInternal>
2.5598

> <Gold.Chemscore.Rot>
2.2743

> <Gold.Chemscore.Internal.Correction>
   9.000000E+99

> <Gold.Chemscore.Hbonds>
donor molecule, donor type, donor heavy atom, donor atom, acceptor molecule, acceptor atom, score
      L1  H     5    26       P1  7948  0.21
      L1  H     8    27       P1  7948  0.78
      L1  H    12    33       P1 10175  0.94
      P1  H  6896  6909       L1    21  0.91

> <Gold.Chemscore.Hbond.Weighted>
-10.8708

> <Gold.Chemscore.Metal.Weighted>
-0.0000

> <Gold.Chemscore.Lipo.Weighted>
-9.2025

> <Gold.Chemscore.Internal_Hbond.Weighted>
0.0000

> <Gold.Chemscore.DEClash.Weighted>
0.0648

> <Gold.Chemscore.DEInternal.Weighted>
2.5598

> <Gold.Chemscore.Rot.Weighted>
5.8223

> <Gold.Chemscore.Internal.Correction.Weighted>
   9.000000E+99

> <Gold.Protein.RotatedTorsions>
[ 6907 6896 6895 6894 ] final   -5.52 input  -60.11 | X-H torsion
[ 7974 7965 7964 7962 ] final   52.32 input  175.53 | X-H torsion
[ 8008 7997 7996 7995 ] final   69.90 input   59.86 | X-H torsion
[ 10167 10162 10161 10158 ] final  -46.33 input  -65.29 | X-H torsion
[ 10718 10713 10712 10709 ] final  170.34 input   66.30 | X-H torsion
[ 10763 10752 10751 10750 ] final -174.93 input  -60.55 | X-H torsion
[ 11005 11000 10999 10996 ] final  -45.43 input  -57.11 | X-H torsion

> <Gold.Protein.ActiveResidues>
 VAL166  LYS551  ARG553  GLY616  TRP617  ASP618  TYR619  PRO620  LYS621  CYS622 
 ASP623  PHE694  ASN695  SER759  ASP760  ASP761  ALA762  ILE779  LEU786  VAL792 
 PHE793  MET794  SER795  GLU796  ALA797  LYS798  CYS799  TRP800  GLU811  SER814 

> <Gold.Protein.RotatedAtoms>
  151.4803  135.1051  159.9775 H   0  0  0  0  0  0  0  0  0  0  0  0  # atno 6907 bound_to 6896
  152.4782  133.8185  159.7051 H   0  0  0  0  0  0  0  0  0  0  0  0  # atno 6908 bound_to 6896
  150.8834  133.7279  159.2952 H   0  0  0  0  0  0  0  0  0  0  0  0  # atno 6909 bound_to 6896
  145.9825  139.4256  143.0123 H   0  0  0  0  0  0  0  0  0  0  0  0  # atno 7974 bound_to 7965
  155.7306  140.3492  155.5057 H   0  0  0  0  0  0  0  0  0  0  0  0  # atno 8008 bound_to 7997
  155.9186  140.1063  157.1246 H   0  0  0  0  0  0  0  0  0  0  0  0  # atno 8009 bound_to 7997
  154.4066  140.1254  156.4637 H   0  0  0  0  0  0  0  0  0  0  0  0  # atno 8010 bound_to 7997
  140.6822  143.2836  151.3767 H   0  0  0  0  0  0  0  0  0  0  0  0  # atno 10167 bound_to 10162
  157.0095  131.0200  151.2807 H   0  0  0  0  0  0  0  0  0  0  0  0  # atno 10718 bound_to 10713
  154.5904  135.2844  155.0641 H   0  0  0  0  0  0  0  0  0  0  0  0  # atno 10763 bound_to 10752
  154.1944  135.6435  153.5073 H   0  0  0  0  0  0  0  0  0  0  0  0  # atno 10764 bound_to 10752
  153.0119  135.5454  154.6588 H   0  0  0  0  0  0  0  0  0  0  0  0  # atno 10765 bound_to 10752
  141.0515  133.6741  156.3012 H   0  0  0  0  0  0  0  0  0  0  0  0  # atno 11005 bound_to 11000
  145.7749  140.9881  143.1130 LP  0  0  0  0  0  0  0  0  0  0  0  0  # atno 17320 bound_to 7965
  144.6865  139.9493  143.7477 LP  0  0  0  0  0  0  0  0  0  0  0  0  # atno 17321 bound_to 7965
  139.6152  144.1017  152.2339 LP  0  0  0  0  0  0  0  0  0  0  0  0  # atno 17342 bound_to 10162
  140.0444  144.5982  150.7386 LP  0  0  0  0  0  0  0  0  0  0  0  0  # atno 17343 bound_to 10162
  157.5331  130.8071  149.7940 LP  0  0  0  0  0  0  0  0  0  0  0  0  # atno 17370 bound_to 10713
  156.0141  130.3821  150.2167 LP  0  0  0  0  0  0  0  0  0  0  0  0  # atno 17371 bound_to 10713
  140.6046  134.5520  157.5523 LP  0  0  0  0  0  0  0  0  0  0  0  0  # atno 17394 bound_to 11000
  139.9354  134.7885  156.0816 LP  0  0  0  0  0  0  0  0  0  0  0  0  # atno 17395 bound_to 11000

$$$$
