AV-unprocessed.smi:1244|AV-procd|sdf|5236|dock3
  -GOLD-   22720 4343D 1   1.00000     0.00000
 Structure written by MMmdl.
 55 57  0  0  0  0  0  0  0  0  4 V2000
  153.3987  142.3587  162.0797 C   0  0  0  0  0  0  0  0  0  0  0  0
  153.2518  142.4876  160.5594 C   0  0  1  0  0  0  0  0  0  0  0  0
  152.4673  141.3113  159.9509 C   0  0  0  0  0  0  0  0  0  0  0  0
  152.2931  141.5072  158.4878 N   0  3  1  0  0  0  0  0  0  0  0  0
  151.6163  140.3724  157.8052 C   0  0  0  0  0  0  0  0  0  0  0  0
  152.1169  139.0074  158.3232 C   0  0  0  0  0  0  0  0  0  0  0  0
  151.0039  138.2152  158.8454 N   0  5  0  0  0  0  0  0  0  0  0  0
  150.2236  137.3897  158.0970 C   0  0  0  0  0  0  0  0  0  0  0  0
  150.3692  137.0832  156.9076 O   0  0  0  0  0  0  0  0  0  0  0  0
  149.1875  136.8986  158.7970 N   0  0  0  0  0  0  0  0  0  0  0  0
  148.1266  136.0783  158.3265 C   0  0  0  0  0  0  0  0  0  0  0  0
  147.8338  136.0056  156.9419 C   0  0  0  0  0  0  0  0  0  0  0  0
  146.7715  135.2000  156.4906 C   0  0  0  0  0  0  0  0  0  0  0  0
  146.0215  134.4756  157.4329 C   0  0  0  0  0  0  0  0  0  0  0  0
  146.3383  134.5516  158.7423 N   0  3  0  0  0  0  0  0  0  0  0  0
  147.3579  135.2976  159.2376 C   0  0  0  0  0  0  0  0  0  0  0  0
  147.5707  135.2732  160.6353 N   0  0  0  0  0  0  0  0  0  0  0  0
  147.6877  136.5141  161.3912 C   0  0  0  0  0  0  0  0  0  0  0  0
  147.6006  136.0935  162.8563 C   0  0  0  0  0  0  0  0  0  0  0  0
  146.6241  134.9217  162.8059 C   0  0  0  0  0  0  0  0  0  0  0  0
  146.9229  134.2571  161.4578 C   0  0  0  0  0  0  0  0  0  0  0  0
  151.6445  142.8139  158.2238 C   0  0  0  0  0  0  0  0  0  0  0  0
  152.4422  143.9550  158.8842 C   0  0  1  0  0  0  0  0  0  0  0  0
  151.7617  145.3161  158.7030 C   0  0  0  0  0  0  0  0  0  0  0  0
  152.5581  143.6990  160.2799 O   0  0  0  0  0  0  0  0  0  0  0  0
  153.9329  141.4463  162.3464 H   0  0  0  0  0  0  0  0  0  0  0  0
  152.4250  142.3319  162.5694 H   0  0  0  0  0  0  0  0  0  0  0  0
  153.9552  143.2013  162.4904 H   0  0  0  0  0  0  0  0  0  0  0  0
  154.2490  142.5326  160.1175 H   0  0  0  0  0  0  0  0  0  0  0  0
  152.9968  140.3783  160.1475 H   0  0  0  0  0  0  0  0  0  0  0  0
  151.4883  141.2265  160.4255 H   0  0  0  0  0  0  0  0  0  0  0  0
  150.5348  140.4676  157.9159 H   0  0  0  0  0  0  0  0  0  0  0  0
  151.8135  140.4171  156.7329 H   0  0  0  0  0  0  0  0  0  0  0  0
  152.6184  138.4876  157.5066 H   0  0  0  0  0  0  0  0  0  0  0  0
  152.8886  139.1683  159.0773 H   0  0  0  0  0  0  0  0  0  0  0  0
  149.0750  137.2759  159.7264 H   0  0  0  0  0  0  0  0  0  0  0  0
  148.4162  136.5604  156.2211 H   0  0  0  0  0  0  0  0  0  0  0  0
  146.5357  135.1427  155.4380 H   0  0  0  0  0  0  0  0  0  0  0  0
  145.1874  133.8368  157.1814 H   0  0  0  0  0  0  0  0  0  0  0  0
  148.6249  137.0277  161.1730 H   0  0  0  0  0  0  0  0  0  0  0  0
  146.8612  137.1837  161.1494 H   0  0  0  0  0  0  0  0  0  0  0  0
  148.5759  135.7498  163.2044 H   0  0  0  0  0  0  0  0  0  0  0  0
  147.2699  136.8994  163.5118 H   0  0  0  0  0  0  0  0  0  0  0  0
  146.7345  134.2377  163.6481 H   0  0  0  0  0  0  0  0  0  0  0  0
  145.6003  135.2986  162.8109 H   0  0  0  0  0  0  0  0  0  0  0  0
  146.0129  133.8724  160.9957 H   0  0  0  0  0  0  0  0  0  0  0  0
  147.6142  133.4252  161.5973 H   0  0  0  0  0  0  0  0  0  0  0  0
  151.5867  142.9843  157.1478 H   0  0  0  0  0  0  0  0  0  0  0  0
  150.6212  142.7949  158.6025 H   0  0  0  0  0  0  0  0  0  0  0  0
  153.4408  144.0061  158.4464 H   0  0  0  0  0  0  0  0  0  0  0  0
  151.6652  145.5692  157.6469 H   0  0  0  0  0  0  0  0  0  0  0  0
  152.3388  146.1075  159.1822 H   0  0  0  0  0  0  0  0  0  0  0  0
  150.7633  145.3204  159.1414 H   0  0  0  0  0  0  0  0  0  0  0  0
  153.2164  141.5645  158.0823 H   0  0  0  0  0  0  0  0  0  0  0  0
  145.7795  134.0090  159.4008 H   0  0  0  0  0  0  0  0  0  0  0  0
  1  2  1  0  0  0  0
  1 26  1  0  0  0  0
  1 27  1  0  0  0  0
  1 28  1  0  0  0  0
  2 25  1  0  0  0  0
  2  3  1  0  0  0  0
  2 29  1  0  0  0  0
  3  4  1  0  0  0  0
  3 30  1  0  0  0  0
  3 31  1  0  0  0  0
  4  5  1  0  0  0  0
  4 22  1  0  0  0  0
  4 54  1  0  0  0  0
  5  6  1  0  0  0  0
  5 32  1  0  0  0  0
  5 33  1  0  0  0  0
  6  7  1  0  0  0  0
  6 34  1  0  0  0  0
  6 35  1  0  0  0  0
  7  8  1  0  0  0  0
  8  9  2  0  0  0  0
  8 10  1  0  0  0  0
 10 11  1  0  0  0  0
 10 36  1  0  0  0  0
 11 16  1  0  0  0  0
 11 12  2  0  0  0  0
 12 13  1  0  0  0  0
 12 37  1  0  0  0  0
 13 14  2  0  0  0  0
 13 38  1  0  0  0  0
 14 15  1  0  0  0  0
 14 39  1  0  0  0  0
 15 16  2  0  0  0  0
 15 55  1  0  0  0  0
 16 17  1  0  0  0  0
 17 21  1  0  0  0  0
 17 18  1  0  0  0  0
 18 19  1  0  0  0  0
 18 40  1  0  0  0  0
 18 41  1  0  0  0  0
 19 20  1  0  0  0  0
 19 42  1  0  0  0  0
 19 43  1  0  0  0  0
 20 21  1  0  0  0  0
 20 44  1  0  0  0  0
 20 45  1  0  0  0  0
 21 46  1  0  0  0  0
 21 47  1  0  0  0  0
 22 23  1  0  0  0  0
 22 48  1  0  0  0  0
 22 49  1  0  0  0  0
 23 24  1  0  0  0  0
 23 25  1  0  0  0  0
 23 50  1  0  0  0  0
 24 51  1  0  0  0  0
 24 52  1  0  0  0  0
 24 53  1  0  0  0  0
M  CHG  1   4   1
M  CHG  1   7  -1
M  CHG  1  15   1
M  END
> <s_m_source_file>
AV-unprocessed.smi

> <i_m_source_file_index>
1244

> <i_lp_mmshare_version>
43012

> <i_f3d_flags>
0

> <s_epik_input>
W0NIM11bQ0BASF0xW0NIMl1OKFtDSDJdW0NASF0oTzEpW0NIM10pW0NIMl1bQ0gyXVtOSF1DKD1PKVtOSF1jMltjSF1bY0hdW2NIXW5jMk4zW0NIMl1bQ0gyXVtDSDJdW0NIMl0z

> <s_epik_cmdline>
J2VwaWtfcHl0aG9uJywgJy1waCcsICc3LjAnLCAnLXRuJywgJzgnLCAnLW1hJywgJzIwMCcsICctbWV0YWxfYmluZGluZycsICctaW1hZScsICc8aW5maWxlLm1hZT4nLCAnLW9tYWUnLCAnPG91dGZpbGUubWFlPic=

> <r_lp_tautomer_probability>
0.999994

> <r_epik_Ionization_Penalty>
8.60539

> <r_epik_Ionization_Penalty_Charging>
8.60539

> <r_epik_Ionization_Penalty_Neutral>
3.60441e-06

> <r_epik_State_Penalty>
8.59967

> <r_epik_Charging_Adjusted_Penalty>
17.2051

> <i_epik_Tot_Q>
1

> <i_epik_Tot_abs_Q>
3

> <r_epik_Metal_State_Penalty>
4.59489

> <b_epik_Metal_Only>
1

> <s_lp_Force_Field>
OPLS_2005

> <r_lp_Energy>
44.1273

> <b_lp_Chiralities_Consistent>
1

> <s_lp_Variant>
AV-unprocessed.smi:1244-16

> <Gold.Version>
5.8.1

> <Gold.Id.Protein>
6NUR|6NUR_protein|mol2

> <Gold.PLP.Fitness>
44.4176

> <Gold.PLP.PLP>
-45.7113

> <Gold.PLP.part.hbond>
0.0000

> <Gold.PLP.part.metal>
0.0000

> <Gold.PLP.part.buried>
-6.2176

> <Gold.PLP.part.nonpolar>
-39.5526

> <Gold.PLP.part.repulsive>
0.3026

> <Gold.PLP.ligand.clash>
0.0000

> <Gold.PLP.ligand.torsion>
1.2501

> <Gold.PLP.Chemscore.Hbond>
0.0000

> <Gold.PLP.Chemscore.CHOScore>
0.0000

> <Gold.PLP.Chemscore.Metal>
0.0000

> <Gold.PLP.Chemscore.Internal.Correction>
1.2064

> <Gold.Rescore>
     Score         DG    S(hbond)    S(metal)    S(lipo)     H(rot)  DE(clash)    DE(int)     intcor
     13.67     -16.52       0.00        0.00     125.39       1.42       0.04       2.81       ----

> <Gold.Chemscore.Fitness>
13.6669

> <Gold.Chemscore.DG>
-16.5196

> <Gold.Chemscore.ZeroCoef>
-5.4800

> <Gold.Chemscore.Hbond>
0.0000

> <Gold.Chemscore.Metal>
0.0000

> <Gold.Chemscore.Lipo>
125.3920

> <Gold.Chemscore.Internal_Hbond>
0.0000

> <Gold.Chemscore.DEClash>
0.0428

> <Gold.Chemscore.DEInternal>
2.8099

> <Gold.Chemscore.Rot>
1.4185

> <Gold.Chemscore.Internal.Correction>
   9.000000E+99

> <Gold.Chemscore.Hbond.Weighted>
-0.0000

> <Gold.Chemscore.Metal.Weighted>
-0.0000

> <Gold.Chemscore.Lipo.Weighted>
-14.6709

> <Gold.Chemscore.Internal_Hbond.Weighted>
0.0000

> <Gold.Chemscore.DEClash.Weighted>
0.0428

> <Gold.Chemscore.DEInternal.Weighted>
2.8099

> <Gold.Chemscore.Rot.Weighted>
3.6313

> <Gold.Chemscore.Internal.Correction.Weighted>
   9.000000E+99

> <Gold.Protein.RotatedTorsions>
[ 6907 6896 6895 6894 ] final -122.85 input  -60.11 | X-H torsion
[ 7974 7965 7964 7962 ] final -100.10 input  175.53 | X-H torsion
[ 8008 7997 7996 7995 ] final   87.73 input   59.86 | X-H torsion
[ 10167 10162 10161 10158 ] final   -2.90 input  -65.29 | X-H torsion
[ 10718 10713 10712 10709 ] final -159.65 input   66.30 | X-H torsion
[ 10763 10752 10751 10750 ] final  175.85 input  -60.55 | X-H torsion
[ 11005 11000 10999 10996 ] final -106.02 input  -57.11 | X-H torsion

> <Gold.Protein.ActiveResidues>
 VAL166  LYS551  ARG553  GLY616  TRP617  ASP618  TYR619  PRO620  LYS621  CYS622 
 ASP623  PHE694  ASN695  SER759  ASP760  ASP761  ALA762  ILE779  LEU786  VAL792 
 PHE793  MET794  SER795  GLU796  ALA797  LYS798  CYS799  TRP800  GLU811  SER814 

> <Gold.Protein.RotatedAtoms>
  150.8614  133.7637  159.2990 H   0  0  0  0  0  0  0  0  0  0  0  0  # atno 6907 bound_to 6896
  151.5278  135.1066  159.9904 H   0  0  0  0  0  0  0  0  0  0  0  0  # atno 6908 bound_to 6896
  152.4629  133.7817  159.6910 H   0  0  0  0  0  0  0  0  0  0  0  0  # atno 6909 bound_to 6896
  145.2990  140.9372  143.2834 H   0  0  0  0  0  0  0  0  0  0  0  0  # atno 7974 bound_to 7965
  155.9790  140.3379  155.6645 H   0  0  0  0  0  0  0  0  0  0  0  0  # atno 8008 bound_to 7997
  155.6574  140.0712  157.2584 H   0  0  0  0  0  0  0  0  0  0  0  0  # atno 8009 bound_to 7997
  154.4186  140.1715  156.1727 H   0  0  0  0  0  0  0  0  0  0  0  0  # atno 8010 bound_to 7997
  140.6869  143.6603  150.8272 H   0  0  0  0  0  0  0  0  0  0  0  0  # atno 10167 bound_to 10162
  156.5711  130.8689  151.2838 H   0  0  0  0  0  0  0  0  0  0  0  0  # atno 10718 bound_to 10713
  154.4732  135.2772  155.1627 H   0  0  0  0  0  0  0  0  0  0  0  0  # atno 10763 bound_to 10752
  154.3367  135.6178  153.5580 H   0  0  0  0  0  0  0  0  0  0  0  0  # atno 10764 bound_to 10752
  152.9866  135.5778  154.5118 H   0  0  0  0  0  0  0  0  0  0  0  0  # atno 10765 bound_to 10752
  141.1025  133.8858  157.1806 H   0  0  0  0  0  0  0  0  0  0  0  0  # atno 11005 bound_to 11000
  144.9109  139.4529  143.6587 LP  0  0  0  0  0  0  0  0  0  0  0  0  # atno 17320 bound_to 7965
  146.3159  139.7917  142.8984 LP  0  0  0  0  0  0  0  0  0  0  0  0  # atno 17321 bound_to 7965
  140.0311  143.5442  152.2759 LP  0  0  0  0  0  0  0  0  0  0  0  0  # atno 17342 bound_to 10162
  139.6235  144.7633  151.2688 LP  0  0  0  0  0  0  0  0  0  0  0  0  # atno 17343 bound_to 10162
  157.7348  130.9751  150.2047 LP  0  0  0  0  0  0  0  0  0  0  0  0  # atno 17370 bound_to 10713
  156.2713  130.3722  149.8028 LP  0  0  0  0  0  0  0  0  0  0  0  0  # atno 17371 bound_to 10713
  139.9882  135.0074  156.9912 LP  0  0  0  0  0  0  0  0  0  0  0  0  # atno 17394 bound_to 11000
  140.4986  134.1120  155.7246 LP  0  0  0  0  0  0  0  0  0  0  0  0  # atno 17395 bound_to 11000

$$$$
