AV-unprocessed.smi:546|AV-procd|sdf|2885|dock5
  -GOLD-   2262023383D 1   1.00000     0.00000
 Structure written by MMmdl.
 52 54  0  0  0  0  0  0  0  0  1 V2000
  142.7114  136.1564  154.4719 C   0  0  0  0  0  0  0  0  0  0  0  0
  143.5147  136.7742  155.6183 C   0  0  0  0  0  0  0  0  0  0  0  0
  144.3083  135.7605  156.2075 O   0  0  0  0  0  0  0  0  0  0  0  0
  145.3376  136.2699  157.0388 C   0  0  0  0  0  0  0  0  0  0  0  0
  146.1248  135.1043  157.6548 C   0  0  0  0  0  0  0  0  0  0  0  0
  147.5433  135.4232  157.7801 N   0  0  0  0  0  0  0  0  0  0  0  0
  148.3054  135.4655  158.9070 C   0  0  0  0  0  0  0  0  0  0  0  0
  147.7768  135.2535  160.1831 N   0  0  0  0  0  0  0  0  0  0  0  0
  148.2439  135.9405  161.3920 C   0  0  0  0  0  0  0  0  0  0  0  0
  147.1346  136.1944  162.4396 C   0  0  1  0  0  0  0  0  0  0  0  0
  146.1752  137.3315  162.0526 C   0  0  0  0  0  0  0  0  0  0  0  0
  146.3939  134.8879  162.7696 C   0  0  0  0  0  0  0  0  0  0  0  0
  145.9429  134.1697  161.4884 C   0  0  2  0  0  0  0  0  0  0  0  0
  145.2707  132.8272  161.8059 C   0  0  0  0  0  0  0  0  0  0  0  0
  147.1480  133.9843  160.5494 C   0  0  0  0  0  0  0  0  0  0  0  0
  149.6033  135.6971  158.6880 N   0  0  0  0  0  0  0  0  0  0  0  0
  149.6728  135.8391  157.3114 C   0  0  0  0  0  0  0  0  0  0  0  0
  148.4488  135.6799  156.7473 C   0  0  0  0  0  0  0  0  0  0  0  0
  148.2388  135.7496  155.2935 C   0  0  0  0  0  0  0  0  0  0  0  0
  147.1438  135.6040  154.7550 O   0  0  0  0  0  0  0  0  0  0  0  0
  149.3794  135.9881  154.6019 N   0  0  0  0  0  0  0  0  0  0  0  0
  150.6387  136.1575  155.1077 C   0  0  0  0  0  0  0  0  0  0  0  0
  151.5846  136.3627  154.3472 O   0  0  0  0  0  0  0  0  0  0  0  0
  150.7934  136.0876  156.4684 N   0  0  0  0  0  0  0  0  0  0  0  0
  152.1206  136.2551  157.0633 C   0  0  0  0  0  0  0  0  0  0  0  0
  149.2900  136.0445  153.5979 H   0  0  0  0  0  0  0  0  0  0  0  0
  142.0847  136.9046  153.9868 H   0  0  0  0  0  0  0  0  0  0  0  0
  142.0623  135.3592  154.8348 H   0  0  0  0  0  0  0  0  0  0  0  0
  143.3726  135.7314  153.7166 H   0  0  0  0  0  0  0  0  0  0  0  0
  144.1479  137.5786  155.2420 H   0  0  0  0  0  0  0  0  0  0  0  0
  142.8383  137.2019  156.3595 H   0  0  0  0  0  0  0  0  0  0  0  0
  146.0065  136.9077  156.4596 H   0  0  0  0  0  0  0  0  0  0  0  0
  144.9025  136.8822  157.8301 H   0  0  0  0  0  0  0  0  0  0  0  0
  145.7209  134.8451  158.6314 H   0  0  0  0  0  0  0  0  0  0  0  0
  145.9998  134.2092  157.0549 H   0  0  0  0  0  0  0  0  0  0  0  0
  149.0178  135.3171  161.8420 H   0  0  0  0  0  0  0  0  0  0  0  0
  148.7437  136.8732  161.1331 H   0  0  0  0  0  0  0  0  0  0  0  0
  147.6298  136.5219  163.3546 H   0  0  0  0  0  0  0  0  0  0  0  0
  145.6319  137.1098  161.1356 H   0  0  0  0  0  0  0  0  0  0  0  0
  146.7147  138.2672  161.9065 H   0  0  0  0  0  0  0  0  0  0  0  0
  145.4379  137.5033  162.8371 H   0  0  0  0  0  0  0  0  0  0  0  0
  147.0625  134.2335  163.3309 H   0  0  0  0  0  0  0  0  0  0  0  0
  145.5417  135.0849  163.4211 H   0  0  0  0  0  0  0  0  0  0  0  0
  145.2056  134.7906  160.9784 H   0  0  0  0  0  0  0  0  0  0  0  0
  145.9570  132.1507  162.3164 H   0  0  0  0  0  0  0  0  0  0  0  0
  144.9325  132.3329  160.8949 H   0  0  0  0  0  0  0  0  0  0  0  0
  144.4004  132.9664  162.4477 H   0  0  0  0  0  0  0  0  0  0  0  0
  146.8197  133.4769  159.6412 H   0  0  0  0  0  0  0  0  0  0  0  0
  147.8950  133.3372  161.0117 H   0  0  0  0  0  0  0  0  0  0  0  0
  152.5618  137.2054  156.7598 H   0  0  0  0  0  0  0  0  0  0  0  0
  152.7853  135.4527  156.7412 H   0  0  0  0  0  0  0  0  0  0  0  0
  152.0966  136.2438  158.1529 H   0  0  0  0  0  0  0  0  0  0  0  0
  1  2  1  0  0  0  0
  1 27  1  0  0  0  0
  1 28  1  0  0  0  0
  1 29  1  0  0  0  0
  2  3  1  0  0  0  0
  2 30  1  0  0  0  0
  2 31  1  0  0  0  0
  3  4  1  0  0  0  0
  4  5  1  0  0  0  0
  4 32  1  0  0  0  0
  4 33  1  0  0  0  0
  5  6  1  0  0  0  0
  5 34  1  0  0  0  0
  5 35  1  0  0  0  0
  6 18  1  0  0  0  0
  6  7  1  0  0  0  0
  7  8  1  0  0  0  0
  7 16  2  0  0  0  0
  8 15  1  0  0  0  0
  8  9  1  0  0  0  0
  9 10  1  0  0  0  0
  9 36  1  0  0  0  0
  9 37  1  0  0  0  0
 10 11  1  0  0  0  0
 10 12  1  0  0  0  0
 10 38  1  0  0  0  0
 11 39  1  0  0  0  0
 11 40  1  0  0  0  0
 11 41  1  0  0  0  0
 12 13  1  0  0  0  0
 12 42  1  0  0  0  0
 12 43  1  0  0  0  0
 13 14  1  0  0  0  0
 13 15  1  0  0  0  0
 13 44  1  0  0  0  0
 14 45  1  0  0  0  0
 14 46  1  0  0  0  0
 14 47  1  0  0  0  0
 15 48  1  0  0  0  0
 15 49  1  0  0  0  0
 16 17  1  0  0  0  0
 17 24  1  0  0  0  0
 17 18  2  0  0  0  0
 18 19  1  0  0  0  0
 19 20  2  0  0  0  0
 19 21  1  0  0  0  0
 21 26  1  0  0  0  0
 21 22  1  0  0  0  0
 22 23  2  0  0  0  0
 22 24  1  0  0  0  0
 24 25  1  0  0  0  0
 25 50  1  0  0  0  0
 25 51  1  0  0  0  0
 25 52  1  0  0  0  0
M  END
> <s_m_source_file>
AV-unprocessed.smi

> <i_m_source_file_index>
546

> <i_lp_mmshare_version>
43012

> <i_f3d_flags>
0

> <s_epik_input>
W0NIM11uMWMoPU8pW25IXWMoPU8pYyhjMTIpbihbQ0gyXVtDSDJdT1tDSDJdW0NIM10pYyhuMilOM1tDSDJdW0NAQEhdKFtDSDNdKVtDSDJdW0NAQEhdKFtDSDNdKVtDSDJdMw==

> <s_epik_cmdline>
J2VwaWtfcHl0aG9uJywgJy1waCcsICc3LjAnLCAnLXRuJywgJzgnLCAnLW1hJywgJzIwMCcsICctbWV0YWxfYmluZGluZycsICctaW1hZScsICc8aW5maWxlLm1hZT4nLCAnLW9tYWUnLCAnPG91dGZpbGUubWFlPic=

> <r_lp_tautomer_probability>
1

> <r_epik_Ionization_Penalty>
0.000576472

> <r_epik_Ionization_Penalty_Charging>
0.000118943

> <r_epik_Ionization_Penalty_Neutral>
0.000457529

> <r_epik_State_Penalty>
-0

> <r_epik_Charging_Adjusted_Penalty>
0.000118943

> <i_epik_Tot_Q>
0

> <i_epik_Tot_abs_Q>
0

> <r_epik_Metal_State_Penalty>
0.0916165

> <b_epik_Metal_Only>
0

> <s_lp_Force_Field>
OPLS_2005

> <r_lp_Energy>
39.3864

> <b_lp_Chiralities_Consistent>
1

> <s_lp_Variant>
AV-unprocessed.smi:546-3

> <Gold.Version>
5.8.1

> <Gold.Id.Protein>
6NUR|6NUR_protein|mol2

> <Gold.PLP.Fitness>
36.7372

> <Gold.PLP.PLP>
-29.5176

> <Gold.PLP.part.hbond>
-3.0000

> <Gold.PLP.part.metal>
0.0000

> <Gold.PLP.part.buried>
-4.7779

> <Gold.PLP.part.nonpolar>
-21.8348

> <Gold.PLP.part.repulsive>
0.3167

> <Gold.PLP.ligand.clash>
0.0000

> <Gold.PLP.ligand.torsion>
1.1470

> <Gold.PLP.Chemscore.Hbond>
3.0000

> <Gold.PLP.Chemscore.CHOScore>
0.0000

> <Gold.PLP.Chemscore.Metal>
0.0000

> <Gold.Chemscore.Hbonds>
donor molecule, donor type, donor heavy atom, donor atom, acceptor molecule, acceptor atom, score
      L1  H    21    26       P1  7948  1.00
      P1  H  6896  6909       L1    16  1.00
      P1  H 10752 10765       L1    23  0.98

> <Gold.PLP.Chemscore.Internal.Correction>
0.5136

> <Gold.Rescore>
     Score         DG    S(hbond)    S(metal)    S(lipo)     H(rot)  DE(clash)    DE(int)     intcor
     17.31     -18.58       2.82        0.00      65.33       1.55       0.05       1.22       ----

> <Gold.Chemscore.Fitness>
17.3145

> <Gold.Chemscore.DG>
-18.5817

> <Gold.Chemscore.ZeroCoef>
-5.4800

> <Gold.Chemscore.Hbond>
2.8194

> <Gold.Chemscore.Metal>
0.0000

> <Gold.Chemscore.Lipo>
65.3348

> <Gold.Chemscore.Internal_Hbond>
0.0000

> <Gold.Chemscore.DEClash>
0.0459

> <Gold.Chemscore.DEInternal>
1.2214

> <Gold.Chemscore.Rot>
1.5465

> <Gold.Chemscore.Internal.Correction>
   9.000000E+99

> <Gold.Chemscore.Hbonds>
donor molecule, donor type, donor heavy atom, donor atom, acceptor molecule, acceptor atom, score
      L1  H    21    26       P1  7948  0.74
      P1  H  6896  6909       L1    16  0.92
      P1  H 10752 10765       L1    23  0.92

> <Gold.Chemscore.Hbond.Weighted>
-9.4166

> <Gold.Chemscore.Metal.Weighted>
-0.0000

> <Gold.Chemscore.Lipo.Weighted>
-7.6442

> <Gold.Chemscore.Internal_Hbond.Weighted>
0.0000

> <Gold.Chemscore.DEClash.Weighted>
0.0459

> <Gold.Chemscore.DEInternal.Weighted>
1.2214

> <Gold.Chemscore.Rot.Weighted>
3.9591

> <Gold.Chemscore.Internal.Correction.Weighted>
   9.000000E+99

> <Gold.Protein.RotatedTorsions>
[ 6907 6896 6895 6894 ] final   59.12 input  -60.11 | X-H torsion
[ 7974 7965 7964 7962 ] final -120.88 input  175.53 | X-H torsion
[ 8008 7997 7996 7995 ] final   74.63 input   59.86 | X-H torsion
[ 10167 10162 10161 10158 ] final  109.69 input  -65.29 | X-H torsion
[ 10718 10713 10712 10709 ] final  148.56 input   66.30 | X-H torsion
[ 10763 10752 10751 10750 ] final  163.63 input  -60.55 | X-H torsion
[ 11005 11000 10999 10996 ] final  139.96 input  -57.11 | X-H torsion

> <Gold.Protein.ActiveResidues>
 VAL166  LYS551  ARG553  GLY616  TRP617  ASP618  TYR619  PRO620  LYS621  CYS622 
 ASP623  PHE694  ASN695  SER759  ASP760  ASP761  ALA762  ILE779  LEU786  VAL792 
 PHE793  MET794  SER795  GLU796  ALA797  LYS798  CYS799  TRP800  GLU811  SER814 

> <Gold.Protein.RotatedAtoms>
  152.3886  134.6477  160.0115 H   0  0  0  0  0  0  0  0  0  0  0  0  # atno 6907 bound_to 6896
  151.6718  133.3308  159.3206 H   0  0  0  0  0  0  0  0  0  0  0  0  # atno 6908 bound_to 6896
  150.7807  134.6793  159.6479 H   0  0  0  0  0  0  0  0  0  0  0  0  # atno 6909 bound_to 6896
  145.0465  140.8185  143.4235 H   0  0  0  0  0  0  0  0  0  0  0  0  # atno 7974 bound_to 7965
  155.8011  140.3476  155.5403 H   0  0  0  0  0  0  0  0  0  0  0  0  # atno 8008 bound_to 7997
  155.8536  140.0960  157.1679 H   0  0  0  0  0  0  0  0  0  0  0  0  # atno 8009 bound_to 7997
  154.4009  140.1372  156.3862 H   0  0  0  0  0  0  0  0  0  0  0  0  # atno 8010 bound_to 7997
  139.6746  144.7123  151.1624 H   0  0  0  0  0  0  0  0  0  0  0  0  # atno 10167 bound_to 10162
  157.3070  131.0881  151.1346 H   0  0  0  0  0  0  0  0  0  0  0  0  # atno 10718 bound_to 10713
  154.2966  135.2760  155.2630 H   0  0  0  0  0  0  0  0  0  0  0  0  # atno 10763 bound_to 10752
  154.5085  135.5789  153.6590 H   0  0  0  0  0  0  0  0  0  0  0  0  # atno 10764 bound_to 10752
  152.9906  135.6175  154.3134 H   0  0  0  0  0  0  0  0  0  0  0  0  # atno 10765 bound_to 10752
  140.0293  134.9360  157.0630 H   0  0  0  0  0  0  0  0  0  0  0  0  # atno 11005 bound_to 11000
  145.1581  139.2474  143.5406 LP  0  0  0  0  0  0  0  0  0  0  0  0  # atno 17320 bound_to 7965
  146.3514  140.1301  142.8597 LP  0  0  0  0  0  0  0  0  0  0  0  0  # atno 17321 bound_to 7965
  140.7631  143.5791  150.8914 LP  0  0  0  0  0  0  0  0  0  0  0  0  # atno 17342 bound_to 10162
  139.9459  143.6328  152.3042 LP  0  0  0  0  0  0  0  0  0  0  0  0  # atno 17343 bound_to 10162
  157.2682  130.6692  149.6007 LP  0  0  0  0  0  0  0  0  0  0  0  0  # atno 17370 bound_to 10713
  155.9675  130.4487  150.5630 LP  0  0  0  0  0  0  0  0  0  0  0  0  # atno 17371 bound_to 10713
  140.4253  134.1837  155.7166 LP  0  0  0  0  0  0  0  0  0  0  0  0  # atno 17394 bound_to 11000
  141.1821  133.8391  157.1220 LP  0  0  0  0  0  0  0  0  0  0  0  0  # atno 17395 bound_to 11000

$$$$
