AV-unprocessed.smi:3128|AV-procd|sdf|11918|dock1
  -GOLD-   2272017293D 1   1.00000     0.00000
 Structure written by MMmdl.
 40 40  0  0  0  0  0  0  0  0  2 V2000
  149.7740  141.4047  155.8306 C   0  0  0  0  0  0  0  0  0  0  0  0
  149.1134  141.1097  154.4720 C   0  0  0  0  0  0  0  0  0  0  0  0
  147.8738  142.0090  154.3005 C   0  0  0  0  0  0  0  0  0  0  0  0
  148.7807  139.5996  154.2956 C   0  0  2  0  0  0  0  0  0  0  0  0
  150.0131  138.6739  154.3614 C   0  0  0  0  0  0  0  0  0  0  0  0
  147.9998  139.3277  153.0842 N   0  0  0  0  0  0  0  0  0  0  0  0
  146.8666  138.6117  152.9861 C   0  0  0  0  0  0  0  0  0  0  0  0
  146.3083  138.0801  153.9461 O   0  0  0  0  0  0  0  0  0  0  0  0
  146.2724  138.4894  151.5829 C   0  0  0  0  0  0  0  0  0  0  0  0
  146.3529  137.1069  151.0720 N   0  3  0  0  0  0  0  0  0  0  0  0
  145.1101  136.3264  151.2339 C   0  0  0  0  0  0  0  0  0  0  0  0
  145.3384  135.0695  152.0888 C   0  0  0  0  0  0  0  0  0  0  0  0
  145.1410  133.8469  151.3305 N   0  0  0  0  0  0  0  0  0  0  0  0
  144.0227  133.4417  150.6328 C   0  0  0  0  0  0  0  0  0  0  0  0
  144.3111  132.2305  150.0719 C   0  0  0  0  0  0  0  0  0  0  0  0
  145.6461  131.9721  150.4906 C   0  0  0  0  0  0  0  0  0  0  0  0
  146.1406  132.9426  151.2424 N   0  0  0  0  0  0  0  0  0  0  0  0
  149.1374  141.0895  156.6578 H   0  0  0  0  0  0  0  0  0  0  0  0
  149.9658  142.4714  155.9502 H   0  0  0  0  0  0  0  0  0  0  0  0
  150.7339  140.8995  155.9331 H   0  0  0  0  0  0  0  0  0  0  0  0
  149.8303  141.3984  153.7028 H   0  0  0  0  0  0  0  0  0  0  0  0
  147.0959  141.7505  155.0195 H   0  0  0  0  0  0  0  0  0  0  0  0
  147.4457  141.9281  153.3016 H   0  0  0  0  0  0  0  0  0  0  0  0
  148.1277  143.0587  154.4510 H   0  0  0  0  0  0  0  0  0  0  0  0
  148.1255  139.3121  155.1190 H   0  0  0  0  0  0  0  0  0  0  0  0
  150.4690  138.6843  155.3509 H   0  0  0  0  0  0  0  0  0  0  0  0
  150.7786  138.9665  153.6425 H   0  0  0  0  0  0  0  0  0  0  0  0
  149.7375  137.6397  154.1524 H   0  0  0  0  0  0  0  0  0  0  0  0
  148.3668  139.7245  152.2312 H   0  0  0  0  0  0  0  0  0  0  0  0
  145.2300  138.8088  151.6110 H   0  0  0  0  0  0  0  0  0  0  0  0
  146.8033  139.1564  150.9017 H   0  0  0  0  0  0  0  0  0  0  0  0
  146.5765  137.1464  150.0873 H   0  0  0  0  0  0  0  0  0  0  0  0
  144.3570  136.9598  151.7040 H   0  0  0  0  0  0  0  0  0  0  0  0
  144.7231  136.0433  150.2540 H   0  0  0  0  0  0  0  0  0  0  0  0
  146.3423  135.0673  152.5166 H   0  0  0  0  0  0  0  0  0  0  0  0
  144.6420  135.0639  152.9284 H   0  0  0  0  0  0  0  0  0  0  0  0
  143.1255  134.0418  150.5921 H   0  0  0  0  0  0  0  0  0  0  0  0
  143.6660  131.6204  149.4570 H   0  0  0  0  0  0  0  0  0  0  0  0
  146.2666  131.1157  150.2710 H   0  0  0  0  0  0  0  0  0  0  0  0
  147.1053  136.6301  151.5486 H   0  0  0  0  0  0  0  0  0  0  0  0
  1  2  1  0  0  0  0
  1 18  1  0  0  0  0
  1 19  1  0  0  0  0
  1 20  1  0  0  0  0
  2  3  1  0  0  0  0
  2  4  1  0  0  0  0
  2 21  1  0  0  0  0
  3 22  1  0  0  0  0
  3 23  1  0  0  0  0
  3 24  1  0  0  0  0
  4  5  1  0  0  0  0
  4  6  1  0  0  0  0
  4 25  1  0  0  0  0
  5 26  1  0  0  0  0
  5 27  1  0  0  0  0
  5 28  1  0  0  0  0
  6  7  1  0  0  0  0
  6 29  1  0  0  0  0
  7  8  2  0  0  0  0
  7  9  1  0  0  0  0
  9 10  1  0  0  0  0
  9 30  1  0  0  0  0
  9 31  1  0  0  0  0
 10 11  1  0  0  0  0
 10 32  1  0  0  0  0
 10 40  1  0  0  0  0
 11 12  1  0  0  0  0
 11 33  1  0  0  0  0
 11 34  1  0  0  0  0
 12 13  1  0  0  0  0
 12 35  1  0  0  0  0
 12 36  1  0  0  0  0
 13 17  1  0  0  0  0
 13 14  1  0  0  0  0
 14 15  2  0  0  0  0
 14 37  1  0  0  0  0
 15 16  1  0  0  0  0
 15 38  1  0  0  0  0
 16 17  2  0  0  0  0
 16 39  1  0  0  0  0
M  CHG  1  10   1
M  END
> <s_m_source_file>
AV-unprocessed.smi

> <i_m_source_file_index>
3128

> <i_lp_mmshare_version>
43012

> <i_f3d_flags>
0

> <s_epik_input>
W0NIM11bQ0hdKFtDSDNdKVtDQEhdKFtDSDNdKVtOSF1DKD1PKVtDSDJdW05IXVtDSDJdW0NIMl1uMVtjSF1bY0hdW2NIXW4x

> <s_epik_cmdline>
J2VwaWtfcHl0aG9uJywgJy1waCcsICc3LjAnLCAnLXRuJywgJzgnLCAnLW1hJywgJzIwMCcsICctbWV0YWxfYmluZGluZycsICctaW1hZScsICc8aW5maWxlLm1hZT4nLCAnLW9tYWUnLCAnPG91dGZpbGUubWFlPic=

> <r_lp_tautomer_probability>
1

> <r_epik_Ionization_Penalty>
0.20724

> <r_epik_Ionization_Penalty_Charging>
0.207237

> <r_epik_Ionization_Penalty_Neutral>
3.20642e-06

> <r_epik_State_Penalty>
0.197613

> <r_epik_Charging_Adjusted_Penalty>
0.40485

> <i_epik_Tot_Q>
1

> <i_epik_Tot_abs_Q>
1

> <r_epik_Metal_State_Penalty>
0.197789

> <b_epik_Metal_Only>
0

> <s_lp_Force_Field>
OPLS_2005

> <r_lp_Energy>
3.68696

> <b_lp_Chiralities_Consistent>
1

> <s_lp_Variant>
AV-unprocessed.smi:3128-1

> <Gold.Version>
5.8.1

> <Gold.Id.Protein>
6NUR|6NUR_protein|mol2

> <Gold.PLP.Fitness>
49.1690

> <Gold.PLP.PLP>
-36.4111

> <Gold.PLP.part.hbond>
-2.2027

> <Gold.PLP.part.metal>
0.0000

> <Gold.PLP.part.buried>
-0.2906

> <Gold.PLP.part.nonpolar>
-34.7392

> <Gold.PLP.part.repulsive>
0.8371

> <Gold.PLP.ligand.clash>
0.0000

> <Gold.PLP.ligand.torsion>
1.2994

> <Gold.PLP.Chemscore.Hbond>
3.0000

> <Gold.PLP.Chemscore.CHOScore>
2.0000

> <Gold.PLP.Chemscore.Metal>
0.0000

> <Gold.Chemscore.Hbonds>
donor molecule, donor type, donor heavy atom, donor atom, acceptor molecule, acceptor atom, score
      L1  H     6    29       P1  7957  1.00
      L1  H    10    40       P1  7948  2.00
      L1  C    14    37       P1 10186  1.00
      L1  C    16    39       P1 10747  0.55

> <Gold.PLP.Chemscore.Internal.Correction>
0.3567

> <Gold.Rescore>
     Score         DG    S(hbond)    S(metal)    S(lipo)     H(rot)  DE(clash)    DE(int)     intcor
     14.24     -16.21       1.98        0.00      84.33       2.24       0.74       1.23       ----

> <Gold.Chemscore.Fitness>
14.2432

> <Gold.Chemscore.DG>
-16.2077

> <Gold.Chemscore.ZeroCoef>
-5.4800

> <Gold.Chemscore.Hbond>
1.9759

> <Gold.Chemscore.Metal>
0.0000

> <Gold.Chemscore.Lipo>
84.3308

> <Gold.Chemscore.Internal_Hbond>
0.0000

> <Gold.Chemscore.DEClash>
0.7361

> <Gold.Chemscore.DEInternal>
1.2283

> <Gold.Chemscore.Rot>
2.2416

> <Gold.Chemscore.Internal.Correction>
   9.000000E+99

> <Gold.Chemscore.Hbonds>
donor molecule, donor type, donor heavy atom, donor atom, acceptor molecule, acceptor atom, score
      L1  H     6    29       P1  7957  0.97
      L1  H    10    40       P1  7948  0.96

> <Gold.Chemscore.Hbond.Weighted>
-6.5995

> <Gold.Chemscore.Metal.Weighted>
-0.0000

> <Gold.Chemscore.Lipo.Weighted>
-9.8667

> <Gold.Chemscore.Internal_Hbond.Weighted>
0.0000

> <Gold.Chemscore.DEClash.Weighted>
0.7361

> <Gold.Chemscore.DEInternal.Weighted>
1.2283

> <Gold.Chemscore.Rot.Weighted>
5.7385

> <Gold.Chemscore.Internal.Correction.Weighted>
   9.000000E+99

> <Gold.Protein.RotatedTorsions>
[ 6907 6896 6895 6894 ] final   83.87 input  -60.11 | X-H torsion
[ 7974 7965 7964 7962 ] final   93.57 input  175.53 | X-H torsion
[ 8008 7997 7996 7995 ] final  -69.95 input   59.86 | X-H torsion
[ 10167 10162 10161 10158 ] final   80.64 input  -65.29 | X-H torsion
[ 10718 10713 10712 10709 ] final  160.78 input   66.30 | X-H torsion
[ 10763 10752 10751 10750 ] final   61.97 input  -60.55 | X-H torsion
[ 11005 11000 10999 10996 ] final  -44.41 input  -57.11 | X-H torsion

> <Gold.Protein.ActiveResidues>
 VAL166  LYS551  ARG553  GLY616  TRP617  ASP618  TYR619  PRO620  LYS621  CYS622 
 ASP623  PHE694  ASN695  SER759  ASP760  ASP761  ALA762  ILE779  LEU786  VAL792 
 PHE793  MET794  SER795  GLU796  ALA797  LYS798  CYS799  TRP800  GLU811  SER814 

> <Gold.Protein.RotatedAtoms>
  152.5338  134.2829  159.9013 H   0  0  0  0  0  0  0  0  0  0  0  0  # atno 6907 bound_to 6896
  151.2782  133.4215  159.2633 H   0  0  0  0  0  0  0  0  0  0  0  0  # atno 6908 bound_to 6896
  151.0307  134.9552  159.8166 H   0  0  0  0  0  0  0  0  0  0  0  0  # atno 6909 bound_to 6896
  145.4771  139.2280  143.2903 H   0  0  0  0  0  0  0  0  0  0  0  0  # atno 7974 bound_to 7965
  154.4976  140.0843  156.7729 H   0  0  0  0  0  0  0  0  0  0  0  0  # atno 8008 bound_to 7997
  155.4080  140.3440  155.4243 H   0  0  0  0  0  0  0  0  0  0  0  0  # atno 8009 bound_to 7997
  156.1414  140.1530  156.8902 H   0  0  0  0  0  0  0  0  0  0  0  0  # atno 8010 bound_to 7997
  139.9477  144.6047  150.8191 H   0  0  0  0  0  0  0  0  0  0  0  0  # atno 10167 bound_to 10162
  157.1456  131.0551  151.2305 H   0  0  0  0  0  0  0  0  0  0  0  0  # atno 10718 bound_to 10713
  152.9967  135.5482  154.6119 H   0  0  0  0  0  0  0  0  0  0  0  0  # atno 10763 bound_to 10752
  154.5437  135.2821  155.1074 H   0  0  0  0  0  0  0  0  0  0  0  0  # atno 10764 bound_to 10752
  154.2341  135.6428  153.5238 H   0  0  0  0  0  0  0  0  0  0  0  0  # atno 10765 bound_to 10752
  141.0448  133.6765  156.2868 H   0  0  0  0  0  0  0  0  0  0  0  0  # atno 11005 bound_to 11000
  146.2363  140.5554  142.8953 LP  0  0  0  0  0  0  0  0  0  0  0  0  # atno 17320 bound_to 7965
  144.7911  140.6033  143.6541 LP  0  0  0  0  0  0  0  0  0  0  0  0  # atno 17321 bound_to 7965
  140.7592  143.3124  151.2813 LP  0  0  0  0  0  0  0  0  0  0  0  0  # atno 17342 bound_to 10162
  139.6654  144.0115  152.2719 LP  0  0  0  0  0  0  0  0  0  0  0  0  # atno 17343 bound_to 10162
  157.4267  130.7468  149.6957 LP  0  0  0  0  0  0  0  0  0  0  0  0  # atno 17370 bound_to 10713
  155.9780  130.4056  150.3676 LP  0  0  0  0  0  0  0  0  0  0  0  0  # atno 17371 bound_to 10713
  140.6167  134.5403  157.5541 LP  0  0  0  0  0  0  0  0  0  0  0  0  # atno 17394 bound_to 11000
  139.9303  134.7976  156.0949 LP  0  0  0  0  0  0  0  0  0  0  0  0  # atno 17395 bound_to 11000

$$$$
