AV-unprocessed.smi:1005|AV-procd|sdf|4372|dock10
  -GOLD-   22720 2283D 1   1.00000     0.00000
 Structure written by MMmdl.
 57 59  0  0  0  0  0  0  0  0  3 V2000
  152.7843  143.1719  161.5732 C   0  0  0  0  0  0  0  0  0  0  0  0
  152.2698  142.7867  160.1973 C   0  0  0  0  0  0  0  0  0  0  0  0
  152.7558  141.6085  159.5868 C   0  0  0  0  0  0  0  0  0  0  0  0
  152.3055  141.2173  158.3070 C   0  0  0  0  0  0  0  0  0  0  0  0
  152.6468  140.1245  157.5285 N   0  0  0  0  0  0  0  0  0  0  0  0
  151.8955  140.3186  156.4487 C   0  0  0  0  0  0  0  0  0  0  0  0
  151.1080  141.4112  156.4334 N   0  0  0  0  0  0  0  0  0  0  0  0
  150.2125  141.8268  155.3682 C   0  0  0  0  0  0  0  0  0  0  0  0
  149.3534  140.6651  154.8323 C   0  0  2  0  0  0  0  0  0  0  0  0
  150.1109  139.9049  153.9098 O   0  0  0  0  0  0  0  0  0  0  0  0
  148.0833  141.1767  154.1232 C   0  0  0  0  0  0  0  0  0  0  0  0
  147.3074  142.1366  154.9500 N   0  3  2  0  0  0  0  0  0  0  0  0
  146.8950  141.5594  156.2509 C   0  0  0  0  0  0  0  0  0  0  0  0
  146.1613  142.6131  157.0961 C   0  0  0  0  0  0  0  0  0  0  0  0
  145.0479  143.1177  156.3678 O   0  0  0  0  0  0  0  0  0  0  0  0
  145.4367  143.7612  155.1584 C   0  0  2  0  0  0  0  0  0  0  0  0
  144.1722  144.3363  154.4926 C   0  0  0  0  0  0  0  0  0  0  0  0
  143.7055  145.5964  155.1267 N   0  3  0  0  0  0  0  0  0  0  0  0
  142.5704  146.2299  154.4157 C   0  0  0  0  0  0  0  0  0  0  0  0
  143.4081  145.4171  156.5652 C   0  0  0  0  0  0  0  0  0  0  0  0
  146.1360  142.7255  154.2546 C   0  0  0  0  0  0  0  0  0  0  0  0
  151.3446  142.0411  157.6509 C   0  0  0  0  0  0  0  0  0  0  0  0
  150.8512  143.2140  158.2494 C   0  0  0  0  0  0  0  0  0  0  0  0
  151.3162  143.5937  159.5258 C   0  0  0  0  0  0  0  0  0  0  0  0
  150.7856  144.8682  160.1579 C   0  0  0  0  0  0  0  0  0  0  0  0
  153.4823  142.4288  161.9596 H   0  0  0  0  0  0  0  0  0  0  0  0
  151.9596  143.2552  162.2812 H   0  0  0  0  0  0  0  0  0  0  0  0
  153.3041  144.1293  161.5318 H   0  0  0  0  0  0  0  0  0  0  0  0
  153.4833  140.9946  160.0973 H   0  0  0  0  0  0  0  0  0  0  0  0
  151.9208  139.6274  155.6186 H   0  0  0  0  0  0  0  0  0  0  0  0
  149.5712  142.6207  155.7536 H   0  0  0  0  0  0  0  0  0  0  0  0
  150.8062  142.2699  154.5674 H   0  0  0  0  0  0  0  0  0  0  0  0
  149.0879  140.0199  155.6693 H   0  0  0  0  0  0  0  0  0  0  0  0
  149.6367  139.8651  153.0923 H   0  0  0  0  0  0  0  0  0  0  0  0
  148.3374  141.6420  153.1697 H   0  0  0  0  0  0  0  0  0  0  0  0
  147.4537  140.3176  153.8852 H   0  0  0  0  0  0  0  0  0  0  0  0
  146.2471  140.6979  156.0805 H   0  0  0  0  0  0  0  0  0  0  0  0
  147.7705  141.2010  156.7937 H   0  0  0  0  0  0  0  0  0  0  0  0
  145.8042  142.1667  158.0243 H   0  0  0  0  0  0  0  0  0  0  0  0
  146.8318  143.4288  157.3718 H   0  0  0  0  0  0  0  0  0  0  0  0
  146.1408  144.5636  155.3807 H   0  0  0  0  0  0  0  0  0  0  0  0
  144.3450  144.5131  153.4299 H   0  0  0  0  0  0  0  0  0  0  0  0
  143.3827  143.5851  154.5527 H   0  0  0  0  0  0  0  0  0  0  0  0
  141.7044  145.5671  154.3918 H   0  0  0  0  0  0  0  0  0  0  0  0
  142.8310  146.4889  153.3904 H   0  0  0  0  0  0  0  0  0  0  0  0
  142.2740  147.1538  154.9137 H   0  0  0  0  0  0  0  0  0  0  0  0
  142.5870  144.7139  156.7107 H   0  0  0  0  0  0  0  0  0  0  0  0
  143.1302  146.3669  157.0237 H   0  0  0  0  0  0  0  0  0  0  0  0
  144.2814  145.0397  157.0984 H   0  0  0  0  0  0  0  0  0  0  0  0
  146.4488  143.2114  153.3312 H   0  0  0  0  0  0  0  0  0  0  0  0
  145.4396  141.9321  153.9783 H   0  0  0  0  0  0  0  0  0  0  0  0
  150.1246  143.8192  157.7277 H   0  0  0  0  0  0  0  0  0  0  0  0
  150.1036  145.3912  159.4867 H   0  0  0  0  0  0  0  0  0  0  0  0
  151.6046  145.5475  160.3952 H   0  0  0  0  0  0  0  0  0  0  0  0
  150.2449  144.6421  161.0772 H   0  0  0  0  0  0  0  0  0  0  0  0
  144.4795  146.2447  155.0842 H   0  0  0  0  0  0  0  0  0  0  0  0
  147.9409  142.8942  155.1641 H   0  0  0  0  0  0  0  0  0  0  0  0
  1  2  1  0  0  0  0
  1 26  1  0  0  0  0
  1 27  1  0  0  0  0
  1 28  1  0  0  0  0
  2 24  1  0  0  0  0
  2  3  2  0  0  0  0
  3  4  1  0  0  0  0
  3 29  1  0  0  0  0
  4 22  2  0  0  0  0
  4  5  1  0  0  0  0
  5  6  2  0  0  0  0
  6  7  1  0  0  0  0
  6 30  1  0  0  0  0
  7  8  1  0  0  0  0
  7 22  1  0  0  0  0
  8  9  1  0  0  0  0
  8 31  1  0  0  0  0
  8 32  1  0  0  0  0
  9 10  1  0  0  0  0
  9 11  1  0  0  0  0
  9 33  1  0  0  0  0
 10 34  1  0  0  0  0
 11 12  1  0  0  0  0
 11 35  1  0  0  0  0
 11 36  1  0  0  0  0
 12 21  1  0  0  0  0
 12 13  1  0  0  0  0
 12 57  1  0  0  0  0
 13 14  1  0  0  0  0
 13 37  1  0  0  0  0
 13 38  1  0  0  0  0
 14 15  1  0  0  0  0
 14 39  1  0  0  0  0
 14 40  1  0  0  0  0
 15 16  1  0  0  0  0
 16 17  1  0  0  0  0
 16 21  1  0  0  0  0
 16 41  1  0  0  0  0
 17 18  1  0  0  0  0
 17 42  1  0  0  0  0
 17 43  1  0  0  0  0
 18 19  1  0  0  0  0
 18 20  1  0  0  0  0
 18 56  1  0  0  0  0
 19 44  1  0  0  0  0
 19 45  1  0  0  0  0
 19 46  1  0  0  0  0
 20 47  1  0  0  0  0
 20 48  1  0  0  0  0
 20 49  1  0  0  0  0
 21 50  1  0  0  0  0
 21 51  1  0  0  0  0
 22 23  1  0  0  0  0
 23 24  2  0  0  0  0
 23 52  1  0  0  0  0
 24 25  1  0  0  0  0
 25 53  1  0  0  0  0
 25 54  1  0  0  0  0
 25 55  1  0  0  0  0
M  CHG  1  12   1
M  CHG  1  18   1
M  END
> <s_m_source_file>
AV-unprocessed.smi

> <i_m_source_file_index>
1005

> <i_lp_mmshare_version>
43012

> <i_f3d_flags>
0

> <s_epik_input>
W0NIM11jKFtjSF0xKWMoW0NIM10pW2NIXWMoYzEyKW4oW2NIXW4yKVtDSDJdW0NASF0oW09IXSlbQ0gyXU4zW0NIMl1bQ0gyXU9bQ0BIXShbQ0gyXTMpW0NIMl1OKFtDSDNdKVtDSDNd

> <s_epik_cmdline>
J2VwaWtfcHl0aG9uJywgJy1waCcsICc3LjAnLCAnLXRuJywgJzgnLCAnLW1hJywgJzIwMCcsICctbWV0YWxfYmluZGluZycsICctaW1hZScsICc8aW5maWxlLm1hZT4nLCAnLW9tYWUnLCAnPG91dGZpbGUubWFlPic=

> <r_epik_Ionization_Penalty>
1.0968

> <r_epik_Ionization_Penalty_Charging>
1.0096

> <r_epik_Ionization_Penalty_Neutral>
0.0871956

> <r_epik_State_Penalty>
1.31185

> <r_epik_Charging_Adjusted_Penalty>
2.32145

> <i_epik_Tot_Q>
2

> <i_epik_Tot_abs_Q>
2

> <r_epik_Metal_State_Penalty>
1.22442

> <b_epik_Metal_Only>
0

> <s_lp_Force_Field>
OPLS_2005

> <r_lp_Energy>
33.8105

> <b_lp_Chiralities_Consistent>
1

> <s_lp_Variant>
AV-unprocessed.smi:1005-11

> <Gold.Version>
5.8.1

> <Gold.Id.Protein>
6NUR|6NUR_protein|mol2

> <Gold.PLP.Fitness>
64.2609

> <Gold.PLP.PLP>
-50.2622

> <Gold.PLP.part.hbond>
-4.0000

> <Gold.PLP.part.metal>
0.0000

> <Gold.PLP.part.buried>
-7.8120

> <Gold.PLP.part.nonpolar>
-38.1567

> <Gold.PLP.part.repulsive>
0.2450

> <Gold.PLP.ligand.clash>
0.0000

> <Gold.PLP.ligand.torsion>
0.5673

> <Gold.PLP.Chemscore.Hbond>
4.9440

> <Gold.PLP.Chemscore.CHOScore>
0.0000

> <Gold.PLP.Chemscore.Metal>
0.0000

> <Gold.Chemscore.Hbonds>
donor molecule, donor type, donor heavy atom, donor atom, acceptor molecule, acceptor atom, score
      L1  H    10    34       P1  7957  0.99
      L1  H    12    57       P1  8028  1.72
      P1  H  7989  7998       L1    10  0.93
      P1  H  7997  8008       L1     5  1.00

> <Gold.PLP.Chemscore.Internal.Correction>
0.3013

> <Gold.Rescore>
     Score         DG    S(hbond)    S(metal)    S(lipo)     H(rot)  DE(clash)    DE(int)     intcor
     21.54     -23.91       2.74        0.00     133.53       2.48       0.75       1.62       ----

> <Gold.Chemscore.Fitness>
21.5415

> <Gold.Chemscore.DG>
-23.9141

> <Gold.Chemscore.ZeroCoef>
-5.4800

> <Gold.Chemscore.Hbond>
2.7436

> <Gold.Chemscore.Metal>
0.0000

> <Gold.Chemscore.Lipo>
133.5273

> <Gold.Chemscore.Internal_Hbond>
0.0000

> <Gold.Chemscore.DEClash>
0.7537

> <Gold.Chemscore.DEInternal>
1.6189

> <Gold.Chemscore.Rot>
2.4814

> <Gold.Chemscore.Internal.Correction>
   9.000000E+99

> <Gold.Chemscore.Hbonds>
donor molecule, donor type, donor heavy atom, donor atom, acceptor molecule, acceptor atom, score
      L1  H    10    34       P1  7957  0.93
      L1  H    12    57       P1  8028  0.74
      P1  H  7989  7998       L1    10  0.23
      P1  H  7997  8008       L1     5  0.44

> <Gold.Chemscore.Hbond.Weighted>
-9.1637

> <Gold.Chemscore.Metal.Weighted>
-0.0000

> <Gold.Chemscore.Lipo.Weighted>
-15.6227

> <Gold.Chemscore.Internal_Hbond.Weighted>
0.0000

> <Gold.Chemscore.DEClash.Weighted>
0.7537

> <Gold.Chemscore.DEInternal.Weighted>
1.6189

> <Gold.Chemscore.Rot.Weighted>
6.3524

> <Gold.Chemscore.Internal.Correction.Weighted>
   9.000000E+99

> <Gold.Protein.RotatedTorsions>
[ 6907 6896 6895 6894 ] final  168.08 input  -60.11 | X-H torsion
[ 7974 7965 7964 7962 ] final  168.11 input  175.53 | X-H torsion
[ 8008 7997 7996 7995 ] final  -74.53 input   59.86 | X-H torsion
[ 10167 10162 10161 10158 ] final -100.55 input  -65.29 | X-H torsion
[ 10718 10713 10712 10709 ] final  161.59 input   66.30 | X-H torsion
[ 10763 10752 10751 10750 ] final -126.35 input  -60.55 | X-H torsion
[ 11005 11000 10999 10996 ] final  -51.42 input  -57.11 | X-H torsion

> <Gold.Protein.ActiveResidues>
 VAL166  LYS551  ARG553  GLY616  TRP617  ASP618  TYR619  PRO620  LYS621  CYS622 
 ASP623  PHE694  ASN695  SER759  ASP760  ASP761  ALA762  ILE779  LEU786  VAL792 
 PHE793  MET794  SER795  GLU796  ALA797  LYS798  CYS799  TRP800  GLU811  SER814 

> <Gold.Protein.RotatedAtoms>
  151.8532  133.3443  159.3679 H   0  0  0  0  0  0  0  0  0  0  0  0  # atno 6907 bound_to 6896
  150.7200  134.5279  159.5695 H   0  0  0  0  0  0  0  0  0  0  0  0  # atno 6908 bound_to 6896
  152.2777  134.7864  160.0453 H   0  0  0  0  0  0  0  0  0  0  0  0  # atno 6909 bound_to 6896
  144.7400  139.8859  143.6399 H   0  0  0  0  0  0  0  0  0  0  0  0  # atno 7974 bound_to 7965
  154.5338  140.0760  156.8392 H   0  0  0  0  0  0  0  0  0  0  0  0  # atno 8008 bound_to 7997
  155.3319  140.3402  155.4221 H   0  0  0  0  0  0  0  0  0  0  0  0  # atno 8009 bound_to 7997
  156.1808  140.1651  156.8264 H   0  0  0  0  0  0  0  0  0  0  0  0  # atno 8010 bound_to 7997
  140.2507  143.3474  152.0717 H   0  0  0  0  0  0  0  0  0  0  0  0  # atno 10167 bound_to 10162
  157.1344  131.0525  151.2356 H   0  0  0  0  0  0  0  0  0  0  0  0  # atno 10718 bound_to 10713
  154.8745  135.3998  154.3417 H   0  0  0  0  0  0  0  0  0  0  0  0  # atno 10763 bound_to 10752
  153.4215  135.7023  153.6296 H   0  0  0  0  0  0  0  0  0  0  0  0  # atno 10764 bound_to 10752
  153.4956  135.3739  155.2484 H   0  0  0  0  0  0  0  0  0  0  0  0  # atno 10765 bound_to 10752
  141.0870  133.6640  156.3874 H   0  0  0  0  0  0  0  0  0  0  0  0  # atno 11005 bound_to 11000
  146.1177  139.4190  143.0248 LP  0  0  0  0  0  0  0  0  0  0  0  0  # atno 17320 bound_to 7965
  145.7351  141.0028  143.1331 LP  0  0  0  0  0  0  0  0  0  0  0  0  # atno 17321 bound_to 7965
  139.5047  144.6781  151.6078 LP  0  0  0  0  0  0  0  0  0  0  0  0  # atno 17342 bound_to 10162
  140.6043  143.9553  150.6407 LP  0  0  0  0  0  0  0  0  0  0  0  0  # atno 17343 bound_to 10162
  157.4364  130.7519  149.7032 LP  0  0  0  0  0  0  0  0  0  0  0  0  # atno 17370 bound_to 10713
  155.9801  130.4033  150.3547 LP  0  0  0  0  0  0  0  0  0  0  0  0  # atno 17371 bound_to 10713
  140.5340  134.6185  157.5359 LP  0  0  0  0  0  0  0  0  0  0  0  0  # atno 17394 bound_to 11000
  139.9689  134.7325  156.0081 LP  0  0  0  0  0  0  0  0  0  0  0  0  # atno 17395 bound_to 11000

$$$$
