AV-unprocessed.smi:491|AV-procd|sdf|2707|dock9
  -GOLD-   2262023153D 1   1.00000     0.00000
 Structure written by MMmdl.
 45 46  0  0  0  0  0  0  0  0  1 V2000
  150.5612  132.9762  157.3426 C   0  0  0  0  0  0  0  0  0  0  0  0
  149.7786  134.0317  156.5472 C   0  0  0  0  0  0  0  0  0  0  0  0
  149.8122  135.3352  157.1581 N   0  0  0  0  0  0  0  0  0  0  0  0
  149.1512  135.5997  158.3393 C   0  0  0  0  0  0  0  0  0  0  0  0
  149.1710  136.8139  158.9262 C   0  0  0  0  0  0  0  0  0  0  0  0
  148.4785  137.0698  160.1456 C   0  0  0  0  0  0  0  0  0  0  0  0
  147.9228  137.3016  161.1339 N   0  0  0  0  0  0  0  0  0  0  0  0
  149.9055  137.9270  158.3303 C   0  0  0  0  0  0  0  0  0  0  0  0
  149.9329  139.0592  158.8151 O   0  0  0  0  0  0  0  0  0  0  0  0
  150.5920  137.6317  157.1246 N   0  0  0  0  0  0  0  0  0  0  0  0
  151.3363  138.7215  156.4491 C   0  0  0  0  0  0  0  0  0  0  0  0
  152.3915  139.4195  157.3270 C   0  0  0  0  0  0  0  0  0  0  0  0
  153.4843  138.8811  157.4982 O   0  0  0  0  0  0  0  0  0  0  0  0
  152.0671  140.5976  157.8815 N   0  0  0  0  0  0  0  0  0  0  0  0
  152.9222  141.3852  158.7567 C   0  0  0  0  0  0  0  0  0  0  0  0
  152.2392  142.7095  159.1496 C   0  0  0  0  0  0  0  0  0  0  0  0
  151.9954  143.5929  157.9092 C   0  0  0  0  0  0  0  0  0  0  0  0
  151.2990  144.9129  158.2779 C   0  0  0  0  0  0  0  0  0  0  0  0
  152.0966  145.6847  159.3398 C   0  0  0  0  0  0  0  0  0  0  0  0
  152.3409  144.8175  160.5840 C   0  0  0  0  0  0  0  0  0  0  0  0
  153.0348  143.4958  160.2174 C   0  0  0  0  0  0  0  0  0  0  0  0
  150.5604  136.3514  156.5198 C   0  0  0  0  0  0  0  0  0  0  0  0
  151.1597  136.1366  155.4631 O   0  0  0  0  0  0  0  0  0  0  0  0
  150.4832  131.9992  156.8659 H   0  0  0  0  0  0  0  0  0  0  0  0
  150.1736  132.8818  158.3574 H   0  0  0  0  0  0  0  0  0  0  0  0
  151.6202  133.2263  157.4102 H   0  0  0  0  0  0  0  0  0  0  0  0
  150.1386  134.1380  155.5221 H   0  0  0  0  0  0  0  0  0  0  0  0
  148.7245  133.7592  156.4809 H   0  0  0  0  0  0  0  0  0  0  0  0
  148.5948  134.8040  158.8138 H   0  0  0  0  0  0  0  0  0  0  0  0
  151.8326  138.3526  155.5504 H   0  0  0  0  0  0  0  0  0  0  0  0
  150.6538  139.4845  156.0719 H   0  0  0  0  0  0  0  0  0  0  0  0
  151.1492  140.9712  157.6897 H   0  0  0  0  0  0  0  0  0  0  0  0
  153.1571  140.7998  159.6470 H   0  0  0  0  0  0  0  0  0  0  0  0
  153.8661  141.5899  158.2487 H   0  0  0  0  0  0  0  0  0  0  0  0
  151.2648  142.4628  159.5752 H   0  0  0  0  0  0  0  0  0  0  0  0
  152.9457  143.8097  157.4187 H   0  0  0  0  0  0  0  0  0  0  0  0
  151.3889  143.0541  157.1802 H   0  0  0  0  0  0  0  0  0  0  0  0
  151.1750  145.5288  157.3867 H   0  0  0  0  0  0  0  0  0  0  0  0
  150.2955  144.7053  158.6523 H   0  0  0  0  0  0  0  0  0  0  0  0
  153.0525  146.0018  158.9210 H   0  0  0  0  0  0  0  0  0  0  0  0
  151.5634  146.5942  159.6182 H   0  0  0  0  0  0  0  0  0  0  0  0
  152.9461  145.3661  161.3063 H   0  0  0  0  0  0  0  0  0  0  0  0
  151.3899  144.6063  161.0748 H   0  0  0  0  0  0  0  0  0  0  0  0
  153.1572  142.9001  161.1226 H   0  0  0  0  0  0  0  0  0  0  0  0
  154.0401  143.7031  159.8485 H   0  0  0  0  0  0  0  0  0  0  0  0
  1  2  1  0  0  0  0
  1 24  1  0  0  0  0
  1 25  1  0  0  0  0
  1 26  1  0  0  0  0
  2  3  1  0  0  0  0
  2 27  1  0  0  0  0
  2 28  1  0  0  0  0
  3 22  1  0  0  0  0
  3  4  1  0  0  0  0
  4  5  2  0  0  0  0
  4 29  1  0  0  0  0
  5  6  1  0  0  0  0
  5  8  1  0  0  0  0
  6  7  3  0  0  0  0
  8  9  2  0  0  0  0
  8 10  1  0  0  0  0
 10 11  1  0  0  0  0
 10 22  1  0  0  0  0
 11 12  1  0  0  0  0
 11 30  1  0  0  0  0
 11 31  1  0  0  0  0
 12 13  2  0  0  0  0
 12 14  1  0  0  0  0
 14 15  1  0  0  0  0
 14 32  1  0  0  0  0
 15 16  1  0  0  0  0
 15 33  1  0  0  0  0
 15 34  1  0  0  0  0
 16 21  1  0  0  0  0
 16 17  1  0  0  0  0
 16 35  1  0  0  0  0
 17 18  1  0  0  0  0
 17 36  1  0  0  0  0
 17 37  1  0  0  0  0
 18 19  1  0  0  0  0
 18 38  1  0  0  0  0
 18 39  1  0  0  0  0
 19 20  1  0  0  0  0
 19 40  1  0  0  0  0
 19 41  1  0  0  0  0
 20 21  1  0  0  0  0
 20 42  1  0  0  0  0
 20 43  1  0  0  0  0
 21 44  1  0  0  0  0
 21 45  1  0  0  0  0
 22 23  2  0  0  0  0
M  END
> <s_m_source_file>
AV-unprocessed.smi

> <i_m_source_file_index>
491

> <i_lp_mmshare_version>
43012

> <i_f3d_flags>
0

> <s_epik_input>
W0NIM11bQ0gyXW4xW2NIXWMoQyNOKWMoPU8pbihjMT1PKVtDSDJdQyg9TylbTkhdW0NIMl1bQ0hdMltDSDJdW0NIMl1bQ0gyXVtDSDJdW0NIMl0y

> <s_epik_cmdline>
J2VwaWtfcHl0aG9uJywgJy1waCcsICc3LjAnLCAnLXRuJywgJzgnLCAnLW1hJywgJzIwMCcsICctbWV0YWxfYmluZGluZycsICctaW1hZScsICc8aW5maWxlLm1hZT4nLCAnLW9tYWUnLCAnPG91dGZpbGUubWFlPic=

> <r_lp_tautomer_probability>
1

> <r_epik_Ionization_Penalty>
1.98356e-08

> <r_epik_Ionization_Penalty_Charging>
3.77777e-11

> <r_epik_Ionization_Penalty_Neutral>
1.97978e-08

> <r_epik_State_Penalty>
-0

> <r_epik_Charging_Adjusted_Penalty>
3.77777e-11

> <i_epik_Tot_Q>
0

> <i_epik_Tot_abs_Q>
0

> <r_epik_Metal_State_Penalty>
-0

> <b_epik_Metal_Only>
0

> <s_lp_Force_Field>
OPLS_2005

> <r_lp_Energy>
13.3995

> <b_lp_Chiralities_Consistent>
1

> <s_lp_Variant>
AV-unprocessed.smi:491-1

> <Gold.Version>
5.8.1

> <Gold.Id.Protein>
6NUR|6NUR_protein|mol2

> <Gold.PLP.Fitness>
50.0714

> <Gold.PLP.PLP>
-39.8908

> <Gold.PLP.part.hbond>
-4.0521

> <Gold.PLP.part.metal>
0.0000

> <Gold.PLP.part.buried>
-5.4654

> <Gold.PLP.part.nonpolar>
-31.1222

> <Gold.PLP.part.repulsive>
0.1989

> <Gold.PLP.ligand.clash>
0.0000

> <Gold.PLP.ligand.torsion>
0.4124

> <Gold.PLP.Chemscore.Hbond>
3.6598

> <Gold.PLP.Chemscore.CHOScore>
0.0000

> <Gold.PLP.Chemscore.Metal>
0.0000

> <Gold.Chemscore.Hbonds>
donor molecule, donor type, donor heavy atom, donor atom, acceptor molecule, acceptor atom, score
      P1  H  6931  6943       L1     7  0.93
      P1  H  6934  6947       L1     7  0.72
      P1  H  7997  8009       L1    13  1.00
      P1  H 10752 10765       L1    23  0.99

> <Gold.PLP.Chemscore.Internal.Correction>
0.0258

> <Gold.Rescore>
     Score         DG    S(hbond)    S(metal)    S(lipo)     H(rot)  DE(clash)    DE(int)     intcor
     19.70     -21.53       2.88        0.00      97.69       1.95       0.07       1.77       ----

> <Gold.Chemscore.Fitness>
19.6967

> <Gold.Chemscore.DG>
-21.5335

> <Gold.Chemscore.ZeroCoef>
-5.4800

> <Gold.Chemscore.Hbond>
2.8759

> <Gold.Chemscore.Metal>
0.0000

> <Gold.Chemscore.Lipo>
97.6867

> <Gold.Chemscore.Internal_Hbond>
0.0000

> <Gold.Chemscore.DEClash>
0.0650

> <Gold.Chemscore.DEInternal>
1.7718

> <Gold.Chemscore.Rot>
1.9458

> <Gold.Chemscore.Internal.Correction>
   9.000000E+99

> <Gold.Chemscore.Hbonds>
donor molecule, donor type, donor heavy atom, donor atom, acceptor molecule, acceptor atom, score
      P1  H  6931  6943       L1     7  0.27
      P1  H  6934  6947       L1     7  0.40
      P1  H  7997  8009       L1    13  0.35
      P1  H 10752 10765       L1    23  0.92

> <Gold.Chemscore.Hbond.Weighted>
-9.6055

> <Gold.Chemscore.Metal.Weighted>
-0.0000

> <Gold.Chemscore.Lipo.Weighted>
-11.4293

> <Gold.Chemscore.Internal_Hbond.Weighted>
0.0000

> <Gold.Chemscore.DEClash.Weighted>
0.0650

> <Gold.Chemscore.DEInternal.Weighted>
1.7718

> <Gold.Chemscore.Rot.Weighted>
4.9813

> <Gold.Chemscore.Internal.Correction.Weighted>
   9.000000E+99

> <Gold.Protein.RotatedTorsions>
[ 6907 6896 6895 6894 ] final  168.71 input  -60.11 | X-H torsion
[ 7974 7965 7964 7962 ] final -168.02 input  175.53 | X-H torsion
[ 8008 7997 7996 7995 ] final  161.49 input   59.86 | X-H torsion
[ 10167 10162 10161 10158 ] final -114.47 input  -65.29 | X-H torsion
[ 10718 10713 10712 10709 ] final   79.07 input   66.30 | X-H torsion
[ 10763 10752 10751 10750 ] final -174.06 input  -60.55 | X-H torsion
[ 11005 11000 10999 10996 ] final  -51.68 input  -57.11 | X-H torsion

> <Gold.Protein.ActiveResidues>
 VAL166  LYS551  ARG553  GLY616  TRP617  ASP618  TYR619  PRO620  LYS621  CYS622 
 ASP623  PHE694  ASN695  SER759  ASP760  ASP761  ALA762  ILE779  LEU786  VAL792 
 PHE793  MET794  SER795  GLU796  ALA797  LYS798  CYS799  TRP800  GLU811  SER814 

> <Gold.Protein.RotatedAtoms>
  151.8433  133.3427  159.3649 H   0  0  0  0  0  0  0  0  0  0  0  0  # atno 6907 bound_to 6896
  150.7228  134.5370  159.5738 H   0  0  0  0  0  0  0  0  0  0  0  0  # atno 6908 bound_to 6896
  152.2848  134.7789  160.0440 H   0  0  0  0  0  0  0  0  0  0  0  0  # atno 6909 bound_to 6896
  144.7211  140.2432  143.6288 H   0  0  0  0  0  0  0  0  0  0  0  0  # atno 7974 bound_to 7965
  156.2099  140.1776  156.7717 H   0  0  0  0  0  0  0  0  0  0  0  0  # atno 8008 bound_to 7997
  154.5708  140.0683  156.8991 H   0  0  0  0  0  0  0  0  0  0  0  0  # atno 8009 bound_to 7997
  155.2677  140.3340  155.4270 H   0  0  0  0  0  0  0  0  0  0  0  0  # atno 8010 bound_to 7997
  140.1006  143.4616  152.1814 H   0  0  0  0  0  0  0  0  0  0  0  0  # atno 10167 bound_to 10162
  157.6765  130.9897  150.1878 H   0  0  0  0  0  0  0  0  0  0  0  0  # atno 10718 bound_to 10713
  154.6007  135.2854  155.0538 H   0  0  0  0  0  0  0  0  0  0  0  0  # atno 10763 bound_to 10752
  154.1804  135.6457  153.5036 H   0  0  0  0  0  0  0  0  0  0  0  0  # atno 10764 bound_to 10752
  153.0156  135.5422  154.6725 H   0  0  0  0  0  0  0  0  0  0  0  0  # atno 10765 bound_to 10752
  141.0884  133.6637  156.3912 H   0  0  0  0  0  0  0  0  0  0  0  0  # atno 11005 bound_to 11000
  145.8299  139.2081  143.1889 LP  0  0  0  0  0  0  0  0  0  0  0  0  # atno 17320 bound_to 7965
  146.0440  140.8137  142.9815 LP  0  0  0  0  0  0  0  0  0  0  0  0  # atno 17321 bound_to 7965
  139.5673  144.7442  151.3987 LP  0  0  0  0  0  0  0  0  0  0  0  0  # atno 17342 bound_to 10162
  140.6979  143.7703  150.7356 LP  0  0  0  0  0  0  0  0  0  0  0  0  # atno 17343 bound_to 10162
  156.2596  130.3709  149.8144 LP  0  0  0  0  0  0  0  0  0  0  0  0  # atno 17370 bound_to 10713
  156.5893  130.8499  151.3404 LP  0  0  0  0  0  0  0  0  0  0  0  0  # atno 17371 bound_to 10713
  140.5310  134.6213  157.5350 LP  0  0  0  0  0  0  0  0  0  0  0  0  # atno 17394 bound_to 11000
  139.9705  134.7300  156.0050 LP  0  0  0  0  0  0  0  0  0  0  0  0  # atno 17395 bound_to 11000

$$$$
