AV-unprocessed.smi:1394|AV-procd|sdf|5665|dock10
  -GOLD-   22720 5283D 1   1.00000     0.00000
 Structure written by MMmdl.
 41 42  0  0  0  0  0  0  0  0  1 V2000
  148.5114  142.0729  155.6595 C   0  0  0  0  0  0  0  0  0  0  0  0
  149.4757  141.0085  155.1052 C   0  0  2  0  0  0  0  0  0  0  0  0
  148.7028  139.9462  154.2971 C   0  0  0  0  0  0  0  0  0  0  0  0
  149.6377  138.8728  153.7206 C   0  0  0  0  0  0  0  0  0  0  0  0
  150.4577  138.2047  154.8320 C   0  0  0  0  0  0  0  0  0  0  0  0
  151.2477  139.2477  155.6357 C   0  0  0  0  0  0  0  0  0  0  0  0
  150.3261  140.3421  156.2158 C   0  0  1  0  0  0  0  0  0  0  0  0
  151.1280  141.3480  156.9091 N   0  0  0  0  0  0  0  0  0  0  0  0
  150.8161  141.9257  158.0788 C   0  0  0  0  0  0  0  0  0  0  0  0
  149.8022  141.6473  158.7208 O   0  0  0  0  0  0  0  0  0  0  0  0
  151.8223  142.9636  158.5969 C   0  0  0  0  0  0  0  0  0  0  0  0
  152.4442  142.5957  159.8807 N   0  0  0  0  0  0  0  0  0  0  0  0
  152.2480  143.4791  160.9572 C   0  0  0  0  0  0  0  0  0  0  0  0
  152.7648  143.2392  162.1698 C   0  0  0  0  0  0  0  0  0  0  0  0
  153.5391  142.0364  162.3555 C   0  0  0  0  0  0  0  0  0  0  0  0
  153.7503  141.1704  161.3372 C   0  0  0  0  0  0  0  0  0  0  0  0
  154.5607  139.8891  161.5191 C   0  0  0  0  0  0  0  0  0  0  0  0
  153.7835  138.8154  161.3710 F   0  0  0  0  0  0  0  0  0  0  0  0
  155.5392  139.8229  160.6157 F   0  0  0  0  0  0  0  0  0  0  0  0
  155.1178  139.8233  162.7295 F   0  0  0  0  0  0  0  0  0  0  0  0
  153.1794  141.4470  160.0029 C   0  0  0  0  0  0  0  0  0  0  0  0
  153.3483  140.6921  159.0437 O   0  0  0  0  0  0  0  0  0  0  0  0
  147.8184  141.6401  156.3816 H   0  0  0  0  0  0  0  0  0  0  0  0
  147.9209  142.5200  154.8596 H   0  0  0  0  0  0  0  0  0  0  0  0
  149.0457  142.8831  156.1559 H   0  0  0  0  0  0  0  0  0  0  0  0
  150.1558  141.5125  154.4161 H   0  0  0  0  0  0  0  0  0  0  0  0
  147.9558  139.4710  154.9343 H   0  0  0  0  0  0  0  0  0  0  0  0
  148.1547  140.4229  153.4839 H   0  0  0  0  0  0  0  0  0  0  0  0
  149.0566  138.1221  153.1841 H   0  0  0  0  0  0  0  0  0  0  0  0
  150.3096  139.3247  152.9898 H   0  0  0  0  0  0  0  0  0  0  0  0
  149.7924  137.6549  155.4989 H   0  0  0  0  0  0  0  0  0  0  0  0
  151.1404  137.4717  154.4016 H   0  0  0  0  0  0  0  0  0  0  0  0
  151.7919  138.7486  156.4384 H   0  0  0  0  0  0  0  0  0  0  0  0
  152.0008  139.7034  154.9912 H   0  0  0  0  0  0  0  0  0  0  0  0
  149.6435  139.8787  156.9313 H   0  0  0  0  0  0  0  0  0  0  0  0
  151.9830  141.6346  156.4547 H   0  0  0  0  0  0  0  0  0  0  0  0
  152.5854  143.1069  157.8308 H   0  0  0  0  0  0  0  0  0  0  0  0
  151.3245  143.9313  158.6846 H   0  0  0  0  0  0  0  0  0  0  0  0
  151.6616  144.3583  160.7329 H   0  0  0  0  0  0  0  0  0  0  0  0
  152.6071  143.9289  162.9860 H   0  0  0  0  0  0  0  0  0  0  0  0
  153.9510  141.8380  163.3337 H   0  0  0  0  0  0  0  0  0  0  0  0
  1  2  1  0  0  0  0
  1 23  1  0  0  0  0
  1 24  1  0  0  0  0
  1 25  1  0  0  0  0
  2  7  1  0  0  0  0
  2  3  1  0  0  0  0
  2 26  1  0  0  0  0
  3  4  1  0  0  0  0
  3 27  1  0  0  0  0
  3 28  1  0  0  0  0
  4  5  1  0  0  0  0
  4 29  1  0  0  0  0
  4 30  1  0  0  0  0
  5  6  1  0  0  0  0
  5 31  1  0  0  0  0
  5 32  1  0  0  0  0
  6  7  1  0  0  0  0
  6 33  1  0  0  0  0
  6 34  1  0  0  0  0
  7  8  1  0  0  0  0
  7 35  1  0  0  0  0
  8  9  1  0  0  0  0
  8 36  1  0  0  0  0
  9 10  2  0  0  0  0
  9 11  1  0  0  0  0
 11 12  1  0  0  0  0
 11 37  1  0  0  0  0
 11 38  1  0  0  0  0
 12 21  1  0  0  0  0
 12 13  1  0  0  0  0
 13 14  2  0  0  0  0
 13 39  1  0  0  0  0
 14 15  1  0  0  0  0
 14 40  1  0  0  0  0
 15 16  2  0  0  0  0
 15 41  1  0  0  0  0
 16 17  1  0  0  0  0
 16 21  1  0  0  0  0
 17 18  1  0  0  0  0
 17 19  1  0  0  0  0
 17 20  1  0  0  0  0
 21 22  2  0  0  0  0
M  END
> <s_m_source_file>
AV-unprocessed.smi

> <i_m_source_file_index>
1394

> <i_lp_mmshare_version>
43012

> <i_f3d_flags>
0

> <s_epik_input>
W0NIM11bQ0BASF0xW0NIMl1bQ0gyXVtDSDJdW0NIMl1bQ0BIXTFbTkhdQyg9TylbQ0gyXW4yW2NIXVtjSF1bY0hdYyhDKEYpKEYpRiljMj1P

> <s_epik_cmdline>
J2VwaWtfcHl0aG9uJywgJy1waCcsICc3LjAnLCAnLXRuJywgJzgnLCAnLW1hJywgJzIwMCcsICctbWV0YWxfYmluZGluZycsICctaW1hZScsICc8aW5maWxlLm1hZT4nLCAnLW9tYWUnLCAnPG91dGZpbGUubWFlPic=

> <r_lp_tautomer_probability>
1

> <r_epik_Ionization_Penalty>
2.11487e-08

> <r_epik_Ionization_Penalty_Charging>
2.10183e-09

> <r_epik_Ionization_Penalty_Neutral>
1.90469e-08

> <r_epik_State_Penalty>
-0

> <r_epik_Charging_Adjusted_Penalty>
2.10183e-09

> <i_epik_Tot_Q>
0

> <i_epik_Tot_abs_Q>
0

> <r_epik_Metal_State_Penalty>
-0

> <b_epik_Metal_Only>
0

> <s_lp_Force_Field>
OPLS_2005

> <r_lp_Energy>
20.2228

> <b_lp_Chiralities_Consistent>
1

> <s_lp_Variant>
AV-unprocessed.smi:1394-1

> <Gold.Version>
5.8.1

> <Gold.Id.Protein>
6NUR|6NUR_protein|mol2

> <Gold.PLP.Fitness>
49.2577

> <Gold.PLP.PLP>
-49.3937

> <Gold.PLP.part.hbond>
-1.0301

> <Gold.PLP.part.metal>
0.0000

> <Gold.PLP.part.buried>
1.0483

> <Gold.PLP.part.nonpolar>
-46.6877

> <Gold.PLP.part.repulsive>
0.1226

> <Gold.PLP.ligand.clash>
0.2150

> <Gold.PLP.ligand.torsion>
0.3969

> <Gold.PLP.Chemscore.Hbond>
0.1789

> <Gold.PLP.Chemscore.CHOScore>
0.0000

> <Gold.PLP.Chemscore.Metal>
0.0000

> <Gold.PLP.Chemscore.Internal.Correction>
0.3362

> <Gold.Rescore>
     Score         DG    S(hbond)    S(metal)    S(lipo)     H(rot)  DE(clash)    DE(int)     intcor
     13.31     -16.69       0.82        0.00     105.86       1.52       0.03       3.35       ----

> <Gold.Chemscore.Fitness>
13.3084

> <Gold.Chemscore.DG>
-16.6919

> <Gold.Chemscore.ZeroCoef>
-5.4800

> <Gold.Chemscore.Hbond>
0.8169

> <Gold.Chemscore.Metal>
0.0000

> <Gold.Chemscore.Lipo>
105.8569

> <Gold.Chemscore.Internal_Hbond>
0.0000

> <Gold.Chemscore.DEClash>
0.0318

> <Gold.Chemscore.DEInternal>
3.3517

> <Gold.Chemscore.Rot>
1.5242

> <Gold.Chemscore.Internal.Correction>
   9.000000E+99

> <Gold.Chemscore.Hbonds>
donor molecule, donor type, donor heavy atom, donor atom, acceptor molecule, acceptor atom, score
      P1  H  7997  8009       L1    22  0.05

> <Gold.Chemscore.Hbond.Weighted>
-2.7285

> <Gold.Chemscore.Metal.Weighted>
-0.0000

> <Gold.Chemscore.Lipo.Weighted>
-12.3853

> <Gold.Chemscore.Internal_Hbond.Weighted>
0.0000

> <Gold.Chemscore.DEClash.Weighted>
0.0318

> <Gold.Chemscore.DEInternal.Weighted>
3.3517

> <Gold.Chemscore.Rot.Weighted>
3.9019

> <Gold.Chemscore.Internal.Correction.Weighted>
   9.000000E+99

> <Gold.Protein.RotatedTorsions>
[ 6907 6896 6895 6894 ] final  150.11 input  -60.11 | X-H torsion
[ 7974 7965 7964 7962 ] final -128.77 input  175.53 | X-H torsion
[ 8008 7997 7996 7995 ] final  136.66 input   59.86 | X-H torsion
[ 10167 10162 10161 10158 ] final  -62.11 input  -65.29 | X-H torsion
[ 10718 10713 10712 10709 ] final   90.93 input   66.30 | X-H torsion
[ 10763 10752 10751 10750 ] final  165.27 input  -60.55 | X-H torsion
[ 11005 11000 10999 10996 ] final   76.26 input  -57.11 | X-H torsion

> <Gold.Protein.ActiveResidues>
 VAL166  LYS551  ARG553  GLY616  TRP617  ASP618  TYR619  PRO620  LYS621  CYS622 
 ASP623  PHE694  ASN695  SER759  ASP760  ASP761  ALA762  ILE779  LEU786  VAL792 
 PHE793  MET794  SER795  GLU796  ALA797  LYS798  CYS799  TRP800  GLU811  SER814 

> <Gold.Protein.RotatedAtoms>
  152.1189  133.4342  159.4665 H   0  0  0  0  0  0  0  0  0  0  0  0  # atno 6907 bound_to 6896
  150.6871  134.2559  159.4538 H   0  0  0  0  0  0  0  0  0  0  0  0  # atno 6908 bound_to 6896
  152.0434  134.9697  160.0625 H   0  0  0  0  0  0  0  0  0  0  0  0  # atno 6909 bound_to 6896
  144.9638  140.7474  143.4713 H   0  0  0  0  0  0  0  0  0  0  0  0  # atno 7974 bound_to 7965
  156.3004  140.2439  156.3781 H   0  0  0  0  0  0  0  0  0  0  0  0  # atno 8008 bound_to 7997
  154.8726  140.0415  157.1753 H   0  0  0  0  0  0  0  0  0  0  0  0  # atno 8009 bound_to 7997
  154.8779  140.2945  155.5446 H   0  0  0  0  0  0  0  0  0  0  0  0  # atno 8010 bound_to 7997
  140.5961  143.2351  151.6033 H   0  0  0  0  0  0  0  0  0  0  0  0  # atno 10167 bound_to 10162
  157.6960  131.0389  150.3653 H   0  0  0  0  0  0  0  0  0  0  0  0  # atno 10718 bound_to 10713
  154.3215  135.2756  155.2517 H   0  0  0  0  0  0  0  0  0  0  0  0  # atno 10763 bound_to 10752
  154.4869  135.5844  153.6434 H   0  0  0  0  0  0  0  0  0  0  0  0  # atno 10764 bound_to 10752
  152.9876  135.6125  154.3400 H   0  0  0  0  0  0  0  0  0  0  0  0  # atno 10765 bound_to 10752
  139.9306  134.7586  156.1373 H   0  0  0  0  0  0  0  0  0  0  0  0  # atno 11005 bound_to 11000
  145.2660  139.1973  143.4866 LP  0  0  0  0  0  0  0  0  0  0  0  0  # atno 17320 bound_to 7965
  146.3361  140.2598  142.8601 LP  0  0  0  0  0  0  0  0  0  0  0  0  # atno 17321 bound_to 7965
  139.5259  144.3061  152.1032 LP  0  0  0  0  0  0  0  0  0  0  0  0  # atno 17342 bound_to 10162
  140.2234  144.4443  150.6332 LP  0  0  0  0  0  0  0  0  0  0  0  0  # atno 17343 bound_to 10162
  156.4084  130.3929  149.6909 LP  0  0  0  0  0  0  0  0  0  0  0  0  # atno 17370 bound_to 10713
  156.4202  130.7765  151.2781 LP  0  0  0  0  0  0  0  0  0  0  0  0  # atno 17371 bound_to 10713
  141.0893  133.6721  156.2504 LP  0  0  0  0  0  0  0  0  0  0  0  0  # atno 17394 bound_to 11000
  140.6212  134.5360  157.5548 LP  0  0  0  0  0  0  0  0  0  0  0  0  # atno 17395 bound_to 11000

$$$$
