AV-unprocessed.smi:678|AV-procd|sdf|3316|dock1
  -GOLD-   22720 0283D 1   1.00000     0.00000
 Structure written by MMmdl.
 51 52  0  0  0  0  0  0  0  0  2 V2000
  153.7548  141.2565  160.3694 C   0  0  0  0  0  0  0  0  0  0  0  0
  152.7803  141.9758  159.4542 C   0  0  0  0  0  0  0  0  0  0  0  0
  152.3218  143.2122  159.7460 C   0  0  0  0  0  0  0  0  0  0  0  0
  151.3968  143.8900  158.8710 C   0  0  0  0  0  0  0  0  0  0  0  0
  151.0059  143.2620  157.7529 C   0  0  0  0  0  0  0  0  0  0  0  0
  151.4709  141.9755  157.4233 N   0  0  0  0  0  0  0  0  0  0  0  0
  150.9791  141.3877  156.1652 C   0  0  0  0  0  0  0  0  0  0  0  0
  150.1081  140.1460  156.3943 C   0  0  0  0  0  0  0  0  0  0  0  0
  150.5584  139.1681  156.9919 O   0  0  0  0  0  0  0  0  0  0  0  0
  148.8629  140.1978  155.8980 N   0  0  0  0  0  0  0  0  0  0  0  0
  147.9028  139.0986  155.9048 C   0  0  0  0  0  0  0  0  0  0  0  0
  147.6815  138.5261  154.4912 C   0  0  1  0  0  0  0  0  0  0  0  0
  146.9070  137.1894  154.4787 C   0  0  0  0  0  0  0  0  0  0  0  0
  146.6677  136.7295  153.0893 N   0  3  1  0  0  0  0  0  0  0  0  0
  145.9489  135.4317  153.0000 C   0  0  0  0  0  0  0  0  0  0  0  0
  145.9268  134.8220  151.5797 C   0  0  0  0  0  0  0  0  0  0  0  0
  144.8955  135.5085  150.6684 C   0  0  0  0  0  0  0  0  0  0  0  0
  145.6580  133.3112  151.6531 C   0  0  0  0  0  0  0  0  0  0  0  0
  146.0000  137.7919  152.3010 C   0  0  0  0  0  0  0  0  0  0  0  0
  146.7941  139.1055  152.3803 C   0  0  0  0  0  0  0  0  0  0  0  0
  146.9469  139.4870  153.7415 O   0  0  0  0  0  0  0  0  0  0  0  0
  152.3420  141.2867  158.2264 C   0  0  0  0  0  0  0  0  0  0  0  0
  152.7318  140.1545  157.9314 O   0  0  0  0  0  0  0  0  0  0  0  0
  154.0213  141.8709  161.2301 H   0  0  0  0  0  0  0  0  0  0  0  0
  154.6722  141.0093  159.8345 H   0  0  0  0  0  0  0  0  0  0  0  0
  153.3133  140.3327  160.7405 H   0  0  0  0  0  0  0  0  0  0  0  0
  152.6492  143.7093  160.6475 H   0  0  0  0  0  0  0  0  0  0  0  0
  151.0279  144.8763  159.1110 H   0  0  0  0  0  0  0  0  0  0  0  0
  150.3131  143.6992  157.0488 H   0  0  0  0  0  0  0  0  0  0  0  0
  150.3938  142.1101  155.5949 H   0  0  0  0  0  0  0  0  0  0  0  0
  151.8273  141.1360  155.5253 H   0  0  0  0  0  0  0  0  0  0  0  0
  148.5747  141.0487  155.4366 H   0  0  0  0  0  0  0  0  0  0  0  0
  148.2065  138.3114  156.5970 H   0  0  0  0  0  0  0  0  0  0  0  0
  146.9609  139.4927  156.2872 H   0  0  0  0  0  0  0  0  0  0  0  0
  148.6564  138.3864  154.0196 H   0  0  0  0  0  0  0  0  0  0  0  0
  147.4820  136.4362  155.0126 H   0  0  0  0  0  0  0  0  0  0  0  0
  145.9547  137.2990  155.0001 H   0  0  0  0  0  0  0  0  0  0  0  0
  146.3944  134.7288  153.7059 H   0  0  0  0  0  0  0  0  0  0  0  0
  144.9180  135.5788  153.3260 H   0  0  0  0  0  0  0  0  0  0  0  0
  146.9092  134.9376  151.1227 H   0  0  0  0  0  0  0  0  0  0  0  0
  143.8886  135.4311  151.0798 H   0  0  0  0  0  0  0  0  0  0  0  0
  144.8845  135.0544  149.6769 H   0  0  0  0  0  0  0  0  0  0  0  0
  145.1220  136.5664  150.5337 H   0  0  0  0  0  0  0  0  0  0  0  0
  144.6858  133.1020  152.1000 H   0  0  0  0  0  0  0  0  0  0  0  0
  146.4155  132.8059  152.2530 H   0  0  0  0  0  0  0  0  0  0  0  0
  145.6703  132.8570  150.6622 H   0  0  0  0  0  0  0  0  0  0  0  0
  145.9105  137.4809  151.2594 H   0  0  0  0  0  0  0  0  0  0  0  0
  144.9877  137.9455  152.6784 H   0  0  0  0  0  0  0  0  0  0  0  0
  147.7707  139.0015  151.9047 H   0  0  0  0  0  0  0  0  0  0  0  0
  146.2649  139.8966  151.8490 H   0  0  0  0  0  0  0  0  0  0  0  0
  147.5740  136.5867  152.6667 H   0  0  0  0  0  0  0  0  0  0  0  0
  1  2  1  0  0  0  0
  1 24  1  0  0  0  0
  1 25  1  0  0  0  0
  1 26  1  0  0  0  0
  2 22  1  0  0  0  0
  2  3  2  0  0  0  0
  3  4  1  0  0  0  0
  3 27  1  0  0  0  0
  4  5  2  0  0  0  0
  4 28  1  0  0  0  0
  5  6  1  0  0  0  0
  5 29  1  0  0  0  0
  6  7  1  0  0  0  0
  6 22  1  0  0  0  0
  7  8  1  0  0  0  0
  7 30  1  0  0  0  0
  7 31  1  0  0  0  0
  8  9  2  0  0  0  0
  8 10  1  0  0  0  0
 10 11  1  0  0  0  0
 10 32  1  0  0  0  0
 11 12  1  0  0  0  0
 11 33  1  0  0  0  0
 11 34  1  0  0  0  0
 12 21  1  0  0  0  0
 12 13  1  0  0  0  0
 12 35  1  0  0  0  0
 13 14  1  0  0  0  0
 13 36  1  0  0  0  0
 13 37  1  0  0  0  0
 14 15  1  0  0  0  0
 14 19  1  0  0  0  0
 14 51  1  0  0  0  0
 15 16  1  0  0  0  0
 15 38  1  0  0  0  0
 15 39  1  0  0  0  0
 16 17  1  0  0  0  0
 16 18  1  0  0  0  0
 16 40  1  0  0  0  0
 17 41  1  0  0  0  0
 17 42  1  0  0  0  0
 17 43  1  0  0  0  0
 18 44  1  0  0  0  0
 18 45  1  0  0  0  0
 18 46  1  0  0  0  0
 19 20  1  0  0  0  0
 19 47  1  0  0  0  0
 19 48  1  0  0  0  0
 20 21  1  0  0  0  0
 20 49  1  0  0  0  0
 20 50  1  0  0  0  0
 22 23  2  0  0  0  0
M  CHG  1  14   1
M  END
> <s_m_source_file>
AV-unprocessed.smi

> <i_m_source_file_index>
678

> <i_lp_mmshare_version>
43012

> <i_f3d_flags>
0

> <s_epik_input>
W0NIM11jMVtjSF1bY0hdW2NIXW4oYzE9TylbQ0gyXUMoPU8pW05IXVtDSDJdW0NAQEhdMltDSDJdTihbQ0gyXVtDSDJdTzIpW0NIMl1bQ0hdKFtDSDNdKVtDSDNd

> <s_epik_cmdline>
J2VwaWtfcHl0aG9uJywgJy1waCcsICc3LjAnLCAnLXRuJywgJzgnLCAnLW1hJywgJzIwMCcsICctbWV0YWxfYmluZGluZycsICctaW1hZScsICc8aW5maWxlLm1hZT4nLCAnLW9tYWUnLCAnPG91dGZpbGUubWFlPic=

> <r_lp_tautomer_probability>
1

> <r_epik_Ionization_Penalty>
0.0975937

> <r_epik_Ionization_Penalty_Charging>
0.0975937

> <r_epik_Ionization_Penalty_Neutral>
6.27044e-08

> <r_epik_State_Penalty>
0.0877056

> <r_epik_Charging_Adjusted_Penalty>
0.185299

> <i_epik_Tot_Q>
1

> <i_epik_Tot_abs_Q>
1

> <r_epik_Metal_State_Penalty>
0.0877109

> <b_epik_Metal_Only>
0

> <s_lp_Force_Field>
OPLS_2005

> <r_lp_Energy>
24.9946

> <b_lp_Chiralities_Consistent>
1

> <s_lp_Variant>
AV-unprocessed.smi:678-4

> <Gold.Version>
5.8.1

> <Gold.Id.Protein>
6NUR|6NUR_protein|mol2

> <Gold.PLP.Fitness>
51.0069

> <Gold.PLP.PLP>
-39.6717

> <Gold.PLP.part.hbond>
-2.0000

> <Gold.PLP.part.metal>
0.0000

> <Gold.PLP.part.buried>
-4.7596

> <Gold.PLP.part.nonpolar>
-34.0293

> <Gold.PLP.part.repulsive>
0.2080

> <Gold.PLP.ligand.clash>
0.0000

> <Gold.PLP.ligand.torsion>
0.3668

> <Gold.PLP.Chemscore.Hbond>
2.9913

> <Gold.PLP.Chemscore.CHOScore>
1.0000

> <Gold.PLP.Chemscore.Metal>
0.0000

> <Gold.Chemscore.Hbonds>
donor molecule, donor type, donor heavy atom, donor atom, acceptor molecule, acceptor atom, score
      L1  H    14    51       P1  7948  2.00
      P1  H  7997  8009       L1    23  0.98
      L1  C     5    29       P1  8028  1.00

> <Gold.PLP.Chemscore.Internal.Correction>
0.0952

> <Gold.Rescore>
     Score         DG    S(hbond)    S(metal)    S(lipo)     H(rot)  DE(clash)    DE(int)     intcor
     16.70     -18.78       1.93        0.00      99.98       1.89       0.06       2.02       ----

> <Gold.Chemscore.Fitness>
16.6990

> <Gold.Chemscore.DG>
-18.7844

> <Gold.Chemscore.ZeroCoef>
-5.4800

> <Gold.Chemscore.Hbond>
1.9276

> <Gold.Chemscore.Metal>
0.0000

> <Gold.Chemscore.Lipo>
99.9754

> <Gold.Chemscore.Internal_Hbond>
0.0000

> <Gold.Chemscore.DEClash>
0.0616

> <Gold.Chemscore.DEInternal>
2.0237

> <Gold.Chemscore.Rot>
1.8871

> <Gold.Chemscore.Internal.Correction>
   9.000000E+99

> <Gold.Chemscore.Hbonds>
donor molecule, donor type, donor heavy atom, donor atom, acceptor molecule, acceptor atom, score
      L1  H    14    51       P1  7948  1.00
      P1  H  7997  8009       L1    23  0.80

> <Gold.Chemscore.Hbond.Weighted>
-6.4382

> <Gold.Chemscore.Metal.Weighted>
-0.0000

> <Gold.Chemscore.Lipo.Weighted>
-11.6971

> <Gold.Chemscore.Internal_Hbond.Weighted>
0.0000

> <Gold.Chemscore.DEClash.Weighted>
0.0616

> <Gold.Chemscore.DEInternal.Weighted>
2.0237

> <Gold.Chemscore.Rot.Weighted>
4.8309

> <Gold.Chemscore.Internal.Correction.Weighted>
   9.000000E+99

> <Gold.Protein.RotatedTorsions>
[ 6907 6896 6895 6894 ] final -132.87 input  -60.11 | X-H torsion
[ 7974 7965 7964 7962 ] final   97.36 input  175.53 | X-H torsion
[ 8008 7997 7996 7995 ] final  167.57 input   59.86 | X-H torsion
[ 10167 10162 10161 10158 ] final   77.58 input  -65.29 | X-H torsion
[ 10718 10713 10712 10709 ] final    7.02 input   66.30 | X-H torsion
[ 10763 10752 10751 10750 ] final  162.36 input  -60.55 | X-H torsion
[ 11005 11000 10999 10996 ] final  130.04 input  -57.11 | X-H torsion

> <Gold.Protein.ActiveResidues>
 VAL166  LYS551  ARG553  GLY616  TRP617  ASP618  TYR619  PRO620  LYS621  CYS622 
 ASP623  PHE694  ASN695  SER759  ASP760  ASP761  ALA762  ILE779  LEU786  VAL792 
 PHE793  MET794  SER795  GLU796  ALA797  LYS798  CYS799  TRP800  GLU811  SER814 

> <Gold.Protein.RotatedAtoms>
  150.9673  133.6381  159.2743 H   0  0  0  0  0  0  0  0  0  0  0  0  # atno 6907 bound_to 6896
  151.3682  135.0916  159.9466 H   0  0  0  0  0  0  0  0  0  0  0  0  # atno 6908 bound_to 6896
  152.5170  133.9233  159.7599 H   0  0  0  0  0  0  0  0  0  0  0  0  # atno 6909 bound_to 6896
  145.4266  139.2315  143.3167 H   0  0  0  0  0  0  0  0  0  0  0  0  # atno 7974 bound_to 7965
  156.1622  140.1613  156.8592 H   0  0  0  0  0  0  0  0  0  0  0  0  # atno 8008 bound_to 7997
  154.5172  140.0786  156.8139 H   0  0  0  0  0  0  0  0  0  0  0  0  # atno 8009 bound_to 7997
  155.3683  140.3399  155.4245 H   0  0  0  0  0  0  0  0  0  0  0  0  # atno 8010 bound_to 7997
  139.9800  144.5833  150.7909 H   0  0  0  0  0  0  0  0  0  0  0  0  # atno 10167 bound_to 10162
  156.9308  130.5825  149.5649 H   0  0  0  0  0  0  0  0  0  0  0  0  # atno 10718 bound_to 10713
  154.2771  135.2764  155.2713 H   0  0  0  0  0  0  0  0  0  0  0  0  # atno 10763 bound_to 10752
  154.5251  135.5745  153.6716 H   0  0  0  0  0  0  0  0  0  0  0  0  # atno 10764 bound_to 10752
  152.9935  135.6214  154.2929 H   0  0  0  0  0  0  0  0  0  0  0  0  # atno 10765 bound_to 10752
  139.9650  134.9593  156.9236 H   0  0  0  0  0  0  0  0  0  0  0  0  # atno 11005 bound_to 11000
  146.2629  140.4997  142.8846 LP  0  0  0  0  0  0  0  0  0  0  0  0  # atno 17320 bound_to 7965
  144.8210  140.6550  143.6353 LP  0  0  0  0  0  0  0  0  0  0  0  0  # atno 17321 bound_to 7965
  140.7492  143.2935  151.3267 LP  0  0  0  0  0  0  0  0  0  0  0  0  # atno 17342 bound_to 10162
  139.6417  144.0527  152.2559 LP  0  0  0  0  0  0  0  0  0  0  0  0  # atno 17343 bound_to 10162
  156.0448  130.5526  150.8855 LP  0  0  0  0  0  0  0  0  0  0  0  0  # atno 17370 bound_to 10713
  157.5848  131.0946  150.9214 LP  0  0  0  0  0  0  0  0  0  0  0  0  # atno 17371 bound_to 10713
  140.5417  134.0713  155.7343 LP  0  0  0  0  0  0  0  0  0  0  0  0  # atno 17394 bound_to 11000
  141.1329  133.9272  157.2497 LP  0  0  0  0  0  0  0  0  0  0  0  0  # atno 17395 bound_to 11000

$$$$
