AV-unprocessed.smi:696|AV-procd|sdf|3387|dock8
  -GOLD-   22720 0363D 1   1.00000     0.00000
 Structure written by MMmdl.
 37 38  0  0  0  0  0  0  0  0  2 V2000
  149.1883  141.0027  157.2548 O   0  0  0  0  0  0  0  0  0  0  0  0
  150.0278  141.7009  156.6852 C   0  0  0  0  0  0  0  0  0  0  0  0
  149.9525  142.0274  155.3854 N   0  0  0  0  0  0  0  0  0  0  0  0
  148.8861  141.6197  154.4780 C   0  0  0  0  0  0  0  0  0  0  0  0
  148.7832  140.0832  154.3829 C   0  0  0  0  0  0  0  0  0  0  0  0
  150.1090  139.3388  154.4643 C   0  0  0  0  0  0  0  0  0  0  0  0
  151.2837  139.8334  154.6064 N   0  0  0  0  0  0  0  0  0  0  0  0
  152.1634  138.7024  154.6258 N   0  5  0  0  0  0  0  0  0  0  0  0
  151.3913  137.5974  154.4879 C   0  0  0  0  0  0  0  0  0  0  0  0
  151.7354  136.4179  154.4543 O   0  0  0  0  0  0  0  0  0  0  0  0
  150.1210  137.9738  154.3869 N   0  0  0  0  0  0  0  0  0  0  0  0
  151.2366  142.2437  157.4626 C   0  0  0  0  0  0  0  0  0  0  0  0
  151.2547  141.6588  158.8944 C   0  0  0  0  0  0  0  0  0  0  0  0
  152.6236  141.7955  159.5827 C   0  0  0  0  0  0  0  0  0  0  0  0
  152.8580  143.1183  160.3343 C   0  0  0  0  0  0  0  0  0  0  0  0
  152.3002  144.3941  159.6783 C   0  0  0  0  0  0  0  0  0  0  0  0
  152.4180  144.4555  158.1468 C   0  0  0  0  0  0  0  0  0  0  0  0
  151.2328  143.7867  157.4278 C   0  0  0  0  0  0  0  0  0  0  0  0
  149.3150  137.3771  154.2760 H   0  0  0  0  0  0  0  0  0  0  0  0
  150.6847  142.6047  154.9979 H   0  0  0  0  0  0  0  0  0  0  0  0
  147.9524  142.0359  154.8583 H   0  0  0  0  0  0  0  0  0  0  0  0
  149.0490  142.0620  153.4934 H   0  0  0  0  0  0  0  0  0  0  0  0
  148.1347  139.7057  155.1743 H   0  0  0  0  0  0  0  0  0  0  0  0
  148.3040  139.8141  153.4409 H   0  0  0  0  0  0  0  0  0  0  0  0
  152.1339  141.8999  156.9449 H   0  0  0  0  0  0  0  0  0  0  0  0
  150.4690  142.0984  159.5106 H   0  0  0  0  0  0  0  0  0  0  0  0
  151.0237  140.5934  158.8391 H   0  0  0  0  0  0  0  0  0  0  0  0
  152.7415  140.9814  160.2987 H   0  0  0  0  0  0  0  0  0  0  0  0
  153.4172  141.6453  158.8500 H   0  0  0  0  0  0  0  0  0  0  0  0
  152.4316  143.0400  161.3349 H   0  0  0  0  0  0  0  0  0  0  0  0
  153.9317  143.2353  160.4851 H   0  0  0  0  0  0  0  0  0  0  0  0
  151.2567  144.5270  159.9664 H   0  0  0  0  0  0  0  0  0  0  0  0
  152.8251  145.2477  160.1084 H   0  0  0  0  0  0  0  0  0  0  0  0
  152.4284  145.5063  157.8550 H   0  0  0  0  0  0  0  0  0  0  0  0
  153.3697  144.0440  157.8085 H   0  0  0  0  0  0  0  0  0  0  0  0
  151.2486  144.1077  156.3849 H   0  0  0  0  0  0  0  0  0  0  0  0
  150.2981  144.1735  157.8371 H   0  0  0  0  0  0  0  0  0  0  0  0
  1  2  2  0  0  0  0
  2  3  1  0  0  0  0
  2 12  1  0  0  0  0
  3  4  1  0  0  0  0
  3 20  1  0  0  0  0
  4  5  1  0  0  0  0
  4 21  1  0  0  0  0
  4 22  1  0  0  0  0
  5  6  1  0  0  0  0
  5 23  1  0  0  0  0
  5 24  1  0  0  0  0
  6 11  1  0  0  0  0
  6  7  2  0  0  0  0
  7  8  1  0  0  0  0
  8  9  1  0  0  0  0
  9 10  2  0  0  0  0
  9 11  1  0  0  0  0
 11 19  1  0  0  0  0
 12 18  1  0  0  0  0
 12 13  1  0  0  0  0
 12 25  1  0  0  0  0
 13 14  1  0  0  0  0
 13 26  1  0  0  0  0
 13 27  1  0  0  0  0
 14 15  1  0  0  0  0
 14 28  1  0  0  0  0
 14 29  1  0  0  0  0
 15 16  1  0  0  0  0
 15 30  1  0  0  0  0
 15 31  1  0  0  0  0
 16 17  1  0  0  0  0
 16 32  1  0  0  0  0
 16 33  1  0  0  0  0
 17 18  1  0  0  0  0
 17 34  1  0  0  0  0
 17 35  1  0  0  0  0
 18 36  1  0  0  0  0
 18 37  1  0  0  0  0
M  CHG  1   8  -1
M  END
> <s_m_source_file>
AV-unprocessed.smi

> <i_m_source_file_index>
696

> <i_lp_mmshare_version>
43012

> <i_f3d_flags>
0

> <s_epik_input>
W0NIMl0xW0NIMl1bQ0gyXVtDSDJdW0NIMl1bQ0gyXVtDSF0xQyg9TylbTkhdW0NIMl1bQ0gyXWMybltuSF1jKD1PKVtuSF0y

> <s_epik_cmdline>
J2VwaWtfcHl0aG9uJywgJy1waCcsICc3LjAnLCAnLXRuJywgJzgnLCAnLW1hJywgJzIwMCcsICctbWV0YWxfYmluZGluZycsICctaW1hZScsICc8aW5maWxlLm1hZT4nLCAnLW9tYWUnLCAnPG91dGZpbGUubWFlPic=

> <r_lp_tautomer_probability>
1

> <r_epik_Ionization_Penalty>
14.1589

> <r_epik_Ionization_Penalty_Charging>
13.7723

> <r_epik_Ionization_Penalty_Neutral>
0.386566

> <r_epik_State_Penalty>
4.88838

> <r_epik_Charging_Adjusted_Penalty>
18.6607

> <i_epik_Tot_Q>
-1

> <i_epik_Tot_abs_Q>
1

> <r_epik_Metal_State_Penalty>
1.30742

> <b_epik_Metal_Only>
1

> <s_lp_Force_Field>
OPLS_2005

> <r_lp_Energy>
24.8818

> <b_lp_Chiralities_Consistent>
1

> <s_lp_Variant>
AV-unprocessed.smi:696-2

> <Gold.Version>
5.8.1

> <Gold.Id.Protein>
6NUR|6NUR_protein|mol2

> <Gold.PLP.Fitness>
46.1595

> <Gold.PLP.PLP>
-40.4649

> <Gold.PLP.part.hbond>
-3.1130

> <Gold.PLP.part.metal>
0.0000

> <Gold.PLP.part.buried>
-3.2703

> <Gold.PLP.part.nonpolar>
-35.3468

> <Gold.PLP.part.repulsive>
0.5766

> <Gold.PLP.ligand.clash>
0.0000

> <Gold.PLP.ligand.torsion>
0.1718

> <Gold.PLP.Chemscore.Hbond>
2.0000

> <Gold.PLP.Chemscore.CHOScore>
0.0000

> <Gold.PLP.Chemscore.Metal>
0.0000

> <Gold.Chemscore.Hbonds>
donor molecule, donor type, donor heavy atom, donor atom, acceptor molecule, acceptor atom, score
      P1  H  7989  7998       L1     7  1.00
      P1  H 10752 10763       L1    10  0.92

> <Gold.PLP.Chemscore.Internal.Correction>
0.0381

> <Gold.Rescore>
     Score         DG    S(hbond)    S(metal)    S(lipo)     H(rot)  DE(clash)    DE(int)     intcor
     14.19     -17.12       1.95        0.00      92.99       2.25       0.19       2.73       ----

> <Gold.Chemscore.Fitness>
14.1947

> <Gold.Chemscore.DG>
-17.1230

> <Gold.Chemscore.ZeroCoef>
-5.4800

> <Gold.Chemscore.Hbond>
1.9530

> <Gold.Chemscore.Metal>
0.0000

> <Gold.Chemscore.Lipo>
92.9934

> <Gold.Chemscore.Internal_Hbond>
0.0000

> <Gold.Chemscore.DEClash>
0.1944

> <Gold.Chemscore.DEInternal>
2.7340

> <Gold.Chemscore.Rot>
2.2501

> <Gold.Chemscore.Internal.Correction>
   9.000000E+99

> <Gold.Chemscore.Hbonds>
donor molecule, donor type, donor heavy atom, donor atom, acceptor molecule, acceptor atom, score
      P1  H  7989  7998       L1     7  0.69
      P1  H 10752 10763       L1    10  0.84

> <Gold.Chemscore.Hbond.Weighted>
-6.5231

> <Gold.Chemscore.Metal.Weighted>
-0.0000

> <Gold.Chemscore.Lipo.Weighted>
-10.8802

> <Gold.Chemscore.Internal_Hbond.Weighted>
0.0000

> <Gold.Chemscore.DEClash.Weighted>
0.1944

> <Gold.Chemscore.DEInternal.Weighted>
2.7340

> <Gold.Chemscore.Rot.Weighted>
5.7603

> <Gold.Chemscore.Internal.Correction.Weighted>
   9.000000E+99

> <Gold.Protein.RotatedTorsions>
[ 6907 6896 6895 6894 ] final   -9.57 input  -60.11 | X-H torsion
[ 7974 7965 7964 7962 ] final  -81.97 input  175.53 | X-H torsion
[ 8008 7997 7996 7995 ] final   21.33 input   59.86 | X-H torsion
[ 10167 10162 10161 10158 ] final  -47.29 input  -65.29 | X-H torsion
[ 10718 10713 10712 10709 ] final -154.81 input   66.30 | X-H torsion
[ 10763 10752 10751 10750 ] final   66.35 input  -60.55 | X-H torsion
[ 11005 11000 10999 10996 ] final -103.19 input  -57.11 | X-H torsion

> <Gold.Protein.ActiveResidues>
 VAL166  LYS551  ARG553  GLY616  TRP617  ASP618  TYR619  PRO620  LYS621  CYS622 
 ASP623  PHE694  ASN695  SER759  ASP760  ASP761  ALA762  ILE779  LEU786  VAL792 
 PHE793  MET794  SER795  GLU796  ALA797  LYS798  CYS799  TRP800  GLU811  SER814 

> <Gold.Protein.RotatedAtoms>
  151.4157  135.0991  159.9598 H   0  0  0  0  0  0  0  0  0  0  0  0  # atno 6907 bound_to 6896
  152.5005  133.8755  159.7330 H   0  0  0  0  0  0  0  0  0  0  0  0  # atno 6908 bound_to 6896
  150.9259  133.6767  159.2849 H   0  0  0  0  0  0  0  0  0  0  0  0  # atno 6909 bound_to 6896
  145.5395  140.9511  143.1559 H   0  0  0  0  0  0  0  0  0  0  0  0  # atno 7974 bound_to 7965
  154.9490  140.3063  155.5084 H   0  0  0  0  0  0  0  0  0  0  0  0  # atno 8008 bound_to 7997
  156.2989  140.2322  156.4504 H   0  0  0  0  0  0  0  0  0  0  0  0  # atno 8009 bound_to 7997
  154.8072  140.0430  157.1305 H   0  0  0  0  0  0  0  0  0  0  0  0  # atno 8010 bound_to 7997
  140.6781  143.2791  151.3905 H   0  0  0  0  0  0  0  0  0  0  0  0  # atno 10167 bound_to 10162
  156.5044  130.8406  151.2622 H   0  0  0  0  0  0  0  0  0  0  0  0  # atno 10718 bound_to 10713
  153.0136  135.5324  154.6810 H   0  0  0  0  0  0  0  0  0  0  0  0  # atno 10763 bound_to 10752
  154.5970  135.2864  155.0578 H   0  0  0  0  0  0  0  0  0  0  0  0  # atno 10764 bound_to 10752
  154.1650  135.6541  153.5047 H   0  0  0  0  0  0  0  0  0  0  0  0  # atno 10765 bound_to 10752
  141.1156  133.8620  157.1455 H   0  0  0  0  0  0  0  0  0  0  0  0  # atno 11005 bound_to 11000
  144.7584  139.7017  143.7244 LP  0  0  0  0  0  0  0  0  0  0  0  0  # atno 17320 bound_to 7965
  146.1990  139.5274  142.9755 LP  0  0  0  0  0  0  0  0  0  0  0  0  # atno 17321 bound_to 7965
  139.6086  144.1145  152.2275 LP  0  0  0  0  0  0  0  0  0  0  0  0  # atno 17342 bound_to 10162
  140.0552  144.5901  150.7305 LP  0  0  0  0  0  0  0  0  0  0  0  0  # atno 17343 bound_to 10162
  157.7459  130.9971  150.2803 LP  0  0  0  0  0  0  0  0  0  0  0  0  # atno 17370 bound_to 10713
  156.3301  130.3799  149.7498 LP  0  0  0  0  0  0  0  0  0  0  0  0  # atno 17371 bound_to 10713
  140.0077  135.0001  157.0328 LP  0  0  0  0  0  0  0  0  0  0  0  0  # atno 17394 bound_to 11000
  140.4654  134.1441  155.7196 LP  0  0  0  0  0  0  0  0  0  0  0  0  # atno 17395 bound_to 11000

$$$$
