AV-unprocessed.smi:342|AV-procd|sdf|2387|dock5
  -GOLD-   2262022313D 1   1.00000     0.00000
 Structure written by MMmdl.
 42 44  0  0  0  0  0  0  0  0  2 V2000
  149.8417  140.8454  153.6062 O   0  0  0  0  0  0  0  0  0  0  0  0
  149.1305  141.4243  154.6829 C   0  0  1  0  0  0  0  0  0  0  0  0
  147.6700  141.6441  154.2421 C   0  0  0  0  0  0  0  0  0  0  0  0
  146.9061  142.4898  155.1946 N   0  3  0  0  0  0  0  0  0  0  0  0
  145.7090  143.1056  154.5736 C   0  0  0  0  0  0  0  0  0  0  0  0
  144.9901  144.0191  155.5805 C   0  0  0  0  0  0  0  0  0  0  0  0
  144.6413  143.2697  156.7378 O   0  0  0  0  0  0  0  0  0  0  0  0
  145.7870  142.7435  157.3961 C   0  0  0  0  0  0  0  0  0  0  0  0
  146.5353  141.7894  156.4496 C   0  0  0  0  0  0  0  0  0  0  0  0
  149.2170  140.5054  155.9196 C   0  0  0  0  0  0  0  0  0  0  0  0
  150.4595  140.6664  156.6647 N   0  0  0  0  0  0  0  0  0  0  0  0
  151.5579  139.8654  156.6556 C   0  0  0  0  0  0  0  0  0  0  0  0
  151.6529  138.6356  155.7941 C   0  0  0  0  0  0  0  0  0  0  0  0
  152.8621  138.0804  155.8871 F   0  0  0  0  0  0  0  0  0  0  0  0
  150.7591  137.7195  156.1650 F   0  0  0  0  0  0  0  0  0  0  0  0
  151.4421  138.9453  154.5150 F   0  0  0  0  0  0  0  0  0  0  0  0
  152.5641  140.2619  157.4383 N   0  0  0  0  0  0  0  0  0  0  0  0
  152.0793  141.4256  158.0003 C   0  0  0  0  0  0  0  0  0  0  0  0
  152.6754  142.3198  158.9181 C   0  0  0  0  0  0  0  0  0  0  0  0
  151.9782  143.4656  159.3535 C   0  0  0  0  0  0  0  0  0  0  0  0
  150.6784  143.7334  158.8777 C   0  0  0  0  0  0  0  0  0  0  0  0
  150.0666  142.8550  157.9630 C   0  0  0  0  0  0  0  0  0  0  0  0
  150.7658  141.7107  157.5332 C   0  0  0  0  0  0  0  0  0  0  0  0
  149.2854  140.2052  153.1875 H   0  0  0  0  0  0  0  0  0  0  0  0
  149.6014  142.3768  154.9183 H   0  0  0  0  0  0  0  0  0  0  0  0
  147.6737  142.1126  153.2563 H   0  0  0  0  0  0  0  0  0  0  0  0
  147.1569  140.6887  154.1214 H   0  0  0  0  0  0  0  0  0  0  0  0
  146.0019  143.6869  153.6984 H   0  0  0  0  0  0  0  0  0  0  0  0
  145.0314  142.3227  154.2282 H   0  0  0  0  0  0  0  0  0  0  0  0
  145.6189  144.8673  155.8563 H   0  0  0  0  0  0  0  0  0  0  0  0
  144.0820  144.4272  155.1364 H   0  0  0  0  0  0  0  0  0  0  0  0
  146.4375  143.5552  157.7263 H   0  0  0  0  0  0  0  0  0  0  0  0
  145.4657  142.2090  158.2903 H   0  0  0  0  0  0  0  0  0  0  0  0
  145.9054  140.9292  156.2172 H   0  0  0  0  0  0  0  0  0  0  0  0
  147.4225  141.4076  156.9535 H   0  0  0  0  0  0  0  0  0  0  0  0
  148.3774  140.6955  156.5875 H   0  0  0  0  0  0  0  0  0  0  0  0
  149.1271  139.4601  155.6207 H   0  0  0  0  0  0  0  0  0  0  0  0
  153.6719  142.1250  159.2865 H   0  0  0  0  0  0  0  0  0  0  0  0
  152.4437  144.1430  160.0544 H   0  0  0  0  0  0  0  0  0  0  0  0
  150.1516  144.6142  159.2150 H   0  0  0  0  0  0  0  0  0  0  0  0
  149.0714  143.0595  157.5976 H   0  0  0  0  0  0  0  0  0  0  0  0
  147.5171  143.2539  155.4478 H   0  0  0  0  0  0  0  0  0  0  0  0
  1  2  1  0  0  0  0
  1 24  1  0  0  0  0
  2  3  1  0  0  0  0
  2 10  1  0  0  0  0
  2 25  1  0  0  0  0
  3  4  1  0  0  0  0
  3 26  1  0  0  0  0
  3 27  1  0  0  0  0
  4  9  1  0  0  0  0
  4  5  1  0  0  0  0
  4 42  1  0  0  0  0
  5  6  1  0  0  0  0
  5 28  1  0  0  0  0
  5 29  1  0  0  0  0
  6  7  1  0  0  0  0
  6 30  1  0  0  0  0
  6 31  1  0  0  0  0
  7  8  1  0  0  0  0
  8  9  1  0  0  0  0
  8 32  1  0  0  0  0
  8 33  1  0  0  0  0
  9 34  1  0  0  0  0
  9 35  1  0  0  0  0
 10 11  1  0  0  0  0
 10 36  1  0  0  0  0
 10 37  1  0  0  0  0
 11 23  1  0  0  0  0
 11 12  1  0  0  0  0
 12 13  1  0  0  0  0
 12 17  2  0  0  0  0
 13 14  1  0  0  0  0
 13 15  1  0  0  0  0
 13 16  1  0  0  0  0
 17 18  1  0  0  0  0
 18 23  2  0  0  0  0
 18 19  1  0  0  0  0
 19 20  2  0  0  0  0
 19 38  1  0  0  0  0
 20 21  1  0  0  0  0
 20 39  1  0  0  0  0
 21 22  2  0  0  0  0
 21 40  1  0  0  0  0
 22 23  1  0  0  0  0
 22 41  1  0  0  0  0
M  CHG  1   4   1
M  END
> <s_m_source_file>
AV-unprocessed.smi

> <i_m_source_file_index>
342

> <i_lp_mmshare_version>
43012

> <i_f3d_flags>
0

> <s_epik_input>
W2NIXTFbY0hdW2NIXVtjSF1jKGMxMiluKGMobjIpQyhGKShGKUYpW0NIMl1bQ0BIXShbT0hdKVtDSDJdTjNbQ0gyXVtDSDJdT1tDSDJdW0NIMl0z

> <s_epik_cmdline>
J2VwaWtfcHl0aG9uJywgJy1waCcsICc3LjAnLCAnLXRuJywgJzgnLCAnLW1hJywgJzIwMCcsICctbWV0YWxfYmluZGluZycsICctaW1hZScsICc8aW5maWxlLm1hZT4nLCAnLW9tYWUnLCAnPG91dGZpbGUubWFlPic=

> <r_epik_Ionization_Penalty>
0.608409

> <r_epik_Ionization_Penalty_Charging>
0.608065

> <r_epik_Ionization_Penalty_Neutral>
0.000344684

> <r_epik_State_Penalty>
0.623026

> <r_epik_Charging_Adjusted_Penalty>
1.23109

> <i_epik_Tot_Q>
1

> <i_epik_Tot_abs_Q>
1

> <r_epik_Metal_State_Penalty>
0.623013

> <b_epik_Metal_Only>
0

> <s_lp_Force_Field>
OPLS_2005

> <r_lp_Energy>
25.6933

> <b_lp_Chiralities_Consistent>
1

> <s_lp_Variant>
AV-unprocessed.smi:342-4

> <Gold.Version>
5.8.1

> <Gold.Id.Protein>
6NUR|6NUR_protein|mol2

> <Gold.PLP.Fitness>
52.5973

> <Gold.PLP.PLP>
-40.6520

> <Gold.PLP.part.hbond>
-4.6025

> <Gold.PLP.part.metal>
0.0000

> <Gold.PLP.part.buried>
-3.6776

> <Gold.PLP.part.nonpolar>
-31.5298

> <Gold.PLP.part.repulsive>
0.1388

> <Gold.PLP.ligand.clash>
0.0000

> <Gold.PLP.ligand.torsion>
0.7137

> <Gold.PLP.Chemscore.Hbond>
4.4359

> <Gold.PLP.Chemscore.CHOScore>
0.0000

> <Gold.PLP.Chemscore.Metal>
0.0000

> <Gold.Chemscore.Hbonds>
donor molecule, donor type, donor heavy atom, donor atom, acceptor molecule, acceptor atom, score
      L1  H     1    24       P1  7957  0.25
      L1  H     4    42       P1  8028  1.80
      P1  H  7989  7998       L1     1  0.38
      P1  H  7997  8009       L1    17  0.99
      P1  H  8011  8017       L1     1  0.95

> <Gold.PLP.Chemscore.Internal.Correction>
0.0650

> <Gold.Rescore>
     Score         DG    S(hbond)    S(metal)    S(lipo)     H(rot)  DE(clash)    DE(int)     intcor
     13.89     -16.05       1.81        0.00      89.50       2.32       0.08       2.09       ----

> <Gold.Chemscore.Fitness>
13.8873

> <Gold.Chemscore.DG>
-16.0530

> <Gold.Chemscore.ZeroCoef>
-5.4800

> <Gold.Chemscore.Hbond>
1.8090

> <Gold.Chemscore.Metal>
0.0000

> <Gold.Chemscore.Lipo>
89.5010

> <Gold.Chemscore.Internal_Hbond>
0.0000

> <Gold.Chemscore.DEClash>
0.0787

> <Gold.Chemscore.DEInternal>
2.0870

> <Gold.Chemscore.Rot>
2.3206

> <Gold.Chemscore.Internal.Correction>
   9.000000E+99

> <Gold.Chemscore.Hbonds>
donor molecule, donor type, donor heavy atom, donor atom, acceptor molecule, acceptor atom, score
      L1  H     1    24       P1  7957  0.23
      L1  H     4    42       P1  8028  0.17
      P1  H  7989  7998       L1     1  0.38
      P1  H  7997  8009       L1    17  0.89
      P1  H  8011  8017       L1     1  0.09

> <Gold.Chemscore.Hbond.Weighted>
-6.0421

> <Gold.Chemscore.Metal.Weighted>
-0.0000

> <Gold.Chemscore.Lipo.Weighted>
-10.4716

> <Gold.Chemscore.Internal_Hbond.Weighted>
0.0000

> <Gold.Chemscore.DEClash.Weighted>
0.0787

> <Gold.Chemscore.DEInternal.Weighted>
2.0870

> <Gold.Chemscore.Rot.Weighted>
5.9407

> <Gold.Chemscore.Internal.Correction.Weighted>
   9.000000E+99

> <Gold.Protein.RotatedTorsions>
[ 6907 6896 6895 6894 ] final -177.55 input  -60.11 | X-H torsion
[ 7974 7965 7964 7962 ] final -160.33 input  175.53 | X-H torsion
[ 8008 7997 7996 7995 ] final  172.87 input   59.86 | X-H torsion
[ 10167 10162 10161 10158 ] final  -57.02 input  -65.29 | X-H torsion
[ 10718 10713 10712 10709 ] final -104.11 input   66.30 | X-H torsion
[ 10763 10752 10751 10750 ] final  119.77 input  -60.55 | X-H torsion
[ 11005 11000 10999 10996 ] final   66.60 input  -57.11 | X-H torsion

> <Gold.Protein.ActiveResidues>
 VAL166  LYS551  ARG553  GLY616  TRP617  ASP618  TYR619  PRO620  LYS621  CYS622 
 ASP623  PHE694  ASN695  SER759  ASP760  ASP761  ALA762  ILE779  LEU786  VAL792 
 PHE793  MET794  SER795  GLU796  ALA797  LYS798  CYS799  TRP800  GLU811  SER814 

> <Gold.Protein.RotatedAtoms>
  151.6228  133.3338  159.3091 H   0  0  0  0  0  0  0  0  0  0  0  0  # atno 6907 bound_to 6896
  150.8097  134.7248  159.6688 H   0  0  0  0  0  0  0  0  0  0  0  0  # atno 6908 bound_to 6896
  152.4193  134.5988  160.0046 H   0  0  0  0  0  0  0  0  0  0  0  0  # atno 6909 bound_to 6896
  144.7431  140.3557  143.6106 H   0  0  0  0  0  0  0  0  0  0  0  0  # atno 7974 bound_to 7965
  156.1132  140.1475  156.9309 H   0  0  0  0  0  0  0  0  0  0  0  0  # atno 8008 bound_to 7997
  154.4782  140.0888  156.7356 H   0  0  0  0  0  0  0  0  0  0  0  0  # atno 8009 bound_to 7997
  155.4559  140.3436  155.4309 H   0  0  0  0  0  0  0  0  0  0  0  0  # atno 8010 bound_to 7997
  140.6283  143.2448  151.5307 H   0  0  0  0  0  0  0  0  0  0  0  0  # atno 10167 bound_to 10162
  156.0291  130.5500  150.7350 H   0  0  0  0  0  0  0  0  0  0  0  0  # atno 10718 bound_to 10713
  153.5882  135.3471  155.2901 H   0  0  0  0  0  0  0  0  0  0  0  0  # atno 10763 bound_to 10752
  154.8657  135.4198  154.2545 H   0  0  0  0  0  0  0  0  0  0  0  0  # atno 10764 bound_to 10752
  153.3347  135.7046  153.6989 H   0  0  0  0  0  0  0  0  0  0  0  0  # atno 10765 bound_to 10752
  139.9822  134.6726  156.0242 H   0  0  0  0  0  0  0  0  0  0  0  0  # atno 11005 bound_to 11000
  145.7230  139.1715  143.2474 LP  0  0  0  0  0  0  0  0  0  0  0  0  # atno 17320 bound_to 7965
  146.1263  140.7244  142.9433 LP  0  0  0  0  0  0  0  0  0  0  0  0  # atno 17321 bound_to 7965
  139.5500  144.2420  152.1513 LP  0  0  0  0  0  0  0  0  0  0  0  0  # atno 17342 bound_to 10162
  140.1657  144.4983  150.6607 LP  0  0  0  0  0  0  0  0  0  0  0  0  # atno 17343 bound_to 10162
  157.4933  131.0912  151.0401 LP  0  0  0  0  0  0  0  0  0  0  0  0  # atno 17370 bound_to 10713
  157.0802  130.5900  149.5419 LP  0  0  0  0  0  0  0  0  0  0  0  0  # atno 17371 bound_to 10713
  141.1492  133.6551  156.3961 LP  0  0  0  0  0  0  0  0  0  0  0  0  # atno 17394 bound_to 11000
  140.5074  134.6427  157.5271 LP  0  0  0  0  0  0  0  0  0  0  0  0  # atno 17395 bound_to 11000

$$$$
