AV-unprocessed.smi:90|AV-procd|sdf|831|dock6
  -GOLD-   2262017253D 1   1.00000     0.00000
 Structure written by MMmdl.
 64 67  0  0  0  0  0  0  0  0  2 V2000
  150.4548  132.7229  154.8220 C   0  0  0  0  0  0  0  0  0  0  0  0
  149.2250  133.3201  154.3086 N   0  0  0  0  0  0  0  0  0  0  0  0
  148.7893  133.0373  152.9427 C   0  0  0  0  0  0  0  0  0  0  0  0
  147.4384  133.6940  152.5998 C   0  0  0  0  0  0  0  0  0  0  0  0
  146.2112  132.7982  152.9212 C   0  0  2  0  0  0  0  0  0  0  0  0
  146.1131  131.5371  152.0307 C   0  0  0  0  0  0  0  0  0  0  0  0
  145.7237  131.8820  150.5842 C   0  0  0  0  0  0  0  0  0  0  0  0
  144.4235  132.6974  150.5668 C   0  0  0  0  0  0  0  0  0  0  0  0
  144.5194  133.9282  151.4842 C   0  0  0  0  0  0  0  0  0  0  0  0
  144.9114  133.5317  152.8611 N   0  3  2  0  0  0  0  0  0  0  0  0
  144.7750  134.6330  153.8416 C   0  0  0  0  0  0  0  0  0  0  0  0
  148.8123  134.4584  154.9243 C   0  0  0  0  0  0  0  0  0  0  0  0
  147.4920  134.5610  155.2284 N   0  0  0  0  0  0  0  0  0  0  0  0
  147.0185  135.6545  155.8315 C   0  0  0  0  0  0  0  0  0  0  0  0
  147.6813  136.7435  156.2221 N   0  0  0  0  0  0  0  0  0  0  0  0
  149.0106  136.6454  155.9362 C   0  0  0  0  0  0  0  0  0  0  0  0
  149.6555  135.5513  155.2891 C   0  0  0  0  0  0  0  0  0  0  0  0
  151.0165  135.8154  155.1762 N   0  0  0  0  0  0  0  0  0  0  0  0
  151.1629  136.9966  155.7093 C   0  0  0  0  0  0  0  0  0  0  0  0
  150.0126  137.5612  156.2115 N   0  0  0  0  0  0  0  0  0  0  0  0
  149.8923  138.8594  156.8623 C   0  0  0  0  0  0  0  0  0  0  0  0
  151.2412  139.4966  157.3137 C   0  0  0  0  0  0  0  0  0  0  0  0
  152.1319  139.8256  156.0815 C   0  0  0  0  0  0  0  0  0  0  0  0
  151.4069  140.4690  155.0528 O   0  0  0  0  0  0  0  0  0  0  0  0
  150.9711  140.7948  158.1172 C   0  0  0  0  0  0  0  0  0  0  0  0
  152.2086  141.3069  158.8782 C   0  0  0  0  0  0  0  0  0  0  0  0
  152.7199  140.2881  159.7269 O   0  0  0  0  0  0  0  0  0  0  0  0
  153.1469  139.1385  159.0085 C   0  0  0  0  0  0  0  0  0  0  0  0
  151.9494  138.5089  158.2758 C   0  0  0  0  0  0  0  0  0  0  0  0
  151.0820  133.4607  155.3243 H   0  0  0  0  0  0  0  0  0  0  0  0
  151.0473  132.2906  154.0160 H   0  0  0  0  0  0  0  0  0  0  0  0
  150.2183  131.9324  155.5345 H   0  0  0  0  0  0  0  0  0  0  0  0
  149.5393  133.4151  152.2501 H   0  0  0  0  0  0  0  0  0  0  0  0
  148.7337  131.9572  152.8033 H   0  0  0  0  0  0  0  0  0  0  0  0
  147.3635  134.6214  153.1642 H   0  0  0  0  0  0  0  0  0  0  0  0
  147.4398  133.9847  151.5498 H   0  0  0  0  0  0  0  0  0  0  0  0
  146.3248  132.4542  153.9504 H   0  0  0  0  0  0  0  0  0  0  0  0
  147.0394  130.9645  152.0450 H   0  0  0  0  0  0  0  0  0  0  0  0
  145.3557  130.8710  152.4463 H   0  0  0  0  0  0  0  0  0  0  0  0
  146.5234  132.4442  150.1012 H   0  0  0  0  0  0  0  0  0  0  0  0
  145.5977  130.9680  150.0031 H   0  0  0  0  0  0  0  0  0  0  0  0
  144.1904  133.0077  149.5477 H   0  0  0  0  0  0  0  0  0  0  0  0
  143.5963  132.0659  150.8934 H   0  0  0  0  0  0  0  0  0  0  0  0
  145.2297  134.6518  151.0832 H   0  0  0  0  0  0  0  0  0  0  0  0
  143.5505  134.4282  151.5138 H   0  0  0  0  0  0  0  0  0  0  0  0
  145.3693  135.5021  153.5597 H   0  0  0  0  0  0  0  0  0  0  0  0
  145.0811  134.3098  154.8369 H   0  0  0  0  0  0  0  0  0  0  0  0
  143.7340  134.9514  153.9040 H   0  0  0  0  0  0  0  0  0  0  0  0
  145.9571  135.6568  156.0311 H   0  0  0  0  0  0  0  0  0  0  0  0
  152.1241  137.4868  155.7620 H   0  0  0  0  0  0  0  0  0  0  0  0
  149.3796  139.5256  156.1668 H   0  0  0  0  0  0  0  0  0  0  0  0
  149.2182  138.7534  157.7129 H   0  0  0  0  0  0  0  0  0  0  0  0
  152.9681  140.4644  156.3664 H   0  0  0  0  0  0  0  0  0  0  0  0
  152.5750  138.9282  155.6533 H   0  0  0  0  0  0  0  0  0  0  0  0
  150.5246  140.1308  155.0497 H   0  0  0  0  0  0  0  0  0  0  0  0
  150.6046  141.5849  157.4613 H   0  0  0  0  0  0  0  0  0  0  0  0
  150.1799  140.6113  158.8451 H   0  0  0  0  0  0  0  0  0  0  0  0
  152.9854  141.6543  158.1969 H   0  0  0  0  0  0  0  0  0  0  0  0
  151.9334  142.1634  159.4937 H   0  0  0  0  0  0  0  0  0  0  0  0
  153.9504  139.3976  158.3183 H   0  0  0  0  0  0  0  0  0  0  0  0
  153.5641  138.4229  159.7172 H   0  0  0  0  0  0  0  0  0  0  0  0
  151.2393  138.1665  159.0300 H   0  0  0  0  0  0  0  0  0  0  0  0
  152.2698  137.6117  157.7454 H   0  0  0  0  0  0  0  0  0  0  0  0
  144.2211  132.8506  153.1440 H   0  0  0  0  0  0  0  0  0  0  0  0
  1  2  1  0  0  0  0
  1 30  1  0  0  0  0
  1 31  1  0  0  0  0
  1 32  1  0  0  0  0
  2  3  1  0  0  0  0
  2 12  1  0  0  0  0
  3  4  1  0  0  0  0
  3 33  1  0  0  0  0
  3 34  1  0  0  0  0
  4  5  1  0  0  0  0
  4 35  1  0  0  0  0
  4 36  1  0  0  0  0
  5 10  1  0  0  0  0
  5  6  1  0  0  0  0
  5 37  1  0  0  0  0
  6  7  1  0  0  0  0
  6 38  1  0  0  0  0
  6 39  1  0  0  0  0
  7  8  1  0  0  0  0
  7 40  1  0  0  0  0
  7 41  1  0  0  0  0
  8  9  1  0  0  0  0
  8 42  1  0  0  0  0
  8 43  1  0  0  0  0
  9 10  1  0  0  0  0
  9 44  1  0  0  0  0
  9 45  1  0  0  0  0
 10 11  1  0  0  0  0
 10 64  1  0  0  0  0
 11 46  1  0  0  0  0
 11 47  1  0  0  0  0
 11 48  1  0  0  0  0
 12 17  1  0  0  0  0
 12 13  2  0  0  0  0
 13 14  1  0  0  0  0
 14 15  2  0  0  0  0
 14 49  1  0  0  0  0
 15 16  1  0  0  0  0
 16 20  1  0  0  0  0
 16 17  2  0  0  0  0
 17 18  1  0  0  0  0
 18 19  2  0  0  0  0
 19 20  1  0  0  0  0
 19 50  1  0  0  0  0
 20 21  1  0  0  0  0
 21 22  1  0  0  0  0
 21 51  1  0  0  0  0
 21 52  1  0  0  0  0
 22 29  1  0  0  0  0
 22 23  1  0  0  0  0
 22 25  1  0  0  0  0
 23 24  1  0  0  0  0
 23 53  1  0  0  0  0
 23 54  1  0  0  0  0
 24 55  1  0  0  0  0
 25 26  1  0  0  0  0
 25 56  1  0  0  0  0
 25 57  1  0  0  0  0
 26 27  1  0  0  0  0
 26 58  1  0  0  0  0
 26 59  1  0  0  0  0
 27 28  1  0  0  0  0
 28 29  1  0  0  0  0
 28 60  1  0  0  0  0
 28 61  1  0  0  0  0
 29 62  1  0  0  0  0
 29 63  1  0  0  0  0
M  CHG  1  10   1
M  END
> <s_m_source_file>
AV-unprocessed.smi

> <i_m_source_file_index>
90

> <i_lp_mmshare_version>
43012

> <i_f3d_flags>
0

> <s_epik_input>
W0NIM11OMVtDSDJdW0NIMl1bQ0gyXVtDSDJdW0NASF0xW0NIMl1bQ0gyXU4oW0NIM10pYyhuW2NIXW4yKWMoYzIzKW5bY0hdbjNbQ0gyXUM0KFtDSDJdW09IXSlbQ0gyXVtDSDJdT1tDSDJdW0NIMl00

> <s_epik_cmdline>
J2VwaWtfcHl0aG9uJywgJy1waCcsICc3LjAnLCAnLXRuJywgJzgnLCAnLW1hJywgJzIwMCcsICctbWV0YWxfYmluZGluZycsICctaW1hZScsICc8aW5maWxlLm1hZT4nLCAnLW9tYWUnLCAnPG91dGZpbGUubWFlPic=

> <r_lp_tautomer_probability>
1

> <r_epik_Ionization_Penalty>
0.00234895

> <r_epik_Ionization_Penalty_Charging>
0.00106647

> <r_epik_Ionization_Penalty_Neutral>
0.00128248

> <r_epik_State_Penalty>
-0

> <r_epik_Charging_Adjusted_Penalty>
0.00106647

> <i_epik_Tot_Q>
1

> <i_epik_Tot_abs_Q>
1

> <r_epik_Metal_State_Penalty>
-0

> <b_epik_Metal_Only>
0

> <s_lp_Force_Field>
OPLS_2005

> <r_lp_Energy>
45.3808

> <b_lp_Chiralities_Consistent>
1

> <s_lp_Variant>
AV-unprocessed.smi:90-3

> <Gold.Version>
5.8.1

> <Gold.Id.Protein>
6NUR|6NUR_protein|mol2

> <Gold.PLP.Fitness>
45.7899

> <Gold.PLP.PLP>
-37.8704

> <Gold.PLP.part.hbond>
-3.0000

> <Gold.PLP.part.metal>
0.0000

> <Gold.PLP.part.buried>
-6.0964

> <Gold.PLP.part.nonpolar>
-28.0569

> <Gold.PLP.part.repulsive>
0.1687

> <Gold.PLP.ligand.clash>
0.0000

> <Gold.PLP.ligand.torsion>
1.7699

> <Gold.PLP.Chemscore.Hbond>
3.6232

> <Gold.PLP.Chemscore.CHOScore>
0.0000

> <Gold.PLP.Chemscore.Metal>
0.0000

> <Gold.Chemscore.Hbonds>
donor molecule, donor type, donor heavy atom, donor atom, acceptor molecule, acceptor atom, score
      P1  H  7989  7998       L1    24  0.93
      P1  H 10752 10765       L1    18  0.89

> <Gold.PLP.Chemscore.Internal.Correction>
0.5897

> <Gold.Rescore>
     Score         DG    S(hbond)    S(metal)    S(lipo)     H(rot)  DE(clash)    DE(int)     intcor
      9.80     -14.88       1.79        0.00      89.12       2.73       0.17       4.90       ----

> <Gold.Chemscore.Fitness>
9.8034

> <Gold.Chemscore.DG>
-14.8772

> <Gold.Chemscore.ZeroCoef>
-5.4800

> <Gold.Chemscore.Hbond>
1.7876

> <Gold.Chemscore.Metal>
0.0000

> <Gold.Chemscore.Lipo>
89.1229

> <Gold.Chemscore.Internal_Hbond>
0.0000

> <Gold.Chemscore.DEClash>
0.1736

> <Gold.Chemscore.DEInternal>
4.9002

> <Gold.Chemscore.Rot>
2.7347

> <Gold.Chemscore.Internal.Correction>
   9.000000E+99

> <Gold.Chemscore.Hbonds>
donor molecule, donor type, donor heavy atom, donor atom, acceptor molecule, acceptor atom, score
      L1  H    10    64       P1 10957  0.01
      P1  H  7989  7998       L1    24  0.36
      P1  H 10752 10765       L1    18  0.16

> <Gold.Chemscore.Hbond.Weighted>
-5.9707

> <Gold.Chemscore.Metal.Weighted>
-0.0000

> <Gold.Chemscore.Lipo.Weighted>
-10.4274

> <Gold.Chemscore.Internal_Hbond.Weighted>
0.0000

> <Gold.Chemscore.DEClash.Weighted>
0.1736

> <Gold.Chemscore.DEInternal.Weighted>
4.9002

> <Gold.Chemscore.Rot.Weighted>
7.0009

> <Gold.Chemscore.Internal.Correction.Weighted>
   9.000000E+99

> <Gold.Protein.RotatedTorsions>
[ 6907 6896 6895 6894 ] final  -70.77 input  -60.11 | X-H torsion
[ 7974 7965 7964 7962 ] final  -69.47 input  175.53 | X-H torsion
[ 8008 7997 7996 7995 ] final   25.87 input   59.86 | X-H torsion
[ 10167 10162 10161 10158 ] final   20.74 input  -65.29 | X-H torsion
[ 10718 10713 10712 10709 ] final  142.45 input   66.30 | X-H torsion
[ 10763 10752 10751 10750 ] final  172.92 input  -60.55 | X-H torsion
[ 11005 11000 10999 10996 ] final   23.12 input  -57.11 | X-H torsion

> <Gold.Protein.ActiveResidues>
 VAL166  LYS551  ARG553  GLY616  TRP617  ASP618  TYR619  PRO620  LYS621  CYS622 
 ASP623  PHE694  ASN695  SER759  ASP760  ASP761  ALA762  ILE779  LEU786  VAL792 
 PHE793  MET794  SER795  GLU796  ALA797  LYS798  CYS799  TRP800  GLU811  SER814 

> <Gold.Protein.RotatedAtoms>
  150.7242  134.5405  159.5744 H   0  0  0  0  0  0  0  0  0  0  0  0  # atno 6907 bound_to 6896
  152.2917  134.7711  160.0385 H   0  0  0  0  0  0  0  0  0  0  0  0  # atno 6908 bound_to 6896
  151.8322  133.3375  159.3653 H   0  0  0  0  0  0  0  0  0  0  0  0  # atno 6909 bound_to 6896
  145.7034  140.9107  143.0719 H   0  0  0  0  0  0  0  0  0  0  0  0  # atno 7974 bound_to 7965
  155.0185  140.3145  155.4802 H   0  0  0  0  0  0  0  0  0  0  0  0  # atno 8008 bound_to 7997
  156.2896  140.2202  156.5244 H   0  0  0  0  0  0  0  0  0  0  0  0  # atno 8009 bound_to 7997
  154.7473  140.0469  157.0851 H   0  0  0  0  0  0  0  0  0  0  0  0  # atno 8010 bound_to 7997
  140.5480  143.9559  150.6560 H   0  0  0  0  0  0  0  0  0  0  0  0  # atno 10167 bound_to 10162
  157.3804  131.0991  151.0744 H   0  0  0  0  0  0  0  0  0  0  0  0  # atno 10718 bound_to 10713
  154.4328  135.2760  155.1900 H   0  0  0  0  0  0  0  0  0  0  0  0  # atno 10763 bound_to 10752
  154.3799  135.6090  153.5789 H   0  0  0  0  0  0  0  0  0  0  0  0  # atno 10764 bound_to 10752
  152.9837  135.5878  154.4643 H   0  0  0  0  0  0  0  0  0  0  0  0  # atno 10765 bound_to 10752
  140.3731  134.2001  155.7666 H   0  0  0  0  0  0  0  0  0  0  0  0  # atno 11005 bound_to 11000
  144.6962  139.8978  143.7457 LP  0  0  0  0  0  0  0  0  0  0  0  0  # atno 17320 bound_to 7965
  146.0777  139.3765  143.0483 LP  0  0  0  0  0  0  0  0  0  0  0  0  # atno 17321 bound_to 7965
  140.2977  143.3281  152.1001 LP  0  0  0  0  0  0  0  0  0  0  0  0  # atno 17342 bound_to 10162
  139.5015  144.6716  151.6229 LP  0  0  0  0  0  0  0  0  0  0  0  0  # atno 17343 bound_to 10162
  157.1815  130.6311  149.5673 LP  0  0  0  0  0  0  0  0  0  0  0  0  # atno 17370 bound_to 10713
  155.9774  130.4752  150.6594 LP  0  0  0  0  0  0  0  0  0  0  0  0  # atno 17371 bound_to 10713
  141.1948  133.8120  157.0741 LP  0  0  0  0  0  0  0  0  0  0  0  0  # atno 17394 bound_to 11000
  140.0536  134.9792  157.1181 LP  0  0  0  0  0  0  0  0  0  0  0  0  # atno 17395 bound_to 11000

$$$$
