AV-unprocessed.smi:1748|AV-procd|sdf|7043|dock6
  -GOLD-   22720 8263D 1   1.00000     0.00000
 Structure written by MMmdl.
 39 40  0  0  0  0  0  0  0  0  3 V2000
  142.4630  134.5442  152.5989 C   0  0  0  0  0  0  0  0  0  0  0  0
  143.6513  134.1358  151.8193 N   0  3  2  0  0  0  0  0  0  0  0  0
  143.5160  132.7676  151.2598 C   0  0  0  0  0  0  0  0  0  0  0  0
  144.7081  132.4228  150.3518 C   0  0  0  0  0  0  0  0  0  0  0  0
  146.0382  132.5857  151.1009 C   0  0  0  0  0  0  0  0  0  0  0  0
  146.1411  133.9993  151.6968 C   0  0  2  0  0  0  0  0  0  0  0  0
  147.3780  134.1293  152.4614 N   0  0  0  0  0  0  0  0  0  0  0  0
  147.7813  133.2886  153.4252 C   0  0  0  0  0  0  0  0  0  0  0  0
  147.1356  132.2968  153.7639 O   0  0  0  0  0  0  0  0  0  0  0  0
  148.9690  133.6688  153.9294 N   0  0  0  0  0  0  0  0  0  0  0  0
  149.7215  133.0882  154.9644 C   0  0  0  0  0  0  0  0  0  0  0  0
  150.3614  131.8889  154.8791 C   0  0  0  0  0  0  0  0  0  0  0  0
  151.1131  131.3267  155.9947 C   0  0  0  0  0  0  0  0  0  0  0  0
  151.8461  129.9984  155.9514 C   0  0  0  0  0  0  0  0  0  0  0  0
  153.1389  130.1771  156.2203 F   0  0  0  0  0  0  0  0  0  0  0  0
  151.3468  129.1663  156.8650 F   0  0  0  0  0  0  0  0  0  0  0  0
  151.7405  129.4217  154.7543 F   0  0  0  0  0  0  0  0  0  0  0  0
  151.0791  132.1360  157.1126 C   0  0  0  0  0  0  0  0  0  0  0  0
  150.4647  133.3272  157.2825 N   0  5  0  0  0  0  0  0  0  0  0  0
  149.7685  133.8467  156.2320 C   0  0  0  0  0  0  0  0  0  0  0  0
  149.1835  134.9272  156.3175 O   0  0  0  0  0  0  0  0  0  0  0  0
  144.9134  134.3023  152.5823 C   0  0  0  0  0  0  0  0  0  0  0  0
  142.3319  133.9074  153.4748 H   0  0  0  0  0  0  0  0  0  0  0  0
  141.5611  134.4782  151.9895 H   0  0  0  0  0  0  0  0  0  0  0  0
  142.5601  135.5764  152.9368 H   0  0  0  0  0  0  0  0  0  0  0  0
  143.4423  132.0451  152.0743 H   0  0  0  0  0  0  0  0  0  0  0  0
  142.5904  132.6959  150.6872 H   0  0  0  0  0  0  0  0  0  0  0  0
  144.6118  131.4014  149.9822 H   0  0  0  0  0  0  0  0  0  0  0  0
  144.6996  133.0711  149.4745 H   0  0  0  0  0  0  0  0  0  0  0  0
  146.1043  131.8391  151.8938 H   0  0  0  0  0  0  0  0  0  0  0  0
  146.8720  132.3974  150.4234 H   0  0  0  0  0  0  0  0  0  0  0  0
  146.1652  134.7128  150.8705 H   0  0  0  0  0  0  0  0  0  0  0  0
  147.9694  134.9184  152.2445 H   0  0  0  0  0  0  0  0  0  0  0  0
  149.4144  134.4606  153.4891 H   0  0  0  0  0  0  0  0  0  0  0  0
  150.3111  131.3021  153.9769 H   0  0  0  0  0  0  0  0  0  0  0  0
  151.6291  131.7675  158.0050 H   0  0  0  0  0  0  0  0  0  0  0  0
  144.9699  135.3253  152.9570 H   0  0  0  0  0  0  0  0  0  0  0  0
  144.9011  133.6462  153.4546 H   0  0  0  0  0  0  0  0  0  0  0  0
  143.7077  134.7664  151.0321 H   0  0  0  0  0  0  0  0  0  0  0  0
  1  2  1  0  0  0  0
  1 23  1  0  0  0  0
  1 24  1  0  0  0  0
  1 25  1  0  0  0  0
  2 22  1  0  0  0  0
  2  3  1  0  0  0  0
  2 39  1  0  0  0  0
  3  4  1  0  0  0  0
  3 26  1  0  0  0  0
  3 27  1  0  0  0  0
  4  5  1  0  0  0  0
  4 28  1  0  0  0  0
  4 29  1  0  0  0  0
  5  6  1  0  0  0  0
  5 30  1  0  0  0  0
  5 31  1  0  0  0  0
  6  7  1  0  0  0  0
  6 22  1  0  0  0  0
  6 32  1  0  0  0  0
  7  8  1  0  0  0  0
  7 33  1  0  0  0  0
  8  9  2  0  0  0  0
  8 10  1  0  0  0  0
 10 11  1  0  0  0  0
 10 34  1  0  0  0  0
 11 20  1  0  0  0  0
 11 12  2  0  0  0  0
 12 13  1  0  0  0  0
 12 35  1  0  0  0  0
 13 14  1  0  0  0  0
 13 18  2  0  0  0  0
 14 15  1  0  0  0  0
 14 16  1  0  0  0  0
 14 17  1  0  0  0  0
 18 19  1  0  0  0  0
 18 36  1  0  0  0  0
 19 20  1  0  0  0  0
 20 21  2  0  0  0  0
 22 37  1  0  0  0  0
 22 38  1  0  0  0  0
M  CHG  1   2   1
M  CHG  1  19  -1
M  END
> <s_m_source_file>
AV-unprocessed.smi

> <i_m_source_file_index>
1748

> <i_lp_mmshare_version>
43012

> <i_f3d_flags>
0

> <s_epik_input>
W0NIM11OMVtDSDJdW0NIMl1bQ0gyXVtDQEhdKFtDSDJdMSlbTkhdQyg9TylbTkhdYzJbY0hdYyhDKEYpKEYpRilbY0hdW25IXWMyPU8=

> <s_epik_cmdline>
J2VwaWtfcHl0aG9uJywgJy1waCcsICc3LjAnLCAnLXRuJywgJzgnLCAnLW1hJywgJzIwMCcsICctbWV0YWxfYmluZGluZycsICctaW1hZScsICc8aW5maWxlLm1hZT4nLCAnLW9tYWUnLCAnPG91dGZpbGUubWFlPic=

> <r_lp_tautomer_probability>
1

> <r_epik_Ionization_Penalty>
3.00907

> <r_epik_Ionization_Penalty_Charging>
0.148702

> <r_epik_Ionization_Penalty_Neutral>
2.86036

> <r_epik_State_Penalty>
2.85557

> <r_epik_Charging_Adjusted_Penalty>
3.00428

> <i_epik_Tot_Q>
0

> <i_epik_Tot_abs_Q>
2

> <r_epik_Metal_State_Penalty>
0.443779

> <b_epik_Metal_Only>
1

> <s_lp_Force_Field>
OPLS_2005

> <r_lp_Energy>
26.5131

> <b_lp_Chiralities_Consistent>
1

> <s_lp_Variant>
AV-unprocessed.smi:1748-8

> <Gold.Version>
5.8.1

> <Gold.Id.Protein>
6NUR|6NUR_protein|mol2

> <Gold.PLP.Fitness>
40.8063

> <Gold.PLP.PLP>
-33.2810

> <Gold.PLP.part.hbond>
-2.2811

> <Gold.PLP.part.metal>
0.0000

> <Gold.PLP.part.buried>
-5.8707

> <Gold.PLP.part.nonpolar>
-25.4630

> <Gold.PLP.part.repulsive>
0.1127

> <Gold.PLP.ligand.clash>
0.0000

> <Gold.PLP.ligand.torsion>
0.7563

> <Gold.PLP.Chemscore.Hbond>
3.0110

> <Gold.PLP.Chemscore.CHOScore>
0.0000

> <Gold.PLP.Chemscore.Metal>
0.0000

> <Gold.Chemscore.Hbonds>
donor molecule, donor type, donor heavy atom, donor atom, acceptor molecule, acceptor atom, score
      L1  H     7    33       P1  7948  1.00
      L1  H    10    34       P1  7948  0.03
      P1  H  6896  6909       L1    19  1.76

> <Gold.PLP.Chemscore.Internal.Correction>
0.0048

> <Gold.Rescore>
     Score         DG    S(hbond)    S(metal)    S(lipo)     H(rot)  DE(clash)    DE(int)     intcor
     14.34     -16.34       1.87        0.00      61.38       1.00       0.04       1.97       ----

> <Gold.Chemscore.Fitness>
14.3389

> <Gold.Chemscore.DG>
-16.3425

> <Gold.Chemscore.ZeroCoef>
-5.4800

> <Gold.Chemscore.Hbond>
1.8687

> <Gold.Chemscore.Metal>
0.0000

> <Gold.Chemscore.Lipo>
61.3767

> <Gold.Chemscore.Internal_Hbond>
0.0000

> <Gold.Chemscore.DEClash>
0.0369

> <Gold.Chemscore.DEInternal>
1.9668

> <Gold.Chemscore.Rot>
1.0000

> <Gold.Chemscore.Internal.Correction>
   9.000000E+99

> <Gold.Chemscore.Hbonds>
donor molecule, donor type, donor heavy atom, donor atom, acceptor molecule, acceptor atom, score
      L1  H     7    33       P1  7948  0.70
      P1  H  6896  6909       L1    19  0.16

> <Gold.Chemscore.Hbond.Weighted>
-6.2415

> <Gold.Chemscore.Metal.Weighted>
-0.0000

> <Gold.Chemscore.Lipo.Weighted>
-7.1811

> <Gold.Chemscore.Internal_Hbond.Weighted>
0.0000

> <Gold.Chemscore.DEClash.Weighted>
0.0369

> <Gold.Chemscore.DEInternal.Weighted>
1.9668

> <Gold.Chemscore.Rot.Weighted>
2.5600

> <Gold.Chemscore.Internal.Correction.Weighted>
   9.000000E+99

> <Gold.Protein.RotatedTorsions>
[ 6907 6896 6895 6894 ] final  -12.87 input  -60.11 | X-H torsion
[ 7974 7965 7964 7962 ] final   65.84 input  175.53 | X-H torsion
[ 8008 7997 7996 7995 ] final  -33.90 input   59.86 | X-H torsion
[ 10167 10162 10161 10158 ] final   55.78 input  -65.29 | X-H torsion
[ 10718 10713 10712 10709 ] final   -6.96 input   66.30 | X-H torsion
[ 10763 10752 10751 10750 ] final   39.70 input  -60.55 | X-H torsion
[ 11005 11000 10999 10996 ] final  -84.89 input  -57.11 | X-H torsion

> <Gold.Protein.ActiveResidues>
 VAL166  LYS551  ARG553  GLY616  TRP617  ASP618  TYR619  PRO620  LYS621  CYS622 
 ASP623  PHE694  ASN695  SER759  ASP760  ASP761  ALA762  ILE779  LEU786  VAL792 
 PHE793  MET794  SER795  GLU796  ALA797  LYS798  CYS799  TRP800  GLU811  SER814 

> <Gold.Protein.RotatedAtoms>
  151.3637  135.0909  159.9442 H   0  0  0  0  0  0  0  0  0  0  0  0  # atno 6907 bound_to 6896
  152.5155  133.9233  159.7555 H   0  0  0  0  0  0  0  0  0  0  0  0  # atno 6908 bound_to 6896
  150.9632  133.6368  159.2780 H   0  0  0  0  0  0  0  0  0  0  0  0  # atno 6909 bound_to 6896
  145.8337  139.3154  143.0972 H   0  0  0  0  0  0  0  0  0  0  0  0  # atno 7974 bound_to 7965
  154.4135  140.1698  156.1963 H   0  0  0  0  0  0  0  0  0  0  0  0  # atno 8008 bound_to 7997
  155.9561  140.3397  155.6426 H   0  0  0  0  0  0  0  0  0  0  0  0  # atno 8009 bound_to 7997
  155.6808  140.0722  157.2476 H   0  0  0  0  0  0  0  0  0  0  0  0  # atno 8010 bound_to 7997
  140.2158  144.3841  150.6470 H   0  0  0  0  0  0  0  0  0  0  0  0  # atno 10167 bound_to 10162
  156.7243  130.5160  149.5860 H   0  0  0  0  0  0  0  0  0  0  0  0  # atno 10718 bound_to 10713
  152.9959  135.6213  154.2508 H   0  0  0  0  0  0  0  0  0  0  0  0  # atno 10763 bound_to 10752
  154.2246  135.2794  155.2914 H   0  0  0  0  0  0  0  0  0  0  0  0  # atno 10764 bound_to 10752
  154.5500  135.5736  153.6972 H   0  0  0  0  0  0  0  0  0  0  0  0  # atno 10765 bound_to 10752
  141.1646  133.7370  156.8935 H   0  0  0  0  0  0  0  0  0  0  0  0  # atno 11005 bound_to 11000
  145.9543  140.8885  143.0243 LP  0  0  0  0  0  0  0  0  0  0  0  0  # atno 17320 bound_to 7965
  144.6738  140.1723  143.7413 LP  0  0  0  0  0  0  0  0  0  0  0  0  # atno 17321 bound_to 7965
  140.6291  143.2185  151.6534 LP  0  0  0  0  0  0  0  0  0  0  0  0  # atno 17342 bound_to 10162
  139.5163  144.3352  152.0790 LP  0  0  0  0  0  0  0  0  0  0  0  0  # atno 17343 bound_to 10162
  156.1573  130.6350  151.0673 LP  0  0  0  0  0  0  0  0  0  0  0  0  # atno 17370 bound_to 10713
  157.6885  131.0817  150.7174 LP  0  0  0  0  0  0  0  0  0  0  0  0  # atno 17371 bound_to 10713
  140.1632  134.9151  157.2741 LP  0  0  0  0  0  0  0  0  0  0  0  0  # atno 17394 bound_to 11000
  140.2587  134.3597  155.7414 LP  0  0  0  0  0  0  0  0  0  0  0  0  # atno 17395 bound_to 11000

$$$$
