AV-unprocessed.smi:747|AV-procd|sdf|3581|dock9
  -GOLD-   22720 0573D 1   1.00000     0.00000
 Structure written by MMmdl.
 48 49  0  0  0  0  0  0  0  0  1 V2000
  147.5867  135.2152  162.9046 C   0  0  0  0  0  0  0  0  0  0  0  0
  147.7528  134.8357  161.5172 N   0  0  0  0  0  0  0  0  0  0  0  0
  147.7635  133.4626  161.1708 C   0  0  0  0  0  0  0  0  0  0  0  0
  147.6420  132.5649  162.0048 O   0  0  0  0  0  0  0  0  0  0  0  0
  147.9297  133.2020  159.7456 C   0  0  0  0  0  0  0  0  0  0  0  0
  148.0576  134.2174  158.8636 C   0  0  0  0  0  0  0  0  0  0  0  0
  148.0429  135.5510  159.2297 N   0  0  0  0  0  0  0  0  0  0  0  0
  148.1667  136.5922  158.2026 C   0  0  0  0  0  0  0  0  0  0  0  0
  149.5002  137.3407  158.3043 C   0  0  0  0  0  0  0  0  0  0  0  0
  150.2770  137.0990  159.2285 O   0  0  0  0  0  0  0  0  0  0  0  0
  149.7421  138.2498  157.3467 N   0  0  0  0  0  0  0  0  0  0  0  0
  150.9732  139.0313  157.1868 C   0  0  1  0  0  0  0  0  0  0  0  0
  151.3112  139.1474  155.6754 C   0  0  0  0  0  0  0  0  0  0  0  0
  150.9891  137.8898  154.8552 C   0  0  0  0  0  0  0  0  0  0  0  0
  150.1225  138.0243  153.8484 N   0  0  0  0  0  0  0  0  0  0  0  0
  151.5163  136.8124  155.1241 O   0  0  0  0  0  0  0  0  0  0  0  0
  150.8201  140.4087  157.8944 C   0  0  0  0  0  0  0  0  0  0  0  0
  150.1312  141.4650  156.9954 C   0  0  0  0  0  0  0  0  0  0  0  0
  149.9970  142.8296  157.6905 C   0  0  0  0  0  0  0  0  0  0  0  0
  151.3582  143.3531  158.1643 C   0  0  0  0  0  0  0  0  0  0  0  0
  152.0408  142.3306  159.0807 C   0  0  0  0  0  0  0  0  0  0  0  0
  152.1807  140.9663  158.3869 C   0  0  0  0  0  0  0  0  0  0  0  0
  147.8880  135.8923  160.5907 C   0  0  0  0  0  0  0  0  0  0  0  0
  147.8713  137.0736  160.9472 O   0  0  0  0  0  0  0  0  0  0  0  0
  147.5091  134.3411  163.5501 H   0  0  0  0  0  0  0  0  0  0  0  0
  146.6715  135.8065  162.9690 H   0  0  0  0  0  0  0  0  0  0  0  0
  148.4618  135.8036  163.1863 H   0  0  0  0  0  0  0  0  0  0  0  0
  147.9479  132.1817  159.3916 H   0  0  0  0  0  0  0  0  0  0  0  0
  148.1728  133.9713  157.8180 H   0  0  0  0  0  0  0  0  0  0  0  0
  148.0493  136.1537  157.2096 H   0  0  0  0  0  0  0  0  0  0  0  0
  147.3593  137.3188  158.3023 H   0  0  0  0  0  0  0  0  0  0  0  0
  149.0324  138.3819  156.6408 H   0  0  0  0  0  0  0  0  0  0  0  0
  151.8027  138.5123  157.6710 H   0  0  0  0  0  0  0  0  0  0  0  0
  150.7905  140.0058  155.2479 H   0  0  0  0  0  0  0  0  0  0  0  0
  152.3751  139.3318  155.5349 H   0  0  0  0  0  0  0  0  0  0  0  0
  149.8848  137.2286  153.2746 H   0  0  0  0  0  0  0  0  0  0  0  0
  149.7134  138.9282  153.6597 H   0  0  0  0  0  0  0  0  0  0  0  0
  150.1894  140.2619  158.7728 H   0  0  0  0  0  0  0  0  0  0  0  0
  150.6944  141.5826  156.0687 H   0  0  0  0  0  0  0  0  0  0  0  0
  149.1320  141.1389  156.7108 H   0  0  0  0  0  0  0  0  0  0  0  0
  149.5404  143.5489  157.0101 H   0  0  0  0  0  0  0  0  0  0  0  0
  149.3223  142.7400  158.5429 H   0  0  0  0  0  0  0  0  0  0  0  0
  151.9942  143.5578  157.3022 H   0  0  0  0  0  0  0  0  0  0  0  0
  151.2314  144.2998  158.6899 H   0  0  0  0  0  0  0  0  0  0  0  0
  153.0236  142.6975  159.3781 H   0  0  0  0  0  0  0  0  0  0  0  0
  151.4622  142.2166  159.9983 H   0  0  0  0  0  0  0  0  0  0  0  0
  152.6520  140.2778  159.0880 H   0  0  0  0  0  0  0  0  0  0  0  0
  152.8650  141.0577  157.5422 H   0  0  0  0  0  0  0  0  0  0  0  0
  1  2  1  0  0  0  0
  1 25  1  0  0  0  0
  1 26  1  0  0  0  0
  1 27  1  0  0  0  0
  2 23  1  0  0  0  0
  2  3  1  0  0  0  0
  3  4  2  0  0  0  0
  3  5  1  0  0  0  0
  5  6  2  0  0  0  0
  5 28  1  0  0  0  0
  6  7  1  0  0  0  0
  6 29  1  0  0  0  0
  7  8  1  0  0  0  0
  7 23  1  0  0  0  0
  8  9  1  0  0  0  0
  8 30  1  0  0  0  0
  8 31  1  0  0  0  0
  9 10  2  0  0  0  0
  9 11  1  0  0  0  0
 11 12  1  0  0  0  0
 11 32  1  0  0  0  0
 12 13  1  0  0  0  0
 12 17  1  0  0  0  0
 12 33  1  0  0  0  0
 13 14  1  0  0  0  0
 13 34  1  0  0  0  0
 13 35  1  0  0  0  0
 14 15  1  0  0  0  0
 14 16  2  0  0  0  0
 15 36  1  0  0  0  0
 15 37  1  0  0  0  0
 17 22  1  0  0  0  0
 17 18  1  0  0  0  0
 17 38  1  0  0  0  0
 18 19  1  0  0  0  0
 18 39  1  0  0  0  0
 18 40  1  0  0  0  0
 19 20  1  0  0  0  0
 19 41  1  0  0  0  0
 19 42  1  0  0  0  0
 20 21  1  0  0  0  0
 20 43  1  0  0  0  0
 20 44  1  0  0  0  0
 21 22  1  0  0  0  0
 21 45  1  0  0  0  0
 21 46  1  0  0  0  0
 22 47  1  0  0  0  0
 22 48  1  0  0  0  0
 23 24  2  0  0  0  0
M  END
> <s_m_source_file>
AV-unprocessed.smi

> <i_m_source_file_index>
747

> <i_lp_mmshare_version>
43012

> <i_f3d_flags>
0

> <s_epik_input>
W0NIM11uMWMoPU8pW2NIXVtjSF1uKGMxPU8pW0NIMl1DKD1PKVtOSF1bQ0BIXShbQ0gyXUMoPU8pW05IMl0pW0NIXTJbQ0gyXVtDSDJdW0NIMl1bQ0gyXVtDSDJdMg==

> <s_epik_cmdline>
J2VwaWtfcHl0aG9uJywgJy1waCcsICc3LjAnLCAnLXRuJywgJzgnLCAnLW1hJywgJzIwMCcsICctbWV0YWxfYmluZGluZycsICctaW1hZScsICc8aW5maWxlLm1hZT4nLCAnLW9tYWUnLCAnPG91dGZpbGUubWFlPic=

> <r_lp_tautomer_probability>
1

> <r_epik_Ionization_Penalty>
6.11221e-08

> <r_epik_Ionization_Penalty_Charging>
1.14855e-08

> <r_epik_Ionization_Penalty_Neutral>
4.96365e-08

> <r_epik_State_Penalty>
-0

> <r_epik_Charging_Adjusted_Penalty>
1.14855e-08

> <i_epik_Tot_Q>
0

> <i_epik_Tot_abs_Q>
0

> <r_epik_Metal_State_Penalty>
-0

> <b_epik_Metal_Only>
0

> <s_lp_Force_Field>
OPLS_2005

> <r_lp_Energy>
16.3445

> <b_lp_Chiralities_Consistent>
1

> <s_lp_Variant>
AV-unprocessed.smi:747-2

> <Gold.Version>
5.8.1

> <Gold.Id.Protein>
6NUR|6NUR_protein|mol2

> <Gold.PLP.Fitness>
52.1433

> <Gold.PLP.PLP>
-41.1322

> <Gold.PLP.part.hbond>
-4.9701

> <Gold.PLP.part.metal>
0.0000

> <Gold.PLP.part.buried>
-6.6597

> <Gold.PLP.part.nonpolar>
-30.6528

> <Gold.PLP.part.repulsive>
0.2078

> <Gold.PLP.ligand.clash>
0.0000

> <Gold.PLP.ligand.torsion>
1.2222

> <Gold.PLP.Chemscore.Hbond>
4.4518

> <Gold.PLP.Chemscore.CHOScore>
0.0000

> <Gold.PLP.Chemscore.Metal>
0.0000

> <Gold.Chemscore.Hbonds>
donor molecule, donor type, donor heavy atom, donor atom, acceptor molecule, acceptor atom, score
      L1  H    15    36       P1  7948  1.00
      P1  H  6896  6908       L1    10  0.39
      P1  H  6931  6943       L1    24  0.96
      P1  H  6934  6947       L1    24  0.77
      P1  H 10752 10763       L1    16  1.00

> <Gold.PLP.Chemscore.Internal.Correction>
0.1003

> <Gold.Rescore>
     Score         DG    S(hbond)    S(metal)    S(lipo)     H(rot)  DE(clash)    DE(int)     intcor
     19.18     -20.25       4.22        0.00      69.43       2.91       0.16       0.91       ----

> <Gold.Chemscore.Fitness>
19.1802

> <Gold.Chemscore.DG>
-20.2474

> <Gold.Chemscore.ZeroCoef>
-5.4800

> <Gold.Chemscore.Hbond>
4.2212

> <Gold.Chemscore.Metal>
0.0000

> <Gold.Chemscore.Lipo>
69.4343

> <Gold.Chemscore.Internal_Hbond>
0.0000

> <Gold.Chemscore.DEClash>
0.1560

> <Gold.Chemscore.DEInternal>
0.9112

> <Gold.Chemscore.Rot>
2.9122

> <Gold.Chemscore.Internal.Correction>
   9.000000E+99

> <Gold.Chemscore.Hbonds>
donor molecule, donor type, donor heavy atom, donor atom, acceptor molecule, acceptor atom, score
      L1  H    15    36       P1  7948  0.39
      P1  H  6896  6908       L1    10  0.39
      P1  H  6931  6943       L1    24  0.92
      P1  H  6934  6947       L1    24  0.72
      P1  H 10752 10763       L1    16  0.92

> <Gold.Chemscore.Hbond.Weighted>
-14.0989

> <Gold.Chemscore.Metal.Weighted>
-0.0000

> <Gold.Chemscore.Lipo.Weighted>
-8.1238

> <Gold.Chemscore.Internal_Hbond.Weighted>
0.0000

> <Gold.Chemscore.DEClash.Weighted>
0.1560

> <Gold.Chemscore.DEInternal.Weighted>
0.9112

> <Gold.Chemscore.Rot.Weighted>
7.4553

> <Gold.Chemscore.Internal.Correction.Weighted>
   9.000000E+99

> <Gold.Protein.RotatedTorsions>
[ 6907 6896 6895 6894 ] final -151.95 input  -60.11 | X-H torsion
[ 7974 7965 7964 7962 ] final   74.40 input  175.53 | X-H torsion
[ 8008 7997 7996 7995 ] final   47.15 input   59.86 | X-H torsion
[ 10167 10162 10161 10158 ] final  -63.05 input  -65.29 | X-H torsion
[ 10718 10713 10712 10709 ] final   64.62 input   66.30 | X-H torsion
[ 10763 10752 10751 10750 ] final   42.15 input  -60.55 | X-H torsion
[ 11005 11000 10999 10996 ] final  -24.00 input  -57.11 | X-H torsion

> <Gold.Protein.ActiveResidues>
 VAL166  LYS551  ARG553  GLY616  TRP617  ASP618  TYR619  PRO620  LYS621  CYS622 
 ASP623  PHE694  ASN695  SER759  ASP760  ASP761  ALA762  ILE779  LEU786  VAL792 
 PHE793  MET794  SER795  GLU796  ALA797  LYS798  CYS799  TRP800  GLU811  SER814 

> <Gold.Protein.RotatedAtoms>
  151.2206  133.4504  159.2600 H   0  0  0  0  0  0  0  0  0  0  0  0  # atno 6907 bound_to 6896
  151.0888  134.9904  159.8403 H   0  0  0  0  0  0  0  0  0  0  0  0  # atno 6908 bound_to 6896
  152.5432  134.2141  159.8814 H   0  0  0  0  0  0  0  0  0  0  0  0  # atno 6909 bound_to 6896
  145.7288  139.2676  143.1553 H   0  0  0  0  0  0  0  0  0  0  0  0  # atno 7974 bound_to 7965
  155.3643  140.3420  155.4241 H   0  0  0  0  0  0  0  0  0  0  0  0  # atno 8008 bound_to 7997
  156.1697  140.1627  156.8504 H   0  0  0  0  0  0  0  0  0  0  0  0  # atno 8009 bound_to 7997
  154.5220  140.0765  156.8172 H   0  0  0  0  0  0  0  0  0  0  0  0  # atno 8010 bound_to 7997
  140.5897  143.2339  151.6166 H   0  0  0  0  0  0  0  0  0  0  0  0  # atno 10167 bound_to 10162
  157.6051  130.9169  149.9869 H   0  0  0  0  0  0  0  0  0  0  0  0  # atno 10718 bound_to 10713
  152.9890  135.6140  154.2902 H   0  0  0  0  0  0  0  0  0  0  0  0  # atno 10763 bound_to 10752
  154.2628  135.2782  155.2773 H   0  0  0  0  0  0  0  0  0  0  0  0  # atno 10764 bound_to 10752
  154.5191  135.5820  153.6723 H   0  0  0  0  0  0  0  0  0  0  0  0  # atno 10765 bound_to 10752
  140.8805  133.7657  156.0296 H   0  0  0  0  0  0  0  0  0  0  0  0  # atno 11005 bound_to 11000
  146.0557  140.8023  142.9759 LP  0  0  0  0  0  0  0  0  0  0  0  0  # atno 17320 bound_to 7965
  144.6898  140.3120  143.7246 LP  0  0  0  0  0  0  0  0  0  0  0  0  # atno 17321 bound_to 7965
  139.5220  144.3177  152.0938 LP  0  0  0  0  0  0  0  0  0  0  0  0  # atno 17342 bound_to 10162
  140.2339  144.4340  150.6288 LP  0  0  0  0  0  0  0  0  0  0  0  0  # atno 17343 bound_to 10162
  156.1135  130.3649  150.0007 LP  0  0  0  0  0  0  0  0  0  0  0  0  # atno 17370 bound_to 10713
  156.8101  130.9322  151.3644 LP  0  0  0  0  0  0  0  0  0  0  0  0  # atno 17371 bound_to 10713
  140.8467  134.3002  157.5292 LP  0  0  0  0  0  0  0  0  0  0  0  0  # atno 17394 bound_to 11000
  139.8719  134.9446  156.3885 LP  0  0  0  0  0  0  0  0  0  0  0  0  # atno 17395 bound_to 11000

$$$$
