AV-unprocessed.smi:2900|AV-procd|sdf|11148|dock2
  -GOLD-   2272016 23D 1   1.00000     0.00000
 Structure written by MMmdl.
 35 36  0  0  0  0  0  0  0  0  1 V2000
  152.3988  138.8286  158.6033 O   0  0  0  0  0  0  0  0  0  0  0  0
  152.3261  140.0474  158.7561 C   0  0  0  0  0  0  0  0  0  0  0  0
  153.2529  140.8066  159.5920 C   0  0  0  0  0  0  0  0  0  0  0  0
  153.1406  142.1435  159.7436 C   0  0  0  0  0  0  0  0  0  0  0  0
  152.0706  142.8535  159.0634 C   0  0  0  0  0  0  0  0  0  0  0  0
  151.8604  144.3439  159.1681 C   0  0  0  0  0  0  0  0  0  0  0  0
  150.6559  144.6921  158.7147 F   0  0  0  0  0  0  0  0  0  0  0  0
  151.9623  144.7315  160.4399 F   0  0  0  0  0  0  0  0  0  0  0  0
  152.7841  144.9886  158.4544 F   0  0  0  0  0  0  0  0  0  0  0  0
  151.2456  142.1862  158.3228 N   0  0  0  0  0  0  0  0  0  0  0  0
  151.3708  140.8170  158.1577 N   0  0  0  0  0  0  0  0  0  0  0  0
  150.3620  140.2241  157.2699 C   0  0  0  0  0  0  0  0  0  0  0  0
  150.3222  140.8870  155.8743 C   0  0  1  0  0  0  0  0  0  0  0  0
  151.2905  140.2368  155.0767 O   0  0  0  0  0  0  0  0  0  0  0  0
  148.9578  140.7623  155.1729 C   0  0  0  0  0  0  0  0  0  0  0  0
  147.9535  141.2931  156.0269 O   0  0  0  0  0  0  0  0  0  0  0  0
  146.9702  142.0802  155.4669 C   0  0  0  0  0  0  0  0  0  0  0  0
  145.9876  142.5925  156.3393 C   0  0  0  0  0  0  0  0  0  0  0  0
  144.9452  143.4057  155.8541 C   0  0  0  0  0  0  0  0  0  0  0  0
  144.8744  143.7153  154.4835 C   0  0  0  0  0  0  0  0  0  0  0  0
  145.8475  143.2104  153.6014 C   0  0  0  0  0  0  0  0  0  0  0  0
  146.8907  142.3977  154.0868 C   0  0  0  0  0  0  0  0  0  0  0  0
  154.0493  140.2829  160.1000 H   0  0  0  0  0  0  0  0  0  0  0  0
  153.8381  142.6837  160.3661 H   0  0  0  0  0  0  0  0  0  0  0  0
  150.5637  139.1560  157.1677 H   0  0  0  0  0  0  0  0  0  0  0  0
  149.3739  140.2849  157.7310 H   0  0  0  0  0  0  0  0  0  0  0  0
  150.5983  141.9384  155.9601 H   0  0  0  0  0  0  0  0  0  0  0  0
  151.5081  139.4129  155.4856 H   0  0  0  0  0  0  0  0  0  0  0  0
  148.9715  141.2662  154.2046 H   0  0  0  0  0  0  0  0  0  0  0  0
  148.7267  139.7114  154.9989 H   0  0  0  0  0  0  0  0  0  0  0  0
  146.0341  142.3601  157.3930 H   0  0  0  0  0  0  0  0  0  0  0  0
  144.2002  143.7917  156.5343 H   0  0  0  0  0  0  0  0  0  0  0  0
  144.0754  144.3383  154.1096 H   0  0  0  0  0  0  0  0  0  0  0  0
  145.7943  143.4465  152.5488 H   0  0  0  0  0  0  0  0  0  0  0  0
  147.6173  142.0300  153.3784 H   0  0  0  0  0  0  0  0  0  0  0  0
  1  2  2  0  0  0  0
  2 11  1  0  0  0  0
  2  3  1  0  0  0  0
  3  4  2  0  0  0  0
  3 23  1  0  0  0  0
  4  5  1  0  0  0  0
  4 24  1  0  0  0  0
  5  6  1  0  0  0  0
  5 10  2  0  0  0  0
  6  7  1  0  0  0  0
  6  8  1  0  0  0  0
  6  9  1  0  0  0  0
 10 11  1  0  0  0  0
 11 12  1  0  0  0  0
 12 13  1  0  0  0  0
 12 25  1  0  0  0  0
 12 26  1  0  0  0  0
 13 14  1  0  0  0  0
 13 15  1  0  0  0  0
 13 27  1  0  0  0  0
 14 28  1  0  0  0  0
 15 16  1  0  0  0  0
 15 29  1  0  0  0  0
 15 30  1  0  0  0  0
 16 17  1  0  0  0  0
 17 22  1  0  0  0  0
 17 18  2  0  0  0  0
 18 19  1  0  0  0  0
 18 31  1  0  0  0  0
 19 20  2  0  0  0  0
 19 32  1  0  0  0  0
 20 21  1  0  0  0  0
 20 33  1  0  0  0  0
 21 22  2  0  0  0  0
 21 34  1  0  0  0  0
 22 35  1  0  0  0  0
M  END
> <s_m_source_file>
AV-unprocessed.smi

> <i_m_source_file_index>
2900

> <i_lp_mmshare_version>
43012

> <i_f3d_flags>
0

> <s_epik_input>
Tz1jMVtjSF1bY0hdYyhDKEYpKEYpRilubjFbQ0gyXVtDQEhdKFtPSF0pW0NIMl1PYzJbY0hdW2NIXVtjSF1bY0hdW2NIXTI=

> <s_epik_cmdline>
J2VwaWtfcHl0aG9uJywgJy1waCcsICc3LjAnLCAnLXRuJywgJzgnLCAnLW1hJywgJzIwMCcsICctbWV0YWxfYmluZGluZycsICctaW1hZScsICc8aW5maWxlLm1hZT4nLCAnLW9tYWUnLCAnPG91dGZpbGUubWFlPic=

> <r_lp_tautomer_probability>
1

> <r_epik_Ionization_Penalty>
1.22578e-07

> <r_epik_Ionization_Penalty_Charging>
5.40425e-09

> <r_epik_Ionization_Penalty_Neutral>
1.17174e-07

> <r_epik_State_Penalty>
-0

> <r_epik_Charging_Adjusted_Penalty>
5.40425e-09

> <i_epik_Tot_Q>
0

> <i_epik_Tot_abs_Q>
0

> <r_epik_Metal_State_Penalty>
-0

> <b_epik_Metal_Only>
0

> <s_lp_Force_Field>
OPLS_2005

> <r_lp_Energy>
32.4131

> <b_lp_Chiralities_Consistent>
1

> <s_lp_Variant>
AV-unprocessed.smi:2900-2

> <Gold.Version>
5.8.1

> <Gold.Id.Protein>
6NUR|6NUR_protein|mol2

> <Gold.PLP.Fitness>
50.0248

> <Gold.PLP.PLP>
-49.2763

> <Gold.PLP.part.hbond>
-1.0000

> <Gold.PLP.part.metal>
0.0000

> <Gold.PLP.part.buried>
-8.3527

> <Gold.PLP.part.nonpolar>
-40.4195

> <Gold.PLP.part.repulsive>
0.1195

> <Gold.PLP.ligand.clash>
0.0000

> <Gold.PLP.ligand.torsion>
1.1634

> <Gold.PLP.Chemscore.Hbond>
1.0000

> <Gold.PLP.Chemscore.CHOScore>
0.0000

> <Gold.PLP.Chemscore.Metal>
0.0000

> <Gold.Chemscore.Hbonds>
donor molecule, donor type, donor heavy atom, donor atom, acceptor molecule, acceptor atom, score
      P1  H  7989  7998       L1    14  1.00

> <Gold.PLP.Chemscore.Internal.Correction>
0.0753

> <Gold.Rescore>
     Score         DG    S(hbond)    S(metal)    S(lipo)     H(rot)  DE(clash)    DE(int)     intcor
     11.84     -12.70       0.93        0.00      92.74       2.63       0.24       0.62       ----

> <Gold.Chemscore.Fitness>
11.8361

> <Gold.Chemscore.DG>
-12.7019

> <Gold.Chemscore.ZeroCoef>
-5.4800

> <Gold.Chemscore.Hbond>
0.9322

> <Gold.Chemscore.Metal>
0.0000

> <Gold.Chemscore.Lipo>
92.7379

> <Gold.Chemscore.Internal_Hbond>
0.0000

> <Gold.Chemscore.DEClash>
0.2427

> <Gold.Chemscore.DEInternal>
0.6230

> <Gold.Chemscore.Rot>
2.6336

> <Gold.Chemscore.Internal.Correction>
   9.000000E+99

> <Gold.Chemscore.Hbonds>
donor molecule, donor type, donor heavy atom, donor atom, acceptor molecule, acceptor atom, score
      P1  H  7989  7998       L1    14  0.94

> <Gold.Chemscore.Hbond.Weighted>
-3.1135

> <Gold.Chemscore.Metal.Weighted>
-0.0000

> <Gold.Chemscore.Lipo.Weighted>
-10.8503

> <Gold.Chemscore.Internal_Hbond.Weighted>
0.0000

> <Gold.Chemscore.DEClash.Weighted>
0.2427

> <Gold.Chemscore.DEInternal.Weighted>
0.6230

> <Gold.Chemscore.Rot.Weighted>
6.7420

> <Gold.Chemscore.Internal.Correction.Weighted>
   9.000000E+99

> <Gold.Protein.RotatedTorsions>
[ 6907 6896 6895 6894 ] final  -27.19 input  -60.11 | X-H torsion
[ 7974 7965 7964 7962 ] final  -85.01 input  175.53 | X-H torsion
[ 8008 7997 7996 7995 ] final   39.09 input   59.86 | X-H torsion
[ 10167 10162 10161 10158 ] final -178.42 input  -65.29 | X-H torsion
[ 10718 10713 10712 10709 ] final  -98.53 input   66.30 | X-H torsion
[ 10763 10752 10751 10750 ] final  120.23 input  -60.55 | X-H torsion
[ 11005 11000 10999 10996 ] final -174.69 input  -57.11 | X-H torsion

> <Gold.Protein.ActiveResidues>
 VAL166  LYS551  ARG553  GLY616  TRP617  ASP618  TYR619  PRO620  LYS621  CYS622 
 ASP623  PHE694  ASN695  SER759  ASP760  ASP761  ALA762  ILE779  LEU786  VAL792 
 PHE793  MET794  SER795  GLU796  ALA797  LYS798  CYS799  TRP800  GLU811  SER814 

> <Gold.Protein.RotatedAtoms>
  151.1503  135.0224  159.8665 H   0  0  0  0  0  0  0  0  0  0  0  0  # atno 6907 bound_to 6896
  152.5453  134.1396  159.8483 H   0  0  0  0  0  0  0  0  0  0  0  0  # atno 6908 bound_to 6896
  151.1481  133.4880  159.2628 H   0  0  0  0  0  0  0  0  0  0  0  0  # atno 6909 bound_to 6896
  145.4989  140.9548  143.1770 H   0  0  0  0  0  0  0  0  0  0  0  0  # atno 7974 bound_to 7965
  155.2309  140.3338  155.4303 H   0  0  0  0  0  0  0  0  0  0  0  0  # atno 8008 bound_to 7997
  156.2295  140.1844  156.7324 H   0  0  0  0  0  0  0  0  0  0  0  0  # atno 8009 bound_to 7997
  154.5954  140.0631  156.9282 H   0  0  0  0  0  0  0  0  0  0  0  0  # atno 8010 bound_to 7997
  139.5433  144.2303  152.0939 H   0  0  0  0  0  0  0  0  0  0  0  0  # atno 10167 bound_to 10162
  156.0110  130.5242  150.6536 H   0  0  0  0  0  0  0  0  0  0  0  0  # atno 10718 bound_to 10713
  153.5953  135.3458  155.2925 H   0  0  0  0  0  0  0  0  0  0  0  0  # atno 10763 bound_to 10752
  154.8645  135.4214  154.2472 H   0  0  0  0  0  0  0  0  0  0  0  0  # atno 10764 bound_to 10752
  153.3288  135.7043  153.7037 H   0  0  0  0  0  0  0  0  0  0  0  0  # atno 10765 bound_to 10752
  140.4716  134.6160  157.4884 H   0  0  0  0  0  0  0  0  0  0  0  0  # atno 11005 bound_to 11000
  144.7791  139.6565  143.7162 LP  0  0  0  0  0  0  0  0  0  0  0  0  # atno 17320 bound_to 7965
  146.2238  139.5684  142.9601 LP  0  0  0  0  0  0  0  0  0  0  0  0  # atno 17321 bound_to 7965
  140.1786  144.4867  150.6541 LP  0  0  0  0  0  0  0  0  0  0  0  0  # atno 17342 bound_to 10162
  140.6672  143.2272  151.5715 LP  0  0  0  0  0  0  0  0  0  0  0  0  # atno 17343 bound_to 10162
  157.4292  131.0847  151.1055 LP  0  0  0  0  0  0  0  0  0  0  0  0  # atno 17370 bound_to 10713
  157.1633  130.6235  149.5617 LP  0  0  0  0  0  0  0  0  0  0  0  0  # atno 17371 bound_to 10713
  139.9881  134.7028  155.9737 LP  0  0  0  0  0  0  0  0  0  0  0  0  # atno 17394 bound_to 11000
  141.1574  133.6541  156.4206 LP  0  0  0  0  0  0  0  0  0  0  0  0  # atno 17395 bound_to 11000

$$$$
