AV-unprocessed.smi:2074|AV-procd|sdf|8453|dock4
  -GOLD-   2272011153D 1   1.00000     0.00000
 Structure written by MMmdl.
 43 44  0  0  0  0  0  0  0  0  1 V2000
  152.0316  138.2207  158.5899 C   0  0  0  0  0  0  0  0  0  0  0  0
  151.6530  138.6159  157.1916 C   0  0  0  0  0  0  0  0  0  0  0  0
  152.4917  139.3328  156.4621 N   0  0  0  0  0  0  0  0  0  0  0  0
  151.8533  139.5365  155.2348 O   0  0  0  0  0  0  0  0  0  0  0  0
  150.6412  138.9271  155.2746 C   0  0  0  0  0  0  0  0  0  0  0  0
  149.7973  139.0382  154.0505 C   0  0  0  0  0  0  0  0  0  0  0  0
  150.4521  138.3199  156.4855 C   0  0  0  0  0  0  0  0  0  0  0  0
  149.2620  137.5286  156.9708 C   0  0  0  0  0  0  0  0  0  0  0  0
  149.6226  136.0641  157.2498 C   0  0  0  0  0  0  0  0  0  0  0  0
  149.8615  135.6683  158.3919 O   0  0  0  0  0  0  0  0  0  0  0  0
  149.6531  135.2601  156.1765 N   0  0  0  0  0  0  0  0  0  0  0  0
  149.9502  133.8303  156.2044 C   0  0  0  0  0  0  0  0  0  0  0  0
  149.3462  133.0458  155.0027 C   0  0  1  0  0  0  0  0  0  0  0  0
  149.6926  133.7938  153.6899 C   0  0  0  0  0  0  0  0  0  0  0  0
  149.7497  131.6203  154.9734 N   0  0  0  0  0  0  0  0  0  0  0  0
  151.1910  131.4388  155.1826 C   0  0  0  0  0  0  0  0  0  0  0  0
  151.6233  129.9633  155.1260 C   0  0  0  0  0  0  0  0  0  0  0  0
  151.2389  129.4004  153.8797 O   0  0  0  0  0  0  0  0  0  0  0  0
  149.8365  129.4830  153.6683 C   0  0  0  0  0  0  0  0  0  0  0  0
  149.3888  130.9541  153.7161 C   0  0  0  0  0  0  0  0  0  0  0  0
  151.3024  138.5942  159.3092 H   0  0  0  0  0  0  0  0  0  0  0  0
  153.0082  138.6151  158.8729 H   0  0  0  0  0  0  0  0  0  0  0  0
  152.0708  137.1361  158.6901 H   0  0  0  0  0  0  0  0  0  0  0  0
  148.7448  138.8810  154.2870 H   0  0  0  0  0  0  0  0  0  0  0  0
  150.0932  138.2956  153.3095 H   0  0  0  0  0  0  0  0  0  0  0  0
  149.8957  140.0257  153.5995 H   0  0  0  0  0  0  0  0  0  0  0  0
  148.8541  137.9628  157.8843 H   0  0  0  0  0  0  0  0  0  0  0  0
  148.4538  137.5507  156.2391 H   0  0  0  0  0  0  0  0  0  0  0  0
  149.4466  135.6646  155.2748 H   0  0  0  0  0  0  0  0  0  0  0  0
  151.0340  133.7107  156.2167 H   0  0  0  0  0  0  0  0  0  0  0  0
  149.5894  133.4550  157.1610 H   0  0  0  0  0  0  0  0  0  0  0  0
  148.2609  133.0811  155.1092 H   0  0  0  0  0  0  0  0  0  0  0  0
  149.4402  134.8527  153.7337 H   0  0  0  0  0  0  0  0  0  0  0  0
  149.1373  133.4079  152.8362 H   0  0  0  0  0  0  0  0  0  0  0  0
  150.7566  133.7198  153.4631 H   0  0  0  0  0  0  0  0  0  0  0  0
  151.7476  132.0077  154.4363 H   0  0  0  0  0  0  0  0  0  0  0  0
  151.4888  131.8194  156.1579 H   0  0  0  0  0  0  0  0  0  0  0  0
  152.7048  129.8818  155.2344 H   0  0  0  0  0  0  0  0  0  0  0  0
  151.1761  129.3971  155.9445 H   0  0  0  0  0  0  0  0  0  0  0  0
  149.5972  129.0464  152.6986 H   0  0  0  0  0  0  0  0  0  0  0  0
  149.3112  128.8943  154.4222 H   0  0  0  0  0  0  0  0  0  0  0  0
  148.3104  130.9581  153.5723 H   0  0  0  0  0  0  0  0  0  0  0  0
  149.8242  131.4930  152.8734 H   0  0  0  0  0  0  0  0  0  0  0  0
  1  2  1  0  0  0  0
  1 21  1  0  0  0  0
  1 22  1  0  0  0  0
  1 23  1  0  0  0  0
  2  7  1  0  0  0  0
  2  3  2  0  0  0  0
  3  4  1  0  0  0  0
  4  5  1  0  0  0  0
  5  6  1  0  0  0  0
  5  7  2  0  0  0  0
  6 24  1  0  0  0  0
  6 25  1  0  0  0  0
  6 26  1  0  0  0  0
  7  8  1  0  0  0  0
  8  9  1  0  0  0  0
  8 27  1  0  0  0  0
  8 28  1  0  0  0  0
  9 10  2  0  0  0  0
  9 11  1  0  0  0  0
 11 12  1  0  0  0  0
 11 29  1  0  0  0  0
 12 13  1  0  0  0  0
 12 30  1  0  0  0  0
 12 31  1  0  0  0  0
 13 14  1  0  0  0  0
 13 15  1  0  0  0  0
 13 32  1  0  0  0  0
 14 33  1  0  0  0  0
 14 34  1  0  0  0  0
 14 35  1  0  0  0  0
 15 20  1  0  0  0  0
 15 16  1  0  0  0  0
 16 17  1  0  0  0  0
 16 36  1  0  0  0  0
 16 37  1  0  0  0  0
 17 18  1  0  0  0  0
 17 38  1  0  0  0  0
 17 39  1  0  0  0  0
 18 19  1  0  0  0  0
 19 20  1  0  0  0  0
 19 40  1  0  0  0  0
 19 41  1  0  0  0  0
 20 42  1  0  0  0  0
 20 43  1  0  0  0  0
M  END
> <s_m_source_file>
AV-unprocessed.smi

> <i_m_source_file_index>
2074

> <i_lp_mmshare_version>
43012

> <i_f3d_flags>
0

> <s_epik_input>
W0NIM11jMW5vYyhbQ0gzXSljMVtDSDJdQyg9TylbTkhdW0NIMl1bQ0BIXShbQ0gzXSlOMltDSDJdW0NIMl1PW0NIMl1bQ0gyXTI=

> <s_epik_cmdline>
J2VwaWtfcHl0aG9uJywgJy1waCcsICc3LjAnLCAnLXRuJywgJzgnLCAnLW1hJywgJzIwMCcsICctbWV0YWxfYmluZGluZycsICctaW1hZScsICc8aW5maWxlLm1hZT4nLCAnLW9tYWUnLCAnPG91dGZpbGUubWFlPic=

> <r_epik_Ionization_Penalty>
0.234179

> <r_epik_Ionization_Penalty_Charging>
0

> <r_epik_Ionization_Penalty_Neutral>
0.234179

> <r_epik_State_Penalty>
0.224936

> <r_epik_Charging_Adjusted_Penalty>
0.224936

> <i_epik_Tot_Q>
0

> <i_epik_Tot_abs_Q>
0

> <r_epik_Metal_State_Penalty>
0.224936

> <b_epik_Metal_Only>
0

> <s_lp_Force_Field>
OPLS_2005

> <r_lp_Energy>
23.5804

> <b_lp_Chiralities_Consistent>
1

> <s_lp_Variant>
AV-unprocessed.smi:2074-2

> <Gold.Version>
5.8.1

> <Gold.Id.Protein>
6NUR|6NUR_protein|mol2

> <Gold.PLP.Fitness>
33.6617

> <Gold.PLP.PLP>
-26.0408

> <Gold.PLP.part.hbond>
-3.0000

> <Gold.PLP.part.metal>
0.0000

> <Gold.PLP.part.buried>
-4.6631

> <Gold.PLP.part.nonpolar>
-18.5325

> <Gold.PLP.part.repulsive>
0.2022

> <Gold.PLP.ligand.clash>
0.0000

> <Gold.PLP.ligand.torsion>
0.7288

> <Gold.PLP.Chemscore.Hbond>
2.9920

> <Gold.PLP.Chemscore.CHOScore>
0.0000

> <Gold.PLP.Chemscore.Metal>
0.0000

> <Gold.Chemscore.Hbonds>
donor molecule, donor type, donor heavy atom, donor atom, acceptor molecule, acceptor atom, score
      P1  H  6896  6907       L1    10  1.00
      P1  H  7989  7998       L1     4  0.60
      P1  H  7997  8008       L1     3  1.00

> <Gold.PLP.Chemscore.Internal.Correction>
0.1024

> <Gold.Rescore>
     Score         DG    S(hbond)    S(metal)    S(lipo)     H(rot)  DE(clash)    DE(int)     intcor
     17.30     -18.13       2.88        0.00      63.40       1.72       0.04       0.79       ----

> <Gold.Chemscore.Fitness>
17.2973

> <Gold.Chemscore.DG>
-18.1276

> <Gold.Chemscore.ZeroCoef>
-5.4800

> <Gold.Chemscore.Hbond>
2.8837

> <Gold.Chemscore.Metal>
0.0000

> <Gold.Chemscore.Lipo>
63.4012

> <Gold.Chemscore.Internal_Hbond>
0.0000

> <Gold.Chemscore.DEClash>
0.0357

> <Gold.Chemscore.DEInternal>
0.7946

> <Gold.Chemscore.Rot>
1.7195

> <Gold.Chemscore.Internal.Correction>
   9.000000E+99

> <Gold.Chemscore.Hbonds>
donor molecule, donor type, donor heavy atom, donor atom, acceptor molecule, acceptor atom, score
      P1  H  6896  6907       L1    10  0.96
      P1  H  7989  7998       L1     4  0.23
      P1  H  7997  8008       L1     3  0.57

> <Gold.Chemscore.Hbond.Weighted>
-9.6315

> <Gold.Chemscore.Metal.Weighted>
-0.0000

> <Gold.Chemscore.Lipo.Weighted>
-7.4179

> <Gold.Chemscore.Internal_Hbond.Weighted>
0.0000

> <Gold.Chemscore.DEClash.Weighted>
0.0357

> <Gold.Chemscore.DEInternal.Weighted>
0.7946

> <Gold.Chemscore.Rot.Weighted>
4.4018

> <Gold.Chemscore.Internal.Correction.Weighted>
   9.000000E+99

> <Gold.Protein.RotatedTorsions>
[ 6907 6896 6895 6894 ] final  -55.55 input  -60.11 | X-H torsion
[ 7974 7965 7964 7962 ] final  -40.81 input  175.53 | X-H torsion
[ 8008 7997 7996 7995 ] final  -39.36 input   59.86 | X-H torsion
[ 10167 10162 10161 10158 ] final  159.88 input  -65.29 | X-H torsion
[ 10718 10713 10712 10709 ] final  -69.86 input   66.30 | X-H torsion
[ 10763 10752 10751 10750 ] final  -15.64 input  -60.55 | X-H torsion
[ 11005 11000 10999 10996 ] final -147.18 input  -57.11 | X-H torsion

> <Gold.Protein.ActiveResidues>
 VAL166  LYS551  ARG553  GLY616  TRP617  ASP618  TYR619  PRO620  LYS621  CYS622 
 ASP623  PHE694  ASN695  SER759  ASP760  ASP761  ALA762  ILE779  LEU786  VAL792 
 PHE793  MET794  SER795  GLU796  ALA797  LYS798  CYS799  TRP800  GLU811  SER814 

> <Gold.Protein.RotatedAtoms>
  150.8242  134.7465  159.6798 H   0  0  0  0  0  0  0  0  0  0  0  0  # atno 6907 bound_to 6896
  152.4354  134.5692  159.9926 H   0  0  0  0  0  0  0  0  0  0  0  0  # atno 6908 bound_to 6896
  151.5869  133.3333  159.3055 H   0  0  0  0  0  0  0  0  0  0  0  0  # atno 6909 bound_to 6896
  146.0269  140.6780  142.9151 H   0  0  0  0  0  0  0  0  0  0  0  0  # atno 7974 bound_to 7965
  154.4024  140.1553  156.2850 H   0  0  0  0  0  0  0  0  0  0  0  0  # atno 8008 bound_to 7997
  155.8836  140.3442  155.5883 H   0  0  0  0  0  0  0  0  0  0  0  0  # atno 8009 bound_to 7997
  155.7639  140.0821  157.2132 H   0  0  0  0  0  0  0  0  0  0  0  0  # atno 8010 bound_to 7997
  139.4835  144.4687  151.8605 H   0  0  0  0  0  0  0  0  0  0  0  0  # atno 10167 bound_to 10162
  156.0435  130.4320  150.2210 H   0  0  0  0  0  0  0  0  0  0  0  0  # atno 10718 bound_to 10713
  153.5464  135.7012  153.5612 H   0  0  0  0  0  0  0  0  0  0  0  0  # atno 10763 bound_to 10752
  153.3555  135.3984  155.1678 H   0  0  0  0  0  0  0  0  0  0  0  0  # atno 10764 bound_to 10752
  154.8667  135.3776  154.4973 H   0  0  0  0  0  0  0  0  0  0  0  0  # atno 10765 bound_to 10752
  140.7743  134.3153  157.5065 H   0  0  0  0  0  0  0  0  0  0  0  0  # atno 11005 bound_to 11000
  144.7013  140.3667  143.7153 LP  0  0  0  0  0  0  0  0  0  0  0  0  # atno 17320 bound_to 7965
  145.7103  139.1683  143.2543 LP  0  0  0  0  0  0  0  0  0  0  0  0  # atno 17321 bound_to 7965
  140.4155  144.2313  150.5888 LP  0  0  0  0  0  0  0  0  0  0  0  0  # atno 17342 bound_to 10162
  140.4925  143.2343  151.8798 LP  0  0  0  0  0  0  0  0  0  0  0  0  # atno 17343 bound_to 10162
  157.0302  131.0005  151.3314 LP  0  0  0  0  0  0  0  0  0  0  0  0  # atno 17370 bound_to 10713
  157.5282  130.8042  149.7887 LP  0  0  0  0  0  0  0  0  0  0  0  0  # atno 17371 bound_to 10713
  139.8751  134.9280  156.3439 LP  0  0  0  0  0  0  0  0  0  0  0  0  # atno 17394 bound_to 11000
  140.9544  133.7430  156.0315 LP  0  0  0  0  0  0  0  0  0  0  0  0  # atno 17395 bound_to 11000

$$$$
