AV-unprocessed.smi:977|AV-procd|sdf|4305|dock6
  -GOLD-   22720 2213D 1   1.00000     0.00000
 Structure written by MMmdl.
 37 38  0  0  0  0  0  0  0  0  1 V2000
  151.3669  138.2114  154.4898 C   0  0  0  0  0  0  0  0  0  0  0  0
  150.2837  139.2525  154.4310 C   0  0  0  0  0  0  0  0  0  0  0  0
  150.5591  140.4923  154.8089 N   0  0  0  0  0  0  0  0  0  0  0  0
  149.3990  141.2496  154.5829 O   0  0  0  0  0  0  0  0  0  0  0  0
  148.4377  140.4389  154.0682 C   0  0  0  0  0  0  0  0  0  0  0  0
  147.1248  141.0662  153.7412 C   0  0  0  0  0  0  0  0  0  0  0  0
  148.9330  139.1716  153.9818 C   0  0  0  0  0  0  0  0  0  0  0  0
  148.2237  138.0585  153.4660 N   0  0  0  0  0  0  0  0  0  0  0  0
  146.9406  137.7489  153.7050 C   0  0  0  0  0  0  0  0  0  0  0  0
  146.1653  138.4375  154.3685 O   0  0  0  0  0  0  0  0  0  0  0  0
  146.5947  136.5980  153.1102 N   0  0  0  0  0  0  0  0  0  0  0  0
  145.2747  135.9739  153.1758 C   0  0  1  0  0  0  0  0  0  0  0  0
  144.2403  136.9624  152.6149 C   0  0  0  0  0  0  0  0  0  0  0  0
  145.2789  134.6323  152.4102 C   0  0  2  0  0  0  0  0  0  0  0  0
  145.3658  134.7744  150.8870 C   0  0  0  0  0  0  0  0  0  0  0  0
  144.6517  133.5323  150.4072 C   0  0  0  0  0  0  0  0  0  0  0  0
  143.5214  133.4298  151.4223 C   0  0  0  0  0  0  0  0  0  0  0  0
  144.0710  133.9061  152.6454 O   0  0  0  0  0  0  0  0  0  0  0  0
  151.2617  137.4863  153.6826 H   0  0  0  0  0  0  0  0  0  0  0  0
  151.3384  137.6690  155.4350 H   0  0  0  0  0  0  0  0  0  0  0  0
  152.3567  138.6593  154.3955 H   0  0  0  0  0  0  0  0  0  0  0  0
  146.4884  140.3782  153.1845 H   0  0  0  0  0  0  0  0  0  0  0  0
  147.2640  141.9615  153.1352 H   0  0  0  0  0  0  0  0  0  0  0  0
  146.5980  141.3519  154.6516 H   0  0  0  0  0  0  0  0  0  0  0  0
  148.7168  137.4867  152.7960 H   0  0  0  0  0  0  0  0  0  0  0  0
  147.3012  136.1067  152.5826 H   0  0  0  0  0  0  0  0  0  0  0  0
  145.0174  135.7827  154.2192 H   0  0  0  0  0  0  0  0  0  0  0  0
  143.2272  136.5689  152.6982 H   0  0  0  0  0  0  0  0  0  0  0  0
  144.4278  137.1792  151.5627 H   0  0  0  0  0  0  0  0  0  0  0  0
  144.2658  137.9070  153.1591 H   0  0  0  0  0  0  0  0  0  0  0  0
  146.1034  134.0061  152.7553 H   0  0  0  0  0  0  0  0  0  0  0  0
  144.8257  135.6607  150.5503 H   0  0  0  0  0  0  0  0  0  0  0  0
  146.3917  134.8428  150.5241 H   0  0  0  0  0  0  0  0  0  0  0  0
  144.2964  133.6089  149.3792 H   0  0  0  0  0  0  0  0  0  0  0  0
  145.3094  132.6652  150.4826 H   0  0  0  0  0  0  0  0  0  0  0  0
  142.6944  134.0810  151.1374 H   0  0  0  0  0  0  0  0  0  0  0  0
  143.1365  132.4151  151.5239 H   0  0  0  0  0  0  0  0  0  0  0  0
  1  2  1  0  0  0  0
  1 19  1  0  0  0  0
  1 20  1  0  0  0  0
  1 21  1  0  0  0  0
  2  7  1  0  0  0  0
  2  3  2  0  0  0  0
  3  4  1  0  0  0  0
  4  5  1  0  0  0  0
  5  6  1  0  0  0  0
  5  7  2  0  0  0  0
  6 22  1  0  0  0  0
  6 23  1  0  0  0  0
  6 24  1  0  0  0  0
  7  8  1  0  0  0  0
  8  9  1  0  0  0  0
  8 25  1  0  0  0  0
  9 10  2  0  0  0  0
  9 11  1  0  0  0  0
 11 12  1  0  0  0  0
 11 26  1  0  0  0  0
 12 13  1  0  0  0  0
 12 14  1  0  0  0  0
 12 27  1  0  0  0  0
 13 28  1  0  0  0  0
 13 29  1  0  0  0  0
 13 30  1  0  0  0  0
 14 18  1  0  0  0  0
 14 15  1  0  0  0  0
 14 31  1  0  0  0  0
 15 16  1  0  0  0  0
 15 32  1  0  0  0  0
 15 33  1  0  0  0  0
 16 17  1  0  0  0  0
 16 34  1  0  0  0  0
 16 35  1  0  0  0  0
 17 18  1  0  0  0  0
 17 36  1  0  0  0  0
 17 37  1  0  0  0  0
M  END
> <s_m_source_file>
AV-unprocessed.smi

> <i_m_source_file_index>
977

> <i_lp_mmshare_version>
43012

> <i_f3d_flags>
0

> <s_epik_input>
W0NIM11jMW5vYyhbQ0gzXSljMVtOSF1DKD1PKVtOSF1bQ0BIXShbQ0gzXSlbQ0BASF0yW0NIMl1bQ0gyXVtDSDJdTzI=

> <s_epik_cmdline>
J2VwaWtfcHl0aG9uJywgJy1waCcsICc3LjAnLCAnLXRuJywgJzgnLCAnLW1hJywgJzIwMCcsICctbWV0YWxfYmluZGluZycsICctaW1hZScsICc8aW5maWxlLm1hZT4nLCAnLW9tYWUnLCAnPG91dGZpbGUubWFlPic=

> <r_lp_tautomer_probability>
1

> <r_epik_Ionization_Penalty>
3.41601e-05

> <r_epik_Ionization_Penalty_Charging>
0

> <r_epik_Ionization_Penalty_Neutral>
3.41601e-05

> <r_epik_State_Penalty>
-0

> <r_epik_Charging_Adjusted_Penalty>
0

> <i_epik_Tot_Q>
0

> <i_epik_Tot_abs_Q>
0

> <r_epik_Metal_State_Penalty>
-0

> <b_epik_Metal_Only>
0

> <s_lp_Force_Field>
OPLS_2005

> <r_lp_Energy>
19.7508

> <b_lp_Chiralities_Consistent>
1

> <s_lp_Variant>
AV-unprocessed.smi:977-2

> <Gold.Version>
5.8.1

> <Gold.Id.Protein>
6NUR|6NUR_protein|mol2

> <Gold.PLP.Fitness>
36.2526

> <Gold.PLP.PLP>
-28.3950

> <Gold.PLP.part.hbond>
-3.7081

> <Gold.PLP.part.metal>
0.0000

> <Gold.PLP.part.buried>
-1.6138

> <Gold.PLP.part.nonpolar>
-23.0037

> <Gold.PLP.part.repulsive>
0.4951

> <Gold.PLP.ligand.clash>
0.0000

> <Gold.PLP.ligand.torsion>
0.4176

> <Gold.PLP.Chemscore.Hbond>
2.8120

> <Gold.PLP.Chemscore.CHOScore>
0.0000

> <Gold.PLP.Chemscore.Metal>
0.0000

> <Gold.Chemscore.Hbonds>
donor molecule, donor type, donor heavy atom, donor atom, acceptor molecule, acceptor atom, score
      L1  H     8    25       P1  7948  1.00
      L1  H    11    26       P1  7948  0.91
      P1  H  7989  7998       L1     3  0.85

> <Gold.PLP.Chemscore.Internal.Correction>
0.2567

> <Gold.Rescore>
     Score         DG    S(hbond)    S(metal)    S(lipo)     H(rot)  DE(clash)    DE(int)     intcor
     15.76     -16.35       1.92        0.00      64.88       1.22       0.05       0.54       ----

> <Gold.Chemscore.Fitness>
15.7567

> <Gold.Chemscore.DG>
-16.3464

> <Gold.Chemscore.ZeroCoef>
-5.4800

> <Gold.Chemscore.Hbond>
1.9157

> <Gold.Chemscore.Metal>
0.0000

> <Gold.Chemscore.Lipo>
64.8817

> <Gold.Chemscore.Internal_Hbond>
0.0000

> <Gold.Chemscore.DEClash>
0.0540

> <Gold.Chemscore.DEInternal>
0.5357

> <Gold.Chemscore.Rot>
1.2200

> <Gold.Chemscore.Internal.Correction>
   9.000000E+99

> <Gold.Chemscore.Hbonds>
donor molecule, donor type, donor heavy atom, donor atom, acceptor molecule, acceptor atom, score
      L1  H     8    25       P1  7948  0.95
      L1  H    11    26       P1  7948  0.88
      P1  H  7989  7998       L1     3  0.07

> <Gold.Chemscore.Hbond.Weighted>
-6.3984

> <Gold.Chemscore.Metal.Weighted>
-0.0000

> <Gold.Chemscore.Lipo.Weighted>
-7.5912

> <Gold.Chemscore.Internal_Hbond.Weighted>
0.0000

> <Gold.Chemscore.DEClash.Weighted>
0.0540

> <Gold.Chemscore.DEInternal.Weighted>
0.5357

> <Gold.Chemscore.Rot.Weighted>
3.1232

> <Gold.Chemscore.Internal.Correction.Weighted>
   9.000000E+99

> <Gold.Protein.RotatedTorsions>
[ 6907 6896 6895 6894 ] final -118.61 input  -60.11 | X-H torsion
[ 7974 7965 7964 7962 ] final  -68.84 input  175.53 | X-H torsion
[ 8008 7997 7996 7995 ] final  120.39 input   59.86 | X-H torsion
[ 10167 10162 10161 10158 ] final   86.69 input  -65.29 | X-H torsion
[ 10718 10713 10712 10709 ] final   13.65 input   66.30 | X-H torsion
[ 10763 10752 10751 10750 ] final  151.37 input  -60.55 | X-H torsion
[ 11005 11000 10999 10996 ] final   22.84 input  -57.11 | X-H torsion

> <Gold.Protein.ActiveResidues>
 VAL166  LYS551  ARG553  GLY616  TRP617  ASP618  TYR619  PRO620  LYS621  CYS622 
 ASP623  PHE694  ASN695  SER759  ASP760  ASP761  ALA762  ILE779  LEU786  VAL792 
 PHE793  MET794  SER795  GLU796  ALA797  LYS798  CYS799  TRP800  GLU811  SER814 

> <Gold.Protein.RotatedAtoms>
  150.8234  133.8213  159.3128 H   0  0  0  0  0  0  0  0  0  0  0  0  # atno 6907 bound_to 6896
  151.5964  135.1048  160.0060 H   0  0  0  0  0  0  0  0  0  0  0  0  # atno 6908 bound_to 6896
  152.4322  133.7256  159.6614 H   0  0  0  0  0  0  0  0  0  0  0  0  # atno 6909 bound_to 6896
  145.7114  140.9077  143.0679 H   0  0  0  0  0  0  0  0  0  0  0  0  # atno 7974 bound_to 7965
  156.2640  140.2832  156.1142 H   0  0  0  0  0  0  0  0  0  0  0  0  # atno 8008 bound_to 7997
  155.1225  140.0392  157.2771 H   0  0  0  0  0  0  0  0  0  0  0  0  # atno 8009 bound_to 7997
  154.6660  140.2577  155.7064 H   0  0  0  0  0  0  0  0  0  0  0  0  # atno 8010 bound_to 7997
  139.8849  144.6419  150.8802 H   0  0  0  0  0  0  0  0  0  0  0  0  # atno 10167 bound_to 10162
  157.0278  130.6180  149.5730 H   0  0  0  0  0  0  0  0  0  0  0  0  # atno 10718 bound_to 10713
  154.1026  135.2844  155.3248 H   0  0  0  0  0  0  0  0  0  0  0  0  # atno 10763 bound_to 10752
  154.6545  135.5357  153.7945 H   0  0  0  0  0  0  0  0  0  0  0  0  # atno 10764 bound_to 10752
  153.0373  135.6518  154.1189 H   0  0  0  0  0  0  0  0  0  0  0  0  # atno 10765 bound_to 10752
  140.3761  134.1970  155.7665 H   0  0  0  0  0  0  0  0  0  0  0  0  # atno 11005 bound_to 11000
  144.6941  139.9079  143.7462 LP  0  0  0  0  0  0  0  0  0  0  0  0  # atno 17320 bound_to 7965
  146.0709  139.3698  143.0523 LP  0  0  0  0  0  0  0  0  0  0  0  0  # atno 17321 bound_to 7965
  140.7737  143.3556  151.1928 LP  0  0  0  0  0  0  0  0  0  0  0  0  # atno 17342 bound_to 10162
  139.7162  143.9297  152.2967 LP  0  0  0  0  0  0  0  0  0  0  0  0  # atno 17343 bound_to 10162
  156.0080  130.5169  150.7894 LP  0  0  0  0  0  0  0  0  0  0  0  0  # atno 17370 bound_to 10713
  157.5201  131.0931  151.0090 LP  0  0  0  0  0  0  0  0  0  0  0  0  # atno 17371 bound_to 10713
  141.1939  133.8141  157.0781 LP  0  0  0  0  0  0  0  0  0  0  0  0  # atno 17394 bound_to 11000
  140.0514  134.9803  157.1143 LP  0  0  0  0  0  0  0  0  0  0  0  0  # atno 17395 bound_to 11000

$$$$
