AV-unprocessed.smi:49|AV-procd|sdf|479|dock6
  -GOLD-   2262016343D 1   1.00000     0.00000
 Structure written by MMmdl.
 28 29  0  0  0  0  0  0  0  0  2 V2000
  151.5681  144.0636  157.4818 C   0  0  0  0  0  0  0  0  0  0  0  0
  151.2466  142.5934  157.7707 C   0  0  0  0  0  0  0  0  0  0  0  0
  150.7238  141.8732  156.5711 C   0  0  0  0  0  0  0  0  0  0  0  0
  149.6498  142.3052  155.8946 N   0  0  0  0  0  0  0  0  0  0  0  0
  149.5107  141.3863  154.9274 C   0  0  0  0  0  0  0  0  0  0  0  0
  148.4015  141.4755  153.9185 C   0  0  2  0  0  0  0  0  0  0  0  0
  147.0402  141.8567  154.5199 C   0  0  0  0  0  0  0  0  0  0  0  0
  146.3434  140.5148  154.7381 C   0  0  1  0  0  0  0  0  0  0  0  0
  144.9363  140.6323  154.7227 O   0  0  0  0  0  0  0  0  0  0  0  0
  146.8726  139.6626  153.5850 C   0  0  0  0  0  0  0  0  0  0  0  0
  148.2689  140.0963  153.3971 N   0  3  0  0  0  0  0  0  0  0  0  0
  150.4379  140.4217  154.9915 N   0  0  0  0  0  0  0  0  0  0  0  0
  151.2362  140.7437  156.0745 N   0  0  0  0  0  0  0  0  0  0  0  0
  148.6845  142.1589  153.1167 H   0  0  0  0  0  0  0  0  0  0  0  0
  146.6595  140.0856  155.6901 H   0  0  0  0  0  0  0  0  0  0  0  0
  149.0830  143.1214  156.0759 H   0  0  0  0  0  0  0  0  0  0  0  0
  151.9456  144.5613  158.3750 H   0  0  0  0  0  0  0  0  0  0  0  0
  150.6801  144.6028  157.1506 H   0  0  0  0  0  0  0  0  0  0  0  0
  152.3259  144.1550  156.7032 H   0  0  0  0  0  0  0  0  0  0  0  0
  152.1391  142.0820  158.1328 H   0  0  0  0  0  0  0  0  0  0  0  0
  150.5055  142.5267  158.5680 H   0  0  0  0  0  0  0  0  0  0  0  0
  147.1156  142.4626  155.4237 H   0  0  0  0  0  0  0  0  0  0  0  0
  146.4819  142.4367  153.7831 H   0  0  0  0  0  0  0  0  0  0  0  0
  144.6156  140.3759  153.8715 H   0  0  0  0  0  0  0  0  0  0  0  0
  146.8037  138.5923  153.7810 H   0  0  0  0  0  0  0  0  0  0  0  0
  146.3235  139.8764  152.6669 H   0  0  0  0  0  0  0  0  0  0  0  0
  148.5382  140.0412  152.4254 H   0  0  0  0  0  0  0  0  0  0  0  0
  148.8679  139.4999  153.9511 H   0  0  0  0  0  0  0  0  0  0  0  0
  1  2  1  0  0  0  0
  1 17  1  0  0  0  0
  1 18  1  0  0  0  0
  1 19  1  0  0  0  0
  2 20  1  0  0  0  0
  2 21  1  0  0  0  0
  2  3  1  0  0  0  0
  3  4  1  0  0  0  0
  3 13  2  0  0  0  0
  4 16  1  0  0  0  0
  4  5  1  0  0  0  0
  5 12  2  0  0  0  0
  5  6  1  0  0  0  0
  6 14  1  0  0  0  0
  6 11  1  0  0  0  0
  6  7  1  0  0  0  0
  7  8  1  0  0  0  0
  7 22  1  0  0  0  0
  7 23  1  0  0  0  0
  8 15  1  0  0  0  0
  8  9  1  0  0  0  0
  8 10  1  0  0  0  0
  9 24  1  0  0  0  0
 10 11  1  0  0  0  0
 10 25  1  0  0  0  0
 10 26  1  0  0  0  0
 11 27  1  0  0  0  0
 11 28  1  0  0  0  0
 12 13  1  0  0  0  0
M  CHG  1  11   1
M  END
> <s_m_source_file>
AV-unprocessed.smi

> <i_m_source_file_index>
49

> <i_lp_mmshare_version>
43012

> <i_f3d_flags>
0

> <s_epik_input>
W0NIM11bQ0gyXWMxbmMobltuSF0xKVtDQEBIXTJbQ0gyXVtDQEBIXShbT0hdKVtDSDJdW05IXTI=

> <s_epik_cmdline>
J2VwaWtfcHl0aG9uJywgJy1waCcsICc3LjAnLCAnLXRuJywgJzgnLCAnLW1hJywgJzIwMCcsICctbWV0YWxfYmluZGluZycsICctaW1hZScsICc8aW5maWxlLm1hZT4nLCAnLW9tYWUnLCAnPG91dGZpbGUubWFlPic=

> <r_lp_tautomer_probability>
0.0517155

> <r_epik_Ionization_Penalty>
0.939819

> <r_epik_Ionization_Penalty_Charging>
0.0688988

> <r_epik_Ionization_Penalty_Neutral>
0.87092

> <r_epik_State_Penalty>
2.1224

> <r_epik_Charging_Adjusted_Penalty>
2.1913

> <i_epik_Tot_Q>
1

> <i_epik_Tot_abs_Q>
1

> <r_epik_Metal_State_Penalty>
2.39725

> <b_epik_Metal_Only>
0

> <s_lp_Force_Field>
OPLS_2005

> <r_lp_Energy>
21.4308

> <b_lp_Chiralities_Consistent>
1

> <s_lp_Variant>
AV-unprocessed.smi:49-17

> <Gold.Version>
5.8.1

> <Gold.Id.Protein>
6NUR|6NUR_protein|mol2

> <Gold.PLP.Fitness>
37.3351

> <Gold.PLP.PLP>
-26.4637

> <Gold.PLP.part.hbond>
-3.9509

> <Gold.PLP.part.metal>
0.0000

> <Gold.PLP.part.buried>
-3.3723

> <Gold.PLP.part.nonpolar>
-20.2081

> <Gold.PLP.part.repulsive>
0.3413

> <Gold.PLP.ligand.clash>
0.0000

> <Gold.PLP.ligand.torsion>
0.5367

> <Gold.PLP.Chemscore.Hbond>
3.9760

> <Gold.PLP.Chemscore.CHOScore>
0.0000

> <Gold.PLP.Chemscore.Metal>
0.0000

> <Gold.Chemscore.Hbonds>
donor molecule, donor type, donor heavy atom, donor atom, acceptor molecule, acceptor atom, score
      L1  H     4    16       P1  8028  0.86
      L1  H     9    24       P1 10175  1.00
      L1  H    11    27       P1  7957  1.00
      P1  H  7989  7998       L1    12  1.00

> <Gold.PLP.Chemscore.Internal.Correction>
0.0169

> <Gold.Rescore>
     Score         DG    S(hbond)    S(metal)    S(lipo)     H(rot)  DE(clash)    DE(int)     intcor
     15.54     -15.99       2.94        0.00      47.22       1.89       0.01       0.43       ----

> <Gold.Chemscore.Fitness>
15.5421

> <Gold.Chemscore.DG>
-15.9875

> <Gold.Chemscore.ZeroCoef>
-5.4800

> <Gold.Chemscore.Hbond>
2.9393

> <Gold.Chemscore.Metal>
0.0000

> <Gold.Chemscore.Lipo>
47.2158

> <Gold.Chemscore.Internal_Hbond>
0.0000

> <Gold.Chemscore.DEClash>
0.0149

> <Gold.Chemscore.DEInternal>
0.4305

> <Gold.Chemscore.Rot>
1.8883

> <Gold.Chemscore.Internal.Correction>
   9.000000E+99

> <Gold.Chemscore.Hbonds>
donor molecule, donor type, donor heavy atom, donor atom, acceptor molecule, acceptor atom, score
      L1  H     4    16       P1  8028  0.85
      L1  H     9    24       P1 10175  0.98
      L1  H    11    27       P1  7957  0.98
      P1  H  7989  7998       L1    12  0.10

> <Gold.Chemscore.Hbond.Weighted>
-9.8172

> <Gold.Chemscore.Metal.Weighted>
-0.0000

> <Gold.Chemscore.Lipo.Weighted>
-5.5242

> <Gold.Chemscore.Internal_Hbond.Weighted>
0.0000

> <Gold.Chemscore.DEClash.Weighted>
0.0149

> <Gold.Chemscore.DEInternal.Weighted>
0.4305

> <Gold.Chemscore.Rot.Weighted>
4.8340

> <Gold.Chemscore.Internal.Correction.Weighted>
   9.000000E+99

> <Gold.Protein.RotatedTorsions>
[ 6907 6896 6895 6894 ] final -142.45 input  -60.11 | X-H torsion
[ 7974 7965 7964 7962 ] final  -19.72 input  175.53 | X-H torsion
[ 8008 7997 7996 7995 ] final   47.29 input   59.86 | X-H torsion
[ 10167 10162 10161 10158 ] final    3.25 input  -65.29 | X-H torsion
[ 10718 10713 10712 10709 ] final -112.01 input   66.30 | X-H torsion
[ 10763 10752 10751 10750 ] final  101.13 input  -60.55 | X-H torsion
[ 11005 11000 10999 10996 ] final  130.25 input  -57.11 | X-H torsion

> <Gold.Protein.ActiveResidues>
 VAL166  LYS551  ARG553  GLY616  TRP617  ASP618  TYR619  PRO620  LYS621  CYS622 
 ASP623  PHE694  ASN695  SER759  ASP760  ASP761  ALA762  ILE779  LEU786  VAL792 
 PHE793  MET794  SER795  GLU796  ALA797  LYS798  CYS799  TRP800  GLU811  SER814 

> <Gold.Protein.RotatedAtoms>
  151.0872  133.5344  159.2616 H   0  0  0  0  0  0  0  0  0  0  0  0  # atno 6907 bound_to 6896
  151.2225  135.0523  159.8965 H   0  0  0  0  0  0  0  0  0  0  0  0  # atno 6908 bound_to 6896
  152.5430  134.0672  159.8232 H   0  0  0  0  0  0  0  0  0  0  0  0  # atno 6909 bound_to 6896
  146.1826  140.4102  142.8488 H   0  0  0  0  0  0  0  0  0  0  0  0  # atno 7974 bound_to 7965
  155.3666  140.3421  155.4242 H   0  0  0  0  0  0  0  0  0  0  0  0  # atno 8008 bound_to 7997
  156.1685  140.1624  156.8524 H   0  0  0  0  0  0  0  0  0  0  0  0  # atno 8009 bound_to 7997
  154.5209  140.0767  156.8152 H   0  0  0  0  0  0  0  0  0  0  0  0  # atno 8010 bound_to 7997
  140.6595  143.7340  150.7713 H   0  0  0  0  0  0  0  0  0  0  0  0  # atno 10167 bound_to 10162
  156.0680  130.5897  150.8451 H   0  0  0  0  0  0  0  0  0  0  0  0  # atno 10718 bound_to 10713
  153.3227  135.4055  155.1430 H   0  0  0  0  0  0  0  0  0  0  0  0  # atno 10763 bound_to 10752
  154.8604  135.3591  154.5574 H   0  0  0  0  0  0  0  0  0  0  0  0  # atno 10764 bound_to 10752
  153.6009  135.7071  153.5444 H   0  0  0  0  0  0  0  0  0  0  0  0  # atno 10765 bound_to 10752
  139.9661  134.9590  156.9267 H   0  0  0  0  0  0  0  0  0  0  0  0  # atno 11005 bound_to 11000
  144.8341  140.6754  143.6271 LP  0  0  0  0  0  0  0  0  0  0  0  0  # atno 17320 bound_to 7965
  145.4032  139.1594  143.4166 LP  0  0  0  0  0  0  0  0  0  0  0  0  # atno 17321 bound_to 7965
  140.1006  143.4791  152.2427 LP  0  0  0  0  0  0  0  0  0  0  0  0  # atno 17342 bound_to 10162
  139.5825  144.7517  151.3602 LP  0  0  0  0  0  0  0  0  0  0  0  0  # atno 17343 bound_to 10162
  157.5734  131.0946  150.9382 LP  0  0  0  0  0  0  0  0  0  0  0  0  # atno 17370 bound_to 10713
  156.9593  130.5449  149.5285 LP  0  0  0  0  0  0  0  0  0  0  0  0  # atno 17371 bound_to 10713
  140.5393  134.0736  155.7337 LP  0  0  0  0  0  0  0  0  0  0  0  0  # atno 17394 bound_to 11000
  141.1341  133.9252  157.2472 LP  0  0  0  0  0  0  0  0  0  0  0  0  # atno 17395 bound_to 11000

$$$$
