AV-unprocessed.smi:2583|AV-procd|sdf|10139|dock3
  -GOLD-   2272014153D 1   1.00000     0.00000
 Structure written by MMmdl.
 54 56  0  0  0  0  0  0  0  0  2 V2000
  153.7608  140.7063  160.0617 C   0  0  0  0  0  0  0  0  0  0  0  0
  153.0295  141.9543  159.6138 C   0  0  0  0  0  0  0  0  0  0  0  0
  153.2428  143.1931  160.2525 C   0  0  0  0  0  0  0  0  0  0  0  0
  152.6181  144.3317  159.8859 N   0  0  0  0  0  0  0  0  0  0  0  0
  151.7398  144.2739  158.8616 C   0  0  0  0  0  0  0  0  0  0  0  0
  151.4404  143.0805  158.1593 C   0  0  0  0  0  0  0  0  0  0  0  0
  150.5368  143.0049  157.0660 N   0  0  0  0  0  0  0  0  0  0  0  0
  149.9373  141.9162  156.5551 C   0  0  0  0  0  0  0  0  0  0  0  0
  150.1107  140.7607  156.9421 O   0  0  0  0  0  0  0  0  0  0  0  0
  149.1263  142.2427  155.5388 N   0  0  0  0  0  0  0  0  0  0  0  0
  148.3421  141.2960  154.7517 C   0  0  0  0  0  0  0  0  0  0  0  0
  147.0963  140.8701  155.5321 C   0  0  0  0  0  0  0  0  0  0  0  0
  146.3093  139.7855  154.7758 C   0  0  0  0  0  0  0  0  0  0  0  0
  147.1241  138.5839  154.5234 N   0  0  0  0  0  0  0  0  0  0  0  0
  146.3398  137.5247  153.8479 C   0  0  2  0  0  0  0  0  0  0  0  0
  146.9997  136.1267  154.0031 C   0  0  0  0  0  0  0  0  0  0  0  0
  146.2694  135.0314  153.2098 C   0  0  0  0  0  0  0  0  0  0  0  0
  146.1796  135.3802  151.7748 N   0  3  1  0  0  0  0  0  0  0  0  0
  145.5965  134.2901  150.9633 C   0  0  0  0  0  0  0  0  0  0  0  0
  145.4756  136.6670  151.5810 C   0  0  0  0  0  0  0  0  0  0  0  0
  146.1871  137.8065  152.3276 C   0  0  0  0  0  0  0  0  0  0  0  0
  148.2866  138.9874  153.7131 C   0  0  0  0  0  0  0  0  0  0  0  0
  149.1537  140.0357  154.4306 C   0  0  0  0  0  0  0  0  0  0  0  0
  152.1148  141.9038  158.5437 C   0  0  0  0  0  0  0  0  0  0  0  0
  154.3736  140.9002  160.9425 H   0  0  0  0  0  0  0  0  0  0  0  0
  154.4107  140.3428  159.2655 H   0  0  0  0  0  0  0  0  0  0  0  0
  153.0481  139.9194  160.3099 H   0  0  0  0  0  0  0  0  0  0  0  0
  153.9361  143.2768  161.0765 H   0  0  0  0  0  0  0  0  0  0  0  0
  151.2923  145.2192  158.5974 H   0  0  0  0  0  0  0  0  0  0  0  0
  150.3687  143.8743  156.5812 H   0  0  0  0  0  0  0  0  0  0  0  0
  149.0475  143.2174  155.2879 H   0  0  0  0  0  0  0  0  0  0  0  0
  148.0267  141.7737  153.8219 H   0  0  0  0  0  0  0  0  0  0  0  0
  147.3805  140.4904  156.5149 H   0  0  0  0  0  0  0  0  0  0  0  0
  146.4538  141.7337  155.7080 H   0  0  0  0  0  0  0  0  0  0  0  0
  145.4502  139.5513  155.4000 H   0  0  0  0  0  0  0  0  0  0  0  0
  145.9257  140.1817  153.8343 H   0  0  0  0  0  0  0  0  0  0  0  0
  145.3459  137.4898  154.2972 H   0  0  0  0  0  0  0  0  0  0  0  0
  148.0428  136.1715  153.6855 H   0  0  0  0  0  0  0  0  0  0  0  0
  147.0005  135.7993  155.0413 H   0  0  0  0  0  0  0  0  0  0  0  0
  146.8027  134.0865  153.3226 H   0  0  0  0  0  0  0  0  0  0  0  0
  145.2675  134.8798  153.6149 H   0  0  0  0  0  0  0  0  0  0  0  0
  144.5666  134.0881  151.2601 H   0  0  0  0  0  0  0  0  0  0  0  0
  146.1727  133.3716  151.0803 H   0  0  0  0  0  0  0  0  0  0  0  0
  145.6022  134.5525  149.9048 H   0  0  0  0  0  0  0  0  0  0  0  0
  145.4326  136.9022  150.5167 H   0  0  0  0  0  0  0  0  0  0  0  0
  144.4448  136.5778  151.9277 H   0  0  0  0  0  0  0  0  0  0  0  0
  145.5993  138.7036  152.1424 H   0  0  0  0  0  0  0  0  0  0  0  0
  147.1684  137.9762  151.8813 H   0  0  0  0  0  0  0  0  0  0  0  0
  148.9412  138.1425  153.5150 H   0  0  0  0  0  0  0  0  0  0  0  0
  147.9541  139.3692  152.7464 H   0  0  0  0  0  0  0  0  0  0  0  0
  150.0100  140.2888  153.8046 H   0  0  0  0  0  0  0  0  0  0  0  0
  149.5586  139.6061  155.3484 H   0  0  0  0  0  0  0  0  0  0  0  0
  151.9292  140.9721  158.0292 H   0  0  0  0  0  0  0  0  0  0  0  0
  147.1257  135.5114  151.4456 H   0  0  0  0  0  0  0  0  0  0  0  0
  1  2  1  0  0  0  0
  1 25  1  0  0  0  0
  1 26  1  0  0  0  0
  1 27  1  0  0  0  0
  2 24  1  0  0  0  0
  2  3  2  0  0  0  0
  3  4  1  0  0  0  0
  3 28  1  0  0  0  0
  4  5  2  0  0  0  0
  5  6  1  0  0  0  0
  5 29  1  0  0  0  0
  6  7  1  0  0  0  0
  6 24  2  0  0  0  0
  7  8  1  0  0  0  0
  7 30  1  0  0  0  0
  8  9  2  0  0  0  0
  8 10  1  0  0  0  0
 10 11  1  0  0  0  0
 10 31  1  0  0  0  0
 11 23  1  0  0  0  0
 11 12  1  0  0  0  0
 11 32  1  0  0  0  0
 12 13  1  0  0  0  0
 12 33  1  0  0  0  0
 12 34  1  0  0  0  0
 13 14  1  0  0  0  0
 13 35  1  0  0  0  0
 13 36  1  0  0  0  0
 14 15  1  0  0  0  0
 14 22  1  0  0  0  0
 15 21  1  0  0  0  0
 15 16  1  0  0  0  0
 15 37  1  0  0  0  0
 16 17  1  0  0  0  0
 16 38  1  0  0  0  0
 16 39  1  0  0  0  0
 17 18  1  0  0  0  0
 17 40  1  0  0  0  0
 17 41  1  0  0  0  0
 18 19  1  0  0  0  0
 18 20  1  0  0  0  0
 18 54  1  0  0  0  0
 19 42  1  0  0  0  0
 19 43  1  0  0  0  0
 19 44  1  0  0  0  0
 20 21  1  0  0  0  0
 20 45  1  0  0  0  0
 20 46  1  0  0  0  0
 21 47  1  0  0  0  0
 21 48  1  0  0  0  0
 22 23  1  0  0  0  0
 22 49  1  0  0  0  0
 22 50  1  0  0  0  0
 23 51  1  0  0  0  0
 23 52  1  0  0  0  0
 24 53  1  0  0  0  0
M  CHG  1  18   1
M  END
> <s_m_source_file>
AV-unprocessed.smi

> <i_m_source_file_index>
2583

> <i_lp_mmshare_version>
43012

> <i_f3d_flags>
0

> <s_epik_input>
W0NIM11jMVtjSF1uW2NIXWMoW2NIXTEpW05IXUMoPU8pW05IXVtDSF0yW0NIMl1bQ0gyXU4oW0NIMl1bQ0gyXTIpW0NIXTNbQ0gyXVtDSDJdTihbQ0gzXSlbQ0gyXVtDSDJdMw==

> <s_epik_cmdline>
J2VwaWtfcHl0aG9uJywgJy1waCcsICc3LjAnLCAnLXRuJywgJzgnLCAnLW1hJywgJzIwMCcsICctbWV0YWxfYmluZGluZycsICctaW1hZScsICc8aW5maWxlLm1hZT4nLCAnLW9tYWUnLCAnPG91dGZpbGUubWFlPic=

> <r_epik_Ionization_Penalty>
1.01912

> <r_epik_Ionization_Penalty_Charging>
0.000974969

> <r_epik_Ionization_Penalty_Neutral>
1.01814

> <r_epik_State_Penalty>
1.10721

> <r_epik_Charging_Adjusted_Penalty>
1.10819

> <i_epik_Tot_Q>
1

> <i_epik_Tot_abs_Q>
1

> <r_epik_Metal_State_Penalty>
1.10135

> <b_epik_Metal_Only>
0

> <s_lp_Force_Field>
OPLS_2005

> <r_lp_Energy>
33.522

> <b_lp_Chiralities_Consistent>
1

> <s_lp_Variant>
AV-unprocessed.smi:2583-5

> <Gold.Version>
5.8.1

> <Gold.Id.Protein>
6NUR|6NUR_protein|mol2

> <Gold.PLP.Fitness>
48.3588

> <Gold.PLP.PLP>
-38.5889

> <Gold.PLP.part.hbond>
-2.8846

> <Gold.PLP.part.metal>
0.0000

> <Gold.PLP.part.buried>
-0.9870

> <Gold.PLP.part.nonpolar>
-34.8690

> <Gold.PLP.part.repulsive>
0.3839

> <Gold.PLP.ligand.clash>
0.0000

> <Gold.PLP.ligand.torsion>
0.6596

> <Gold.PLP.Chemscore.Hbond>
3.6960

> <Gold.PLP.Chemscore.CHOScore>
0.0000

> <Gold.PLP.Chemscore.Metal>
0.0000

> <Gold.Chemscore.Hbonds>
donor molecule, donor type, donor heavy atom, donor atom, acceptor molecule, acceptor atom, score
      L1  H     7    30       P1  8028  0.77
      L1  H    10    31       P1  8028  1.00
      L1  H    18    54       P1  7948  1.92

> <Gold.PLP.Chemscore.Internal.Correction>
0.0011

> <Gold.Rescore>
     Score         DG    S(hbond)    S(metal)    S(lipo)     H(rot)  DE(clash)    DE(int)     intcor
     20.39     -24.23       2.59        0.00     112.47       1.20       0.29       3.56       ----

> <Gold.Chemscore.Fitness>
20.3870

> <Gold.Chemscore.DG>
-24.2341

> <Gold.Chemscore.ZeroCoef>
-5.4800

> <Gold.Chemscore.Hbond>
2.5928

> <Gold.Chemscore.Metal>
0.0000

> <Gold.Chemscore.Lipo>
112.4740

> <Gold.Chemscore.Internal_Hbond>
0.0000

> <Gold.Chemscore.DEClash>
0.2865

> <Gold.Chemscore.DEInternal>
3.5606

> <Gold.Chemscore.Rot>
1.1974

> <Gold.Chemscore.Internal.Correction>
   9.000000E+99

> <Gold.Chemscore.Hbonds>
donor molecule, donor type, donor heavy atom, donor atom, acceptor molecule, acceptor atom, score
      L1  H     7    30       P1  8028  0.75
      L1  H    10    31       P1  8028  0.92
      L1  H    18    54       P1  7948  0.89

> <Gold.Chemscore.Hbond.Weighted>
-8.6598

> <Gold.Chemscore.Metal.Weighted>
-0.0000

> <Gold.Chemscore.Lipo.Weighted>
-13.1595

> <Gold.Chemscore.Internal_Hbond.Weighted>
0.0000

> <Gold.Chemscore.DEClash.Weighted>
0.2865

> <Gold.Chemscore.DEInternal.Weighted>
3.5606

> <Gold.Chemscore.Rot.Weighted>
3.0652

> <Gold.Chemscore.Internal.Correction.Weighted>
   9.000000E+99

> <Gold.Protein.RotatedTorsions>
[ 6907 6896 6895 6894 ] final   85.06 input  -60.11 | X-H torsion
[ 7974 7965 7964 7962 ] final    2.92 input  175.53 | X-H torsion
[ 8008 7997 7996 7995 ] final   68.62 input   59.86 | X-H torsion
[ 10167 10162 10161 10158 ] final  -10.90 input  -65.29 | X-H torsion
[ 10718 10713 10712 10709 ] final  -77.87 input   66.30 | X-H torsion
[ 10763 10752 10751 10750 ] final   15.02 input  -60.55 | X-H torsion
[ 11005 11000 10999 10996 ] final  169.84 input  -57.11 | X-H torsion

> <Gold.Protein.ActiveResidues>
 VAL166  LYS551  ARG553  GLY616  TRP617  ASP618  TYR619  PRO620  LYS621  CYS622 
 ASP623  PHE694  ASN695  SER759  ASP760  ASP761  ALA762  ILE779  LEU786  VAL792 
 PHE793  MET794  SER795  GLU796  ALA797  LYS798  CYS799  TRP800  GLU811  SER814 

> <Gold.Protein.RotatedAtoms>
  152.5366  134.2645  159.8947 H   0  0  0  0  0  0  0  0  0  0  0  0  # atno 6907 bound_to 6896
  151.2604  133.4298  159.2623 H   0  0  0  0  0  0  0  0  0  0  0  0  # atno 6908 bound_to 6896
  151.0458  134.9653  159.8242 H   0  0  0  0  0  0  0  0  0  0  0  0  # atno 6909 bound_to 6896
  146.2444  140.0763  142.8359 H   0  0  0  0  0  0  0  0  0  0  0  0  # atno 7974 bound_to 7965
  155.7112  140.3494  155.4974 H   0  0  0  0  0  0  0  0  0  0  0  0  # atno 8008 bound_to 7997
  155.9354  140.1092  157.1120 H   0  0  0  0  0  0  0  0  0  0  0  0  # atno 8009 bound_to 7997
  154.4093  140.1223  156.4844 H   0  0  0  0  0  0  0  0  0  0  0  0  # atno 8010 bound_to 7997
  140.7125  143.5697  150.9106 H   0  0  0  0  0  0  0  0  0  0  0  0  # atno 10167 bound_to 10162
  156.0133  130.4503  150.3410 H   0  0  0  0  0  0  0  0  0  0  0  0  # atno 10718 bound_to 10713
  153.1565  135.6788  153.8804 H   0  0  0  0  0  0  0  0  0  0  0  0  # atno 10763 bound_to 10752
  153.8214  135.3129  155.3412 H   0  0  0  0  0  0  0  0  0  0  0  0  # atno 10764 bound_to 10752
  154.7901  135.4839  154.0122 H   0  0  0  0  0  0  0  0  0  0  0  0  # atno 10765 bound_to 10752
  140.3020  134.7587  157.3923 H   0  0  0  0  0  0  0  0  0  0  0  0  # atno 11005 bound_to 11000
  145.0772  140.9196  143.4847 LP  0  0  0  0  0  0  0  0  0  0  0  0  # atno 17320 bound_to 7965
  145.0909  139.2891  143.5735 LP  0  0  0  0  0  0  0  0  0  0  0  0  # atno 17321 bound_to 7965
  139.9423  143.6367  152.3050 LP  0  0  0  0  0  0  0  0  0  0  0  0  # atno 17342 bound_to 10162
  139.6857  144.7652  151.1529 LP  0  0  0  0  0  0  0  0  0  0  0  0  # atno 17343 bound_to 10162
  157.1505  131.0320  151.2887 LP  0  0  0  0  0  0  0  0  0  0  0  0  # atno 17370 bound_to 10713
  157.4396  130.7536  149.7058 LP  0  0  0  0  0  0  0  0  0  0  0  0  # atno 17371 bound_to 10713
  140.1101  134.5357  155.8274 LP  0  0  0  0  0  0  0  0  0  0  0  0  # atno 17394 bound_to 11000
  141.2126  133.6722  156.6672 LP  0  0  0  0  0  0  0  0  0  0  0  0  # atno 17395 bound_to 11000

$$$$
