AV-unprocessed.smi:2146|AV-procd|sdf|8741|dock9
  -GOLD-   2272011513D 1   1.00000     0.00000
 Structure written by MMmdl.
 45 46  0  0  0  0  0  0  0  0  2 V2000
  145.3779  135.8796  155.1535 C   0  0  0  0  0  0  0  0  0  0  0  0
  146.7756  135.7267  154.5093 C   0  0  1  0  0  0  0  0  0  0  0  0
  147.7703  135.0925  155.5249 C   0  0  0  0  0  0  0  0  0  0  0  0
  147.7216  135.7161  156.8449 N   0  0  0  0  0  0  0  0  0  0  0  0
  148.4657  135.3471  157.8986 C   0  0  0  0  0  0  0  0  0  0  0  0
  149.2665  134.4121  157.8591 O   0  0  0  0  0  0  0  0  0  0  0  0
  148.2621  136.1623  159.1836 C   0  0  0  0  0  0  0  0  0  0  0  0
  147.7569  135.3570  160.3079 N   0  0  0  0  0  0  0  0  0  0  0  0
  147.6409  133.9702  160.0910 C   0  0  0  0  0  0  0  0  0  0  0  0
  147.2007  133.1144  161.0326 C   0  0  0  0  0  0  0  0  0  0  0  0
  147.0308  131.6316  160.7410 C   0  0  0  0  0  0  0  0  0  0  0  0
  148.2034  131.0507  160.4866 F   0  0  0  0  0  0  0  0  0  0  0  0
  146.4678  131.0043  161.7744 F   0  0  0  0  0  0  0  0  0  0  0  0
  146.2440  131.4659  159.6787 F   0  0  0  0  0  0  0  0  0  0  0  0
  146.8162  133.6963  162.3037 C   0  0  0  0  0  0  0  0  0  0  0  0
  146.9052  135.0230  162.5223 C   0  0  0  0  0  0  0  0  0  0  0  0
  147.3949  135.9398  161.4900 C   0  0  0  0  0  0  0  0  0  0  0  0
  147.4726  137.1543  161.6757 O   0  0  0  0  0  0  0  0  0  0  0  0
  146.6734  134.9740  153.2153 N   0  3  0  0  0  0  0  0  0  0  0  0
  146.5230  133.5061  153.4174 C   0  0  0  0  0  0  0  0  0  0  0  0
  146.4970  132.7574  152.0751 C   0  0  0  0  0  0  0  0  0  0  0  0
  145.4345  133.2551  151.2769 O   0  0  0  0  0  0  0  0  0  0  0  0
  145.6132  134.6308  150.9768 C   0  0  0  0  0  0  0  0  0  0  0  0
  145.6227  135.4556  152.2759 C   0  0  0  0  0  0  0  0  0  0  0  0
  145.4194  136.4376  156.0887 H   0  0  0  0  0  0  0  0  0  0  0  0
  144.9385  134.9063  155.3723 H   0  0  0  0  0  0  0  0  0  0  0  0
  144.6803  136.4236  154.5194 H   0  0  0  0  0  0  0  0  0  0  0  0
  147.1504  136.7235  154.2708 H   0  0  0  0  0  0  0  0  0  0  0  0
  147.5539  134.0307  155.6479 H   0  0  0  0  0  0  0  0  0  0  0  0
  148.8010  135.1666  155.1761 H   0  0  0  0  0  0  0  0  0  0  0  0
  147.0815  136.4886  156.9631 H   0  0  0  0  0  0  0  0  0  0  0  0
  149.2092  136.6266  159.4649 H   0  0  0  0  0  0  0  0  0  0  0  0
  147.5930  136.9957  158.9639 H   0  0  0  0  0  0  0  0  0  0  0  0
  147.9242  133.6465  159.0997 H   0  0  0  0  0  0  0  0  0  0  0  0
  146.4533  133.0590  163.0966 H   0  0  0  0  0  0  0  0  0  0  0  0
  146.6105  135.4221  163.4818 H   0  0  0  0  0  0  0  0  0  0  0  0
  147.3395  133.1042  154.0140 H   0  0  0  0  0  0  0  0  0  0  0  0
  145.6017  133.3062  153.9670 H   0  0  0  0  0  0  0  0  0  0  0  0
  147.4484  132.8600  151.5503 H   0  0  0  0  0  0  0  0  0  0  0  0
  146.3397  131.6919  152.2435 H   0  0  0  0  0  0  0  0  0  0  0  0
  146.5384  134.7763  150.4165 H   0  0  0  0  0  0  0  0  0  0  0  0
  144.7978  134.9585  150.3316 H   0  0  0  0  0  0  0  0  0  0  0  0
  144.6461  135.4046  152.7607 H   0  0  0  0  0  0  0  0  0  0  0  0
  145.7980  136.4935  151.9956 H   0  0  0  0  0  0  0  0  0  0  0  0
  147.5521  135.1147  152.7373 H   0  0  0  0  0  0  0  0  0  0  0  0
  1  2  1  0  0  0  0
  1 25  1  0  0  0  0
  1 26  1  0  0  0  0
  1 27  1  0  0  0  0
  2  3  1  0  0  0  0
  2 19  1  0  0  0  0
  2 28  1  0  0  0  0
  3  4  1  0  0  0  0
  3 29  1  0  0  0  0
  3 30  1  0  0  0  0
  4  5  1  0  0  0  0
  4 31  1  0  0  0  0
  5  6  2  0  0  0  0
  5  7  1  0  0  0  0
  7  8  1  0  0  0  0
  7 32  1  0  0  0  0
  7 33  1  0  0  0  0
  8 17  1  0  0  0  0
  8  9  1  0  0  0  0
  9 10  2  0  0  0  0
  9 34  1  0  0  0  0
 10 11  1  0  0  0  0
 10 15  1  0  0  0  0
 11 12  1  0  0  0  0
 11 13  1  0  0  0  0
 11 14  1  0  0  0  0
 15 16  2  0  0  0  0
 15 35  1  0  0  0  0
 16 17  1  0  0  0  0
 16 36  1  0  0  0  0
 17 18  2  0  0  0  0
 19 24  1  0  0  0  0
 19 20  1  0  0  0  0
 19 45  1  0  0  0  0
 20 21  1  0  0  0  0
 20 37  1  0  0  0  0
 20 38  1  0  0  0  0
 21 22  1  0  0  0  0
 21 39  1  0  0  0  0
 21 40  1  0  0  0  0
 22 23  1  0  0  0  0
 23 24  1  0  0  0  0
 23 41  1  0  0  0  0
 23 42  1  0  0  0  0
 24 43  1  0  0  0  0
 24 44  1  0  0  0  0
M  CHG  1  19   1
M  END
> <s_m_source_file>
AV-unprocessed.smi

> <i_m_source_file_index>
2146

> <i_lp_mmshare_version>
43012

> <i_f3d_flags>
0

> <s_epik_input>
W0NIMl0xW0NIMl1PW0NIMl1bQ0gyXU4xW0NASF0oW0NIM10pW0NIMl1bTkhdQyg9TylbQ0gyXW4yW2NIXWMoQyhGKShGKUYpW2NIXVtjSF1jMj1P

> <s_epik_cmdline>
J2VwaWtfcHl0aG9uJywgJy1waCcsICc3LjAnLCAnLXRuJywgJzgnLCAnLW1hJywgJzIwMCcsICctbWV0YWxfYmluZGluZycsICctaW1hZScsICc8aW5maWxlLm1hZT4nLCAnLW9tYWUnLCAnPG91dGZpbGUubWFlPic=

> <r_lp_tautomer_probability>
1

> <r_epik_Ionization_Penalty>
0.656654

> <r_epik_Ionization_Penalty_Charging>
0.656653

> <r_epik_Ionization_Penalty_Neutral>
9.12373e-08

> <r_epik_State_Penalty>
0.675641

> <r_epik_Charging_Adjusted_Penalty>
1.33229

> <i_epik_Tot_Q>
1

> <i_epik_Tot_abs_Q>
1

> <r_epik_Metal_State_Penalty>
0.675692

> <b_epik_Metal_Only>
0

> <s_lp_Force_Field>
OPLS_2005

> <r_lp_Energy>
32.7302

> <b_lp_Chiralities_Consistent>
1

> <s_lp_Variant>
AV-unprocessed.smi:2146-4

> <Gold.Version>
5.8.1

> <Gold.Id.Protein>
6NUR|6NUR_protein|mol2

> <Gold.PLP.Fitness>
47.4357

> <Gold.PLP.PLP>
-34.9064

> <Gold.PLP.part.hbond>
-4.0000

> <Gold.PLP.part.metal>
0.0000

> <Gold.PLP.part.buried>
-4.3865

> <Gold.PLP.part.nonpolar>
-26.7257

> <Gold.PLP.part.repulsive>
0.1420

> <Gold.PLP.ligand.clash>
1.1905

> <Gold.PLP.ligand.torsion>
0.3033

> <Gold.PLP.Chemscore.Hbond>
4.7280

> <Gold.PLP.Chemscore.CHOScore>
0.0000

> <Gold.PLP.Chemscore.Metal>
0.0000

> <Gold.Chemscore.Hbonds>
donor molecule, donor type, donor heavy atom, donor atom, acceptor molecule, acceptor atom, score
      L1  H    19    45       P1  7948  2.00
      P1  H  6896  6908       L1     6  0.91
      P1  H  6931  6943       L1    18  0.96
      P1  H  6934  6947       L1    18  0.82

> <Gold.PLP.Chemscore.Internal.Correction>
0.1423

> <Gold.Rescore>
     Score         DG    S(hbond)    S(metal)    S(lipo)     H(rot)  DE(clash)    DE(int)     intcor
     17.30     -19.06       3.63        0.00      60.08       2.18       0.01       1.75       ----

> <Gold.Chemscore.Fitness>
17.3016

> <Gold.Chemscore.DG>
-19.0555

> <Gold.Chemscore.ZeroCoef>
-5.4800

> <Gold.Chemscore.Hbond>
3.6314

> <Gold.Chemscore.Metal>
0.0000

> <Gold.Chemscore.Lipo>
60.0751

> <Gold.Chemscore.Internal_Hbond>
0.0000

> <Gold.Chemscore.DEClash>
0.0082

> <Gold.Chemscore.DEInternal>
1.7457

> <Gold.Chemscore.Rot>
2.1805

> <Gold.Chemscore.Internal.Correction>
   9.000000E+99

> <Gold.Chemscore.Hbonds>
donor molecule, donor type, donor heavy atom, donor atom, acceptor molecule, acceptor atom, score
      L1  H    19    45       P1  7948  0.96
      P1  H  6896  6908       L1     6  0.83
      P1  H  6931  6943       L1    18  0.92
      P1  H  6934  6947       L1    18  0.76

> <Gold.Chemscore.Hbond.Weighted>
-12.1289

> <Gold.Chemscore.Metal.Weighted>
-0.0000

> <Gold.Chemscore.Lipo.Weighted>
-7.0288

> <Gold.Chemscore.Internal_Hbond.Weighted>
0.0000

> <Gold.Chemscore.DEClash.Weighted>
0.0082

> <Gold.Chemscore.DEInternal.Weighted>
1.7457

> <Gold.Chemscore.Rot.Weighted>
5.5822

> <Gold.Chemscore.Internal.Correction.Weighted>
   9.000000E+99

> <Gold.Protein.RotatedTorsions>
[ 6907 6896 6895 6894 ] final  149.24 input  -60.11 | X-H torsion
[ 7974 7965 7964 7962 ] final  -33.36 input  175.53 | X-H torsion
[ 8008 7997 7996 7995 ] final   10.25 input   59.86 | X-H torsion
[ 10167 10162 10161 10158 ] final   61.84 input  -65.29 | X-H torsion
[ 10718 10713 10712 10709 ] final  149.77 input   66.30 | X-H torsion
[ 10763 10752 10751 10750 ] final -169.76 input  -60.55 | X-H torsion
[ 11005 11000 10999 10996 ] final -167.23 input  -57.11 | X-H torsion

> <Gold.Protein.ActiveResidues>
 VAL166  LYS551  ARG553  GLY616  TRP617  ASP618  TYR619  PRO620  LYS621  CYS622 
 ASP623  PHE694  ASN695  SER759  ASP760  ASP761  ALA762  ILE779  LEU786  VAL792 
 PHE793  MET794  SER795  GLU796  ALA797  LYS798  CYS799  TRP800  GLU811  SER814 

> <Gold.Protein.RotatedAtoms>
  152.1306  133.4406  159.4718 H   0  0  0  0  0  0  0  0  0  0  0  0  # atno 6907 bound_to 6896
  150.6878  134.2425  159.4487 H   0  0  0  0  0  0  0  0  0  0  0  0  # atno 6908 bound_to 6896
  152.0308  134.9768  160.0623 H   0  0  0  0  0  0  0  0  0  0  0  0  # atno 6909 bound_to 6896
  146.0916  140.5907  142.8861 H   0  0  0  0  0  0  0  0  0  0  0  0  # atno 7974 bound_to 7965
  154.7909  140.2835  155.5992 H   0  0  0  0  0  0  0  0  0  0  0  0  # atno 8008 bound_to 7997
  156.2964  140.2605  156.2685 H   0  0  0  0  0  0  0  0  0  0  0  0  # atno 8009 bound_to 7997
  154.9672  140.0376  157.2207 H   0  0  0  0  0  0  0  0  0  0  0  0  # atno 8010 bound_to 7997
  140.1504  144.4468  150.6762 H   0  0  0  0  0  0  0  0  0  0  0  0  # atno 10167 bound_to 10162
  157.2919  131.0855  151.1455 H   0  0  0  0  0  0  0  0  0  0  0  0  # atno 10718 bound_to 10713
  154.6488  135.2908  155.0013 H   0  0  0  0  0  0  0  0  0  0  0  0  # atno 10763 bound_to 10752
  154.1113  135.6562  153.4889 H   0  0  0  0  0  0  0  0  0  0  0  0  # atno 10764 bound_to 10752
  153.0365  135.5266  154.7387 H   0  0  0  0  0  0  0  0  0  0  0  0  # atno 10765 bound_to 10752
  140.5555  134.5385  157.5132 H   0  0  0  0  0  0  0  0  0  0  0  0  # atno 11005 bound_to 11000
  144.7364  140.4822  143.6900 LP  0  0  0  0  0  0  0  0  0  0  0  0  # atno 17320 bound_to 7965
  145.6027  139.1505  143.3120 LP  0  0  0  0  0  0  0  0  0  0  0  0  # atno 17321 bound_to 7965
  140.6706  143.2284  151.5635 LP  0  0  0  0  0  0  0  0  0  0  0  0  # atno 17342 bound_to 10162
  139.5428  144.2600  152.1385 LP  0  0  0  0  0  0  0  0  0  0  0  0  # atno 17343 bound_to 10162
  157.2849  130.6768  149.6084 LP  0  0  0  0  0  0  0  0  0  0  0  0  # atno 17370 bound_to 10713
  155.9667  130.4438  150.5438 LP  0  0  0  0  0  0  0  0  0  0  0  0  # atno 17371 bound_to 10713
  139.9433  134.7747  156.0623 LP  0  0  0  0  0  0  0  0  0  0  0  0  # atno 17394 bound_to 11000
  141.1146  133.6632  156.3062 LP  0  0  0  0  0  0  0  0  0  0  0  0  # atno 17395 bound_to 11000

$$$$
