AV-unprocessed.smi:2568|AV-procd|sdf|10101|dock2
  -GOLD-   2272014113D 1   1.00000     0.00000
 Structure written by MMmdl.
 23 24  0  0  0  0  0  0  0  0  2 V2000
  151.7982  140.8178  158.9242 C   0  0  0  0  0  0  0  0  0  0  0  0
  151.5301  140.5897  157.4545 C   0  0  0  0  0  0  0  0  0  0  0  0
  152.4422  140.2386  156.5310 N   0  5  0  0  0  0  0  0  0  0  0  0
  151.8624  140.1276  155.3530 N   0  0  0  0  0  0  0  0  0  0  0  0
  150.5703  140.4270  155.5599 C   0  0  0  0  0  0  0  0  0  0  0  0
  149.5018  140.3978  154.4845 C   0  0  1  0  0  0  0  0  0  0  0  0
  149.3415  138.9798  153.9000 C   0  0  0  0  0  0  0  0  0  0  0  0
  148.3028  138.9599  152.8697 N   0  0  0  0  0  0  0  0  0  0  0  0
  147.0400  139.4890  153.3802 C   0  0  0  0  0  0  0  0  0  0  0  0
  147.2510  140.8926  153.9726 C   0  0  0  0  0  0  0  0  0  0  0  0
  148.2415  140.8322  154.9923 O   0  0  0  0  0  0  0  0  0  0  0  0
  150.3498  140.7018  156.8543 N   0  0  0  0  0  0  0  0  0  0  0  0
  152.8410  140.6082  159.1628 H   0  0  0  0  0  0  0  0  0  0  0  0
  151.1672  140.1669  159.5292 H   0  0  0  0  0  0  0  0  0  0  0  0
  151.5839  141.8530  159.1893 H   0  0  0  0  0  0  0  0  0  0  0  0
  149.8187  141.0853  153.6977 H   0  0  0  0  0  0  0  0  0  0  0  0
  150.2881  138.6404  153.4787 H   0  0  0  0  0  0  0  0  0  0  0  0
  149.0856  138.2812  154.6978 H   0  0  0  0  0  0  0  0  0  0  0  0
  148.1670  138.0083  152.5448 H   0  0  0  0  0  0  0  0  0  0  0  0
  146.2997  139.5263  152.5810 H   0  0  0  0  0  0  0  0  0  0  0  0
  146.6414  138.8240  154.1475 H   0  0  0  0  0  0  0  0  0  0  0  0
  147.5452  141.6052  153.2003 H   0  0  0  0  0  0  0  0  0  0  0  0
  146.3209  141.2598  154.4065 H   0  0  0  0  0  0  0  0  0  0  0  0
  1 13  1  0  0  0  0
  1 14  1  0  0  0  0
  1 15  1  0  0  0  0
  1  2  1  0  0  0  0
  2 12  2  0  0  0  0
  2  3  1  0  0  0  0
  3  4  1  0  0  0  0
  4  5  2  0  0  0  0
  5 12  1  0  0  0  0
  5  6  1  0  0  0  0
  6 11  1  0  0  0  0
  6  7  1  0  0  0  0
  6 16  1  0  0  0  0
  7  8  1  0  0  0  0
  7 17  1  0  0  0  0
  7 18  1  0  0  0  0
  8  9  1  0  0  0  0
  8 19  1  0  0  0  0
  9 10  1  0  0  0  0
  9 20  1  0  0  0  0
  9 21  1  0  0  0  0
 10 11  1  0  0  0  0
 10 22  1  0  0  0  0
 10 23  1  0  0  0  0
M  CHG  1   3  -1
M  END
> <s_m_source_file>
AV-unprocessed.smi

> <i_m_source_file_index>
2568

> <i_lp_mmshare_version>
43012

> <i_f3d_flags>
0

> <s_epik_input>
W0NIM11jMW5bbkhdYyhuMSlbQ0BASF0yW0NIMl1bTkhdW0NIMl1bQ0gyXU8y

> <s_epik_cmdline>
J2VwaWtfcHl0aG9uJywgJy1waCcsICc3LjAnLCAnLXRuJywgJzgnLCAnLW1hJywgJzIwMCcsICctbWV0YWxfYmluZGluZycsICctaW1hZScsICc8aW5maWxlLm1hZT4nLCAnLW9tYWUnLCAnPG91dGZpbGUubWFlPic=

> <r_epik_Ionization_Penalty>
17.7898

> <r_epik_Ionization_Penalty_Charging>
16.2165

> <r_epik_Ionization_Penalty_Neutral>
1.5733

> <r_epik_State_Penalty>
6.78491

> <r_epik_Charging_Adjusted_Penalty>
23.0014

> <i_epik_Tot_Q>
-1

> <i_epik_Tot_abs_Q>
1

> <r_epik_Metal_State_Penalty>
3.02615

> <b_epik_Metal_Only>
1

> <s_lp_Force_Field>
OPLS_2005

> <r_lp_Energy>
14.4772

> <b_lp_Chiralities_Consistent>
1

> <s_lp_Variant>
AV-unprocessed.smi:2568-14

> <Gold.Version>
5.8.1

> <Gold.Id.Protein>
6NUR|6NUR_protein|mol2

> <Gold.PLP.Fitness>
29.3796

> <Gold.PLP.PLP>
-19.4728

> <Gold.PLP.part.hbond>
-3.5607

> <Gold.PLP.part.metal>
0.0000

> <Gold.PLP.part.buried>
-0.0158

> <Gold.PLP.part.nonpolar>
-14.9995

> <Gold.PLP.part.repulsive>
0.1305

> <Gold.PLP.ligand.clash>
0.0000

> <Gold.PLP.ligand.torsion>
0.0342

> <Gold.PLP.Chemscore.Hbond>
3.3216

> <Gold.PLP.Chemscore.CHOScore>
0.0000

> <Gold.PLP.Chemscore.Metal>
0.0000

> <Gold.Chemscore.Hbonds>
donor molecule, donor type, donor heavy atom, donor atom, acceptor molecule, acceptor atom, score
      L1  H     8    19       P1  7948  0.95
      P1  H  7989  7998       L1     4  0.34
      P1  H  7997  8008       L1     3  2.00

> <Gold.PLP.Chemscore.Internal.Correction>
0.0105

> <Gold.Rescore>
     Score         DG    S(hbond)    S(metal)    S(lipo)     H(rot)  DE(clash)    DE(int)     intcor
     13.15     -13.27       1.89        0.00      34.44       1.00       0.11       0.01       ----

> <Gold.Chemscore.Fitness>
13.1527

> <Gold.Chemscore.DG>
-13.2695

> <Gold.Chemscore.ZeroCoef>
-5.4800

> <Gold.Chemscore.Hbond>
1.8921

> <Gold.Chemscore.Metal>
0.0000

> <Gold.Chemscore.Lipo>
34.4424

> <Gold.Chemscore.Internal_Hbond>
0.0000

> <Gold.Chemscore.DEClash>
0.1059

> <Gold.Chemscore.DEInternal>
0.0109

> <Gold.Chemscore.Rot>
1.0000

> <Gold.Chemscore.Internal.Correction>
   9.000000E+99

> <Gold.Chemscore.Hbonds>
donor molecule, donor type, donor heavy atom, donor atom, acceptor molecule, acceptor atom, score
      L1  H     8    19       P1  7948  0.86
      P1  H  7989  7998       L1     4  0.01
      P1  H  7997  8008       L1     3  0.88

> <Gold.Chemscore.Hbond.Weighted>
-6.3197

> <Gold.Chemscore.Metal.Weighted>
-0.0000

> <Gold.Chemscore.Lipo.Weighted>
-4.0298

> <Gold.Chemscore.Internal_Hbond.Weighted>
0.0000

> <Gold.Chemscore.DEClash.Weighted>
0.1059

> <Gold.Chemscore.DEInternal.Weighted>
0.0109

> <Gold.Chemscore.Rot.Weighted>
2.5600

> <Gold.Chemscore.Internal.Correction.Weighted>
   9.000000E+99

> <Gold.Protein.RotatedTorsions>
[ 6907 6896 6895 6894 ] final   36.19 input  -60.11 | X-H torsion
[ 7974 7965 7964 7962 ] final  112.91 input  175.53 | X-H torsion
[ 8008 7997 7996 7995 ] final  -52.40 input   59.86 | X-H torsion
[ 10167 10162 10161 10158 ] final  -46.82 input  -65.29 | X-H torsion
[ 10718 10713 10712 10709 ] final  -11.42 input   66.30 | X-H torsion
[ 10763 10752 10751 10750 ] final  -34.16 input  -60.55 | X-H torsion
[ 11005 11000 10999 10996 ] final   30.18 input  -57.11 | X-H torsion

> <Gold.Protein.ActiveResidues>
 VAL166  LYS551  ARG553  GLY616  TRP617  ASP618  TYR619  PRO620  LYS621  CYS622 
 ASP623  PHE694  ASN695  SER759  ASP760  ASP761  ALA762  ILE779  LEU786  VAL792 
 PHE793  MET794  SER795  GLU796  ALA797  LYS798  CYS799  TRP800  GLU811  SER814 

> <Gold.Protein.RotatedAtoms>
  152.1264  134.9167  160.0560 H   0  0  0  0  0  0  0  0  0  0  0  0  # atno 6907 bound_to 6896
  152.0288  133.3924  159.4297 H   0  0  0  0  0  0  0  0  0  0  0  0  # atno 6908 bound_to 6896
  150.6853  134.3465  159.4934 H   0  0  0  0  0  0  0  0  0  0  0  0  # atno 6909 bound_to 6896
  145.2236  139.2851  143.4205 H   0  0  0  0  0  0  0  0  0  0  0  0  # atno 7974 bound_to 7965
  154.4106  140.1224  156.4986 H   0  0  0  0  0  0  0  0  0  0  0  0  # atno 8008 bound_to 7997
  155.6918  140.3495  155.4877 H   0  0  0  0  0  0  0  0  0  0  0  0  # atno 8009 bound_to 7997
  155.9462  140.1096  157.1004 H   0  0  0  0  0  0  0  0  0  0  0  0  # atno 8010 bound_to 7997
  140.6801  143.2813  151.3838 H   0  0  0  0  0  0  0  0  0  0  0  0  # atno 10167 bound_to 10162
  156.6593  130.4977  149.6036 H   0  0  0  0  0  0  0  0  0  0  0  0  # atno 10718 bound_to 10713
  153.8422  135.6856  153.4801 H   0  0  0  0  0  0  0  0  0  0  0  0  # atno 10763 bound_to 10752
  153.1447  135.4643  154.9546 H   0  0  0  0  0  0  0  0  0  0  0  0  # atno 10764 bound_to 10752
  154.7840  135.3278  154.7874 H   0  0  0  0  0  0  0  0  0  0  0  0  # atno 10765 bound_to 10752
  140.2971  134.2798  155.7762 H   0  0  0  0  0  0  0  0  0  0  0  0  # atno 11005 bound_to 11000
  146.3370  140.2549  142.8600 LP  0  0  0  0  0  0  0  0  0  0  0  0  # atno 17320 bound_to 7965
  144.9742  140.8398  143.5436 LP  0  0  0  0  0  0  0  0  0  0  0  0  # atno 17321 bound_to 7965
  139.6118  144.1083  152.2306 LP  0  0  0  0  0  0  0  0  0  0  0  0  # atno 17342 bound_to 10162
  140.0499  144.5941  150.7344 LP  0  0  0  0  0  0  0  0  0  0  0  0  # atno 17343 bound_to 10162
  156.2023  130.6627  151.1181 LP  0  0  0  0  0  0  0  0  0  0  0  0  # atno 17370 bound_to 10713
  157.7115  131.0732  150.6484 LP  0  0  0  0  0  0  0  0  0  0  0  0  # atno 17371 bound_to 10713
  141.2135  133.7622  156.9712 LP  0  0  0  0  0  0  0  0  0  0  0  0  # atno 17394 bound_to 11000
  140.1142  134.9457  157.2110 LP  0  0  0  0  0  0  0  0  0  0  0  0  # atno 17395 bound_to 11000

$$$$
