AV-unprocessed.smi:3265|AV-procd|sdf|12496|dock9
  -GOLD-   2272018403D 1   1.00000     0.00000
 Structure written by MMmdl.
 41 42  0  0  0  0  0  0  0  0  2 V2000
  144.2189  134.6203  151.3048 C   0  0  0  0  0  0  0  0  0  0  0  0
  145.6477  134.3583  151.8015 C   0  0  2  0  0  0  0  0  0  0  0  0
  145.9088  132.8552  151.9936 C   0  0  0  0  0  0  0  0  0  0  0  0
  147.3339  132.6266  152.5115 C   0  0  0  0  0  0  0  0  0  0  0  0
  147.5874  133.4311  153.7962 C   0  0  0  0  0  0  0  0  0  0  0  0
  147.3296  134.8790  153.5838 N   0  3  2  0  0  0  0  0  0  0  0  0
  147.6955  135.6909  154.7721 C   0  0  0  0  0  0  0  0  0  0  0  0
  149.2013  135.6228  155.0926 C   0  0  0  0  0  0  0  0  0  0  0  0
  149.8689  136.8866  154.8049 N   0  0  0  0  0  0  0  0  0  0  0  0
  151.1103  137.2080  155.2040 C   0  0  0  0  0  0  0  0  0  0  0  0
  151.8094  136.4663  155.8940 O   0  0  0  0  0  0  0  0  0  0  0  0
  151.6432  138.5766  154.7714 C   0  0  0  0  0  0  0  0  0  0  0  0
  150.9424  139.6615  155.4369 N   0  0  0  0  0  0  0  0  0  0  0  0
  150.7445  139.8525  156.7889 C   0  0  0  0  0  0  0  0  0  0  0  0
  150.0234  141.0026  156.9358 C   0  0  0  0  0  0  0  0  0  0  0  0
  149.8293  141.4531  155.6002 C   0  0  0  0  0  0  0  0  0  0  0  0
  150.3802  140.6491  154.7055 N   0  0  0  0  0  0  0  0  0  0  0  0
  145.9408  135.1230  153.1084 C   0  0  0  0  0  0  0  0  0  0  0  0
  143.4780  134.2828  152.0304 H   0  0  0  0  0  0  0  0  0  0  0  0
  144.0267  134.0986  150.3668 H   0  0  0  0  0  0  0  0  0  0  0  0
  144.0528  135.6835  151.1290 H   0  0  0  0  0  0  0  0  0  0  0  0
  146.3327  134.7255  151.0354 H   0  0  0  0  0  0  0  0  0  0  0  0
  145.1901  132.4386  152.7006 H   0  0  0  0  0  0  0  0  0  0  0  0
  145.7663  132.3220  151.0530 H   0  0  0  0  0  0  0  0  0  0  0  0
  147.4957  131.5647  152.6989 H   0  0  0  0  0  0  0  0  0  0  0  0
  148.0547  132.9188  151.7465 H   0  0  0  0  0  0  0  0  0  0  0  0
  146.9541  133.0616  154.6045 H   0  0  0  0  0  0  0  0  0  0  0  0
  148.6215  133.2815  154.1096 H   0  0  0  0  0  0  0  0  0  0  0  0
  147.3750  136.7240  154.6290 H   0  0  0  0  0  0  0  0  0  0  0  0
  147.1448  135.3165  155.6362 H   0  0  0  0  0  0  0  0  0  0  0  0
  149.3588  135.3487  156.1374 H   0  0  0  0  0  0  0  0  0  0  0  0
  149.6932  134.8570  154.4940 H   0  0  0  0  0  0  0  0  0  0  0  0
  149.3638  137.5549  154.2406 H   0  0  0  0  0  0  0  0  0  0  0  0
  152.7067  138.6456  155.0032 H   0  0  0  0  0  0  0  0  0  0  0  0
  151.5410  138.6972  153.6915 H   0  0  0  0  0  0  0  0  0  0  0  0
  151.1266  139.1607  157.5252 H   0  0  0  0  0  0  0  0  0  0  0  0
  149.6869  141.4543  157.8571 H   0  0  0  0  0  0  0  0  0  0  0  0
  149.3070  142.3339  155.2563 H   0  0  0  0  0  0  0  0  0  0  0  0
  145.7869  136.1871  152.9333 H   0  0  0  0  0  0  0  0  0  0  0  0
  145.2345  134.8268  153.8858 H   0  0  0  0  0  0  0  0  0  0  0  0
  147.9510  135.1668  152.8413 H   0  0  0  0  0  0  0  0  0  0  0  0
  1  2  1  0  0  0  0
  1 19  1  0  0  0  0
  1 20  1  0  0  0  0
  1 21  1  0  0  0  0
  2 18  1  0  0  0  0
  2  3  1  0  0  0  0
  2 22  1  0  0  0  0
  3  4  1  0  0  0  0
  3 23  1  0  0  0  0
  3 24  1  0  0  0  0
  4  5  1  0  0  0  0
  4 25  1  0  0  0  0
  4 26  1  0  0  0  0
  5  6  1  0  0  0  0
  5 27  1  0  0  0  0
  5 28  1  0  0  0  0
  6  7  1  0  0  0  0
  6 18  1  0  0  0  0
  6 41  1  0  0  0  0
  7  8  1  0  0  0  0
  7 29  1  0  0  0  0
  7 30  1  0  0  0  0
  8  9  1  0  0  0  0
  8 31  1  0  0  0  0
  8 32  1  0  0  0  0
  9 10  1  0  0  0  0
  9 33  1  0  0  0  0
 10 11  2  0  0  0  0
 10 12  1  0  0  0  0
 12 13  1  0  0  0  0
 12 34  1  0  0  0  0
 12 35  1  0  0  0  0
 13 17  1  0  0  0  0
 13 14  1  0  0  0  0
 14 15  2  0  0  0  0
 14 36  1  0  0  0  0
 15 16  1  0  0  0  0
 15 37  1  0  0  0  0
 16 17  2  0  0  0  0
 16 38  1  0  0  0  0
 18 39  1  0  0  0  0
 18 40  1  0  0  0  0
M  CHG  1   6   1
M  END
> <s_m_source_file>
AV-unprocessed.smi

> <i_m_source_file_index>
3265

> <i_lp_mmshare_version>
43012

> <i_f3d_flags>
0

> <s_epik_input>
W0NIM11bQ0BASF0xW0NIMl1bQ0gyXVtDSDJdTihbQ0gyXTEpW0NIMl1bQ0gyXVtOSF1DKD1PKVtDSDJdbjJbY0hdW2NIXVtjSF1uMg==

> <s_epik_cmdline>
J2VwaWtfcHl0aG9uJywgJy1waCcsICc3LjAnLCAnLXRuJywgJzgnLCAnLW1hJywgJzIwMCcsICctbWV0YWxfYmluZGluZycsICctaW1hZScsICc8aW5maWxlLm1hZT4nLCAnLW9tYWUnLCAnPG91dGZpbGUubWFlPic=

> <r_lp_tautomer_probability>
1

> <r_epik_Ionization_Penalty>
0.00231455

> <r_epik_Ionization_Penalty_Charging>
0.00230623

> <r_epik_Ionization_Penalty_Neutral>
8.31727e-06

> <r_epik_State_Penalty>
0.00159065

> <r_epik_Charging_Adjusted_Penalty>
0.00389688

> <i_epik_Tot_Q>
1

> <i_epik_Tot_abs_Q>
1

> <r_epik_Metal_State_Penalty>
-0

> <b_epik_Metal_Only>
0

> <s_lp_Force_Field>
OPLS_2005

> <r_lp_Energy>
16.3652

> <b_lp_Chiralities_Consistent>
1

> <s_lp_Variant>
AV-unprocessed.smi:3265-1

> <Gold.Version>
5.8.1

> <Gold.Id.Protein>
6NUR|6NUR_protein|mol2

> <Gold.PLP.Fitness>
42.8327

> <Gold.PLP.PLP>
-29.1120

> <Gold.PLP.part.hbond>
-3.7776

> <Gold.PLP.part.metal>
0.0000

> <Gold.PLP.part.buried>
-1.4542

> <Gold.PLP.part.nonpolar>
-23.9766

> <Gold.PLP.part.repulsive>
0.1915

> <Gold.PLP.ligand.clash>
0.0000

> <Gold.PLP.ligand.torsion>
0.5725

> <Gold.PLP.Chemscore.Hbond>
3.9440

> <Gold.PLP.Chemscore.CHOScore>
1.0000

> <Gold.PLP.Chemscore.Metal>
0.0000

> <Gold.Chemscore.Hbonds>
donor molecule, donor type, donor heavy atom, donor atom, acceptor molecule, acceptor atom, score
      L1  H     6    41       P1  7948  2.00
      P1  H  7989  7998       L1    17  0.90
      P1  H 10752 10765       L1    11  1.00
      L1  C    16    38       P1  8028  1.00

> <Gold.PLP.Chemscore.Internal.Correction>
0.0338

> <Gold.Rescore>
     Score         DG    S(hbond)    S(metal)    S(lipo)     H(rot)  DE(clash)    DE(int)     intcor
     16.53     -17.05       2.88        0.00      56.93       1.84       0.03       0.49       ----

> <Gold.Chemscore.Fitness>
16.5346

> <Gold.Chemscore.DG>
-17.0537

> <Gold.Chemscore.ZeroCoef>
-5.4800

> <Gold.Chemscore.Hbond>
2.8803

> <Gold.Chemscore.Metal>
0.0000

> <Gold.Chemscore.Lipo>
56.9272

> <Gold.Chemscore.Internal_Hbond>
0.0000

> <Gold.Chemscore.DEClash>
0.0294

> <Gold.Chemscore.DEInternal>
0.4897

> <Gold.Chemscore.Rot>
1.8386

> <Gold.Chemscore.Internal.Correction>
   9.000000E+99

> <Gold.Chemscore.Hbonds>
donor molecule, donor type, donor heavy atom, donor atom, acceptor molecule, acceptor atom, score
      L1  H     6    41       P1  7948  0.98
      P1  H  7989  7998       L1    17  0.26
      P1  H 10752 10765       L1    11  0.74

> <Gold.Chemscore.Hbond.Weighted>
-9.6201

> <Gold.Chemscore.Metal.Weighted>
-0.0000

> <Gold.Chemscore.Lipo.Weighted>
-6.6605

> <Gold.Chemscore.Internal_Hbond.Weighted>
0.0000

> <Gold.Chemscore.DEClash.Weighted>
0.0294

> <Gold.Chemscore.DEInternal.Weighted>
0.4897

> <Gold.Chemscore.Rot.Weighted>
4.7069

> <Gold.Chemscore.Internal.Correction.Weighted>
   9.000000E+99

> <Gold.Protein.RotatedTorsions>
[ 6907 6896 6895 6894 ] final  137.94 input  -60.11 | X-H torsion
[ 7974 7965 7964 7962 ] final   59.83 input  175.53 | X-H torsion
[ 8008 7997 7996 7995 ] final   10.28 input   59.86 | X-H torsion
[ 10167 10162 10161 10158 ] final -160.40 input  -65.29 | X-H torsion
[ 10718 10713 10712 10709 ] final -151.29 input   66.30 | X-H torsion
[ 10763 10752 10751 10750 ] final -167.10 input  -60.55 | X-H torsion
[ 11005 11000 10999 10996 ] final  -49.18 input  -57.11 | X-H torsion

> <Gold.Protein.ActiveResidues>
 VAL166  LYS551  ARG553  GLY616  TRP617  ASP618  TYR619  PRO620  LYS621  CYS622 
 ASP623  PHE694  ASN695  SER759  ASP760  ASP761  ALA762  ILE779  LEU786  VAL792 
 PHE793  MET794  SER795  GLU796  ALA797  LYS798  CYS799  TRP800  GLU811  SER814 

> <Gold.Protein.RotatedAtoms>
  152.2724  133.5394  159.5446 H   0  0  0  0  0  0  0  0  0  0  0  0  # atno 6907 bound_to 6896
  150.7164  134.0679  159.3863 H   0  0  0  0  0  0  0  0  0  0  0  0  # atno 6908 bound_to 6896
  151.8593  135.0530  160.0518 H   0  0  0  0  0  0  0  0  0  0  0  0  # atno 6909 bound_to 6896
  145.9028  139.3594  143.0582 H   0  0  0  0  0  0  0  0  0  0  0  0  # atno 7974 bound_to 7965
  154.7913  140.2836  155.5990 H   0  0  0  0  0  0  0  0  0  0  0  0  # atno 8008 bound_to 7997
  156.2965  140.2604  156.2689 H   0  0  0  0  0  0  0  0  0  0  0  0  # atno 8009 bound_to 7997
  154.9667  140.0376  157.2205 H   0  0  0  0  0  0  0  0  0  0  0  0  # atno 8010 bound_to 7997
  139.6542  144.0028  152.2183 H   0  0  0  0  0  0  0  0  0  0  0  0  # atno 10167 bound_to 10162
  156.4573  130.8196  151.2427 H   0  0  0  0  0  0  0  0  0  0  0  0  # atno 10718 bound_to 10713
  154.6767  135.2948  154.9669 H   0  0  0  0  0  0  0  0  0  0  0  0  # atno 10763 bound_to 10752
  154.0678  135.6622  153.4824 H   0  0  0  0  0  0  0  0  0  0  0  0  # atno 10764 bound_to 10752
  153.0520  135.5167  154.7789 H   0  0  0  0  0  0  0  0  0  0  0  0  # atno 10765 bound_to 10752
  141.0744  133.6670  156.3549 H   0  0  0  0  0  0  0  0  0  0  0  0  # atno 11005 bound_to 11000
  145.8769  140.9386  143.0621 LP  0  0  0  0  0  0  0  0  0  0  0  0  # atno 17320 bound_to 7965
  144.6737  140.0729  143.7472 LP  0  0  0  0  0  0  0  0  0  0  0  0  # atno 17321 bound_to 7965
  139.9750  144.6467  150.7953 LP  0  0  0  0  0  0  0  0  0  0  0  0  # atno 17342 bound_to 10162
  140.7552  143.3041  151.3006 LP  0  0  0  0  0  0  0  0  0  0  0  0  # atno 17343 bound_to 10162
  157.7500  131.0118  150.3361 LP  0  0  0  0  0  0  0  0  0  0  0  0  # atno 17370 bound_to 10713
  156.3753  130.3871  149.7143 LP  0  0  0  0  0  0  0  0  0  0  0  0  # atno 17371 bound_to 10713
  140.5604  134.5940  157.5432 LP  0  0  0  0  0  0  0  0  0  0  0  0  # atno 17394 bound_to 11000
  139.9557  134.7539  156.0348 LP  0  0  0  0  0  0  0  0  0  0  0  0  # atno 17395 bound_to 11000

$$$$
