AV-unprocessed.smi:897|AV-procd|sdf|4079|dock4
  -GOLD-   22720 1563D 1   1.00000     0.00000
 Structure written by MMmdl.
 35 37  0  0  0  0  0  0  0  0  1 V2000
  152.0529  144.4910  158.4341 C   0  0  0  0  0  0  0  0  0  0  0  0
  152.3243  143.0651  158.8652 C   0  0  0  0  0  0  0  0  0  0  0  0
  153.0982  142.7878  160.0073 C   0  0  0  0  0  0  0  0  0  0  0  0
  153.3212  141.4421  160.3627 C   0  0  0  0  0  0  0  0  0  0  0  0
  154.1612  141.1305  161.5920 C   0  0  0  0  0  0  0  0  0  0  0  0
  152.7527  140.4205  159.5575 C   0  0  0  0  0  0  0  0  0  0  0  0
  152.9556  139.0125  159.8947 C   0  0  0  0  0  0  0  0  0  0  0  0
  153.1165  137.8981  160.1615 N   0  0  0  0  0  0  0  0  0  0  0  0
  151.9837  140.8036  158.4238 C   0  0  0  0  0  0  0  0  0  0  0  0
  151.4024  139.8278  157.5925 N   0  0  0  0  0  0  0  0  0  0  0  0
  150.2209  140.1129  156.7850 C   0  0  2  0  0  0  0  0  0  0  0  0
  149.6637  138.8724  156.0745 C   0  0  0  0  0  0  0  0  0  0  0  0
  149.6744  139.3153  154.6065 C   0  0  1  0  0  0  0  0  0  0  0  0
  148.6362  140.4089  154.3204 C   0  0  0  0  0  0  0  0  0  0  0  0
  149.2725  141.6266  154.9901 C   0  0  0  0  0  0  0  0  0  0  0  0
  150.5500  141.0252  155.5911 C   0  0  2  0  0  0  0  0  0  0  0  0
  150.8692  140.0757  154.5863 O   0  0  0  0  0  0  0  0  0  0  0  0
  151.7826  142.1019  158.0932 N   0  0  0  0  0  0  0  0  0  0  0  0
  152.6030  145.2026  159.0507 H   0  0  0  0  0  0  0  0  0  0  0  0
  150.9894  144.7159  158.5197 H   0  0  0  0  0  0  0  0  0  0  0  0
  152.3538  144.6387  157.3966 H   0  0  0  0  0  0  0  0  0  0  0  0
  153.5130  143.5915  160.5980 H   0  0  0  0  0  0  0  0  0  0  0  0
  153.5724  140.5837  162.3289 H   0  0  0  0  0  0  0  0  0  0  0  0
  154.5273  142.0421  162.0646 H   0  0  0  0  0  0  0  0  0  0  0  0
  155.0266  140.5252  161.3210 H   0  0  0  0  0  0  0  0  0  0  0  0
  151.6791  138.8627  157.7021 H   0  0  0  0  0  0  0  0  0  0  0  0
  149.4654  140.5884  157.4123 H   0  0  0  0  0  0  0  0  0  0  0  0
  150.3127  138.0053  156.2088 H   0  0  0  0  0  0  0  0  0  0  0  0
  148.6658  138.6034  156.4220 H   0  0  0  0  0  0  0  0  0  0  0  0
  149.6561  138.4886  153.8959 H   0  0  0  0  0  0  0  0  0  0  0  0
  148.5302  140.5750  153.2478 H   0  0  0  0  0  0  0  0  0  0  0  0
  147.6550  140.1641  154.7284 H   0  0  0  0  0  0  0  0  0  0  0  0
  149.5163  142.3871  154.2475 H   0  0  0  0  0  0  0  0  0  0  0  0
  148.6297  142.0812  155.7447 H   0  0  0  0  0  0  0  0  0  0  0  0
  151.3294  141.7633  155.7848 H   0  0  0  0  0  0  0  0  0  0  0  0
  1  2  1  0  0  0  0
  1 19  1  0  0  0  0
  1 20  1  0  0  0  0
  1 21  1  0  0  0  0
  2 18  1  0  0  0  0
  2  3  2  0  0  0  0
  3  4  1  0  0  0  0
  3 22  1  0  0  0  0
  4  5  1  0  0  0  0
  4  6  2  0  0  0  0
  5 23  1  0  0  0  0
  5 24  1  0  0  0  0
  5 25  1  0  0  0  0
  6  7  1  0  0  0  0
  6  9  1  0  0  0  0
  7  8  3  0  0  0  0
  9 10  1  0  0  0  0
  9 18  2  0  0  0  0
 10 11  1  0  0  0  0
 10 26  1  0  0  0  0
 11 16  1  0  0  0  0
 11 12  1  0  0  0  0
 11 27  1  0  0  0  0
 12 13  1  0  0  0  0
 12 28  1  0  0  0  0
 12 29  1  0  0  0  0
 13 17  1  0  0  0  0
 13 14  1  0  0  0  0
 13 30  1  0  0  0  0
 14 15  1  0  0  0  0
 14 31  1  0  0  0  0
 14 32  1  0  0  0  0
 15 16  1  0  0  0  0
 15 33  1  0  0  0  0
 15 34  1  0  0  0  0
 16 17  1  0  0  0  0
 16 35  1  0  0  0  0
M  END
> <s_m_source_file>
AV-unprocessed.smi

> <i_m_source_file_index>
897

> <i_lp_mmshare_version>
43012

> <i_f3d_flags>
0

> <s_epik_input>
W0NIM11jMVtjSF1jKFtDSDNdKWMoQyNOKWMobjEpW05IXVtDQEhdKFtDSDJdW0NAQEhdMjMpW0NAQEhdKE8zKVtDSDJdW0NIMl0y

> <s_epik_cmdline>
J2VwaWtfcHl0aG9uJywgJy1waCcsICc3LjAnLCAnLXRuJywgJzgnLCAnLW1hJywgJzIwMCcsICctbWV0YWxfYmluZGluZycsICctaW1hZScsICc8aW5maWxlLm1hZT4nLCAnLW9tYWUnLCAnPG91dGZpbGUubWFlPic=

> <r_lp_tautomer_probability>
1

> <r_epik_Ionization_Penalty>
0.000502654

> <r_epik_Ionization_Penalty_Charging>
0

> <r_epik_Ionization_Penalty_Neutral>
0.000502654

> <r_epik_State_Penalty>
-0

> <r_epik_Charging_Adjusted_Penalty>
0

> <i_epik_Tot_Q>
0

> <i_epik_Tot_abs_Q>
0

> <r_epik_Metal_State_Penalty>
-0

> <b_epik_Metal_Only>
0

> <s_lp_Force_Field>
OPLS_2005

> <r_lp_Energy>
43.6406

> <b_lp_Chiralities_Consistent>
1

> <s_lp_Variant>
AV-unprocessed.smi:897-1

> <Gold.Version>
5.8.1

> <Gold.Id.Protein>
6NUR|6NUR_protein|mol2

> <Gold.PLP.Fitness>
40.2242

> <Gold.PLP.PLP>
-37.6772

> <Gold.PLP.part.hbond>
-0.9807

> <Gold.PLP.part.metal>
0.0000

> <Gold.PLP.part.buried>
-3.8395

> <Gold.PLP.part.nonpolar>
-33.9108

> <Gold.PLP.part.repulsive>
0.1621

> <Gold.PLP.ligand.clash>
0.0000

> <Gold.PLP.ligand.torsion>
0.2235

> <Gold.PLP.Chemscore.Hbond>
0.9913

> <Gold.PLP.Chemscore.CHOScore>
0.0000

> <Gold.PLP.Chemscore.Metal>
0.0000

> <Gold.Chemscore.Hbonds>
donor molecule, donor type, donor heavy atom, donor atom, acceptor molecule, acceptor atom, score
      P1  H  7989  7998       L1    17  1.00

> <Gold.PLP.Chemscore.Internal.Correction>
0.0202

> <Gold.Rescore>
     Score         DG    S(hbond)    S(metal)    S(lipo)     H(rot)  DE(clash)    DE(int)     intcor
     16.41     -17.88       0.97        0.00     100.17       1.00       0.07       1.40       ----

> <Gold.Chemscore.Fitness>
16.4134

> <Gold.Chemscore.DG>
-17.8780

> <Gold.Chemscore.ZeroCoef>
-5.4800

> <Gold.Chemscore.Hbond>
0.9696

> <Gold.Chemscore.Metal>
0.0000

> <Gold.Chemscore.Lipo>
100.1679

> <Gold.Chemscore.Internal_Hbond>
0.0000

> <Gold.Chemscore.DEClash>
0.0658

> <Gold.Chemscore.DEInternal>
1.3987

> <Gold.Chemscore.Rot>
1.0000

> <Gold.Chemscore.Internal.Correction>
   9.000000E+99

> <Gold.Chemscore.Hbonds>
donor molecule, donor type, donor heavy atom, donor atom, acceptor molecule, acceptor atom, score
      P1  H  7989  7998       L1    17  0.48

> <Gold.Chemscore.Hbond.Weighted>
-3.2384

> <Gold.Chemscore.Metal.Weighted>
-0.0000

> <Gold.Chemscore.Lipo.Weighted>
-11.7196

> <Gold.Chemscore.Internal_Hbond.Weighted>
0.0000

> <Gold.Chemscore.DEClash.Weighted>
0.0658

> <Gold.Chemscore.DEInternal.Weighted>
1.3987

> <Gold.Chemscore.Rot.Weighted>
2.5600

> <Gold.Chemscore.Internal.Correction.Weighted>
   9.000000E+99

> <Gold.Protein.RotatedTorsions>
[ 6907 6896 6895 6894 ] final -156.93 input  -60.11 | X-H torsion
[ 7974 7965 7964 7962 ] final  136.31 input  175.53 | X-H torsion
[ 8008 7997 7996 7995 ] final  -65.85 input   59.86 | X-H torsion
[ 10167 10162 10161 10158 ] final  148.18 input  -65.29 | X-H torsion
[ 10718 10713 10712 10709 ] final -121.79 input   66.30 | X-H torsion
[ 10763 10752 10751 10750 ] final  177.88 input  -60.55 | X-H torsion
[ 11005 11000 10999 10996 ] final -152.84 input  -57.11 | X-H torsion

> <Gold.Protein.ActiveResidues>
 VAL166  LYS551  ARG553  GLY616  TRP617  ASP618  TYR619  PRO620  LYS621  CYS622 
 ASP623  PHE694  ASN695  SER759  ASP760  ASP761  ALA762  ILE779  LEU786  VAL792 
 PHE793  MET794  SER795  GLU796  ALA797  LYS798  CYS799  TRP800  GLU811  SER814 

> <Gold.Protein.RotatedAtoms>
  151.2952  133.4147  159.2635 H   0  0  0  0  0  0  0  0  0  0  0  0  # atno 6907 bound_to 6896
  151.0243  134.9493  159.8087 H   0  0  0  0  0  0  0  0  0  0  0  0  # atno 6908 bound_to 6896
  152.5331  134.2914  159.9097 H   0  0  0  0  0  0  0  0  0  0  0  0  # atno 6909 bound_to 6896
  144.9578  139.4745  143.5494 H   0  0  0  0  0  0  0  0  0  0  0  0  # atno 7974 bound_to 7965
  154.4698  140.0924  156.7114 H   0  0  0  0  0  0  0  0  0  0  0  0  # atno 8008 bound_to 7997
  155.4757  140.3466  155.4314 H   0  0  0  0  0  0  0  0  0  0  0  0  # atno 8009 bound_to 7997
  156.1019  140.1424  156.9445 H   0  0  0  0  0  0  0  0  0  0  0  0  # atno 8010 bound_to 7997
  139.4878  144.5699  151.7075 H   0  0  0  0  0  0  0  0  0  0  0  0  # atno 10167 bound_to 10162
  156.1365  130.6434  150.9705 H   0  0  0  0  0  0  0  0  0  0  0  0  # atno 10718 bound_to 10713
  154.5004  135.2783  155.1425 H   0  0  0  0  0  0  0  0  0  0  0  0  # atno 10763 bound_to 10752
  154.3061  135.6238  153.5449 H   0  0  0  0  0  0  0  0  0  0  0  0  # atno 10764 bound_to 10752
  152.9901  135.5708  154.5445 H   0  0  0  0  0  0  0  0  0  0  0  0  # atno 10765 bound_to 10752
  140.7146  134.3795  157.5193 H   0  0  0  0  0  0  0  0  0  0  0  0  # atno 11005 bound_to 11000
  146.3343  139.8707  142.8840 LP  0  0  0  0  0  0  0  0  0  0  0  0  # atno 17320 bound_to 7965
  145.2746  141.0119  143.3752 LP  0  0  0  0  0  0  0  0  0  0  0  0  # atno 17321 bound_to 7965
  140.5284  144.0770  150.6045 LP  0  0  0  0  0  0  0  0  0  0  0  0  # atno 17342 bound_to 10162
  140.3751  143.2833  152.0234 LP  0  0  0  0  0  0  0  0  0  0  0  0  # atno 17343 bound_to 10162
  157.6537  131.0893  150.7994 LP  0  0  0  0  0  0  0  0  0  0  0  0  # atno 17370 bound_to 10713
  156.8073  130.4941  149.5361 LP  0  0  0  0  0  0  0  0  0  0  0  0  # atno 17371 bound_to 10713
  139.8863  134.8913  156.2593 LP  0  0  0  0  0  0  0  0  0  0  0  0  # atno 17394 bound_to 11000
  141.0055  133.7126  156.1028 LP  0  0  0  0  0  0  0  0  0  0  0  0  # atno 17395 bound_to 11000

$$$$
