AV-unprocessed.smi:3263|AV-procd|sdf|12488|dock10
  -GOLD-   2272018383D 1   1.00000     0.00000
 Structure written by MMmdl.
 41 43  0  0  0  0  0  0  0  0  1 V2000
  153.3791  139.4175  157.6882 O   0  0  0  0  0  0  0  0  0  0  0  0
  152.2300  139.8505  157.5996 C   0  0  0  0  0  0  0  0  0  0  0  0
  151.6400  140.7172  158.7172 C   0  0  0  0  0  0  0  0  0  0  0  0
  152.1693  142.1692  158.7123 C   0  0  2  0  0  0  0  0  0  0  0  0
  152.1715  142.8494  160.1032 C   0  0  0  0  0  0  0  0  0  0  0  0
  151.3558  144.1330  159.8660 C   0  0  1  0  0  0  0  0  0  0  0  0
  152.1580  145.0972  158.9726 C   0  0  0  0  0  0  0  0  0  0  0  0
  152.0859  144.4183  157.5918 C   0  0  0  0  0  0  0  0  0  0  0  0
  151.2870  143.1340  157.8865 C   0  0  2  0  0  0  0  0  0  0  0  0
  150.2763  143.6385  158.9125 C   0  0  0  0  0  0  0  0  0  0  0  0
  151.4310  139.6085  156.5493 N   0  0  0  0  0  0  0  0  0  0  0  0
  151.7947  138.8061  155.3875 C   0  0  0  0  0  0  0  0  0  0  0  0
  150.5519  138.2606  154.6650 C   0  0  0  0  0  0  0  0  0  0  0  0
  149.5565  139.3557  154.3324 C   0  0  0  0  0  0  0  0  0  0  0  0
  148.2965  139.0413  153.7799 C   0  0  0  0  0  0  0  0  0  0  0  0
  147.4062  140.0953  153.4972 C   0  0  0  0  0  0  0  0  0  0  0  0
  147.8070  141.4158  153.7779 C   0  0  0  0  0  0  0  0  0  0  0  0
  149.0865  141.6245  154.3302 C   0  0  0  0  0  0  0  0  0  0  0  0
  149.9481  140.6214  154.6044 N   0  0  0  0  0  0  0  0  0  0  0  0
  150.5566  140.7249  158.5935 H   0  0  0  0  0  0  0  0  0  0  0  0
  151.8335  140.2493  159.6833 H   0  0  0  0  0  0  0  0  0  0  0  0
  153.1795  142.1656  158.2989 H   0  0  0  0  0  0  0  0  0  0  0  0
  151.6788  142.2283  160.8525 H   0  0  0  0  0  0  0  0  0  0  0  0
  153.1806  143.0582  160.4602 H   0  0  0  0  0  0  0  0  0  0  0  0
  150.9858  144.5912  160.7837 H   0  0  0  0  0  0  0  0  0  0  0  0
  151.6890  146.0815  158.9406 H   0  0  0  0  0  0  0  0  0  0  0  0
  153.1837  145.2249  159.3205 H   0  0  0  0  0  0  0  0  0  0  0  0
  151.5511  145.0513  156.8826 H   0  0  0  0  0  0  0  0  0  0  0  0
  153.0726  144.2131  157.1746 H   0  0  0  0  0  0  0  0  0  0  0  0
  150.8518  142.6838  156.9938 H   0  0  0  0  0  0  0  0  0  0  0  0
  149.6506  142.8520  159.3368 H   0  0  0  0  0  0  0  0  0  0  0  0
  149.6355  144.4366  158.5332 H   0  0  0  0  0  0  0  0  0  0  0  0
  150.5025  140.0050  156.5568 H   0  0  0  0  0  0  0  0  0  0  0  0
  152.4084  139.3938  154.7024 H   0  0  0  0  0  0  0  0  0  0  0  0
  152.4182  137.9805  155.7316 H   0  0  0  0  0  0  0  0  0  0  0  0
  150.8456  137.7581  153.7421 H   0  0  0  0  0  0  0  0  0  0  0  0
  150.0584  137.5066  155.2800 H   0  0  0  0  0  0  0  0  0  0  0  0
  148.0164  138.0176  153.5786 H   0  0  0  0  0  0  0  0  0  0  0  0
  146.4332  139.8940  153.0734 H   0  0  0  0  0  0  0  0  0  0  0  0
  147.1498  142.2483  153.5752 H   0  0  0  0  0  0  0  0  0  0  0  0
  149.4268  142.6237  154.5585 H   0  0  0  0  0  0  0  0  0  0  0  0
  1  2  2  0  0  0  0
  2  3  1  0  0  0  0
  2 11  1  0  0  0  0
  3  4  1  0  0  0  0
  3 20  1  0  0  0  0
  3 21  1  0  0  0  0
  4  9  1  0  0  0  0
  4  5  1  0  0  0  0
  4 22  1  0  0  0  0
  5  6  1  0  0  0  0
  5 23  1  0  0  0  0
  5 24  1  0  0  0  0
  6 10  1  0  0  0  0
  6  7  1  0  0  0  0
  6 25  1  0  0  0  0
  7  8  1  0  0  0  0
  7 26  1  0  0  0  0
  7 27  1  0  0  0  0
  8  9  1  0  0  0  0
  8 28  1  0  0  0  0
  8 29  1  0  0  0  0
  9 10  1  0  0  0  0
  9 30  1  0  0  0  0
 10 31  1  0  0  0  0
 10 32  1  0  0  0  0
 11 12  1  0  0  0  0
 11 33  1  0  0  0  0
 12 13  1  0  0  0  0
 12 34  1  0  0  0  0
 12 35  1  0  0  0  0
 13 14  1  0  0  0  0
 13 36  1  0  0  0  0
 13 37  1  0  0  0  0
 14 19  1  0  0  0  0
 14 15  2  0  0  0  0
 15 16  1  0  0  0  0
 15 38  1  0  0  0  0
 16 17  2  0  0  0  0
 16 39  1  0  0  0  0
 17 18  1  0  0  0  0
 17 40  1  0  0  0  0
 18 19  2  0  0  0  0
 18 41  1  0  0  0  0
M  END
> <s_m_source_file>
AV-unprocessed.smi

> <i_m_source_file_index>
3263

> <i_lp_mmshare_version>
43012

> <i_f3d_flags>
0

> <s_epik_input>
W0NIMl0xW0NIMl1bQ0BASF0oW0NIMl0yKVtDQEBIXShbQ0gyXVtDQEhdMTIpW0NIMl1DKD1PKVtOSF1bQ0gyXVtDSDJdYzNbY0hdW2NIXVtjSF1bY0hdbjM=

> <s_epik_cmdline>
J2VwaWtfcHl0aG9uJywgJy1waCcsICc3LjAnLCAnLXRuJywgJzgnLCAnLW1hJywgJzIwMCcsICctbWV0YWxfYmluZGluZycsICctaW1hZScsICc8aW5maWxlLm1hZT4nLCAnLW9tYWUnLCAnPG91dGZpbGUubWFlPic=

> <r_epik_Ionization_Penalty>
0.0273541

> <r_epik_Ionization_Penalty_Charging>
0

> <r_epik_Ionization_Penalty_Neutral>
0.0273541

> <r_epik_State_Penalty>
0.0223838

> <r_epik_Charging_Adjusted_Penalty>
0.0223838

> <i_epik_Tot_Q>
0

> <i_epik_Tot_abs_Q>
0

> <r_epik_Metal_State_Penalty>
0.0213927

> <b_epik_Metal_Only>
0

> <s_lp_Force_Field>
OPLS_2005

> <r_lp_Energy>
45.3245

> <b_lp_Chiralities_Consistent>
1

> <s_lp_Variant>
AV-unprocessed.smi:3263-3

> <Gold.Version>
5.8.1

> <Gold.Id.Protein>
6NUR|6NUR_protein|mol2

> <Gold.PLP.Fitness>
52.3678

> <Gold.PLP.PLP>
-45.4172

> <Gold.PLP.part.hbond>
-1.8443

> <Gold.PLP.part.metal>
0.0000

> <Gold.PLP.part.buried>
-2.7869

> <Gold.PLP.part.nonpolar>
-40.6250

> <Gold.PLP.part.repulsive>
0.2045

> <Gold.PLP.ligand.clash>
0.0000

> <Gold.PLP.ligand.torsion>
0.7904

> <Gold.PLP.Chemscore.Hbond>
1.8320

> <Gold.PLP.Chemscore.CHOScore>
1.0000

> <Gold.PLP.Chemscore.Metal>
0.0000

> <Gold.Chemscore.Hbonds>
donor molecule, donor type, donor heavy atom, donor atom, acceptor molecule, acceptor atom, score
      P1  H  7989  7998       L1    19  0.82
      P1  H  7997  8010       L1     1  1.00
      L1  C    18    41       P1  8028  1.00

> <Gold.PLP.Chemscore.Internal.Correction>
0.0354

> <Gold.Rescore>
     Score         DG    S(hbond)    S(metal)    S(lipo)     H(rot)  DE(clash)    DE(int)     intcor
     17.53     -20.12       0.84        0.00     132.96       1.46       0.32       2.26       ----

> <Gold.Chemscore.Fitness>
17.5345

> <Gold.Chemscore.DG>
-20.1161

> <Gold.Chemscore.ZeroCoef>
-5.4800

> <Gold.Chemscore.Hbond>
0.8401

> <Gold.Chemscore.Metal>
0.0000

> <Gold.Chemscore.Lipo>
132.9598

> <Gold.Chemscore.Internal_Hbond>
0.0000

> <Gold.Chemscore.DEClash>
0.3213

> <Gold.Chemscore.DEInternal>
2.2603

> <Gold.Chemscore.Rot>
1.4555

> <Gold.Chemscore.Internal.Correction>
   9.000000E+99

> <Gold.Chemscore.Hbonds>
donor molecule, donor type, donor heavy atom, donor atom, acceptor molecule, acceptor atom, score
      P1  H  7989  7998       L1    19  0.25
      P1  H  7997  8010       L1     1  0.83

> <Gold.Chemscore.Hbond.Weighted>
-2.8058

> <Gold.Chemscore.Metal.Weighted>
-0.0000

> <Gold.Chemscore.Lipo.Weighted>
-15.5563

> <Gold.Chemscore.Internal_Hbond.Weighted>
0.0000

> <Gold.Chemscore.DEClash.Weighted>
0.3213

> <Gold.Chemscore.DEInternal.Weighted>
2.2603

> <Gold.Chemscore.Rot.Weighted>
3.7260

> <Gold.Chemscore.Internal.Correction.Weighted>
   9.000000E+99

> <Gold.Protein.RotatedTorsions>
[ 6907 6896 6895 6894 ] final   98.12 input  -60.11 | X-H torsion
[ 7974 7965 7964 7962 ] final  -93.75 input  175.53 | X-H torsion
[ 8008 7997 7996 7995 ] final   58.98 input   59.86 | X-H torsion
[ 10167 10162 10161 10158 ] final    7.42 input  -65.29 | X-H torsion
[ 10718 10713 10712 10709 ] final   80.18 input   66.30 | X-H torsion
[ 10763 10752 10751 10750 ] final  -66.15 input  -60.55 | X-H torsion
[ 11005 11000 10999 10996 ] final  -29.31 input  -57.11 | X-H torsion

> <Gold.Protein.ActiveResidues>
 VAL166  LYS551  ARG553  GLY616  TRP617  ASP618  TYR619  PRO620  LYS621  CYS622 
 ASP623  PHE694  ASN695  SER759  ASP760  ASP761  ALA762  ILE779  LEU786  VAL792 
 PHE793  MET794  SER795  GLU796  ALA797  LYS798  CYS799  TRP800  GLU811  SER814 

> <Gold.Protein.RotatedAtoms>
  152.5414  134.0630  159.8160 H   0  0  0  0  0  0  0  0  0  0  0  0  # atno 6907 bound_to 6896
  151.0755  133.5424  159.2631 H   0  0  0  0  0  0  0  0  0  0  0  0  # atno 6908 bound_to 6896
  151.2271  135.0549  159.9027 H   0  0  0  0  0  0  0  0  0  0  0  0  # atno 6909 bound_to 6896
  145.3823  140.9519  143.2386 H   0  0  0  0  0  0  0  0  0  0  0  0  # atno 7974 bound_to 7965
  155.5588  140.3488  155.4486 H   0  0  0  0  0  0  0  0  0  0  0  0  # atno 8008 bound_to 7997
  156.0529  140.1322  157.0055 H   0  0  0  0  0  0  0  0  0  0  0  0  # atno 8009 bound_to 7997
  154.4443  140.1001  156.6388 H   0  0  0  0  0  0  0  0  0  0  0  0  # atno 8010 bound_to 7997
  140.6373  143.7857  150.7377 H   0  0  0  0  0  0  0  0  0  0  0  0  # atno 10167 bound_to 10162
  157.6798  130.9947  150.2041 H   0  0  0  0  0  0  0  0  0  0  0  0  # atno 10718 bound_to 10713
  154.3556  135.6127  153.5664 H   0  0  0  0  0  0  0  0  0  0  0  0  # atno 10763 bound_to 10752
  152.9796  135.5803  154.4693 H   0  0  0  0  0  0  0  0  0  0  0  0  # atno 10764 bound_to 10752
  154.4422  135.2850  155.1817 H   0  0  0  0  0  0  0  0  0  0  0  0  # atno 10765 bound_to 10752
  140.9285  133.7353  156.0902 H   0  0  0  0  0  0  0  0  0  0  0  0  # atno 11005 bound_to 11000
  144.8498  139.5339  143.6861 LP  0  0  0  0  0  0  0  0  0  0  0  0  # atno 17320 bound_to 7965
  146.2836  139.6943  142.9211 LP  0  0  0  0  0  0  0  0  0  0  0  0  # atno 17321 bound_to 7965
  140.1481  143.4382  152.2150 LP  0  0  0  0  0  0  0  0  0  0  0  0  # atno 17342 bound_to 10162
  139.5583  144.7388  151.4230 LP  0  0  0  0  0  0  0  0  0  0  0  0  # atno 17343 bound_to 10162
  156.2725  130.3723  149.8017 LP  0  0  0  0  0  0  0  0  0  0  0  0  # atno 17370 bound_to 10713
  156.5729  130.8432  151.3361 LP  0  0  0  0  0  0  0  0  0  0  0  0  # atno 17371 bound_to 10713
  140.7894  134.3634  157.5468 LP  0  0  0  0  0  0  0  0  0  0  0  0  # atno 17394 bound_to 11000
  139.8791  134.9131  156.3075 LP  0  0  0  0  0  0  0  0  0  0  0  0  # atno 17395 bound_to 11000

$$$$
