AV-unprocessed.smi:1220|AV-procd|sdf|5116|dock4
  -GOLD-   22720 4173D 1   1.00000     0.00000
 Structure written by MMmdl.
 35 36  0  0  0  0  0  0  0  0  1 V2000
  154.1419  139.9446  160.8141 C   0  0  0  0  0  0  0  0  0  0  0  0
  153.4493  140.9067  159.8397 C   0  0  2  0  0  0  0  0  0  0  0  0
  153.1091  142.2499  160.5215 C   0  0  0  0  0  0  0  0  0  0  0  0
  152.2825  143.1076  159.6892 N   0  0  0  0  0  0  0  0  0  0  0  0
  152.5948  144.3380  159.1506 C   0  0  0  0  0  0  0  0  0  0  0  0
  151.5175  144.7460  158.4175 C   0  0  0  0  0  0  0  0  0  0  0  0
  150.5802  143.6874  158.5758 C   0  0  0  0  0  0  0  0  0  0  0  0
  151.0387  142.7105  159.3414 N   0  0  0  0  0  0  0  0  0  0  0  0
  152.2421  140.2680  159.3162 N   0  0  0  0  0  0  0  0  0  0  0  0
  152.0773  139.8182  158.0616 C   0  0  0  0  0  0  0  0  0  0  0  0
  152.9693  139.8441  157.2129 O   0  0  0  0  0  0  0  0  0  0  0  0
  150.6846  139.2736  157.7086 C   0  0  1  0  0  0  0  0  0  0  0  0
  150.0476  140.0759  156.5503 C   0  0  0  0  0  0  0  0  0  0  0  0
  150.5585  139.5382  155.2099 C   0  0  0  0  0  0  0  0  0  0  0  0
  150.7620  137.7375  155.4603 S   0  0  0  0  0  0  0  0  0  0  0  0
  149.5499  137.0450  154.9969 O   0  0  0  0  0  0  0  0  0  0  0  0
  152.0932  137.3299  154.9864 O   0  0  0  0  0  0  0  0  0  0  0  0
  150.7445  137.7874  157.2963 C   0  0  0  0  0  0  0  0  0  0  0  0
  155.0648  140.3769  161.2017 H   0  0  0  0  0  0  0  0  0  0  0  0
  154.4003  139.0060  160.3227 H   0  0  0  0  0  0  0  0  0  0  0  0
  153.5015  139.7101  161.6652 H   0  0  0  0  0  0  0  0  0  0  0  0
  154.1503  141.0978  159.0252 H   0  0  0  0  0  0  0  0  0  0  0  0
  152.6041  142.0791  161.4739 H   0  0  0  0  0  0  0  0  0  0  0  0
  154.0263  142.7941  160.7504 H   0  0  0  0  0  0  0  0  0  0  0  0
  153.5508  144.8097  159.3239 H   0  0  0  0  0  0  0  0  0  0  0  0
  151.4155  145.6601  157.8518 H   0  0  0  0  0  0  0  0  0  0  0  0
  149.5873  143.5998  158.1601 H   0  0  0  0  0  0  0  0  0  0  0  0
  151.4552  140.2048  159.9456 H   0  0  0  0  0  0  0  0  0  0  0  0
  150.0571  139.3685  158.5964 H   0  0  0  0  0  0  0  0  0  0  0  0
  148.9655  139.9450  156.5916 H   0  0  0  0  0  0  0  0  0  0  0  0
  150.2306  141.1476  156.6385 H   0  0  0  0  0  0  0  0  0  0  0  0
  149.8786  139.7319  154.3802 H   0  0  0  0  0  0  0  0  0  0  0  0
  151.5341  139.9608  154.9679 H   0  0  0  0  0  0  0  0  0  0  0  0
  151.6172  137.2589  157.6826 H   0  0  0  0  0  0  0  0  0  0  0  0
  149.8560  137.2570  157.6385 H   0  0  0  0  0  0  0  0  0  0  0  0
  1  2  1  0  0  0  0
  1 19  1  0  0  0  0
  1 20  1  0  0  0  0
  1 21  1  0  0  0  0
  2  3  1  0  0  0  0
  2  9  1  0  0  0  0
  2 22  1  0  0  0  0
  3  4  1  0  0  0  0
  3 23  1  0  0  0  0
  3 24  1  0  0  0  0
  4  8  1  0  0  0  0
  4  5  1  0  0  0  0
  5  6  2  0  0  0  0
  5 25  1  0  0  0  0
  6  7  1  0  0  0  0
  6 26  1  0  0  0  0
  7  8  2  0  0  0  0
  7 27  1  0  0  0  0
  9 10  1  0  0  0  0
  9 28  1  0  0  0  0
 10 11  2  0  0  0  0
 10 12  1  0  0  0  0
 12 18  1  0  0  0  0
 12 13  1  0  0  0  0
 12 29  1  0  0  0  0
 13 14  1  0  0  0  0
 13 30  1  0  0  0  0
 13 31  1  0  0  0  0
 14 15  1  0  0  0  0
 14 32  1  0  0  0  0
 14 33  1  0  0  0  0
 15 16  2  0  0  0  0
 15 17  2  0  0  0  0
 15 18  1  0  0  0  0
 18 34  1  0  0  0  0
 18 35  1  0  0  0  0
M  END
> <s_m_source_file>
AV-unprocessed.smi

> <i_m_source_file_index>
1220

> <i_lp_mmshare_version>
43012

> <i_f3d_flags>
0

> <s_epik_input>
bjFbY0hdW2NIXVtjSF1uMVtDSDJdW0NAQEhdKFtDSDNdKVtOSF1DKD1PKVtDQEBIXShbQ0gyXTIpW0NIMl1bQ0gyXVMyKD1PKT1P

> <s_epik_cmdline>
J2VwaWtfcHl0aG9uJywgJy1waCcsICc3LjAnLCAnLXRuJywgJzgnLCAnLW1hJywgJzIwMCcsICctbWV0YWxfYmluZGluZycsICctaW1hZScsICc8aW5maWxlLm1hZT4nLCAnLW9tYWUnLCAnPG91dGZpbGUubWFlPic=

> <r_lp_tautomer_probability>
1

> <r_epik_Ionization_Penalty>
0.000293905

> <r_epik_Ionization_Penalty_Charging>
0

> <r_epik_Ionization_Penalty_Neutral>
0.000293905

> <r_epik_State_Penalty>
-0

> <r_epik_Charging_Adjusted_Penalty>
0

> <i_epik_Tot_Q>
0

> <i_epik_Tot_abs_Q>
0

> <r_epik_Metal_State_Penalty>
-0

> <b_epik_Metal_Only>
0

> <s_lp_Force_Field>
OPLS_2005

> <r_lp_Energy>
1.9569

> <b_lp_Chiralities_Consistent>
1

> <s_lp_Variant>
AV-unprocessed.smi:1220-3

> <Gold.Version>
5.8.1

> <Gold.Id.Protein>
6NUR|6NUR_protein|mol2

> <Gold.PLP.Fitness>
42.1792

> <Gold.PLP.PLP>
-33.5324

> <Gold.PLP.part.hbond>
-2.0000

> <Gold.PLP.part.metal>
0.0000

> <Gold.PLP.part.buried>
-4.7067

> <Gold.PLP.part.nonpolar>
-26.9885

> <Gold.PLP.part.repulsive>
0.3902

> <Gold.PLP.ligand.clash>
0.0000

> <Gold.PLP.ligand.torsion>
0.1489

> <Gold.PLP.Chemscore.Hbond>
1.9760

> <Gold.PLP.Chemscore.CHOScore>
1.0000

> <Gold.PLP.Chemscore.Metal>
0.0000

> <Gold.Chemscore.Hbonds>
donor molecule, donor type, donor heavy atom, donor atom, acceptor molecule, acceptor atom, score
      P1  H  7997  8009       L1    11  0.99
      P1  H 10752 10765       L1    17  0.83
      L1  C     7    27       P1  8028  0.27

> <Gold.PLP.Chemscore.Internal.Correction>
0.0166

> <Gold.Rescore>
     Score         DG    S(hbond)    S(metal)    S(lipo)     H(rot)  DE(clash)    DE(int)     intcor
     17.09     -17.33       1.98        0.00      82.89       1.75       0.00       0.24       ----

> <Gold.Chemscore.Fitness>
17.0852

> <Gold.Chemscore.DG>
-17.3287

> <Gold.Chemscore.ZeroCoef>
-5.4800

> <Gold.Chemscore.Hbond>
1.9820

> <Gold.Chemscore.Metal>
0.0000

> <Gold.Chemscore.Lipo>
82.8932

> <Gold.Chemscore.Internal_Hbond>
0.0000

> <Gold.Chemscore.DEClash>
0.0048

> <Gold.Chemscore.DEInternal>
0.2387

> <Gold.Chemscore.Rot>
1.7460

> <Gold.Chemscore.Internal.Correction>
   9.000000E+99

> <Gold.Chemscore.Hbonds>
donor molecule, donor type, donor heavy atom, donor atom, acceptor molecule, acceptor atom, score
      P1  H  7997  8009       L1    11  0.93
      P1  H 10752 10765       L1    17  0.82

> <Gold.Chemscore.Hbond.Weighted>
-6.6199

> <Gold.Chemscore.Metal.Weighted>
-0.0000

> <Gold.Chemscore.Lipo.Weighted>
-9.6985

> <Gold.Chemscore.Internal_Hbond.Weighted>
0.0000

> <Gold.Chemscore.DEClash.Weighted>
0.0048

> <Gold.Chemscore.DEInternal.Weighted>
0.2387

> <Gold.Chemscore.Rot.Weighted>
4.4697

> <Gold.Chemscore.Internal.Correction.Weighted>
   9.000000E+99

> <Gold.Protein.RotatedTorsions>
[ 6907 6896 6895 6894 ] final   71.42 input  -60.11 | X-H torsion
[ 7974 7965 7964 7962 ] final    2.04 input  175.53 | X-H torsion
[ 8008 7997 7996 7995 ] final  174.66 input   59.86 | X-H torsion
[ 10167 10162 10161 10158 ] final -167.71 input  -65.29 | X-H torsion
[ 10718 10713 10712 10709 ] final  120.32 input   66.30 | X-H torsion
[ 10763 10752 10751 10750 ] final -179.29 input  -60.55 | X-H torsion
[ 11005 11000 10999 10996 ] final  151.38 input  -57.11 | X-H torsion

> <Gold.Protein.ActiveResidues>
 VAL166  LYS551  ARG553  GLY616  TRP617  ASP618  TYR619  PRO620  LYS621  CYS622 
 ASP623  PHE694  ASN695  SER759  ASP760  ASP761  ALA762  ILE779  LEU786  VAL792 
 PHE793  MET794  SER795  GLU796  ALA797  LYS798  CYS799  TRP800  GLU811  SER814 

> <Gold.Protein.RotatedAtoms>
  152.4809  134.4723  159.9639 H   0  0  0  0  0  0  0  0  0  0  0  0  # atno 6907 bound_to 6896
  151.4729  133.3558  159.2834 H   0  0  0  0  0  0  0  0  0  0  0  0  # atno 6908 bound_to 6896
  150.8880  134.8306  159.7334 H   0  0  0  0  0  0  0  0  0  0  0  0  # atno 6909 bound_to 6896
  146.2442  140.0896  142.8353 H   0  0  0  0  0  0  0  0  0  0  0  0  # atno 7974 bound_to 7965
  156.0951  140.1428  156.9542 H   0  0  0  0  0  0  0  0  0  0  0  0  # atno 8008 bound_to 7997
  154.4666  140.0924  156.7082 H   0  0  0  0  0  0  0  0  0  0  0  0  # atno 8009 bound_to 7997
  155.4855  140.3446  155.4348 H   0  0  0  0  0  0  0  0  0  0  0  0  # atno 8010 bound_to 7997
  139.6031  144.0968  152.1764 H   0  0  0  0  0  0  0  0  0  0  0  0  # atno 10167 bound_to 10162
  157.5899  131.1065  150.8018 H   0  0  0  0  0  0  0  0  0  0  0  0  # atno 10718 bound_to 10713
  154.5370  135.2803  155.1130 H   0  0  0  0  0  0  0  0  0  0  0  0  # atno 10763 bound_to 10752
  154.2627  135.6318  153.5284 H   0  0  0  0  0  0  0  0  0  0  0  0  # atno 10764 bound_to 10752
  152.9970  135.5609  154.5899 H   0  0  0  0  0  0  0  0  0  0  0  0  # atno 10765 bound_to 10752
  140.1214  134.8861  157.2077 H   0  0  0  0  0  0  0  0  0  0  0  0  # atno 11005 bound_to 11000
  145.0662  140.9123  143.4909 LP  0  0  0  0  0  0  0  0  0  0  0  0  # atno 17320 bound_to 7965
  145.1021  139.2815  143.5681 LP  0  0  0  0  0  0  0  0  0  0  0  0  # atno 17321 bound_to 7965
  140.0569  144.5888  150.7292 LP  0  0  0  0  0  0  0  0  0  0  0  0  # atno 17342 bound_to 10162
  140.7265  143.2642  151.4102 LP  0  0  0  0  0  0  0  0  0  0  0  0  # atno 17343 bound_to 10162
  156.8443  130.5058  149.5318 LP  0  0  0  0  0  0  0  0  0  0  0  0  # atno 17370 bound_to 10713
  156.0953  130.5927  150.9802 LP  0  0  0  0  0  0  0  0  0  0  0  0  # atno 17371 bound_to 10713
  140.2961  134.3185  155.7302 LP  0  0  0  0  0  0  0  0  0  0  0  0  # atno 17394 bound_to 11000
  141.2152  133.7563  156.9573 LP  0  0  0  0  0  0  0  0  0  0  0  0  # atno 17395 bound_to 11000

$$$$
