AV-unprocessed.smi:1394|AV-procd|sdf|5665|dock2
  -GOLD-   22720 5283D 1   1.00000     0.00000
 Structure written by MMmdl.
 41 42  0  0  0  0  0  0  0  0  1 V2000
  151.9835  145.4634  160.1316 C   0  0  0  0  0  0  0  0  0  0  0  0
  152.0833  143.9876  160.5589 C   0  0  2  0  0  0  0  0  0  0  0  0
  152.6815  143.8736  161.9758 C   0  0  0  0  0  0  0  0  0  0  0  0
  152.7860  142.4126  162.4377 C   0  0  0  0  0  0  0  0  0  0  0  0
  153.6068  141.5802  161.4440 C   0  0  0  0  0  0  0  0  0  0  0  0
  153.0139  141.6688  160.0304 C   0  0  0  0  0  0  0  0  0  0  0  0
  152.8912  143.1314  159.5513 C   0  0  1  0  0  0  0  0  0  0  0  0
  152.2574  143.1695  158.2351 N   0  0  0  0  0  0  0  0  0  0  0  0
  151.0166  142.7451  157.9527 C   0  0  0  0  0  0  0  0  0  0  0  0
  150.2510  142.2838  158.8005 O   0  0  0  0  0  0  0  0  0  0  0  0
  150.5839  142.8848  156.4860 C   0  0  0  0  0  0  0  0  0  0  0  0
  150.2367  141.6039  155.8465 N   0  0  0  0  0  0  0  0  0  0  0  0
  149.0458  141.5696  155.0995 C   0  0  0  0  0  0  0  0  0  0  0  0
  148.6378  140.4579  154.4727 C   0  0  0  0  0  0  0  0  0  0  0  0
  149.4573  139.2755  154.5787 C   0  0  0  0  0  0  0  0  0  0  0  0
  150.6052  139.2760  155.2954 C   0  0  0  0  0  0  0  0  0  0  0  0
  151.4878  138.0353  155.4110 C   0  0  0  0  0  0  0  0  0  0  0  0
  152.7039  138.2750  154.9184 F   0  0  0  0  0  0  0  0  0  0  0  0
  151.6195  137.6729  156.6875 F   0  0  0  0  0  0  0  0  0  0  0  0
  150.9761  136.9997  154.7436 F   0  0  0  0  0  0  0  0  0  0  0  0
  151.0433  140.5062  155.9862 C   0  0  0  0  0  0  0  0  0  0  0  0
  152.0774  140.5548  156.6548 O   0  0  0  0  0  0  0  0  0  0  0  0
  152.9714  145.9160  160.0417 H   0  0  0  0  0  0  0  0  0  0  0  0
  151.4175  146.0439  160.8604 H   0  0  0  0  0  0  0  0  0  0  0  0
  151.4789  145.5730  159.1716 H   0  0  0  0  0  0  0  0  0  0  0  0
  151.0672  143.5911  160.6000 H   0  0  0  0  0  0  0  0  0  0  0  0
  153.6717  144.3308  161.9950 H   0  0  0  0  0  0  0  0  0  0  0  0
  152.0705  144.4338  162.6842 H   0  0  0  0  0  0  0  0  0  0  0  0
  153.2415  142.3666  163.4273 H   0  0  0  0  0  0  0  0  0  0  0  0
  151.7870  141.9861  162.5365 H   0  0  0  0  0  0  0  0  0  0  0  0
  154.6381  141.9351  161.4320 H   0  0  0  0  0  0  0  0  0  0  0  0
  153.6407  140.5400  161.7686 H   0  0  0  0  0  0  0  0  0  0  0  0
  153.6366  141.0973  159.3411 H   0  0  0  0  0  0  0  0  0  0  0  0
  152.0314  141.1945  160.0219 H   0  0  0  0  0  0  0  0  0  0  0  0
  153.8937  143.5573  159.4740 H   0  0  0  0  0  0  0  0  0  0  0  0
  152.8135  143.5382  157.4772 H   0  0  0  0  0  0  0  0  0  0  0  0
  149.7378  143.5722  156.4468 H   0  0  0  0  0  0  0  0  0  0  0  0
  151.3778  143.3815  155.9248 H   0  0  0  0  0  0  0  0  0  0  0  0
  148.4884  142.4948  155.0751 H   0  0  0  0  0  0  0  0  0  0  0  0
  147.7192  140.4471  153.9047 H   0  0  0  0  0  0  0  0  0  0  0  0
  149.1336  138.3804  154.0690 H   0  0  0  0  0  0  0  0  0  0  0  0
  1  2  1  0  0  0  0
  1 23  1  0  0  0  0
  1 24  1  0  0  0  0
  1 25  1  0  0  0  0
  2  7  1  0  0  0  0
  2  3  1  0  0  0  0
  2 26  1  0  0  0  0
  3  4  1  0  0  0  0
  3 27  1  0  0  0  0
  3 28  1  0  0  0  0
  4  5  1  0  0  0  0
  4 29  1  0  0  0  0
  4 30  1  0  0  0  0
  5  6  1  0  0  0  0
  5 31  1  0  0  0  0
  5 32  1  0  0  0  0
  6  7  1  0  0  0  0
  6 33  1  0  0  0  0
  6 34  1  0  0  0  0
  7  8  1  0  0  0  0
  7 35  1  0  0  0  0
  8  9  1  0  0  0  0
  8 36  1  0  0  0  0
  9 10  2  0  0  0  0
  9 11  1  0  0  0  0
 11 12  1  0  0  0  0
 11 37  1  0  0  0  0
 11 38  1  0  0  0  0
 12 21  1  0  0  0  0
 12 13  1  0  0  0  0
 13 14  2  0  0  0  0
 13 39  1  0  0  0  0
 14 15  1  0  0  0  0
 14 40  1  0  0  0  0
 15 16  2  0  0  0  0
 15 41  1  0  0  0  0
 16 17  1  0  0  0  0
 16 21  1  0  0  0  0
 17 18  1  0  0  0  0
 17 19  1  0  0  0  0
 17 20  1  0  0  0  0
 21 22  2  0  0  0  0
M  END
> <s_m_source_file>
AV-unprocessed.smi

> <i_m_source_file_index>
1394

> <i_lp_mmshare_version>
43012

> <i_f3d_flags>
0

> <s_epik_input>
W0NIM11bQ0BASF0xW0NIMl1bQ0gyXVtDSDJdW0NIMl1bQ0BIXTFbTkhdQyg9TylbQ0gyXW4yW2NIXVtjSF1bY0hdYyhDKEYpKEYpRiljMj1P

> <s_epik_cmdline>
J2VwaWtfcHl0aG9uJywgJy1waCcsICc3LjAnLCAnLXRuJywgJzgnLCAnLW1hJywgJzIwMCcsICctbWV0YWxfYmluZGluZycsICctaW1hZScsICc8aW5maWxlLm1hZT4nLCAnLW9tYWUnLCAnPG91dGZpbGUubWFlPic=

> <r_lp_tautomer_probability>
1

> <r_epik_Ionization_Penalty>
2.11487e-08

> <r_epik_Ionization_Penalty_Charging>
2.10183e-09

> <r_epik_Ionization_Penalty_Neutral>
1.90469e-08

> <r_epik_State_Penalty>
-0

> <r_epik_Charging_Adjusted_Penalty>
2.10183e-09

> <i_epik_Tot_Q>
0

> <i_epik_Tot_abs_Q>
0

> <r_epik_Metal_State_Penalty>
-0

> <b_epik_Metal_Only>
0

> <s_lp_Force_Field>
OPLS_2005

> <r_lp_Energy>
20.2228

> <b_lp_Chiralities_Consistent>
1

> <s_lp_Variant>
AV-unprocessed.smi:1394-1

> <Gold.Version>
5.8.1

> <Gold.Id.Protein>
6NUR|6NUR_protein|mol2

> <Gold.PLP.Fitness>
55.9909

> <Gold.PLP.PLP>
-51.5233

> <Gold.PLP.part.hbond>
-1.2445

> <Gold.PLP.part.metal>
0.0000

> <Gold.PLP.part.buried>
3.0955

> <Gold.PLP.part.nonpolar>
-54.2732

> <Gold.PLP.part.repulsive>
0.0795

> <Gold.PLP.ligand.clash>
0.3255

> <Gold.PLP.ligand.torsion>
0.1634

> <Gold.PLP.Chemscore.Hbond>
0.5897

> <Gold.PLP.Chemscore.CHOScore>
1.0000

> <Gold.PLP.Chemscore.Metal>
0.0000

> <Gold.Chemscore.Hbonds>
donor molecule, donor type, donor heavy atom, donor atom, acceptor molecule, acceptor atom, score
      P1  H  7997  8010       L1    22  0.27
      L1  C    13    39       P1  8028  1.00

> <Gold.PLP.Chemscore.Internal.Correction>
0.3508

> <Gold.Rescore>
     Score         DG    S(hbond)    S(metal)    S(lipo)     H(rot)  DE(clash)    DE(int)     intcor
      9.17     -15.83       0.04        0.00     120.59       1.52       1.62       5.04       ----

> <Gold.Chemscore.Fitness>
9.1703

> <Gold.Chemscore.DG>
-15.8341

> <Gold.Chemscore.ZeroCoef>
-5.4800

> <Gold.Chemscore.Hbond>
0.0439

> <Gold.Chemscore.Metal>
0.0000

> <Gold.Chemscore.Lipo>
120.5934

> <Gold.Chemscore.Internal_Hbond>
0.0000

> <Gold.Chemscore.DEClash>
1.6213

> <Gold.Chemscore.DEInternal>
5.0425

> <Gold.Chemscore.Rot>
1.5242

> <Gold.Chemscore.Internal.Correction>
   9.000000E+99

> <Gold.Chemscore.Hbonds>
donor molecule, donor type, donor heavy atom, donor atom, acceptor molecule, acceptor atom, score
      P1  H  7997  8010       L1    22  0.26

> <Gold.Chemscore.Hbond.Weighted>
-0.1466

> <Gold.Chemscore.Metal.Weighted>
-0.0000

> <Gold.Chemscore.Lipo.Weighted>
-14.1094

> <Gold.Chemscore.Internal_Hbond.Weighted>
0.0000

> <Gold.Chemscore.DEClash.Weighted>
1.6213

> <Gold.Chemscore.DEInternal.Weighted>
5.0425

> <Gold.Chemscore.Rot.Weighted>
3.9019

> <Gold.Chemscore.Internal.Correction.Weighted>
   9.000000E+99

> <Gold.Protein.RotatedTorsions>
[ 6907 6896 6895 6894 ] final   48.25 input  -60.11 | X-H torsion
[ 7974 7965 7964 7962 ] final  102.16 input  175.53 | X-H torsion
[ 8008 7997 7996 7995 ] final   78.80 input   59.86 | X-H torsion
[ 10167 10162 10161 10158 ] final    9.56 input  -65.29 | X-H torsion
[ 10718 10713 10712 10709 ] final  -58.87 input   66.30 | X-H torsion
[ 10763 10752 10751 10750 ] final   99.16 input  -60.55 | X-H torsion
[ 11005 11000 10999 10996 ] final  -73.79 input  -57.11 | X-H torsion

> <Gold.Protein.ActiveResidues>
 VAL166  LYS551  ARG553  GLY616  TRP617  ASP618  TYR619  PRO620  LYS621  CYS622 
 ASP623  PHE694  ASN695  SER759  ASP760  ASP761  ALA762  ILE779  LEU786  VAL792 
 PHE793  MET794  SER795  GLU796  ALA797  LYS798  CYS799  TRP800  GLU811  SER814 

> <Gold.Protein.RotatedAtoms>
  152.2773  134.7867  160.0402 H   0  0  0  0  0  0  0  0  0  0  0  0  # atno 6907 bound_to 6896
  151.8459  133.3426  159.3666 H   0  0  0  0  0  0  0  0  0  0  0  0  # atno 6908 bound_to 6896
  150.7175  134.5275  159.5728 H   0  0  0  0  0  0  0  0  0  0  0  0  # atno 6909 bound_to 6896
  145.3627  139.2414  143.3498 H   0  0  0  0  0  0  0  0  0  0  0  0  # atno 7974 bound_to 7965
  155.8608  140.3454  155.5755 H   0  0  0  0  0  0  0  0  0  0  0  0  # atno 8008 bound_to 7997
  155.7936  140.0875  157.2015 H   0  0  0  0  0  0  0  0  0  0  0  0  # atno 8009 bound_to 7997
  154.4011  140.1478  156.3179 H   0  0  0  0  0  0  0  0  0  0  0  0  # atno 8010 bound_to 7997
  140.6247  143.8127  150.7219 H   0  0  0  0  0  0  0  0  0  0  0  0  # atno 10167 bound_to 10162
  156.1103  130.4176  150.0636 H   0  0  0  0  0  0  0  0  0  0  0  0  # atno 10718 bound_to 10713
  153.2979  135.4123  155.1226 H   0  0  0  0  0  0  0  0  0  0  0  0  # atno 10763 bound_to 10752
  154.8540  135.3534  154.5892 H   0  0  0  0  0  0  0  0  0  0  0  0  # atno 10764 bound_to 10752
  153.6316  135.7060  153.5331 H   0  0  0  0  0  0  0  0  0  0  0  0  # atno 10765 bound_to 10752
  141.1627  133.6890  156.7266 H   0  0  0  0  0  0  0  0  0  0  0  0  # atno 11005 bound_to 11000
  146.2920  140.4264  142.8736 LP  0  0  0  0  0  0  0  0  0  0  0  0  # atno 17320 bound_to 7965
  144.8634  140.7172  143.6093 LP  0  0  0  0  0  0  0  0  0  0  0  0  # atno 17321 bound_to 7965
  140.1725  143.4183  152.1991 LP  0  0  0  0  0  0  0  0  0  0  0  0  # atno 17342 bound_to 10162
  139.5469  144.7306  151.4554 LP  0  0  0  0  0  0  0  0  0  0  0  0  # atno 17343 bound_to 10162
  156.8601  130.9489  151.3618 LP  0  0  0  0  0  0  0  0  0  0  0  0  # atno 17370 bound_to 10713
  157.6284  130.8709  149.9230 LP  0  0  0  0  0  0  0  0  0  0  0  0  # atno 17371 bound_to 10713
  140.2776  134.8342  157.3904 LP  0  0  0  0  0  0  0  0  0  0  0  0  # atno 17394 bound_to 11000
  140.1463  134.4907  155.7994 LP  0  0  0  0  0  0  0  0  0  0  0  0  # atno 17395 bound_to 11000

$$$$
