AV-unprocessed.smi:987|AV-procd|sdf|4321|dock1
  -GOLD-   22720 2223D 1   1.00000     0.00000
 Structure written by MMmdl.
 50 52  0  0  0  0  0  0  0  0  1 V2000
  153.6374  141.9433  160.8993 C   0  0  0  0  0  0  0  0  0  0  0  0
  152.5298  142.5213  160.0122 C   0  0  2  0  0  0  0  0  0  0  0  0
  152.2354  141.6196  158.7997 C   0  0  0  0  0  0  0  0  0  0  0  0
  151.2677  142.2599  157.9136 N   0  0  0  0  0  0  0  0  0  0  0  0
  150.6626  141.4722  156.9112 C   0  0  0  0  0  0  0  0  0  0  0  0
  151.4622  140.8340  155.9346 C   0  0  0  0  0  0  0  0  0  0  0  0
  150.8405  140.0484  154.9460 C   0  0  0  0  0  0  0  0  0  0  0  0
  149.4394  139.9080  154.9571 C   0  0  0  0  0  0  0  0  0  0  0  0
  148.8379  139.1220  153.9372 N   0  0  0  0  0  0  0  0  0  0  0  0
  147.5583  139.1233  153.5259 C   0  0  0  0  0  0  0  0  0  0  0  0
  146.6553  139.8027  154.0129 O   0  0  0  0  0  0  0  0  0  0  0  0
  147.3766  138.2635  152.5140 N   0  0  0  0  0  0  0  0  0  0  0  0
  146.1120  138.0313  151.8221 C   0  0  0  0  0  0  0  0  0  0  0  0
  145.6122  136.5840  151.9800 C   0  0  0  0  0  0  0  0  0  0  0  0
  146.3598  136.0443  153.0525 O   0  0  0  0  0  0  0  0  0  0  0  0
  144.0952  136.3194  152.0549 C   0  0  0  0  0  0  0  0  0  0  0  0
  144.2850  135.0975  151.1549 C   0  0  0  0  0  0  0  0  0  0  0  0
  145.6284  135.6902  150.7254 C   0  0  0  0  0  0  0  0  0  0  0  0
  148.7199  140.5971  155.9621 C   0  0  0  0  0  0  0  0  0  0  0  0
  149.3122  141.3550  156.9093 N   0  0  0  0  0  0  0  0  0  0  0  0
  151.6707  143.5995  157.4952 C   0  0  0  0  0  0  0  0  0  0  0  0
  152.0170  144.4797  158.7123 C   0  0  1  0  0  0  0  0  0  0  0  0
  150.7793  144.9711  159.4842 C   0  0  0  0  0  0  0  0  0  0  0  0
  152.9513  143.8077  159.5602 O   0  0  0  0  0  0  0  0  0  0  0  0
  153.3585  140.9627  161.2859 H   0  0  0  0  0  0  0  0  0  0  0  0
  153.8324  142.5933  161.7525 H   0  0  0  0  0  0  0  0  0  0  0  0
  154.5699  141.8324  160.3452 H   0  0  0  0  0  0  0  0  0  0  0  0
  151.6307  142.6220  160.6204 H   0  0  0  0  0  0  0  0  0  0  0  0
  153.1535  141.4205  158.2447 H   0  0  0  0  0  0  0  0  0  0  0  0
  151.8495  140.6603  159.1477 H   0  0  0  0  0  0  0  0  0  0  0  0
  152.5357  140.9503  155.9261 H   0  0  0  0  0  0  0  0  0  0  0  0
  151.4372  139.5589  154.1902 H   0  0  0  0  0  0  0  0  0  0  0  0
  149.4443  138.4450  153.4982 H   0  0  0  0  0  0  0  0  0  0  0  0
  148.1750  137.7404  152.1861 H   0  0  0  0  0  0  0  0  0  0  0  0
  145.3959  138.7218  152.2677 H   0  0  0  0  0  0  0  0  0  0  0  0
  146.1832  138.3313  150.7745 H   0  0  0  0  0  0  0  0  0  0  0  0
  147.2585  135.9920  152.7656 H   0  0  0  0  0  0  0  0  0  0  0  0
  143.7191  136.0897  153.0527 H   0  0  0  0  0  0  0  0  0  0  0  0
  143.4993  137.0979  151.5757 H   0  0  0  0  0  0  0  0  0  0  0  0
  144.3936  134.1703  151.7193 H   0  0  0  0  0  0  0  0  0  0  0  0
  143.5517  135.0024  150.3535 H   0  0  0  0  0  0  0  0  0  0  0  0
  145.5556  136.2535  149.7936 H   0  0  0  0  0  0  0  0  0  0  0  0
  146.4432  134.9661  150.6853 H   0  0  0  0  0  0  0  0  0  0  0  0
  147.6429  140.5721  156.0145 H   0  0  0  0  0  0  0  0  0  0  0  0
  152.5472  143.5043  156.8528 H   0  0  0  0  0  0  0  0  0  0  0  0
  150.9014  144.0903  156.8999 H   0  0  0  0  0  0  0  0  0  0  0  0
  152.5291  145.3682  158.3422 H   0  0  0  0  0  0  0  0  0  0  0  0
  150.1509  145.5943  158.8477 H   0  0  0  0  0  0  0  0  0  0  0  0
  151.0715  145.5699  160.3469 H   0  0  0  0  0  0  0  0  0  0  0  0
  150.1603  144.1485  159.8412 H   0  0  0  0  0  0  0  0  0  0  0  0
  1  2  1  0  0  0  0
  1 25  1  0  0  0  0
  1 26  1  0  0  0  0
  1 27  1  0  0  0  0
  2 24  1  0  0  0  0
  2  3  1  0  0  0  0
  2 28  1  0  0  0  0
  3  4  1  0  0  0  0
  3 29  1  0  0  0  0
  3 30  1  0  0  0  0
  4  5  1  0  0  0  0
  4 21  1  0  0  0  0
  5 20  1  0  0  0  0
  5  6  2  0  0  0  0
  6  7  1  0  0  0  0
  6 31  1  0  0  0  0
  7  8  2  0  0  0  0
  7 32  1  0  0  0  0
  8  9  1  0  0  0  0
  8 19  1  0  0  0  0
  9 10  1  0  0  0  0
  9 33  1  0  0  0  0
 10 11  2  0  0  0  0
 10 12  1  0  0  0  0
 12 13  1  0  0  0  0
 12 34  1  0  0  0  0
 13 14  1  0  0  0  0
 13 35  1  0  0  0  0
 13 36  1  0  0  0  0
 14 18  1  0  0  0  0
 14 15  1  0  0  0  0
 14 16  1  0  0  0  0
 15 37  1  0  0  0  0
 16 17  1  0  0  0  0
 16 38  1  0  0  0  0
 16 39  1  0  0  0  0
 17 18  1  0  0  0  0
 17 40  1  0  0  0  0
 17 41  1  0  0  0  0
 18 42  1  0  0  0  0
 18 43  1  0  0  0  0
 19 20  2  0  0  0  0
 19 44  1  0  0  0  0
 21 22  1  0  0  0  0
 21 45  1  0  0  0  0
 21 46  1  0  0  0  0
 22 23  1  0  0  0  0
 22 24  1  0  0  0  0
 22 47  1  0  0  0  0
 23 48  1  0  0  0  0
 23 49  1  0  0  0  0
 23 50  1  0  0  0  0
M  END
> <s_m_source_file>
AV-unprocessed.smi

> <i_m_source_file_index>
987

> <i_lp_mmshare_version>
43012

> <i_f3d_flags>
0

> <s_epik_input>
W0NIM11bQ0BASF0xW0NIMl1OKFtDSDJdW0NASF0oTzEpW0NIM10pYzJbY0hdW2NIXWMoW2NIXW4yKVtOSF1DKD1PKVtOSF1bQ0gyXUMzKFtPSF0pW0NIMl1bQ0gyXVtDSDJdMw==

> <s_epik_cmdline>
J2VwaWtfcHl0aG9uJywgJy1waCcsICc3LjAnLCAnLXRuJywgJzgnLCAnLW1hJywgJzIwMCcsICctbWV0YWxfYmluZGluZycsICctaW1hZScsICc8aW5maWxlLm1hZT4nLCAnLW9tYWUnLCAnPG91dGZpbGUubWFlPic=

> <r_lp_tautomer_probability>
1

> <r_epik_Ionization_Penalty>
0.00275455

> <r_epik_Ionization_Penalty_Charging>
0

> <r_epik_Ionization_Penalty_Neutral>
0.00275455

> <r_epik_State_Penalty>
0.00189097

> <r_epik_Charging_Adjusted_Penalty>
0.00189097

> <i_epik_Tot_Q>
0

> <i_epik_Tot_abs_Q>
0

> <r_epik_Metal_State_Penalty>
-0

> <b_epik_Metal_Only>
0

> <s_lp_Force_Field>
OPLS_2005

> <r_lp_Energy>
31.3911

> <b_lp_Chiralities_Consistent>
1

> <s_lp_Variant>
AV-unprocessed.smi:987-1

> <Gold.Version>
5.8.1

> <Gold.Id.Protein>
6NUR|6NUR_protein|mol2

> <Gold.PLP.Fitness>
51.6177

> <Gold.PLP.PLP>
-47.7049

> <Gold.PLP.part.hbond>
-3.6232

> <Gold.PLP.part.metal>
0.0000

> <Gold.PLP.part.buried>
-3.1683

> <Gold.PLP.part.nonpolar>
-41.9106

> <Gold.PLP.part.repulsive>
0.3874

> <Gold.PLP.ligand.clash>
0.0091

> <Gold.PLP.ligand.torsion>
1.2348

> <Gold.PLP.Chemscore.Hbond>
2.0000

> <Gold.PLP.Chemscore.CHOScore>
0.0000

> <Gold.PLP.Chemscore.Metal>
0.0000

> <Gold.Chemscore.Hbonds>
donor molecule, donor type, donor heavy atom, donor atom, acceptor molecule, acceptor atom, score
      L1  H    12    34       P1  7948  1.00
      L1  H    15    37       P1  7948  1.00

> <Gold.PLP.Chemscore.Internal.Correction>
0.3916

> <Gold.Rescore>
     Score         DG    S(hbond)    S(metal)    S(lipo)     H(rot)  DE(clash)    DE(int)     intcor
     18.26     -20.93       1.95        0.00     118.65       1.93       0.31       2.36       ----

> <Gold.Chemscore.Fitness>
18.2558

> <Gold.Chemscore.DG>
-20.9267

> <Gold.Chemscore.ZeroCoef>
-5.4800

> <Gold.Chemscore.Hbond>
1.9507

> <Gold.Chemscore.Metal>
0.0000

> <Gold.Chemscore.Lipo>
118.6534

> <Gold.Chemscore.Internal_Hbond>
0.0000

> <Gold.Chemscore.DEClash>
0.3145

> <Gold.Chemscore.DEInternal>
2.3564

> <Gold.Chemscore.Rot>
1.9340

> <Gold.Chemscore.Internal.Correction>
   9.000000E+99

> <Gold.Chemscore.Hbonds>
donor molecule, donor type, donor heavy atom, donor atom, acceptor molecule, acceptor atom, score
      L1  H    12    34       P1  7948  0.96
      L1  H    15    37       P1  7948  0.99

> <Gold.Chemscore.Hbond.Weighted>
-6.5152

> <Gold.Chemscore.Metal.Weighted>
-0.0000

> <Gold.Chemscore.Lipo.Weighted>
-13.8824

> <Gold.Chemscore.Internal_Hbond.Weighted>
0.0000

> <Gold.Chemscore.DEClash.Weighted>
0.3145

> <Gold.Chemscore.DEInternal.Weighted>
2.3564

> <Gold.Chemscore.Rot.Weighted>
4.9509

> <Gold.Chemscore.Internal.Correction.Weighted>
   9.000000E+99

> <Gold.Protein.RotatedTorsions>
[ 6907 6896 6895 6894 ] final  -56.47 input  -60.11 | X-H torsion
[ 7974 7965 7964 7962 ] final  156.23 input  175.53 | X-H torsion
[ 8008 7997 7996 7995 ] final -159.49 input   59.86 | X-H torsion
[ 10167 10162 10161 10158 ] final   59.96 input  -65.29 | X-H torsion
[ 10718 10713 10712 10709 ] final  -11.00 input   66.30 | X-H torsion
[ 10763 10752 10751 10750 ] final   75.25 input  -60.55 | X-H torsion
[ 11005 11000 10999 10996 ] final  -63.83 input  -57.11 | X-H torsion

> <Gold.Protein.ActiveResidues>
 VAL166  LYS551  ARG553  GLY616  TRP617  ASP618  TYR619  PRO620  LYS621  CYS622 
 ASP623  PHE694  ASN695  SER759  ASP760  ASP761  ALA762  ILE779  LEU786  VAL792 
 PHE793  MET794  SER795  GLU796  ALA797  LYS798  CYS799  TRP800  GLU811  SER814 

> <Gold.Protein.RotatedAtoms>
  150.8165  134.7350  159.6734 H   0  0  0  0  0  0  0  0  0  0  0  0  # atno 6907 bound_to 6896
  152.4283  134.5822  159.9961 H   0  0  0  0  0  0  0  0  0  0  0  0  # atno 6908 bound_to 6896
  151.6018  133.3318  159.3085 H   0  0  0  0  0  0  0  0  0  0  0  0  # atno 6909 bound_to 6896
  144.7976  139.7176  143.6195 H   0  0  0  0  0  0  0  0  0  0  0  0  # atno 7974 bound_to 7965
  155.7634  140.0842  157.2144 H   0  0  0  0  0  0  0  0  0  0  0  0  # atno 8008 bound_to 7997
  154.4001  140.1538  156.2915 H   0  0  0  0  0  0  0  0  0  0  0  0  # atno 8009 bound_to 7997
  155.8817  140.3420  155.5895 H   0  0  0  0  0  0  0  0  0  0  0  0  # atno 8010 bound_to 7997
  140.1708  144.4279  150.6662 H   0  0  0  0  0  0  0  0  0  0  0  0  # atno 10167 bound_to 10162
  156.6654  130.4994  149.6017 H   0  0  0  0  0  0  0  0  0  0  0  0  # atno 10718 bound_to 10713
  153.0642  135.4995  154.8162 H   0  0  0  0  0  0  0  0  0  0  0  0  # atno 10763 bound_to 10752
  154.6928  135.2987  154.9457 H   0  0  0  0  0  0  0  0  0  0  0  0  # atno 10764 bound_to 10752
  154.0206  135.6742  153.4825 H   0  0  0  0  0  0  0  0  0  0  0  0  # atno 10765 bound_to 10752
  141.1406  133.6657  156.5741 H   0  0  0  0  0  0  0  0  0  0  0  0  # atno 11005 bound_to 11000
  146.2248  139.5703  142.9594 LP  0  0  0  0  0  0  0  0  0  0  0  0  # atno 17320 bound_to 7965
  145.5635  141.0402  143.2213 LP  0  0  0  0  0  0  0  0  0  0  0  0  # atno 17321 bound_to 7965
  140.6583  143.2244  151.5915 LP  0  0  0  0  0  0  0  0  0  0  0  0  # atno 17342 bound_to 10162
  139.5339  144.2837  152.1208 LP  0  0  0  0  0  0  0  0  0  0  0  0  # atno 17343 bound_to 10162
  156.1979  130.6601  151.1135 LP  0  0  0  0  0  0  0  0  0  0  0  0  # atno 17370 bound_to 10713
  157.7095  131.0740  150.6549 LP  0  0  0  0  0  0  0  0  0  0  0  0  # atno 17371 bound_to 10713
  140.3890  134.7457  157.4709 LP  0  0  0  0  0  0  0  0  0  0  0  0  # atno 17394 bound_to 11000
  140.0581  134.6035  155.8781 LP  0  0  0  0  0  0  0  0  0  0  0  0  # atno 17395 bound_to 11000

$$$$
