AV-unprocessed.smi:557|AV-procd|sdf|2915|dock1
  -GOLD-   2262023403D 1   1.00000     0.00000
 Structure written by MMmdl.
 47 49  0  0  0  0  0  0  0  0  2 V2000
  152.5653  143.7622  162.0875 C   0  0  0  0  0  0  0  0  0  0  0  0
  152.0671  143.9418  160.7409 N   0  0  0  0  0  0  0  0  0  0  0  0
  152.5159  143.3645  159.5725 C   0  0  0  0  0  0  0  0  0  0  0  0
  151.7337  143.8359  158.5560 C   0  0  0  0  0  0  0  0  0  0  0  0
  151.8064  143.5221  157.0878 C   0  0  0  0  0  0  0  0  0  0  0  0
  151.0960  142.2023  156.7595 C   0  0  0  0  0  0  0  0  0  0  0  0
  149.8490  142.4545  156.0424 N   0  0  0  0  0  0  0  0  0  0  0  0
  149.0858  141.5563  155.3973 C   0  0  0  0  0  0  0  0  0  0  0  0
  149.3864  140.3654  155.3433 O   0  0  0  0  0  0  0  0  0  0  0  0
  147.9854  142.0692  154.8213 N   0  0  0  0  0  0  0  0  0  0  0  0
  146.9981  141.3064  154.0636 C   0  0  1  0  0  0  0  0  0  0  0  0
  147.6284  140.4607  152.9431 C   0  0  0  0  0  0  0  0  0  0  0  0
  146.8235  139.1465  152.9200 C   0  0  0  0  0  0  0  0  0  0  0  0
  145.7486  139.3288  153.9137 N   0  3  1  0  0  0  0  0  0  0  0  0
  145.1670  138.1060  154.5090 C   0  0  0  0  0  0  0  0  0  0  0  0
  144.0095  138.4994  155.4486 C   0  0  0  0  0  0  0  0  0  0  0  0
  144.4516  139.5443  156.4935 C   0  0  0  0  0  0  0  0  0  0  0  0
  145.1355  140.7502  155.8210 C   0  0  0  0  0  0  0  0  0  0  0  0
  146.2820  140.2589  154.9207 C   0  0  2  0  0  0  0  0  0  0  0  0
  150.8216  144.7067  159.2176 C   0  0  0  0  0  0  0  0  0  0  0  0
  151.0245  144.7691  160.5234 N   0  0  0  0  0  0  0  0  0  0  0  0
  153.4131  143.0767  162.0850 H   0  0  0  0  0  0  0  0  0  0  0  0
  151.7781  143.3501  162.7195 H   0  0  0  0  0  0  0  0  0  0  0  0
  152.8860  144.7219  162.4941 H   0  0  0  0  0  0  0  0  0  0  0  0
  153.3461  142.6738  159.5603 H   0  0  0  0  0  0  0  0  0  0  0  0
  151.3605  144.3278  156.5032 H   0  0  0  0  0  0  0  0  0  0  0  0
  152.8464  143.4623  156.7649 H   0  0  0  0  0  0  0  0  0  0  0  0
  151.7449  141.5733  156.1474 H   0  0  0  0  0  0  0  0  0  0  0  0
  150.8846  141.6563  157.6805 H   0  0  0  0  0  0  0  0  0  0  0  0
  149.5339  143.4141  156.0264 H   0  0  0  0  0  0  0  0  0  0  0  0
  147.8198  143.0604  154.9205 H   0  0  0  0  0  0  0  0  0  0  0  0
  146.2607  141.9754  153.6145 H   0  0  0  0  0  0  0  0  0  0  0  0
  147.5831  140.9812  151.9858 H   0  0  0  0  0  0  0  0  0  0  0  0
  148.6780  140.2446  153.1480 H   0  0  0  0  0  0  0  0  0  0  0  0
  146.4069  138.9301  151.9359 H   0  0  0  0  0  0  0  0  0  0  0  0
  147.4635  138.3112  153.2087 H   0  0  0  0  0  0  0  0  0  0  0  0
  144.8035  137.4499  153.7173 H   0  0  0  0  0  0  0  0  0  0  0  0
  145.9348  137.5573  155.0567 H   0  0  0  0  0  0  0  0  0  0  0  0
  143.1890  138.9089  154.8575 H   0  0  0  0  0  0  0  0  0  0  0  0
  143.6155  137.6141  155.9486 H   0  0  0  0  0  0  0  0  0  0  0  0
  143.5937  139.8770  157.0783 H   0  0  0  0  0  0  0  0  0  0  0  0
  145.1446  139.0810  157.1973 H   0  0  0  0  0  0  0  0  0  0  0  0
  144.4082  141.3103  155.2318 H   0  0  0  0  0  0  0  0  0  0  0  0
  145.5141  141.4319  156.5828 H   0  0  0  0  0  0  0  0  0  0  0  0
  147.0191  139.7285  155.5281 H   0  0  0  0  0  0  0  0  0  0  0  0
  150.0231  145.2935  158.7882 H   0  0  0  0  0  0  0  0  0  0  0  0
  145.0016  139.8189  153.4423 H   0  0  0  0  0  0  0  0  0  0  0  0
  1  2  1  0  0  0  0
  1 22  1  0  0  0  0
  1 23  1  0  0  0  0
  1 24  1  0  0  0  0
  2 21  1  0  0  0  0
  2  3  1  0  0  0  0
  3  4  2  0  0  0  0
  3 25  1  0  0  0  0
  4  5  1  0  0  0  0
  4 20  1  0  0  0  0
  5  6  1  0  0  0  0
  5 26  1  0  0  0  0
  5 27  1  0  0  0  0
  6  7  1  0  0  0  0
  6 28  1  0  0  0  0
  6 29  1  0  0  0  0
  7  8  1  0  0  0  0
  7 30  1  0  0  0  0
  8  9  2  0  0  0  0
  8 10  1  0  0  0  0
 10 11  1  0  0  0  0
 10 31  1  0  0  0  0
 11 19  1  0  0  0  0
 11 12  1  0  0  0  0
 11 32  1  0  0  0  0
 12 13  1  0  0  0  0
 12 33  1  0  0  0  0
 12 34  1  0  0  0  0
 13 14  1  0  0  0  0
 13 35  1  0  0  0  0
 13 36  1  0  0  0  0
 14 19  1  0  0  0  0
 14 15  1  0  0  0  0
 14 47  1  0  0  0  0
 15 16  1  0  0  0  0
 15 37  1  0  0  0  0
 15 38  1  0  0  0  0
 16 17  1  0  0  0  0
 16 39  1  0  0  0  0
 16 40  1  0  0  0  0
 17 18  1  0  0  0  0
 17 41  1  0  0  0  0
 17 42  1  0  0  0  0
 18 19  1  0  0  0  0
 18 43  1  0  0  0  0
 18 44  1  0  0  0  0
 19 45  1  0  0  0  0
 20 21  2  0  0  0  0
 20 46  1  0  0  0  0
M  CHG  1  14   1
M  END
> <s_m_source_file>
AV-unprocessed.smi

> <i_m_source_file_index>
557

> <i_lp_mmshare_version>
43012

> <i_f3d_flags>
0

> <s_epik_input>
W0NIM11uMVtjSF1jKFtjSF1uMSlbQ0gyXVtDSDJdW05IXUMoPU8pW05IXVtDQEhdKFtDSDJdW0NIMl0yKVtDQEhdKE4yMylbQ0gyXVtDSDJdW0NIMl1bQ0gyXTM=

> <s_epik_cmdline>
J2VwaWtfcHl0aG9uJywgJy1waCcsICc3LjAnLCAnLXRuJywgJzgnLCAnLW1hJywgJzIwMCcsICctbWV0YWxfYmluZGluZycsICctaW1hZScsICc8aW5maWxlLm1hZT4nLCAnLW9tYWUnLCAnPG91dGZpbGUubWFlPic=

> <r_lp_tautomer_probability>
1

> <r_epik_Ionization_Penalty>
0.000956547

> <r_epik_Ionization_Penalty_Charging>
0.000435796

> <r_epik_Ionization_Penalty_Neutral>
0.000520752

> <r_epik_State_Penalty>
-0

> <r_epik_Charging_Adjusted_Penalty>
0.000435796

> <i_epik_Tot_Q>
1

> <i_epik_Tot_abs_Q>
1

> <r_epik_Metal_State_Penalty>
-0

> <b_epik_Metal_Only>
0

> <s_lp_Force_Field>
OPLS_2005

> <r_lp_Energy>
39.7592

> <b_lp_Chiralities_Consistent>
1

> <s_lp_Variant>
AV-unprocessed.smi:557-2

> <Gold.Version>
5.8.1

> <Gold.Id.Protein>
6NUR|6NUR_protein|mol2

> <Gold.PLP.Fitness>
46.5660

> <Gold.PLP.PLP>
-35.2907

> <Gold.PLP.part.hbond>
-2.8321

> <Gold.PLP.part.metal>
0.0000

> <Gold.PLP.part.buried>
-3.3369

> <Gold.PLP.part.nonpolar>
-30.7757

> <Gold.PLP.part.repulsive>
0.5190

> <Gold.PLP.ligand.clash>
0.0000

> <Gold.PLP.ligand.torsion>
0.7525

> <Gold.PLP.Chemscore.Hbond>
3.5577

> <Gold.PLP.Chemscore.CHOScore>
0.6905

> <Gold.PLP.Chemscore.Metal>
0.0000

> <Gold.Chemscore.Hbonds>
donor molecule, donor type, donor heavy atom, donor atom, acceptor molecule, acceptor atom, score
      L1  H     7    30       P1  8028  0.93
      L1  H    10    31       P1  8028  0.69
      L1  H    14    47       P1 10175  2.00
      L1  C    20    46       P1  8029  0.63

> <Gold.PLP.Chemscore.Internal.Correction>
0.0358

> <Gold.Rescore>
     Score         DG    S(hbond)    S(metal)    S(lipo)     H(rot)  DE(clash)    DE(int)     intcor
     17.77     -21.46       2.85        0.00      90.18       1.60       1.70       1.99       ----

> <Gold.Chemscore.Fitness>
17.7668

> <Gold.Chemscore.DG>
-21.4589

> <Gold.Chemscore.ZeroCoef>
-5.4800

> <Gold.Chemscore.Hbond>
2.8527

> <Gold.Chemscore.Metal>
0.0000

> <Gold.Chemscore.Lipo>
90.1846

> <Gold.Chemscore.Internal_Hbond>
0.0000

> <Gold.Chemscore.DEClash>
1.7049

> <Gold.Chemscore.DEInternal>
1.9871

> <Gold.Chemscore.Rot>
1.6018

> <Gold.Chemscore.Internal.Correction>
   9.000000E+99

> <Gold.Chemscore.Hbonds>
donor molecule, donor type, donor heavy atom, donor atom, acceptor molecule, acceptor atom, score
      L1  H     7    30       P1  8028  0.89
      L1  H    10    31       P1  8028  0.52
      L1  H    14    47       P1 10175  1.00

> <Gold.Chemscore.Hbond.Weighted>
-9.5279

> <Gold.Chemscore.Metal.Weighted>
-0.0000

> <Gold.Chemscore.Lipo.Weighted>
-10.5516

> <Gold.Chemscore.Internal_Hbond.Weighted>
0.0000

> <Gold.Chemscore.DEClash.Weighted>
1.7049

> <Gold.Chemscore.DEInternal.Weighted>
1.9871

> <Gold.Chemscore.Rot.Weighted>
4.1006

> <Gold.Chemscore.Internal.Correction.Weighted>
   9.000000E+99

> <Gold.Protein.RotatedTorsions>
[ 6907 6896 6895 6894 ] final  -27.51 input  -60.11 | X-H torsion
[ 7974 7965 7964 7962 ] final  147.44 input  175.53 | X-H torsion
[ 8008 7997 7996 7995 ] final   29.03 input   59.86 | X-H torsion
[ 10167 10162 10161 10158 ] final  -58.50 input  -65.29 | X-H torsion
[ 10718 10713 10712 10709 ] final   96.58 input   66.30 | X-H torsion
[ 10763 10752 10751 10750 ] final -104.02 input  -60.55 | X-H torsion
[ 11005 11000 10999 10996 ] final   26.93 input  -57.11 | X-H torsion

> <Gold.Protein.ActiveResidues>
 VAL166  LYS551  ARG553  GLY616  TRP617  ASP618  TYR619  PRO620  LYS621  CYS622 
 ASP623  PHE694  ASN695  SER759  ASP760  ASP761  ALA762  ILE779  LEU786  VAL792 
 PHE793  MET794  SER795  GLU796  ALA797  LYS798  CYS799  TRP800  GLU811  SER814 

> <Gold.Protein.RotatedAtoms>
  151.1458  135.0203  159.8646 H   0  0  0  0  0  0  0  0  0  0  0  0  # atno 6907 bound_to 6896
  152.5453  134.1445  159.8503 H   0  0  0  0  0  0  0  0  0  0  0  0  # atno 6908 bound_to 6896
  151.1526  133.4852  159.2628 H   0  0  0  0  0  0  0  0  0  0  0  0  # atno 6909 bound_to 6896
  144.8591  139.6029  143.5938 H   0  0  0  0  0  0  0  0  0  0  0  0  # atno 7974 bound_to 7965
  155.0680  140.3197  155.4639 H   0  0  0  0  0  0  0  0  0  0  0  0  # atno 8008 bound_to 7997
  156.2797  140.2117  156.5753 H   0  0  0  0  0  0  0  0  0  0  0  0  # atno 8009 bound_to 7997
  154.7078  140.0501  157.0508 H   0  0  0  0  0  0  0  0  0  0  0  0  # atno 8010 bound_to 7997
  140.6194  143.2414  151.5519 H   0  0  0  0  0  0  0  0  0  0  0  0  # atno 10167 bound_to 10162
  157.6925  131.0582  150.4514 H   0  0  0  0  0  0  0  0  0  0  0  0  # atno 10718 bound_to 10713
  154.7849  135.4801  153.9924 H   0  0  0  0  0  0  0  0  0  0  0  0  # atno 10763 bound_to 10752
  153.1546  135.6797  153.8839 H   0  0  0  0  0  0  0  0  0  0  0  0  # atno 10764 bound_to 10752
  153.8472  135.3172  155.3408 H   0  0  0  0  0  0  0  0  0  0  0  0  # atno 10765 bound_to 10752
  140.3318  134.2430  155.7701 H   0  0  0  0  0  0  0  0  0  0  0  0  # atno 11005 bound_to 11000
  146.2847  139.6971  142.9204 LP  0  0  0  0  0  0  0  0  0  0  0  0  # atno 17320 bound_to 7965
  145.4347  141.0418  143.2891 LP  0  0  0  0  0  0  0  0  0  0  0  0  # atno 17321 bound_to 7965
  139.5425  144.2608  152.1379 LP  0  0  0  0  0  0  0  0  0  0  0  0  # atno 17342 bound_to 10162
  140.1825  144.4831  150.6521 LP  0  0  0  0  0  0  0  0  0  0  0  0  # atno 17343 bound_to 10162
  156.4865  130.4085  149.6431 LP  0  0  0  0  0  0  0  0  0  0  0  0  # atno 17370 bound_to 10713
  156.3458  130.7406  151.2358 LP  0  0  0  0  0  0  0  0  0  0  0  0  # atno 17371 bound_to 10713
  141.2061  133.7841  157.0194 LP  0  0  0  0  0  0  0  0  0  0  0  0  # atno 17394 bound_to 11000
  140.0854  134.9623  157.1692 LP  0  0  0  0  0  0  0  0  0  0  0  0  # atno 17395 bound_to 11000

$$$$
