AV-unprocessed.smi:3282|AV-procd|sdf|12561|dock6
  -GOLD-   2272018483D 1   1.00000     0.00000
 Structure written by MMmdl.
 34 35  0  0  0  0  0  0  0  0  1 V2000
  150.8215  140.7807  157.6890 C   0  0  0  0  0  0  0  0  0  0  0  0
  150.3321  141.6085  156.4898 C   0  0  0  0  0  0  0  0  0  0  0  0
  150.1121  140.7798  155.2130 C   0  0  0  0  0  0  0  0  0  0  0  0
  151.0299  140.0933  154.7611 O   0  0  0  0  0  0  0  0  0  0  0  0
  148.9017  140.8337  154.6191 N   0  0  0  0  0  0  0  0  0  0  0  0
  147.7546  141.6073  155.0898 C   0  0  0  0  0  0  0  0  0  0  0  0
  146.5750  141.1860  154.2134 C   0  0  0  0  0  0  0  0  0  0  0  0
  147.2148  140.6512  152.9325 C   0  0  2  0  0  0  0  0  0  0  0  0
  146.4169  139.6057  152.3002 N   0  0  0  0  0  0  0  0  0  0  0  0
  146.2082  138.3858  152.8158 C   0  0  0  0  0  0  0  0  0  0  0  0
  146.6833  138.0116  153.8886 O   0  0  0  0  0  0  0  0  0  0  0  0
  145.4257  137.6437  152.0147 N   0  0  0  0  0  0  0  0  0  0  0  0
  144.9744  136.3181  152.2362 C   0  0  0  0  0  0  0  0  0  0  0  0
  144.5943  135.7921  153.4017 N   0  0  0  0  0  0  0  0  0  0  0  0
  144.2405  134.4856  153.0971 C   0  0  0  0  0  0  0  0  0  0  0  0
  144.4287  134.2942  151.7523 C   0  0  0  0  0  0  0  0  0  0  0  0
  144.8954  135.4525  151.1910 O   0  0  0  0  0  0  0  0  0  0  0  0
  148.5750  140.1144  153.3903 C   0  0  0  0  0  0  0  0  0  0  0  0
  150.9673  141.4174  158.5618 H   0  0  0  0  0  0  0  0  0  0  0  0
  151.7736  140.2934  157.4750 H   0  0  0  0  0  0  0  0  0  0  0  0
  150.1007  140.0095  157.9625 H   0  0  0  0  0  0  0  0  0  0  0  0
  149.3960  142.1013  156.7537 H   0  0  0  0  0  0  0  0  0  0  0  0
  151.0593  142.3944  156.2832 H   0  0  0  0  0  0  0  0  0  0  0  0
  147.5402  141.4297  156.1445 H   0  0  0  0  0  0  0  0  0  0  0  0
  147.9629  142.6700  154.9579 H   0  0  0  0  0  0  0  0  0  0  0  0
  146.0228  140.3913  154.7178 H   0  0  0  0  0  0  0  0  0  0  0  0
  145.8782  142.0034  154.0254 H   0  0  0  0  0  0  0  0  0  0  0  0
  147.3798  141.4779  152.2387 H   0  0  0  0  0  0  0  0  0  0  0  0
  145.9896  139.8312  151.4138 H   0  0  0  0  0  0  0  0  0  0  0  0
  145.1114  138.0747  151.1579 H   0  0  0  0  0  0  0  0  0  0  0  0
  143.8847  133.8011  153.8529 H   0  0  0  0  0  0  0  0  0  0  0  0
  144.2870  133.4551  151.0872 H   0  0  0  0  0  0  0  0  0  0  0  0
  149.3340  140.2574  152.6194 H   0  0  0  0  0  0  0  0  0  0  0  0
  148.5254  139.0482  153.6191 H   0  0  0  0  0  0  0  0  0  0  0  0
  1  2  1  0  0  0  0
  1 19  1  0  0  0  0
  1 20  1  0  0  0  0
  1 21  1  0  0  0  0
  2  3  1  0  0  0  0
  2 22  1  0  0  0  0
  2 23  1  0  0  0  0
  3  4  2  0  0  0  0
  3  5  1  0  0  0  0
  5 18  1  0  0  0  0
  5  6  1  0  0  0  0
  6  7  1  0  0  0  0
  6 24  1  0  0  0  0
  6 25  1  0  0  0  0
  7  8  1  0  0  0  0
  7 26  1  0  0  0  0
  7 27  1  0  0  0  0
  8  9  1  0  0  0  0
  8 18  1  0  0  0  0
  8 28  1  0  0  0  0
  9 10  1  0  0  0  0
  9 29  1  0  0  0  0
 10 11  2  0  0  0  0
 10 12  1  0  0  0  0
 12 13  1  0  0  0  0
 12 30  1  0  0  0  0
 13 17  1  0  0  0  0
 13 14  2  0  0  0  0
 14 15  1  0  0  0  0
 15 16  2  0  0  0  0
 15 31  1  0  0  0  0
 16 17  1  0  0  0  0
 16 32  1  0  0  0  0
 18 33  1  0  0  0  0
 18 34  1  0  0  0  0
M  END
> <s_m_source_file>
AV-unprocessed.smi

> <i_m_source_file_index>
3282

> <i_lp_mmshare_version>
43012

> <i_f3d_flags>
0

> <s_epik_input>
W0NIM11bQ0gyXUMoPU8pTjFbQ0gyXVtDSDJdW0NASF0oW0NIMl0xKVtOSF1DKD1PKVtOSF1jMm5bY0hdW2NIXW8y

> <s_epik_cmdline>
J2VwaWtfcHl0aG9uJywgJy1waCcsICc3LjAnLCAnLXRuJywgJzgnLCAnLW1hJywgJzIwMCcsICctbWV0YWxfYmluZGluZycsICctaW1hZScsICc8aW5maWxlLm1hZT4nLCAnLW9tYWUnLCAnPG91dGZpbGUubWFlPic=

> <r_lp_tautomer_probability>
0.785861

> <r_epik_Ionization_Penalty>
4.35681e-05

> <r_epik_Ionization_Penalty_Charging>
0

> <r_epik_Ionization_Penalty_Neutral>
4.35681e-05

> <r_epik_State_Penalty>
0.0212547

> <r_epik_Charging_Adjusted_Penalty>
0.0212547

> <i_epik_Tot_Q>
0

> <i_epik_Tot_abs_Q>
0

> <r_epik_Metal_State_Penalty>
0.00779955

> <b_epik_Metal_Only>
0

> <s_lp_Force_Field>
OPLS_2005

> <r_lp_Energy>
25.4049

> <b_lp_Chiralities_Consistent>
1

> <s_lp_Variant>
AV-unprocessed.smi:3282-2

> <Gold.Version>
5.8.1

> <Gold.Id.Protein>
6NUR|6NUR_protein|mol2

> <Gold.PLP.Fitness>
34.0964

> <Gold.PLP.PLP>
-26.0019

> <Gold.PLP.part.hbond>
-3.0594

> <Gold.PLP.part.metal>
0.0000

> <Gold.PLP.part.buried>
0.1337

> <Gold.PLP.part.nonpolar>
-24.2582

> <Gold.PLP.part.repulsive>
0.5509

> <Gold.PLP.ligand.clash>
0.0000

> <Gold.PLP.ligand.torsion>
0.3943

> <Gold.PLP.Chemscore.Hbond>
2.0000

> <Gold.PLP.Chemscore.CHOScore>
0.9585

> <Gold.PLP.Chemscore.Metal>
0.0000

> <Gold.Chemscore.Hbonds>
donor molecule, donor type, donor heavy atom, donor atom, acceptor molecule, acceptor atom, score
      L1  H    12    30       P1 10171  1.00
      P1  H  7989  7998       L1     4  1.00
      L1  C    15    31       P1 10957  0.95

> <Gold.PLP.Chemscore.Internal.Correction>
0.0077

> <Gold.Rescore>
     Score         DG    S(hbond)    S(metal)    S(lipo)     H(rot)  DE(clash)    DE(int)     intcor
     10.86     -13.92       1.96        0.00      45.18       1.32       1.40       1.67       ----

> <Gold.Chemscore.Fitness>
10.8596

> <Gold.Chemscore.DG>
-13.9246

> <Gold.Chemscore.ZeroCoef>
-5.4800

> <Gold.Chemscore.Hbond>
1.9575

> <Gold.Chemscore.Metal>
0.0000

> <Gold.Chemscore.Lipo>
45.1752

> <Gold.Chemscore.Internal_Hbond>
0.0000

> <Gold.Chemscore.DEClash>
1.3976

> <Gold.Chemscore.DEInternal>
1.6675

> <Gold.Chemscore.Rot>
1.3199

> <Gold.Chemscore.Internal.Correction>
   9.000000E+99

> <Gold.Chemscore.Hbonds>
donor molecule, donor type, donor heavy atom, donor atom, acceptor molecule, acceptor atom, score
      L1  H    12    30       P1 10171  0.99
      P1  H  7989  7998       L1     4  0.64

> <Gold.Chemscore.Hbond.Weighted>
-6.5381

> <Gold.Chemscore.Metal.Weighted>
-0.0000

> <Gold.Chemscore.Lipo.Weighted>
-5.2855

> <Gold.Chemscore.Internal_Hbond.Weighted>
0.0000

> <Gold.Chemscore.DEClash.Weighted>
1.3976

> <Gold.Chemscore.DEInternal.Weighted>
1.6675

> <Gold.Chemscore.Rot.Weighted>
3.3789

> <Gold.Chemscore.Internal.Correction.Weighted>
   9.000000E+99

> <Gold.Protein.RotatedTorsions>
[ 6907 6896 6895 6894 ] final   25.94 input  -60.11 | X-H torsion
[ 7974 7965 7964 7962 ] final   76.50 input  175.53 | X-H torsion
[ 8008 7997 7996 7995 ] final  -20.24 input   59.86 | X-H torsion
[ 10167 10162 10161 10158 ] final  -83.51 input  -65.29 | X-H torsion
[ 10718 10713 10712 10709 ] final  -27.00 input   66.30 | X-H torsion
[ 10763 10752 10751 10750 ] final -142.72 input  -60.55 | X-H torsion
[ 11005 11000 10999 10996 ] final   98.63 input  -57.11 | X-H torsion

> <Gold.Protein.ActiveResidues>
 VAL166  LYS551  ARG553  GLY616  TRP617  ASP618  TYR619  PRO620  LYS621  CYS622 
 ASP623  PHE694  ASN695  SER759  ASP760  ASP761  ALA762  ILE779  LEU786  VAL792 
 PHE793  MET794  SER795  GLU796  ALA797  LYS798  CYS799  TRP800  GLU811  SER814 

> <Gold.Protein.RotatedAtoms>
  151.9801  135.0033  160.0556 H   0  0  0  0  0  0  0  0  0  0  0  0  # atno 6907 bound_to 6896
  152.1704  133.4635  159.4915 H   0  0  0  0  0  0  0  0  0  0  0  0  # atno 6908 bound_to 6896
  150.6901  134.1877  159.4316 H   0  0  0  0  0  0  0  0  0  0  0  0  # atno 6909 bound_to 6896
  145.7021  139.2586  143.1699 H   0  0  0  0  0  0  0  0  0  0  0  0  # atno 7974 bound_to 7965
  154.4783  140.2067  155.9825 H   0  0  0  0  0  0  0  0  0  0  0  0  # atno 8008 bound_to 7997
  156.1124  140.3227  155.8061 H   0  0  0  0  0  0  0  0  0  0  0  0  # atno 8009 bound_to 7997
  155.4611  140.0524  157.2981 H   0  0  0  0  0  0  0  0  0  0  0  0  # atno 8010 bound_to 7997
  140.4219  143.2581  151.8878 H   0  0  0  0  0  0  0  0  0  0  0  0  # atno 10167 bound_to 10162
  156.4438  130.4470  149.7035 H   0  0  0  0  0  0  0  0  0  0  0  0  # atno 10718 bound_to 10713
  154.8498  135.3488  154.6073 H   0  0  0  0  0  0  0  0  0  0  0  0  # atno 10763 bound_to 10752
  153.6682  135.6986  153.5160 H   0  0  0  0  0  0  0  0  0  0  0  0  # atno 10764 bound_to 10752
  153.2763  135.4277  155.0993 H   0  0  0  0  0  0  0  0  0  0  0  0  # atno 10765 bound_to 10752
  139.8772  134.9058  156.4485 H   0  0  0  0  0  0  0  0  0  0  0  0  # atno 11005 bound_to 11000
  146.0789  140.7786  142.9651 LP  0  0  0  0  0  0  0  0  0  0  0  0  # atno 17320 bound_to 7965
  144.6966  140.3457  143.7191 LP  0  0  0  0  0  0  0  0  0  0  0  0  # atno 17321 bound_to 7965
  139.4783  144.5428  151.8503 LP  0  0  0  0  0  0  0  0  0  0  0  0  # atno 17342 bound_to 10162
  140.4524  144.1837  150.5898 LP  0  0  0  0  0  0  0  0  0  0  0  0  # atno 17343 bound_to 10162
  156.3888  130.7617  151.2616 LP  0  0  0  0  0  0  0  0  0  0  0  0  # atno 17370 bound_to 10713
  157.7505  131.0274  150.4003 LP  0  0  0  0  0  0  0  0  0  0  0  0  # atno 17371 bound_to 10713
  140.8949  133.7821  155.9613 LP  0  0  0  0  0  0  0  0  0  0  0  0  # atno 17394 bound_to 11000
  140.8714  134.2722  157.5189 LP  0  0  0  0  0  0  0  0  0  0  0  0  # atno 17395 bound_to 11000

$$$$
