AV-unprocessed.smi:2039|AV-procd|sdf|8282|dock5
  -GOLD-   2272010553D 1   1.00000     0.00000
 Structure written by MMmdl.
 33 34  0  0  0  0  0  0  0  0  1 V2000
  151.5839  130.6273  156.5033 C   0  0  0  0  0  0  0  0  0  0  0  0
  150.8586  131.7352  155.8190 C   0  0  0  0  0  0  0  0  0  0  0  0
  150.8680  132.9963  156.2682 N   0  0  0  0  0  0  0  0  0  0  0  0
  150.1222  133.8470  155.4641 N   0  0  0  0  0  0  0  0  0  0  0  0
  149.5707  133.1995  154.4283 C   0  0  0  0  0  0  0  0  0  0  0  0
  148.7571  133.8269  153.4480 N   0  0  0  0  0  0  0  0  0  0  0  0
  147.7415  133.2967  152.7440 C   0  0  0  0  0  0  0  0  0  0  0  0
  147.3375  132.1374  152.8391 O   0  0  0  0  0  0  0  0  0  0  0  0
  147.2072  134.1998  151.9088 N   0  0  0  0  0  0  0  0  0  0  0  0
  146.0910  133.9519  151.0009 C   0  0  2  0  0  0  0  0  0  0  0  0
  144.7776  133.8880  151.8033 C   0  0  0  0  0  0  0  0  0  0  0  0
  143.5786  133.5707  150.8951 C   0  0  0  0  0  0  0  0  0  0  0  0
  143.8068  132.2646  150.1154 C   0  0  1  0  0  0  0  0  0  0  0  0
  142.7190  132.0381  149.2442 O   0  0  0  0  0  0  0  0  0  0  0  0
  145.1119  132.3258  149.3037 C   0  0  0  0  0  0  0  0  0  0  0  0
  146.3132  132.6468  150.2077 C   0  0  0  0  0  0  0  0  0  0  0  0
  149.9218  131.4811  154.3516 S   0  0  0  0  0  0  0  0  0  0  0  0
  152.0477  130.9813  157.4246 H   0  0  0  0  0  0  0  0  0  0  0  0
  152.3617  130.2322  155.8499 H   0  0  0  0  0  0  0  0  0  0  0  0
  150.8899  129.8232  156.7488 H   0  0  0  0  0  0  0  0  0  0  0  0
  148.9737  134.7948  153.2618 H   0  0  0  0  0  0  0  0  0  0  0  0
  147.6022  135.1288  151.8974 H   0  0  0  0  0  0  0  0  0  0  0  0
  146.0157  134.7833  150.2970 H   0  0  0  0  0  0  0  0  0  0  0  0
  144.8537  133.1238  152.5785 H   0  0  0  0  0  0  0  0  0  0  0  0
  144.6068  134.8342  152.3180 H   0  0  0  0  0  0  0  0  0  0  0  0
  142.6709  133.4961  151.4952 H   0  0  0  0  0  0  0  0  0  0  0  0
  143.4237  134.3969  150.1995 H   0  0  0  0  0  0  0  0  0  0  0  0
  143.8548  131.4292  150.8153 H   0  0  0  0  0  0  0  0  0  0  0  0
  142.0901  132.7338  149.3615 H   0  0  0  0  0  0  0  0  0  0  0  0
  145.2798  131.3781  148.7905 H   0  0  0  0  0  0  0  0  0  0  0  0
  145.0315  133.0885  148.5276 H   0  0  0  0  0  0  0  0  0  0  0  0
  147.2150  132.7240  149.5992 H   0  0  0  0  0  0  0  0  0  0  0  0
  146.4768  131.8179  150.8981 H   0  0  0  0  0  0  0  0  0  0  0  0
  1  2  1  0  0  0  0
  1 18  1  0  0  0  0
  1 19  1  0  0  0  0
  1 20  1  0  0  0  0
  2 17  1  0  0  0  0
  2  3  2  0  0  0  0
  3  4  1  0  0  0  0
  4  5  2  0  0  0  0
  5  6  1  0  0  0  0
  5 17  1  0  0  0  0
  6  7  1  0  0  0  0
  6 21  1  0  0  0  0
  7  8  2  0  0  0  0
  7  9  1  0  0  0  0
  9 10  1  0  0  0  0
  9 22  1  0  0  0  0
 10 16  1  0  0  0  0
 10 11  1  0  0  0  0
 10 23  1  0  0  0  0
 11 12  1  0  0  0  0
 11 24  1  0  0  0  0
 11 25  1  0  0  0  0
 12 13  1  0  0  0  0
 12 26  1  0  0  0  0
 12 27  1  0  0  0  0
 13 14  1  0  0  0  0
 13 15  1  0  0  0  0
 13 28  1  0  0  0  0
 14 29  1  0  0  0  0
 15 16  1  0  0  0  0
 15 30  1  0  0  0  0
 15 31  1  0  0  0  0
 16 32  1  0  0  0  0
 16 33  1  0  0  0  0
M  END
> <s_m_source_file>
AV-unprocessed.smi

> <i_m_source_file_index>
2039

> <i_lp_mmshare_version>
43012

> <i_f3d_flags>
0

> <s_epik_input>
W0NIM11jMW5uYyhzMSlbTkhdQyg9TylbTkhdW0NAQEhdMltDSDJdW0NIMl1bQ0BASF0oW09IXSlbQ0gyXVtDSDJdMg==

> <s_epik_cmdline>
J2VwaWtfcHl0aG9uJywgJy1waCcsICc3LjAnLCAnLXRuJywgJzgnLCAnLW1hJywgJzIwMCcsICctbWV0YWxfYmluZGluZycsICctaW1hZScsICc8aW5maWxlLm1hZT4nLCAnLW9tYWUnLCAnPG91dGZpbGUubWFlPic=

> <r_lp_tautomer_probability>
1

> <r_epik_Ionization_Penalty>
0.000385244

> <r_epik_Ionization_Penalty_Charging>
0

> <r_epik_Ionization_Penalty_Neutral>
0.000385244

> <r_epik_State_Penalty>
-0

> <r_epik_Charging_Adjusted_Penalty>
0

> <i_epik_Tot_Q>
0

> <i_epik_Tot_abs_Q>
0

> <r_epik_Metal_State_Penalty>
0.189642

> <b_epik_Metal_Only>
0

> <s_lp_Force_Field>
OPLS_2005

> <r_lp_Energy>
6.55666

> <b_lp_Chiralities_Consistent>
1

> <s_lp_Variant>
AV-unprocessed.smi:2039-1

> <Gold.Version>
5.8.1

> <Gold.Id.Protein>
6NUR|6NUR_protein|mol2

> <Gold.PLP.Fitness>
41.5848

> <Gold.PLP.PLP>
-30.8834

> <Gold.PLP.part.hbond>
-5.0000

> <Gold.PLP.part.metal>
0.0000

> <Gold.PLP.part.buried>
-0.9896

> <Gold.PLP.part.nonpolar>
-24.0539

> <Gold.PLP.part.repulsive>
0.1875

> <Gold.PLP.ligand.clash>
0.0000

> <Gold.PLP.ligand.torsion>
0.3480

> <Gold.PLP.Chemscore.Hbond>
3.7980

> <Gold.PLP.Chemscore.CHOScore>
0.0000

> <Gold.PLP.Chemscore.Metal>
0.0000

> <Gold.Chemscore.Hbonds>
donor molecule, donor type, donor heavy atom, donor atom, acceptor molecule, acceptor atom, score
      L1  H     6    21       P1  7948  0.75
      L1  H     9    22       P1  7948  1.00
      L1  H    14    29       P1 10186  1.00
      P1  H 10785 10796       L1    14  0.90

> <Gold.PLP.Chemscore.Internal.Correction>
0.0033

> <Gold.Rescore>
     Score         DG    S(hbond)    S(metal)    S(lipo)     H(rot)  DE(clash)    DE(int)     intcor
     15.50     -17.71       2.67        0.00      61.04       1.50       0.11       2.10       ----

> <Gold.Chemscore.Fitness>
15.5013

> <Gold.Chemscore.DG>
-17.7119

> <Gold.Chemscore.ZeroCoef>
-5.4800

> <Gold.Chemscore.Hbond>
2.6741

> <Gold.Chemscore.Metal>
0.0000

> <Gold.Chemscore.Lipo>
61.0358

> <Gold.Chemscore.Internal_Hbond>
0.0000

> <Gold.Chemscore.DEClash>
0.1094

> <Gold.Chemscore.DEInternal>
2.1012

> <Gold.Chemscore.Rot>
1.5004

> <Gold.Chemscore.Internal.Correction>
   9.000000E+99

> <Gold.Chemscore.Hbonds>
donor molecule, donor type, donor heavy atom, donor atom, acceptor molecule, acceptor atom, score
      L1  H     6    21       P1  7948  0.12
      L1  H     9    22       P1  7948  0.84
      L1  H    14    29       P1 10186  0.96
      P1  H 10785 10796       L1    14  0.17

> <Gold.Chemscore.Hbond.Weighted>
-8.9316

> <Gold.Chemscore.Metal.Weighted>
-0.0000

> <Gold.Chemscore.Lipo.Weighted>
-7.1412

> <Gold.Chemscore.Internal_Hbond.Weighted>
0.0000

> <Gold.Chemscore.DEClash.Weighted>
0.1094

> <Gold.Chemscore.DEInternal.Weighted>
2.1012

> <Gold.Chemscore.Rot.Weighted>
3.8409

> <Gold.Chemscore.Internal.Correction.Weighted>
   9.000000E+99

> <Gold.Protein.RotatedTorsions>
[ 6907 6896 6895 6894 ] final  -93.03 input  -60.11 | X-H torsion
[ 7974 7965 7964 7962 ] final -149.79 input  175.53 | X-H torsion
[ 8008 7997 7996 7995 ] final   77.58 input   59.86 | X-H torsion
[ 10167 10162 10161 10158 ] final   60.60 input  -65.29 | X-H torsion
[ 10718 10713 10712 10709 ] final  -92.77 input   66.30 | X-H torsion
[ 10763 10752 10751 10750 ] final  -52.73 input  -60.55 | X-H torsion
[ 11005 11000 10999 10996 ] final -130.73 input  -57.11 | X-H torsion

> <Gold.Protein.ActiveResidues>
 VAL166  LYS551  ARG553  GLY616  TRP617  ASP618  TYR619  PRO620  LYS621  CYS622 
 ASP623  PHE694  ASN695  SER759  ASP760  ASP761  ALA762  ILE779  LEU786  VAL792 
 PHE793  MET794  SER795  GLU796  ALA797  LYS798  CYS799  TRP800  GLU811  SER814 

> <Gold.Protein.RotatedAtoms>
  150.6915  134.2030  159.4329 H   0  0  0  0  0  0  0  0  0  0  0  0  # atno 6907 bound_to 6896
  151.9996  134.9933  160.0574 H   0  0  0  0  0  0  0  0  0  0  0  0  # atno 6908 bound_to 6896
  152.1591  133.4535  159.4889 H   0  0  0  0  0  0  0  0  0  0  0  0  # atno 6909 bound_to 6896
  144.7946  140.5018  143.5749 H   0  0  0  0  0  0  0  0  0  0  0  0  # atno 7974 bound_to 7965
  155.8436  140.3461  155.5647 H   0  0  0  0  0  0  0  0  0  0  0  0  # atno 8008 bound_to 7997
  155.8114  140.0899  157.1921 H   0  0  0  0  0  0  0  0  0  0  0  0  # atno 8009 bound_to 7997
  154.4005  140.1447  156.3379 H   0  0  0  0  0  0  0  0  0  0  0  0  # atno 8010 bound_to 7997
  140.1639  144.4344  150.6695 H   0  0  0  0  0  0  0  0  0  0  0  0  # atno 10167 bound_to 10162
  156.0006  130.5000  150.5675 H   0  0  0  0  0  0  0  0  0  0  0  0  # atno 10718 bound_to 10713
  154.1474  135.6495  153.4956 H   0  0  0  0  0  0  0  0  0  0  0  0  # atno 10763 bound_to 10752
  153.0148  135.5330  154.6843 H   0  0  0  0  0  0  0  0  0  0  0  0  # atno 10764 bound_to 10752
  154.6121  135.2955  155.0392 H   0  0  0  0  0  0  0  0  0  0  0  0  # atno 10765 bound_to 10752
  140.9320  134.1306  157.4226 H   0  0  0  0  0  0  0  0  0  0  0  0  # atno 11005 bound_to 11000
  145.5706  139.1483  143.3290 LP  0  0  0  0  0  0  0  0  0  0  0  0  # atno 17320 bound_to 7965
  146.2210  140.5839  142.9017 LP  0  0  0  0  0  0  0  0  0  0  0  0  # atno 17321 bound_to 7965
  140.6626  143.2257  151.5821 LP  0  0  0  0  0  0  0  0  0  0  0  0  # atno 17342 bound_to 10162
  139.5369  144.2757  152.1269 LP  0  0  0  0  0  0  0  0  0  0  0  0  # atno 17343 bound_to 10162
  157.3575  131.0744  151.1663 LP  0  0  0  0  0  0  0  0  0  0  0  0  # atno 17370 bound_to 10713
  157.2459  130.6591  149.5910 LP  0  0  0  0  0  0  0  0  0  0  0  0  # atno 17371 bound_to 10713
  139.8799  135.0008  156.6033 LP  0  0  0  0  0  0  0  0  0  0  0  0  # atno 17394 bound_to 11000
  140.7849  133.8629  155.8598 LP  0  0  0  0  0  0  0  0  0  0  0  0  # atno 17395 bound_to 11000

$$$$
