AV-unprocessed.smi:2359|AV-procd|sdf|9407|dock6
  -GOLD-   2272013 43D 1   1.00000     0.00000
 Structure written by MMmdl.
 40 41  0  0  0  0  0  0  0  0  1 V2000
  151.0049  142.1828  156.5756 C   0  0  0  0  0  0  0  0  0  0  0  0
  150.2788  141.1602  155.7271 C   0  0  0  0  0  0  0  0  0  0  0  0
  148.9839  141.4082  155.2334 C   0  0  0  0  0  0  0  0  0  0  0  0
  148.3555  140.4201  154.4515 C   0  0  0  0  0  0  0  0  0  0  0  0
  149.0334  139.2098  154.1822 C   0  0  0  0  0  0  0  0  0  0  0  0
  148.3082  138.2792  153.3916 N   0  0  0  0  0  0  0  0  0  0  0  0
  146.9762  138.1118  153.3145 C   0  0  0  0  0  0  0  0  0  0  0  0
  146.1393  138.7434  153.9605 O   0  0  0  0  0  0  0  0  0  0  0  0
  146.6594  137.1524  152.4328 N   0  0  0  0  0  0  0  0  0  0  0  0
  145.3029  136.7258  152.1098 C   0  0  0  0  0  0  0  0  0  0  0  0
  145.2729  135.8426  150.8509 C   0  0  0  0  0  0  0  0  0  0  0  0
  145.0976  134.3507  151.1748 C   0  0  2  0  0  0  0  0  0  0  0  0
  146.4347  133.5863  151.1163 C   0  0  0  0  0  0  0  0  0  0  0  0
  146.2124  132.0900  151.3648 C   0  0  0  0  0  0  0  0  0  0  0  0
  145.1412  131.5592  150.4064 C   0  0  0  0  0  0  0  0  0  0  0  0
  143.8732  132.4230  150.4914 C   0  0  0  0  0  0  0  0  0  0  0  0
  144.1959  133.7844  150.2251 O   0  0  0  0  0  0  0  0  0  0  0  0
  150.2816  138.9809  154.6613 N   0  0  0  0  0  0  0  0  0  0  0  0
  150.8834  139.9283  155.4107 C   0  0  0  0  0  0  0  0  0  0  0  0
  150.4289  143.1042  156.6648 H   0  0  0  0  0  0  0  0  0  0  0  0
  151.9705  142.4261  156.1318 H   0  0  0  0  0  0  0  0  0  0  0  0
  151.1760  141.7880  157.5772 H   0  0  0  0  0  0  0  0  0  0  0  0
  148.4765  142.3370  155.4487 H   0  0  0  0  0  0  0  0  0  0  0  0
  147.3613  140.5935  154.0658 H   0  0  0  0  0  0  0  0  0  0  0  0
  148.8692  137.6782  152.8064 H   0  0  0  0  0  0  0  0  0  0  0  0
  147.4101  136.6844  151.9467 H   0  0  0  0  0  0  0  0  0  0  0  0
  144.8610  136.1997  152.9575 H   0  0  0  0  0  0  0  0  0  0  0  0
  144.6998  137.6206  151.9534 H   0  0  0  0  0  0  0  0  0  0  0  0
  144.4706  136.1705  150.1886 H   0  0  0  0  0  0  0  0  0  0  0  0
  146.2030  135.9785  150.2972 H   0  0  0  0  0  0  0  0  0  0  0  0
  144.6718  134.2563  152.1756 H   0  0  0  0  0  0  0  0  0  0  0  0
  146.8977  133.7283  150.1388 H   0  0  0  0  0  0  0  0  0  0  0  0
  147.1322  133.9855  151.8533 H   0  0  0  0  0  0  0  0  0  0  0  0
  147.1445  131.5394  151.2362 H   0  0  0  0  0  0  0  0  0  0  0  0
  145.8932  131.9325  152.3959 H   0  0  0  0  0  0  0  0  0  0  0  0
  145.5227  131.5741  149.3848 H   0  0  0  0  0  0  0  0  0  0  0  0
  144.9078  130.5199  150.6386 H   0  0  0  0  0  0  0  0  0  0  0  0
  143.1402  132.0854  149.7584 H   0  0  0  0  0  0  0  0  0  0  0  0
  143.4057  132.3344  151.4733 H   0  0  0  0  0  0  0  0  0  0  0  0
  151.8753  139.6945  155.7687 H   0  0  0  0  0  0  0  0  0  0  0  0
  1  2  1  0  0  0  0
  1 20  1  0  0  0  0
  1 21  1  0  0  0  0
  1 22  1  0  0  0  0
  2 19  1  0  0  0  0
  2  3  2  0  0  0  0
  3  4  1  0  0  0  0
  3 23  1  0  0  0  0
  4  5  2  0  0  0  0
  4 24  1  0  0  0  0
  5  6  1  0  0  0  0
  5 18  1  0  0  0  0
  6  7  1  0  0  0  0
  6 25  1  0  0  0  0
  7  8  2  0  0  0  0
  7  9  1  0  0  0  0
  9 10  1  0  0  0  0
  9 26  1  0  0  0  0
 10 11  1  0  0  0  0
 10 27  1  0  0  0  0
 10 28  1  0  0  0  0
 11 12  1  0  0  0  0
 11 29  1  0  0  0  0
 11 30  1  0  0  0  0
 12 17  1  0  0  0  0
 12 13  1  0  0  0  0
 12 31  1  0  0  0  0
 13 14  1  0  0  0  0
 13 32  1  0  0  0  0
 13 33  1  0  0  0  0
 14 15  1  0  0  0  0
 14 34  1  0  0  0  0
 14 35  1  0  0  0  0
 15 16  1  0  0  0  0
 15 36  1  0  0  0  0
 15 37  1  0  0  0  0
 16 17  1  0  0  0  0
 16 38  1  0  0  0  0
 16 39  1  0  0  0  0
 18 19  2  0  0  0  0
 19 40  1  0  0  0  0
M  END
> <s_m_source_file>
AV-unprocessed.smi

> <i_m_source_file_index>
2359

> <i_lp_mmshare_version>
43012

> <i_f3d_flags>
0

> <s_epik_input>
W0NIM11jMVtjSF1bY0hdYyhuW2NIXTEpW05IXUMoPU8pW05IXVtDSDJdW0NIMl1bQ0BASF0yW0NIMl1bQ0gyXVtDSDJdW0NIMl1PMg==

> <s_epik_cmdline>
J2VwaWtfcHl0aG9uJywgJy1waCcsICc3LjAnLCAnLXRuJywgJzgnLCAnLW1hJywgJzIwMCcsICctbWV0YWxfYmluZGluZycsICctaW1hZScsICc8aW5maWxlLm1hZT4nLCAnLW9tYWUnLCAnPG91dGZpbGUubWFlPic=

> <r_lp_tautomer_probability>
1

> <r_epik_Ionization_Penalty>
5.73679e-05

> <r_epik_Ionization_Penalty_Charging>
0

> <r_epik_Ionization_Penalty_Neutral>
5.73679e-05

> <r_epik_State_Penalty>
-0

> <r_epik_Charging_Adjusted_Penalty>
0

> <i_epik_Tot_Q>
0

> <i_epik_Tot_abs_Q>
0

> <r_epik_Metal_State_Penalty>
-0

> <b_epik_Metal_Only>
0

> <s_lp_Force_Field>
OPLS_2005

> <r_lp_Energy>
10.9797

> <b_lp_Chiralities_Consistent>
1

> <s_lp_Variant>
AV-unprocessed.smi:2359-1

> <Gold.Version>
5.8.1

> <Gold.Id.Protein>
6NUR|6NUR_protein|mol2

> <Gold.PLP.Fitness>
40.2335

> <Gold.PLP.PLP>
-36.5015

> <Gold.PLP.part.hbond>
-2.8249

> <Gold.PLP.part.metal>
0.0000

> <Gold.PLP.part.buried>
-3.3868

> <Gold.PLP.part.nonpolar>
-31.7317

> <Gold.PLP.part.repulsive>
0.5899

> <Gold.PLP.ligand.clash>
0.0000

> <Gold.PLP.ligand.torsion>
1.1365

> <Gold.PLP.Chemscore.Hbond>
2.0000

> <Gold.PLP.Chemscore.CHOScore>
0.0000

> <Gold.PLP.Chemscore.Metal>
0.0000

> <Gold.Chemscore.Hbonds>
donor molecule, donor type, donor heavy atom, donor atom, acceptor molecule, acceptor atom, score
      L1  H     6    25       P1  7948  0.98
      L1  H     9    26       P1  7948  1.00

> <Gold.PLP.Chemscore.Internal.Correction>
0.0050

> <Gold.Rescore>
     Score         DG    S(hbond)    S(metal)    S(lipo)     H(rot)  DE(clash)    DE(int)     intcor
     15.63     -17.98       1.94        0.00      82.54       1.42       0.00       2.35       ----

> <Gold.Chemscore.Fitness>
15.6260

> <Gold.Chemscore.DG>
-17.9828

> <Gold.Chemscore.ZeroCoef>
-5.4800

> <Gold.Chemscore.Hbond>
1.9439

> <Gold.Chemscore.Metal>
0.0000

> <Gold.Chemscore.Lipo>
82.5440

> <Gold.Chemscore.Internal_Hbond>
0.0000

> <Gold.Chemscore.DEClash>
0.0044

> <Gold.Chemscore.DEInternal>
2.3525

> <Gold.Chemscore.Rot>
1.4248

> <Gold.Chemscore.Internal.Correction>
   9.000000E+99

> <Gold.Chemscore.Hbonds>
donor molecule, donor type, donor heavy atom, donor atom, acceptor molecule, acceptor atom, score
      L1  H     6    25       P1  7948  0.93
      L1  H     9    26       P1  7948  0.95

> <Gold.Chemscore.Hbond.Weighted>
-6.4927

> <Gold.Chemscore.Metal.Weighted>
-0.0000

> <Gold.Chemscore.Lipo.Weighted>
-9.6576

> <Gold.Chemscore.Internal_Hbond.Weighted>
0.0000

> <Gold.Chemscore.DEClash.Weighted>
0.0044

> <Gold.Chemscore.DEInternal.Weighted>
2.3525

> <Gold.Chemscore.Rot.Weighted>
3.6476

> <Gold.Chemscore.Internal.Correction.Weighted>
   9.000000E+99

> <Gold.Protein.RotatedTorsions>
[ 6907 6896 6895 6894 ] final -117.32 input  -60.11 | X-H torsion
[ 7974 7965 7964 7962 ] final -143.73 input  175.53 | X-H torsion
[ 8008 7997 7996 7995 ] final  157.06 input   59.86 | X-H torsion
[ 10167 10162 10161 10158 ] final   49.97 input  -65.29 | X-H torsion
[ 10718 10713 10712 10709 ] final   16.35 input   66.30 | X-H torsion
[ 10763 10752 10751 10750 ] final  110.81 input  -60.55 | X-H torsion
[ 11005 11000 10999 10996 ] final   47.51 input  -57.11 | X-H torsion

> <Gold.Protein.ActiveResidues>
 VAL166  LYS551  ARG553  GLY616  TRP617  ASP618  TYR619  PRO620  LYS621  CYS622 
 ASP623  PHE694  ASN695  SER759  ASP760  ASP761  ALA762  ILE779  LEU786  VAL792 
 PHE793  MET794  SER795  GLU796  ALA797  LYS798  CYS799  TRP800  GLU811  SER814 

> <Gold.Protein.RotatedAtoms>
  150.8127  133.8393  159.3174 H   0  0  0  0  0  0  0  0  0  0  0  0  # atno 6907 bound_to 6896
  151.6173  135.1033  160.0103 H   0  0  0  0  0  0  0  0  0  0  0  0  # atno 6908 bound_to 6896
  152.4219  133.7090  159.6524 H   0  0  0  0  0  0  0  0  0  0  0  0  # atno 6909 bound_to 6896
  144.8348  140.5798  143.5491 H   0  0  0  0  0  0  0  0  0  0  0  0  # atno 7974 bound_to 7965
  156.2386  140.1895  156.7051 H   0  0  0  0  0  0  0  0  0  0  0  0  # atno 8008 bound_to 7997
  154.6154  140.0616  156.9574 H   0  0  0  0  0  0  0  0  0  0  0  0  # atno 8009 bound_to 7997
  155.1948  140.3287  155.4355 H   0  0  0  0  0  0  0  0  0  0  0  0  # atno 8010 bound_to 7997
  140.2773  144.3197  150.6274 H   0  0  0  0  0  0  0  0  0  0  0  0  # atno 10167 bound_to 10162
  157.0666  130.6331  149.5797 H   0  0  0  0  0  0  0  0  0  0  0  0  # atno 10718 bound_to 10713
  153.4544  135.3736  155.2302 H   0  0  0  0  0  0  0  0  0  0  0  0  # atno 10763 bound_to 10752
  154.8757  135.3893  154.4000 H   0  0  0  0  0  0  0  0  0  0  0  0  # atno 10764 bound_to 10752
  153.4564  135.7086  153.6141 H   0  0  0  0  0  0  0  0  0  0  0  0  # atno 10765 bound_to 10752
  140.1273  134.4751  155.8549 H   0  0  0  0  0  0  0  0  0  0  0  0  # atno 11005 bound_to 11000
  145.4818  139.1495  143.3757 LP  0  0  0  0  0  0  0  0  0  0  0  0  # atno 17320 bound_to 7965
  146.2648  140.4954  142.8839 LP  0  0  0  0  0  0  0  0  0  0  0  0  # atno 17321 bound_to 7965
  140.5841  143.2171  151.7375 LP  0  0  0  0  0  0  0  0  0  0  0  0  # atno 17342 bound_to 10162
  139.4972  144.4037  152.0154 LP  0  0  0  0  0  0  0  0  0  0  0  0  # atno 17343 bound_to 10162
  155.9962  130.5031  150.7489 LP  0  0  0  0  0  0  0  0  0  0  0  0  # atno 17370 bound_to 10713
  157.4911  131.0911  151.0425 LP  0  0  0  0  0  0  0  0  0  0  0  0  # atno 17371 bound_to 10713
  141.2163  133.6782  156.7003 LP  0  0  0  0  0  0  0  0  0  0  0  0  # atno 17394 bound_to 11000
  140.2887  134.8258  157.3998 LP  0  0  0  0  0  0  0  0  0  0  0  0  # atno 17395 bound_to 11000

$$$$
