AV-unprocessed.smi:898|AV-procd|sdf|4086|dock9
  -GOLD-   22720 1573D 1   1.00000     0.00000
 Structure written by MMmdl.
 33 35  0  0  0  0  0  0  0  0  2 V2000
  149.8103  136.0066  158.3544 O   0  0  0  0  0  0  0  0  0  0  0  0
  149.1569  137.0016  158.6767 C   0  0  0  0  0  0  0  0  0  0  0  0
  149.0962  138.1731  158.0034 N   0  5  0  0  0  0  0  0  0  0  0  0
  149.9312  139.1754  158.3229 C   0  0  0  0  0  0  0  0  0  0  0  0
  149.5949  140.4650  158.1789 N   0  0  0  0  0  0  0  0  0  0  0  0
  150.6037  141.3366  158.5626 N   0  0  0  0  0  0  0  0  0  0  0  0
  151.6932  140.6914  158.9860 C   0  0  0  0  0  0  0  0  0  0  0  0
  152.9147  141.4083  159.4556 C   0  0  0  0  0  0  0  0  0  0  0  0
  152.9069  142.2486  160.7143 C   0  0  0  0  0  0  0  0  0  0  0  0
  153.0080  142.9141  159.3655 C   0  0  0  0  0  0  0  0  0  0  0  0
  151.5667  138.9402  158.9382 S   0  0  0  0  0  0  0  0  0  0  0  0
  148.4074  136.9803  159.7884 N   0  0  0  0  0  0  0  0  0  0  0  0
  148.2570  135.8546  160.7070 C   0  0  1  0  0  0  0  0  0  0  0  0
  147.4554  136.3147  161.9398 C   0  0  0  0  0  0  0  0  0  0  0  0
  147.2994  135.2076  162.9949 C   0  0  0  0  0  0  0  0  0  0  0  0
  146.5515  133.9830  162.4498 C   0  0  0  0  0  0  0  0  0  0  0  0
  147.4565  133.2195  161.0771 S   0  0  0  0  0  0  0  0  0  0  0  0
  147.5764  134.6698  159.9934 C   0  0  0  0  0  0  0  0  0  0  0  0
  153.8087  140.8272  159.2382 H   0  0  0  0  0  0  0  0  0  0  0  0
  151.9686  142.3605  161.2541 H   0  0  0  0  0  0  0  0  0  0  0  0
  153.8010  142.2315  161.3340 H   0  0  0  0  0  0  0  0  0  0  0  0
  153.9686  143.3410  159.0849 H   0  0  0  0  0  0  0  0  0  0  0  0
  152.1340  143.4533  159.0052 H   0  0  0  0  0  0  0  0  0  0  0  0
  147.8917  137.8190  160.0105 H   0  0  0  0  0  0  0  0  0  0  0  0
  149.2484  135.5442  161.0427 H   0  0  0  0  0  0  0  0  0  0  0  0
  147.9542  137.1699  162.3978 H   0  0  0  0  0  0  0  0  0  0  0  0
  146.4694  136.6664  161.6322 H   0  0  0  0  0  0  0  0  0  0  0  0
  148.2807  134.9069  163.3640 H   0  0  0  0  0  0  0  0  0  0  0  0
  146.7585  135.6047  163.8543 H   0  0  0  0  0  0  0  0  0  0  0  0
  146.4189  133.2401  163.2365 H   0  0  0  0  0  0  0  0  0  0  0  0
  145.5563  134.2666  162.1059 H   0  0  0  0  0  0  0  0  0  0  0  0
  146.5753  134.9473  159.6617 H   0  0  0  0  0  0  0  0  0  0  0  0
  148.1376  134.3810  159.1041 H   0  0  0  0  0  0  0  0  0  0  0  0
  1  2  2  0  0  0  0
  2  3  1  0  0  0  0
  2 12  1  0  0  0  0
  3  4  1  0  0  0  0
  4 11  1  0  0  0  0
  4  5  2  0  0  0  0
  5  6  1  0  0  0  0
  6  7  2  0  0  0  0
  7  8  1  0  0  0  0
  7 11  1  0  0  0  0
  8 10  1  0  0  0  0
  8  9  1  0  0  0  0
  8 19  1  0  0  0  0
  9 10  1  0  0  0  0
  9 20  1  0  0  0  0
  9 21  1  0  0  0  0
 10 22  1  0  0  0  0
 10 23  1  0  0  0  0
 12 13  1  0  0  0  0
 12 24  1  0  0  0  0
 13 18  1  0  0  0  0
 13 14  1  0  0  0  0
 13 25  1  0  0  0  0
 14 15  1  0  0  0  0
 14 26  1  0  0  0  0
 14 27  1  0  0  0  0
 15 16  1  0  0  0  0
 15 28  1  0  0  0  0
 15 29  1  0  0  0  0
 16 17  1  0  0  0  0
 16 30  1  0  0  0  0
 16 31  1  0  0  0  0
 17 18  1  0  0  0  0
 18 32  1  0  0  0  0
 18 33  1  0  0  0  0
M  CHG  1   3  -1
M  END
> <s_m_source_file>
AV-unprocessed.smi

> <i_m_source_file_index>
898

> <i_lp_mmshare_version>
43012

> <i_f3d_flags>
0

> <s_epik_input>
W0NIMl0xU1tDSDJdW0NIMl1bQ0gyXVtDQEhdMVtOSF1DKD1PKVtOSF1jMm5uYyhzMilbQ0hdM1tDSDJdW0NIMl0z

> <s_epik_cmdline>
J2VwaWtfcHl0aG9uJywgJy1waCcsICc3LjAnLCAnLXRuJywgJzgnLCAnLW1hJywgJzIwMCcsICctbWV0YWxfYmluZGluZycsICctaW1hZScsICc8aW5maWxlLm1hZT4nLCAnLW9tYWUnLCAnPG91dGZpbGUubWFlPic=

> <r_lp_tautomer_probability>
1

> <r_epik_Ionization_Penalty>
4.71411

> <r_epik_Ionization_Penalty_Charging>
4.5615

> <r_epik_Ionization_Penalty_Neutral>
0.152604

> <r_epik_State_Penalty>
4.56123

> <r_epik_Charging_Adjusted_Penalty>
9.12273

> <i_epik_Tot_Q>
-1

> <i_epik_Tot_abs_Q>
1

> <r_epik_Metal_State_Penalty>
0.850765

> <b_epik_Metal_Only>
1

> <s_lp_Force_Field>
OPLS_2005

> <r_lp_Energy>
0.516701

> <b_lp_Chiralities_Consistent>
1

> <s_lp_Variant>
AV-unprocessed.smi:898-4

> <Gold.Version>
5.8.1

> <Gold.Id.Protein>
6NUR|6NUR_protein|mol2

> <Gold.PLP.Fitness>
37.3838

> <Gold.PLP.PLP>
-36.3322

> <Gold.PLP.part.hbond>
-1.0000

> <Gold.PLP.part.metal>
0.0000

> <Gold.PLP.part.buried>
-4.8825

> <Gold.PLP.part.nonpolar>
-31.6591

> <Gold.PLP.part.repulsive>
0.2477

> <Gold.PLP.ligand.clash>
0.0000

> <Gold.PLP.ligand.torsion>
1.0451

> <Gold.PLP.Chemscore.Hbond>
1.0000

> <Gold.PLP.Chemscore.CHOScore>
0.0000

> <Gold.PLP.Chemscore.Metal>
0.0000

> <Gold.Chemscore.Hbonds>
donor molecule, donor type, donor heavy atom, donor atom, acceptor molecule, acceptor atom, score
      P1  H  6896  6909       L1     1  1.00

> <Gold.PLP.Chemscore.Internal.Correction>
0.1417

> <Gold.Rescore>
     Score         DG    S(hbond)    S(metal)    S(lipo)     H(rot)  DE(clash)    DE(int)     intcor
     15.68     -16.80       0.99        0.00      94.63       1.19       0.08       1.04       ----

> <Gold.Chemscore.Fitness>
15.6827

> <Gold.Chemscore.DG>
-16.8048

> <Gold.Chemscore.ZeroCoef>
-5.4800

> <Gold.Chemscore.Hbond>
0.9886

> <Gold.Chemscore.Metal>
0.0000

> <Gold.Chemscore.Lipo>
94.6334

> <Gold.Chemscore.Internal_Hbond>
0.0000

> <Gold.Chemscore.DEClash>
0.0781

> <Gold.Chemscore.DEInternal>
1.0439

> <Gold.Chemscore.Rot>
1.1911

> <Gold.Chemscore.Internal.Correction>
   9.000000E+99

> <Gold.Chemscore.Hbonds>
donor molecule, donor type, donor heavy atom, donor atom, acceptor molecule, acceptor atom, score
      P1  H  6896  6909       L1     1  0.93

> <Gold.Chemscore.Hbond.Weighted>
-3.3019

> <Gold.Chemscore.Metal.Weighted>
-0.0000

> <Gold.Chemscore.Lipo.Weighted>
-11.0721

> <Gold.Chemscore.Internal_Hbond.Weighted>
0.0000

> <Gold.Chemscore.DEClash.Weighted>
0.0781

> <Gold.Chemscore.DEInternal.Weighted>
1.0439

> <Gold.Chemscore.Rot.Weighted>
3.0492

> <Gold.Chemscore.Internal.Correction.Weighted>
   9.000000E+99

> <Gold.Protein.RotatedTorsions>
[ 6907 6896 6895 6894 ] final   62.01 input  -60.11 | X-H torsion
[ 7974 7965 7964 7962 ] final  175.27 input  175.53 | X-H torsion
[ 8008 7997 7996 7995 ] final  104.08 input   59.86 | X-H torsion
[ 10167 10162 10161 10158 ] final    1.09 input  -65.29 | X-H torsion
[ 10718 10713 10712 10709 ] final  120.58 input   66.30 | X-H torsion
[ 10763 10752 10751 10750 ] final  129.86 input  -60.55 | X-H torsion
[ 11005 11000 10999 10996 ] final  -23.88 input  -57.11 | X-H torsion

> <Gold.Protein.ActiveResidues>
 VAL166  LYS551  ARG553  GLY616  TRP617  ASP618  TYR619  PRO620  LYS621  CYS622 
 ASP623  PHE694  ASN695  SER759  ASP760  ASP761  ALA762  ILE779  LEU786  VAL792 
 PHE793  MET794  SER795  GLU796  ALA797  LYS798  CYS799  TRP800  GLU811  SER814 

> <Gold.Protein.RotatedAtoms>
  152.4136  134.6080  160.0017 H   0  0  0  0  0  0  0  0  0  0  0  0  # atno 6907 bound_to 6896
  151.6250  133.3330  159.3104 H   0  0  0  0  0  0  0  0  0  0  0  0  # atno 6908 bound_to 6896
  150.8026  134.7170  159.6681 H   0  0  0  0  0  0  0  0  0  0  0  0  # atno 6909 bound_to 6896
  144.7205  139.9921  143.6440 H   0  0  0  0  0  0  0  0  0  0  0  0  # atno 7974 bound_to 7965
  156.1541  140.3154  155.8696 H   0  0  0  0  0  0  0  0  0  0  0  0  # atno 8008 bound_to 7997
  155.3913  140.0494  157.3057 H   0  0  0  0  0  0  0  0  0  0  0  0  # atno 8009 bound_to 7997
  154.5085  140.2156  155.9214 H   0  0  0  0  0  0  0  0  0  0  0  0  # atno 8010 bound_to 7997
  140.6699  143.7078  150.7901 H   0  0  0  0  0  0  0  0  0  0  0  0  # atno 10167 bound_to 10162
  157.5881  131.1067  150.8054 H   0  0  0  0  0  0  0  0  0  0  0  0  # atno 10718 bound_to 10713
  153.7485  135.3213  155.3317 H   0  0  0  0  0  0  0  0  0  0  0  0  # atno 10763 bound_to 10752
  154.8271  135.4562  154.0955 H   0  0  0  0  0  0  0  0  0  0  0  0  # atno 10764 bound_to 10752
  153.2151  135.6941  153.8149 H   0  0  0  0  0  0  0  0  0  0  0  0  # atno 10765 bound_to 10752
  140.8793  133.7665  156.0282 H   0  0  0  0  0  0  0  0  0  0  0  0  # atno 11005 bound_to 11000
  146.0403  139.3415  143.0701 LP  0  0  0  0  0  0  0  0  0  0  0  0  # atno 17320 bound_to 7965
  145.8343  140.9614  143.0832 LP  0  0  0  0  0  0  0  0  0  0  0  0  # atno 17321 bound_to 7965
  140.0762  143.5013  152.2554 LP  0  0  0  0  0  0  0  0  0  0  0  0  # atno 17342 bound_to 10162
  139.5962  144.7568  151.3280 LP  0  0  0  0  0  0  0  0  0  0  0  0  # atno 17343 bound_to 10162
  156.8483  130.5072  149.5314 LP  0  0  0  0  0  0  0  0  0  0  0  0  # atno 17370 bound_to 10713
  156.0932  130.5912  150.9769 LP  0  0  0  0  0  0  0  0  0  0  0  0  # atno 17371 bound_to 10713
  140.8481  134.2987  157.5287 LP  0  0  0  0  0  0  0  0  0  0  0  0  # atno 17394 bound_to 11000
  139.8718  134.9452  156.3904 LP  0  0  0  0  0  0  0  0  0  0  0  0  # atno 17395 bound_to 11000

$$$$
