AV-unprocessed.smi:342|AV-procd|sdf|2385|dock3
  -GOLD-   2262022313D 1   1.00000     0.00000
 Structure written by MMmdl.
 41 43  0  0  0  0  0  0  0  0  1 V2000
  151.2540  139.9963  154.8982 O   0  0  0  0  0  0  0  0  0  0  0  0
  150.2045  140.7855  155.4229 C   0  0  1  0  0  0  0  0  0  0  0  0
  148.9794  140.6587  154.4944 C   0  0  0  0  0  0  0  0  0  0  0  0
  147.9037  141.6238  154.7278 N   0  0  0  0  0  0  0  0  0  0  0  0
  146.9717  141.6441  153.6050 C   0  0  0  0  0  0  0  0  0  0  0  0
  145.8289  142.6507  153.8215 C   0  0  0  0  0  0  0  0  0  0  0  0
  145.1460  142.3403  155.0313 O   0  0  0  0  0  0  0  0  0  0  0  0
  146.0075  142.3544  156.1644 C   0  0  0  0  0  0  0  0  0  0  0  0
  147.1570  141.3528  155.9557 C   0  0  0  0  0  0  0  0  0  0  0  0
  149.8752  140.3189  156.8557 C   0  0  0  0  0  0  0  0  0  0  0  0
  150.8958  140.7013  157.8242 N   0  0  0  0  0  0  0  0  0  0  0  0
  151.6693  139.9010  158.6047 C   0  0  0  0  0  0  0  0  0  0  0  0
  151.5571  138.4013  158.5842 C   0  0  0  0  0  0  0  0  0  0  0  0
  151.9085  137.9128  157.3937 F   0  0  0  0  0  0  0  0  0  0  0  0
  152.3612  137.8601  159.4995 F   0  0  0  0  0  0  0  0  0  0  0  0
  150.3058  138.0122  158.8275 F   0  0  0  0  0  0  0  0  0  0  0  0
  152.5235  140.5371  159.4101 N   0  0  0  0  0  0  0  0  0  0  0  0
  152.2786  141.8666  159.1321 C   0  0  0  0  0  0  0  0  0  0  0  0
  152.8640  143.0381  159.6628 C   0  0  0  0  0  0  0  0  0  0  0  0
  152.4394  144.3097  159.2250 C   0  0  0  0  0  0  0  0  0  0  0  0
  151.4243  144.4272  158.2538 C   0  0  0  0  0  0  0  0  0  0  0  0
  150.8285  143.2723  157.7119 C   0  0  0  0  0  0  0  0  0  0  0  0
  151.2592  142.0049  158.1492 C   0  0  0  0  0  0  0  0  0  0  0  0
  150.9237  139.1262  154.7349 H   0  0  0  0  0  0  0  0  0  0  0  0
  150.5497  141.8165  155.4682 H   0  0  0  0  0  0  0  0  0  0  0  0
  149.3280  140.7476  153.4641 H   0  0  0  0  0  0  0  0  0  0  0  0
  148.5707  139.6504  154.5787 H   0  0  0  0  0  0  0  0  0  0  0  0
  147.5031  141.8986  152.6872 H   0  0  0  0  0  0  0  0  0  0  0  0
  146.5504  140.6488  153.4552 H   0  0  0  0  0  0  0  0  0  0  0  0
  146.2141  143.6709  153.8632 H   0  0  0  0  0  0  0  0  0  0  0  0
  145.1233  142.6077  152.9919 H   0  0  0  0  0  0  0  0  0  0  0  0
  146.3969  143.3616  156.3213 H   0  0  0  0  0  0  0  0  0  0  0  0
  145.4324  142.0916  157.0525 H   0  0  0  0  0  0  0  0  0  0  0  0
  146.7509  140.3405  155.9263 H   0  0  0  0  0  0  0  0  0  0  0  0
  147.8141  141.4009  156.8226 H   0  0  0  0  0  0  0  0  0  0  0  0
  148.9304  140.7578  157.1781 H   0  0  0  0  0  0  0  0  0  0  0  0
  149.7277  139.2402  156.8774 H   0  0  0  0  0  0  0  0  0  0  0  0
  153.6402  142.9581  160.4094 H   0  0  0  0  0  0  0  0  0  0  0  0
  152.8936  145.1986  159.6376 H   0  0  0  0  0  0  0  0  0  0  0  0
  151.1030  145.4047  157.9248 H   0  0  0  0  0  0  0  0  0  0  0  0
  150.0505  143.3604  156.9684 H   0  0  0  0  0  0  0  0  0  0  0  0
  1  2  1  0  0  0  0
  1 24  1  0  0  0  0
  2  3  1  0  0  0  0
  2 10  1  0  0  0  0
  2 25  1  0  0  0  0
  3  4  1  0  0  0  0
  3 26  1  0  0  0  0
  3 27  1  0  0  0  0
  4  9  1  0  0  0  0
  4  5  1  0  0  0  0
  5  6  1  0  0  0  0
  5 28  1  0  0  0  0
  5 29  1  0  0  0  0
  6  7  1  0  0  0  0
  6 30  1  0  0  0  0
  6 31  1  0  0  0  0
  7  8  1  0  0  0  0
  8  9  1  0  0  0  0
  8 32  1  0  0  0  0
  8 33  1  0  0  0  0
  9 34  1  0  0  0  0
  9 35  1  0  0  0  0
 10 11  1  0  0  0  0
 10 36  1  0  0  0  0
 10 37  1  0  0  0  0
 11 23  1  0  0  0  0
 11 12  1  0  0  0  0
 12 13  1  0  0  0  0
 12 17  2  0  0  0  0
 13 14  1  0  0  0  0
 13 15  1  0  0  0  0
 13 16  1  0  0  0  0
 17 18  1  0  0  0  0
 18 23  2  0  0  0  0
 18 19  1  0  0  0  0
 19 20  2  0  0  0  0
 19 38  1  0  0  0  0
 20 21  1  0  0  0  0
 20 39  1  0  0  0  0
 21 22  2  0  0  0  0
 21 40  1  0  0  0  0
 22 23  1  0  0  0  0
 22 41  1  0  0  0  0
M  END
> <s_m_source_file>
AV-unprocessed.smi

> <i_m_source_file_index>
342

> <i_lp_mmshare_version>
43012

> <i_f3d_flags>
0

> <s_epik_input>
W2NIXTFbY0hdW2NIXVtjSF1jKGMxMiluKGMobjIpQyhGKShGKUYpW0NIMl1bQ0BIXShbT0hdKVtDSDJdTjNbQ0gyXVtDSDJdT1tDSDJdW0NIMl0z

> <s_epik_cmdline>
J2VwaWtfcHl0aG9uJywgJy1waCcsICc3LjAnLCAnLXRuJywgJzgnLCAnLW1hJywgJzIwMCcsICctbWV0YWxfYmluZGluZycsICctaW1hZScsICc8aW5maWxlLm1hZT4nLCAnLW9tYWUnLCAnPG91dGZpbGUubWFlPic=

> <r_epik_Ionization_Penalty>
0.263195

> <r_epik_Ionization_Penalty_Charging>
0

> <r_epik_Ionization_Penalty_Neutral>
0.263195

> <r_epik_State_Penalty>
0.254683

> <r_epik_Charging_Adjusted_Penalty>
0.254683

> <i_epik_Tot_Q>
0

> <i_epik_Tot_abs_Q>
0

> <r_epik_Metal_State_Penalty>
0.254691

> <b_epik_Metal_Only>
0

> <s_lp_Force_Field>
OPLS_2005

> <r_lp_Energy>
34.5572

> <b_lp_Chiralities_Consistent>
1

> <s_lp_Variant>
AV-unprocessed.smi:342-2

> <Gold.Version>
5.8.1

> <Gold.Id.Protein>
6NUR|6NUR_protein|mol2

> <Gold.PLP.Fitness>
48.1133

> <Gold.PLP.PLP>
-45.5004

> <Gold.PLP.part.hbond>
-1.0000

> <Gold.PLP.part.metal>
0.0000

> <Gold.PLP.part.buried>
-8.0088

> <Gold.PLP.part.nonpolar>
-37.7141

> <Gold.PLP.part.repulsive>
0.3111

> <Gold.PLP.ligand.clash>
0.0000

> <Gold.PLP.ligand.torsion>
0.2941

> <Gold.PLP.Chemscore.Hbond>
1.0000

> <Gold.PLP.Chemscore.CHOScore>
0.0000

> <Gold.PLP.Chemscore.Metal>
0.0000

> <Gold.Chemscore.Hbonds>
donor molecule, donor type, donor heavy atom, donor atom, acceptor molecule, acceptor atom, score
      P1  H  7989  7998       L1     1  1.00

> <Gold.PLP.Chemscore.Internal.Correction>
0.2010

> <Gold.Rescore>
     Score         DG    S(hbond)    S(metal)    S(lipo)     H(rot)  DE(clash)    DE(int)     intcor
     14.88     -15.46       0.87        0.00     109.68       2.24       0.07       0.52       ----

> <Gold.Chemscore.Fitness>
14.8779

> <Gold.Chemscore.DG>
-15.4638

> <Gold.Chemscore.ZeroCoef>
-5.4800

> <Gold.Chemscore.Hbond>
0.8655

> <Gold.Chemscore.Metal>
0.0000

> <Gold.Chemscore.Lipo>
109.6843

> <Gold.Chemscore.Internal_Hbond>
0.0000

> <Gold.Chemscore.DEClash>
0.0652

> <Gold.Chemscore.DEInternal>
0.5207

> <Gold.Chemscore.Rot>
2.2421

> <Gold.Chemscore.Internal.Correction>
   9.000000E+99

> <Gold.Chemscore.Hbonds>
donor molecule, donor type, donor heavy atom, donor atom, acceptor molecule, acceptor atom, score
      P1  H  7989  7998       L1     1  0.26

> <Gold.Chemscore.Hbond.Weighted>
-2.8906

> <Gold.Chemscore.Metal.Weighted>
-0.0000

> <Gold.Chemscore.Lipo.Weighted>
-12.8331

> <Gold.Chemscore.Internal_Hbond.Weighted>
0.0000

> <Gold.Chemscore.DEClash.Weighted>
0.0652

> <Gold.Chemscore.DEInternal.Weighted>
0.5207

> <Gold.Chemscore.Rot.Weighted>
5.7399

> <Gold.Chemscore.Internal.Correction.Weighted>
   9.000000E+99

> <Gold.Protein.RotatedTorsions>
[ 6907 6896 6895 6894 ] final  -74.64 input  -60.11 | X-H torsion
[ 7974 7965 7964 7962 ] final -101.29 input  175.53 | X-H torsion
[ 8008 7997 7996 7995 ] final -174.62 input   59.86 | X-H torsion
[ 10167 10162 10161 10158 ] final  154.21 input  -65.29 | X-H torsion
[ 10718 10713 10712 10709 ] final   50.28 input   66.30 | X-H torsion
[ 10763 10752 10751 10750 ] final -135.94 input  -60.55 | X-H torsion
[ 11005 11000 10999 10996 ] final  109.17 input  -57.11 | X-H torsion

> <Gold.Protein.ActiveResidues>
 VAL166  LYS551  ARG553  GLY616  TRP617  ASP618  TYR619  PRO620  LYS621  CYS622 
 ASP623  PHE694  ASN695  SER759  ASP760  ASP761  ALA762  ILE779  LEU786  VAL792 
 PHE793  MET794  SER795  GLU796  ALA797  LYS798  CYS799  TRP800  GLU811  SER814 

> <Gold.Protein.RotatedAtoms>
  150.7086  134.4839  159.5483 H   0  0  0  0  0  0  0  0  0  0  0  0  # atno 6907 bound_to 6896
  152.2470  134.8168  160.0461 H   0  0  0  0  0  0  0  0  0  0  0  0  # atno 6908 bound_to 6896
  151.8929  133.3485  159.3841 H   0  0  0  0  0  0  0  0  0  0  0  0  # atno 6909 bound_to 6896
  145.2836  140.9333  143.2918 H   0  0  0  0  0  0  0  0  0  0  0  0  # atno 7974 bound_to 7965
  155.9723  140.1165  157.0801 H   0  0  0  0  0  0  0  0  0  0  0  0  # atno 8008 bound_to 7997
  154.4160  140.1161  156.5391 H   0  0  0  0  0  0  0  0  0  0  0  0  # atno 8009 bound_to 7997
  155.6580  140.3473  155.4774 H   0  0  0  0  0  0  0  0  0  0  0  0  # atno 8010 bound_to 7997
  139.4824  144.5206  151.7882 H   0  0  0  0  0  0  0  0  0  0  0  0  # atno 10167 bound_to 10162
  157.4869  130.8351  149.8157 H   0  0  0  0  0  0  0  0  0  0  0  0  # atno 10718 bound_to 10713
  154.8693  135.3688  154.4980 H   0  0  0  0  0  0  0  0  0  0  0  0  # atno 10763 bound_to 10752
  153.5622  135.7022  153.5547 H   0  0  0  0  0  0  0  0  0  0  0  0  # atno 10764 bound_to 10752
  153.3617  135.4044  155.1687 H   0  0  0  0  0  0  0  0  0  0  0  0  # atno 10765 bound_to 10752
  139.8857  134.9451  156.6085 H   0  0  0  0  0  0  0  0  0  0  0  0  # atno 11005 bound_to 11000
  144.9232  139.4386  143.6531 LP  0  0  0  0  0  0  0  0  0  0  0  0  # atno 17320 bound_to 7965
  146.3208  139.8104  142.8947 LP  0  0  0  0  0  0  0  0  0  0  0  0  # atno 17321 bound_to 7965
  140.4720  144.1573  150.5919 LP  0  0  0  0  0  0  0  0  0  0  0  0  # atno 17342 bound_to 10162
  140.4372  143.2542  151.9520 LP  0  0  0  0  0  0  0  0  0  0  0  0  # atno 17343 bound_to 10162
  156.0152  130.3817  150.2135 LP  0  0  0  0  0  0  0  0  0  0  0  0  # atno 17370 bound_to 10713
  157.0323  131.0011  151.3308 LP  0  0  0  0  0  0  0  0  0  0  0  0  # atno 17371 bound_to 10713
  140.7829  133.8645  155.8583 LP  0  0  0  0  0  0  0  0  0  0  0  0  # atno 17394 bound_to 11000
  140.9744  134.1488  157.4549 LP  0  0  0  0  0  0  0  0  0  0  0  0  # atno 17395 bound_to 11000

$$$$
