AV-unprocessed.smi:715|AV-procd|sdf|3485|dock1
  -GOLD-   22720 0473D 1   1.00000     0.00000
 Structure written by MMmdl.
 39 40  0  0  0  0  0  0  0  0  1 V2000
  147.5274  142.0530  154.1703 C   0  0  0  0  0  0  0  0  0  0  0  0
  148.2698  140.8170  154.2943 N   0  0  0  0  0  0  0  0  0  0  0  0
  149.5474  140.6243  154.7740 C   0  0  0  0  0  0  0  0  0  0  0  0
  149.8183  139.2862  154.6978 C   0  0  0  0  0  0  0  0  0  0  0  0
  151.0647  138.5423  155.0991 C   0  0  1  0  0  0  0  0  0  0  0  0
  151.5461  137.7492  154.0324 O   0  0  0  0  0  0  0  0  0  0  0  0
  152.1744  139.5267  155.5080 C   0  0  0  0  0  0  0  0  0  0  0  0
  151.8303  140.2209  156.7423 N   0  0  0  0  0  0  0  0  0  0  0  0
  152.4686  140.0546  157.9091 C   0  0  0  0  0  0  0  0  0  0  0  0
  153.4281  139.2960  158.0492 O   0  0  0  0  0  0  0  0  0  0  0  0
  151.9458  140.8752  159.0935 C   0  0  0  0  0  0  0  0  0  0  0  0
  152.4629  142.3289  159.1151 C   0  0  0  0  0  0  0  0  0  0  0  0
  152.2037  143.0854  160.4237 C   0  0  0  0  0  0  0  0  0  0  0  0
  152.2896  144.5714  160.0555 C   0  0  0  0  0  0  0  0  0  0  0  0
  152.0788  144.6545  158.5359 C   0  0  0  0  0  0  0  0  0  0  0  0
  151.8025  143.2237  158.0641 C   0  0  0  0  0  0  0  0  0  0  0  0
  148.6208  138.7403  154.1529 C   0  0  0  0  0  0  0  0  0  0  0  0
  147.6986  139.6574  153.9103 N   0  0  0  0  0  0  0  0  0  0  0  0
  148.1109  142.8821  154.5719 H   0  0  0  0  0  0  0  0  0  0  0  0
  146.5905  141.9784  154.7233 H   0  0  0  0  0  0  0  0  0  0  0  0
  147.3097  142.2482  153.1197 H   0  0  0  0  0  0  0  0  0  0  0  0
  150.1534  141.4454  155.1282 H   0  0  0  0  0  0  0  0  0  0  0  0
  150.8465  137.8766  155.9354 H   0  0  0  0  0  0  0  0  0  0  0  0
  152.4331  137.4890  154.2292 H   0  0  0  0  0  0  0  0  0  0  0  0
  153.1354  139.0186  155.6067 H   0  0  0  0  0  0  0  0  0  0  0  0
  152.2931  140.2803  154.7275 H   0  0  0  0  0  0  0  0  0  0  0  0
  151.0481  140.8582  156.7080 H   0  0  0  0  0  0  0  0  0  0  0  0
  150.8566  140.8766  159.0438 H   0  0  0  0  0  0  0  0  0  0  0  0
  152.2104  140.3767  160.0274 H   0  0  0  0  0  0  0  0  0  0  0  0
  153.5377  142.3329  158.9241 H   0  0  0  0  0  0  0  0  0  0  0  0
  151.2001  142.8612  160.7881 H   0  0  0  0  0  0  0  0  0  0  0  0
  152.9072  142.8142  161.2117 H   0  0  0  0  0  0  0  0  0  0  0  0
  151.5466  145.1543  160.6009 H   0  0  0  0  0  0  0  0  0  0  0  0
  153.2711  144.9704  160.3153 H   0  0  0  0  0  0  0  0  0  0  0  0
  151.2642  145.3290  158.2704 H   0  0  0  0  0  0  0  0  0  0  0  0
  152.9844  145.0340  158.0609 H   0  0  0  0  0  0  0  0  0  0  0  0
  152.1804  143.0369  157.0584 H   0  0  0  0  0  0  0  0  0  0  0  0
  150.7256  143.0490  158.0495 H   0  0  0  0  0  0  0  0  0  0  0  0
  148.3966  137.7080  153.9282 H   0  0  0  0  0  0  0  0  0  0  0  0
  1  2  1  0  0  0  0
  1 19  1  0  0  0  0
  1 20  1  0  0  0  0
  1 21  1  0  0  0  0
  2 18  1  0  0  0  0
  2  3  1  0  0  0  0
  3  4  2  0  0  0  0
  3 22  1  0  0  0  0
  4  5  1  0  0  0  0
  4 17  1  0  0  0  0
  5  6  1  0  0  0  0
  5  7  1  0  0  0  0
  5 23  1  0  0  0  0
  6 24  1  0  0  0  0
  7  8  1  0  0  0  0
  7 25  1  0  0  0  0
  7 26  1  0  0  0  0
  8  9  1  0  0  0  0
  8 27  1  0  0  0  0
  9 10  2  0  0  0  0
  9 11  1  0  0  0  0
 11 12  1  0  0  0  0
 11 28  1  0  0  0  0
 11 29  1  0  0  0  0
 12 16  1  0  0  0  0
 12 13  1  0  0  0  0
 12 30  1  0  0  0  0
 13 14  1  0  0  0  0
 13 31  1  0  0  0  0
 13 32  1  0  0  0  0
 14 15  1  0  0  0  0
 14 33  1  0  0  0  0
 14 34  1  0  0  0  0
 15 16  1  0  0  0  0
 15 35  1  0  0  0  0
 15 36  1  0  0  0  0
 16 37  1  0  0  0  0
 16 38  1  0  0  0  0
 17 18  2  0  0  0  0
 17 39  1  0  0  0  0
M  END
> <s_m_source_file>
AV-unprocessed.smi

> <i_m_source_file_index>
715

> <i_lp_mmshare_version>
43012

> <i_f3d_flags>
0

> <s_epik_input>
W0NIM11uMVtjSF1jKFtjSF1uMSlbQ0BIXShbT0hdKVtDSDJdW05IXUMoPU8pW0NIMl1bQ0hdMltDSDJdW0NIMl1bQ0gyXVtDSDJdMg==

> <s_epik_cmdline>
J2VwaWtfcHl0aG9uJywgJy1waCcsICc3LjAnLCAnLXRuJywgJzgnLCAnLW1hJywgJzIwMCcsICctbWV0YWxfYmluZGluZycsICctaW1hZScsICc8aW5maWxlLm1hZT4nLCAnLW9tYWUnLCAnPG91dGZpbGUubWFlPic=

> <r_lp_tautomer_probability>
1

> <r_epik_Ionization_Penalty>
4.45533e-05

> <r_epik_Ionization_Penalty_Charging>
0

> <r_epik_Ionization_Penalty_Neutral>
4.45533e-05

> <r_epik_State_Penalty>
-0

> <r_epik_Charging_Adjusted_Penalty>
0

> <i_epik_Tot_Q>
0

> <i_epik_Tot_abs_Q>
0

> <r_epik_Metal_State_Penalty>
-0

> <b_epik_Metal_Only>
0

> <s_lp_Force_Field>
OPLS_2005

> <r_lp_Energy>
19.2831

> <b_lp_Chiralities_Consistent>
1

> <s_lp_Variant>
AV-unprocessed.smi:715-2

> <Gold.Version>
5.8.1

> <Gold.Id.Protein>
6NUR|6NUR_protein|mol2

> <Gold.PLP.Fitness>
47.4936

> <Gold.PLP.PLP>
-42.5199

> <Gold.PLP.part.hbond>
-1.6289

> <Gold.PLP.part.metal>
0.0000

> <Gold.PLP.part.buried>
-4.4199

> <Gold.PLP.part.nonpolar>
-36.9588

> <Gold.PLP.part.repulsive>
0.3013

> <Gold.PLP.ligand.clash>
0.0000

> <Gold.PLP.ligand.torsion>
0.5330

> <Gold.PLP.Chemscore.Hbond>
1.0000

> <Gold.PLP.Chemscore.CHOScore>
1.0000

> <Gold.PLP.Chemscore.Metal>
0.0000

> <Gold.Chemscore.Hbonds>
donor molecule, donor type, donor heavy atom, donor atom, acceptor molecule, acceptor atom, score
      P1  H  7997  8009       L1    10  1.00
      L1  C    17    39       P1  7948  0.85

> <Gold.PLP.Chemscore.Internal.Correction>
0.0398

> <Gold.Rescore>
     Score         DG    S(hbond)    S(metal)    S(lipo)     H(rot)  DE(clash)    DE(int)     intcor
     14.87     -15.54       0.92        0.00     109.79       2.29       0.07       0.60       ----

> <Gold.Chemscore.Fitness>
14.8697

> <Gold.Chemscore.DG>
-15.5448

> <Gold.Chemscore.ZeroCoef>
-5.4800

> <Gold.Chemscore.Hbond>
0.9202

> <Gold.Chemscore.Metal>
0.0000

> <Gold.Chemscore.Lipo>
109.7868

> <Gold.Chemscore.Internal_Hbond>
0.0000

> <Gold.Chemscore.DEClash>
0.0732

> <Gold.Chemscore.DEInternal>
0.6019

> <Gold.Chemscore.Rot>
2.2866

> <Gold.Chemscore.Internal.Correction>
   9.000000E+99

> <Gold.Chemscore.Hbonds>
donor molecule, donor type, donor heavy atom, donor atom, acceptor molecule, acceptor atom, score
      P1  H  7997  8009       L1    10  0.40

> <Gold.Chemscore.Hbond.Weighted>
-3.0735

> <Gold.Chemscore.Metal.Weighted>
-0.0000

> <Gold.Chemscore.Lipo.Weighted>
-12.8451

> <Gold.Chemscore.Internal_Hbond.Weighted>
0.0000

> <Gold.Chemscore.DEClash.Weighted>
0.0732

> <Gold.Chemscore.DEInternal.Weighted>
0.6019

> <Gold.Chemscore.Rot.Weighted>
5.8538

> <Gold.Chemscore.Internal.Correction.Weighted>
   9.000000E+99

> <Gold.Protein.RotatedTorsions>
[ 6907 6896 6895 6894 ] final  -37.89 input  -60.11 | X-H torsion
[ 7974 7965 7964 7962 ] final    8.55 input  175.53 | X-H torsion
[ 8008 7997 7996 7995 ] final  149.99 input   59.86 | X-H torsion
[ 10167 10162 10161 10158 ] final -140.92 input  -65.29 | X-H torsion
[ 10718 10713 10712 10709 ] final   26.01 input   66.30 | X-H torsion
[ 10763 10752 10751 10750 ] final  -52.76 input  -60.55 | X-H torsion
[ 11005 11000 10999 10996 ] final  -88.14 input  -57.11 | X-H torsion

> <Gold.Protein.ActiveResidues>
 VAL166  LYS551  ARG553  GLY616  TRP617  ASP618  TYR619  PRO620  LYS621  CYS622 
 ASP623  PHE694  ASN695  SER759  ASP760  ASP761  ALA762  ILE779  LEU786  VAL792 
 PHE793  MET794  SER795  GLU796  ALA797  LYS798  CYS799  TRP800  GLU811  SER814 

> <Gold.Protein.RotatedAtoms>
  151.0092  134.9383  159.7997 H   0  0  0  0  0  0  0  0  0  0  0  0  # atno 6907 bound_to 6896
  152.5298  134.3051  159.9103 H   0  0  0  0  0  0  0  0  0  0  0  0  # atno 6908 bound_to 6896
  151.3057  133.4061  159.2677 H   0  0  0  0  0  0  0  0  0  0  0  0  # atno 6909 bound_to 6896
  146.2415  139.9917  142.8425 H   0  0  0  0  0  0  0  0  0  0  0  0  # atno 7974 bound_to 7965
  156.2733  140.2087  156.5946 H   0  0  0  0  0  0  0  0  0  0  0  0  # atno 8008 bound_to 7997
  154.6955  140.0526  157.0430 H   0  0  0  0  0  0  0  0  0  0  0  0  # atno 8009 bound_to 7997
  155.0807  140.3186  155.4605 H   0  0  0  0  0  0  0  0  0  0  0  0  # atno 8010 bound_to 7997
  139.8234  143.7543  152.2666 H   0  0  0  0  0  0  0  0  0  0  0  0  # atno 10167 bound_to 10162
  157.2011  130.6890  149.6189 H   0  0  0  0  0  0  0  0  0  0  0  0  # atno 10718 bound_to 10713
  154.1479  135.6494  153.4957 H   0  0  0  0  0  0  0  0  0  0  0  0  # atno 10763 bound_to 10752
  153.0146  135.5331  154.6838 H   0  0  0  0  0  0  0  0  0  0  0  0  # atno 10764 bound_to 10752
  154.6117  135.2954  155.0395 H   0  0  0  0  0  0  0  0  0  0  0  0  # atno 10765 bound_to 10752
  141.1606  133.7552  156.9408 H   0  0  0  0  0  0  0  0  0  0  0  0  # atno 11005 bound_to 11000
  145.1497  140.9616  143.4440 LP  0  0  0  0  0  0  0  0  0  0  0  0  # atno 17320 bound_to 7965
  145.0217  139.3418  143.6069 LP  0  0  0  0  0  0  0  0  0  0  0  0  # atno 17321 bound_to 7965
  139.7728  144.7471  151.0200 LP  0  0  0  0  0  0  0  0  0  0  0  0  # atno 17342 bound_to 10162
  140.7812  143.4626  151.0256 LP  0  0  0  0  0  0  0  0  0  0  0  0  # atno 17343 bound_to 10162
  155.9700  130.4582  150.5992 LP  0  0  0  0  0  0  0  0  0  0  0  0  # atno 17370 bound_to 10713
  157.3766  131.0774  151.1513 LP  0  0  0  0  0  0  0  0  0  0  0  0  # atno 17371 bound_to 10713
  140.1322  134.9348  157.2353 LP  0  0  0  0  0  0  0  0  0  0  0  0  # atno 17394 bound_to 11000
  140.2938  134.3209  155.7308 LP  0  0  0  0  0  0  0  0  0  0  0  0  # atno 17395 bound_to 11000

$$$$
