AV-unprocessed.smi:2772|AV-procd|sdf|10675|dock1
  -GOLD-   2272015123D 1   1.00000     0.00000
 Structure written by MMmdl.
 56 58  0  0  0  0  0  0  0  0  4 V2000
  151.5717  144.1131  157.7027 C   0  0  0  0  0  0  0  0  0  0  0  0
  151.1203  142.6732  157.5787 C   0  0  0  0  0  0  0  0  0  0  0  0
  151.8812  141.5969  158.0807 C   0  0  0  0  0  0  0  0  0  0  0  0
  151.3980  140.2811  157.9256 C   0  0  0  0  0  0  0  0  0  0  0  0
  150.1608  140.0595  157.2813 C   0  0  0  0  0  0  0  0  0  0  0  0
  149.7207  138.7147  157.1373 N   0  0  0  0  0  0  0  0  0  0  0  0
  148.5931  138.2613  156.5622 C   0  0  0  0  0  0  0  0  0  0  0  0
  147.7177  138.9692  156.0655 O   0  0  0  0  0  0  0  0  0  0  0  0
  148.5258  136.9222  156.6109 N   0  0  0  0  0  0  0  0  0  0  0  0
  147.4283  136.1058  156.0955 C   0  0  2  0  0  0  0  0  0  0  0  0
  147.7389  134.6117  156.2964 C   0  0  0  0  0  0  0  0  0  0  0  0
  146.6616  133.7303  155.6344 C   0  0  0  0  0  0  0  0  0  0  0  0
  146.5124  134.0279  154.1802 N   0  3  2  0  0  0  0  0  0  0  0  0
  147.6402  133.5493  153.3053 C   0  0  2  0  0  0  0  0  0  0  0  0
  147.2608  133.4484  151.8077 C   0  0  0  0  0  0  0  0  0  0  0  0
  146.2254  132.3374  151.5507 C   0  0  0  0  0  0  0  0  0  0  0  0
  146.7268  131.0200  152.0169 N   0  3  2  0  0  0  0  0  0  0  0  0
  145.7784  129.9231  151.7254 C   0  0  0  0  0  0  0  0  0  0  0  0
  147.1409  131.0430  153.4426 C   0  0  0  0  0  0  0  0  0  0  0  0
  148.1771  132.1528  153.7029 C   0  0  0  0  0  0  0  0  0  0  0  0
  146.1333  135.4608  154.0111 C   0  0  0  0  0  0  0  0  0  0  0  0
  147.1914  136.4110  154.6055 C   0  0  0  0  0  0  0  0  0  0  0  0
  149.4483  141.1818  156.7887 C   0  0  0  0  0  0  0  0  0  0  0  0
  149.9466  142.4260  156.9567 N   0  3  0  0  0  0  0  0  0  0  0  0
  152.5221  144.1830  158.2328 H   0  0  0  0  0  0  0  0  0  0  0  0
  150.8324  144.6982  158.2506 H   0  0  0  0  0  0  0  0  0  0  0  0
  151.6995  144.5567  156.7148 H   0  0  0  0  0  0  0  0  0  0  0  0
  152.8240  141.7732  158.5781 H   0  0  0  0  0  0  0  0  0  0  0  0
  151.9750  139.4501  158.3049 H   0  0  0  0  0  0  0  0  0  0  0  0
  150.3114  138.0176  157.5673 H   0  0  0  0  0  0  0  0  0  0  0  0
  149.2932  136.4278  157.0428 H   0  0  0  0  0  0  0  0  0  0  0  0
  146.5037  136.3291  156.6313 H   0  0  0  0  0  0  0  0  0  0  0  0
  148.7217  134.3701  155.8902 H   0  0  0  0  0  0  0  0  0  0  0  0
  147.7886  134.3871  157.3627 H   0  0  0  0  0  0  0  0  0  0  0  0
  146.8502  132.6765  155.8248 H   0  0  0  0  0  0  0  0  0  0  0  0
  145.7035  133.9264  156.1179 H   0  0  0  0  0  0  0  0  0  0  0  0
  148.4616  134.2604  153.3929 H   0  0  0  0  0  0  0  0  0  0  0  0
  146.9208  134.3980  151.3992 H   0  0  0  0  0  0  0  0  0  0  0  0
  148.1605  133.2180  151.2346 H   0  0  0  0  0  0  0  0  0  0  0  0
  145.2843  132.5719  152.0503 H   0  0  0  0  0  0  0  0  0  0  0  0
  146.0104  132.2824  150.4827 H   0  0  0  0  0  0  0  0  0  0  0  0
  144.8443  130.0585  152.2722 H   0  0  0  0  0  0  0  0  0  0  0  0
  146.2035  128.9595  152.0083 H   0  0  0  0  0  0  0  0  0  0  0  0
  145.5483  129.8841  150.6603 H   0  0  0  0  0  0  0  0  0  0  0  0
  146.2658  131.1835  154.0788 H   0  0  0  0  0  0  0  0  0  0  0  0
  147.5711  130.0763  153.7072 H   0  0  0  0  0  0  0  0  0  0  0  0
  149.0664  131.9383  153.1080 H   0  0  0  0  0  0  0  0  0  0  0  0
  148.5297  132.1190  154.7317 H   0  0  0  0  0  0  0  0  0  0  0  0
  145.9194  135.7134  152.9752 H   0  0  0  0  0  0  0  0  0  0  0  0
  145.1869  135.6218  154.5296 H   0  0  0  0  0  0  0  0  0  0  0  0
  146.8592  137.4435  154.4901 H   0  0  0  0  0  0  0  0  0  0  0  0
  148.1244  136.3285  154.0470 H   0  0  0  0  0  0  0  0  0  0  0  0
  148.5094  141.1416  156.2577 H   0  0  0  0  0  0  0  0  0  0  0  0
  145.7052  133.5003  153.8798 H   0  0  0  0  0  0  0  0  0  0  0  0
  147.5604  130.8249  151.4800 H   0  0  0  0  0  0  0  0  0  0  0  0
  149.4120  143.2157  156.5939 H   0  0  0  0  0  0  0  0  0  0  0  0
  1  2  1  0  0  0  0
  1 25  1  0  0  0  0
  1 26  1  0  0  0  0
  1 27  1  0  0  0  0
  2 24  1  0  0  0  0
  2  3  2  0  0  0  0
  3  4  1  0  0  0  0
  3 28  1  0  0  0  0
  4  5  2  0  0  0  0
  4 29  1  0  0  0  0
  5  6  1  0  0  0  0
  5 23  1  0  0  0  0
  6  7  1  0  0  0  0
  6 30  1  0  0  0  0
  7  8  2  0  0  0  0
  7  9  1  0  0  0  0
  9 10  1  0  0  0  0
  9 31  1  0  0  0  0
 10 22  1  0  0  0  0
 10 11  1  0  0  0  0
 10 32  1  0  0  0  0
 11 12  1  0  0  0  0
 11 33  1  0  0  0  0
 11 34  1  0  0  0  0
 12 13  1  0  0  0  0
 12 35  1  0  0  0  0
 12 36  1  0  0  0  0
 13 14  1  0  0  0  0
 13 21  1  0  0  0  0
 13 54  1  0  0  0  0
 14 20  1  0  0  0  0
 14 15  1  0  0  0  0
 14 37  1  0  0  0  0
 15 16  1  0  0  0  0
 15 38  1  0  0  0  0
 15 39  1  0  0  0  0
 16 17  1  0  0  0  0
 16 40  1  0  0  0  0
 16 41  1  0  0  0  0
 17 18  1  0  0  0  0
 17 19  1  0  0  0  0
 17 55  1  0  0  0  0
 18 42  1  0  0  0  0
 18 43  1  0  0  0  0
 18 44  1  0  0  0  0
 19 20  1  0  0  0  0
 19 45  1  0  0  0  0
 19 46  1  0  0  0  0
 20 47  1  0  0  0  0
 20 48  1  0  0  0  0
 21 22  1  0  0  0  0
 21 49  1  0  0  0  0
 21 50  1  0  0  0  0
 22 51  1  0  0  0  0
 22 52  1  0  0  0  0
 23 24  2  0  0  0  0
 23 53  1  0  0  0  0
 24 56  1  0  0  0  0
M  CHG  1  13   1
M  CHG  1  17   1
M  CHG  1  24   1
M  END
> <s_m_source_file>
AV-unprocessed.smi

> <i_m_source_file_index>
2772

> <i_lp_mmshare_version>
43012

> <i_f3d_flags>
0

> <s_epik_input>
W0NIM11jMVtjSF1bY0hdYyhbY0hdbjEpW05IXUMoPU8pW05IXVtDSF0yW0NIMl1bQ0gyXU4oW0NIMl1bQ0gyXTIpW0NIXTNbQ0gyXVtDSDJdTihbQ0gzXSlbQ0gyXVtDSDJdMw==

> <s_epik_cmdline>
J2VwaWtfcHl0aG9uJywgJy1waCcsICc3LjAnLCAnLXRuJywgJzgnLCAnLW1hJywgJzIwMCcsICctbWV0YWxfYmluZGluZycsICctaW1hZScsICc8aW5maWxlLm1hZT4nLCAnLW9tYWUnLCAnPG91dGZpbGUubWFlPic=

> <r_epik_Ionization_Penalty>
2.34117

> <r_epik_Ionization_Penalty_Charging>
2.34115

> <r_epik_Ionization_Penalty_Neutral>
2.22786e-05

> <r_epik_State_Penalty>
2.43944

> <r_epik_Charging_Adjusted_Penalty>
4.78059

> <i_epik_Tot_Q>
3

> <i_epik_Tot_abs_Q>
3

> <r_epik_Metal_State_Penalty>
2.45906

> <b_epik_Metal_Only>
0

> <s_lp_Force_Field>
OPLS_2005

> <r_lp_Energy>
58.0527

> <b_lp_Chiralities_Consistent>
1

> <s_lp_Variant>
AV-unprocessed.smi:2772-12

> <Gold.Version>
5.8.1

> <Gold.Id.Protein>
6NUR|6NUR_protein|mol2

> <Gold.PLP.Fitness>
37.9518

> <Gold.PLP.PLP>
-29.4006

> <Gold.PLP.part.hbond>
-2.0000

> <Gold.PLP.part.metal>
0.0000

> <Gold.PLP.part.buried>
-3.5564

> <Gold.PLP.part.nonpolar>
-24.0763

> <Gold.PLP.part.repulsive>
0.0362

> <Gold.PLP.ligand.clash>
0.0000

> <Gold.PLP.ligand.torsion>
0.2471

> <Gold.PLP.Chemscore.Hbond>
3.0000

> <Gold.PLP.Chemscore.CHOScore>
0.0000

> <Gold.PLP.Chemscore.Metal>
0.0000

> <Gold.Chemscore.Hbonds>
donor molecule, donor type, donor heavy atom, donor atom, acceptor molecule, acceptor atom, score
      L1  H    17    55       P1 10747  1.00
      L1  H    24    56       P1  8028  2.00

> <Gold.PLP.Chemscore.Internal.Correction>
0.0454

> <Gold.Rescore>
     Score         DG    S(hbond)    S(metal)    S(lipo)     H(rot)  DE(clash)    DE(int)     intcor
     16.91     -19.63       2.00        0.00      90.63       1.22       0.21       2.50       ----

> <Gold.Chemscore.Fitness>
16.9125

> <Gold.Chemscore.DG>
-19.6265

> <Gold.Chemscore.ZeroCoef>
-5.4800

> <Gold.Chemscore.Hbond>
1.9976

> <Gold.Chemscore.Metal>
0.0000

> <Gold.Chemscore.Lipo>
90.6278

> <Gold.Chemscore.Internal_Hbond>
0.0000

> <Gold.Chemscore.DEClash>
0.2099

> <Gold.Chemscore.DEInternal>
2.5041

> <Gold.Chemscore.Rot>
1.2222

> <Gold.Chemscore.Internal.Correction>
   9.000000E+99

> <Gold.Chemscore.Hbonds>
donor molecule, donor type, donor heavy atom, donor atom, acceptor molecule, acceptor atom, score
      L1  H    17    55       P1 10747  1.00
      L1  H    24    56       P1  8028  1.00

> <Gold.Chemscore.Hbond.Weighted>
-6.6719

> <Gold.Chemscore.Metal.Weighted>
-0.0000

> <Gold.Chemscore.Lipo.Weighted>
-10.6035

> <Gold.Chemscore.Internal_Hbond.Weighted>
0.0000

> <Gold.Chemscore.DEClash.Weighted>
0.2099

> <Gold.Chemscore.DEInternal.Weighted>
2.5041

> <Gold.Chemscore.Rot.Weighted>
3.1289

> <Gold.Chemscore.Internal.Correction.Weighted>
   9.000000E+99

> <Gold.Protein.RotatedTorsions>
[ 6907 6896 6895 6894 ] final  -24.87 input  -60.11 | X-H torsion
[ 7974 7965 7964 7962 ] final -175.43 input  175.53 | X-H torsion
[ 8008 7997 7996 7995 ] final  -52.70 input   59.86 | X-H torsion
[ 10167 10162 10161 10158 ] final  -35.66 input  -65.29 | X-H torsion
[ 10718 10713 10712 10709 ] final  177.34 input   66.30 | X-H torsion
[ 10763 10752 10751 10750 ] final   47.31 input  -60.55 | X-H torsion
[ 11005 11000 10999 10996 ] final -167.53 input  -57.11 | X-H torsion

> <Gold.Protein.ActiveResidues>
 VAL166  LYS551  ARG553  GLY616  TRP617  ASP618  TYR619  PRO620  LYS621  CYS622 
 ASP623  PHE694  ASN695  SER759  ASP760  ASP761  ALA762  ILE779  LEU786  VAL792 
 PHE793  MET794  SER795  GLU796  ALA797  LYS798  CYS799  TRP800  GLU811  SER814 

> <Gold.Protein.RotatedAtoms>
  151.1832  135.0370  159.8801 H   0  0  0  0  0  0  0  0  0  0  0  0  # atno 6907 bound_to 6896
  152.5443  134.1039  159.8340 H   0  0  0  0  0  0  0  0  0  0  0  0  # atno 6908 bound_to 6896
  151.1158  133.5092  159.2636 H   0  0  0  0  0  0  0  0  0  0  0  0  # atno 6909 bound_to 6896
  144.7128  140.1321  143.6398 H   0  0  0  0  0  0  0  0  0  0  0  0  # atno 7974 bound_to 7965
  154.4113  140.1217  156.5034 H   0  0  0  0  0  0  0  0  0  0  0  0  # atno 8008 bound_to 7997
  155.6872  140.3495  155.4859 H   0  0  0  0  0  0  0  0  0  0  0  0  # atno 8009 bound_to 7997
  155.9501  140.1103  157.0974 H   0  0  0  0  0  0  0  0  0  0  0  0  # atno 8010 bound_to 7997
  140.7160  143.3462  151.2252 H   0  0  0  0  0  0  0  0  0  0  0  0  # atno 10167 bound_to 10162
  156.9068  130.9896  151.3027 H   0  0  0  0  0  0  0  0  0  0  0  0  # atno 10718 bound_to 10713
  152.9801  135.5980  154.3741 H   0  0  0  0  0  0  0  0  0  0  0  0  # atno 10763 bound_to 10752
  154.3412  135.2767  155.2423 H   0  0  0  0  0  0  0  0  0  0  0  0  # atno 10764 bound_to 10752
  154.4504  135.5991  153.6243 H   0  0  0  0  0  0  0  0  0  0  0  0  # atno 10765 bound_to 10752
  140.5522  134.5416  157.5125 H   0  0  0  0  0  0  0  0  0  0  0  0  # atno 11005 bound_to 11000
  145.9277  139.2586  143.1343 LP  0  0  0  0  0  0  0  0  0  0  0  0  # atno 17320 bound_to 7965
  145.9555  140.8876  143.0237 LP  0  0  0  0  0  0  0  0  0  0  0  0  # atno 17321 bound_to 7965
  139.6982  143.9578  152.2893 LP  0  0  0  0  0  0  0  0  0  0  0  0  # atno 17342 bound_to 10162
  139.9262  144.6769  150.8410 LP  0  0  0  0  0  0  0  0  0  0  0  0  # atno 17343 bound_to 10162
  157.5992  130.8500  149.8776 LP  0  0  0  0  0  0  0  0  0  0  0  0  # atno 17370 bound_to 10713
  156.0555  130.3709  150.1101 LP  0  0  0  0  0  0  0  0  0  0  0  0  # atno 17371 bound_to 10713
  139.9449  134.7720  156.0586 LP  0  0  0  0  0  0  0  0  0  0  0  0  # atno 17394 bound_to 11000
  141.1164  133.6626  156.3106 LP  0  0  0  0  0  0  0  0  0  0  0  0  # atno 17395 bound_to 11000

$$$$
