AV-unprocessed.smi:3050|AV-procd|sdf|11632|dock5
  -GOLD-   2272017 23D 1   1.00000     0.00000
 Structure written by MMmdl.
 45 46  0  0  0  0  0  0  0  0  1 V2000
  152.2060  140.1511  159.2150 C   0  0  0  0  0  0  0  0  0  0  0  0
  151.9298  140.0971  157.7074 C   0  0  0  0  0  0  0  0  0  0  0  0
  150.9532  141.1934  157.2424 C   0  0  1  0  0  0  0  0  0  0  0  0
  151.6275  142.4480  157.3302 O   0  0  0  0  0  0  0  0  0  0  0  0
  151.1463  143.3605  158.3138 C   0  0  0  0  0  0  0  0  0  0  0  0
  151.6765  144.7645  158.0321 C   0  0  0  0  0  0  0  0  0  0  0  0
  151.5509  145.4939  159.3718 C   0  0  0  0  0  0  0  0  0  0  0  0
  151.6638  144.4100  160.4552 C   0  0  0  0  0  0  0  0  0  0  0  0
  151.6743  143.0623  159.7212 C   0  0  0  0  0  0  0  0  0  0  0  0
  150.4846  140.9456  155.8000 C   0  0  0  0  0  0  0  0  0  0  0  0
  151.1019  140.1714  155.0683 O   0  0  0  0  0  0  0  0  0  0  0  0
  149.3871  141.6103  155.4092 N   0  0  0  0  0  0  0  0  0  0  0  0
  148.7382  141.4679  154.1097 C   0  0  0  0  0  0  0  0  0  0  0  0
  147.2052  141.3646  154.2266 C   0  0  0  0  0  0  0  0  0  0  0  0
  146.4991  142.5732  153.6704 C   0  0  0  0  0  0  0  0  0  0  0  0
  145.4618  143.3375  154.2769 C   0  0  0  0  0  0  0  0  0  0  0  0
  145.0420  144.3325  153.5125 N   0  0  0  0  0  0  0  0  0  0  0  0
  145.7951  144.2403  152.3972 N   0  0  0  0  0  0  0  0  0  0  0  0
  145.5984  145.1901  151.3232 C   0  0  0  0  0  0  0  0  0  0  0  0
  146.6848  143.1903  152.4652 C   0  0  0  0  0  0  0  0  0  0  0  0
  152.8943  139.3595  159.5113 H   0  0  0  0  0  0  0  0  0  0  0  0
  151.2874  140.0252  159.7884 H   0  0  0  0  0  0  0  0  0  0  0  0
  152.6525  141.1035  159.5018 H   0  0  0  0  0  0  0  0  0  0  0  0
  152.8727  140.1819  157.1650 H   0  0  0  0  0  0  0  0  0  0  0  0
  151.5234  139.1142  157.4642 H   0  0  0  0  0  0  0  0  0  0  0  0
  150.0887  141.1822  157.9081 H   0  0  0  0  0  0  0  0  0  0  0  0
  150.0564  143.4023  158.3268 H   0  0  0  0  0  0  0  0  0  0  0  0
  152.7274  144.7113  157.7440 H   0  0  0  0  0  0  0  0  0  0  0  0
  151.1367  145.2644  157.2273 H   0  0  0  0  0  0  0  0  0  0  0  0
  152.3066  146.2719  159.4836 H   0  0  0  0  0  0  0  0  0  0  0  0
  150.5742  145.9752  159.4379 H   0  0  0  0  0  0  0  0  0  0  0  0
  152.5689  144.5327  161.0511 H   0  0  0  0  0  0  0  0  0  0  0  0
  150.8149  144.4720  161.1371 H   0  0  0  0  0  0  0  0  0  0  0  0
  151.0850  142.3041  160.2379 H   0  0  0  0  0  0  0  0  0  0  0  0
  152.6997  142.6951  159.6563 H   0  0  0  0  0  0  0  0  0  0  0  0
  148.9471  142.2309  156.0733 H   0  0  0  0  0  0  0  0  0  0  0  0
  148.9985  142.3459  153.5181 H   0  0  0  0  0  0  0  0  0  0  0  0
  149.1408  140.6061  153.5751 H   0  0  0  0  0  0  0  0  0  0  0  0
  146.8723  140.4592  153.7188 H   0  0  0  0  0  0  0  0  0  0  0  0
  146.9394  141.2216  155.2747 H   0  0  0  0  0  0  0  0  0  0  0  0
  145.0000  143.1941  155.2427 H   0  0  0  0  0  0  0  0  0  0  0  0
  146.2464  144.9431  150.4818 H   0  0  0  0  0  0  0  0  0  0  0  0
  145.8375  146.1953  151.6719 H   0  0  0  0  0  0  0  0  0  0  0  0
  144.5602  145.1627  150.9906 H   0  0  0  0  0  0  0  0  0  0  0  0
  147.3658  142.9653  151.6573 H   0  0  0  0  0  0  0  0  0  0  0  0
  1  2  1  0  0  0  0
  1 21  1  0  0  0  0
  1 22  1  0  0  0  0
  1 23  1  0  0  0  0
  2  3  1  0  0  0  0
  2 24  1  0  0  0  0
  2 25  1  0  0  0  0
  3  4  1  0  0  0  0
  3 10  1  0  0  0  0
  3 26  1  0  0  0  0
  4  5  1  0  0  0  0
  5  9  1  0  0  0  0
  5  6  1  0  0  0  0
  5 27  1  0  0  0  0
  6  7  1  0  0  0  0
  6 28  1  0  0  0  0
  6 29  1  0  0  0  0
  7  8  1  0  0  0  0
  7 30  1  0  0  0  0
  7 31  1  0  0  0  0
  8  9  1  0  0  0  0
  8 32  1  0  0  0  0
  8 33  1  0  0  0  0
  9 34  1  0  0  0  0
  9 35  1  0  0  0  0
 10 11  2  0  0  0  0
 10 12  1  0  0  0  0
 12 13  1  0  0  0  0
 12 36  1  0  0  0  0
 13 14  1  0  0  0  0
 13 37  1  0  0  0  0
 13 38  1  0  0  0  0
 14 15  1  0  0  0  0
 14 39  1  0  0  0  0
 14 40  1  0  0  0  0
 15 20  2  0  0  0  0
 15 16  1  0  0  0  0
 16 17  2  0  0  0  0
 16 41  1  0  0  0  0
 17 18  1  0  0  0  0
 18 19  1  0  0  0  0
 18 20  1  0  0  0  0
 19 42  1  0  0  0  0
 19 43  1  0  0  0  0
 19 44  1  0  0  0  0
 20 45  1  0  0  0  0
M  END
> <s_m_source_file>
AV-unprocessed.smi

> <i_m_source_file_index>
3050

> <i_lp_mmshare_version>
43012

> <i_f3d_flags>
0

> <s_epik_input>
W0NIMl0xW0NIMl1bQ0gyXVtDSDJdW0NIXTFPW0NAQEhdKFtDSDJdW0NIM10pQyg9TylbTkhdW0NIMl1bQ0gyXWMyW2NIXW5uKFtDSDNdKVtjSF0y

> <s_epik_cmdline>
J2VwaWtfcHl0aG9uJywgJy1waCcsICc3LjAnLCAnLXRuJywgJzgnLCAnLW1hJywgJzIwMCcsICctbWV0YWxfYmluZGluZycsICctaW1hZScsICc8aW5maWxlLm1hZT4nLCAnLW9tYWUnLCAnPG91dGZpbGUubWFlPic=

> <r_lp_tautomer_probability>
1

> <r_epik_Ionization_Penalty>
0.000440265

> <r_epik_Ionization_Penalty_Charging>
0

> <r_epik_Ionization_Penalty_Neutral>
0.000440265

> <r_epik_State_Penalty>
-0

> <r_epik_Charging_Adjusted_Penalty>
0

> <i_epik_Tot_Q>
0

> <i_epik_Tot_abs_Q>
0

> <r_epik_Metal_State_Penalty>
-0

> <b_epik_Metal_Only>
0

> <s_lp_Force_Field>
OPLS_2005

> <r_lp_Energy>
20.8184

> <b_lp_Chiralities_Consistent>
1

> <s_lp_Variant>
AV-unprocessed.smi:3050-2

> <Gold.Version>
5.8.1

> <Gold.Id.Protein>
6NUR|6NUR_protein|mol2

> <Gold.PLP.Fitness>
46.0447

> <Gold.PLP.PLP>
-46.7694

> <Gold.PLP.part.hbond>
-2.0000

> <Gold.PLP.part.metal>
0.0000

> <Gold.PLP.part.buried>
-3.1526

> <Gold.PLP.part.nonpolar>
-41.3841

> <Gold.PLP.part.repulsive>
0.3509

> <Gold.PLP.ligand.clash>
0.0000

> <Gold.PLP.ligand.torsion>
1.9806

> <Gold.PLP.Chemscore.Hbond>
1.0000

> <Gold.PLP.Chemscore.CHOScore>
0.0000

> <Gold.PLP.Chemscore.Metal>
0.0000

> <Gold.Chemscore.Hbonds>
donor molecule, donor type, donor heavy atom, donor atom, acceptor molecule, acceptor atom, score
      P1  H  7989  7998       L1    11  1.00

> <Gold.PLP.Chemscore.Internal.Correction>
0.2365

> <Gold.Rescore>
     Score         DG    S(hbond)    S(metal)    S(lipo)     H(rot)  DE(clash)    DE(int)     intcor
     14.62     -17.09       0.98        0.00     111.22       1.83       0.12       2.35       ----

> <Gold.Chemscore.Fitness>
14.6155

> <Gold.Chemscore.DG>
-17.0850

> <Gold.Chemscore.ZeroCoef>
-5.4800

> <Gold.Chemscore.Hbond>
0.9802

> <Gold.Chemscore.Metal>
0.0000

> <Gold.Chemscore.Lipo>
111.2153

> <Gold.Chemscore.Internal_Hbond>
0.0000

> <Gold.Chemscore.DEClash>
0.1174

> <Gold.Chemscore.DEInternal>
2.3521

> <Gold.Chemscore.Rot>
1.8286

> <Gold.Chemscore.Internal.Correction>
   9.000000E+99

> <Gold.Chemscore.Hbonds>
donor molecule, donor type, donor heavy atom, donor atom, acceptor molecule, acceptor atom, score
      P1  H  7989  7998       L1    11  0.90

> <Gold.Chemscore.Hbond.Weighted>
-3.2739

> <Gold.Chemscore.Metal.Weighted>
-0.0000

> <Gold.Chemscore.Lipo.Weighted>
-13.0122

> <Gold.Chemscore.Internal_Hbond.Weighted>
0.0000

> <Gold.Chemscore.DEClash.Weighted>
0.1174

> <Gold.Chemscore.DEInternal.Weighted>
2.3521

> <Gold.Chemscore.Rot.Weighted>
4.6811

> <Gold.Chemscore.Internal.Correction.Weighted>
   9.000000E+99

> <Gold.Protein.RotatedTorsions>
[ 6907 6896 6895 6894 ] final   73.30 input  -60.11 | X-H torsion
[ 7974 7965 7964 7962 ] final  151.12 input  175.53 | X-H torsion
[ 8008 7997 7996 7995 ] final  -94.47 input   59.86 | X-H torsion
[ 10167 10162 10161 10158 ] final   44.01 input  -65.29 | X-H torsion
[ 10718 10713 10712 10709 ] final -157.32 input   66.30 | X-H torsion
[ 10763 10752 10751 10750 ] final  -82.43 input  -60.55 | X-H torsion
[ 11005 11000 10999 10996 ] final  145.93 input  -57.11 | X-H torsion

> <Gold.Protein.ActiveResidues>
 VAL166  LYS551  ARG553  GLY616  TRP617  ASP618  TYR619  PRO620  LYS621  CYS622 
 ASP623  PHE694  ASN695  SER759  ASP760  ASP761  ALA762  ILE779  LEU786  VAL792 
 PHE793  MET794  SER795  GLU796  ALA797  LYS798  CYS799  TRP800  GLU811  SER814 

> <Gold.Protein.RotatedAtoms>
  152.4916  134.4442  159.9553 H   0  0  0  0  0  0  0  0  0  0  0  0  # atno 6907 bound_to 6896
  151.4428  133.3632  159.2792 H   0  0  0  0  0  0  0  0  0  0  0  0  # atno 6908 bound_to 6896
  150.9076  134.8515  159.7463 H   0  0  0  0  0  0  0  0  0  0  0  0  # atno 6909 bound_to 6896
  144.8315  139.6497  143.6057 H   0  0  0  0  0  0  0  0  0  0  0  0  # atno 7974 bound_to 7965
  154.7489  140.0489  157.0876 H   0  0  0  0  0  0  0  0  0  0  0  0  # atno 8008 bound_to 7997
  155.0083  140.3133  155.4820 H   0  0  0  0  0  0  0  0  0  0  0  0  # atno 8009 bound_to 7997
  156.2881  140.2189  156.5196 H   0  0  0  0  0  0  0  0  0  0  0  0  # atno 8010 bound_to 7997
  140.3386  144.2498  150.6158 H   0  0  0  0  0  0  0  0  0  0  0  0  # atno 10167 bound_to 10162
  156.5387  130.8553  151.2741 H   0  0  0  0  0  0  0  0  0  0  0  0  # atno 10718 bound_to 10713
  154.5757  135.5591  153.7137 H   0  0  0  0  0  0  0  0  0  0  0  0  # atno 10763 bound_to 10752
  153.0064  135.6308  154.2052 H   0  0  0  0  0  0  0  0  0  0  0  0  # atno 10764 bound_to 10752
  154.1993  135.2878  155.2976 H   0  0  0  0  0  0  0  0  0  0  0  0  # atno 10765 bound_to 10752
  140.0752  134.9129  157.1411 H   0  0  0  0  0  0  0  0  0  0  0  0  # atno 11005 bound_to 11000
  146.2617  139.6426  142.9357 LP  0  0  0  0  0  0  0  0  0  0  0  0  # atno 17320 bound_to 7965
  145.4886  141.0438  143.2605 LP  0  0  0  0  0  0  0  0  0  0  0  0  # atno 17321 bound_to 7965
  140.5330  143.2239  151.8208 LP  0  0  0  0  0  0  0  0  0  0  0  0  # atno 17342 bound_to 10162
  139.4844  144.4697  151.9441 LP  0  0  0  0  0  0  0  0  0  0  0  0  # atno 17343 bound_to 10162
  157.7409  130.9859  150.2409 LP  0  0  0  0  0  0  0  0  0  0  0  0  # atno 17370 bound_to 10713
  156.2992  130.3756  149.7767 LP  0  0  0  0  0  0  0  0  0  0  0  0  # atno 17371 bound_to 10713
  140.3568  134.2538  155.7191 LP  0  0  0  0  0  0  0  0  0  0  0  0  # atno 17394 bound_to 11000
  141.2027  133.7931  157.0379 LP  0  0  0  0  0  0  0  0  0  0  0  0  # atno 17395 bound_to 11000

$$$$
