AV-unprocessed.smi:1897|AV-procd|sdf|7684|dock3
  -GOLD-   22720 9423D 1   1.00000     0.00000
 Structure written by MMmdl.
 39 41  0  0  0  0  0  0  0  0  2 V2000
  152.5069  137.4919  158.6023 C   0  0  0  0  0  0  0  0  0  0  0  0
  151.9833  136.9996  157.2965 C   0  0  0  0  0  0  0  0  0  0  0  0
  152.6304  137.1900  156.1408 N   0  0  0  0  0  0  0  0  0  0  0  0
  151.9510  136.6430  155.0620 N   0  0  0  0  0  0  0  0  0  0  0  0
  150.8107  136.0442  155.4352 C   0  0  0  0  0  0  0  0  0  0  0  0
  149.9006  135.4054  154.5423 N   0  0  0  0  0  0  0  0  0  0  0  0
  149.2165  134.2451  154.6363 C   0  0  0  0  0  0  0  0  0  0  0  0
  149.3236  133.5249  155.6273 O   0  0  0  0  0  0  0  0  0  0  0  0
  148.4287  133.9309  153.5948 N   0  0  0  0  0  0  0  0  0  0  0  0
  147.5968  132.7373  153.4860 C   0  0  2  0  0  0  0  0  0  0  0  0
  148.3956  131.4431  153.5843 C   0  0  0  0  0  0  0  0  0  0  0  0
  147.4409  130.4267  152.9558 C   0  0  0  0  0  0  0  0  0  0  0  0
  146.7071  131.1579  151.8975 N   0  3  1  0  0  0  0  0  0  0  0  0
  145.2980  130.7314  151.7162 C   0  0  0  0  0  0  0  0  0  0  0  0
  144.6269  131.5356  150.5871 C   0  0  0  0  0  0  0  0  0  0  0  0
  144.8176  133.0600  150.7338 C   0  0  0  0  0  0  0  0  0  0  0  0
  145.6043  133.4339  151.9997 C   0  0  0  0  0  0  0  0  0  0  0  0
  146.9125  132.6185  152.1137 C   0  0  1  0  0  0  0  0  0  0  0  0
  150.4670  136.1185  157.1556 S   0  0  0  0  0  0  0  0  0  0  0  0
  153.0122  138.4494  158.4721 H   0  0  0  0  0  0  0  0  0  0  0  0
  153.2157  136.7733  159.0140 H   0  0  0  0  0  0  0  0  0  0  0  0
  151.6900  137.6239  159.3120 H   0  0  0  0  0  0  0  0  0  0  0  0
  149.7627  135.8985  153.6718 H   0  0  0  0  0  0  0  0  0  0  0  0
  148.4016  134.5772  152.8186 H   0  0  0  0  0  0  0  0  0  0  0  0
  146.8447  132.7250  154.2779 H   0  0  0  0  0  0  0  0  0  0  0  0
  149.3104  131.5117  152.9931 H   0  0  0  0  0  0  0  0  0  0  0  0
  148.6707  131.1887  154.6083 H   0  0  0  0  0  0  0  0  0  0  0  0
  147.9617  129.5578  152.5526 H   0  0  0  0  0  0  0  0  0  0  0  0
  146.7427  130.0730  153.7163 H   0  0  0  0  0  0  0  0  0  0  0  0
  145.2676  129.6660  151.4850 H   0  0  0  0  0  0  0  0  0  0  0  0
  144.7492  130.8651  152.6499 H   0  0  0  0  0  0  0  0  0  0  0  0
  145.0359  131.2179  149.6271 H   0  0  0  0  0  0  0  0  0  0  0  0
  143.5634  131.2955  150.5533 H   0  0  0  0  0  0  0  0  0  0  0  0
  145.3482  133.4391  149.8594 H   0  0  0  0  0  0  0  0  0  0  0  0
  143.8491  133.5614  150.7388 H   0  0  0  0  0  0  0  0  0  0  0  0
  145.8258  134.5014  151.9947 H   0  0  0  0  0  0  0  0  0  0  0  0
  144.9774  133.2612  152.8757 H   0  0  0  0  0  0  0  0  0  0  0  0
  147.6034  132.9435  151.3339 H   0  0  0  0  0  0  0  0  0  0  0  0
  147.1775  130.9497  151.0282 H   0  0  0  0  0  0  0  0  0  0  0  0
  1  2  1  0  0  0  0
  1 20  1  0  0  0  0
  1 21  1  0  0  0  0
  1 22  1  0  0  0  0
  2 19  1  0  0  0  0
  2  3  2  0  0  0  0
  3  4  1  0  0  0  0
  4  5  2  0  0  0  0
  5  6  1  0  0  0  0
  5 19  1  0  0  0  0
  6  7  1  0  0  0  0
  6 23  1  0  0  0  0
  7  8  2  0  0  0  0
  7  9  1  0  0  0  0
  9 10  1  0  0  0  0
  9 24  1  0  0  0  0
 10 18  1  0  0  0  0
 10 11  1  0  0  0  0
 10 25  1  0  0  0  0
 11 12  1  0  0  0  0
 11 26  1  0  0  0  0
 11 27  1  0  0  0  0
 12 13  1  0  0  0  0
 12 28  1  0  0  0  0
 12 29  1  0  0  0  0
 13 18  1  0  0  0  0
 13 14  1  0  0  0  0
 13 39  1  0  0  0  0
 14 15  1  0  0  0  0
 14 30  1  0  0  0  0
 14 31  1  0  0  0  0
 15 16  1  0  0  0  0
 15 32  1  0  0  0  0
 15 33  1  0  0  0  0
 16 17  1  0  0  0  0
 16 34  1  0  0  0  0
 16 35  1  0  0  0  0
 17 18  1  0  0  0  0
 17 36  1  0  0  0  0
 17 37  1  0  0  0  0
 18 38  1  0  0  0  0
M  CHG  1  13   1
M  END
> <s_m_source_file>
AV-unprocessed.smi

> <i_m_source_file_index>
1897

> <i_lp_mmshare_version>
43012

> <i_f3d_flags>
0

> <s_epik_input>
W0NIM11jMW5uYyhzMSlbTkhdQyg9TylbTkhdW0NASF0oW0NIMl1bQ0gyXTIpW0NAQEhdKE4yMylbQ0gyXVtDSDJdW0NIMl1bQ0gyXTM=

> <s_epik_cmdline>
J2VwaWtfcHl0aG9uJywgJy1waCcsICc3LjAnLCAnLXRuJywgJzgnLCAnLW1hJywgJzIwMCcsICctbWV0YWxfYmluZGluZycsICctaW1hZScsICc8aW5maWxlLm1hZT4nLCAnLW9tYWUnLCAnPG91dGZpbGUubWFlPic=

> <r_lp_tautomer_probability>
1

> <r_epik_Ionization_Penalty>
0.00228891

> <r_epik_Ionization_Penalty_Charging>
0.00107044

> <r_epik_Ionization_Penalty_Neutral>
0.00121847

> <r_epik_State_Penalty>
-0

> <r_epik_Charging_Adjusted_Penalty>
0.00107044

> <i_epik_Tot_Q>
1

> <i_epik_Tot_abs_Q>
1

> <r_epik_Metal_State_Penalty>
0.304057

> <b_epik_Metal_Only>
0

> <s_lp_Force_Field>
OPLS_2005

> <r_lp_Energy>
41.04

> <b_lp_Chiralities_Consistent>
1

> <s_lp_Variant>
AV-unprocessed.smi:1897-1

> <Gold.Version>
5.8.1

> <Gold.Id.Protein>
6NUR|6NUR_protein|mol2

> <Gold.PLP.Fitness>
39.5788

> <Gold.PLP.PLP>
-28.7419

> <Gold.PLP.part.hbond>
-4.9609

> <Gold.PLP.part.metal>
0.0000

> <Gold.PLP.part.buried>
-4.8109

> <Gold.PLP.part.nonpolar>
-20.3636

> <Gold.PLP.part.repulsive>
0.1673

> <Gold.PLP.ligand.clash>
0.0000

> <Gold.PLP.ligand.torsion>
0.3575

> <Gold.PLP.Chemscore.Hbond>
3.8480

> <Gold.PLP.Chemscore.CHOScore>
0.0000

> <Gold.PLP.Chemscore.Metal>
0.0000

> <Gold.Chemscore.Hbonds>
donor molecule, donor type, donor heavy atom, donor atom, acceptor molecule, acceptor atom, score
      L1  H     6    23       P1  7948  0.85
      L1  H     9    24       P1  7948  1.00
      L1  H    13    39       P1 10747  0.82
      P1  H 10752 10765       L1     4  0.90

> <Gold.PLP.Chemscore.Internal.Correction>
0.0080

> <Gold.Rescore>
     Score         DG    S(hbond)    S(metal)    S(lipo)     H(rot)  DE(clash)    DE(int)     intcor
     19.32     -19.88       2.84        0.00      63.74       1.00       0.05       0.51       ----

> <Gold.Chemscore.Fitness>
19.3249

> <Gold.Chemscore.DG>
-19.8778

> <Gold.Chemscore.ZeroCoef>
-5.4800

> <Gold.Chemscore.Hbond>
2.8445

> <Gold.Chemscore.Metal>
0.0000

> <Gold.Chemscore.Lipo>
63.7356

> <Gold.Chemscore.Internal_Hbond>
0.0000

> <Gold.Chemscore.DEClash>
0.0456

> <Gold.Chemscore.DEInternal>
0.5073

> <Gold.Chemscore.Rot>
1.0000

> <Gold.Chemscore.Internal.Correction>
   9.000000E+99

> <Gold.Chemscore.Hbonds>
donor molecule, donor type, donor heavy atom, donor atom, acceptor molecule, acceptor atom, score
      L1  H     6    23       P1  7948  0.14
      L1  H     9    24       P1  7948  0.29
      L1  H    13    39       P1 10747  0.81
      P1  H 10752 10765       L1     4  0.14

> <Gold.Chemscore.Hbond.Weighted>
-9.5007

> <Gold.Chemscore.Metal.Weighted>
-0.0000

> <Gold.Chemscore.Lipo.Weighted>
-7.4571

> <Gold.Chemscore.Internal_Hbond.Weighted>
0.0000

> <Gold.Chemscore.DEClash.Weighted>
0.0456

> <Gold.Chemscore.DEInternal.Weighted>
0.5073

> <Gold.Chemscore.Rot.Weighted>
2.5600

> <Gold.Chemscore.Internal.Correction.Weighted>
   9.000000E+99

> <Gold.Protein.RotatedTorsions>
[ 6907 6896 6895 6894 ] final  -58.86 input  -60.11 | X-H torsion
[ 7974 7965 7964 7962 ] final    5.01 input  175.53 | X-H torsion
[ 8008 7997 7996 7995 ] final  -92.45 input   59.86 | X-H torsion
[ 10167 10162 10161 10158 ] final -125.05 input  -65.29 | X-H torsion
[ 10718 10713 10712 10709 ] final   -0.60 input   66.30 | X-H torsion
[ 10763 10752 10751 10750 ] final -176.15 input  -60.55 | X-H torsion
[ 11005 11000 10999 10996 ] final -135.39 input  -57.11 | X-H torsion

> <Gold.Protein.ActiveResidues>
 VAL166  LYS551  ARG553  GLY616  TRP617  ASP618  TYR619  PRO620  LYS621  CYS622 
 ASP623  PHE694  ASN695  SER759  ASP760  ASP761  ALA762  ILE779  LEU786  VAL792 
 PHE793  MET794  SER795  GLU796  ALA797  LYS798  CYS799  TRP800  GLU811  SER814 

> <Gold.Protein.RotatedAtoms>
  150.7974  134.7044  159.6567 H   0  0  0  0  0  0  0  0  0  0  0  0  # atno 6907 bound_to 6896
  152.4088  134.6157  160.0047 H   0  0  0  0  0  0  0  0  0  0  0  0  # atno 6908 bound_to 6896
  151.6407  133.3289  159.3165 H   0  0  0  0  0  0  0  0  0  0  0  0  # atno 6909 bound_to 6896
  146.2442  140.0448  142.8379 H   0  0  0  0  0  0  0  0  0  0  0  0  # atno 7974 bound_to 7965
  154.7233  140.0509  157.0660 H   0  0  0  0  0  0  0  0  0  0  0  0  # atno 8008 bound_to 7997
  155.0398  140.3167  155.4709 H   0  0  0  0  0  0  0  0  0  0  0  0  # atno 8009 bound_to 7997
  156.2822  140.2135  156.5521 H   0  0  0  0  0  0  0  0  0  0  0  0  # atno 8010 bound_to 7997
  139.9862  143.5689  152.2359 H   0  0  0  0  0  0  0  0  0  0  0  0  # atno 10167 bound_to 10162
  156.8180  130.5447  149.5700 H   0  0  0  0  0  0  0  0  0  0  0  0  # atno 10718 bound_to 10713
  154.5759  135.2832  155.0781 H   0  0  0  0  0  0  0  0  0  0  0  0  # atno 10763 bound_to 10752
  154.2136  135.6403  153.5126 H   0  0  0  0  0  0  0  0  0  0  0  0  # atno 10764 bound_to 10752
  153.0072  135.5497  154.6397 H   0  0  0  0  0  0  0  0  0  0  0  0  # atno 10765 bound_to 10752
  140.8902  134.1821  157.4532 H   0  0  0  0  0  0  0  0  0  0  0  0  # atno 11005 bound_to 11000
  145.1037  140.9362  143.4697 LP  0  0  0  0  0  0  0  0  0  0  0  0  # atno 17320 bound_to 7965
  145.0647  139.3078  143.5863 LP  0  0  0  0  0  0  0  0  0  0  0  0  # atno 17321 bound_to 7965
  139.6373  144.7651  151.2411 LP  0  0  0  0  0  0  0  0  0  0  0  0  # atno 17342 bound_to 10162
  140.7471  143.6376  150.8364 LP  0  0  0  0  0  0  0  0  0  0  0  0  # atno 17343 bound_to 10162
  156.1005  130.5965  150.9886 LP  0  0  0  0  0  0  0  0  0  0  0  0  # atno 17370 bound_to 10713
  157.6471  131.0902  150.8129 LP  0  0  0  0  0  0  0  0  0  0  0  0  # atno 17371 bound_to 10713
  139.8729  134.9855  156.5285 LP  0  0  0  0  0  0  0  0  0  0  0  0  # atno 17394 bound_to 11000
  140.8356  133.8245  155.9025 LP  0  0  0  0  0  0  0  0  0  0  0  0  # atno 17395 bound_to 11000

$$$$
