AV-unprocessed.smi:1252|AV-procd|sdf|5264|dock2
  -GOLD-   22720 4373D 1   1.00000     0.00000
 Structure written by MMmdl.
 43 44  0  0  0  0  0  0  0  0  1 V2000
  151.7164  144.8697  160.2251 C   0  0  0  0  0  0  0  0  0  0  0  0
  152.1607  143.5996  159.4782 C   0  0  2  0  0  0  0  0  0  0  0  0
  150.9710  142.8187  158.9008 C   0  0  0  0  0  0  0  0  0  0  0  0
  149.8165  143.1323  159.1942 O   0  0  0  0  0  0  0  0  0  0  0  0
  151.2728  141.8027  158.0775 N   0  0  0  0  0  0  0  0  0  0  0  0
  150.3126  140.9369  157.3939 C   0  0  0  0  0  0  0  0  0  0  0  0
  150.9807  139.7134  156.6970 C   0  0  0  0  0  0  0  0  0  0  0  0
  149.8516  138.9132  156.0040 C   0  0  0  0  0  0  0  0  0  0  0  0
  151.8872  140.2793  155.5745 C   0  0  0  0  0  0  0  0  0  0  0  0
  151.7704  138.8939  157.6593 N   0  0  0  0  0  0  0  0  0  0  0  0
  150.9764  138.2186  158.6928 C   0  0  0  0  0  0  0  0  0  0  0  0
  151.8618  137.4955  159.7219 C   0  0  0  0  0  0  0  0  0  0  0  0
  152.7068  136.5648  159.0565 O   0  0  0  0  0  0  0  0  0  0  0  0
  153.5389  137.1870  158.0851 C   0  0  0  0  0  0  0  0  0  0  0  0
  152.6688  137.9104  157.0430 C   0  0  0  0  0  0  0  0  0  0  0  0
  152.9641  142.7426  160.3391 N   0  0  0  0  0  0  0  0  0  0  0  0
  153.2571  142.8306  161.6403 C   0  0  0  0  0  0  0  0  0  0  0  0
  154.0450  141.8597  162.0806 N   0  0  0  0  0  0  0  0  0  0  0  0
  154.2168  141.1621  160.9188 C   0  0  0  0  0  0  0  0  0  0  0  0
  153.5947  141.6501  159.8457 N   0  0  0  0  0  0  0  0  0  0  0  0
  151.1047  145.5091  159.5874 H   0  0  0  0  0  0  0  0  0  0  0  0
  152.5807  145.4540  160.5420 H   0  0  0  0  0  0  0  0  0  0  0  0
  151.1338  144.6338  161.1166 H   0  0  0  0  0  0  0  0  0  0  0  0
  152.7857  143.9163  158.6405 H   0  0  0  0  0  0  0  0  0  0  0  0
  152.2491  141.6238  157.8920 H   0  0  0  0  0  0  0  0  0  0  0  0
  149.5822  140.6098  158.1334 H   0  0  0  0  0  0  0  0  0  0  0  0
  149.7273  141.5129  156.6746 H   0  0  0  0  0  0  0  0  0  0  0  0
  149.3036  139.5409  155.3001 H   0  0  0  0  0  0  0  0  0  0  0  0
  149.1214  138.5299  156.7164 H   0  0  0  0  0  0  0  0  0  0  0  0
  150.2354  138.0668  155.4349 H   0  0  0  0  0  0  0  0  0  0  0  0
  151.3644  141.0266  154.9762 H   0  0  0  0  0  0  0  0  0  0  0  0
  152.2119  139.5072  154.8770 H   0  0  0  0  0  0  0  0  0  0  0  0
  152.7819  140.7537  155.9789 H   0  0  0  0  0  0  0  0  0  0  0  0
  150.3540  138.9294  159.2332 H   0  0  0  0  0  0  0  0  0  0  0  0
  150.3042  137.4916  158.2368 H   0  0  0  0  0  0  0  0  0  0  0  0
  152.4654  138.2109  160.2829 H   0  0  0  0  0  0  0  0  0  0  0  0
  151.2437  136.9619  160.4440 H   0  0  0  0  0  0  0  0  0  0  0  0
  154.2196  137.8868  158.5724 H   0  0  0  0  0  0  0  0  0  0  0  0
  154.1534  136.4268  157.6026 H   0  0  0  0  0  0  0  0  0  0  0  0
  152.0936  137.1676  156.4905 H   0  0  0  0  0  0  0  0  0  0  0  0
  153.3381  138.3880  156.3298 H   0  0  0  0  0  0  0  0  0  0  0  0
  152.8879  143.6218  162.2766 H   0  0  0  0  0  0  0  0  0  0  0  0
  154.8209  140.2685  160.8618 H   0  0  0  0  0  0  0  0  0  0  0  0
  1  2  1  0  0  0  0
  1 21  1  0  0  0  0
  1 22  1  0  0  0  0
  1 23  1  0  0  0  0
  2  3  1  0  0  0  0
  2 16  1  0  0  0  0
  2 24  1  0  0  0  0
  3  4  2  0  0  0  0
  3  5  1  0  0  0  0
  5  6  1  0  0  0  0
  5 25  1  0  0  0  0
  6  7  1  0  0  0  0
  6 26  1  0  0  0  0
  6 27  1  0  0  0  0
  7  8  1  0  0  0  0
  7  9  1  0  0  0  0
  7 10  1  0  0  0  0
  8 28  1  0  0  0  0
  8 29  1  0  0  0  0
  8 30  1  0  0  0  0
  9 31  1  0  0  0  0
  9 32  1  0  0  0  0
  9 33  1  0  0  0  0
 10 15  1  0  0  0  0
 10 11  1  0  0  0  0
 11 12  1  0  0  0  0
 11 34  1  0  0  0  0
 11 35  1  0  0  0  0
 12 13  1  0  0  0  0
 12 36  1  0  0  0  0
 12 37  1  0  0  0  0
 13 14  1  0  0  0  0
 14 15  1  0  0  0  0
 14 38  1  0  0  0  0
 14 39  1  0  0  0  0
 15 40  1  0  0  0  0
 15 41  1  0  0  0  0
 16 20  1  0  0  0  0
 16 17  1  0  0  0  0
 17 18  2  0  0  0  0
 17 42  1  0  0  0  0
 18 19  1  0  0  0  0
 19 20  2  0  0  0  0
 19 43  1  0  0  0  0
M  END
> <s_m_source_file>
AV-unprocessed.smi

> <i_m_source_file_index>
1252

> <i_lp_mmshare_version>
43012

> <i_f3d_flags>
0

> <s_epik_input>
bjFbY0hdbltjSF1uMVtDQEhdKFtDSDNdKUMoPU8pW05IXVtDSDJdQyhbQ0gzXSkoW0NIM10pTjJbQ0gyXVtDSDJdT1tDSDJdW0NIMl0y

> <s_epik_cmdline>
J2VwaWtfcHl0aG9uJywgJy1waCcsICc3LjAnLCAnLXRuJywgJzgnLCAnLW1hJywgJzIwMCcsICctbWV0YWxfYmluZGluZycsICctaW1hZScsICc8aW5maWxlLm1hZT4nLCAnLW9tYWUnLCAnPG91dGZpbGUubWFlPic=

> <r_lp_tautomer_probability>
1

> <r_epik_Ionization_Penalty>
0.211373

> <r_epik_Ionization_Penalty_Charging>
0

> <r_epik_Ionization_Penalty_Neutral>
0.211373

> <r_epik_State_Penalty>
0.201459

> <r_epik_Charging_Adjusted_Penalty>
0.201459

> <i_epik_Tot_Q>
0

> <i_epik_Tot_abs_Q>
0

> <r_epik_Metal_State_Penalty>
0.201458

> <b_epik_Metal_Only>
0

> <s_lp_Force_Field>
OPLS_2005

> <r_lp_Energy>
48.0219

> <b_lp_Chiralities_Consistent>
1

> <s_lp_Variant>
AV-unprocessed.smi:1252-1

> <Gold.Version>
5.8.1

> <Gold.Id.Protein>
6NUR|6NUR_protein|mol2

> <Gold.PLP.Fitness>
36.3351

> <Gold.PLP.PLP>
-33.9982

> <Gold.PLP.part.hbond>
-1.9344

> <Gold.PLP.part.metal>
0.0000

> <Gold.PLP.part.buried>
-5.6010

> <Gold.PLP.part.nonpolar>
-26.3511

> <Gold.PLP.part.repulsive>
0.2065

> <Gold.PLP.ligand.clash>
0.0000

> <Gold.PLP.ligand.torsion>
0.3426

> <Gold.PLP.Chemscore.Hbond>
0.9600

> <Gold.PLP.Chemscore.CHOScore>
0.0000

> <Gold.PLP.Chemscore.Metal>
0.0000

> <Gold.Chemscore.Hbonds>
donor molecule, donor type, donor heavy atom, donor atom, acceptor molecule, acceptor atom, score
      P1  H  6896  6909       L1    13  0.48

> <Gold.PLP.Chemscore.Internal.Correction>
0.1421

> <Gold.Rescore>
     Score         DG    S(hbond)    S(metal)    S(lipo)     H(rot)  DE(clash)    DE(int)     intcor
      8.78      -9.70       0.96        0.00      63.61       2.52       0.10       0.83       ----

> <Gold.Chemscore.Fitness>
8.7765

> <Gold.Chemscore.DG>
-9.7023

> <Gold.Chemscore.ZeroCoef>
-5.4800

> <Gold.Chemscore.Hbond>
0.9639

> <Gold.Chemscore.Metal>
0.0000

> <Gold.Chemscore.Lipo>
63.6072

> <Gold.Chemscore.Internal_Hbond>
0.0000

> <Gold.Chemscore.DEClash>
0.0971

> <Gold.Chemscore.DEInternal>
0.8287

> <Gold.Chemscore.Rot>
2.5153

> <Gold.Chemscore.Internal.Correction>
   9.000000E+99

> <Gold.Chemscore.Hbonds>
donor molecule, donor type, donor heavy atom, donor atom, acceptor molecule, acceptor atom, score
      P1  H  6896  6909       L1    13  0.03

> <Gold.Chemscore.Hbond.Weighted>
-3.2194

> <Gold.Chemscore.Metal.Weighted>
-0.0000

> <Gold.Chemscore.Lipo.Weighted>
-7.4420

> <Gold.Chemscore.Internal_Hbond.Weighted>
0.0000

> <Gold.Chemscore.DEClash.Weighted>
0.0971

> <Gold.Chemscore.DEInternal.Weighted>
0.8287

> <Gold.Chemscore.Rot.Weighted>
6.4392

> <Gold.Chemscore.Internal.Correction.Weighted>
   9.000000E+99

> <Gold.Protein.RotatedTorsions>
[ 6907 6896 6895 6894 ] final  138.14 input  -60.11 | X-H torsion
[ 7974 7965 7964 7962 ] final -141.23 input  175.53 | X-H torsion
[ 8008 7997 7996 7995 ] final -152.76 input   59.86 | X-H torsion
[ 10167 10162 10161 10158 ] final  -74.71 input  -65.29 | X-H torsion
[ 10718 10713 10712 10709 ] final   65.54 input   66.30 | X-H torsion
[ 10763 10752 10751 10750 ] final  167.54 input  -60.55 | X-H torsion
[ 11005 11000 10999 10996 ] final  -52.13 input  -57.11 | X-H torsion

> <Gold.Protein.ActiveResidues>
 VAL166  LYS551  ARG553  GLY616  TRP617  ASP618  TYR619  PRO620  LYS621  CYS622 
 ASP623  PHE694  ASN695  SER759  ASP760  ASP761  ALA762  ILE779  LEU786  VAL792 
 PHE793  MET794  SER795  GLU796  ALA797  LYS798  CYS799  TRP800  GLU811  SER814 

> <Gold.Protein.RotatedAtoms>
  152.2700  133.5374  159.5433 H   0  0  0  0  0  0  0  0  0  0  0  0  # atno 6907 bound_to 6896
  150.7156  134.0711  159.3873 H   0  0  0  0  0  0  0  0  0  0  0  0  # atno 6908 bound_to 6896
  151.8625  135.0519  160.0521 H   0  0  0  0  0  0  0  0  0  0  0  0  # atno 6909 bound_to 6896
  144.8535  140.6104  143.5374 H   0  0  0  0  0  0  0  0  0  0  0  0  # atno 7974 bound_to 7965
  155.6603  140.0722  157.2556 H   0  0  0  0  0  0  0  0  0  0  0  0  # atno 8008 bound_to 7997
  154.4144  140.1717  156.1819 H   0  0  0  0  0  0  0  0  0  0  0  0  # atno 8009 bound_to 7997
  155.9703  140.3362  155.6573 H   0  0  0  0  0  0  0  0  0  0  0  0  # atno 8010 bound_to 7997
  140.5004  143.2362  151.7762 H   0  0  0  0  0  0  0  0  0  0  0  0  # atno 10167 bound_to 10162
  157.6112  130.9219  149.9990 H   0  0  0  0  0  0  0  0  0  0  0  0  # atno 10718 bound_to 10713
  154.3554  135.2753  155.2349 H   0  0  0  0  0  0  0  0  0  0  0  0  # atno 10763 bound_to 10752
  154.4560  135.5919  153.6227 H   0  0  0  0  0  0  0  0  0  0  0  0  # atno 10764 bound_to 10752
  152.9847  135.6053  154.3769 H   0  0  0  0  0  0  0  0  0  0  0  0  # atno 10765 bound_to 10752
  141.0908  133.6633  156.3979 H   0  0  0  0  0  0  0  0  0  0  0  0  # atno 11005 bound_to 11000
  145.4452  139.1530  143.3948 LP  0  0  0  0  0  0  0  0  0  0  0  0  # atno 17320 bound_to 7965
  146.2804  140.4575  142.8778 LP  0  0  0  0  0  0  0  0  0  0  0  0  # atno 17321 bound_to 7965
  139.4871  144.4530  151.9632 LP  0  0  0  0  0  0  0  0  0  0  0  0  # atno 17342 bound_to 10162
  140.3619  144.2963  150.5932 LP  0  0  0  0  0  0  0  0  0  0  0  0  # atno 17343 bound_to 10162
  156.1215  130.3646  149.9879 LP  0  0  0  0  0  0  0  0  0  0  0  0  # atno 17370 bound_to 10713
  156.7958  130.9272  151.3646 LP  0  0  0  0  0  0  0  0  0  0  0  0  # atno 17371 bound_to 10713
  140.5256  134.6262  157.5333 LP  0  0  0  0  0  0  0  0  0  0  0  0  # atno 17394 bound_to 11000
  139.9734  134.7255  155.9997 LP  0  0  0  0  0  0  0  0  0  0  0  0  # atno 17395 bound_to 11000

$$$$
