AV-unprocessed.smi:2001|AV-procd|sdf|8103|dock10
  -GOLD-   2272010323D 1   1.00000     0.00000
 Structure written by MMmdl.
 50 51  0  0  0  0  0  0  0  0  1 V2000
  153.3747  137.0200  163.3595 C   0  0  0  0  0  0  0  0  0  0  0  0
  153.8528  136.6160  164.6307 O   0  0  0  0  0  0  0  0  0  0  0  0
  154.1962  137.7163  165.4558 C   0  0  0  0  0  0  0  0  0  0  0  0
  155.7096  137.9614  165.3546 C   0  0  0  0  0  0  0  0  0  0  0  0
  156.0493  139.3596  165.6377 N   0  0  0  0  0  0  0  0  0  0  0  0
  155.4454  140.2713  164.7874 N   0  0  0  0  0  0  0  0  0  0  0  0
  155.6695  141.5380  164.9276 C   0  0  0  0  0  0  0  0  0  0  0  0
  155.0356  142.5517  164.0395 C   0  0  0  0  0  0  0  0  0  0  0  0
  155.1303  143.7603  164.2606 O   0  0  0  0  0  0  0  0  0  0  0  0
  154.3564  142.0551  162.9900 N   0  0  0  0  0  0  0  0  0  0  0  0
  153.6453  142.8534  161.9998 C   0  0  0  0  0  0  0  0  0  0  0  0
  153.0398  141.9655  160.8973 C   0  0  0  0  0  0  0  0  0  0  0  0
  152.2273  142.6783  159.9135 N   0  0  0  0  0  0  0  0  0  0  0  0
  151.6351  141.7531  158.9557 C   0  0  0  0  0  0  0  0  0  0  0  0
  150.7380  142.4773  157.9360 C   0  0  2  0  0  0  0  0  0  0  0  0
  150.1752  141.5194  156.8807 C   0  0  0  0  0  0  0  0  0  0  0  0
  151.4996  143.4792  157.2649 O   0  0  0  0  0  0  0  0  0  0  0  0
  152.1538  144.4201  158.1179 C   0  0  1  0  0  0  0  0  0  0  0  0
  151.1631  145.4336  158.7152 C   0  0  0  0  0  0  0  0  0  0  0  0
  152.9933  143.6873  159.1839 C   0  0  0  0  0  0  0  0  0  0  0  0
  156.5560  142.0259  165.9707 C   0  0  0  0  0  0  0  0  0  0  0  0
  157.1374  141.1247  166.7923 C   0  0  0  0  0  0  0  0  0  0  0  0
  156.9005  139.6870  166.6563 C   0  0  0  0  0  0  0  0  0  0  0  0
  157.4217  138.8468  167.3892 O   0  0  0  0  0  0  0  0  0  0  0  0
  153.1210  136.1411  162.7669 H   0  0  0  0  0  0  0  0  0  0  0  0
  154.1322  137.5851  162.8147 H   0  0  0  0  0  0  0  0  0  0  0  0
  152.4780  137.6344  163.4518 H   0  0  0  0  0  0  0  0  0  0  0  0
  153.6453  138.6031  165.1388 H   0  0  0  0  0  0  0  0  0  0  0  0
  153.9180  137.5069  166.4899 H   0  0  0  0  0  0  0  0  0  0  0  0
  156.2300  137.3035  166.0531 H   0  0  0  0  0  0  0  0  0  0  0  0
  156.0696  137.6761  164.3645 H   0  0  0  0  0  0  0  0  0  0  0  0
  154.3264  141.0520  162.8762 H   0  0  0  0  0  0  0  0  0  0  0  0
  152.8529  143.4008  162.5109 H   0  0  0  0  0  0  0  0  0  0  0  0
  154.3229  143.6011  161.5864 H   0  0  0  0  0  0  0  0  0  0  0  0
  153.8320  141.4146  160.3877 H   0  0  0  0  0  0  0  0  0  0  0  0
  152.4194  141.2128  161.3861 H   0  0  0  0  0  0  0  0  0  0  0  0
  152.4232  141.2110  158.4302 H   0  0  0  0  0  0  0  0  0  0  0  0
  151.0425  141.0052  159.4842 H   0  0  0  0  0  0  0  0  0  0  0  0
  149.9011  142.9454  158.4552 H   0  0  0  0  0  0  0  0  0  0  0  0
  149.5741  140.7364  157.3432 H   0  0  0  0  0  0  0  0  0  0  0  0
  150.9752  141.0394  156.3165 H   0  0  0  0  0  0  0  0  0  0  0  0
  149.5397  142.0507  156.1717 H   0  0  0  0  0  0  0  0  0  0  0  0
  152.8384  144.9829  157.4828 H   0  0  0  0  0  0  0  0  0  0  0  0
  151.6908  146.2110  159.2682 H   0  0  0  0  0  0  0  0  0  0  0  0
  150.4610  144.9644  159.4042 H   0  0  0  0  0  0  0  0  0  0  0  0
  150.5857  145.9218  157.9300 H   0  0  0  0  0  0  0  0  0  0  0  0
  153.4101  144.4240  159.8695 H   0  0  0  0  0  0  0  0  0  0  0  0
  153.8432  143.2097  158.6938 H   0  0  0  0  0  0  0  0  0  0  0  0
  156.7489  143.0816  166.0946 H   0  0  0  0  0  0  0  0  0  0  0  0
  157.7971  141.4732  167.5734 H   0  0  0  0  0  0  0  0  0  0  0  0
  1  2  1  0  0  0  0
  1 25  1  0  0  0  0
  1 26  1  0  0  0  0
  1 27  1  0  0  0  0
  2  3  1  0  0  0  0
  3  4  1  0  0  0  0
  3 28  1  0  0  0  0
  3 29  1  0  0  0  0
  4  5  1  0  0  0  0
  4 30  1  0  0  0  0
  4 31  1  0  0  0  0
  5 23  1  0  0  0  0
  5  6  1  0  0  0  0
  6  7  2  0  0  0  0
  7  8  1  0  0  0  0
  7 21  1  0  0  0  0
  8  9  2  0  0  0  0
  8 10  1  0  0  0  0
 10 11  1  0  0  0  0
 10 32  1  0  0  0  0
 11 12  1  0  0  0  0
 11 33  1  0  0  0  0
 11 34  1  0  0  0  0
 12 13  1  0  0  0  0
 12 35  1  0  0  0  0
 12 36  1  0  0  0  0
 13 20  1  0  0  0  0
 13 14  1  0  0  0  0
 14 15  1  0  0  0  0
 14 37  1  0  0  0  0
 14 38  1  0  0  0  0
 15 16  1  0  0  0  0
 15 17  1  0  0  0  0
 15 39  1  0  0  0  0
 16 40  1  0  0  0  0
 16 41  1  0  0  0  0
 16 42  1  0  0  0  0
 17 18  1  0  0  0  0
 18 19  1  0  0  0  0
 18 20  1  0  0  0  0
 18 43  1  0  0  0  0
 19 44  1  0  0  0  0
 19 45  1  0  0  0  0
 19 46  1  0  0  0  0
 20 47  1  0  0  0  0
 20 48  1  0  0  0  0
 21 22  2  0  0  0  0
 21 49  1  0  0  0  0
 22 23  1  0  0  0  0
 22 50  1  0  0  0  0
 23 24  2  0  0  0  0
M  END
> <s_m_source_file>
AV-unprocessed.smi

> <i_m_source_file_index>
2001

> <i_lp_mmshare_version>
43012

> <i_f3d_flags>
0

> <s_epik_input>
W0NIM11PW0NIMl1bQ0gyXW4xbmMoW2NIXVtjSF1jMT1PKUMoPU8pW05IXVtDSDJdW0NIMl1OMltDSDJdW0NAQEhdKFtDSDNdKU9bQ0BASF0oW0NIM10pW0NIMl0y

> <s_epik_cmdline>
J2VwaWtfcHl0aG9uJywgJy1waCcsICc3LjAnLCAnLXRuJywgJzgnLCAnLW1hJywgJzIwMCcsICctbWV0YWxfYmluZGluZycsICctaW1hZScsICc8aW5maWxlLm1hZT4nLCAnLW9tYWUnLCAnPG91dGZpbGUubWFlPic=

> <r_lp_tautomer_probability>
1

> <r_epik_Ionization_Penalty>
0.206669

> <r_epik_Ionization_Penalty_Charging>
5.55992e-09

> <r_epik_Ionization_Penalty_Neutral>
0.206669

> <r_epik_State_Penalty>
0.196651

> <r_epik_Charging_Adjusted_Penalty>
0.196651

> <i_epik_Tot_Q>
0

> <i_epik_Tot_abs_Q>
0

> <r_epik_Metal_State_Penalty>
0.198372

> <b_epik_Metal_Only>
0

> <s_lp_Force_Field>
OPLS_2005

> <r_lp_Energy>
40.7423

> <b_lp_Chiralities_Consistent>
1

> <s_lp_Variant>
AV-unprocessed.smi:2001-2

> <Gold.Version>
5.8.1

> <Gold.Id.Protein>
6NUR|6NUR_protein|mol2

> <Gold.PLP.Fitness>
46.9249

> <Gold.PLP.PLP>
-47.7461

> <Gold.PLP.part.hbond>
-1.5745

> <Gold.PLP.part.metal>
0.0000

> <Gold.PLP.part.buried>
-7.4426

> <Gold.PLP.part.nonpolar>
-37.9840

> <Gold.PLP.part.repulsive>
0.2886

> <Gold.PLP.ligand.clash>
0.0000

> <Gold.PLP.ligand.torsion>
0.4439

> <Gold.PLP.Chemscore.Hbond>
0.0000

> <Gold.PLP.Chemscore.CHOScore>
0.0000

> <Gold.PLP.Chemscore.Metal>
0.0000

> <Gold.PLP.Chemscore.Internal.Correction>
0.0664

> <Gold.Rescore>
     Score         DG    S(hbond)    S(metal)    S(lipo)     H(rot)  DE(clash)    DE(int)     intcor
     13.51     -14.37       0.00        0.00     119.78       2.00       0.47       0.39       ----

> <Gold.Chemscore.Fitness>
13.5057

> <Gold.Chemscore.DG>
-14.3686

> <Gold.Chemscore.ZeroCoef>
-5.4800

> <Gold.Chemscore.Hbond>
0.0000

> <Gold.Chemscore.Metal>
0.0000

> <Gold.Chemscore.Lipo>
119.7759

> <Gold.Chemscore.Internal_Hbond>
0.0000

> <Gold.Chemscore.DEClash>
0.4736

> <Gold.Chemscore.DEInternal>
0.3893

> <Gold.Chemscore.Rot>
2.0020

> <Gold.Chemscore.Internal.Correction>
   9.000000E+99

> <Gold.Chemscore.Hbond.Weighted>
-0.0000

> <Gold.Chemscore.Metal.Weighted>
-0.0000

> <Gold.Chemscore.Lipo.Weighted>
-14.0138

> <Gold.Chemscore.Internal_Hbond.Weighted>
0.0000

> <Gold.Chemscore.DEClash.Weighted>
0.4736

> <Gold.Chemscore.DEInternal.Weighted>
0.3893

> <Gold.Chemscore.Rot.Weighted>
5.1252

> <Gold.Chemscore.Internal.Correction.Weighted>
   9.000000E+99

> <Gold.Protein.RotatedTorsions>
[ 6907 6896 6895 6894 ] final  170.56 input  -60.11 | X-H torsion
[ 7974 7965 7964 7962 ] final -178.68 input  175.53 | X-H torsion
[ 8008 7997 7996 7995 ] final   87.32 input   59.86 | X-H torsion
[ 10167 10162 10161 10158 ] final  146.61 input  -65.29 | X-H torsion
[ 10718 10713 10712 10709 ] final  -37.55 input   66.30 | X-H torsion
[ 10763 10752 10751 10750 ] final    9.12 input  -60.55 | X-H torsion
[ 11005 11000 10999 10996 ] final -139.82 input  -57.11 | X-H torsion

> <Gold.Protein.ActiveResidues>
 VAL166  LYS551  ARG553  GLY616  TRP617  ASP618  TYR619  PRO620  LYS621  CYS622 
 ASP623  PHE694  ASN695  SER759  ASP760  ASP761  ALA762  ILE779  LEU786  VAL792 
 PHE793  MET794  SER795  GLU796  ALA797  LYS798  CYS799  TRP800  GLU811  SER814 

> <Gold.Protein.RotatedAtoms>
  151.8141  133.3385  159.3564 H   0  0  0  0  0  0  0  0  0  0  0  0  # atno 6907 bound_to 6896
  150.7316  134.5636  159.5864 H   0  0  0  0  0  0  0  0  0  0  0  0  # atno 6908 bound_to 6896
  152.3053  134.7563  160.0400 H   0  0  0  0  0  0  0  0  0  0  0  0  # atno 6909 bound_to 6896
  144.7132  140.0832  143.6424 H   0  0  0  0  0  0  0  0  0  0  0  0  # atno 7974 bound_to 7965
  155.9739  140.3383  155.6601 H   0  0  0  0  0  0  0  0  0  0  0  0  # atno 8008 bound_to 7997
  155.6638  140.0719  157.2562 H   0  0  0  0  0  0  0  0  0  0  0  0  # atno 8009 bound_to 7997
  154.4173  140.1704  156.1793 H   0  0  0  0  0  0  0  0  0  0  0  0  # atno 8010 bound_to 7997
  139.4904  144.5816  151.6859 H   0  0  0  0  0  0  0  0  0  0  0  0  # atno 10167 bound_to 10162
  156.3140  130.4256  149.8023 H   0  0  0  0  0  0  0  0  0  0  0  0  # atno 10718 bound_to 10713
  153.2175  135.6877  153.8040 H   0  0  0  0  0  0  0  0  0  0  0  0  # atno 10763 bound_to 10752
  153.7250  135.3261  155.3275 H   0  0  0  0  0  0  0  0  0  0  0  0  # atno 10764 bound_to 10752
  154.8253  135.4622  154.1008 H   0  0  0  0  0  0  0  0  0  0  0  0  # atno 10765 bound_to 10752
  140.8482  134.2318  157.4774 H   0  0  0  0  0  0  0  0  0  0  0  0  # atno 11005 bound_to 11000
  145.9684  139.2851  143.1113 LP  0  0  0  0  0  0  0  0  0  0  0  0  # atno 17320 bound_to 7965
  145.9144  140.9158  143.0437 LP  0  0  0  0  0  0  0  0  0  0  0  0  # atno 17321 bound_to 7965
  140.5424  144.0558  150.6093 LP  0  0  0  0  0  0  0  0  0  0  0  0  # atno 17342 bound_to 10162
  140.3584  143.2922  152.0410 LP  0  0  0  0  0  0  0  0  0  0  0  0  # atno 17343 bound_to 10162
  156.5356  130.8277  151.3252 LP  0  0  0  0  0  0  0  0  0  0  0  0  # atno 17370 bound_to 10713
  157.7397  130.9837  150.2332 LP  0  0  0  0  0  0  0  0  0  0  0  0  # atno 17371 bound_to 10713
  139.8704  134.9670  156.4581 LP  0  0  0  0  0  0  0  0  0  0  0  0  # atno 17394 bound_to 11000
  140.8819  133.7911  155.9476 LP  0  0  0  0  0  0  0  0  0  0  0  0  # atno 17395 bound_to 11000

$$$$
