AV-unprocessed.smi:3273|AV-procd|sdf|12520|dock9
  -GOLD-   2272018433D 1   1.00000     0.00000
 Structure written by MMmdl.
 41 42  0  0  0  0  0  0  0  0  1 V2000
  147.0821  137.7830  154.9800 C   0  0  0  0  0  0  0  0  0  0  0  0
  147.3540  137.7699  156.4958 C   0  0  0  0  0  0  0  0  0  0  0  0
  146.4353  138.8004  157.1832 C   0  0  0  0  0  0  0  0  0  0  0  0
  148.8548  137.9903  156.8384 C   0  0  2  0  0  0  0  0  0  0  0  0
  149.1403  137.8804  158.3539 C   0  0  0  0  0  0  0  0  0  0  0  0
  148.8167  136.5533  158.8673 N   0  0  0  0  0  0  0  0  0  0  0  0
  148.1761  136.3138  160.0199 C   0  0  0  0  0  0  0  0  0  0  0  0
  147.7824  137.2070  160.7708 O   0  0  0  0  0  0  0  0  0  0  0  0
  147.9575  134.8400  160.3736 C   0  0  0  0  0  0  0  0  0  0  0  0
  147.6553  134.6144  161.8459 C   0  0  0  0  0  0  0  0  0  0  0  0
  146.3699  133.9491  162.2831 C   0  0  0  0  0  0  0  0  0  0  0  0
  146.5843  135.4182  162.5498 C   0  0  0  0  0  0  0  0  0  0  0  0
  149.3928  139.2825  156.2790 C   0  0  0  0  0  0  0  0  0  0  0  0
  149.0784  140.5737  156.6037 C   0  0  0  0  0  0  0  0  0  0  0  0
  149.9144  141.3589  155.7641 C   0  0  0  0  0  0  0  0  0  0  0  0
  150.6874  140.6212  154.9871 N   0  0  0  0  0  0  0  0  0  0  0  0
  150.3724  139.3467  155.3017 N   0  0  0  0  0  0  0  0  0  0  0  0
  151.0581  138.2648  154.6209 C   0  0  0  0  0  0  0  0  0  0  0  0
  147.4171  138.7153  154.5245 H   0  0  0  0  0  0  0  0  0  0  0  0
  146.0167  137.6792  154.7729 H   0  0  0  0  0  0  0  0  0  0  0  0
  147.5798  136.9600  154.4685 H   0  0  0  0  0  0  0  0  0  0  0  0
  147.0636  136.7886  156.8735 H   0  0  0  0  0  0  0  0  0  0  0  0
  146.7073  139.8188  156.9038 H   0  0  0  0  0  0  0  0  0  0  0  0
  146.4781  138.7304  158.2701 H   0  0  0  0  0  0  0  0  0  0  0  0
  145.3932  138.6479  156.9009 H   0  0  0  0  0  0  0  0  0  0  0  0
  149.3938  137.1679  156.3677 H   0  0  0  0  0  0  0  0  0  0  0  0
  150.1946  138.0925  158.5413 H   0  0  0  0  0  0  0  0  0  0  0  0
  148.5609  138.6097  158.9193 H   0  0  0  0  0  0  0  0  0  0  0  0
  149.1099  135.7626  158.3119 H   0  0  0  0  0  0  0  0  0  0  0  0
  147.1337  134.4468  159.7758 H   0  0  0  0  0  0  0  0  0  0  0  0
  148.8470  134.2708  160.1023 H   0  0  0  0  0  0  0  0  0  0  0  0
  148.5365  134.3817  162.4413 H   0  0  0  0  0  0  0  0  0  0  0  0
  145.6476  133.6799  161.5149 H   0  0  0  0  0  0  0  0  0  0  0  0
  146.4195  133.2715  163.1330 H   0  0  0  0  0  0  0  0  0  0  0  0
  146.7802  135.7219  163.5761 H   0  0  0  0  0  0  0  0  0  0  0  0
  146.0072  136.1250  161.9564 H   0  0  0  0  0  0  0  0  0  0  0  0
  148.3570  140.9062  157.3353 H   0  0  0  0  0  0  0  0  0  0  0  0
  149.9839  142.4347  155.6993 H   0  0  0  0  0  0  0  0  0  0  0  0
  151.5774  137.6433  155.3507 H   0  0  0  0  0  0  0  0  0  0  0  0
  151.7873  138.6561  153.9102 H   0  0  0  0  0  0  0  0  0  0  0  0
  150.3337  137.6549  154.0807 H   0  0  0  0  0  0  0  0  0  0  0  0
  1  2  1  0  0  0  0
  1 19  1  0  0  0  0
  1 20  1  0  0  0  0
  1 21  1  0  0  0  0
  2  3  1  0  0  0  0
  2  4  1  0  0  0  0
  2 22  1  0  0  0  0
  3 23  1  0  0  0  0
  3 24  1  0  0  0  0
  3 25  1  0  0  0  0
  4  5  1  0  0  0  0
  4 13  1  0  0  0  0
  4 26  1  0  0  0  0
  5  6  1  0  0  0  0
  5 27  1  0  0  0  0
  5 28  1  0  0  0  0
  6  7  1  0  0  0  0
  6 29  1  0  0  0  0
  7  8  2  0  0  0  0
  7  9  1  0  0  0  0
  9 10  1  0  0  0  0
  9 30  1  0  0  0  0
  9 31  1  0  0  0  0
 10 12  1  0  0  0  0
 10 11  1  0  0  0  0
 10 32  1  0  0  0  0
 11 12  1  0  0  0  0
 11 33  1  0  0  0  0
 11 34  1  0  0  0  0
 12 35  1  0  0  0  0
 12 36  1  0  0  0  0
 13 17  1  0  0  0  0
 13 14  2  0  0  0  0
 14 15  1  0  0  0  0
 14 37  1  0  0  0  0
 15 16  2  0  0  0  0
 15 38  1  0  0  0  0
 16 17  1  0  0  0  0
 17 18  1  0  0  0  0
 18 39  1  0  0  0  0
 18 40  1  0  0  0  0
 18 41  1  0  0  0  0
M  END
> <s_m_source_file>
AV-unprocessed.smi

> <i_m_source_file_index>
3273

> <i_lp_mmshare_version>
43012

> <i_f3d_flags>
0

> <s_epik_input>
W0NIM11uMW5bY0hdW2NIXWMxW0NASF0oW0NIXShbQ0gzXSlbQ0gzXSlbQ0gyXVtOSF1DKD1PKVtDSDJdW0NIXTJbQ0gyXVtDSDJdMg==

> <s_epik_cmdline>
J2VwaWtfcHl0aG9uJywgJy1waCcsICc3LjAnLCAnLXRuJywgJzgnLCAnLW1hJywgJzIwMCcsICctbWV0YWxfYmluZGluZycsICctaW1hZScsICc8aW5maWxlLm1hZT4nLCAnLW9tYWUnLCAnPG91dGZpbGUubWFlPic=

> <r_lp_tautomer_probability>
1

> <r_epik_Ionization_Penalty>
0.00116261

> <r_epik_Ionization_Penalty_Charging>
0

> <r_epik_Ionization_Penalty_Neutral>
0.00116261

> <r_epik_State_Penalty>
-0

> <r_epik_Charging_Adjusted_Penalty>
0

> <i_epik_Tot_Q>
0

> <i_epik_Tot_abs_Q>
0

> <r_epik_Metal_State_Penalty>
-0

> <b_epik_Metal_Only>
0

> <s_lp_Force_Field>
OPLS_2005

> <r_lp_Energy>
13.9008

> <b_lp_Chiralities_Consistent>
1

> <s_lp_Variant>
AV-unprocessed.smi:3273-1

> <Gold.Version>
5.8.1

> <Gold.Id.Protein>
6NUR|6NUR_protein|mol2

> <Gold.PLP.Fitness>
37.5385

> <Gold.PLP.PLP>
-27.4900

> <Gold.PLP.part.hbond>
-3.0000

> <Gold.PLP.part.metal>
0.0000

> <Gold.PLP.part.buried>
-4.0296

> <Gold.PLP.part.nonpolar>
-20.3619

> <Gold.PLP.part.repulsive>
0.2245

> <Gold.PLP.ligand.clash>
0.0000

> <Gold.PLP.ligand.torsion>
0.8447

> <Gold.PLP.Chemscore.Hbond>
2.6720

> <Gold.PLP.Chemscore.CHOScore>
1.0000

> <Gold.PLP.Chemscore.Metal>
0.0000

> <Gold.Chemscore.Hbonds>
donor molecule, donor type, donor heavy atom, donor atom, acceptor molecule, acceptor atom, score
      P1  H  6931  6943       L1     8  0.83
      P1  H  6934  6947       L1     8  0.86
      P1  H  7989  7998       L1    16  0.96
      L1  C    15    38       P1  8028  0.99

> <Gold.PLP.Chemscore.Internal.Correction>
0.7220

> <Gold.Rescore>
     Score         DG    S(hbond)    S(metal)    S(lipo)     H(rot)  DE(clash)    DE(int)     intcor
     14.49     -16.62       2.57        0.00      57.78       1.64       0.01       2.12       ----

> <Gold.Chemscore.Fitness>
14.4894

> <Gold.Chemscore.DG>
-16.6225

> <Gold.Chemscore.ZeroCoef>
-5.4800

> <Gold.Chemscore.Hbond>
2.5716

> <Gold.Chemscore.Metal>
0.0000

> <Gold.Chemscore.Lipo>
57.7751

> <Gold.Chemscore.Internal_Hbond>
0.0000

> <Gold.Chemscore.DEClash>
0.0141

> <Gold.Chemscore.DEInternal>
2.1190

> <Gold.Chemscore.Rot>
1.6430

> <Gold.Chemscore.Internal.Correction>
   9.000000E+99

> <Gold.Chemscore.Hbonds>
donor molecule, donor type, donor heavy atom, donor atom, acceptor molecule, acceptor atom, score
      P1  H  6931  6943       L1     8  0.78
      P1  H  6934  6947       L1     8  0.85
      P1  H  7989  7998       L1    16  0.88

> <Gold.Chemscore.Hbond.Weighted>
-8.5890

> <Gold.Chemscore.Metal.Weighted>
-0.0000

> <Gold.Chemscore.Lipo.Weighted>
-6.7597

> <Gold.Chemscore.Internal_Hbond.Weighted>
0.0000

> <Gold.Chemscore.DEClash.Weighted>
0.0141

> <Gold.Chemscore.DEInternal.Weighted>
2.1190

> <Gold.Chemscore.Rot.Weighted>
4.2062

> <Gold.Chemscore.Internal.Correction.Weighted>
   9.000000E+99

> <Gold.Protein.RotatedTorsions>
[ 6907 6896 6895 6894 ] final   35.53 input  -60.11 | X-H torsion
[ 7974 7965 7964 7962 ] final  128.20 input  175.53 | X-H torsion
[ 8008 7997 7996 7995 ] final  176.80 input   59.86 | X-H torsion
[ 10167 10162 10161 10158 ] final   43.15 input  -65.29 | X-H torsion
[ 10718 10713 10712 10709 ] final  165.34 input   66.30 | X-H torsion
[ 10763 10752 10751 10750 ] final  -70.36 input  -60.55 | X-H torsion
[ 11005 11000 10999 10996 ] final   42.59 input  -57.11 | X-H torsion

> <Gold.Protein.ActiveResidues>
 VAL166  LYS551  ARG553  GLY616  TRP617  ASP618  TYR619  PRO620  LYS621  CYS622 
 ASP623  PHE694  ASN695  SER759  ASP760  ASP761  ALA762  ILE779  LEU786  VAL792 
 PHE793  MET794  SER795  GLU796  ALA797  LYS798  CYS799  TRP800  GLU811  SER814 

> <Gold.Protein.RotatedAtoms>
  152.1174  134.9230  160.0564 H   0  0  0  0  0  0  0  0  0  0  0  0  # atno 6907 bound_to 6896
  152.0384  133.3962  159.4335 H   0  0  0  0  0  0  0  0  0  0  0  0  # atno 6908 bound_to 6896
  150.6847  134.3363  159.4892 H   0  0  0  0  0  0  0  0  0  0  0  0  # atno 6909 bound_to 6896
  145.0421  139.3954  143.5096 H   0  0  0  0  0  0  0  0  0  0  0  0  # atno 7974 bound_to 7965
  156.0726  140.1374  156.9810 H   0  0  0  0  0  0  0  0  0  0  0  0  # atno 8008 bound_to 7997
  154.4540  140.0969  156.6753 H   0  0  0  0  0  0  0  0  0  0  0  0  # atno 8009 bound_to 7997
  155.5204  140.3456  155.4408 H   0  0  0  0  0  0  0  0  0  0  0  0  # atno 8010 bound_to 7997
  140.3472  144.2396  150.6149 H   0  0  0  0  0  0  0  0  0  0  0  0  # atno 10167 bound_to 10162
  157.0815  131.0393  151.2573 H   0  0  0  0  0  0  0  0  0  0  0  0  # atno 10718 bound_to 10713
  154.4166  135.5996  153.5984 H   0  0  0  0  0  0  0  0  0  0  0  0  # atno 10763 bound_to 10752
  152.9792  135.5942  154.4006 H   0  0  0  0  0  0  0  0  0  0  0  0  # atno 10764 bound_to 10752
  154.3825  135.2841  155.2181 H   0  0  0  0  0  0  0  0  0  0  0  0  # atno 10765 bound_to 10752
  140.1724  134.4205  155.8249 H   0  0  0  0  0  0  0  0  0  0  0  0  # atno 11005 bound_to 11000
  146.3510  140.0027  142.8674 LP  0  0  0  0  0  0  0  0  0  0  0  0  # atno 17320 bound_to 7965
  145.1634  140.9684  143.4364 LP  0  0  0  0  0  0  0  0  0  0  0  0  # atno 17321 bound_to 7965
  140.5253  143.2256  151.8324 LP  0  0  0  0  0  0  0  0  0  0  0  0  # atno 17342 bound_to 10162
  139.4831  144.4787  151.9334 LP  0  0  0  0  0  0  0  0  0  0  0  0  # atno 17343 bound_to 10162
  157.4796  130.7757  149.7401 LP  0  0  0  0  0  0  0  0  0  0  0  0  # atno 17370 bound_to 10713
  155.9922  130.3932  150.2951 LP  0  0  0  0  0  0  0  0  0  0  0  0  # atno 17371 bound_to 10713
  141.2218  133.6962  156.7787 LP  0  0  0  0  0  0  0  0  0  0  0  0  # atno 17394 bound_to 11000
  140.2362  134.8648  157.3527 LP  0  0  0  0  0  0  0  0  0  0  0  0  # atno 17395 bound_to 11000

$$$$
