AV-unprocessed.smi:1929|AV-procd|sdf|7805|dock2
  -GOLD-   22720 9543D 1   1.00000     0.00000
 Structure written by MMmdl.
 42 43  0  0  0  0  0  0  0  0  3 V2000
  155.1255  132.7799  160.1213 C   0  0  0  0  0  0  0  0  0  0  0  0
  154.2782  133.5074  159.1842 N   0  5  0  0  0  0  0  0  0  0  0  0
  154.6857  134.6141  158.5069 C   0  0  0  0  0  0  0  0  0  0  0  0
  154.3334  135.0647  157.4116 O   0  0  0  0  0  0  0  0  0  0  0  0
  155.7803  135.3612  159.2773 C   0  0  0  0  0  0  0  0  0  0  0  0
  155.2974  136.7068  159.6766 N   0  3  2  0  0  0  0  0  0  0  0  0
  156.3979  137.6757  159.9318 C   0  0  0  0  0  0  0  0  0  0  0  0
  155.8456  139.0834  160.2104 C   0  0  0  0  0  0  0  0  0  0  0  0
  154.8543  139.0705  161.3845 C   0  0  1  0  0  0  0  0  0  0  0  0
  154.2808  140.4011  161.5643 N   0  0  0  0  0  0  0  0  0  0  0  0
  153.7761  141.1628  160.5829 C   0  0  0  0  0  0  0  0  0  0  0  0
  153.7506  140.8161  159.4020 O   0  0  0  0  0  0  0  0  0  0  0  0
  153.3355  142.3404  161.0588 N   0  0  0  0  0  0  0  0  0  0  0  0
  152.7077  143.4032  160.3537 C   0  0  0  0  0  0  0  0  0  0  0  0
  152.7511  143.3732  158.9444 C   0  0  0  0  0  0  0  0  0  0  0  0
  152.1529  144.4264  158.2240 C   0  0  0  0  0  0  0  0  0  0  0  0
  151.5442  145.4767  158.8135 N   0  0  0  0  0  0  0  0  0  0  0  0
  151.5162  145.5113  160.1626 C   0  0  0  0  0  0  0  0  0  0  0  0
  152.0821  144.5099  160.9770 C   0  0  0  0  0  0  0  0  0  0  0  0
  153.7502  138.0325  161.1150 C   0  0  0  0  0  0  0  0  0  0  0  0
  154.3488  136.6481  160.8172 C   0  0  0  0  0  0  0  0  0  0  0  0
  154.6219  131.9017  160.5243 H   0  0  0  0  0  0  0  0  0  0  0  0
  155.4154  133.3896  160.9776 H   0  0  0  0  0  0  0  0  0  0  0  0
  156.0473  132.4237  159.6605 H   0  0  0  0  0  0  0  0  0  0  0  0
  156.0021  134.7670  160.1649 H   0  0  0  0  0  0  0  0  0  0  0  0
  156.7160  135.4383  158.7187 H   0  0  0  0  0  0  0  0  0  0  0  0
  156.9971  137.3328  160.7767 H   0  0  0  0  0  0  0  0  0  0  0  0
  157.0671  137.7256  159.0728 H   0  0  0  0  0  0  0  0  0  0  0  0
  156.6696  139.7653  160.4238 H   0  0  0  0  0  0  0  0  0  0  0  0
  155.3550  139.4619  159.3123 H   0  0  0  0  0  0  0  0  0  0  0  0
  155.3983  138.7868  162.2879 H   0  0  0  0  0  0  0  0  0  0  0  0
  154.2670  140.7675  162.5050 H   0  0  0  0  0  0  0  0  0  0  0  0
  153.5098  142.5177  162.0369 H   0  0  0  0  0  0  0  0  0  0  0  0
  153.2283  142.5582  158.4198 H   0  0  0  0  0  0  0  0  0  0  0  0
  152.1670  144.4262  157.1440 H   0  0  0  0  0  0  0  0  0  0  0  0
  151.0336  146.3681  160.6087 H   0  0  0  0  0  0  0  0  0  0  0  0
  152.0367  144.6182  162.0496 H   0  0  0  0  0  0  0  0  0  0  0  0
  153.0793  137.9636  161.9723 H   0  0  0  0  0  0  0  0  0  0  0  0
  153.1391  138.3510  160.2691 H   0  0  0  0  0  0  0  0  0  0  0  0
  153.5404  135.9521  160.5899 H   0  0  0  0  0  0  0  0  0  0  0  0
  154.8625  136.2615  161.6988 H   0  0  0  0  0  0  0  0  0  0  0  0
  154.7742  137.0560  158.8864 H   0  0  0  0  0  0  0  0  0  0  0  0
  1  2  1  0  0  0  0
  1 22  1  0  0  0  0
  1 23  1  0  0  0  0
  1 24  1  0  0  0  0
  2  3  1  0  0  0  0
  3  4  2  0  0  0  0
  3  5  1  0  0  0  0
  5  6  1  0  0  0  0
  5 25  1  0  0  0  0
  5 26  1  0  0  0  0
  6 21  1  0  0  0  0
  6  7  1  0  0  0  0
  6 42  1  0  0  0  0
  7  8  1  0  0  0  0
  7 27  1  0  0  0  0
  7 28  1  0  0  0  0
  8  9  1  0  0  0  0
  8 29  1  0  0  0  0
  8 30  1  0  0  0  0
  9 10  1  0  0  0  0
  9 20  1  0  0  0  0
  9 31  1  0  0  0  0
 10 11  1  0  0  0  0
 10 32  1  0  0  0  0
 11 12  2  0  0  0  0
 11 13  1  0  0  0  0
 13 14  1  0  0  0  0
 13 33  1  0  0  0  0
 14 19  1  0  0  0  0
 14 15  2  0  0  0  0
 15 16  1  0  0  0  0
 15 34  1  0  0  0  0
 16 17  2  0  0  0  0
 16 35  1  0  0  0  0
 17 18  1  0  0  0  0
 18 19  2  0  0  0  0
 18 36  1  0  0  0  0
 19 37  1  0  0  0  0
 20 21  1  0  0  0  0
 20 38  1  0  0  0  0
 20 39  1  0  0  0  0
 21 40  1  0  0  0  0
 21 41  1  0  0  0  0
M  CHG  1   2  -1
M  CHG  1   6   1
M  END
> <s_m_source_file>
AV-unprocessed.smi

> <i_m_source_file_index>
1929

> <i_lp_mmshare_version>
43012

> <i_f3d_flags>
0

> <s_epik_input>
W0NIM11bTkhdQyg9TylbQ0gyXU4xW0NIMl1bQ0gyXVtDSF0oW0NIMl1bQ0gyXTEpW05IXUMoPU8pW05IXWMyW2NIXVtjSF1uW2NIXVtjSF0y

> <s_epik_cmdline>
J2VwaWtfcHl0aG9uJywgJy1waCcsICc3LjAnLCAnLXRuJywgJzgnLCAnLW1hJywgJzIwMCcsICctbWV0YWxfYmluZGluZycsICctaW1hZScsICc8aW5maWxlLm1hZT4nLCAnLW9tYWUnLCAnPG91dGZpbGUubWFlPic=

> <r_epik_Ionization_Penalty>
6.23856

> <r_epik_Ionization_Penalty_Charging>
6.13946

> <r_epik_Ionization_Penalty_Neutral>
0.0990993

> <r_epik_State_Penalty>
7.04382

> <r_epik_Charging_Adjusted_Penalty>
13.1833

> <i_epik_Tot_Q>
0

> <i_epik_Tot_abs_Q>
2

> <r_epik_Metal_State_Penalty>
3.07449

> <b_epik_Metal_Only>
1

> <s_lp_Force_Field>
OPLS_2005

> <r_lp_Energy>
14.2578

> <b_lp_Chiralities_Consistent>
1

> <s_lp_Variant>
AV-unprocessed.smi:1929-7

> <Gold.Version>
5.8.1

> <Gold.Id.Protein>
6NUR|6NUR_protein|mol2

> <Gold.PLP.Fitness>
44.6982

> <Gold.PLP.PLP>
-36.5211

> <Gold.PLP.part.hbond>
-3.1938

> <Gold.PLP.part.metal>
0.0000

> <Gold.PLP.part.buried>
-4.8875

> <Gold.PLP.part.nonpolar>
-28.1531

> <Gold.PLP.part.repulsive>
0.1774

> <Gold.PLP.ligand.clash>
0.0000

> <Gold.PLP.ligand.torsion>
0.5358

> <Gold.PLP.Chemscore.Hbond>
3.0559

> <Gold.PLP.Chemscore.CHOScore>
0.0000

> <Gold.PLP.Chemscore.Metal>
0.0000

> <Gold.Chemscore.Hbonds>
donor molecule, donor type, donor heavy atom, donor atom, acceptor molecule, acceptor atom, score
      P1  H  6896  6907       L1     2  2.00
      P1  H 10752 10765       L1     4  0.96

> <Gold.PLP.Chemscore.Internal.Correction>
0.0811

> <Gold.Rescore>
     Score         DG    S(hbond)    S(metal)    S(lipo)     H(rot)  DE(clash)    DE(int)     intcor
     14.69     -18.05       1.84        0.00      90.54       1.63       0.04       3.32       ----

> <Gold.Chemscore.Fitness>
14.6903

> <Gold.Chemscore.DG>
-18.0492

> <Gold.Chemscore.ZeroCoef>
-5.4800

> <Gold.Chemscore.Hbond>
1.8426

> <Gold.Chemscore.Metal>
0.0000

> <Gold.Chemscore.Lipo>
90.5433

> <Gold.Chemscore.Internal_Hbond>
0.0000

> <Gold.Chemscore.DEClash>
0.0420

> <Gold.Chemscore.DEInternal>
3.3168

> <Gold.Chemscore.Rot>
1.6323

> <Gold.Chemscore.Internal.Correction>
   9.000000E+99

> <Gold.Chemscore.Hbonds>
donor molecule, donor type, donor heavy atom, donor atom, acceptor molecule, acceptor atom, score
      P1  H  6896  6907       L1     2  0.42
      P1  H 10752 10765       L1     4  0.91

> <Gold.Chemscore.Hbond.Weighted>
-6.1542

> <Gold.Chemscore.Metal.Weighted>
-0.0000

> <Gold.Chemscore.Lipo.Weighted>
-10.5936

> <Gold.Chemscore.Internal_Hbond.Weighted>
0.0000

> <Gold.Chemscore.DEClash.Weighted>
0.0420

> <Gold.Chemscore.DEInternal.Weighted>
3.3168

> <Gold.Chemscore.Rot.Weighted>
4.1786

> <Gold.Chemscore.Internal.Correction.Weighted>
   9.000000E+99

> <Gold.Protein.RotatedTorsions>
[ 6907 6896 6895 6894 ] final  105.00 input  -60.11 | X-H torsion
[ 7974 7965 7964 7962 ] final    8.93 input  175.53 | X-H torsion
[ 8008 7997 7996 7995 ] final -101.80 input   59.86 | X-H torsion
[ 10167 10162 10161 10158 ] final  114.25 input  -65.29 | X-H torsion
[ 10718 10713 10712 10709 ] final  162.34 input   66.30 | X-H torsion
[ 10763 10752 10751 10750 ] final  -95.22 input  -60.55 | X-H torsion
[ 11005 11000 10999 10996 ] final -129.72 input  -57.11 | X-H torsion

> <Gold.Protein.ActiveResidues>
 VAL166  LYS551  ARG553  GLY616  TRP617  ASP618  TYR619  PRO620  LYS621  CYS622 
 ASP623  PHE694  ASN695  SER759  ASP760  ASP761  ALA762  ILE779  LEU786  VAL792 
 PHE793  MET794  SER795  GLU796  ALA797  LYS798  CYS799  TRP800  GLU811  SER814 

> <Gold.Protein.RotatedAtoms>
  152.5245  133.9593  159.7709 H   0  0  0  0  0  0  0  0  0  0  0  0  # atno 6907 bound_to 6896
  150.9887  133.6163  159.2718 H   0  0  0  0  0  0  0  0  0  0  0  0  # atno 6908 bound_to 6896
  151.3314  135.0848  159.9393 H   0  0  0  0  0  0  0  0  0  0  0  0  # atno 6909 bound_to 6896
  146.2410  139.9859  142.8431 H   0  0  0  0  0  0  0  0  0  0  0  0  # atno 7974 bound_to 7965
  154.8477  140.0432  157.1583 H   0  0  0  0  0  0  0  0  0  0  0  0  # atno 8008 bound_to 7997
  154.8977  140.2995  155.5314 H   0  0  0  0  0  0  0  0  0  0  0  0  # atno 8009 bound_to 7997
  156.2995  140.2381  156.4001 H   0  0  0  0  0  0  0  0  0  0  0  0  # atno 8010 bound_to 7997
  139.6402  144.7123  151.2252 H   0  0  0  0  0  0  0  0  0  0  0  0  # atno 10167 bound_to 10162
  157.1239  131.0499  151.2402 H   0  0  0  0  0  0  0  0  0  0  0  0  # atno 10718 bound_to 10713
  154.7128  135.5128  153.8692 H   0  0  0  0  0  0  0  0  0  0  0  0  # atno 10763 bound_to 10752
  153.0795  135.6627  154.0084 H   0  0  0  0  0  0  0  0  0  0  0  0  # atno 10764 bound_to 10752
  153.9922  135.3018  155.3390 H   0  0  0  0  0  0  0  0  0  0  0  0  # atno 10765 bound_to 10752
  140.9407  134.1197  157.4153 H   0  0  0  0  0  0  0  0  0  0  0  0  # atno 11005 bound_to 11000
  145.1548  140.9642  143.4412 LP  0  0  0  0  0  0  0  0  0  0  0  0  # atno 17320 bound_to 7965
  145.0171  139.3457  143.6091 LP  0  0  0  0  0  0  0  0  0  0  0  0  # atno 17321 bound_to 7965
  140.7487  143.6324  150.8410 LP  0  0  0  0  0  0  0  0  0  0  0  0  # atno 17342 bound_to 10162
  139.9961  143.5794  152.2893 LP  0  0  0  0  0  0  0  0  0  0  0  0  # atno 17343 bound_to 10162
  157.4452  130.7567  149.7103 LP  0  0  0  0  0  0  0  0  0  0  0  0  # atno 17370 bound_to 10713
  155.9822  130.4011  150.3427 LP  0  0  0  0  0  0  0  0  0  0  0  0  # atno 17371 bound_to 10713
  139.8819  135.0035  156.6194 LP  0  0  0  0  0  0  0  0  0  0  0  0  # atno 17394 bound_to 11000
  140.7738  133.8716  155.8513 LP  0  0  0  0  0  0  0  0  0  0  0  0  # atno 17395 bound_to 11000

$$$$
