AV-unprocessed.smi:1748|AV-procd|sdf|7040|dock1
  -GOLD-   22720 8263D 1   1.00000     0.00000
 Structure written by MMmdl.
 39 40  0  0  0  0  0  0  0  0  3 V2000
  142.1923  134.5797  152.9724 C   0  0  0  0  0  0  0  0  0  0  0  0
  143.4495  133.8305  152.7608 N   0  3  1  0  0  0  0  0  0  0  0  0
  143.5697  133.3098  151.3760 C   0  0  0  0  0  0  0  0  0  0  0  0
  144.8221  132.4307  151.2242 C   0  0  0  0  0  0  0  0  0  0  0  0
  146.0869  133.1944  151.6408 C   0  0  0  0  0  0  0  0  0  0  0  0
  145.9259  133.7494  153.0656 C   0  0  1  0  0  0  0  0  0  0  0  0
  147.1047  134.5283  153.4332 N   0  0  0  0  0  0  0  0  0  0  0  0
  147.4233  134.9037  154.6806 C   0  0  0  0  0  0  0  0  0  0  0  0
  146.7329  134.6271  155.6614 O   0  0  0  0  0  0  0  0  0  0  0  0
  148.5596  135.6236  154.6914 N   0  0  0  0  0  0  0  0  0  0  0  0
  149.2514  136.1755  155.7831 C   0  0  0  0  0  0  0  0  0  0  0  0
  149.8001  137.4219  155.8031 C   0  0  0  0  0  0  0  0  0  0  0  0
  150.4909  137.9492  156.9738 C   0  0  0  0  0  0  0  0  0  0  0  0
  151.1215  139.3277  157.0482 C   0  0  0  0  0  0  0  0  0  0  0  0
  152.0268  139.4728  156.0810 F   0  0  0  0  0  0  0  0  0  0  0  0
  150.1918  140.2686  156.8865 F   0  0  0  0  0  0  0  0  0  0  0  0
  151.7228  139.5267  158.2211 F   0  0  0  0  0  0  0  0  0  0  0  0
  150.5025  137.0543  158.0250 C   0  0  0  0  0  0  0  0  0  0  0  0
  149.9774  135.8112  158.0900 N   0  5  0  0  0  0  0  0  0  0  0  0
  149.3374  135.3256  156.9888 C   0  0  0  0  0  0  0  0  0  0  0  0
  148.8347  134.2013  156.9789 O   0  0  0  0  0  0  0  0  0  0  0  0
  144.6465  134.6070  153.1693 C   0  0  0  0  0  0  0  0  0  0  0  0
  142.1584  135.4723  152.3463 H   0  0  0  0  0  0  0  0  0  0  0  0
  142.0979  134.8878  154.0141 H   0  0  0  0  0  0  0  0  0  0  0  0
  141.3288  133.9590  152.7306 H   0  0  0  0  0  0  0  0  0  0  0  0
  142.6832  132.7256  151.1262 H   0  0  0  0  0  0  0  0  0  0  0  0
  143.6084  134.1444  150.6737 H   0  0  0  0  0  0  0  0  0  0  0  0
  144.7164  131.5344  151.8371 H   0  0  0  0  0  0  0  0  0  0  0  0
  144.9157  132.0901  150.1927 H   0  0  0  0  0  0  0  0  0  0  0  0
  146.9542  132.5353  151.5856 H   0  0  0  0  0  0  0  0  0  0  0  0
  146.2685  134.0101  150.9392 H   0  0  0  0  0  0  0  0  0  0  0  0
  145.8400  132.9026  153.7500 H   0  0  0  0  0  0  0  0  0  0  0  0
  147.7259  134.7992  152.6847 H   0  0  0  0  0  0  0  0  0  0  0  0
  148.9677  135.8376  153.7931 H   0  0  0  0  0  0  0  0  0  0  0  0
  149.7181  138.0725  154.9481 H   0  0  0  0  0  0  0  0  0  0  0  0
  151.0098  137.3918  158.9543 H   0  0  0  0  0  0  0  0  0  0  0  0
  144.7330  135.4983  152.5450 H   0  0  0  0  0  0  0  0  0  0  0  0
  144.5134  134.9515  154.1957 H   0  0  0  0  0  0  0  0  0  0  0  0
  143.4089  133.0258  153.3700 H   0  0  0  0  0  0  0  0  0  0  0  0
  1  2  1  0  0  0  0
  1 23  1  0  0  0  0
  1 24  1  0  0  0  0
  1 25  1  0  0  0  0
  2 22  1  0  0  0  0
  2  3  1  0  0  0  0
  2 39  1  0  0  0  0
  3  4  1  0  0  0  0
  3 26  1  0  0  0  0
  3 27  1  0  0  0  0
  4  5  1  0  0  0  0
  4 28  1  0  0  0  0
  4 29  1  0  0  0  0
  5  6  1  0  0  0  0
  5 30  1  0  0  0  0
  5 31  1  0  0  0  0
  6  7  1  0  0  0  0
  6 22  1  0  0  0  0
  6 32  1  0  0  0  0
  7  8  1  0  0  0  0
  7 33  1  0  0  0  0
  8  9  2  0  0  0  0
  8 10  1  0  0  0  0
 10 11  1  0  0  0  0
 10 34  1  0  0  0  0
 11 20  1  0  0  0  0
 11 12  2  0  0  0  0
 12 13  1  0  0  0  0
 12 35  1  0  0  0  0
 13 14  1  0  0  0  0
 13 18  2  0  0  0  0
 14 15  1  0  0  0  0
 14 16  1  0  0  0  0
 14 17  1  0  0  0  0
 18 19  1  0  0  0  0
 18 36  1  0  0  0  0
 19 20  1  0  0  0  0
 20 21  2  0  0  0  0
 22 37  1  0  0  0  0
 22 38  1  0  0  0  0
M  CHG  1   2   1
M  CHG  1  19  -1
M  END
> <s_m_source_file>
AV-unprocessed.smi

> <i_m_source_file_index>
1748

> <i_lp_mmshare_version>
43012

> <i_f3d_flags>
0

> <s_epik_input>
W0NIM11OMVtDSDJdW0NIMl1bQ0gyXVtDQEhdKFtDSDJdMSlbTkhdQyg9TylbTkhdYzJbY0hdYyhDKEYpKEYpRilbY0hdW25IXWMyPU8=

> <s_epik_cmdline>
J2VwaWtfcHl0aG9uJywgJy1waCcsICc3LjAnLCAnLXRuJywgJzgnLCAnLW1hJywgJzIwMCcsICctbWV0YWxfYmluZGluZycsICctaW1hZScsICc8aW5maWxlLm1hZT4nLCAnLW9tYWUnLCAnPG91dGZpbGUubWFlPic=

> <r_lp_tautomer_probability>
1

> <r_epik_Ionization_Penalty>
3.00907

> <r_epik_Ionization_Penalty_Charging>
0.148702

> <r_epik_Ionization_Penalty_Neutral>
2.86036

> <r_epik_State_Penalty>
2.85557

> <r_epik_Charging_Adjusted_Penalty>
3.00428

> <i_epik_Tot_Q>
0

> <i_epik_Tot_abs_Q>
2

> <r_epik_Metal_State_Penalty>
0.443779

> <b_epik_Metal_Only>
1

> <s_lp_Force_Field>
OPLS_2005

> <r_lp_Energy>
26.5134

> <b_lp_Chiralities_Consistent>
1

> <s_lp_Variant>
AV-unprocessed.smi:1748-5

> <Gold.Version>
5.8.1

> <Gold.Id.Protein>
6NUR|6NUR_protein|mol2

> <Gold.PLP.Fitness>
41.8220

> <Gold.PLP.PLP>
-25.1023

> <Gold.PLP.part.hbond>
-4.0000

> <Gold.PLP.part.metal>
0.0000

> <Gold.PLP.part.buried>
-5.6352

> <Gold.PLP.part.nonpolar>
-17.0037

> <Gold.PLP.part.repulsive>
0.0144

> <Gold.PLP.ligand.clash>
0.0000

> <Gold.PLP.ligand.torsion>
0.5151

> <Gold.PLP.Chemscore.Hbond>
5.9120

> <Gold.PLP.Chemscore.CHOScore>
0.0000

> <Gold.PLP.Chemscore.Metal>
0.0000

> <Gold.Chemscore.Hbonds>
donor molecule, donor type, donor heavy atom, donor atom, acceptor molecule, acceptor atom, score
      L1  H     2    39       P1 10957  2.00
      L1  H     7    33       P1  7948  0.99
      L1  H    10    34       P1  7948  1.00
      P1  H  6896  6907       L1    19  1.89

> <Gold.PLP.Chemscore.Internal.Correction>
0.0140

> <Gold.Rescore>
     Score         DG    S(hbond)    S(metal)    S(lipo)     H(rot)  DE(clash)    DE(int)     intcor
     16.77     -20.09       3.53        0.00      45.81       1.00       0.00       3.31       ----

> <Gold.Chemscore.Fitness>
16.7743

> <Gold.Chemscore.DG>
-20.0857

> <Gold.Chemscore.ZeroCoef>
-5.4800

> <Gold.Chemscore.Hbond>
3.5347

> <Gold.Chemscore.Metal>
0.0000

> <Gold.Chemscore.Lipo>
45.8088

> <Gold.Chemscore.Internal_Hbond>
0.0000

> <Gold.Chemscore.DEClash>
0.0000

> <Gold.Chemscore.DEInternal>
3.3114

> <Gold.Chemscore.Rot>
1.0000

> <Gold.Chemscore.Internal.Correction>
   9.000000E+99

> <Gold.Chemscore.Hbonds>
donor molecule, donor type, donor heavy atom, donor atom, acceptor molecule, acceptor atom, score
      L1  H     2    39       P1 10957  0.76
      L1  H     7    33       P1  7948  0.82
      L1  H    10    34       P1  7948  0.92
      P1  H  6896  6907       L1    19  0.74

> <Gold.Chemscore.Hbond.Weighted>
-11.8060

> <Gold.Chemscore.Metal.Weighted>
-0.0000

> <Gold.Chemscore.Lipo.Weighted>
-5.3596

> <Gold.Chemscore.Internal_Hbond.Weighted>
0.0000

> <Gold.Chemscore.DEClash.Weighted>
0.0000

> <Gold.Chemscore.DEInternal.Weighted>
3.3114

> <Gold.Chemscore.Rot.Weighted>
2.5600

> <Gold.Chemscore.Internal.Correction.Weighted>
   9.000000E+99

> <Gold.Protein.RotatedTorsions>
[ 6907 6896 6895 6894 ] final  -62.25 input  -60.11 | X-H torsion
[ 7974 7965 7964 7962 ] final  120.47 input  175.53 | X-H torsion
[ 8008 7997 7996 7995 ] final -174.36 input   59.86 | X-H torsion
[ 10167 10162 10161 10158 ] final   77.42 input  -65.29 | X-H torsion
[ 10718 10713 10712 10709 ] final  131.18 input   66.30 | X-H torsion
[ 10763 10752 10751 10750 ] final -176.24 input  -60.55 | X-H torsion
[ 11005 11000 10999 10996 ] final -165.72 input  -57.11 | X-H torsion

> <Gold.Protein.ActiveResidues>
 VAL166  LYS551  ARG553  GLY616  TRP617  ASP618  TYR619  PRO620  LYS621  CYS622 
 ASP623  PHE694  ASN695  SER759  ASP760  ASP761  ALA762  ILE779  LEU786  VAL792 
 PHE793  MET794  SER795  GLU796  ALA797  LYS798  CYS799  TRP800  GLU811  SER814 

> <Gold.Protein.RotatedAtoms>
  150.7728  134.6595  159.6331 H   0  0  0  0  0  0  0  0  0  0  0  0  # atno 6907 bound_to 6896
  152.3787  134.6620  160.0159 H   0  0  0  0  0  0  0  0  0  0  0  0  # atno 6908 bound_to 6896
  151.6957  133.3274  159.3290 H   0  0  0  0  0  0  0  0  0  0  0  0  # atno 6909 bound_to 6896
  145.1307  139.3329  143.4666 H   0  0  0  0  0  0  0  0  0  0  0  0  # atno 7974 bound_to 7965
  155.9691  140.1159  157.0829 H   0  0  0  0  0  0  0  0  0  0  0  0  # atno 8008 bound_to 7997
  154.4151  140.1167  156.5349 H   0  0  0  0  0  0  0  0  0  0  0  0  # atno 8009 bound_to 7997
  155.6621  140.3473  155.4788 H   0  0  0  0  0  0  0  0  0  0  0  0  # atno 8010 bound_to 7997
  139.9817  144.5821  150.7895 H   0  0  0  0  0  0  0  0  0  0  0  0  # atno 10167 bound_to 10162
  157.4992  131.1093  150.9451 H   0  0  0  0  0  0  0  0  0  0  0  0  # atno 10718 bound_to 10713
  154.5747  135.2831  155.0792 H   0  0  0  0  0  0  0  0  0  0  0  0  # atno 10763 bound_to 10752
  154.2151  135.6401  153.5131 H   0  0  0  0  0  0  0  0  0  0  0  0  # atno 10764 bound_to 10752
  153.0069  135.5501  154.6382 H   0  0  0  0  0  0  0  0  0  0  0  0  # atno 10765 bound_to 10752
  140.5726  134.5223  157.5164 H   0  0  0  0  0  0  0  0  0  0  0  0  # atno 11005 bound_to 11000
  146.3514  140.1305  142.8597 LP  0  0  0  0  0  0  0  0  0  0  0  0  # atno 17320 bound_to 7965
  145.0638  140.9107  143.4923 LP  0  0  0  0  0  0  0  0  0  0  0  0  # atno 17321 bound_to 7965
  140.7486  143.2926  151.3290 LP  0  0  0  0  0  0  0  0  0  0  0  0  # atno 17342 bound_to 10162
  139.6405  144.0549  152.2550 LP  0  0  0  0  0  0  0  0  0  0  0  0  # atno 17343 bound_to 10162
  157.0127  130.5643  149.5322 LP  0  0  0  0  0  0  0  0  0  0  0  0  # atno 17370 bound_to 10713
  156.0219  130.5313  150.8298 LP  0  0  0  0  0  0  0  0  0  0  0  0  # atno 17371 bound_to 10713
  139.9355  134.7884  156.0815 LP  0  0  0  0  0  0  0  0  0  0  0  0  # atno 17394 bound_to 11000
  141.1047  133.6664  156.2835 LP  0  0  0  0  0  0  0  0  0  0  0  0  # atno 17395 bound_to 11000

$$$$
