AV-unprocessed.smi:1982|AV-procd|sdf|8025|dock5
  -GOLD-   2272010223D 1   1.00000     0.00000
 Structure written by MMmdl.
 36 37  0  0  0  0  0  0  0  0  1 V2000
  151.8954  145.1087  160.3525 C   0  0  0  0  0  0  0  0  0  0  0  0
  152.5651  143.7949  159.9089 C   0  0  1  0  0  0  0  0  0  0  0  0
  152.9706  142.9793  161.1528 C   0  0  0  0  0  0  0  0  0  0  0  0
  153.6807  141.6759  160.7726 C   0  0  0  0  0  0  0  0  0  0  0  0
  152.7924  140.8258  159.8595 C   0  0  0  0  0  0  0  0  0  0  0  0
  152.3732  141.6027  158.5986 C   0  0  1  0  0  0  0  0  0  0  0  0
  151.4884  140.7481  157.8058 N   0  0  0  0  0  0  0  0  0  0  0  0
  151.8678  139.7181  157.0329 C   0  0  0  0  0  0  0  0  0  0  0  0
  153.0422  139.3743  156.8905 O   0  0  0  0  0  0  0  0  0  0  0  0
  150.7320  138.9775  156.3163 C   0  0  0  0  0  0  0  0  0  0  0  0
  149.9200  139.8532  155.4890 N   0  0  0  0  0  0  0  0  0  0  0  0
  148.6415  140.2221  155.5932 C   0  0  0  0  0  0  0  0  0  0  0  0
  148.2901  141.0484  154.6196 N   0  0  0  0  0  0  0  0  0  0  0  0
  149.4546  141.1774  153.8812 N   0  0  0  0  0  0  0  0  0  0  0  0
  150.4248  140.4698  154.3917 N   0  0  0  0  0  0  0  0  0  0  0  0
  151.6809  142.9493  158.9479 C   0  0  2  0  0  0  0  0  0  0  0  0
  151.3094  143.7303  157.6683 C   0  0  0  0  0  0  0  0  0  0  0  0
  150.9242  144.9234  160.8124 H   0  0  0  0  0  0  0  0  0  0  0  0
  151.7495  145.7940  159.5183 H   0  0  0  0  0  0  0  0  0  0  0  0
  152.5118  145.6341  161.0826 H   0  0  0  0  0  0  0  0  0  0  0  0
  153.4812  144.0594  159.3783 H   0  0  0  0  0  0  0  0  0  0  0  0
  153.6271  143.5720  161.7907 H   0  0  0  0  0  0  0  0  0  0  0  0
  152.0865  142.7514  161.7501 H   0  0  0  0  0  0  0  0  0  0  0  0
  154.6221  141.9002  160.2694 H   0  0  0  0  0  0  0  0  0  0  0  0
  153.9343  141.1143  161.6722 H   0  0  0  0  0  0  0  0  0  0  0  0
  153.3248  139.9167  159.5775 H   0  0  0  0  0  0  0  0  0  0  0  0
  151.9073  140.5067  160.4121 H   0  0  0  0  0  0  0  0  0  0  0  0
  153.2808  141.8296  158.0360 H   0  0  0  0  0  0  0  0  0  0  0  0
  150.5014  140.9552  157.8575 H   0  0  0  0  0  0  0  0  0  0  0  0
  151.1505  138.1844  155.6946 H   0  0  0  0  0  0  0  0  0  0  0  0
  150.0838  138.5029  157.0541 H   0  0  0  0  0  0  0  0  0  0  0  0
  147.9757  139.8899  156.3759 H   0  0  0  0  0  0  0  0  0  0  0  0
  150.7515  142.7193  159.4716 H   0  0  0  0  0  0  0  0  0  0  0  0
  152.2008  144.0253  157.1143 H   0  0  0  0  0  0  0  0  0  0  0  0
  150.7399  144.6312  157.8916 H   0  0  0  0  0  0  0  0  0  0  0  0
  150.6865  143.1390  156.9975 H   0  0  0  0  0  0  0  0  0  0  0  0
  1  2  1  0  0  0  0
  1 18  1  0  0  0  0
  1 19  1  0  0  0  0
  1 20  1  0  0  0  0
  2 16  1  0  0  0  0
  2  3  1  0  0  0  0
  2 21  1  0  0  0  0
  3  4  1  0  0  0  0
  3 22  1  0  0  0  0
  3 23  1  0  0  0  0
  4  5  1  0  0  0  0
  4 24  1  0  0  0  0
  4 25  1  0  0  0  0
  5  6  1  0  0  0  0
  5 26  1  0  0  0  0
  5 27  1  0  0  0  0
  6  7  1  0  0  0  0
  6 16  1  0  0  0  0
  6 28  1  0  0  0  0
  7  8  1  0  0  0  0
  7 29  1  0  0  0  0
  8  9  2  0  0  0  0
  8 10  1  0  0  0  0
 10 11  1  0  0  0  0
 10 30  1  0  0  0  0
 10 31  1  0  0  0  0
 11 15  1  0  0  0  0
 11 12  1  0  0  0  0
 12 13  2  0  0  0  0
 12 32  1  0  0  0  0
 13 14  1  0  0  0  0
 14 15  2  0  0  0  0
 16 17  1  0  0  0  0
 16 33  1  0  0  0  0
 17 34  1  0  0  0  0
 17 35  1  0  0  0  0
 17 36  1  0  0  0  0
M  END
> <s_m_source_file>
AV-unprocessed.smi

> <i_m_source_file_index>
1982

> <i_lp_mmshare_version>
43012

> <i_f3d_flags>
0

> <s_epik_input>
W0NIM11bQ0BASF0xW0NIMl1bQ0gyXVtDSDJdW0NASF0oW0NASF0xW0NIM10pW05IXUMoPU8pW0NIMl1uMltjSF1ubm4y

> <s_epik_cmdline>
J2VwaWtfcHl0aG9uJywgJy1waCcsICc3LjAnLCAnLXRuJywgJzgnLCAnLW1hJywgJzIwMCcsICctbWV0YWxfYmluZGluZycsICctaW1hZScsICc8aW5maWxlLm1hZT4nLCAnLW9tYWUnLCAnPG91dGZpbGUubWFlPic=

> <r_lp_tautomer_probability>
1

> <r_epik_Ionization_Penalty>
5.03816e-07

> <r_epik_Ionization_Penalty_Charging>
0

> <r_epik_Ionization_Penalty_Neutral>
5.03816e-07

> <r_epik_State_Penalty>
-0

> <r_epik_Charging_Adjusted_Penalty>
0

> <i_epik_Tot_Q>
0

> <i_epik_Tot_abs_Q>
0

> <r_epik_Metal_State_Penalty>
-0

> <b_epik_Metal_Only>
0

> <s_lp_Force_Field>
OPLS_2005

> <r_lp_Energy>
14.7566

> <b_lp_Chiralities_Consistent>
1

> <s_lp_Variant>
AV-unprocessed.smi:1982-6

> <Gold.Version>
5.8.1

> <Gold.Id.Protein>
6NUR|6NUR_protein|mol2

> <Gold.PLP.Fitness>
41.4047

> <Gold.PLP.PLP>
-33.4706

> <Gold.PLP.part.hbond>
-3.8207

> <Gold.PLP.part.metal>
0.0000

> <Gold.PLP.part.buried>
-4.7076

> <Gold.PLP.part.nonpolar>
-26.1177

> <Gold.PLP.part.repulsive>
1.5620

> <Gold.PLP.ligand.clash>
0.0000

> <Gold.PLP.ligand.torsion>
0.2962

> <Gold.PLP.Chemscore.Hbond>
2.8400

> <Gold.PLP.Chemscore.CHOScore>
0.0000

> <Gold.PLP.Chemscore.Metal>
0.0000

> <Gold.Chemscore.Hbonds>
donor molecule, donor type, donor heavy atom, donor atom, acceptor molecule, acceptor atom, score
      P1  H  7989  7998       L1    15  0.98
      P1  H  7997  8008       L1     9  1.00
      P1  H  8011  8017       L1    14  0.86

> <Gold.PLP.Chemscore.Internal.Correction>
0.0064

> <Gold.Rescore>
     Score         DG    S(hbond)    S(metal)    S(lipo)     H(rot)  DE(clash)    DE(int)     intcor
     18.37     -18.73       2.26        0.00      90.51       1.91       0.04       0.32       ----

> <Gold.Chemscore.Fitness>
18.3702

> <Gold.Chemscore.DG>
-18.7320

> <Gold.Chemscore.ZeroCoef>
-5.4800

> <Gold.Chemscore.Hbond>
2.2578

> <Gold.Chemscore.Metal>
0.0000

> <Gold.Chemscore.Lipo>
90.5112

> <Gold.Chemscore.Internal_Hbond>
0.0000

> <Gold.Chemscore.DEClash>
0.0370

> <Gold.Chemscore.DEInternal>
0.3248

> <Gold.Chemscore.Rot>
1.9058

> <Gold.Chemscore.Internal.Correction>
   9.000000E+99

> <Gold.Chemscore.Hbonds>
donor molecule, donor type, donor heavy atom, donor atom, acceptor molecule, acceptor atom, score
      P1  H  7989  7998       L1    15  0.27
      P1  H  7997  8008       L1     9  0.96
      P1  H  8011  8017       L1    14  0.79

> <Gold.Chemscore.Hbond.Weighted>
-7.5410

> <Gold.Chemscore.Metal.Weighted>
-0.0000

> <Gold.Chemscore.Lipo.Weighted>
-10.5898

> <Gold.Chemscore.Internal_Hbond.Weighted>
0.0000

> <Gold.Chemscore.DEClash.Weighted>
0.0370

> <Gold.Chemscore.DEInternal.Weighted>
0.3248

> <Gold.Chemscore.Rot.Weighted>
4.8788

> <Gold.Chemscore.Internal.Correction.Weighted>
   9.000000E+99

> <Gold.Protein.RotatedTorsions>
[ 6907 6896 6895 6894 ] final -101.72 input  -60.11 | X-H torsion
[ 7974 7965 7964 7962 ] final -177.03 input  175.53 | X-H torsion
[ 8008 7997 7996 7995 ] final  -74.54 input   59.86 | X-H torsion
[ 10167 10162 10161 10158 ] final -174.79 input  -65.29 | X-H torsion
[ 10718 10713 10712 10709 ] final -114.55 input   66.30 | X-H torsion
[ 10763 10752 10751 10750 ] final  -34.39 input  -60.55 | X-H torsion
[ 11005 11000 10999 10996 ] final  -63.20 input  -57.11 | X-H torsion

> <Gold.Protein.ActiveResidues>
 VAL166  LYS551  ARG553  GLY616  TRP617  ASP618  TYR619  PRO620  LYS621  CYS622 
 ASP623  PHE694  ASN695  SER759  ASP760  ASP761  ALA762  ILE779  LEU786  VAL792 
 PHE793  MET794  SER795  GLU796  ALA797  LYS798  CYS799  TRP800  GLU811  SER814 

> <Gold.Protein.RotatedAtoms>
  150.7166  134.0691  159.3857 H   0  0  0  0  0  0  0  0  0  0  0  0  # atno 6907 bound_to 6896
  151.8673  135.0500  160.0485 H   0  0  0  0  0  0  0  0  0  0  0  0  # atno 6908 bound_to 6896
  152.2670  133.5313  159.5453 H   0  0  0  0  0  0  0  0  0  0  0  0  # atno 6909 bound_to 6896
  144.7127  140.1081  143.6412 H   0  0  0  0  0  0  0  0  0  0  0  0  # atno 7974 bound_to 7965
  154.5340  140.0759  156.8394 H   0  0  0  0  0  0  0  0  0  0  0  0  # atno 8008 bound_to 7997
  155.3317  140.3402  155.4221 H   0  0  0  0  0  0  0  0  0  0  0  0  # atno 8009 bound_to 7997
  156.1809  140.1652  156.8262 H   0  0  0  0  0  0  0  0  0  0  0  0  # atno 8010 bound_to 7997
  139.5615  144.1859  152.1246 H   0  0  0  0  0  0  0  0  0  0  0  0  # atno 10167 bound_to 10162
  156.0837  130.6033  150.8790 H   0  0  0  0  0  0  0  0  0  0  0  0  # atno 10718 bound_to 10713
  153.8459  135.6853  153.4797 H   0  0  0  0  0  0  0  0  0  0  0  0  # atno 10763 bound_to 10752
  153.1426  135.4651  154.9516 H   0  0  0  0  0  0  0  0  0  0  0  0  # atno 10764 bound_to 10752
  154.7824  135.3273  154.7908 H   0  0  0  0  0  0  0  0  0  0  0  0  # atno 10765 bound_to 10752
  141.1385  133.6649  156.5644 H   0  0  0  0  0  0  0  0  0  0  0  0  # atno 11005 bound_to 11000
  145.9479  139.2713  143.1230 LP  0  0  0  0  0  0  0  0  0  0  0  0  # atno 17320 bound_to 7965
  145.9355  140.9018  143.0334 LP  0  0  0  0  0  0  0  0  0  0  0  0  # atno 17321 bound_to 7965
  140.1373  144.5234  150.6765 LP  0  0  0  0  0  0  0  0  0  0  0  0  # atno 17342 bound_to 10162
  140.6895  143.2368  151.5170 LP  0  0  0  0  0  0  0  0  0  0  0  0  # atno 17343 bound_to 10162
  157.5964  131.0943  150.9033 LP  0  0  0  0  0  0  0  0  0  0  0  0  # atno 17370 bound_to 10713
  156.9199  130.5311  149.5279 LP  0  0  0  0  0  0  0  0  0  0  0  0  # atno 17371 bound_to 10713
  140.3962  134.7396  157.4752 LP  0  0  0  0  0  0  0  0  0  0  0  0  # atno 17394 bound_to 11000
  140.0529  134.6104  155.8840 LP  0  0  0  0  0  0  0  0  0  0  0  0  # atno 17395 bound_to 11000

$$$$
