AV-unprocessed.smi:344|AV-procd|sdf|2390|dock5
  -GOLD-   2262022323D 1   1.00000     0.00000
 Structure written by MMmdl.
 37 38  0  0  0  0  0  0  0  0  2 V2000
  147.8099  138.9370  151.7259 N   0  0  0  0  0  0  0  0  0  0  0  0
  147.4758  139.5067  152.8877 C   0  0  0  0  0  0  0  0  0  0  0  0
  147.0237  140.6482  152.9527 O   0  0  0  0  0  0  0  0  0  0  0  0
  147.6923  138.6844  154.1606 C   0  0  0  0  0  0  0  0  0  0  0  0
  149.0823  138.8848  154.6921 C   0  0  0  0  0  0  0  0  0  0  0  0
  150.2592  138.5447  154.0758 C   0  0  0  0  0  0  0  0  0  0  0  0
  151.6400  138.9656  155.0480 S   0  0  0  0  0  0  0  0  0  0  0  0
  150.5581  139.5908  156.2945 C   0  0  0  0  0  0  0  0  0  0  0  0
  150.9523  140.1449  157.4514 N   0  5  0  0  0  0  0  0  0  0  0  0
  152.2147  139.9387  157.8977 C   0  0  0  0  0  0  0  0  0  0  0  0
  153.1816  139.4676  157.2971 O   0  0  0  0  0  0  0  0  0  0  0  0
  152.3809  140.3694  159.3580 C   0  0  0  0  0  0  0  0  0  0  0  0
  153.1696  141.6861  159.4789 C   0  0  0  0  0  0  0  0  0  0  0  0
  152.2759  142.9369  159.4054 C   0  0  0  0  0  0  0  0  0  0  0  0
  152.8685  144.0580  158.5487 C   0  0  0  0  0  0  0  0  0  0  0  0
  152.1268  145.3261  158.9839 C   0  0  0  0  0  0  0  0  0  0  0  0
  151.6135  145.0566  160.4066 C   0  0  0  0  0  0  0  0  0  0  0  0
  152.0362  143.6243  160.7534 C   0  0  0  0  0  0  0  0  0  0  0  0
  149.2723  139.4727  155.9464 N   0  0  0  0  0  0  0  0  0  0  0  0
  147.6642  139.4355  150.8604 H   0  0  0  0  0  0  0  0  0  0  0  0
  148.1880  137.9999  151.7182 H   0  0  0  0  0  0  0  0  0  0  0  0
  146.9459  138.9729  154.9018 H   0  0  0  0  0  0  0  0  0  0  0  0
  147.5170  137.6302  153.9431 H   0  0  0  0  0  0  0  0  0  0  0  0
  150.3973  138.0801  153.1111 H   0  0  0  0  0  0  0  0  0  0  0  0
  151.3908  140.4912  159.7993 H   0  0  0  0  0  0  0  0  0  0  0  0
  152.8698  139.5766  159.9269 H   0  0  0  0  0  0  0  0  0  0  0  0
  153.7367  141.6960  160.4112 H   0  0  0  0  0  0  0  0  0  0  0  0
  153.9071  141.7328  158.6762 H   0  0  0  0  0  0  0  0  0  0  0  0
  151.3095  142.6616  158.9797 H   0  0  0  0  0  0  0  0  0  0  0  0
  153.9320  144.1680  158.7663 H   0  0  0  0  0  0  0  0  0  0  0  0
  152.7696  143.8638  157.4802 H   0  0  0  0  0  0  0  0  0  0  0  0
  152.7758  146.2014  158.9420 H   0  0  0  0  0  0  0  0  0  0  0  0
  151.2833  145.5132  158.3183 H   0  0  0  0  0  0  0  0  0  0  0  0
  152.0149  145.7715  161.1259 H   0  0  0  0  0  0  0  0  0  0  0  0
  150.5268  145.1458  160.4302 H   0  0  0  0  0  0  0  0  0  0  0  0
  151.2900  143.1092  161.3593 H   0  0  0  0  0  0  0  0  0  0  0  0
  152.9640  143.6491  161.3270 H   0  0  0  0  0  0  0  0  0  0  0  0
  1  2  1  0  0  0  0
  1 20  1  0  0  0  0
  1 21  1  0  0  0  0
  2  3  2  0  0  0  0
  2  4  1  0  0  0  0
  4  5  1  0  0  0  0
  4 22  1  0  0  0  0
  4 23  1  0  0  0  0
  5 19  1  0  0  0  0
  5  6  2  0  0  0  0
  6  7  1  0  0  0  0
  6 24  1  0  0  0  0
  7  8  1  0  0  0  0
  8  9  1  0  0  0  0
  8 19  2  0  0  0  0
  9 10  1  0  0  0  0
 10 11  2  0  0  0  0
 10 12  1  0  0  0  0
 12 13  1  0  0  0  0
 12 25  1  0  0  0  0
 12 26  1  0  0  0  0
 13 14  1  0  0  0  0
 13 27  1  0  0  0  0
 13 28  1  0  0  0  0
 14 18  1  0  0  0  0
 14 15  1  0  0  0  0
 14 29  1  0  0  0  0
 15 16  1  0  0  0  0
 15 30  1  0  0  0  0
 15 31  1  0  0  0  0
 16 17  1  0  0  0  0
 16 32  1  0  0  0  0
 16 33  1  0  0  0  0
 17 18  1  0  0  0  0
 17 34  1  0  0  0  0
 17 35  1  0  0  0  0
 18 36  1  0  0  0  0
 18 37  1  0  0  0  0
M  CHG  1   9  -1
M  END
> <s_m_source_file>
AV-unprocessed.smi

> <i_m_source_file_index>
344

> <i_lp_mmshare_version>
43012

> <i_f3d_flags>
0

> <s_epik_input>
W05IMl1DKD1PKVtDSDJdYzFbY0hdc2MobjEpW05IXUMoPU8pW0NIMl1bQ0gyXVtDSF0yW0NIMl1bQ0gyXVtDSDJdW0NIMl0y

> <s_epik_cmdline>
J2VwaWtfcHl0aG9uJywgJy1waCcsICc3LjAnLCAnLXRuJywgJzgnLCAnLW1hJywgJzIwMCcsICctbWV0YWxfYmluZGluZycsICctaW1hZScsICc8aW5maWxlLm1hZT4nLCAnLW9tYWUnLCAnPG91dGZpbGUubWFlPic=

> <r_lp_tautomer_probability>
1

> <r_epik_Ionization_Penalty>
5.48595

> <r_epik_Ionization_Penalty_Charging>
4.99802

> <r_epik_Ionization_Penalty_Neutral>
0.48793

> <r_epik_State_Penalty>
4.99789

> <r_epik_Charging_Adjusted_Penalty>
9.99592

> <i_epik_Tot_Q>
-1

> <i_epik_Tot_abs_Q>
1

> <r_epik_Metal_State_Penalty>
1.11866

> <b_epik_Metal_Only>
1

> <s_lp_Force_Field>
OPLS_2005

> <r_lp_Energy>
17.7805

> <b_lp_Chiralities_Consistent>
1

> <s_lp_Variant>
AV-unprocessed.smi:344-2

> <Gold.Version>
5.8.1

> <Gold.Id.Protein>
6NUR|6NUR_protein|mol2

> <Gold.PLP.Fitness>
47.7615

> <Gold.PLP.PLP>
-41.1990

> <Gold.PLP.part.hbond>
-2.9036

> <Gold.PLP.part.metal>
0.0000

> <Gold.PLP.part.buried>
-5.1668

> <Gold.PLP.part.nonpolar>
-34.0947

> <Gold.PLP.part.repulsive>
0.2867

> <Gold.PLP.ligand.clash>
0.0000

> <Gold.PLP.ligand.torsion>
1.4451

> <Gold.PLP.Chemscore.Hbond>
2.0000

> <Gold.PLP.Chemscore.CHOScore>
1.0792

> <Gold.PLP.Chemscore.Metal>
0.0000

> <Gold.Chemscore.Hbonds>
donor molecule, donor type, donor heavy atom, donor atom, acceptor molecule, acceptor atom, score
      L1  H     1    21       P1  7948  1.00
      P1  H  7997  8009       L1    11  0.91
      L1  C     6    24       P1  7948  0.65
      L1  C     6    24       P1  7949  0.20
      L1  C     6    24       P1  7957  0.10

> <Gold.PLP.Chemscore.Internal.Correction>
0.2150

> <Gold.Rescore>
     Score         DG    S(hbond)    S(metal)    S(lipo)     H(rot)  DE(clash)    DE(int)     intcor
     15.25     -18.10       2.00        0.00     102.96       2.39       0.01       2.84       ----

> <Gold.Chemscore.Fitness>
15.2505

> <Gold.Chemscore.DG>
-18.0965

> <Gold.Chemscore.ZeroCoef>
-5.4800

> <Gold.Chemscore.Hbond>
2.0030

> <Gold.Chemscore.Metal>
0.0000

> <Gold.Chemscore.Lipo>
102.9624

> <Gold.Chemscore.Internal_Hbond>
0.0000

> <Gold.Chemscore.DEClash>
0.0073

> <Gold.Chemscore.DEInternal>
2.8387

> <Gold.Chemscore.Rot>
2.3907

> <Gold.Chemscore.Internal.Correction>
   9.000000E+99

> <Gold.Chemscore.Hbonds>
donor molecule, donor type, donor heavy atom, donor atom, acceptor molecule, acceptor atom, score
      L1  H     1    21       P1  7948  1.00
      P1  H  7997  8009       L1    11  0.87

> <Gold.Chemscore.Hbond.Weighted>
-6.6900

> <Gold.Chemscore.Metal.Weighted>
-0.0000

> <Gold.Chemscore.Lipo.Weighted>
-12.0466

> <Gold.Chemscore.Internal_Hbond.Weighted>
0.0000

> <Gold.Chemscore.DEClash.Weighted>
0.0073

> <Gold.Chemscore.DEInternal.Weighted>
2.8387

> <Gold.Chemscore.Rot.Weighted>
6.1201

> <Gold.Chemscore.Internal.Correction.Weighted>
   9.000000E+99

> <Gold.Protein.RotatedTorsions>
[ 6907 6896 6895 6894 ] final -159.72 input  -60.11 | X-H torsion
[ 7974 7965 7964 7962 ] final  -48.70 input  175.53 | X-H torsion
[ 8008 7997 7996 7995 ] final -178.82 input   59.86 | X-H torsion
[ 10167 10162 10161 10158 ] final  -32.66 input  -65.29 | X-H torsion
[ 10718 10713 10712 10709 ] final  -41.46 input   66.30 | X-H torsion
[ 10763 10752 10751 10750 ] final -102.82 input  -60.55 | X-H torsion
[ 11005 11000 10999 10996 ] final   72.55 input  -57.11 | X-H torsion

> <Gold.Protein.ActiveResidues>
 VAL166  LYS551  ARG553  GLY616  TRP617  ASP618  TYR619  PRO620  LYS621  CYS622 
 ASP623  PHE694  ASN695  SER759  ASP760  ASP761  ALA762  ILE779  LEU786  VAL792 
 PHE793  MET794  SER795  GLU796  ALA797  LYS798  CYS799  TRP800  GLU811  SER814 

> <Gold.Protein.RotatedAtoms>
  151.3379  133.3974  159.2668 H   0  0  0  0  0  0  0  0  0  0  0  0  # atno 6907 bound_to 6896
  150.9902  134.9239  159.7905 H   0  0  0  0  0  0  0  0  0  0  0  0  # atno 6908 bound_to 6896
  152.5245  134.3344  159.9247 H   0  0  0  0  0  0  0  0  0  0  0  0  # atno 6909 bound_to 6896
  145.9483  140.7596  142.9517 H   0  0  0  0  0  0  0  0  0  0  0  0  # atno 7974 bound_to 7965
  156.0234  140.1266  157.0334 H   0  0  0  0  0  0  0  0  0  0  0  0  # atno 8008 bound_to 7997
  154.4320  140.1064  156.6066 H   0  0  0  0  0  0  0  0  0  0  0  0  # atno 8009 bound_to 7997
  155.5912  140.3469  155.4569 H   0  0  0  0  0  0  0  0  0  0  0  0  # atno 8010 bound_to 7997
  140.7217  143.3678  151.1837 H   0  0  0  0  0  0  0  0  0  0  0  0  # atno 10167 bound_to 10162
  156.2701  130.4206  149.8447 H   0  0  0  0  0  0  0  0  0  0  0  0  # atno 10718 bound_to 10713
  154.7762  135.4846  153.9749 H   0  0  0  0  0  0  0  0  0  0  0  0  # atno 10763 bound_to 10752
  153.1432  135.6777  153.9002 H   0  0  0  0  0  0  0  0  0  0  0  0  # atno 10764 bound_to 10752
  153.8670  135.3148  155.3419 H   0  0  0  0  0  0  0  0  0  0  0  0  # atno 10765 bound_to 10752
  139.9485  134.7269  156.0920 H   0  0  0  0  0  0  0  0  0  0  0  0  # atno 11005 bound_to 11000
  144.6791  140.2393  143.7345 LP  0  0  0  0  0  0  0  0  0  0  0  0  # atno 17320 bound_to 7965
  145.8205  139.2042  143.1940 LP  0  0  0  0  0  0  0  0  0  0  0  0  # atno 17321 bound_to 7965
  139.7243  143.9174  152.2997 LP  0  0  0  0  0  0  0  0  0  0  0  0  # atno 17342 bound_to 10162
  139.8941  144.6949  150.8737 LP  0  0  0  0  0  0  0  0  0  0  0  0  # atno 17343 bound_to 10162
  156.5932  130.8515  151.3413 LP  0  0  0  0  0  0  0  0  0  0  0  0  # atno 17370 bound_to 10713
  157.7281  130.9652  150.1727 LP  0  0  0  0  0  0  0  0  0  0  0  0  # atno 17371 bound_to 10713
  141.1142  133.6633  156.3053 LP  0  0  0  0  0  0  0  0  0  0  0  0  # atno 17394 bound_to 11000
  140.5776  134.5778  157.5472 LP  0  0  0  0  0  0  0  0  0  0  0  0  # atno 17395 bound_to 11000

$$$$
