AV-unprocessed.smi:1883|AV-procd|sdf|7642|dock1
  -GOLD-   22720 9373D 1   1.00000     0.00000
 Structure written by MMmdl.
 35 37  0  0  0  0  0  0  0  0  1 V2000
  152.7705  138.1975  156.8431 C   0  0  0  0  0  0  0  0  0  0  0  0
  152.7451  139.3348  157.8143 C   0  0  0  0  0  0  0  0  0  0  0  0
  153.7520  139.5729  158.6556 N   0  0  0  0  0  0  0  0  0  0  0  0
  153.3124  140.6856  159.3468 C   0  0  0  0  0  0  0  0  0  0  0  0
  153.9273  141.4274  160.3807 C   0  0  0  0  0  0  0  0  0  0  0  0
  153.2744  142.5436  160.9439 C   0  0  0  0  0  0  0  0  0  0  0  0
  152.0004  142.9340  160.4821 C   0  0  0  0  0  0  0  0  0  0  0  0
  151.3709  142.2100  159.4512 C   0  0  0  0  0  0  0  0  0  0  0  0
  152.0269  141.0964  158.8933 C   0  0  0  0  0  0  0  0  0  0  0  0
  151.6947  140.1887  157.8929 N   0  0  0  0  0  0  0  0  0  0  0  0
  150.4659  140.1876  157.1107 C   0  0  0  0  0  0  0  0  0  0  0  0
  150.5136  141.1774  155.9301 C   0  0  2  0  0  0  0  0  0  0  0  0
  150.5214  142.5069  156.4154 O   0  0  0  0  0  0  0  0  0  0  0  0
  149.3748  140.9207  154.9524 C   0  0  0  0  0  0  0  0  0  0  0  0
  148.3070  141.8399  154.8412 C   0  0  0  0  0  0  0  0  0  0  0  0
  147.2490  141.5981  153.9439 C   0  0  0  0  0  0  0  0  0  0  0  0
  146.2308  142.4849  153.8432 F   0  0  0  0  0  0  0  0  0  0  0  0
  147.2488  140.4336  153.1532 C   0  0  0  0  0  0  0  0  0  0  0  0
  148.3046  139.5091  153.2642 C   0  0  0  0  0  0  0  0  0  0  0  0
  149.3635  139.7485  154.1623 C   0  0  0  0  0  0  0  0  0  0  0  0
  150.3658  138.8426  154.2638 F   0  0  0  0  0  0  0  0  0  0  0  0
  153.6587  137.5838  156.9960 H   0  0  0  0  0  0  0  0  0  0  0  0
  152.7855  138.5761  155.8210 H   0  0  0  0  0  0  0  0  0  0  0  0
  151.8924  137.5652  156.9735 H   0  0  0  0  0  0  0  0  0  0  0  0
  154.9027  141.1365  160.7412 H   0  0  0  0  0  0  0  0  0  0  0  0
  153.7532  143.1027  161.7343 H   0  0  0  0  0  0  0  0  0  0  0  0
  151.5073  143.7899  160.9193 H   0  0  0  0  0  0  0  0  0  0  0  0
  150.3954  142.5057  159.0946 H   0  0  0  0  0  0  0  0  0  0  0  0
  150.3112  139.1745  156.7374 H   0  0  0  0  0  0  0  0  0  0  0  0
  149.6163  140.4031  157.7591 H   0  0  0  0  0  0  0  0  0  0  0  0
  151.4577  141.0466  155.4004 H   0  0  0  0  0  0  0  0  0  0  0  0
  149.8144  142.9805  156.0045 H   0  0  0  0  0  0  0  0  0  0  0  0
  148.2928  142.7342  155.4472 H   0  0  0  0  0  0  0  0  0  0  0  0
  146.4376  140.2481  152.4647 H   0  0  0  0  0  0  0  0  0  0  0  0
  148.3012  138.6131  152.6611 H   0  0  0  0  0  0  0  0  0  0  0  0
  1  2  1  0  0  0  0
  1 22  1  0  0  0  0
  1 23  1  0  0  0  0
  1 24  1  0  0  0  0
  2 10  1  0  0  0  0
  2  3  2  0  0  0  0
  3  4  1  0  0  0  0
  4  9  2  0  0  0  0
  4  5  1  0  0  0  0
  5  6  2  0  0  0  0
  5 25  1  0  0  0  0
  6  7  1  0  0  0  0
  6 26  1  0  0  0  0
  7  8  2  0  0  0  0
  7 27  1  0  0  0  0
  8  9  1  0  0  0  0
  8 28  1  0  0  0  0
  9 10  1  0  0  0  0
 10 11  1  0  0  0  0
 11 12  1  0  0  0  0
 11 29  1  0  0  0  0
 11 30  1  0  0  0  0
 12 13  1  0  0  0  0
 12 14  1  0  0  0  0
 12 31  1  0  0  0  0
 13 32  1  0  0  0  0
 14 20  1  0  0  0  0
 14 15  2  0  0  0  0
 15 16  1  0  0  0  0
 15 33  1  0  0  0  0
 16 17  1  0  0  0  0
 16 18  2  0  0  0  0
 18 19  1  0  0  0  0
 18 34  1  0  0  0  0
 19 20  2  0  0  0  0
 19 35  1  0  0  0  0
 20 21  1  0  0  0  0
M  END
> <s_m_source_file>
AV-unprocessed.smi

> <i_m_source_file_index>
1883

> <i_lp_mmshare_version>
43012

> <i_f3d_flags>
0

> <s_epik_input>
W2NIXTFbY0hdW2NIXVtjSF1jKGMxMiluKGMobjIpW0NIM10pW0NIMl1bQ0BIXShbT0hdKWMzW2NIXWMoRilbY0hdW2NIXWMzRg==

> <s_epik_cmdline>
J2VwaWtfcHl0aG9uJywgJy1waCcsICc3LjAnLCAnLXRuJywgJzgnLCAnLW1hJywgJzIwMCcsICctbWV0YWxfYmluZGluZycsICctaW1hZScsICc8aW5maWxlLm1hZT4nLCAnLW9tYWUnLCAnPG91dGZpbGUubWFlPic=

> <r_epik_Ionization_Penalty>
0.129664

> <r_epik_Ionization_Penalty_Charging>
0

> <r_epik_Ionization_Penalty_Neutral>
0.129664

> <r_epik_State_Penalty>
0.119073

> <r_epik_Charging_Adjusted_Penalty>
0.119073

> <i_epik_Tot_Q>
0

> <i_epik_Tot_abs_Q>
0

> <r_epik_Metal_State_Penalty>
0.000131867

> <b_epik_Metal_Only>
0

> <s_lp_Force_Field>
OPLS_2005

> <r_lp_Energy>
11.5832

> <b_lp_Chiralities_Consistent>
1

> <s_lp_Variant>
AV-unprocessed.smi:1883-1

> <Gold.Version>
5.8.1

> <Gold.Id.Protein>
6NUR|6NUR_protein|mol2

> <Gold.PLP.Fitness>
49.5340

> <Gold.PLP.PLP>
-44.7479

> <Gold.PLP.part.hbond>
-2.0000

> <Gold.PLP.part.metal>
0.0000

> <Gold.PLP.part.buried>
0.3643

> <Gold.PLP.part.nonpolar>
-42.4678

> <Gold.PLP.part.repulsive>
0.0000

> <Gold.PLP.ligand.clash>
0.0000

> <Gold.PLP.ligand.torsion>
0.6265

> <Gold.PLP.Chemscore.Hbond>
2.0000

> <Gold.PLP.Chemscore.CHOScore>
0.0000

> <Gold.PLP.Chemscore.Metal>
0.0000

> <Gold.Chemscore.Hbonds>
donor molecule, donor type, donor heavy atom, donor atom, acceptor molecule, acceptor atom, score
      L1  H    13    32       P1  8028  0.98
      P1  H  7997  8009       L1     3  0.80

> <Gold.PLP.Chemscore.Internal.Correction>
0.0392

> <Gold.Rescore>
     Score         DG    S(hbond)    S(metal)    S(lipo)     H(rot)  DE(clash)    DE(int)     intcor
     17.15     -18.19       1.25        0.00     114.25       1.88       0.25       0.79       ----

> <Gold.Chemscore.Fitness>
17.1492

> <Gold.Chemscore.DG>
-18.1889

> <Gold.Chemscore.ZeroCoef>
-5.4800

> <Gold.Chemscore.Hbond>
1.2468

> <Gold.Chemscore.Metal>
0.0000

> <Gold.Chemscore.Lipo>
114.2499

> <Gold.Chemscore.Internal_Hbond>
0.0000

> <Gold.Chemscore.DEClash>
0.2520

> <Gold.Chemscore.DEInternal>
0.7877

> <Gold.Chemscore.Rot>
1.8839

> <Gold.Chemscore.Internal.Correction>
   9.000000E+99

> <Gold.Chemscore.Hbonds>
donor molecule, donor type, donor heavy atom, donor atom, acceptor molecule, acceptor atom, score
      L1  H    13    32       P1  8028  0.90
      P1  H  7997  8009       L1     3  0.09

> <Gold.Chemscore.Hbond.Weighted>
-4.1644

> <Gold.Chemscore.Metal.Weighted>
-0.0000

> <Gold.Chemscore.Lipo.Weighted>
-13.3672

> <Gold.Chemscore.Internal_Hbond.Weighted>
0.0000

> <Gold.Chemscore.DEClash.Weighted>
0.2520

> <Gold.Chemscore.DEInternal.Weighted>
0.7877

> <Gold.Chemscore.Rot.Weighted>
4.8227

> <Gold.Chemscore.Internal.Correction.Weighted>
   9.000000E+99

> <Gold.Protein.RotatedTorsions>
[ 6907 6896 6895 6894 ] final -172.09 input  -60.11 | X-H torsion
[ 7974 7965 7964 7962 ] final -103.38 input  175.53 | X-H torsion
[ 8008 7997 7996 7995 ] final  124.15 input   59.86 | X-H torsion
[ 10167 10162 10161 10158 ] final  162.91 input  -65.29 | X-H torsion
[ 10718 10713 10712 10709 ] final  -39.37 input   66.30 | X-H torsion
[ 10763 10752 10751 10750 ] final   -6.36 input  -60.55 | X-H torsion
[ 11005 11000 10999 10996 ] final  -60.10 input  -57.11 | X-H torsion

> <Gold.Protein.ActiveResidues>
 VAL166  LYS551  ARG553  GLY616  TRP617  ASP618  TYR619  PRO620  LYS621  CYS622 
 ASP623  PHE694  ASN695  SER759  ASP760  ASP761  ALA762  ILE779  LEU786  VAL792 
 PHE793  MET794  SER795  GLU796  ALA797  LYS798  CYS799  TRP800  GLU811  SER814 

> <Gold.Protein.RotatedAtoms>
  151.5344  133.3443  159.2923 H   0  0  0  0  0  0  0  0  0  0  0  0  # atno 6907 bound_to 6896
  150.8574  134.7919  159.7067 H   0  0  0  0  0  0  0  0  0  0  0  0  # atno 6908 bound_to 6896
  152.4603  134.5207  159.9833 H   0  0  0  0  0  0  0  0  0  0  0  0  # atno 6909 bound_to 6896
  145.2566  140.9255  143.3065 H   0  0  0  0  0  0  0  0  0  0  0  0  # atno 7974 bound_to 7965
  156.2791  140.2746  156.1742 H   0  0  0  0  0  0  0  0  0  0  0  0  # atno 8008 bound_to 7997
  155.0623  140.0386  157.2598 H   0  0  0  0  0  0  0  0  0  0  0  0  # atno 8009 bound_to 7997
  154.7107  140.2668  155.6637 H   0  0  0  0  0  0  0  0  0  0  0  0  # atno 8010 bound_to 7997
  139.4866  144.4390  151.8975 H   0  0  0  0  0  0  0  0  0  0  0  0  # atno 10167 bound_to 10162
  156.2932  130.4231  149.8217 H   0  0  0  0  0  0  0  0  0  0  0  0  # atno 10718 bound_to 10713
  153.4112  135.7007  153.6358 H   0  0  0  0  0  0  0  0  0  0  0  0  # atno 10763 bound_to 10752
  153.4851  135.3685  155.2463 H   0  0  0  0  0  0  0  0  0  0  0  0  # atno 10764 bound_to 10752
  154.8717  135.4075  154.3465 H   0  0  0  0  0  0  0  0  0  0  0  0  # atno 10765 bound_to 10752
  141.1274  133.6620  156.5173 H   0  0  0  0  0  0  0  0  0  0  0  0  # atno 11005 bound_to 11000
  144.9455  139.4140  143.6428 LP  0  0  0  0  0  0  0  0  0  0  0  0  # atno 17320 bound_to 7965
  146.3287  139.8437  142.8886 LP  0  0  0  0  0  0  0  0  0  0  0  0  # atno 17321 bound_to 7965
  140.3841  144.2699  150.5905 LP  0  0  0  0  0  0  0  0  0  0  0  0  # atno 17342 bound_to 10162
  140.5206  143.2267  151.8394 LP  0  0  0  0  0  0  0  0  0  0  0  0  # atno 17343 bound_to 10162
  156.5622  130.8388  151.3332 LP  0  0  0  0  0  0  0  0  0  0  0  0  # atno 17370 bound_to 10713
  157.7348  130.9752  150.2049 LP  0  0  0  0  0  0  0  0  0  0  0  0  # atno 17371 bound_to 10713
  140.4321  134.7092  157.4947 LP  0  0  0  0  0  0  0  0  0  0  0  0  # atno 17394 bound_to 11000
  140.0287  134.6439  155.9137 LP  0  0  0  0  0  0  0  0  0  0  0  0  # atno 17395 bound_to 11000

$$$$
