AV-unprocessed.smi:72|AV-procd|sdf|753|dock1
  -GOLD-   2262017 93D 1   1.00000     0.00000
 Structure written by MMmdl.
 29 30  0  0  0  0  0  0  0  0  1 V2000
  153.1458  139.4380  159.2728 N   0  0  0  0  0  0  0  0  0  0  0  0
  152.3426  139.7513  158.1962 C   0  0  0  0  0  0  0  0  0  0  0  0
  151.1522  140.4327  158.4844 N   0  0  0  0  0  0  0  0  0  0  0  0
  150.3958  140.7322  157.4762 C   0  0  0  0  0  0  0  0  0  0  0  0
  150.7701  140.3732  156.1185 N   0  0  0  0  0  0  0  0  0  0  0  0
  149.9062  140.7133  154.9156 C   0  0  2  0  0  0  0  0  0  0  0  0
  148.9587  141.6821  155.2630 O   0  0  0  0  0  0  0  0  0  0  0  0
  147.6588  141.1017  155.3184 C   0  0  1  0  0  0  0  0  0  0  0  0
  146.5635  142.1686  155.1473 C   0  0  0  0  0  0  0  0  0  0  0  0
  147.0098  143.1868  154.2772 O   0  0  0  0  0  0  0  0  0  0  0  0
  147.7158  140.0292  154.2235 C   0  0  1  0  0  0  0  0  0  0  0  0
  147.5087  140.5947  152.9415 O   0  0  0  0  0  0  0  0  0  0  0  0
  149.1368  139.4953  154.3466 C   0  0  2  0  0  0  0  0  0  0  0  0
  149.1460  138.3608  155.1961 O   0  0  0  0  0  0  0  0  0  0  0  0
  151.9912  139.6776  155.9009 C   0  0  0  0  0  0  0  0  0  0  0  0
  152.3210  139.3526  154.7602 O   0  0  0  0  0  0  0  0  0  0  0  0
  152.7726  139.3816  157.0240 N   0  0  0  0  0  0  0  0  0  0  0  0
  150.5828  141.1695  154.1910 H   0  0  0  0  0  0  0  0  0  0  0  0
  147.5357  140.5934  156.2764 H   0  0  0  0  0  0  0  0  0  0  0  0
  146.9613  139.2557  154.3741 H   0  0  0  0  0  0  0  0  0  0  0  0
  149.5608  139.2072  153.3836 H   0  0  0  0  0  0  0  0  0  0  0  0
  154.0248  138.9491  159.1847 H   0  0  0  0  0  0  0  0  0  0  0  0
  152.9142  139.6719  160.2273 H   0  0  0  0  0  0  0  0  0  0  0  0
  149.4499  141.2622  157.5860 H   0  0  0  0  0  0  0  0  0  0  0  0
  145.6367  141.7322  154.7736 H   0  0  0  0  0  0  0  0  0  0  0  0
  146.3414  142.6357  156.1072 H   0  0  0  0  0  0  0  0  0  0  0  0
  147.6418  143.7192  154.7356 H   0  0  0  0  0  0  0  0  0  0  0  0
  148.3354  140.6117  152.4841 H   0  0  0  0  0  0  0  0  0  0  0  0
  148.6904  138.5818  155.9941 H   0  0  0  0  0  0  0  0  0  0  0  0
  1  2  1  0  0  0  0
  1 22  1  0  0  0  0
  1 23  1  0  0  0  0
  2 17  2  0  0  0  0
  2  3  1  0  0  0  0
  3  4  2  0  0  0  0
  4  5  1  0  0  0  0
  4 24  1  0  0  0  0
  5  6  1  0  0  0  0
  5 15  1  0  0  0  0
  6 18  1  0  0  0  0
  6 13  1  0  0  0  0
  6  7  1  0  0  0  0
  7  8  1  0  0  0  0
  8 19  1  0  0  0  0
  8  9  1  0  0  0  0
  8 11  1  0  0  0  0
  9 10  1  0  0  0  0
  9 25  1  0  0  0  0
  9 26  1  0  0  0  0
 10 27  1  0  0  0  0
 11 20  1  0  0  0  0
 11 12  1  0  0  0  0
 11 13  1  0  0  0  0
 12 28  1  0  0  0  0
 13 21  1  0  0  0  0
 13 14  1  0  0  0  0
 14 29  1  0  0  0  0
 15 16  2  0  0  0  0
 15 17  1  0  0  0  0
M  END
> <s_m_source_file>
AV-unprocessed.smi

> <i_m_source_file_index>
72

> <i_lp_mmshare_version>
43012

> <i_f3d_flags>
0

> <s_epik_input>
W05IMl1jMW5bY0hdbihjKD1PKW4xKVtDQEBIXTJPW0NASF0oW0NIMl1bT0hdKVtDQEBIXShbT0hdKVtDQEhdMltPSF0=

> <s_epik_cmdline>
J2VwaWtfcHl0aG9uJywgJy1waCcsICc3LjAnLCAnLXRuJywgJzgnLCAnLW1hJywgJzIwMCcsICctbWV0YWxfYmluZGluZycsICctaW1hZScsICc8aW5maWxlLm1hZT4nLCAnLW9tYWUnLCAnPG91dGZpbGUubWFlPic=

> <r_lp_tautomer_probability>
4.77166e-05

> <r_epik_Ionization_Penalty>
1.3546

> <r_epik_Ionization_Penalty_Charging>
1.46833e-10

> <r_epik_Ionization_Penalty_Neutral>
1.3546

> <r_epik_State_Penalty>
3.51908

> <r_epik_Charging_Adjusted_Penalty>
3.51908

> <i_epik_Tot_Q>
0

> <i_epik_Tot_abs_Q>
0

> <r_epik_Metal_State_Penalty>
3.44088

> <b_epik_Metal_Only>
1

> <s_epik_Chemistry_Notes>
This compound contains an acetal/aminal-like group ( X-CH(R)-Y where X, Y are N, S, or O) that may be acid/base labile, releasing an aldehyde.

> <s_lp_Force_Field>
OPLS_2005

> <r_lp_Energy>
33.7938

> <b_lp_Chiralities_Consistent>
1

> <s_lp_Variant>
AV-unprocessed.smi:72-91

> <Gold.Version>
5.8.1

> <Gold.Id.Protein>
6NUR|6NUR_protein|mol2

> <Gold.PLP.Fitness>
34.7045

> <Gold.PLP.PLP>
-24.8041

> <Gold.PLP.part.hbond>
-5.0000

> <Gold.PLP.part.metal>
0.0000

> <Gold.PLP.part.buried>
-2.4882

> <Gold.PLP.part.nonpolar>
-17.1420

> <Gold.PLP.part.repulsive>
0.8103

> <Gold.PLP.ligand.clash>
0.0000

> <Gold.PLP.ligand.torsion>
0.6798

> <Gold.PLP.Chemscore.Hbond>
3.7374

> <Gold.PLP.Chemscore.CHOScore>
0.0000

> <Gold.PLP.Chemscore.Metal>
0.0000

> <Gold.Chemscore.Hbonds>
donor molecule, donor type, donor heavy atom, donor atom, acceptor molecule, acceptor atom, score
      L1  H    10    27       P1  8028  0.90
      L1  H    12    28       P1  7957  1.00
      P1  H  7989  7998       L1    16  0.68
      P1  H  7997  8009       L1    17  1.00

> <Gold.PLP.Chemscore.Internal.Correction>
0.0477

> <Gold.Rescore>
     Score         DG    S(hbond)    S(metal)    S(lipo)     H(rot)  DE(clash)    DE(int)     intcor
      5.52      -6.85       2.79        0.00      20.77       4.06       0.31       1.02       ----

> <Gold.Chemscore.Fitness>
5.5239

> <Gold.Chemscore.DG>
-6.8468

> <Gold.Chemscore.ZeroCoef>
-5.4800

> <Gold.Chemscore.Hbond>
2.7935

> <Gold.Chemscore.Metal>
0.0000

> <Gold.Chemscore.Lipo>
20.7712

> <Gold.Chemscore.Internal_Hbond>
0.0000

> <Gold.Chemscore.DEClash>
0.3062

> <Gold.Chemscore.DEInternal>
1.0168

> <Gold.Chemscore.Rot>
4.0600

> <Gold.Chemscore.Internal.Correction>
   9.000000E+99

> <Gold.Chemscore.Hbonds>
donor molecule, donor type, donor heavy atom, donor atom, acceptor molecule, acceptor atom, score
      L1  H    10    27       P1  8028  0.18
      L1  H    12    28       P1  7957  0.98
      P1  H  7989  7998       L1    16  0.40
      P1  H  7997  8009       L1    17  0.41

> <Gold.Chemscore.Hbond.Weighted>
-9.3302

> <Gold.Chemscore.Metal.Weighted>
-0.0000

> <Gold.Chemscore.Lipo.Weighted>
-2.4302

> <Gold.Chemscore.Internal_Hbond.Weighted>
0.0000

> <Gold.Chemscore.DEClash.Weighted>
0.3062

> <Gold.Chemscore.DEInternal.Weighted>
1.0168

> <Gold.Chemscore.Rot.Weighted>
10.3936

> <Gold.Chemscore.Internal.Correction.Weighted>
   9.000000E+99

> <Gold.Protein.RotatedTorsions>
[ 6907 6896 6895 6894 ] final   70.62 input  -60.11 | X-H torsion
[ 7974 7965 7964 7962 ] final  -73.89 input  175.53 | X-H torsion
[ 8008 7997 7996 7995 ] final  161.15 input   59.86 | X-H torsion
[ 10167 10162 10161 10158 ] final   65.71 input  -65.29 | X-H torsion
[ 10718 10713 10712 10709 ] final  -95.81 input   66.30 | X-H torsion
[ 10763 10752 10751 10750 ] final  145.69 input  -60.55 | X-H torsion
[ 11005 11000 10999 10996 ] final  -90.78 input  -57.11 | X-H torsion

> <Gold.Protein.ActiveResidues>
 VAL166  LYS551  ARG553  GLY616  TRP617  ASP618  TYR619  PRO620  LYS621  CYS622 
 ASP623  PHE694  ASN695  SER759  ASP760  ASP761  ALA762  ILE779  LEU786  VAL792 
 PHE793  MET794  SER795  GLU796  ALA797  LYS798  CYS799  TRP800  GLU811  SER814 

> <Gold.Protein.RotatedAtoms>
  152.4760  134.4842  159.9674 H   0  0  0  0  0  0  0  0  0  0  0  0  # atno 6907 bound_to 6896
  151.4858  133.3530  159.2853 H   0  0  0  0  0  0  0  0  0  0  0  0  # atno 6908 bound_to 6896
  150.8799  134.8215  159.7279 H   0  0  0  0  0  0  0  0  0  0  0  0  # atno 6909 bound_to 6896
  145.6462  140.9296  143.1009 H   0  0  0  0  0  0  0  0  0  0  0  0  # atno 7974 bound_to 7965
  156.2123  140.1785  156.7667 H   0  0  0  0  0  0  0  0  0  0  0  0  # atno 8008 bound_to 7997
  154.5740  140.0677  156.9036 H   0  0  0  0  0  0  0  0  0  0  0  0  # atno 8009 bound_to 7997
  155.2621  140.3336  155.4275 H   0  0  0  0  0  0  0  0  0  0  0  0  # atno 8010 bound_to 7997
  140.1083  144.4841  150.6994 H   0  0  0  0  0  0  0  0  0  0  0  0  # atno 10167 bound_to 10162
  156.0050  130.5125  150.6132 H   0  0  0  0  0  0  0  0  0  0  0  0  # atno 10718 bound_to 10713
  154.0096  135.2915  155.3394 H   0  0  0  0  0  0  0  0  0  0  0  0  # atno 10763 bound_to 10752
  154.7111  135.5149  153.8671 H   0  0  0  0  0  0  0  0  0  0  0  0  # atno 10764 bound_to 10752
  153.0729  135.6654  154.0329 H   0  0  0  0  0  0  0  0  0  0  0  0  # atno 10765 bound_to 10752
  141.1558  133.7714  156.9786 H   0  0  0  0  0  0  0  0  0  0  0  0  # atno 11005 bound_to 11000
  144.7139  139.8268  143.7405 LP  0  0  0  0  0  0  0  0  0  0  0  0  # atno 17320 bound_to 7965
  146.1240  139.4263  143.0210 LP  0  0  0  0  0  0  0  0  0  0  0  0  # atno 17321 bound_to 7965
  140.6940  143.2392  151.5053 LP  0  0  0  0  0  0  0  0  0  0  0  0  # atno 17342 bound_to 10162
  139.5633  144.2103  152.1726 LP  0  0  0  0  0  0  0  0  0  0  0  0  # atno 17343 bound_to 10162
  157.3961  131.0803  151.1351 LP  0  0  0  0  0  0  0  0  0  0  0  0  # atno 17370 bound_to 10713
  157.2027  130.6402  149.5744 LP  0  0  0  0  0  0  0  0  0  0  0  0  # atno 17371 bound_to 10713
  140.1081  134.9494  157.2024 LP  0  0  0  0  0  0  0  0  0  0  0  0  # atno 17394 bound_to 11000
  140.3230  134.2895  155.7242 LP  0  0  0  0  0  0  0  0  0  0  0  0  # atno 17395 bound_to 11000

$$$$
