AV-unprocessed.smi:697|AV-procd|sdf|3391|dock5
  -GOLD-   22720 0373D 1   1.00000     0.00000
 Structure written by MMmdl.
 44 45  0  0  0  0  0  0  0  0  1 V2000
  150.5396  141.4627  156.9036 C   0  0  0  0  0  0  0  0  0  0  0  0
  149.4832  140.5542  156.6181 O   0  0  0  0  0  0  0  0  0  0  0  0
  149.2515  140.2260  155.2412 C   0  0  1  0  0  0  0  0  0  0  0  0
  149.0215  141.4982  154.4153 C   0  0  0  0  0  0  0  0  0  0  0  0
  150.2854  139.1895  154.7610 C   0  0  0  0  0  0  0  0  0  0  0  0
  149.3868  138.1179  155.3753 C   0  0  2  0  0  0  0  0  0  0  0  0
  149.3375  136.8991  154.5748 N   0  0  0  0  0  0  0  0  0  0  0  0
  149.7318  135.6935  155.0059 C   0  0  0  0  0  0  0  0  0  0  0  0
  150.1976  135.5000  156.1284 O   0  0  0  0  0  0  0  0  0  0  0  0
  149.5510  134.7614  154.0520 N   0  0  0  0  0  0  0  0  0  0  0  0
  149.7897  133.3771  154.0965 C   0  0  0  0  0  0  0  0  0  0  0  0
  150.6865  132.7653  154.9142 C   0  0  0  0  0  0  0  0  0  0  0  0
  150.8732  131.3239  154.9135 C   0  0  0  0  0  0  0  0  0  0  0  0
  151.9384  130.6598  155.7721 C   0  0  0  0  0  0  0  0  0  0  0  0
  152.5776  131.5528  156.5286 F   0  0  0  0  0  0  0  0  0  0  0  0
  151.4008  129.7403  156.5741 F   0  0  0  0  0  0  0  0  0  0  0  0
  152.8358  130.0567  154.9939 F   0  0  0  0  0  0  0  0  0  0  0  0
  150.1145  130.6204  154.0530 C   0  0  0  0  0  0  0  0  0  0  0  0
  149.1743  131.2388  153.2262 N   0  0  0  0  0  0  0  0  0  0  0  0
  148.9561  132.5723  153.1878 C   0  0  0  0  0  0  0  0  0  0  0  0
  148.1071  133.0404  152.4299 O   0  0  0  0  0  0  0  0  0  0  0  0
  148.1876  139.0814  155.1783 C   0  0  0  0  0  0  0  0  0  0  0  0
  147.1281  139.0688  156.2857 C   0  0  0  0  0  0  0  0  0  0  0  0
  147.4089  138.9570  153.8545 C   0  0  0  0  0  0  0  0  0  0  0  0
  148.6303  130.6401  152.6216 H   0  0  0  0  0  0  0  0  0  0  0  0
  150.7026  141.4904  157.9807 H   0  0  0  0  0  0  0  0  0  0  0  0
  150.2922  142.4766  156.5902 H   0  0  0  0  0  0  0  0  0  0  0  0
  151.4785  141.1704  156.4346 H   0  0  0  0  0  0  0  0  0  0  0  0
  148.7432  141.2696  153.3872 H   0  0  0  0  0  0  0  0  0  0  0  0
  149.9187  142.1138  154.3544 H   0  0  0  0  0  0  0  0  0  0  0  0
  148.2244  142.1074  154.8417 H   0  0  0  0  0  0  0  0  0  0  0  0
  150.3536  139.1317  153.6732 H   0  0  0  0  0  0  0  0  0  0  0  0
  151.2757  139.2537  155.2106 H   0  0  0  0  0  0  0  0  0  0  0  0
  149.6270  137.9463  156.4274 H   0  0  0  0  0  0  0  0  0  0  0  0
  148.9720  136.9792  153.6373 H   0  0  0  0  0  0  0  0  0  0  0  0
  149.2125  135.0963  153.1616 H   0  0  0  0  0  0  0  0  0  0  0  0
  151.2827  133.3303  155.6112 H   0  0  0  0  0  0  0  0  0  0  0  0
  150.1708  129.5492  153.9273 H   0  0  0  0  0  0  0  0  0  0  0  0
  146.4727  138.2011  156.2051 H   0  0  0  0  0  0  0  0  0  0  0  0
  146.5018  139.9605  156.2477 H   0  0  0  0  0  0  0  0  0  0  0  0
  147.5756  139.0285  157.2789 H   0  0  0  0  0  0  0  0  0  0  0  0
  146.8176  138.0414  153.8188 H   0  0  0  0  0  0  0  0  0  0  0  0
  148.0692  138.9424  152.9875 H   0  0  0  0  0  0  0  0  0  0  0  0
  146.7182  139.7898  153.7182 H   0  0  0  0  0  0  0  0  0  0  0  0
  1  2  1  0  0  0  0
  1 26  1  0  0  0  0
  1 27  1  0  0  0  0
  1 28  1  0  0  0  0
  2  3  1  0  0  0  0
  3 22  1  0  0  0  0
  3  4  1  0  0  0  0
  3  5  1  0  0  0  0
  4 29  1  0  0  0  0
  4 30  1  0  0  0  0
  4 31  1  0  0  0  0
  5  6  1  0  0  0  0
  5 32  1  0  0  0  0
  5 33  1  0  0  0  0
  6  7  1  0  0  0  0
  6 22  1  0  0  0  0
  6 34  1  0  0  0  0
  7  8  1  0  0  0  0
  7 35  1  0  0  0  0
  8  9  2  0  0  0  0
  8 10  1  0  0  0  0
 10 11  1  0  0  0  0
 10 36  1  0  0  0  0
 11 20  1  0  0  0  0
 11 12  2  0  0  0  0
 12 13  1  0  0  0  0
 12 37  1  0  0  0  0
 13 14  1  0  0  0  0
 13 18  2  0  0  0  0
 14 15  1  0  0  0  0
 14 16  1  0  0  0  0
 14 17  1  0  0  0  0
 18 19  1  0  0  0  0
 18 38  1  0  0  0  0
 19 25  1  0  0  0  0
 19 20  1  0  0  0  0
 20 21  2  0  0  0  0
 22 23  1  0  0  0  0
 22 24  1  0  0  0  0
 23 39  1  0  0  0  0
 23 40  1  0  0  0  0
 23 41  1  0  0  0  0
 24 42  1  0  0  0  0
 24 43  1  0  0  0  0
 24 44  1  0  0  0  0
M  END
> <s_m_source_file>
AV-unprocessed.smi

> <i_m_source_file_index>
697

> <i_lp_mmshare_version>
43012

> <i_f3d_flags>
0

> <s_epik_input>
W0NIM11PW0NAQF0xKFtDSDNdKVtDSDJdW0NASF0oQzEoW0NIM10pW0NIM10pW05IXUMoPU8pW05IXWMyW2NIXWMoQyhGKShGKUYpW2NIXVtuSF1jMj1P

> <s_epik_cmdline>
J2VwaWtfcHl0aG9uJywgJy1waCcsICc3LjAnLCAnLXRuJywgJzgnLCAnLW1hJywgJzIwMCcsICctbWV0YWxfYmluZGluZycsICctaW1hZScsICc8aW5maWxlLm1hZT4nLCAnLW9tYWUnLCAnPG91dGZpbGUubWFlPic=

> <r_lp_tautomer_probability>
1

> <r_epik_Ionization_Penalty>
0.0036482

> <r_epik_Ionization_Penalty_Charging>
0.00362828

> <r_epik_Ionization_Penalty_Neutral>
1.99208e-05

> <r_epik_State_Penalty>
-0

> <r_epik_Charging_Adjusted_Penalty>
0.00362828

> <i_epik_Tot_Q>
0

> <i_epik_Tot_abs_Q>
0

> <r_epik_Metal_State_Penalty>
0.369362

> <b_epik_Metal_Only>
0

> <s_lp_Force_Field>
OPLS_2005

> <r_lp_Energy>
34.6264

> <b_lp_Chiralities_Consistent>
1

> <s_lp_Variant>
AV-unprocessed.smi:697-3

> <Gold.Version>
5.8.1

> <Gold.Id.Protein>
6NUR|6NUR_protein|mol2

> <Gold.PLP.Fitness>
40.2162

> <Gold.PLP.PLP>
-35.0583

> <Gold.PLP.part.hbond>
-3.0000

> <Gold.PLP.part.metal>
0.0000

> <Gold.PLP.part.buried>
-3.0628

> <Gold.PLP.part.nonpolar>
-28.2072

> <Gold.PLP.part.repulsive>
0.2743

> <Gold.PLP.ligand.clash>
0.0000

> <Gold.PLP.ligand.torsion>
0.4257

> <Gold.PLP.Chemscore.Hbond>
1.8640

> <Gold.PLP.Chemscore.CHOScore>
0.0000

> <Gold.PLP.Chemscore.Metal>
0.0000

> <Gold.Chemscore.Hbonds>
donor molecule, donor type, donor heavy atom, donor atom, acceptor molecule, acceptor atom, score
      L1  H     7    35       P1  7948  0.91
      L1  H    10    36       P1  7948  0.70
      L1  H    19    25       P1 10747  0.07

> <Gold.PLP.Chemscore.Internal.Correction>
0.4174

> <Gold.Rescore>
     Score         DG    S(hbond)    S(metal)    S(lipo)     H(rot)  DE(clash)    DE(int)     intcor
     13.68     -14.33       1.49        0.00      61.70       1.31       0.05       0.61       ----

> <Gold.Chemscore.Fitness>
13.6817

> <Gold.Chemscore.DG>
-14.3329

> <Gold.Chemscore.ZeroCoef>
-5.4800

> <Gold.Chemscore.Hbond>
1.4906

> <Gold.Chemscore.Metal>
0.0000

> <Gold.Chemscore.Lipo>
61.6956

> <Gold.Chemscore.Internal_Hbond>
0.0000

> <Gold.Chemscore.DEClash>
0.0456

> <Gold.Chemscore.DEInternal>
0.6055

> <Gold.Chemscore.Rot>
1.3062

> <Gold.Chemscore.Internal.Correction>
   9.000000E+99

> <Gold.Chemscore.Hbonds>
donor molecule, donor type, donor heavy atom, donor atom, acceptor molecule, acceptor atom, score
      L1  H     7    35       P1  7948  0.88
      L1  H    10    36       P1  7948  0.07
      L1  H    19    25       P1 10747  0.05

> <Gold.Chemscore.Hbond.Weighted>
-4.9785

> <Gold.Chemscore.Metal.Weighted>
-0.0000

> <Gold.Chemscore.Lipo.Weighted>
-7.2184

> <Gold.Chemscore.Internal_Hbond.Weighted>
0.0000

> <Gold.Chemscore.DEClash.Weighted>
0.0456

> <Gold.Chemscore.DEInternal.Weighted>
0.6055

> <Gold.Chemscore.Rot.Weighted>
3.3440

> <Gold.Chemscore.Internal.Correction.Weighted>
   9.000000E+99

> <Gold.Protein.RotatedTorsions>
[ 6907 6896 6895 6894 ] final  127.44 input  -60.11 | X-H torsion
[ 7974 7965 7964 7962 ] final  163.52 input  175.53 | X-H torsion
[ 8008 7997 7996 7995 ] final -173.80 input   59.86 | X-H torsion
[ 10167 10162 10161 10158 ] final   50.47 input  -65.29 | X-H torsion
[ 10718 10713 10712 10709 ] final   85.00 input   66.30 | X-H torsion
[ 10763 10752 10751 10750 ] final  -97.27 input  -60.55 | X-H torsion
[ 11005 11000 10999 10996 ] final   14.93 input  -57.11 | X-H torsion

> <Gold.Protein.ActiveResidues>
 VAL166  LYS551  ARG553  GLY616  TRP617  ASP618  TYR619  PRO620  LYS621  CYS622 
 ASP623  PHE694  ASN695  SER759  ASP760  ASP761  ALA762  ILE779  LEU786  VAL792 
 PHE793  MET794  SER795  GLU796  ALA797  LYS798  CYS799  TRP800  GLU811  SER814 

> <Gold.Protein.RotatedAtoms>
  152.3812  133.6549  159.6162 H   0  0  0  0  0  0  0  0  0  0  0  0  # atno 6907 bound_to 6896
  150.7742  133.9110  159.3378 H   0  0  0  0  0  0  0  0  0  0  0  0  # atno 6908 bound_to 6896
  151.6916  135.0947  160.0286 H   0  0  0  0  0  0  0  0  0  0  0  0  # atno 6909 bound_to 6896
  144.7586  139.8194  143.6341 H   0  0  0  0  0  0  0  0  0  0  0  0  # atno 7974 bound_to 7965
  155.9620  140.1146  157.0887 H   0  0  0  0  0  0  0  0  0  0  0  0  # atno 8008 bound_to 7997
  154.4134  140.1180  156.5259 H   0  0  0  0  0  0  0  0  0  0  0  0  # atno 8009 bound_to 7997
  155.6708  140.3473  155.4820 H   0  0  0  0  0  0  0  0  0  0  0  0  # atno 8010 bound_to 7997
  140.2721  144.3254  150.6287 H   0  0  0  0  0  0  0  0  0  0  0  0  # atno 10167 bound_to 10162
  157.6907  131.0156  150.2756 H   0  0  0  0  0  0  0  0  0  0  0  0  # atno 10718 bound_to 10713
  154.7313  135.5053  153.8968 H   0  0  0  0  0  0  0  0  0  0  0  0  # atno 10763 bound_to 10752
  153.0952  135.6670  153.9785 H   0  0  0  0  0  0  0  0  0  0  0  0  # atno 10764 bound_to 10752
  153.9585  135.3050  155.3414 H   0  0  0  0  0  0  0  0  0  0  0  0  # atno 10765 bound_to 10752
  140.4640  134.1098  155.7721 H   0  0  0  0  0  0  0  0  0  0  0  0  # atno 11005 bound_to 11000
  146.1625  139.4744  142.9979 LP  0  0  0  0  0  0  0  0  0  0  0  0  # atno 17320 bound_to 7965
  145.6695  141.0220  143.1665 LP  0  0  0  0  0  0  0  0  0  0  0  0  # atno 17321 bound_to 7965
  140.5881  143.2169  151.7304 LP  0  0  0  0  0  0  0  0  0  0  0  0  # atno 17342 bound_to 10162
  139.4986  144.3980  152.0211 LP  0  0  0  0  0  0  0  0  0  0  0  0  # atno 17343 bound_to 10162
  156.3312  130.3800  149.7490 LP  0  0  0  0  0  0  0  0  0  0  0  0  # atno 17370 bound_to 10713
  156.5029  130.8137  151.3139 LP  0  0  0  0  0  0  0  0  0  0  0  0  # atno 17371 bound_to 10713
  141.1608  133.8796  157.1853 LP  0  0  0  0  0  0  0  0  0  0  0  0  # atno 17394 bound_to 11000
  139.9927  135.0058  157.0012 LP  0  0  0  0  0  0  0  0  0  0  0  0  # atno 17395 bound_to 11000

$$$$
