AV-unprocessed.smi:3284|AV-procd|sdf|12572|dock2
  -GOLD-   2272018493D 1   1.00000     0.00000
 Structure written by MMmdl.
 44 45  0  0  0  0  0  0  0  0  2 V2000
  152.5584  144.3333  157.9838 C   0  0  0  0  0  0  0  0  0  0  0  0
  152.6138  143.7065  159.3676 C   0  0  0  0  0  0  0  0  0  0  0  0
  152.4052  144.4519  160.4711 C   0  0  0  0  0  0  0  0  0  0  0  0
  152.5008  143.9364  161.8966 C   0  0  0  0  0  0  0  0  0  0  0  0
  152.6926  142.4128  161.9786 C   0  0  0  0  0  0  0  0  0  0  0  0
  153.5895  141.8938  160.8409 C   0  0  1  0  0  0  0  0  0  0  0  0
  153.9763  140.4177  161.0372 C   0  0  0  0  0  0  0  0  0  0  0  0
  152.9699  142.2162  159.4514 C   0  0  1  0  0  0  0  0  0  0  0  0
  151.7668  141.3008  159.1015 C   0  0  0  0  0  0  0  0  0  0  0  0
  151.7353  140.9043  157.6802 N   0  3  0  0  0  0  0  0  0  0  0  0
  150.6246  141.5004  156.9133 C   0  0  0  0  0  0  0  0  0  0  0  0
  150.1573  140.5593  155.7956 C   0  0  0  0  0  0  0  0  0  0  0  0
  148.9221  141.0582  155.1129 C   0  0  0  0  0  0  0  0  0  0  0  0
  148.7756  141.0877  153.7919 N   0  0  0  0  0  0  0  0  0  0  0  0
  147.4950  141.5906  153.5879 C   0  0  0  0  0  0  0  0  0  0  0  0
  146.9056  141.8424  154.8031 C   0  0  0  0  0  0  0  0  0  0  0  0
  147.8315  141.4892  155.7760 N   0  0  0  0  0  0  0  0  0  0  0  0
  147.6343  141.5765  157.2100 C   0  0  0  0  0  0  0  0  0  0  0  0
  153.4395  144.0582  157.4035 H   0  0  0  0  0  0  0  0  0  0  0  0
  152.5330  145.4216  158.0480 H   0  0  0  0  0  0  0  0  0  0  0  0
  151.6695  144.0227  157.4376 H   0  0  0  0  0  0  0  0  0  0  0  0
  152.1831  145.5044  160.3703 H   0  0  0  0  0  0  0  0  0  0  0  0
  153.3480  144.4372  162.3664 H   0  0  0  0  0  0  0  0  0  0  0  0
  151.6115  144.2344  162.4526 H   0  0  0  0  0  0  0  0  0  0  0  0
  153.1184  142.1556  162.9492 H   0  0  0  0  0  0  0  0  0  0  0  0
  151.7216  141.9186  161.9374 H   0  0  0  0  0  0  0  0  0  0  0  0
  154.5260  142.4518  160.8998 H   0  0  0  0  0  0  0  0  0  0  0  0
  153.1015  139.7772  161.1482 H   0  0  0  0  0  0  0  0  0  0  0  0
  154.5800  140.2938  161.9368 H   0  0  0  0  0  0  0  0  0  0  0  0
  154.5641  140.0483  160.1964 H   0  0  0  0  0  0  0  0  0  0  0  0
  153.7524  142.0329  158.7134 H   0  0  0  0  0  0  0  0  0  0  0  0
  151.8016  140.3810  159.6840 H   0  0  0  0  0  0  0  0  0  0  0  0
  150.8289  141.7991  159.3488 H   0  0  0  0  0  0  0  0  0  0  0  0
  152.6068  141.1850  157.2537 H   0  0  0  0  0  0  0  0  0  0  0  0
  149.7974  141.7156  157.5911 H   0  0  0  0  0  0  0  0  0  0  0  0
  150.9492  142.4508  156.4873 H   0  0  0  0  0  0  0  0  0  0  0  0
  150.9508  140.4179  155.0611 H   0  0  0  0  0  0  0  0  0  0  0  0
  149.9456  139.5717  156.2075 H   0  0  0  0  0  0  0  0  0  0  0  0
  147.0997  141.7295  152.5923 H   0  0  0  0  0  0  0  0  0  0  0  0
  145.9278  142.2305  155.0485 H   0  0  0  0  0  0  0  0  0  0  0  0
  146.6035  141.8550  157.4317 H   0  0  0  0  0  0  0  0  0  0  0  0
  148.3007  142.3311  157.6288 H   0  0  0  0  0  0  0  0  0  0  0  0
  147.8445  140.6126  157.6740 H   0  0  0  0  0  0  0  0  0  0  0  0
  151.6590  139.8984  157.6288 H   0  0  0  0  0  0  0  0  0  0  0  0
  1  2  1  0  0  0  0
  1 19  1  0  0  0  0
  1 20  1  0  0  0  0
  1 21  1  0  0  0  0
  2  8  1  0  0  0  0
  2  3  2  0  0  0  0
  3  4  1  0  0  0  0
  3 22  1  0  0  0  0
  4  5  1  0  0  0  0
  4 23  1  0  0  0  0
  4 24  1  0  0  0  0
  5  6  1  0  0  0  0
  5 25  1  0  0  0  0
  5 26  1  0  0  0  0
  6  7  1  0  0  0  0
  6  8  1  0  0  0  0
  6 27  1  0  0  0  0
  7 28  1  0  0  0  0
  7 29  1  0  0  0  0
  7 30  1  0  0  0  0
  8  9  1  0  0  0  0
  8 31  1  0  0  0  0
  9 10  1  0  0  0  0
  9 32  1  0  0  0  0
  9 33  1  0  0  0  0
 10 11  1  0  0  0  0
 10 34  1  0  0  0  0
 10 44  1  0  0  0  0
 11 12  1  0  0  0  0
 11 35  1  0  0  0  0
 11 36  1  0  0  0  0
 12 13  1  0  0  0  0
 12 37  1  0  0  0  0
 12 38  1  0  0  0  0
 13 17  1  0  0  0  0
 13 14  2  0  0  0  0
 14 15  1  0  0  0  0
 15 16  2  0  0  0  0
 15 39  1  0  0  0  0
 16 17  1  0  0  0  0
 16 40  1  0  0  0  0
 17 18  1  0  0  0  0
 18 41  1  0  0  0  0
 18 42  1  0  0  0  0
 18 43  1  0  0  0  0
M  CHG  1  10   1
M  END
> <s_m_source_file>
AV-unprocessed.smi

> <i_m_source_file_index>
3284

> <i_lp_mmshare_version>
43012

> <i_f3d_flags>
0

> <s_epik_input>
W0NIM11DMT1bQ0hdW0NIMl1bQ0gyXVtDQEBIXShbQ0gzXSlbQ0BIXTFbQ0gyXVtOSF1bQ0gyXVtDSDJdYzJuW2NIXVtjSF1uMltDSDNd

> <s_epik_cmdline>
J2VwaWtfcHl0aG9uJywgJy1waCcsICc3LjAnLCAnLXRuJywgJzgnLCAnLW1hJywgJzIwMCcsICctbWV0YWxfYmluZGluZycsICctaW1hZScsICc8aW5maWxlLm1hZT4nLCAnLW9tYWUnLCAnPG91dGZpbGUubWFlPic=

> <r_lp_tautomer_probability>
1

> <r_epik_Ionization_Penalty>
0.150779

> <r_epik_Ionization_Penalty_Charging>
0.150779

> <r_epik_Ionization_Penalty_Neutral>
1.39452e-13

> <r_epik_State_Penalty>
0.349447

> <r_epik_Charging_Adjusted_Penalty>
0.500226

> <i_epik_Tot_Q>
1

> <i_epik_Tot_abs_Q>
1

> <r_epik_Metal_State_Penalty>
0.000470967

> <b_epik_Metal_Only>
0

> <s_lp_Force_Field>
OPLS_2005

> <r_lp_Energy>
13.2562

> <b_lp_Chiralities_Consistent>
1

> <s_lp_Variant>
AV-unprocessed.smi:3284-1

> <Gold.Version>
5.8.1

> <Gold.Id.Protein>
6NUR|6NUR_protein|mol2

> <Gold.PLP.Fitness>
49.0455

> <Gold.PLP.PLP>
-49.1161

> <Gold.PLP.part.hbond>
-1.0000

> <Gold.PLP.part.metal>
0.0000

> <Gold.PLP.part.buried>
-6.4421

> <Gold.PLP.part.nonpolar>
-42.2030

> <Gold.PLP.part.repulsive>
0.9337

> <Gold.PLP.ligand.clash>
0.0000

> <Gold.PLP.ligand.torsion>
1.2116

> <Gold.PLP.Chemscore.Hbond>
0.7680

> <Gold.PLP.Chemscore.CHOScore>
0.0000

> <Gold.PLP.Chemscore.Metal>
0.0000

> <Gold.Chemscore.Hbonds>
donor molecule, donor type, donor heavy atom, donor atom, acceptor molecule, acceptor atom, score
      P1  H  8011  8017       L1    14  0.38

> <Gold.PLP.Chemscore.Internal.Correction>
0.0485

> <Gold.Rescore>
     Score         DG    S(hbond)    S(metal)    S(lipo)     H(rot)  DE(clash)    DE(int)     intcor
     17.41     -18.81       0.66        0.00     130.39       1.61       0.16       1.24       ----

> <Gold.Chemscore.Fitness>
17.4141

> <Gold.Chemscore.DG>
-18.8054

> <Gold.Chemscore.ZeroCoef>
-5.4800

> <Gold.Chemscore.Hbond>
0.6566

> <Gold.Chemscore.Metal>
0.0000

> <Gold.Chemscore.Lipo>
130.3886

> <Gold.Chemscore.Internal_Hbond>
0.0000

> <Gold.Chemscore.DEClash>
0.1552

> <Gold.Chemscore.DEInternal>
1.2361

> <Gold.Chemscore.Rot>
1.6105

> <Gold.Chemscore.Internal.Correction>
   9.000000E+99

> <Gold.Chemscore.Hbonds>
donor molecule, donor type, donor heavy atom, donor atom, acceptor molecule, acceptor atom, score
      P1  H  8011  8017       L1    14  0.05

> <Gold.Chemscore.Hbond.Weighted>
-2.1929

> <Gold.Chemscore.Metal.Weighted>
-0.0000

> <Gold.Chemscore.Lipo.Weighted>
-15.2555

> <Gold.Chemscore.Internal_Hbond.Weighted>
0.0000

> <Gold.Chemscore.DEClash.Weighted>
0.1552

> <Gold.Chemscore.DEInternal.Weighted>
1.2361

> <Gold.Chemscore.Rot.Weighted>
4.1230

> <Gold.Chemscore.Internal.Correction.Weighted>
   9.000000E+99

> <Gold.Protein.RotatedTorsions>
[ 6907 6896 6895 6894 ] final  123.23 input  -60.11 | X-H torsion
[ 7974 7965 7964 7962 ] final -118.54 input  175.53 | X-H torsion
[ 8008 7997 7996 7995 ] final  -45.81 input   59.86 | X-H torsion
[ 10167 10162 10161 10158 ] final   11.63 input  -65.29 | X-H torsion
[ 10718 10713 10712 10709 ] final   78.65 input   66.30 | X-H torsion
[ 10763 10752 10751 10750 ] final  -50.59 input  -60.55 | X-H torsion
[ 11005 11000 10999 10996 ] final  177.61 input  -57.11 | X-H torsion

> <Gold.Protein.ActiveResidues>
 VAL166  LYS551  ARG553  GLY616  TRP617  ASP618  TYR619  PRO620  LYS621  CYS622 
 ASP623  PHE694  ASN695  SER759  ASP760  ASP761  ALA762  ILE779  LEU786  VAL792 
 PHE793  MET794  SER795  GLU796  ALA797  LYS798  CYS799  TRP800  GLU811  SER814 

> <Gold.Protein.RotatedAtoms>
  152.4179  133.7067  159.6455 H   0  0  0  0  0  0  0  0  0  0  0  0  # atno 6907 bound_to 6896
  150.8055  133.8507  159.3213 H   0  0  0  0  0  0  0  0  0  0  0  0  # atno 6908 bound_to 6896
  151.6232  135.1032  160.0157 H   0  0  0  0  0  0  0  0  0  0  0  0  # atno 6909 bound_to 6896
  145.0727  140.8370  143.4086 H   0  0  0  0  0  0  0  0  0  0  0  0  # atno 7974 bound_to 7965
  154.4003  140.1387  156.3909 H   0  0  0  0  0  0  0  0  0  0  0  0  # atno 8008 bound_to 7997
  155.7915  140.3478  155.5331 H   0  0  0  0  0  0  0  0  0  0  0  0  # atno 8009 bound_to 7997
  155.8574  140.0951  157.1626 H   0  0  0  0  0  0  0  0  0  0  0  0  # atno 8010 bound_to 7997
  140.6119  143.8389  150.7075 H   0  0  0  0  0  0  0  0  0  0  0  0  # atno 10167 bound_to 10162
  157.6751  130.9878  150.1817 H   0  0  0  0  0  0  0  0  0  0  0  0  # atno 10718 bound_to 10713
  154.1128  135.6546  153.4888 H   0  0  0  0  0  0  0  0  0  0  0  0  # atno 10763 bound_to 10752
  153.0251  135.5252  154.7174 H   0  0  0  0  0  0  0  0  0  0  0  0  # atno 10764 bound_to 10752
  154.6359  135.2982  155.0131 H   0  0  0  0  0  0  0  0  0  0  0  0  # atno 10765 bound_to 10752
  140.3860  134.6904  157.4479 H   0  0  0  0  0  0  0  0  0  0  0  0  # atno 11005 bound_to 11000
  145.1273  139.2654  143.5557 LP  0  0  0  0  0  0  0  0  0  0  0  0  # atno 17320 bound_to 7965
  146.3529  140.0915  142.8612 LP  0  0  0  0  0  0  0  0  0  0  0  0  # atno 17321 bound_to 7965
  140.1959  143.3998  152.1828 LP  0  0  0  0  0  0  0  0  0  0  0  0  # atno 17342 bound_to 10162
  139.5368  144.7218  151.4866 LP  0  0  0  0  0  0  0  0  0  0  0  0  # atno 17343 bound_to 10162
  156.2548  130.3704  149.8194 LP  0  0  0  0  0  0  0  0  0  0  0  0  # atno 17370 bound_to 10713
  156.5956  130.8525  151.3419 LP  0  0  0  0  0  0  0  0  0  0  0  0  # atno 17371 bound_to 10713
  140.0442  134.6223  155.8941 LP  0  0  0  0  0  0  0  0  0  0  0  0  # atno 17394 bound_to 11000
  141.1907  133.6569  156.5425 LP  0  0  0  0  0  0  0  0  0  0  0  0  # atno 17395 bound_to 11000

$$$$
