AV-unprocessed.smi:1720|AV-procd|sdf|6931|dock4
  -GOLD-   22720 8143D 1   1.00000     0.00000
 Structure written by MMmdl.
 32 33  0  0  0  0  0  0  0  0  1 V2000
  146.3061  139.2189  154.6297 C   0  0  0  0  0  0  0  0  0  0  0  0
  146.9891  139.3695  153.2616 C   0  0  2  0  0  0  0  0  0  0  0  0
  147.0092  138.0628  152.6073 N   0  0  0  0  0  0  0  0  0  0  0  0
  145.9309  137.3680  152.2166 C   0  0  0  0  0  0  0  0  0  0  0  0
  144.7732  137.7563  152.3729 O   0  0  0  0  0  0  0  0  0  0  0  0
  146.2836  136.2079  151.6390 N   0  0  0  0  0  0  0  0  0  0  0  0
  145.4238  135.2202  151.0952 C   0  0  0  0  0  0  0  0  0  0  0  0
  145.7346  133.8360  151.0076 C   0  0  0  0  0  0  0  0  0  0  0  0
  144.7434  133.1518  150.4542 N   0  0  0  0  0  0  0  0  0  0  0  0
  143.8028  134.0863  150.1884 N   0  0  0  0  0  0  0  0  0  0  0  0
  144.1733  135.3594  150.5614 C   0  0  0  0  0  0  0  0  0  0  0  0
  148.4256  139.9194  153.3827 C   0  0  2  0  0  0  0  0  0  0  0  0
  149.3990  139.0073  154.1305 C   0  0  0  0  0  0  0  0  0  0  0  0
  150.4646  139.9632  154.6425 C   0  0  0  0  0  0  0  0  0  0  0  0
  149.8133  141.3438  154.5267 C   0  0  0  0  0  0  0  0  0  0  0  0
  148.4579  141.0895  154.1860 O   0  0  0  0  0  0  0  0  0  0  0  0
  142.9228  133.8423  149.7566 H   0  0  0  0  0  0  0  0  0  0  0  0
  146.2079  140.1806  155.1335 H   0  0  0  0  0  0  0  0  0  0  0  0
  146.8715  138.5558  155.2853 H   0  0  0  0  0  0  0  0  0  0  0  0
  145.3024  138.8062  154.5231 H   0  0  0  0  0  0  0  0  0  0  0  0
  146.3927  140.0667  152.6703 H   0  0  0  0  0  0  0  0  0  0  0  0
  147.9182  137.6612  152.4317 H   0  0  0  0  0  0  0  0  0  0  0  0
  147.2719  136.0132  151.5761 H   0  0  0  0  0  0  0  0  0  0  0  0
  146.6281  133.3156  151.3200 H   0  0  0  0  0  0  0  0  0  0  0  0
  143.5308  136.2151  150.4153 H   0  0  0  0  0  0  0  0  0  0  0  0
  148.8268  140.1593  152.3958 H   0  0  0  0  0  0  0  0  0  0  0  0
  148.8977  138.5346  154.9762 H   0  0  0  0  0  0  0  0  0  0  0  0
  149.8090  138.2185  153.4988 H   0  0  0  0  0  0  0  0  0  0  0  0
  150.7394  139.7282  155.6712 H   0  0  0  0  0  0  0  0  0  0  0  0
  151.3679  139.9149  154.0336 H   0  0  0  0  0  0  0  0  0  0  0  0
  149.8825  141.9183  155.4506 H   0  0  0  0  0  0  0  0  0  0  0  0
  150.2814  141.9234  153.7298 H   0  0  0  0  0  0  0  0  0  0  0  0
  1  2  1  0  0  0  0
  1 18  1  0  0  0  0
  1 19  1  0  0  0  0
  1 20  1  0  0  0  0
  2  3  1  0  0  0  0
  2 12  1  0  0  0  0
  2 21  1  0  0  0  0
  3  4  1  0  0  0  0
  3 22  1  0  0  0  0
  4  5  2  0  0  0  0
  4  6  1  0  0  0  0
  6  7  1  0  0  0  0
  6 23  1  0  0  0  0
  7 11  2  0  0  0  0
  7  8  1  0  0  0  0
  8  9  2  0  0  0  0
  8 24  1  0  0  0  0
  9 10  1  0  0  0  0
 10 17  1  0  0  0  0
 10 11  1  0  0  0  0
 11 25  1  0  0  0  0
 12 16  1  0  0  0  0
 12 13  1  0  0  0  0
 12 26  1  0  0  0  0
 13 14  1  0  0  0  0
 13 27  1  0  0  0  0
 13 28  1  0  0  0  0
 14 15  1  0  0  0  0
 14 29  1  0  0  0  0
 14 30  1  0  0  0  0
 15 16  1  0  0  0  0
 15 31  1  0  0  0  0
 15 32  1  0  0  0  0
M  END
> <s_m_source_file>
AV-unprocessed.smi

> <i_m_source_file_index>
1720

> <i_lp_mmshare_version>
43012

> <i_f3d_flags>
0

> <s_epik_input>
TzFbQ0gyXVtDSDJdW0NIMl1bQ0BIXTFbQ0BIXShbQ0gzXSlbTkhdQyg9TylbTkhdYzJbY0hdbltuSF1bY0hdMg==

> <s_epik_cmdline>
J2VwaWtfcHl0aG9uJywgJy1waCcsICc3LjAnLCAnLXRuJywgJzgnLCAnLW1hJywgJzIwMCcsICctbWV0YWxfYmluZGluZycsICctaW1hZScsICc8aW5maWxlLm1hZT4nLCAnLW9tYWUnLCAnPG91dGZpbGUubWFlPic=

> <r_lp_tautomer_probability>
1

> <r_epik_Ionization_Penalty>
4.95841e-05

> <r_epik_Ionization_Penalty_Charging>
0

> <r_epik_Ionization_Penalty_Neutral>
4.95841e-05

> <r_epik_State_Penalty>
-0

> <r_epik_Charging_Adjusted_Penalty>
0

> <i_epik_Tot_Q>
0

> <i_epik_Tot_abs_Q>
0

> <r_epik_Metal_State_Penalty>
-0

> <b_epik_Metal_Only>
0

> <s_lp_Force_Field>
OPLS_2005

> <r_lp_Energy>
20.531

> <b_lp_Chiralities_Consistent>
1

> <s_lp_Variant>
AV-unprocessed.smi:1720-1

> <Gold.Version>
5.8.1

> <Gold.Id.Protein>
6NUR|6NUR_protein|mol2

> <Gold.PLP.Fitness>
35.0156

> <Gold.PLP.PLP>
-23.7435

> <Gold.PLP.part.hbond>
-3.0000

> <Gold.PLP.part.metal>
0.0000

> <Gold.PLP.part.buried>
-1.7863

> <Gold.PLP.part.nonpolar>
-20.0726

> <Gold.PLP.part.repulsive>
1.1354

> <Gold.PLP.ligand.clash>
0.0000

> <Gold.PLP.ligand.torsion>
0.2428

> <Gold.PLP.Chemscore.Hbond>
2.9120

> <Gold.PLP.Chemscore.CHOScore>
1.0000

> <Gold.PLP.Chemscore.Metal>
0.0000

> <Gold.Chemscore.Hbonds>
donor molecule, donor type, donor heavy atom, donor atom, acceptor molecule, acceptor atom, score
      L1  H     3    22       P1  7948  1.00
      L1  H     6    23       P1  7948  1.00
      L1  H    10    17       P1 10186  0.86
      L1  C    11    25       P1 10171  1.00

> <Gold.PLP.Chemscore.Internal.Correction>
0.0218

> <Gold.Rescore>
     Score         DG    S(hbond)    S(metal)    S(lipo)     H(rot)  DE(clash)    DE(int)     intcor
     16.73     -17.85       2.93        0.00      50.73       1.31       0.67       0.45       ----

> <Gold.Chemscore.Fitness>
16.7309

> <Gold.Chemscore.DG>
-17.8453

> <Gold.Chemscore.ZeroCoef>
-5.4800

> <Gold.Chemscore.Hbond>
2.9277

> <Gold.Chemscore.Metal>
0.0000

> <Gold.Chemscore.Lipo>
50.7284

> <Gold.Chemscore.Internal_Hbond>
0.0000

> <Gold.Chemscore.DEClash>
0.6688

> <Gold.Chemscore.DEInternal>
0.4455

> <Gold.Chemscore.Rot>
1.3079

> <Gold.Chemscore.Internal.Correction>
   9.000000E+99

> <Gold.Chemscore.Hbonds>
donor molecule, donor type, donor heavy atom, donor atom, acceptor molecule, acceptor atom, score
      L1  H     3    22       P1  7948  0.94
      L1  H     6    23       P1  7948  0.99
      L1  H    10    17       P1 10186  0.81

> <Gold.Chemscore.Hbond.Weighted>
-9.7784

> <Gold.Chemscore.Metal.Weighted>
-0.0000

> <Gold.Chemscore.Lipo.Weighted>
-5.9352

> <Gold.Chemscore.Internal_Hbond.Weighted>
0.0000

> <Gold.Chemscore.DEClash.Weighted>
0.6688

> <Gold.Chemscore.DEInternal.Weighted>
0.4455

> <Gold.Chemscore.Rot.Weighted>
3.3483

> <Gold.Chemscore.Internal.Correction.Weighted>
   9.000000E+99

> <Gold.Protein.RotatedTorsions>
[ 6907 6896 6895 6894 ] final  111.76 input  -60.11 | X-H torsion
[ 7974 7965 7964 7962 ] final  -90.75 input  175.53 | X-H torsion
[ 8008 7997 7996 7995 ] final   51.49 input   59.86 | X-H torsion
[ 10167 10162 10161 10158 ] final  164.20 input  -65.29 | X-H torsion
[ 10718 10713 10712 10709 ] final -129.49 input   66.30 | X-H torsion
[ 10763 10752 10751 10750 ] final -163.65 input  -60.55 | X-H torsion
[ 11005 11000 10999 10996 ] final  -70.52 input  -57.11 | X-H torsion

> <Gold.Protein.ActiveResidues>
 VAL166  LYS551  ARG553  GLY616  TRP617  ASP618  TYR619  PRO620  LYS621  CYS622 
 ASP623  PHE694  ASN695  SER759  ASP760  ASP761  ALA762  ILE779  LEU786  VAL792 
 PHE793  MET794  SER795  GLU796  ALA797  LYS798  CYS799  TRP800  GLU811  SER814 

> <Gold.Protein.RotatedAtoms>
  152.4952  133.8612  159.7250 H   0  0  0  0  0  0  0  0  0  0  0  0  # atno 6907 bound_to 6896
  150.9123  133.6973  159.2858 H   0  0  0  0  0  0  0  0  0  0  0  0  # atno 6908 bound_to 6896
  151.4378  135.1021  159.9713 H   0  0  0  0  0  0  0  0  0  0  0  0  # atno 6909 bound_to 6896
  145.4223  140.9552  143.2174 H   0  0  0  0  0  0  0  0  0  0  0  0  # atno 7974 bound_to 7965
  155.4361  140.3452  155.4285 H   0  0  0  0  0  0  0  0  0  0  0  0  # atno 8008 bound_to 7997
  156.1307  140.1513  156.9100 H   0  0  0  0  0  0  0  0  0  0  0  0  # atno 8009 bound_to 7997
  154.4892  140.0846  156.7537 H   0  0  0  0  0  0  0  0  0  0  0  0  # atno 8010 bound_to 7997
  139.4885  144.4260  151.9129 H   0  0  0  0  0  0  0  0  0  0  0  0  # atno 10167 bound_to 10162
  156.2052  130.6883  151.0586 H   0  0  0  0  0  0  0  0  0  0  0  0  # atno 10718 bound_to 10713
  154.7103  135.3005  154.9208 H   0  0  0  0  0  0  0  0  0  0  0  0  # atno 10763 bound_to 10752
  154.0112  135.6694  153.4769 H   0  0  0  0  0  0  0  0  0  0  0  0  # atno 10764 bound_to 10752
  153.0749  135.5040  154.8297 H   0  0  0  0  0  0  0  0  0  0  0  0  # atno 10765 bound_to 10752
  141.1575  133.6792  156.6765 H   0  0  0  0  0  0  0  0  0  0  0  0  # atno 11005 bound_to 11000
  144.8237  139.5747  143.6975 LP  0  0  0  0  0  0  0  0  0  0  0  0  # atno 17320 bound_to 7965
  146.2650  139.6498  142.9336 LP  0  0  0  0  0  0  0  0  0  0  0  0  # atno 17321 bound_to 7965
  140.3706  144.2860  150.5920 LP  0  0  0  0  0  0  0  0  0  0  0  0  # atno 17342 bound_to 10162
  140.5322  143.2241  151.8220 LP  0  0  0  0  0  0  0  0  0  0  0  0  # atno 17343 bound_to 10162
  157.7008  131.0776  150.6825 LP  0  0  0  0  0  0  0  0  0  0  0  0  # atno 17370 bound_to 10713
  156.6884  130.4588  149.5607 LP  0  0  0  0  0  0  0  0  0  0  0  0  # atno 17371 bound_to 10713
  140.3135  134.8067  157.4195 LP  0  0  0  0  0  0  0  0  0  0  0  0  # atno 17394 bound_to 11000
  140.1158  134.5285  155.8226 LP  0  0  0  0  0  0  0  0  0  0  0  0  # atno 17395 bound_to 11000

$$$$
