AV-unprocessed.smi:3032|AV-procd|sdf|11565|dock4
  -GOLD-   2272016533D 1   1.00000     0.00000
 Structure written by MMmdl.
 37 38  0  0  0  0  0  0  0  0  1 V2000
  145.0221  130.8381  151.1207 C   0  0  0  0  0  0  0  0  0  0  0  0
  144.9880  132.2315  151.7638 C   0  0  2  0  0  0  0  0  0  0  0  0
  143.6756  132.9689  151.4401 C   0  0  0  0  0  0  0  0  0  0  0  0
  143.6281  134.3554  152.1000 C   0  0  0  0  0  0  0  0  0  0  0  0
  144.8555  135.2096  151.7236 C   0  0  0  0  0  0  0  0  0  0  0  0
  146.2086  134.4929  151.9558 C   0  0  1  0  0  0  0  0  0  0  0  0
  146.6464  134.4455  153.4314 C   0  0  0  0  0  0  0  0  0  0  0  0
  146.0110  133.8038  154.2676 O   0  0  0  0  0  0  0  0  0  0  0  0
  147.7567  135.1350  153.7346 N   0  0  0  0  0  0  0  0  0  0  0  0
  148.3981  135.1704  155.0459 C   0  0  0  0  0  0  0  0  0  0  0  0
  149.9345  135.2954  154.9703 C   0  0  0  0  0  0  0  0  0  0  0  0
  150.4229  136.6973  154.7791 C   0  0  0  0  0  0  0  0  0  0  0  0
  151.2406  137.3436  155.6186 N   0  0  0  0  0  0  0  0  0  0  0  0
  151.4140  138.6054  155.0713 N   0  0  0  0  0  0  0  0  0  0  0  0
  150.6859  138.5963  153.9536 C   0  0  0  0  0  0  0  0  0  0  0  0
  150.0532  137.4403  153.7243 N   0  0  0  0  0  0  0  0  0  0  0  0
  146.1943  133.0839  151.3202 C   0  0  0  0  0  0  0  0  0  0  0  0
  149.4458  137.1921  152.9568 H   0  0  0  0  0  0  0  0  0  0  0  0
  144.9670  130.9013  150.0335 H   0  0  0  0  0  0  0  0  0  0  0  0
  144.1853  130.2282  151.4620 H   0  0  0  0  0  0  0  0  0  0  0  0
  145.9403  130.3095  151.3775 H   0  0  0  0  0  0  0  0  0  0  0  0
  145.0410  132.0896  152.8439 H   0  0  0  0  0  0  0  0  0  0  0  0
  143.5712  133.0780  150.3596 H   0  0  0  0  0  0  0  0  0  0  0  0
  142.8222  132.3779  151.7740 H   0  0  0  0  0  0  0  0  0  0  0  0
  142.7173  134.8736  151.7994 H   0  0  0  0  0  0  0  0  0  0  0  0
  143.5599  134.2399  153.1810 H   0  0  0  0  0  0  0  0  0  0  0  0
  144.7822  135.4772  150.6686 H   0  0  0  0  0  0  0  0  0  0  0  0
  144.8275  136.1537  152.2695 H   0  0  0  0  0  0  0  0  0  0  0  0
  146.9686  135.0798  151.4373 H   0  0  0  0  0  0  0  0  0  0  0  0
  148.2161  135.6415  152.9914 H   0  0  0  0  0  0  0  0  0  0  0  0
  147.9955  136.0360  155.5724 H   0  0  0  0  0  0  0  0  0  0  0  0
  148.1133  134.2944  155.6299 H   0  0  0  0  0  0  0  0  0  0  0  0
  150.3801  134.8920  155.8801 H   0  0  0  0  0  0  0  0  0  0  0  0
  150.3138  134.6813  154.1523 H   0  0  0  0  0  0  0  0  0  0  0  0
  150.6125  139.4474  153.2928 H   0  0  0  0  0  0  0  0  0  0  0  0
  147.1226  132.5593  151.5524 H   0  0  0  0  0  0  0  0  0  0  0  0
  146.1807  133.1878  150.2345 H   0  0  0  0  0  0  0  0  0  0  0  0
  1  2  1  0  0  0  0
  1 19  1  0  0  0  0
  1 20  1  0  0  0  0
  1 21  1  0  0  0  0
  2 17  1  0  0  0  0
  2  3  1  0  0  0  0
  2 22  1  0  0  0  0
  3  4  1  0  0  0  0
  3 23  1  0  0  0  0
  3 24  1  0  0  0  0
  4  5  1  0  0  0  0
  4 25  1  0  0  0  0
  4 26  1  0  0  0  0
  5  6  1  0  0  0  0
  5 27  1  0  0  0  0
  5 28  1  0  0  0  0
  6  7  1  0  0  0  0
  6 17  1  0  0  0  0
  6 29  1  0  0  0  0
  7  8  2  0  0  0  0
  7  9  1  0  0  0  0
  9 10  1  0  0  0  0
  9 30  1  0  0  0  0
 10 11  1  0  0  0  0
 10 31  1  0  0  0  0
 10 32  1  0  0  0  0
 11 12  1  0  0  0  0
 11 33  1  0  0  0  0
 11 34  1  0  0  0  0
 12 16  1  0  0  0  0
 12 13  2  0  0  0  0
 13 14  1  0  0  0  0
 14 15  2  0  0  0  0
 15 16  1  0  0  0  0
 15 35  1  0  0  0  0
 16 18  1  0  0  0  0
 17 36  1  0  0  0  0
 17 37  1  0  0  0  0
M  END
> <s_m_source_file>
AV-unprocessed.smi

> <i_m_source_file_index>
3032

> <i_lp_mmshare_version>
43012

> <i_f3d_flags>
0

> <s_epik_input>
W0NIM11bQ0BASF0xW0NIMl1bQ0gyXVtDSDJdW0NASF0oW0NIMl0xKUMoPU8pW05IXVtDSDJdW0NIMl1jMm5uW2NIXVtuSF0y

> <s_epik_cmdline>
J2VwaWtfcHl0aG9uJywgJy1waCcsICc3LjAnLCAnLXRuJywgJzgnLCAnLW1hJywgJzIwMCcsICctbWV0YWxfYmluZGluZycsICctaW1hZScsICc8aW5maWxlLm1hZT4nLCAnLW9tYWUnLCAnPG91dGZpbGUubWFlPic=

> <r_lp_tautomer_probability>
0.0517155

> <r_epik_Ionization_Penalty>
0.00149837

> <r_epik_Ionization_Penalty_Charging>
0

> <r_epik_Ionization_Penalty_Neutral>
0.00149837

> <r_epik_State_Penalty>
2.1109

> <r_epik_Charging_Adjusted_Penalty>
2.1109

> <i_epik_Tot_Q>
0

> <i_epik_Tot_abs_Q>
0

> <r_epik_Metal_State_Penalty>
2.23635

> <b_epik_Metal_Only>
0

> <s_lp_Force_Field>
OPLS_2005

> <r_lp_Energy>
9.22736

> <b_lp_Chiralities_Consistent>
1

> <s_lp_Variant>
AV-unprocessed.smi:3032-9

> <Gold.Version>
5.8.1

> <Gold.Id.Protein>
6NUR|6NUR_protein|mol2

> <Gold.PLP.Fitness>
34.7520

> <Gold.PLP.PLP>
-26.3682

> <Gold.PLP.part.hbond>
-2.9027

> <Gold.PLP.part.metal>
0.0000

> <Gold.PLP.part.buried>
-4.0645

> <Gold.PLP.part.nonpolar>
-19.5087

> <Gold.PLP.part.repulsive>
0.2051

> <Gold.PLP.ligand.clash>
0.0000

> <Gold.PLP.ligand.torsion>
0.3306

> <Gold.PLP.Chemscore.Hbond>
2.0000

> <Gold.PLP.Chemscore.CHOScore>
1.0000

> <Gold.PLP.Chemscore.Metal>
0.0000

> <Gold.Chemscore.Hbonds>
donor molecule, donor type, donor heavy atom, donor atom, acceptor molecule, acceptor atom, score
      L1  H     9    30       P1  7948  0.83
      L1  H    16    18       P1  7948  0.93
      L1  C    15    35       P1  7957  1.00

> <Gold.PLP.Chemscore.Internal.Correction>
0.0451

> <Gold.Rescore>
     Score         DG    S(hbond)    S(metal)    S(lipo)     H(rot)  DE(clash)    DE(int)     intcor
     12.17     -12.48       1.95        0.00      53.32       2.25       0.01       0.29       ----

> <Gold.Chemscore.Fitness>
12.1731

> <Gold.Chemscore.DG>
-12.4791

> <Gold.Chemscore.ZeroCoef>
-5.4800

> <Gold.Chemscore.Hbond>
1.9525

> <Gold.Chemscore.Metal>
0.0000

> <Gold.Chemscore.Lipo>
53.3178

> <Gold.Chemscore.Internal_Hbond>
0.0000

> <Gold.Chemscore.DEClash>
0.0126

> <Gold.Chemscore.DEInternal>
0.2934

> <Gold.Chemscore.Rot>
2.2501

> <Gold.Chemscore.Internal.Correction>
   9.000000E+99

> <Gold.Chemscore.Hbonds>
donor molecule, donor type, donor heavy atom, donor atom, acceptor molecule, acceptor atom, score
      L1  H     9    30       P1  7948  0.80
      L1  H    16    18       P1  7948  0.73

> <Gold.Chemscore.Hbond.Weighted>
-6.5213

> <Gold.Chemscore.Metal.Weighted>
-0.0000

> <Gold.Chemscore.Lipo.Weighted>
-6.2382

> <Gold.Chemscore.Internal_Hbond.Weighted>
0.0000

> <Gold.Chemscore.DEClash.Weighted>
0.0126

> <Gold.Chemscore.DEInternal.Weighted>
0.2934

> <Gold.Chemscore.Rot.Weighted>
5.7603

> <Gold.Chemscore.Internal.Correction.Weighted>
   9.000000E+99

> <Gold.Protein.RotatedTorsions>
[ 6907 6896 6895 6894 ] final  140.25 input  -60.11 | X-H torsion
[ 7974 7965 7964 7962 ] final   32.60 input  175.53 | X-H torsion
[ 8008 7997 7996 7995 ] final   54.70 input   59.86 | X-H torsion
[ 10167 10162 10161 10158 ] final -178.49 input  -65.29 | X-H torsion
[ 10718 10713 10712 10709 ] final -155.76 input   66.30 | X-H torsion
[ 10763 10752 10751 10750 ] final  106.11 input  -60.55 | X-H torsion
[ 11005 11000 10999 10996 ] final    5.17 input  -57.11 | X-H torsion

> <Gold.Protein.ActiveResidues>
 VAL166  LYS551  ARG553  GLY616  TRP617  ASP618  TYR619  PRO620  LYS621  CYS622 
 ASP623  PHE694  ASN695  SER759  ASP760  ASP761  ALA762  ILE779  LEU786  VAL792 
 PHE793  MET794  SER795  GLU796  ALA797  LYS798  CYS799  TRP800  GLU811  SER814 

> <Gold.Protein.RotatedAtoms>
  152.2453  133.5169  159.5293 H   0  0  0  0  0  0  0  0  0  0  0  0  # atno 6907 bound_to 6896
  150.7076  134.1034  159.3983 H   0  0  0  0  0  0  0  0  0  0  0  0  # atno 6908 bound_to 6896
  151.8954  135.0399  160.0552 H   0  0  0  0  0  0  0  0  0  0  0  0  # atno 6909 bound_to 6896
  146.1476  139.6505  142.9121 H   0  0  0  0  0  0  0  0  0  0  0  0  # atno 7974 bound_to 7965
  155.4889  140.3471  155.4352 H   0  0  0  0  0  0  0  0  0  0  0  0  # atno 8008 bound_to 7997
  156.0990  140.1430  156.9521 H   0  0  0  0  0  0  0  0  0  0  0  0  # atno 8009 bound_to 7997
  154.4681  140.0910  156.7052 H   0  0  0  0  0  0  0  0  0  0  0  0  # atno 8010 bound_to 7997
  139.5430  144.2311  152.0933 H   0  0  0  0  0  0  0  0  0  0  0  0  # atno 10167 bound_to 10162
  156.5173  130.8462  151.2669 H   0  0  0  0  0  0  0  0  0  0  0  0  # atno 10718 bound_to 10713
  153.3885  135.3887  155.1907 H   0  0  0  0  0  0  0  0  0  0  0  0  # atno 10763 bound_to 10752
  154.8716  135.3743  154.4767 H   0  0  0  0  0  0  0  0  0  0  0  0  # atno 10764 bound_to 10752
  153.5251  135.7086  153.5773 H   0  0  0  0  0  0  0  0  0  0  0  0  # atno 10765 bound_to 10752
  140.5737  134.0078  155.8019 H   0  0  0  0  0  0  0  0  0  0  0  0  # atno 11005 bound_to 11000
  145.4901  141.0438  143.2598 LP  0  0  0  0  0  0  0  0  0  0  0  0  # atno 17320 bound_to 7965
  144.7864  139.6417  143.7132 LP  0  0  0  0  0  0  0  0  0  0  0  0  # atno 17321 bound_to 7965
  140.1793  144.4860  150.6537 LP  0  0  0  0  0  0  0  0  0  0  0  0  # atno 17342 bound_to 10162
  140.6668  143.2271  151.5724 LP  0  0  0  0  0  0  0  0  0  0  0  0  # atno 17343 bound_to 10162
  157.7442  130.9929  150.2653 LP  0  0  0  0  0  0  0  0  0  0  0  0  # atno 17370 bound_to 10713
  156.3183  130.3782  149.7598 LP  0  0  0  0  0  0  0  0  0  0  0  0  # atno 17371 bound_to 10713
  141.1040  133.9723  157.3030 LP  0  0  0  0  0  0  0  0  0  0  0  0  # atno 17394 bound_to 11000
  139.9349  135.0197  156.8524 LP  0  0  0  0  0  0  0  0  0  0  0  0  # atno 17395 bound_to 11000

$$$$
