AV-unprocessed.smi:284|AV-procd|sdf|2163|dock7
  -GOLD-   2262021523D 1   1.00000     0.00000
 Structure written by MMmdl.
 60 62  0  0  0  0  0  0  0  0  1 V2000
  147.3253  132.1563  158.3341 C   0  0  0  0  0  0  0  0  0  0  0  0
  147.4817  133.4264  157.5130 C   0  0  0  0  0  0  0  0  0  0  0  0
  146.4357  134.0102  156.8845 C   0  0  0  0  0  0  0  0  0  0  0  0
  146.5443  135.1620  156.1293 N   0  0  0  0  0  0  0  0  0  0  0  0
  145.3321  135.7516  155.4500 C   0  0  2  0  0  0  0  0  0  0  0  0
  144.0540  135.0341  155.8726 C   0  0  0  0  0  0  0  0  0  0  0  0
  143.1702  135.3361  154.6803 C   0  0  2  0  0  0  0  0  0  0  0  0
  142.0930  134.4275  154.5647 O   0  0  0  0  0  0  0  0  0  0  0  0
  144.1697  135.3353  153.5048 C   0  0  2  0  0  0  0  0  0  0  0  0
  144.2561  134.0693  152.6241 C   0  0  0  0  0  0  0  0  0  0  0  0
  144.8612  132.9790  153.2890 O   0  0  0  0  0  0  0  0  0  0  0  0
  145.4573  135.5867  154.0701 O   0  0  0  0  0  0  0  0  0  0  0  0
  147.7942  135.8003  156.0027 C   0  0  0  0  0  0  0  0  0  0  0  0
  147.9142  136.8384  155.3477 O   0  0  0  0  0  0  0  0  0  0  0  0
  148.9070  135.2195  156.6521 N   0  0  0  0  0  0  0  0  0  0  0  0
  150.2270  135.8733  156.5077 C   0  0  0  0  0  0  0  0  0  0  0  0
  150.4614  137.0136  157.5112 C   0  0  0  0  0  0  0  0  0  0  0  0
  150.4048  136.7985  158.7222 O   0  0  0  0  0  0  0  0  0  0  0  0
  150.6873  138.2191  156.9574 N   0  0  0  0  0  0  0  0  0  0  0  0
  150.9436  139.4670  157.5893 C   0  0  0  0  0  0  0  0  0  0  0  0
  151.6382  139.6083  158.8130 C   0  0  0  0  0  0  0  0  0  0  0  0
  151.8629  140.8856  159.3625 C   0  0  0  0  0  0  0  0  0  0  0  0
  151.4092  142.0541  158.7020 C   0  0  0  0  0  0  0  0  0  0  0  0
  151.6396  143.4673  159.2711 C   0  0  0  0  0  0  0  0  0  0  0  0
  152.4404  143.3670  160.5854 C   0  0  0  0  0  0  0  0  0  0  0  0
  150.3230  144.2158  159.5779 C   0  0  0  0  0  0  0  0  0  0  0  0
  152.4314  144.3181  158.2552 C   0  0  0  0  0  0  0  0  0  0  0  0
  150.7318  141.9007  157.4701 C   0  0  0  0  0  0  0  0  0  0  0  0
  150.5042  140.6254  156.9203 C   0  0  0  0  0  0  0  0  0  0  0  0
  148.8140  134.0270  157.4116 C   0  0  0  0  0  0  0  0  0  0  0  0
  149.8143  133.5409  157.9434 O   0  0  0  0  0  0  0  0  0  0  0  0
  146.2975  131.7921  158.3261 H   0  0  0  0  0  0  0  0  0  0  0  0
  147.6078  132.3364  159.3719 H   0  0  0  0  0  0  0  0  0  0  0  0
  147.9620  131.3647  157.9375 H   0  0  0  0  0  0  0  0  0  0  0  0
  145.4632  133.5508  156.9796 H   0  0  0  0  0  0  0  0  0  0  0  0
  145.3096  136.8222  155.6571 H   0  0  0  0  0  0  0  0  0  0  0  0
  144.2435  133.9636  155.9647 H   0  0  0  0  0  0  0  0  0  0  0  0
  143.6747  135.4183  156.8198 H   0  0  0  0  0  0  0  0  0  0  0  0
  142.7599  136.3404  154.7963 H   0  0  0  0  0  0  0  0  0  0  0  0
  142.4407  133.5702  154.3719 H   0  0  0  0  0  0  0  0  0  0  0  0
  143.9334  136.1749  152.8500 H   0  0  0  0  0  0  0  0  0  0  0  0
  143.2540  133.7616  152.3243 H   0  0  0  0  0  0  0  0  0  0  0  0
  144.8069  134.2815  151.7076 H   0  0  0  0  0  0  0  0  0  0  0  0
  145.7858  133.1540  153.3738 H   0  0  0  0  0  0  0  0  0  0  0  0
  151.0302  135.1412  156.6095 H   0  0  0  0  0  0  0  0  0  0  0  0
  150.3652  136.2727  155.5021 H   0  0  0  0  0  0  0  0  0  0  0  0
  150.6208  138.2547  155.9506 H   0  0  0  0  0  0  0  0  0  0  0  0
  152.0231  138.7542  159.3473 H   0  0  0  0  0  0  0  0  0  0  0  0
  152.3956  140.9364  160.2988 H   0  0  0  0  0  0  0  0  0  0  0  0
  152.6115  144.3517  161.0216 H   0  0  0  0  0  0  0  0  0  0  0  0
  153.4180  142.9089  160.4355 H   0  0  0  0  0  0  0  0  0  0  0  0
  151.9083  142.7693  161.3263 H   0  0  0  0  0  0  0  0  0  0  0  0
  149.7292  143.6979  160.3321 H   0  0  0  0  0  0  0  0  0  0  0  0
  149.7091  144.3341  158.6841 H   0  0  0  0  0  0  0  0  0  0  0  0
  150.5196  145.2167  159.9641 H   0  0  0  0  0  0  0  0  0  0  0  0
  152.5840  145.3336  158.6225 H   0  0  0  0  0  0  0  0  0  0  0  0
  151.9017  144.3907  157.3046 H   0  0  0  0  0  0  0  0  0  0  0  0
  153.4188  143.9050  158.0504 H   0  0  0  0  0  0  0  0  0  0  0  0
  150.3791  142.7660  156.9294 H   0  0  0  0  0  0  0  0  0  0  0  0
  149.9841  140.5416  155.9772 H   0  0  0  0  0  0  0  0  0  0  0  0
  1  2  1  0  0  0  0
  1 32  1  0  0  0  0
  1 33  1  0  0  0  0
  1 34  1  0  0  0  0
  2 30  1  0  0  0  0
  2  3  2  0  0  0  0
  3  4  1  0  0  0  0
  3 35  1  0  0  0  0
  4  5  1  0  0  0  0
  4 13  1  0  0  0  0
  5 12  1  0  0  0  0
  5  6  1  0  0  0  0
  5 36  1  0  0  0  0
  6  7  1  0  0  0  0
  6 37  1  0  0  0  0
  6 38  1  0  0  0  0
  7  8  1  0  0  0  0
  7  9  1  0  0  0  0
  7 39  1  0  0  0  0
  8 40  1  0  0  0  0
  9 10  1  0  0  0  0
  9 12  1  0  0  0  0
  9 41  1  0  0  0  0
 10 11  1  0  0  0  0
 10 42  1  0  0  0  0
 10 43  1  0  0  0  0
 11 44  1  0  0  0  0
 13 14  2  0  0  0  0
 13 15  1  0  0  0  0
 15 16  1  0  0  0  0
 15 30  1  0  0  0  0
 16 17  1  0  0  0  0
 16 45  1  0  0  0  0
 16 46  1  0  0  0  0
 17 18  2  0  0  0  0
 17 19  1  0  0  0  0
 19 20  1  0  0  0  0
 19 47  1  0  0  0  0
 20 29  1  0  0  0  0
 20 21  2  0  0  0  0
 21 22  1  0  0  0  0
 21 48  1  0  0  0  0
 22 23  2  0  0  0  0
 22 49  1  0  0  0  0
 23 24  1  0  0  0  0
 23 28  1  0  0  0  0
 24 25  1  0  0  0  0
 24 26  1  0  0  0  0
 24 27  1  0  0  0  0
 25 50  1  0  0  0  0
 25 51  1  0  0  0  0
 25 52  1  0  0  0  0
 26 53  1  0  0  0  0
 26 54  1  0  0  0  0
 26 55  1  0  0  0  0
 27 56  1  0  0  0  0
 27 57  1  0  0  0  0
 27 58  1  0  0  0  0
 28 29  2  0  0  0  0
 28 59  1  0  0  0  0
 29 60  1  0  0  0  0
 30 31  2  0  0  0  0
M  END
> <s_m_source_file>
AV-unprocessed.smi

> <i_m_source_file_index>
284

> <i_lp_mmshare_version>
43012

> <i_f3d_flags>
0

> <s_epik_input>
W09IXVtDSDJdW0NAQEhdKE8xKVtDQEhdKFtPSF0pW0NIMl1bQ0BIXTFuKFtjSF1jMltDSDNdKWMoPU8pbihjMj1PKVtDSDJdQyg9TylbTkhdYzNbY0hdW2NIXWMoQyhbQ0gzXSkoW0NIM10pW0NIM10pW2NIXVtjSF0z

> <s_epik_cmdline>
J2VwaWtfcHl0aG9uJywgJy1waCcsICc3LjAnLCAnLXRuJywgJzgnLCAnLW1hJywgJzIwMCcsICctbWV0YWxfYmluZGluZycsICctaW1hZScsICc8aW5maWxlLm1hZT4nLCAnLW9tYWUnLCAnPG91dGZpbGUubWFlPic=

> <r_lp_tautomer_probability>
1

> <r_epik_Ionization_Penalty>
4.92358e-06

> <r_epik_Ionization_Penalty_Charging>
1.29777e-07

> <r_epik_Ionization_Penalty_Neutral>
4.79381e-06

> <r_epik_State_Penalty>
-0

> <r_epik_Charging_Adjusted_Penalty>
1.29777e-07

> <i_epik_Tot_Q>
0

> <i_epik_Tot_abs_Q>
0

> <r_epik_Metal_State_Penalty>
-0

> <b_epik_Metal_Only>
0

> <s_epik_Chemistry_Notes>
This compound contains an acetal/aminal-like group ( X-CH(R)-Y where X, Y are N, S, or O) that may be acid/base labile, releasing an aldehyde.

> <s_lp_Force_Field>
OPLS_2005

> <r_lp_Energy>
44.8012

> <b_lp_Chiralities_Consistent>
1

> <s_lp_Variant>
AV-unprocessed.smi:284-7

> <Gold.Version>
5.8.1

> <Gold.Id.Protein>
6NUR|6NUR_protein|mol2

> <Gold.PLP.Fitness>
46.3497

> <Gold.PLP.PLP>
-36.5184

> <Gold.PLP.part.hbond>
-5.0000

> <Gold.PLP.part.metal>
0.0000

> <Gold.PLP.part.buried>
-7.0492

> <Gold.PLP.part.nonpolar>
-25.6165

> <Gold.PLP.part.repulsive>
0.1228

> <Gold.PLP.ligand.clash>
0.0000

> <Gold.PLP.ligand.torsion>
0.7650

> <Gold.PLP.Chemscore.Hbond>
3.7680

> <Gold.PLP.Chemscore.CHOScore>
0.0000

> <Gold.PLP.Chemscore.Metal>
0.0000

> <Gold.Chemscore.Hbonds>
donor molecule, donor type, donor heavy atom, donor atom, acceptor molecule, acceptor atom, score
      L1  H     8    40       P1 10957  1.00
      P1  H  6896  6908       L1    31  0.93
      P1  H  6896  6909       L1    18  0.59
      P1  H 11000 11005       L1     8  0.88

> <Gold.PLP.Chemscore.Internal.Correction>
0.0574

> <Gold.Rescore>
     Score         DG    S(hbond)    S(metal)    S(lipo)     H(rot)  DE(clash)    DE(int)     intcor
     18.42     -20.27       3.34        0.00     102.69       3.27       0.00       1.85       ----

> <Gold.Chemscore.Fitness>
18.4207

> <Gold.Chemscore.DG>
-20.2735

> <Gold.Chemscore.ZeroCoef>
-5.4800

> <Gold.Chemscore.Hbond>
3.3409

> <Gold.Chemscore.Metal>
0.0000

> <Gold.Chemscore.Lipo>
102.6914

> <Gold.Chemscore.Internal_Hbond>
0.0000

> <Gold.Chemscore.DEClash>
0.0033

> <Gold.Chemscore.DEInternal>
1.8495

> <Gold.Chemscore.Rot>
3.2735

> <Gold.Chemscore.Internal.Correction>
   9.000000E+99

> <Gold.Chemscore.Hbonds>
donor molecule, donor type, donor heavy atom, donor atom, acceptor molecule, acceptor atom, score
      L1  H     8    40       P1 10957  0.95
      P1  H  6896  6908       L1    31  0.91
      P1  H  6896  6909       L1    18  0.56
      P1  H 11000 11005       L1     8  0.22

> <Gold.Chemscore.Hbond.Weighted>
-11.1587

> <Gold.Chemscore.Metal.Weighted>
-0.0000

> <Gold.Chemscore.Lipo.Weighted>
-12.0149

> <Gold.Chemscore.Internal_Hbond.Weighted>
0.0000

> <Gold.Chemscore.DEClash.Weighted>
0.0033

> <Gold.Chemscore.DEInternal.Weighted>
1.8495

> <Gold.Chemscore.Rot.Weighted>
8.3801

> <Gold.Chemscore.Internal.Correction.Weighted>
   9.000000E+99

> <Gold.Protein.RotatedTorsions>
[ 6907 6896 6895 6894 ] final   99.18 input  -60.11 | X-H torsion
[ 7974 7965 7964 7962 ] final  151.08 input  175.53 | X-H torsion
[ 8008 7997 7996 7995 ] final -148.56 input   59.86 | X-H torsion
[ 10167 10162 10161 10158 ] final   94.34 input  -65.29 | X-H torsion
[ 10718 10713 10712 10709 ] final  -95.99 input   66.30 | X-H torsion
[ 10763 10752 10751 10750 ] final -123.10 input  -60.55 | X-H torsion
[ 11005 11000 10999 10996 ] final   -1.79 input  -57.11 | X-H torsion

> <Gold.Protein.ActiveResidues>
 VAL166  LYS551  ARG553  GLY616  TRP617  ASP618  TYR619  PRO620  LYS621  CYS622 
 ASP623  PHE694  ASN695  SER759  ASP760  ASP761  ALA762  ILE779  LEU786  VAL792 
 PHE793  MET794  SER795  GLU796  ALA797  LYS798  CYS799  TRP800  GLU811  SER814 

> <Gold.Protein.RotatedAtoms>
  152.5396  134.0468  159.8091 H   0  0  0  0  0  0  0  0  0  0  0  0  # atno 6907 bound_to 6896
  151.0615  133.5532  159.2641 H   0  0  0  0  0  0  0  0  0  0  0  0  # atno 6908 bound_to 6896
  151.2429  135.0603  159.9086 H   0  0  0  0  0  0  0  0  0  0  0  0  # atno 6909 bound_to 6896
  144.8318  139.6491  143.6055 H   0  0  0  0  0  0  0  0  0  0  0  0  # atno 7974 bound_to 7965
  155.5935  140.0655  157.2752 H   0  0  0  0  0  0  0  0  0  0  0  0  # atno 8008 bound_to 7997
  154.4298  140.1831  156.1146 H   0  0  0  0  0  0  0  0  0  0  0  0  # atno 8009 bound_to 7997
  156.0214  140.3316  155.7046 H   0  0  0  0  0  0  0  0  0  0  0  0  # atno 8010 bound_to 7997
  139.8093  144.6780  150.9662 H   0  0  0  0  0  0  0  0  0  0  0  0  # atno 10167 bound_to 10162
  156.0053  130.5132  150.6159 H   0  0  0  0  0  0  0  0  0  0  0  0  # atno 10718 bound_to 10713
  154.8702  135.4110  154.2888 H   0  0  0  0  0  0  0  0  0  0  0  0  # atno 10763 bound_to 10752
  153.3768  135.7010  153.6601 H   0  0  0  0  0  0  0  0  0  0  0  0  # atno 10764 bound_to 10752
  153.5440  135.3642  155.2702 H   0  0  0  0  0  0  0  0  0  0  0  0  # atno 10765 bound_to 10752
  140.6512  133.9402  155.8381 H   0  0  0  0  0  0  0  0  0  0  0  0  # atno 11005 bound_to 11000
  146.2620  139.6433  142.9355 LP  0  0  0  0  0  0  0  0  0  0  0  0  # atno 17320 bound_to 7965
  145.4879  141.0438  143.2609 LP  0  0  0  0  0  0  0  0  0  0  0  0  # atno 17321 bound_to 7965
  140.7818  143.4202  151.0854 LP  0  0  0  0  0  0  0  0  0  0  0  0  # atno 17342 bound_to 10162
  139.7869  143.8274  152.3146 LP  0  0  0  0  0  0  0  0  0  0  0  0  # atno 17343 bound_to 10162
  157.3983  131.0806  151.1332 LP  0  0  0  0  0  0  0  0  0  0  0  0  # atno 17370 bound_to 10713
  157.2001  130.6391  149.5735 LP  0  0  0  0  0  0  0  0  0  0  0  0  # atno 17371 bound_to 10713
  141.0535  134.0450  157.3753 LP  0  0  0  0  0  0  0  0  0  0  0  0  # atno 17394 bound_to 11000
  139.9045  135.0175  156.7423 LP  0  0  0  0  0  0  0  0  0  0  0  0  # atno 17395 bound_to 11000

$$$$
