AV-unprocessed.smi:2706|AV-procd|sdf|10447|dock8
  -GOLD-   2272014493D 1   1.00000     0.00000
 Structure written by MMmdl.
 43 46  0  0  0  0  0  0  0  0  1 V2000
  153.3193  142.3107  162.2886 C   0  0  0  0  0  0  0  0  0  0  0  0
  152.8976  142.2376  160.8930 N   0  0  0  0  0  0  0  0  0  0  0  0
  153.2562  141.0793  160.0845 C   0  0  0  0  0  0  0  0  0  0  0  0
  152.0938  143.2649  160.3487 C   0  0  0  0  0  0  0  0  0  0  0  0
  152.2457  144.6153  160.7459 C   0  0  0  0  0  0  0  0  0  0  0  0
  151.4162  145.5920  160.1664 C   0  0  0  0  0  0  0  0  0  0  0  0
  150.4620  145.1981  159.2111 C   0  0  0  0  0  0  0  0  0  0  0  0
  150.3612  143.8354  158.8610 C   0  0  0  0  0  0  0  0  0  0  0  0
  149.3716  143.5307  157.8889 N   0  0  0  0  0  0  0  0  0  0  0  0
  148.5648  142.4560  157.8345 C   0  0  0  0  0  0  0  0  0  0  0  0
  148.5464  141.5369  158.6542 O   0  0  0  0  0  0  0  0  0  0  0  0
  147.7668  142.5075  156.7595 N   0  0  0  0  0  0  0  0  0  0  0  0
  146.7855  141.5354  156.3993 C   0  0  2  0  0  0  0  0  0  0  0  0
  147.1819  140.1744  155.8565 C   0  0  2  0  0  0  0  0  0  0  0  0
  148.3984  139.7332  155.0346 C   0  0  2  0  0  0  0  0  0  0  0  0
  149.4806  140.8249  154.9121 C   0  0  0  0  0  0  0  0  0  0  0  0
  148.8024  141.8600  153.9880 C   0  0  0  0  0  0  0  0  0  0  0  0
  147.4300  141.2112  153.7169 C   0  0  1  0  0  0  0  0  0  0  0  0
  147.8325  139.7440  153.6190 C   0  0  0  0  0  0  0  0  0  0  0  0
  146.5112  141.1988  154.9444 C   0  0  2  0  0  0  0  0  0  0  0  0
  151.1673  142.9053  159.4276 N   0  0  0  0  0  0  0  0  0  0  0  0
  153.8835  143.2257  162.4723 H   0  0  0  0  0  0  0  0  0  0  0  0
  153.9562  141.4682  162.5574 H   0  0  0  0  0  0  0  0  0  0  0  0
  152.4524  142.3004  162.9501 H   0  0  0  0  0  0  0  0  0  0  0  0
  153.8627  141.3823  159.2307 H   0  0  0  0  0  0  0  0  0  0  0  0
  152.3622  140.5734  159.7184 H   0  0  0  0  0  0  0  0  0  0  0  0
  153.8321  140.3564  160.6621 H   0  0  0  0  0  0  0  0  0  0  0  0
  152.9767  144.9194  161.4796 H   0  0  0  0  0  0  0  0  0  0  0  0
  151.5107  146.6294  160.4513 H   0  0  0  0  0  0  0  0  0  0  0  0
  149.8177  145.9367  158.7564 H   0  0  0  0  0  0  0  0  0  0  0  0
  149.2679  144.2085  157.1485 H   0  0  0  0  0  0  0  0  0  0  0  0
  147.8551  143.3027  156.1438 H   0  0  0  0  0  0  0  0  0  0  0  0
  145.8979  141.5248  157.0305 H   0  0  0  0  0  0  0  0  0  0  0  0
  146.5543  139.3429  156.1725 H   0  0  0  0  0  0  0  0  0  0  0  0
  148.7819  138.7663  155.3616 H   0  0  0  0  0  0  0  0  0  0  0  0
  149.7963  141.2254  155.8745 H   0  0  0  0  0  0  0  0  0  0  0  0
  150.3723  140.4215  154.4306 H   0  0  0  0  0  0  0  0  0  0  0  0
  148.7276  142.8588  154.4161 H   0  0  0  0  0  0  0  0  0  0  0  0
  149.3647  141.9567  153.0584 H   0  0  0  0  0  0  0  0  0  0  0  0
  146.9240  141.6015  152.8335 H   0  0  0  0  0  0  0  0  0  0  0  0
  148.5742  139.5395  152.8443 H   0  0  0  0  0  0  0  0  0  0  0  0
  146.9832  139.0707  153.4876 H   0  0  0  0  0  0  0  0  0  0  0  0
  145.4696  140.9998  154.6979 H   0  0  0  0  0  0  0  0  0  0  0  0
  1  2  1  0  0  0  0
  1 22  1  0  0  0  0
  1 23  1  0  0  0  0
  1 24  1  0  0  0  0
  2  3  1  0  0  0  0
  2  4  1  0  0  0  0
  3 25  1  0  0  0  0
  3 26  1  0  0  0  0
  3 27  1  0  0  0  0
  4 21  1  0  0  0  0
  4  5  2  0  0  0  0
  5  6  1  0  0  0  0
  5 28  1  0  0  0  0
  6  7  2  0  0  0  0
  6 29  1  0  0  0  0
  7  8  1  0  0  0  0
  7 30  1  0  0  0  0
  8  9  1  0  0  0  0
  8 21  2  0  0  0  0
  9 10  1  0  0  0  0
  9 31  1  0  0  0  0
 10 11  2  0  0  0  0
 10 12  1  0  0  0  0
 12 13  1  0  0  0  0
 12 32  1  0  0  0  0
 13 20  1  0  0  0  0
 13 14  1  0  0  0  0
 13 33  1  0  0  0  0
 14 20  1  0  0  0  0
 14 15  1  0  0  0  0
 14 34  1  0  0  0  0
 15 19  1  0  0  0  0
 15 16  1  0  0  0  0
 15 35  1  0  0  0  0
 16 17  1  0  0  0  0
 16 36  1  0  0  0  0
 16 37  1  0  0  0  0
 17 18  1  0  0  0  0
 17 38  1  0  0  0  0
 17 39  1  0  0  0  0
 18 19  1  0  0  0  0
 18 20  1  0  0  0  0
 18 40  1  0  0  0  0
 19 41  1  0  0  0  0
 19 42  1  0  0  0  0
 20 43  1  0  0  0  0
M  END
> <s_m_source_file>
AV-unprocessed.smi

> <i_m_source_file_index>
2706

> <i_lp_mmshare_version>
43012

> <i_f3d_flags>
0

> <s_epik_input>
W0NIM11OKFtDSDNdKWMxW2NIXVtjSF1bY0hdYyhuMSlbTkhdQyg9TylbTkhdW0NASF0yW0NAQEhdM1tDQEBIXShbQ0gyXTQpW0NIMl1bQ0gyXVtDQEBIXTRbQ0BIXTIz

> <s_epik_cmdline>
J2VwaWtfcHl0aG9uJywgJy1waCcsICc3LjAnLCAnLXRuJywgJzgnLCAnLW1hJywgJzIwMCcsICctbWV0YWxfYmluZGluZycsICctaW1hZScsICc8aW5maWxlLm1hZT4nLCAnLW9tYWUnLCAnPG91dGZpbGUubWFlPic=

> <r_lp_tautomer_probability>
1

> <r_epik_Ionization_Penalty>
0.0296788

> <r_epik_Ionization_Penalty_Charging>
0

> <r_epik_Ionization_Penalty_Neutral>
0.0296788

> <r_epik_State_Penalty>
0.0248512

> <r_epik_Charging_Adjusted_Penalty>
0.0248512

> <i_epik_Tot_Q>
0

> <i_epik_Tot_abs_Q>
0

> <r_epik_Metal_State_Penalty>
0.0237882

> <b_epik_Metal_Only>
0

> <s_lp_Force_Field>
OPLS_2005

> <r_lp_Energy>
85.7316

> <b_lp_Chiralities_Consistent>
1

> <s_lp_Variant>
AV-unprocessed.smi:2706-4

> <Gold.Version>
5.8.1

> <Gold.Id.Protein>
6NUR|6NUR_protein|mol2

> <Gold.PLP.Fitness>
45.4068

> <Gold.PLP.PLP>
-41.3704

> <Gold.PLP.part.hbond>
-5.0000

> <Gold.PLP.part.metal>
0.0000

> <Gold.PLP.part.buried>
-0.8072

> <Gold.PLP.part.nonpolar>
-36.0465

> <Gold.PLP.part.repulsive>
0.0839

> <Gold.PLP.ligand.clash>
0.0000

> <Gold.PLP.ligand.torsion>
0.9833

> <Gold.PLP.Chemscore.Hbond>
1.9760

> <Gold.PLP.Chemscore.CHOScore>
0.0000

> <Gold.PLP.Chemscore.Metal>
0.0000

> <Gold.Chemscore.Hbonds>
donor molecule, donor type, donor heavy atom, donor atom, acceptor molecule, acceptor atom, score
      L1  H     9    31       P1  8028  0.85
      L1  H    12    32       P1  8028  0.80

> <Gold.PLP.Chemscore.Internal.Correction>
0.0750

> <Gold.Rescore>
     Score         DG    S(hbond)    S(metal)    S(lipo)     H(rot)  DE(clash)    DE(int)     intcor
     16.36     -19.49       1.61        0.00      95.60       1.00       1.50       1.63       ----

> <Gold.Chemscore.Fitness>
16.3630

> <Gold.Chemscore.DG>
-19.4928

> <Gold.Chemscore.ZeroCoef>
-5.4800

> <Gold.Chemscore.Hbond>
1.6130

> <Gold.Chemscore.Metal>
0.0000

> <Gold.Chemscore.Lipo>
95.6014

> <Gold.Chemscore.Internal_Hbond>
0.0000

> <Gold.Chemscore.DEClash>
1.5004

> <Gold.Chemscore.DEInternal>
1.6294

> <Gold.Chemscore.Rot>
1.0000

> <Gold.Chemscore.Internal.Correction>
   9.000000E+99

> <Gold.Chemscore.Hbonds>
donor molecule, donor type, donor heavy atom, donor atom, acceptor molecule, acceptor atom, score
      L1  H     9    31       P1  8028  0.14
      L1  H    12    32       P1  8028  0.13

> <Gold.Chemscore.Hbond.Weighted>
-5.3874

> <Gold.Chemscore.Metal.Weighted>
-0.0000

> <Gold.Chemscore.Lipo.Weighted>
-11.1854

> <Gold.Chemscore.Internal_Hbond.Weighted>
0.0000

> <Gold.Chemscore.DEClash.Weighted>
1.5004

> <Gold.Chemscore.DEInternal.Weighted>
1.6294

> <Gold.Chemscore.Rot.Weighted>
2.5600

> <Gold.Chemscore.Internal.Correction.Weighted>
   9.000000E+99

> <Gold.Protein.RotatedTorsions>
[ 6907 6896 6895 6894 ] final -110.73 input  -60.11 | X-H torsion
[ 7974 7965 7964 7962 ] final   94.20 input  175.53 | X-H torsion
[ 8008 7997 7996 7995 ] final  -59.62 input   59.86 | X-H torsion
[ 10167 10162 10161 10158 ] final  -48.00 input  -65.29 | X-H torsion
[ 10718 10713 10712 10709 ] final -125.04 input   66.30 | X-H torsion
[ 10763 10752 10751 10750 ] final   41.39 input  -60.55 | X-H torsion
[ 11005 11000 10999 10996 ] final   22.89 input  -57.11 | X-H torsion

> <Gold.Protein.ActiveResidues>
 VAL166  LYS551  ARG553  GLY616  TRP617  ASP618  TYR619  PRO620  LYS621  CYS622 
 ASP623  PHE694  ASN695  SER759  ASP760  ASP761  ALA762  ILE779  LEU786  VAL792 
 PHE793  MET794  SER795  GLU796  ALA797  LYS798  CYS799  TRP800  GLU811  SER814 

> <Gold.Protein.RotatedAtoms>
  150.7644  133.9338  159.3434 H   0  0  0  0  0  0  0  0  0  0  0  0  # atno 6907 bound_to 6896
  151.7239  135.0886  160.0298 H   0  0  0  0  0  0  0  0  0  0  0  0  # atno 6908 bound_to 6896
  152.3632  133.6286  159.6066 H   0  0  0  0  0  0  0  0  0  0  0  0  # atno 6909 bound_to 6896
  145.4687  139.2283  143.2947 H   0  0  0  0  0  0  0  0  0  0  0  0  # atno 7974 bound_to 7965
  154.4361  140.1057  156.6145 H   0  0  0  0  0  0  0  0  0  0  0  0  # atno 8008 bound_to 7997
  155.5774  140.3490  155.4512 H   0  0  0  0  0  0  0  0  0  0  0  0  # atno 8009 bound_to 7997
  156.0344  140.1268  157.0213 H   0  0  0  0  0  0  0  0  0  0  0  0  # atno 8010 bound_to 7997
  140.6750  143.2759  151.4008 H   0  0  0  0  0  0  0  0  0  0  0  0  # atno 10167 bound_to 10162
  156.1640  130.6622  151.0090 H   0  0  0  0  0  0  0  0  0  0  0  0  # atno 10718 bound_to 10713
  152.9909  135.6163  154.2780 H   0  0  0  0  0  0  0  0  0  0  0  0  # atno 10763 bound_to 10752
  154.2510  135.2785  155.2818 H   0  0  0  0  0  0  0  0  0  0  0  0  # atno 10764 bound_to 10752
  154.5288  135.5794  153.6799 H   0  0  0  0  0  0  0  0  0  0  0  0  # atno 10765 bound_to 10752
  140.3756  134.1975  155.7665 H   0  0  0  0  0  0  0  0  0  0  0  0  # atno 11005 bound_to 11000
  146.2409  140.5463  142.8934 LP  0  0  0  0  0  0  0  0  0  0  0  0  # atno 17320 bound_to 7965
  144.7958  140.6120  143.6511 LP  0  0  0  0  0  0  0  0  0  0  0  0  # atno 17321 bound_to 7965
  139.6038  144.1240  152.2227 LP  0  0  0  0  0  0  0  0  0  0  0  0  # atno 17342 bound_to 10162
  140.0632  144.5839  150.7247 LP  0  0  0  0  0  0  0  0  0  0  0  0  # atno 17343 bound_to 10162
  157.6754  131.0851  150.7507 LP  0  0  0  0  0  0  0  0  0  0  0  0  # atno 17370 bound_to 10713
  156.7569  130.4786  149.5445 LP  0  0  0  0  0  0  0  0  0  0  0  0  # atno 17371 bound_to 10713
  141.1940  133.8137  157.0774 LP  0  0  0  0  0  0  0  0  0  0  0  0  # atno 17394 bound_to 11000
  140.0518  134.9801  157.1149 LP  0  0  0  0  0  0  0  0  0  0  0  0  # atno 17395 bound_to 11000

$$$$
