AV-unprocessed.smi:2124|AV-procd|sdf|8666|dock4
  -GOLD-   2272011413D 1   1.00000     0.00000
 Structure written by MMmdl.
 46 48  0  0  0  0  0  0  0  0  2 V2000
  148.2816  139.9766  154.1873 C   0  0  0  0  0  0  0  0  0  0  0  0
  149.2975  139.5636  155.2307 C   0  0  0  0  0  0  0  0  0  0  0  0
  148.8906  139.0826  156.3431 N   0  0  0  0  0  0  0  0  0  0  0  0
  149.8299  138.6895  157.3115 C   0  0  0  0  0  0  0  0  0  0  0  0
  149.2545  138.1212  158.5968 C   0  0  0  0  0  0  0  0  0  0  0  0
  151.1698  138.8154  157.0881 C   0  0  0  0  0  0  0  0  0  0  0  0
  152.2308  138.3940  158.1041 C   0  0  0  0  0  0  0  0  0  0  0  0
  153.1147  139.5233  158.6370 C   0  0  0  0  0  0  0  0  0  0  0  0
  154.3373  139.3862  158.6710 O   0  0  0  0  0  0  0  0  0  0  0  0
  152.4830  140.6331  159.0506 N   0  0  0  0  0  0  0  0  0  0  0  0
  153.1261  141.8301  159.5880 C   0  0  2  0  0  0  0  0  0  0  0  0
  153.9114  141.4666  160.8602 C   0  0  0  0  0  0  0  0  0  0  0  0
  152.0519  142.9119  159.8481 C   0  0  2  0  0  0  0  0  0  0  0  0
  150.7964  142.8088  158.9513 C   0  0  0  0  0  0  0  0  0  0  0  0
  150.6203  144.2485  158.4337 C   0  0  2  0  0  0  0  0  0  0  0  0
  151.6954  144.5320  157.3690 C   0  0  0  0  0  0  0  0  0  0  0  0
  152.9789  144.6535  158.2103 C   0  0  0  0  0  0  0  0  0  0  0  0
  152.4757  144.3881  159.6448 C   0  0  1  0  0  0  0  0  0  0  0  0
  151.1162  145.0794  159.6114 C   0  0  0  0  0  0  0  0  0  0  0  0
  151.5968  139.3812  155.7953 C   0  0  0  0  0  0  0  0  0  0  0  0
  152.7926  139.5271  155.5449 O   0  0  0  0  0  0  0  0  0  0  0  0
  150.6245  139.7323  154.9059 N   0  5  0  0  0  0  0  0  0  0  0  0
  147.2671  139.9292  154.5857 H   0  0  0  0  0  0  0  0  0  0  0  0
  148.3412  139.3155  153.3226 H   0  0  0  0  0  0  0  0  0  0  0  0
  148.4702  140.9984  153.8563 H   0  0  0  0  0  0  0  0  0  0  0  0
  149.5920  137.0960  158.7490 H   0  0  0  0  0  0  0  0  0  0  0  0
  148.1643  138.1134  158.5713 H   0  0  0  0  0  0  0  0  0  0  0  0
  149.5631  138.7210  159.4520 H   0  0  0  0  0  0  0  0  0  0  0  0
  151.7322  137.9025  158.9402 H   0  0  0  0  0  0  0  0  0  0  0  0
  152.8796  137.6229  157.6876 H   0  0  0  0  0  0  0  0  0  0  0  0
  151.4761  140.6530  158.9801 H   0  0  0  0  0  0  0  0  0  0  0  0
  153.8278  142.2025  158.8408 H   0  0  0  0  0  0  0  0  0  0  0  0
  154.4452  142.3296  161.2575 H   0  0  0  0  0  0  0  0  0  0  0  0
  154.6542  140.6944  160.6584 H   0  0  0  0  0  0  0  0  0  0  0  0
  153.2493  141.0948  161.6429 H   0  0  0  0  0  0  0  0  0  0  0  0
  151.7297  142.8101  160.8864 H   0  0  0  0  0  0  0  0  0  0  0  0
  150.9155  142.1009  158.1301 H   0  0  0  0  0  0  0  0  0  0  0  0
  149.9329  142.4917  159.5374 H   0  0  0  0  0  0  0  0  0  0  0  0
  149.6065  144.4738  158.1015 H   0  0  0  0  0  0  0  0  0  0  0  0
  151.7598  143.7385  156.6237 H   0  0  0  0  0  0  0  0  0  0  0  0
  151.4903  145.4666  156.8453 H   0  0  0  0  0  0  0  0  0  0  0  0
  153.7626  143.9686  157.8894 H   0  0  0  0  0  0  0  0  0  0  0  0
  153.3838  145.6634  158.1325 H   0  0  0  0  0  0  0  0  0  0  0  0
  153.1482  144.7600  160.4181 H   0  0  0  0  0  0  0  0  0  0  0  0
  151.1773  146.1471  159.3934 H   0  0  0  0  0  0  0  0  0  0  0  0
  150.5307  144.9336  160.5209 H   0  0  0  0  0  0  0  0  0  0  0  0
  1  2  1  0  0  0  0
  1 23  1  0  0  0  0
  1 24  1  0  0  0  0
  1 25  1  0  0  0  0
  2 22  1  0  0  0  0
  2  3  2  0  0  0  0
  3  4  1  0  0  0  0
  4  5  1  0  0  0  0
  4  6  2  0  0  0  0
  5 26  1  0  0  0  0
  5 27  1  0  0  0  0
  5 28  1  0  0  0  0
  6  7  1  0  0  0  0
  6 20  1  0  0  0  0
  7  8  1  0  0  0  0
  7 29  1  0  0  0  0
  7 30  1  0  0  0  0
  8  9  2  0  0  0  0
  8 10  1  0  0  0  0
 10 11  1  0  0  0  0
 10 31  1  0  0  0  0
 11 12  1  0  0  0  0
 11 13  1  0  0  0  0
 11 32  1  0  0  0  0
 12 33  1  0  0  0  0
 12 34  1  0  0  0  0
 12 35  1  0  0  0  0
 13 18  1  0  0  0  0
 13 14  1  0  0  0  0
 13 36  1  0  0  0  0
 14 15  1  0  0  0  0
 14 37  1  0  0  0  0
 14 38  1  0  0  0  0
 15 19  1  0  0  0  0
 15 16  1  0  0  0  0
 15 39  1  0  0  0  0
 16 17  1  0  0  0  0
 16 40  1  0  0  0  0
 16 41  1  0  0  0  0
 17 18  1  0  0  0  0
 17 42  1  0  0  0  0
 17 43  1  0  0  0  0
 18 19  1  0  0  0  0
 18 44  1  0  0  0  0
 19 45  1  0  0  0  0
 19 46  1  0  0  0  0
 20 21  2  0  0  0  0
 20 22  1  0  0  0  0
M  CHG  1  22  -1
M  END
> <s_m_source_file>
AV-unprocessed.smi

> <i_m_source_file_index>
2124

> <i_lp_mmshare_version>
43012

> <i_f3d_flags>
0

> <s_epik_input>
W0NIM11jMW5jKFtDSDNdKWMoYyg9TylbbkhdMSlbQ0gyXUMoPU8pW05IXVtDQEhdKFtDSDNdKVtDQEhdKFtDSDJdW0NASF0yMylbQ0BIXShbQ0gyXTMpW0NIMl1bQ0gyXTI=

> <s_epik_cmdline>
J2VwaWtfcHl0aG9uJywgJy1waCcsICc3LjAnLCAnLXRuJywgJzgnLCAnLW1hJywgJzIwMCcsICctbWV0YWxfYmluZGluZycsICctaW1hZScsICc8aW5maWxlLm1hZT4nLCAnLW9tYWUnLCAnPG91dGZpbGUubWFlPic=

> <r_lp_tautomer_probability>
0.839158

> <r_epik_Ionization_Penalty>
6.63797

> <r_epik_Ionization_Penalty_Charging>
7.48558e-08

> <r_epik_Ionization_Penalty_Neutral>
6.63797

> <r_epik_State_Penalty>
4.49496

> <r_epik_Charging_Adjusted_Penalty>
4.49496

> <i_epik_Tot_Q>
-1

> <i_epik_Tot_abs_Q>
1

> <r_epik_Metal_State_Penalty>
0.841241

> <b_epik_Metal_Only>
1

> <s_lp_Force_Field>
OPLS_2005

> <r_lp_Energy>
56.0848

> <b_lp_Chiralities_Consistent>
1

> <s_lp_Variant>
AV-unprocessed.smi:2124-17

> <Gold.Version>
5.8.1

> <Gold.Id.Protein>
6NUR|6NUR_protein|mol2

> <Gold.PLP.Fitness>
50.4229

> <Gold.PLP.PLP>
-43.3523

> <Gold.PLP.part.hbond>
-3.0000

> <Gold.PLP.part.metal>
0.0000

> <Gold.PLP.part.buried>
-4.6903

> <Gold.PLP.part.nonpolar>
-34.9437

> <Gold.PLP.part.repulsive>
0.1842

> <Gold.PLP.ligand.clash>
0.0000

> <Gold.PLP.ligand.torsion>
0.9819

> <Gold.PLP.Chemscore.Hbond>
3.0000

> <Gold.PLP.Chemscore.CHOScore>
0.0000

> <Gold.PLP.Chemscore.Metal>
0.0000

> <Gold.Chemscore.Hbonds>
donor molecule, donor type, donor heavy atom, donor atom, acceptor molecule, acceptor atom, score
      P1  H  7989  7998       L1    22  0.89
      P1  H  7997  8008       L1    21  1.00
      P1  H  7997  8010       L1     9  1.00

> <Gold.PLP.Chemscore.Internal.Correction>
0.0344

> <Gold.Rescore>
     Score         DG    S(hbond)    S(metal)    S(lipo)     H(rot)  DE(clash)    DE(int)     intcor
     22.32     -24.63       2.59        0.00     124.99       1.61       0.36       1.95       ----

> <Gold.Chemscore.Fitness>
22.3230

> <Gold.Chemscore.DG>
-24.6326

> <Gold.Chemscore.ZeroCoef>
-5.4800

> <Gold.Chemscore.Hbond>
2.5863

> <Gold.Chemscore.Metal>
0.0000

> <Gold.Chemscore.Lipo>
124.9858

> <Gold.Chemscore.Internal_Hbond>
0.0000

> <Gold.Chemscore.DEClash>
0.3635

> <Gold.Chemscore.DEInternal>
1.9461

> <Gold.Chemscore.Rot>
1.6051

> <Gold.Chemscore.Internal.Correction>
   9.000000E+99

> <Gold.Chemscore.Hbonds>
donor molecule, donor type, donor heavy atom, donor atom, acceptor molecule, acceptor atom, score
      P1  H  7989  7998       L1    22  0.39
      P1  H  7997  8008       L1    21  0.96
      P1  H  7997  8010       L1     9  0.91

> <Gold.Chemscore.Hbond.Weighted>
-8.6382

> <Gold.Chemscore.Metal.Weighted>
-0.0000

> <Gold.Chemscore.Lipo.Weighted>
-14.6233

> <Gold.Chemscore.Internal_Hbond.Weighted>
0.0000

> <Gold.Chemscore.DEClash.Weighted>
0.3635

> <Gold.Chemscore.DEInternal.Weighted>
1.9461

> <Gold.Chemscore.Rot.Weighted>
4.1090

> <Gold.Chemscore.Internal.Correction.Weighted>
   9.000000E+99

> <Gold.Protein.RotatedTorsions>
[ 6907 6896 6895 6894 ] final  -40.10 input  -60.11 | X-H torsion
[ 7974 7965 7964 7962 ] final   98.34 input  175.53 | X-H torsion
[ 8008 7997 7996 7995 ] final   -8.54 input   59.86 | X-H torsion
[ 10167 10162 10161 10158 ] final  -82.15 input  -65.29 | X-H torsion
[ 10718 10713 10712 10709 ] final  -48.44 input   66.30 | X-H torsion
[ 10763 10752 10751 10750 ] final  -20.81 input  -60.55 | X-H torsion
[ 11005 11000 10999 10996 ] final  121.21 input  -57.11 | X-H torsion

> <Gold.Protein.ActiveResidues>
 VAL166  LYS551  ARG553  GLY616  TRP617  ASP618  TYR619  PRO620  LYS621  CYS622 
 ASP623  PHE694  ASN695  SER759  ASP760  ASP761  ALA762  ILE779  LEU786  VAL792 
 PHE793  MET794  SER795  GLU796  ALA797  LYS798  CYS799  TRP800  GLU811  SER814 

> <Gold.Protein.RotatedAtoms>
  150.9825  134.9177  159.7852 H   0  0  0  0  0  0  0  0  0  0  0  0  # atno 6907 bound_to 6896
  152.5226  134.3392  159.9221 H   0  0  0  0  0  0  0  0  0  0  0  0  # atno 6908 bound_to 6896
  151.3398  133.3926  159.2704 H   0  0  0  0  0  0  0  0  0  0  0  0  # atno 6909 bound_to 6896
  145.4134  139.2331  143.3235 H   0  0  0  0  0  0  0  0  0  0  0  0  # atno 7974 bound_to 7965
  154.5732  140.2378  155.8161 H   0  0  0  0  0  0  0  0  0  0  0  0  # atno 8008 bound_to 7997
  156.2123  140.3022  155.9717 H   0  0  0  0  0  0  0  0  0  0  0  0  # atno 8009 bound_to 7997
  155.2675  140.0417  157.2994 H   0  0  0  0  0  0  0  0  0  0  0  0  # atno 8010 bound_to 7997
  140.4346  143.2536  151.8711 H   0  0  0  0  0  0  0  0  0  0  0  0  # atno 10167 bound_to 10162
  156.1987  130.4155  149.9270 H   0  0  0  0  0  0  0  0  0  0  0  0  # atno 10718 bound_to 10713
  153.6262  135.6991  153.5292 H   0  0  0  0  0  0  0  0  0  0  0  0  # atno 10763 bound_to 10752
  153.2897  135.4161  155.1155 H   0  0  0  0  0  0  0  0  0  0  0  0  # atno 10764 bound_to 10752
  154.8532  135.3622  154.5804 H   0  0  0  0  0  0  0  0  0  0  0  0  # atno 10765 bound_to 10752
  139.9217  134.9638  156.7924 H   0  0  0  0  0  0  0  0  0  0  0  0  # atno 11005 bound_to 11000
  146.2693  140.4849  142.8821 LP  0  0  0  0  0  0  0  0  0  0  0  0  # atno 17320 bound_to 7965
  144.8293  140.6681  143.6301 LP  0  0  0  0  0  0  0  0  0  0  0  0  # atno 17321 bound_to 7965
  139.4786  144.5296  151.8685 LP  0  0  0  0  0  0  0  0  0  0  0  0  # atno 17342 bound_to 10162
  140.4388  144.2015  150.5890 LP  0  0  0  0  0  0  0  0  0  0  0  0  # atno 17343 bound_to 10162
  156.6987  130.8924  151.3597 LP  0  0  0  0  0  0  0  0  0  0  0  0  # atno 17370 bound_to 10713
  157.6973  130.9295  150.0682 LP  0  0  0  0  0  0  0  0  0  0  0  0  # atno 17371 bound_to 10713
  140.6456  133.9778  155.7729 LP  0  0  0  0  0  0  0  0  0  0  0  0  # atno 17394 bound_to 11000
  141.0742  134.0159  157.3482 LP  0  0  0  0  0  0  0  0  0  0  0  0  # atno 17395 bound_to 11000

$$$$
