AV-unprocessed.smi:2810|AV-procd|sdf|10828|dock8
  -GOLD-   2272015273D 1   1.00000     0.00000
 Structure written by MMmdl.
 39 40  0  0  0  0  0  0  0  0  1 V2000
  153.3243  138.4134  160.5356 C   0  0  0  0  0  0  0  0  0  0  0  0
  152.7226  139.5849  159.7891 C   0  0  0  0  0  0  0  0  0  0  0  0
  151.9201  139.3962  158.6447 C   0  0  0  0  0  0  0  0  0  0  0  0
  151.4127  140.5610  158.0261 C   0  0  0  0  0  0  0  0  0  0  0  0
  150.5985  140.4521  156.8783 N   0  0  0  0  0  0  0  0  0  0  0  0
  149.7946  141.6620  156.7103 C   0  0  0  0  0  0  0  0  0  0  0  0
  148.7939  141.5032  155.5579 C   0  0  0  0  0  0  0  0  0  0  0  0
  149.5029  141.1708  154.3737 O   0  0  0  0  0  0  0  0  0  0  0  0
  150.1661  139.9196  154.5004 C   0  0  0  0  0  0  0  0  0  0  0  0
  151.2212  139.9643  155.6322 C   0  0  2  0  0  0  0  0  0  0  0  0
  151.8913  138.5744  155.6966 C   0  0  0  0  0  0  0  0  0  0  0  0
  151.1279  137.5069  155.9538 N   0  0  0  0  0  0  0  0  0  0  0  0
  153.1038  138.4712  155.5240 O   0  0  0  0  0  0  0  0  0  0  0  0
  151.6868  141.7869  158.5331 N   0  0  0  0  0  0  0  0  0  0  0  0
  152.4622  141.8529  159.6196 C   0  0  0  0  0  0  0  0  0  0  0  0
  152.7769  143.2432  160.1556 C   0  0  0  0  0  0  0  0  0  0  0  0
  152.4023  143.3856  161.6389 C   0  0  0  0  0  0  0  0  0  0  0  0
  152.1701  144.3464  159.2742 C   0  0  0  0  0  0  0  0  0  0  0  0
  152.9939  140.8157  160.2737 N   0  0  0  0  0  0  0  0  0  0  0  0
  153.1354  137.4749  160.0138 H   0  0  0  0  0  0  0  0  0  0  0  0
  152.8944  138.3408  161.5348 H   0  0  0  0  0  0  0  0  0  0  0  0
  154.4033  138.5370  160.6324 H   0  0  0  0  0  0  0  0  0  0  0  0
  151.7091  138.4101  158.2575 H   0  0  0  0  0  0  0  0  0  0  0  0
  149.2462  141.8958  157.6238 H   0  0  0  0  0  0  0  0  0  0  0  0
  150.4552  142.5078  156.5112 H   0  0  0  0  0  0  0  0  0  0  0  0
  148.0490  140.7385  155.7848 H   0  0  0  0  0  0  0  0  0  0  0  0
  148.2543  142.4367  155.3977 H   0  0  0  0  0  0  0  0  0  0  0  0
  149.4288  139.1338  154.6784 H   0  0  0  0  0  0  0  0  0  0  0  0
  150.6407  139.6920  153.5450 H   0  0  0  0  0  0  0  0  0  0  0  0
  151.9870  140.6845  155.3376 H   0  0  0  0  0  0  0  0  0  0  0  0
  151.5467  136.5892  155.9966 H   0  0  0  0  0  0  0  0  0  0  0  0
  150.1358  137.6229  156.1005 H   0  0  0  0  0  0  0  0  0  0  0  0
  153.8595  143.3712  160.1017 H   0  0  0  0  0  0  0  0  0  0  0  0
  152.9059  142.6306  162.2433 H   0  0  0  0  0  0  0  0  0  0  0  0
  151.3284  143.2732  161.7918 H   0  0  0  0  0  0  0  0  0  0  0  0
  152.6907  144.3638  162.0242 H   0  0  0  0  0  0  0  0  0  0  0  0
  152.5140  144.2565  158.2434 H   0  0  0  0  0  0  0  0  0  0  0  0
  152.4543  145.3359  159.6326 H   0  0  0  0  0  0  0  0  0  0  0  0
  151.0806  144.2970  159.2672 H   0  0  0  0  0  0  0  0  0  0  0  0
  1  2  1  0  0  0  0
  1 20  1  0  0  0  0
  1 21  1  0  0  0  0
  1 22  1  0  0  0  0
  2 19  1  0  0  0  0
  2  3  2  0  0  0  0
  3  4  1  0  0  0  0
  3 23  1  0  0  0  0
  4  5  1  0  0  0  0
  4 14  2  0  0  0  0
  5 10  1  0  0  0  0
  5  6  1  0  0  0  0
  6  7  1  0  0  0  0
  6 24  1  0  0  0  0
  6 25  1  0  0  0  0
  7  8  1  0  0  0  0
  7 26  1  0  0  0  0
  7 27  1  0  0  0  0
  8  9  1  0  0  0  0
  9 10  1  0  0  0  0
  9 28  1  0  0  0  0
  9 29  1  0  0  0  0
 10 11  1  0  0  0  0
 10 30  1  0  0  0  0
 11 12  1  0  0  0  0
 11 13  2  0  0  0  0
 12 31  1  0  0  0  0
 12 32  1  0  0  0  0
 14 15  1  0  0  0  0
 15 16  1  0  0  0  0
 15 19  2  0  0  0  0
 16 17  1  0  0  0  0
 16 18  1  0  0  0  0
 16 33  1  0  0  0  0
 17 34  1  0  0  0  0
 17 35  1  0  0  0  0
 17 36  1  0  0  0  0
 18 37  1  0  0  0  0
 18 38  1  0  0  0  0
 18 39  1  0  0  0  0
M  END
> <s_m_source_file>
AV-unprocessed.smi

> <i_m_source_file_index>
2810

> <i_lp_mmshare_version>
43012

> <i_f3d_flags>
0

> <s_epik_input>
W0NIM11bQ0hdKFtDSDNdKWMobjEpbmMoW2NIXWMxW0NIM10pTjJbQ0gyXVtDSDJdT1tDSDJdW0NASF0yQyg9TylbTkgyXQ==

> <s_epik_cmdline>
J2VwaWtfcHl0aG9uJywgJy1waCcsICc3LjAnLCAnLXRuJywgJzgnLCAnLW1hJywgJzIwMCcsICctbWV0YWxfYmluZGluZycsICctaW1hZScsICc8aW5maWxlLm1hZT4nLCAnLW9tYWUnLCAnPG91dGZpbGUubWFlPic=

> <r_lp_tautomer_probability>
1

> <r_epik_Ionization_Penalty>
0.00607782

> <r_epik_Ionization_Penalty_Charging>
0

> <r_epik_Ionization_Penalty_Neutral>
0.00607782

> <r_epik_State_Penalty>
0.00441345

> <r_epik_Charging_Adjusted_Penalty>
0.00441345

> <i_epik_Tot_Q>
0

> <i_epik_Tot_abs_Q>
0

> <r_epik_Metal_State_Penalty>
-0

> <b_epik_Metal_Only>
0

> <s_lp_Force_Field>
OPLS_2005

> <r_lp_Energy>
6.30102

> <b_lp_Chiralities_Consistent>
1

> <s_lp_Variant>
AV-unprocessed.smi:2810-2

> <Gold.Version>
5.8.1

> <Gold.Id.Protein>
6NUR|6NUR_protein|mol2

> <Gold.PLP.Fitness>
40.2330

> <Gold.PLP.PLP>
-36.9883

> <Gold.PLP.part.hbond>
-2.9051

> <Gold.PLP.part.metal>
0.0000

> <Gold.PLP.part.buried>
-0.0066

> <Gold.PLP.part.nonpolar>
-33.4025

> <Gold.PLP.part.repulsive>
0.2682

> <Gold.PLP.ligand.clash>
0.0000

> <Gold.PLP.ligand.torsion>
0.4010

> <Gold.PLP.Chemscore.Hbond>
1.2621

> <Gold.PLP.Chemscore.CHOScore>
0.0000

> <Gold.PLP.Chemscore.Metal>
0.0000

> <Gold.Chemscore.Hbonds>
donor molecule, donor type, donor heavy atom, donor atom, acceptor molecule, acceptor atom, score
      P1  H  7997  8008       L1    13  0.63
      P1  H  8011  8017       L1     8  0.05

> <Gold.PLP.Chemscore.Internal.Correction>
0.2604

> <Gold.Rescore>
     Score         DG    S(hbond)    S(metal)    S(lipo)     H(rot)  DE(clash)    DE(int)     intcor
     12.95     -13.53       0.96        0.00      78.76       1.71       0.02       0.57       ----

> <Gold.Chemscore.Fitness>
12.9498

> <Gold.Chemscore.DG>
-13.5347

> <Gold.Chemscore.ZeroCoef>
-5.4800

> <Gold.Chemscore.Hbond>
0.9647

> <Gold.Chemscore.Metal>
0.0000

> <Gold.Chemscore.Lipo>
78.7562

> <Gold.Chemscore.Internal_Hbond>
0.0000

> <Gold.Chemscore.DEClash>
0.0180

> <Gold.Chemscore.DEInternal>
0.5670

> <Gold.Chemscore.Rot>
1.7117

> <Gold.Chemscore.Internal.Correction>
   9.000000E+99

> <Gold.Chemscore.Hbonds>
donor molecule, donor type, donor heavy atom, donor atom, acceptor molecule, acceptor atom, score
      P1  H  7997  8008       L1    13  0.57
      P1  H  8011  8017       L1     8  0.08

> <Gold.Chemscore.Hbond.Weighted>
-3.2223

> <Gold.Chemscore.Metal.Weighted>
-0.0000

> <Gold.Chemscore.Lipo.Weighted>
-9.2145

> <Gold.Chemscore.Internal_Hbond.Weighted>
0.0000

> <Gold.Chemscore.DEClash.Weighted>
0.0180

> <Gold.Chemscore.DEInternal.Weighted>
0.5670

> <Gold.Chemscore.Rot.Weighted>
4.3820

> <Gold.Chemscore.Internal.Correction.Weighted>
   9.000000E+99

> <Gold.Protein.RotatedTorsions>
[ 6907 6896 6895 6894 ] final  -14.87 input  -60.11 | X-H torsion
[ 7974 7965 7964 7962 ] final  -99.50 input  175.53 | X-H torsion
[ 8008 7997 7996 7995 ] final  -26.73 input   59.86 | X-H torsion
[ 10167 10162 10161 10158 ] final -109.66 input  -65.29 | X-H torsion
[ 10718 10713 10712 10709 ] final  108.51 input   66.30 | X-H torsion
[ 10763 10752 10751 10750 ] final  -81.49 input  -60.55 | X-H torsion
[ 11005 11000 10999 10996 ] final   39.33 input  -57.11 | X-H torsion

> <Gold.Protein.ActiveResidues>
 VAL166  LYS551  ARG553  GLY616  TRP617  ASP618  TYR619  PRO620  LYS621  CYS622 
 ASP623  PHE694  ASN695  SER759  ASP760  ASP761  ALA762  ILE779  LEU786  VAL792 
 PHE793  MET794  SER795  GLU796  ALA797  LYS798  CYS799  TRP800  GLU811  SER814 

> <Gold.Protein.RotatedAtoms>
  151.3328  135.0845  159.9344 H   0  0  0  0  0  0  0  0  0  0  0  0  # atno 6907 bound_to 6896
  152.5230  133.9526  159.7689 H   0  0  0  0  0  0  0  0  0  0  0  0  # atno 6908 bound_to 6896
  150.9868  133.6137  159.2744 H   0  0  0  0  0  0  0  0  0  0  0  0  # atno 6909 bound_to 6896
  145.3068  140.9390  143.2792 H   0  0  0  0  0  0  0  0  0  0  0  0  # atno 7974 bound_to 7965
  154.4411  140.1891  156.0820 H   0  0  0  0  0  0  0  0  0  0  0  0  # atno 8008 bound_to 7997
  156.0431  140.3317  155.7240 H   0  0  0  0  0  0  0  0  0  0  0  0  # atno 8009 bound_to 7997
  155.5670  140.0609  157.2806 H   0  0  0  0  0  0  0  0  0  0  0  0  # atno 8010 bound_to 7997
  140.1529  143.4184  152.1481 H   0  0  0  0  0  0  0  0  0  0  0  0  # atno 10167 bound_to 10162
  157.6583  131.0895  150.6316 H   0  0  0  0  0  0  0  0  0  0  0  0  # atno 10718 bound_to 10713
  154.5642  135.5624  153.7035 H   0  0  0  0  0  0  0  0  0  0  0  0  # atno 10763 bound_to 10752
  153.0027  135.6281  154.2204 H   0  0  0  0  0  0  0  0  0  0  0  0  # atno 10764 bound_to 10752
  154.2142  135.2872  155.2927 H   0  0  0  0  0  0  0  0  0  0  0  0  # atno 10765 bound_to 10752
  140.2038  134.3838  155.8083 H   0  0  0  0  0  0  0  0  0  0  0  0  # atno 11005 bound_to 11000
  144.9048  139.4603  143.6615 LP  0  0  0  0  0  0  0  0  0  0  0  0  # atno 17320 bound_to 7965
  146.3132  139.7823  142.9003 LP  0  0  0  0  0  0  0  0  0  0  0  0  # atno 17321 bound_to 7965
  139.5417  144.7262  151.4712 LP  0  0  0  0  0  0  0  0  0  0  0  0  # atno 17342 bound_to 10162
  140.6691  143.8333  150.6977 LP  0  0  0  0  0  0  0  0  0  0  0  0  # atno 17343 bound_to 10162
  156.6620  130.4515  149.5684 LP  0  0  0  0  0  0  0  0  0  0  0  0  # atno 17370 bound_to 10713
  156.2060  130.6649  151.1218 LP  0  0  0  0  0  0  0  0  0  0  0  0  # atno 17371 bound_to 10713
  141.2227  133.7107  156.8303 LP  0  0  0  0  0  0  0  0  0  0  0  0  # atno 17394 bound_to 11000
  140.2025  134.8887  157.3185 LP  0  0  0  0  0  0  0  0  0  0  0  0  # atno 17395 bound_to 11000

$$$$
