AV-unprocessed.smi:3048|AV-procd|sdf|11627|dock1
  -GOLD-   2272017 13D 1   1.00000     0.00000
 Structure written by MMmdl.
 37 38  0  0  0  0  0  0  0  0  1 V2000
  153.2145  143.0929  163.4728 C   0  0  0  0  0  0  0  0  0  0  0  0
  152.8162  143.2520  162.0340 C   0  0  0  0  0  0  0  0  0  0  0  0
  153.1462  142.4060  160.9372 C   0  0  0  0  0  0  0  0  0  0  0  0
  152.6344  142.8251  159.7919 N   0  0  0  0  0  0  0  0  0  0  0  0
  151.9644  143.9519  160.1140 N   0  0  0  0  0  0  0  0  0  0  0  0
  151.2616  144.6949  159.0832 C   0  0  0  0  0  0  0  0  0  0  0  0
  151.6339  144.2279  157.6669 C   0  0  0  0  0  0  0  0  0  0  0  0
  150.6350  143.3154  157.1180 N   0  0  0  0  0  0  0  0  0  0  0  0
  151.2127  142.1607  156.4391 C   0  0  0  0  0  0  0  0  0  0  0  0
  150.1152  141.2474  155.8746 C   0  0  2  0  0  0  0  0  0  0  0  0
  149.2997  140.5769  156.9973 C   0  0  0  0  0  0  0  0  0  0  0  0
  148.2759  139.5978  156.4111 C   0  0  0  0  0  0  0  0  0  0  0  0
  148.9802  138.6120  155.4729 C   0  0  0  0  0  0  0  0  0  0  0  0
  149.8215  139.3709  154.4347 C   0  0  0  0  0  0  0  0  0  0  0  0
  150.7444  140.2308  155.0961 O   0  0  0  0  0  0  0  0  0  0  0  0
  152.0553  144.2315  161.4610 C   0  0  0  0  0  0  0  0  0  0  0  0
  153.9993  142.3463  163.5952 H   0  0  0  0  0  0  0  0  0  0  0  0
  152.3728  142.7782  164.0899 H   0  0  0  0  0  0  0  0  0  0  0  0
  153.5919  144.0257  163.8923 H   0  0  0  0  0  0  0  0  0  0  0  0
  153.7384  141.5029  160.9403 H   0  0  0  0  0  0  0  0  0  0  0  0
  150.1853  144.6122  159.2438 H   0  0  0  0  0  0  0  0  0  0  0  0
  151.5129  145.7495  159.2004 H   0  0  0  0  0  0  0  0  0  0  0  0
  151.7234  145.1027  157.0220 H   0  0  0  0  0  0  0  0  0  0  0  0
  152.6147  143.7508  157.6789 H   0  0  0  0  0  0  0  0  0  0  0  0
  150.0241  143.8161  156.4799 H   0  0  0  0  0  0  0  0  0  0  0  0
  151.8760  142.4812  155.6349 H   0  0  0  0  0  0  0  0  0  0  0  0
  151.8255  141.5988  157.1451 H   0  0  0  0  0  0  0  0  0  0  0  0
  149.4446  141.8342  155.2438 H   0  0  0  0  0  0  0  0  0  0  0  0
  149.9708  140.0423  157.6708 H   0  0  0  0  0  0  0  0  0  0  0  0
  148.7900  141.3309  157.5979 H   0  0  0  0  0  0  0  0  0  0  0  0
  147.7605  139.0623  157.2087 H   0  0  0  0  0  0  0  0  0  0  0  0
  147.5140  140.1497  155.8592 H   0  0  0  0  0  0  0  0  0  0  0  0
  149.6269  137.9523  156.0526 H   0  0  0  0  0  0  0  0  0  0  0  0
  148.2484  137.9753  154.9751 H   0  0  0  0  0  0  0  0  0  0  0  0
  150.3783  138.6667  153.8165 H   0  0  0  0  0  0  0  0  0  0  0  0
  149.1848  139.9491  153.7638 H   0  0  0  0  0  0  0  0  0  0  0  0
  151.5770  145.0970  161.8954 H   0  0  0  0  0  0  0  0  0  0  0  0
  1  2  1  0  0  0  0
  1 17  1  0  0  0  0
  1 18  1  0  0  0  0
  1 19  1  0  0  0  0
  2 16  2  0  0  0  0
  2  3  1  0  0  0  0
  3  4  2  0  0  0  0
  3 20  1  0  0  0  0
  4  5  1  0  0  0  0
  5  6  1  0  0  0  0
  5 16  1  0  0  0  0
  6  7  1  0  0  0  0
  6 21  1  0  0  0  0
  6 22  1  0  0  0  0
  7  8  1  0  0  0  0
  7 23  1  0  0  0  0
  7 24  1  0  0  0  0
  8  9  1  0  0  0  0
  8 25  1  0  0  0  0
  9 10  1  0  0  0  0
  9 26  1  0  0  0  0
  9 27  1  0  0  0  0
 10 15  1  0  0  0  0
 10 11  1  0  0  0  0
 10 28  1  0  0  0  0
 11 12  1  0  0  0  0
 11 29  1  0  0  0  0
 11 30  1  0  0  0  0
 12 13  1  0  0  0  0
 12 31  1  0  0  0  0
 12 32  1  0  0  0  0
 13 14  1  0  0  0  0
 13 33  1  0  0  0  0
 13 34  1  0  0  0  0
 14 15  1  0  0  0  0
 14 35  1  0  0  0  0
 14 36  1  0  0  0  0
 16 37  1  0  0  0  0
M  END
> <s_m_source_file>
AV-unprocessed.smi

> <i_m_source_file_index>
3048

> <i_lp_mmshare_version>
43012

> <i_f3d_flags>
0

> <s_epik_input>
W0NIM11jMVtjSF1ubihbY0hdMSlbQ0gyXVtDSDJdW05IXVtDSDJdW0NAQEhdMltDSDJdW0NIMl1bQ0gyXVtDSDJdTzI=

> <s_epik_cmdline>
J2VwaWtfcHl0aG9uJywgJy1waCcsICc3LjAnLCAnLXRuJywgJzgnLCAnLW1hJywgJzIwMCcsICctbWV0YWxfYmluZGluZycsICctaW1hZScsICc8aW5maWxlLm1hZT4nLCAnLW9tYWUnLCAnPG91dGZpbGUubWFlPic=

> <r_lp_tautomer_probability>
1

> <r_epik_Ionization_Penalty>
2.52229

> <r_epik_Ionization_Penalty_Charging>
0

> <r_epik_Ionization_Penalty_Neutral>
2.52229

> <r_epik_State_Penalty>
2.68614

> <r_epik_Charging_Adjusted_Penalty>
2.68614

> <i_epik_Tot_Q>
0

> <i_epik_Tot_abs_Q>
0

> <r_epik_Metal_State_Penalty>
2.68365

> <b_epik_Metal_Only>
0

> <s_lp_Force_Field>
OPLS_2005

> <r_lp_Energy>
12.7025

> <b_lp_Chiralities_Consistent>
1

> <s_lp_Variant>
AV-unprocessed.smi:3048-3

> <Gold.Version>
5.8.1

> <Gold.Id.Protein>
6NUR|6NUR_protein|mol2

> <Gold.PLP.Fitness>
45.0945

> <Gold.PLP.PLP>
-40.6076

> <Gold.PLP.part.hbond>
-2.0000

> <Gold.PLP.part.metal>
0.0000

> <Gold.PLP.part.buried>
-7.1472

> <Gold.PLP.part.nonpolar>
-31.0906

> <Gold.PLP.part.repulsive>
0.0511

> <Gold.PLP.ligand.clash>
0.0000

> <Gold.PLP.ligand.torsion>
0.7376

> <Gold.PLP.Chemscore.Hbond>
1.9500

> <Gold.PLP.Chemscore.CHOScore>
0.0000

> <Gold.PLP.Chemscore.Metal>
0.0000

> <Gold.Chemscore.Hbonds>
donor molecule, donor type, donor heavy atom, donor atom, acceptor molecule, acceptor atom, score
      L1  H     8    25       P1  8028  1.00
      P1  H  7989  7998       L1    15  0.85

> <Gold.PLP.Chemscore.Internal.Correction>
0.1121

> <Gold.Rescore>
     Score         DG    S(hbond)    S(metal)    S(lipo)     H(rot)  DE(clash)    DE(int)     intcor
     18.43     -19.50       1.84        0.00     101.12       1.54       0.32       0.75       ----

> <Gold.Chemscore.Fitness>
18.4262

> <Gold.Chemscore.DG>
-19.5014

> <Gold.Chemscore.ZeroCoef>
-5.4800

> <Gold.Chemscore.Hbond>
1.8371

> <Gold.Chemscore.Metal>
0.0000

> <Gold.Chemscore.Lipo>
101.1154

> <Gold.Chemscore.Internal_Hbond>
0.0000

> <Gold.Chemscore.DEClash>
0.3222

> <Gold.Chemscore.DEInternal>
0.7530

> <Gold.Chemscore.Rot>
1.5411

> <Gold.Chemscore.Internal.Correction>
   9.000000E+99

> <Gold.Chemscore.Hbonds>
donor molecule, donor type, donor heavy atom, donor atom, acceptor molecule, acceptor atom, score
      L1  H     8    25       P1  8028  1.00
      P1  H  7989  7998       L1    15  0.13

> <Gold.Chemscore.Hbond.Weighted>
-6.1361

> <Gold.Chemscore.Metal.Weighted>
-0.0000

> <Gold.Chemscore.Lipo.Weighted>
-11.8305

> <Gold.Chemscore.Internal_Hbond.Weighted>
0.0000

> <Gold.Chemscore.DEClash.Weighted>
0.3222

> <Gold.Chemscore.DEInternal.Weighted>
0.7530

> <Gold.Chemscore.Rot.Weighted>
3.9452

> <Gold.Chemscore.Internal.Correction.Weighted>
   9.000000E+99

> <Gold.Protein.RotatedTorsions>
[ 6907 6896 6895 6894 ] final -101.31 input  -60.11 | X-H torsion
[ 7974 7965 7964 7962 ] final -100.08 input  175.53 | X-H torsion
[ 8008 7997 7996 7995 ] final   52.56 input   59.86 | X-H torsion
[ 10167 10162 10161 10158 ] final -176.02 input  -65.29 | X-H torsion
[ 10718 10713 10712 10709 ] final   95.65 input   66.30 | X-H torsion
[ 10763 10752 10751 10750 ] final   36.50 input  -60.55 | X-H torsion
[ 11005 11000 10999 10996 ] final  124.42 input  -57.11 | X-H torsion

> <Gold.Protein.ActiveResidues>
 VAL166  LYS551  ARG553  GLY616  TRP617  ASP618  TYR619  PRO620  LYS621  CYS622 
 ASP623  PHE694  ASN695  SER759  ASP760  ASP761  ALA762  ILE779  LEU786  VAL792 
 PHE793  MET794  SER795  GLU796  ALA797  LYS798  CYS799  TRP800  GLU811  SER814 

> <Gold.Protein.RotatedAtoms>
  150.7149  134.0754  159.3878 H   0  0  0  0  0  0  0  0  0  0  0  0  # atno 6907 bound_to 6896
  151.8737  135.0477  160.0491 H   0  0  0  0  0  0  0  0  0  0  0  0  # atno 6908 bound_to 6896
  152.2623  133.5272  159.5425 H   0  0  0  0  0  0  0  0  0  0  0  0  # atno 6909 bound_to 6896
  145.2992  140.9373  143.2833 H   0  0  0  0  0  0  0  0  0  0  0  0  # atno 7974 bound_to 7965
  155.4538  140.3459  155.4304 H   0  0  0  0  0  0  0  0  0  0  0  0  # atno 8008 bound_to 7997
  156.1204  140.1485  156.9243 H   0  0  0  0  0  0  0  0  0  0  0  0  # atno 8009 bound_to 7997
  154.4819  140.0867  156.7376 H   0  0  0  0  0  0  0  0  0  0  0  0  # atno 8010 bound_to 7997
  139.5551  144.2010  152.1145 H   0  0  0  0  0  0  0  0  0  0  0  0  # atno 10167 bound_to 10162
  157.6936  131.0552  150.4371 H   0  0  0  0  0  0  0  0  0  0  0  0  # atno 10718 bound_to 10713
  153.0074  135.6304  154.1996 H   0  0  0  0  0  0  0  0  0  0  0  0  # atno 10763 bound_to 10752
  154.1739  135.2817  155.3074 H   0  0  0  0  0  0  0  0  0  0  0  0  # atno 10764 bound_to 10752
  154.5887  135.5624  153.7317 H   0  0  0  0  0  0  0  0  0  0  0  0  # atno 10765 bound_to 10752
  139.9358  134.9639  156.8407 H   0  0  0  0  0  0  0  0  0  0  0  0  # atno 11005 bound_to 11000
  144.9108  139.4531  143.6588 LP  0  0  0  0  0  0  0  0  0  0  0  0  # atno 17320 bound_to 7965
  146.3158  139.7915  142.8984 LP  0  0  0  0  0  0  0  0  0  0  0  0  # atno 17321 bound_to 7965
  140.1512  144.5113  150.6686 LP  0  0  0  0  0  0  0  0  0  0  0  0  # atno 17342 bound_to 10162
  140.6822  143.2332  151.5354 LP  0  0  0  0  0  0  0  0  0  0  0  0  # atno 17343 bound_to 10162
  156.4732  130.4057  149.6505 LP  0  0  0  0  0  0  0  0  0  0  0  0  # atno 17370 bound_to 10713
  156.3578  130.7465  151.2434 LP  0  0  0  0  0  0  0  0  0  0  0  0  # atno 17371 bound_to 10713
  140.6080  134.0109  155.7565 LP  0  0  0  0  0  0  0  0  0  0  0  0  # atno 17394 bound_to 11000
  141.0971  133.9827  157.3142 LP  0  0  0  0  0  0  0  0  0  0  0  0  # atno 17395 bound_to 11000

$$$$
