AV-unprocessed.smi:1311|AV-procd|sdf|5446|dock10
  -GOLD-   22720 5 13D 1   1.00000     0.00000
 Structure written by MMmdl.
 46 47  0  0  0  0  0  0  0  0  2 V2000
  143.6962  137.3628  153.2176 C   0  0  0  0  0  0  0  0  0  0  0  0
  144.7947  136.9296  154.2022 C   0  0  0  0  0  0  0  0  0  0  0  0
  146.2425  137.0335  153.6490 C   0  0  2  0  0  0  0  0  0  0  0  0
  146.6673  138.4974  153.3556 C   0  0  0  0  0  0  0  0  0  0  0  0
  148.1186  138.6594  153.3131 N   0  0  0  0  0  0  0  0  0  0  0  0
  148.9394  138.6790  154.3751 C   0  0  0  0  0  0  0  0  0  0  0  0
  148.5543  138.5520  155.5368 O   0  0  0  0  0  0  0  0  0  0  0  0
  150.4266  138.8755  154.0821 C   0  0  0  0  0  0  0  0  0  0  0  0
  151.1177  139.4088  155.3096 C   0  0  0  0  0  0  0  0  0  0  0  0
  150.7141  140.4937  156.1398 C   0  0  0  0  0  0  0  0  0  0  0  0
  149.5045  141.3732  156.0019 C   0  0  0  0  0  0  0  0  0  0  0  0
  151.5584  140.6924  157.1383 N   0  0  0  0  0  0  0  0  0  0  0  0
  152.5593  139.7274  156.9912 O   0  0  0  0  0  0  0  0  0  0  0  0
  152.2745  138.9763  155.8971 C   0  0  0  0  0  0  0  0  0  0  0  0
  153.2321  137.8820  155.5658 C   0  0  0  0  0  0  0  0  0  0  0  0
  146.4265  136.1495  152.4593 N   0  3  0  0  0  0  0  0  0  0  0  0
  145.9982  134.7430  152.6237 C   0  0  0  0  0  0  0  0  0  0  0  0
  145.8244  134.2136  151.2051 C   0  0  0  0  0  0  0  0  0  0  0  0
  145.2489  135.4126  150.4611 C   0  0  0  0  0  0  0  0  0  0  0  0
  145.8022  136.6374  151.2024 C   0  0  0  0  0  0  0  0  0  0  0  0
  142.7125  137.2717  153.6784 H   0  0  0  0  0  0  0  0  0  0  0  0
  143.6946  136.7439  152.3204 H   0  0  0  0  0  0  0  0  0  0  0  0
  143.8142  138.4000  152.9075 H   0  0  0  0  0  0  0  0  0  0  0  0
  144.7032  137.5227  155.1120 H   0  0  0  0  0  0  0  0  0  0  0  0
  144.5882  135.9089  154.5228 H   0  0  0  0  0  0  0  0  0  0  0  0
  146.9122  136.6594  154.4253 H   0  0  0  0  0  0  0  0  0  0  0  0
  146.3085  138.8111  152.3758 H   0  0  0  0  0  0  0  0  0  0  0  0
  146.2099  139.1805  154.0729 H   0  0  0  0  0  0  0  0  0  0  0  0
  148.5347  138.7775  152.4004 H   0  0  0  0  0  0  0  0  0  0  0  0
  150.8509  137.9202  153.7713 H   0  0  0  0  0  0  0  0  0  0  0  0
  150.5485  139.5489  153.2324 H   0  0  0  0  0  0  0  0  0  0  0  0
  148.5898  140.8039  156.1675 H   0  0  0  0  0  0  0  0  0  0  0  0
  149.4490  141.8057  155.0030 H   0  0  0  0  0  0  0  0  0  0  0  0
  149.5173  142.1961  156.7175 H   0  0  0  0  0  0  0  0  0  0  0  0
  153.6008  137.9875  154.5458 H   0  0  0  0  0  0  0  0  0  0  0  0
  152.7488  136.9091  155.6522 H   0  0  0  0  0  0  0  0  0  0  0  0
  154.0910  137.8933  156.2371 H   0  0  0  0  0  0  0  0  0  0  0  0
  146.7238  134.1577  153.1892 H   0  0  0  0  0  0  0  0  0  0  0  0
  145.0422  134.7067  153.1489 H   0  0  0  0  0  0  0  0  0  0  0  0
  146.7955  133.9474  150.7859 H   0  0  0  0  0  0  0  0  0  0  0  0
  145.1821  133.3338  151.1552 H   0  0  0  0  0  0  0  0  0  0  0  0
  145.5088  135.4096  149.4022 H   0  0  0  0  0  0  0  0  0  0  0  0
  144.1608  135.4010  150.5346 H   0  0  0  0  0  0  0  0  0  0  0  0
  144.9915  137.3403  151.3986 H   0  0  0  0  0  0  0  0  0  0  0  0
  146.5545  137.1553  150.6066 H   0  0  0  0  0  0  0  0  0  0  0  0
  147.4193  136.1102  152.2766 H   0  0  0  0  0  0  0  0  0  0  0  0
  1  2  1  0  0  0  0
  1 21  1  0  0  0  0
  1 22  1  0  0  0  0
  1 23  1  0  0  0  0
  2  3  1  0  0  0  0
  2 24  1  0  0  0  0
  2 25  1  0  0  0  0
  3  4  1  0  0  0  0
  3 16  1  0  0  0  0
  3 26  1  0  0  0  0
  4  5  1  0  0  0  0
  4 27  1  0  0  0  0
  4 28  1  0  0  0  0
  5  6  1  0  0  0  0
  5 29  1  0  0  0  0
  6  7  2  0  0  0  0
  6  8  1  0  0  0  0
  8  9  1  0  0  0  0
  8 30  1  0  0  0  0
  8 31  1  0  0  0  0
  9 14  2  0  0  0  0
  9 10  1  0  0  0  0
 10 11  1  0  0  0  0
 10 12  2  0  0  0  0
 11 32  1  0  0  0  0
 11 33  1  0  0  0  0
 11 34  1  0  0  0  0
 12 13  1  0  0  0  0
 13 14  1  0  0  0  0
 14 15  1  0  0  0  0
 15 35  1  0  0  0  0
 15 36  1  0  0  0  0
 15 37  1  0  0  0  0
 16 20  1  0  0  0  0
 16 17  1  0  0  0  0
 16 46  1  0  0  0  0
 17 18  1  0  0  0  0
 17 38  1  0  0  0  0
 17 39  1  0  0  0  0
 18 19  1  0  0  0  0
 18 40  1  0  0  0  0
 18 41  1  0  0  0  0
 19 20  1  0  0  0  0
 19 42  1  0  0  0  0
 19 43  1  0  0  0  0
 20 44  1  0  0  0  0
 20 45  1  0  0  0  0
M  CHG  1  16   1
M  END
> <s_m_source_file>
AV-unprocessed.smi

> <i_m_source_file_index>
1311

> <i_lp_mmshare_version>
43012

> <i_f3d_flags>
0

> <s_epik_input>
W0NIMl0xW0NIMl1bQ0gyXVtDSDJdTjFbQ0BIXShbQ0gyXVtDSDNdKVtDSDJdW05IXUMoPU8pW0NIMl1jMmMoW0NIM10pbm9jMltDSDNd

> <s_epik_cmdline>
J2VwaWtfcHl0aG9uJywgJy1waCcsICc3LjAnLCAnLXRuJywgJzgnLCAnLW1hJywgJzIwMCcsICctbWV0YWxfYmluZGluZycsICctaW1hZScsICc8aW5maWxlLm1hZT4nLCAnLW9tYWUnLCAnPG91dGZpbGUubWFlPic=

> <r_epik_Ionization_Penalty>
0.00366311

> <r_epik_Ionization_Penalty_Charging>
0.00366302

> <r_epik_Ionization_Penalty_Neutral>
9.25085e-08

> <r_epik_State_Penalty>
0.00260703

> <r_epik_Charging_Adjusted_Penalty>
0.00627005

> <i_epik_Tot_Q>
1

> <i_epik_Tot_abs_Q>
1

> <r_epik_Metal_State_Penalty>
-0

> <b_epik_Metal_Only>
0

> <s_lp_Force_Field>
OPLS_2005

> <r_lp_Energy>
28.3188

> <b_lp_Chiralities_Consistent>
1

> <s_lp_Variant>
AV-unprocessed.smi:1311-1

> <Gold.Version>
5.8.1

> <Gold.Id.Protein>
6NUR|6NUR_protein|mol2

> <Gold.PLP.Fitness>
40.4433

> <Gold.PLP.PLP>
-30.0718

> <Gold.PLP.part.hbond>
-4.0000

> <Gold.PLP.part.metal>
0.0000

> <Gold.PLP.part.buried>
1.9286

> <Gold.PLP.part.nonpolar>
-28.1777

> <Gold.PLP.part.repulsive>
0.1095

> <Gold.PLP.ligand.clash>
0.0000

> <Gold.PLP.ligand.torsion>
0.7908

> <Gold.PLP.Chemscore.Hbond>
3.9600

> <Gold.PLP.Chemscore.CHOScore>
0.0000

> <Gold.PLP.Chemscore.Metal>
0.0000

> <Gold.Chemscore.Hbonds>
donor molecule, donor type, donor heavy atom, donor atom, acceptor molecule, acceptor atom, score
      L1  H     5    29       P1  7957  0.91
      L1  H    16    46       P1  7948  2.00
      P1  H  7997  8010       L1    13  1.00

> <Gold.PLP.Chemscore.Internal.Correction>
0.0732

> <Gold.Rescore>
     Score         DG    S(hbond)    S(metal)    S(lipo)     H(rot)  DE(clash)    DE(int)     intcor
     16.29     -18.79       2.65        0.00      77.59       1.80       1.62       0.88       ----

> <Gold.Chemscore.Fitness>
16.2916

> <Gold.Chemscore.DG>
-18.7873

> <Gold.Chemscore.ZeroCoef>
-5.4800

> <Gold.Chemscore.Hbond>
2.6461

> <Gold.Chemscore.Metal>
0.0000

> <Gold.Chemscore.Lipo>
77.5908

> <Gold.Chemscore.Internal_Hbond>
0.0000

> <Gold.Chemscore.DEClash>
1.6205

> <Gold.Chemscore.DEInternal>
0.8752

> <Gold.Chemscore.Rot>
1.8004

> <Gold.Chemscore.Internal.Correction>
   9.000000E+99

> <Gold.Chemscore.Hbonds>
donor molecule, donor type, donor heavy atom, donor atom, acceptor molecule, acceptor atom, score
      L1  H     5    29       P1  7957  0.80
      L1  H    16    46       P1  7948  0.97
      P1  H  7997  8010       L1    13  0.34

> <Gold.Chemscore.Hbond.Weighted>
-8.8381

> <Gold.Chemscore.Metal.Weighted>
-0.0000

> <Gold.Chemscore.Lipo.Weighted>
-9.0781

> <Gold.Chemscore.Internal_Hbond.Weighted>
0.0000

> <Gold.Chemscore.DEClash.Weighted>
1.6205

> <Gold.Chemscore.DEInternal.Weighted>
0.8752

> <Gold.Chemscore.Rot.Weighted>
4.6090

> <Gold.Chemscore.Internal.Correction.Weighted>
   9.000000E+99

> <Gold.Protein.RotatedTorsions>
[ 6907 6896 6895 6894 ] final -112.08 input  -60.11 | X-H torsion
[ 7974 7965 7964 7962 ] final   93.66 input  175.53 | X-H torsion
[ 8008 7997 7996 7995 ] final   52.11 input   59.86 | X-H torsion
[ 10167 10162 10161 10158 ] final   -5.32 input  -65.29 | X-H torsion
[ 10718 10713 10712 10709 ] final  -52.15 input   66.30 | X-H torsion
[ 10763 10752 10751 10750 ] final   11.49 input  -60.55 | X-H torsion
[ 11005 11000 10999 10996 ] final -128.84 input  -57.11 | X-H torsion

> <Gold.Protein.ActiveResidues>
 VAL166  LYS551  ARG553  GLY616  TRP617  ASP618  TYR619  PRO620  LYS621  CYS622 
 ASP623  PHE694  ASN695  SER759  ASP760  ASP761  ALA762  ILE779  LEU786  VAL792 
 PHE793  MET794  SER795  GLU796  ALA797  LYS798  CYS799  TRP800  GLU811  SER814 

> <Gold.Protein.RotatedAtoms>
  150.7734  133.9141  159.3378 H   0  0  0  0  0  0  0  0  0  0  0  0  # atno 6907 bound_to 6896
  151.7022  135.0926  160.0262 H   0  0  0  0  0  0  0  0  0  0  0  0  # atno 6908 bound_to 6896
  152.3761  133.6444  159.6160 H   0  0  0  0  0  0  0  0  0  0  0  0  # atno 6909 bound_to 6896
  145.4760  139.2280  143.2909 H   0  0  0  0  0  0  0  0  0  0  0  0  # atno 7974 bound_to 7965
  155.4464  140.3456  155.4295 H   0  0  0  0  0  0  0  0  0  0  0  0  # atno 8008 bound_to 7997
  156.1247  140.1497  156.9183 H   0  0  0  0  0  0  0  0  0  0  0  0  # atno 8009 bound_to 7997
  154.4849  140.0858  156.7444 H   0  0  0  0  0  0  0  0  0  0  0  0  # atno 8010 bound_to 7997
  140.6959  143.6321  150.8513 H   0  0  0  0  0  0  0  0  0  0  0  0  # atno 10167 bound_to 10162
  156.1647  130.4149  149.9739 H   0  0  0  0  0  0  0  0  0  0  0  0  # atno 10718 bound_to 10713
  153.1921  135.6844  153.8339 H   0  0  0  0  0  0  0  0  0  0  0  0  # atno 10763 bound_to 10752
  153.7635  135.3206  155.3342 H   0  0  0  0  0  0  0  0  0  0  0  0  # atno 10764 bound_to 10752
  154.8123  135.4709  154.0649 H   0  0  0  0  0  0  0  0  0  0  0  0  # atno 10765 bound_to 10752
  140.9482  134.1101  157.4087 H   0  0  0  0  0  0  0  0  0  0  0  0  # atno 11005 bound_to 11000
  146.2369  140.5542  142.8951 LP  0  0  0  0  0  0  0  0  0  0  0  0  # atno 17320 bound_to 7965
  144.7917  140.6044  143.6537 LP  0  0  0  0  0  0  0  0  0  0  0  0  # atno 17321 bound_to 7965
  140.0039  143.5714  152.2865 LP  0  0  0  0  0  0  0  0  0  0  0  0  # atno 17342 bound_to 10162
  139.6414  144.7655  151.2332 LP  0  0  0  0  0  0  0  0  0  0  0  0  # atno 17343 bound_to 10162
  156.7557  130.9132  151.3639 LP  0  0  0  0  0  0  0  0  0  0  0  0  # atno 17370 bound_to 10713
  157.6759  130.9094  150.0149 LP  0  0  0  0  0  0  0  0  0  0  0  0  # atno 17371 bound_to 10713
  139.8839  135.0058  156.6336 LP  0  0  0  0  0  0  0  0  0  0  0  0  # atno 17394 bound_to 11000
  140.7640  133.8794  155.8440 LP  0  0  0  0  0  0  0  0  0  0  0  0  # atno 17395 bound_to 11000

$$$$
