AV-unprocessed.smi:529|AV-procd|sdf|2839|dock9
  -GOLD-   2262023333D 1   1.00000     0.00000
 Structure written by MMmdl.
 31 32  0  0  0  0  0  0  0  0  2 V2000
  149.4232  142.0228  156.4884 N   0  0  0  0  0  0  0  0  0  0  0  0
  149.4913  140.8899  155.7850 C   0  0  0  0  0  0  0  0  0  0  0  0
  149.0892  140.7490  154.0998 S   0  0  0  0  0  0  0  0  0  0  0  0
  149.4623  139.0523  154.1428 C   0  0  0  0  0  0  0  0  0  0  0  0
  149.8661  138.6593  155.3915 C   0  0  0  0  0  0  0  0  0  0  0  0
  149.8795  139.7082  156.3089 N   0  3  0  0  0  0  0  0  0  0  0  0
  150.2707  139.5324  157.7200 C   0  0  0  0  0  0  0  0  0  0  0  0
  151.5881  140.2464  158.0352 C   0  0  0  0  0  0  0  0  0  0  0  0
  152.5533  140.1219  157.2815 O   0  0  0  0  0  0  0  0  0  0  0  0
  151.6158  140.9801  159.1581 N   0  0  0  0  0  0  0  0  0  0  0  0
  152.7794  141.7094  159.6551 C   0  0  0  0  0  0  0  0  0  0  0  0
  153.3633  141.0222  160.9040 C   0  0  0  0  0  0  0  0  0  0  0  0
  153.5930  142.1343  161.9283 C   0  0  0  0  0  0  0  0  0  0  0  0
  152.5128  143.1641  161.6128 C   0  0  0  0  0  0  0  0  0  0  0  0
  152.4085  143.1424  160.0870 C   0  0  0  0  0  0  0  0  0  0  0  0
  149.6610  142.0655  157.4687 H   0  0  0  0  0  0  0  0  0  0  0  0
  149.3595  138.4500  153.2521 H   0  0  0  0  0  0  0  0  0  0  0  0
  150.1561  137.6742  155.7283 H   0  0  0  0  0  0  0  0  0  0  0  0
  149.4818  139.9450  158.3503 H   0  0  0  0  0  0  0  0  0  0  0  0
  150.3267  138.4659  157.9448 H   0  0  0  0  0  0  0  0  0  0  0  0
  150.7733  141.0377  159.7119 H   0  0  0  0  0  0  0  0  0  0  0  0
  153.5448  141.7529  158.8779 H   0  0  0  0  0  0  0  0  0  0  0  0
  152.6524  140.3045  161.3168 H   0  0  0  0  0  0  0  0  0  0  0  0
  154.2803  140.4749  160.6833 H   0  0  0  0  0  0  0  0  0  0  0  0
  153.5450  141.7751  162.9567 H   0  0  0  0  0  0  0  0  0  0  0  0
  154.5779  142.5782  161.7756 H   0  0  0  0  0  0  0  0  0  0  0  0
  151.5652  142.8486  162.0516 H   0  0  0  0  0  0  0  0  0  0  0  0
  152.7484  144.1542  162.0039 H   0  0  0  0  0  0  0  0  0  0  0  0
  153.1336  143.8407  159.6670 H   0  0  0  0  0  0  0  0  0  0  0  0
  151.4238  143.4609  159.7419 H   0  0  0  0  0  0  0  0  0  0  0  0
  149.1007  142.8907  156.0845 H   0  0  0  0  0  0  0  0  0  0  0  0
  1  2  1  0  0  0  0
  1 16  1  0  0  0  0
  1 31  1  0  0  0  0
  2  6  2  0  0  0  0
  2  3  1  0  0  0  0
  3  4  1  0  0  0  0
  4  5  2  0  0  0  0
  4 17  1  0  0  0  0
  5  6  1  0  0  0  0
  5 18  1  0  0  0  0
  6  7  1  0  0  0  0
  7  8  1  0  0  0  0
  7 19  1  0  0  0  0
  7 20  1  0  0  0  0
  8  9  2  0  0  0  0
  8 10  1  0  0  0  0
 10 11  1  0  0  0  0
 10 21  1  0  0  0  0
 11 15  1  0  0  0  0
 11 12  1  0  0  0  0
 11 22  1  0  0  0  0
 12 13  1  0  0  0  0
 12 23  1  0  0  0  0
 12 24  1  0  0  0  0
 13 14  1  0  0  0  0
 13 25  1  0  0  0  0
 13 26  1  0  0  0  0
 14 15  1  0  0  0  0
 14 27  1  0  0  0  0
 14 28  1  0  0  0  0
 15 29  1  0  0  0  0
 15 30  1  0  0  0  0
M  CHG  1   6   1
M  END
> <s_m_source_file>
AV-unprocessed.smi

> <i_m_source_file_index>
529

> <i_lp_mmshare_version>
43012

> <i_f3d_flags>
0

> <s_epik_input>
W0hdL049YzFcc1tjSF1bY0hdbjFbQ0gyXUMoPU8pW05IXVtDSF0yW0NIMl1bQ0gyXVtDSDJdW0NIMl0y

> <s_epik_cmdline>
J2VwaWtfcHl0aG9uJywgJy1waCcsICc3LjAnLCAnLXRuJywgJzgnLCAnLW1hJywgJzIwMCcsICctbWV0YWxfYmluZGluZycsICctaW1hZScsICc8aW5maWxlLm1hZT4nLCAnLW9tYWUnLCAnPG91dGZpbGUubWFlPic=

> <r_lp_tautomer_probability>
1

> <r_epik_Ionization_Penalty>
0.0151346

> <r_epik_Ionization_Penalty_Charging>
0

> <r_epik_Ionization_Penalty_Neutral>
0.0151346

> <r_epik_State_Penalty>
0.0235202

> <r_epik_Charging_Adjusted_Penalty>
0.0235202

> <i_epik_Tot_Q>
1

> <i_epik_Tot_abs_Q>
1

> <r_epik_Metal_State_Penalty>
0.0235202

> <b_epik_Metal_Only>
0

> <s_lp_Force_Field>
OPLS_2005

> <r_lp_Energy>
21.8229

> <b_lp_Chiralities_Consistent>
1

> <s_lp_Variant>
AV-unprocessed.smi:529-1

> <Gold.Version>
5.8.1

> <Gold.Id.Protein>
6NUR|6NUR_protein|mol2

> <Gold.PLP.Fitness>
42.5488

> <Gold.PLP.PLP>
-30.2930

> <Gold.PLP.part.hbond>
-2.0000

> <Gold.PLP.part.metal>
0.0000

> <Gold.PLP.part.buried>
-0.4240

> <Gold.PLP.part.nonpolar>
-26.6449

> <Gold.PLP.part.repulsive>
0.1979

> <Gold.PLP.ligand.clash>
0.0000

> <Gold.PLP.ligand.torsion>
0.3682

> <Gold.PLP.Chemscore.Hbond>
3.0000

> <Gold.PLP.Chemscore.CHOScore>
1.3298

> <Gold.PLP.Chemscore.Metal>
0.0000

> <Gold.Chemscore.Hbonds>
donor molecule, donor type, donor heavy atom, donor atom, acceptor molecule, acceptor atom, score
      L1  H     1    31       P1  8028  2.00
      P1  H  7997  8008       L1     9  1.00
      L1  C     4    17       P1  7948  0.79
      L1  C     4    17       P1  7957  0.44

> <Gold.PLP.Chemscore.Internal.Correction>
0.0029

> <Gold.Rescore>
     Score         DG    S(hbond)    S(metal)    S(lipo)     H(rot)  DE(clash)    DE(int)     intcor
     16.87     -17.19       1.94        0.00      79.82       1.61       0.15       0.17       ----

> <Gold.Chemscore.Fitness>
16.8741

> <Gold.Chemscore.DG>
-17.1890

> <Gold.Chemscore.ZeroCoef>
-5.4800

> <Gold.Chemscore.Hbond>
1.9429

> <Gold.Chemscore.Metal>
0.0000

> <Gold.Chemscore.Lipo>
79.8158

> <Gold.Chemscore.Internal_Hbond>
0.0000

> <Gold.Chemscore.DEClash>
0.1453

> <Gold.Chemscore.DEInternal>
0.1696

> <Gold.Chemscore.Rot>
1.6089

> <Gold.Chemscore.Internal.Correction>
   9.000000E+99

> <Gold.Chemscore.Hbonds>
donor molecule, donor type, donor heavy atom, donor atom, acceptor molecule, acceptor atom, score
      L1  H     1    31       P1  8028  1.00
      P1  H  7997  8008       L1     9  0.95

> <Gold.Chemscore.Hbond.Weighted>
-6.4894

> <Gold.Chemscore.Metal.Weighted>
-0.0000

> <Gold.Chemscore.Lipo.Weighted>
-9.3384

> <Gold.Chemscore.Internal_Hbond.Weighted>
0.0000

> <Gold.Chemscore.DEClash.Weighted>
0.1453

> <Gold.Chemscore.DEInternal.Weighted>
0.1696

> <Gold.Chemscore.Rot.Weighted>
4.1188

> <Gold.Chemscore.Internal.Correction.Weighted>
   9.000000E+99

> <Gold.Protein.RotatedTorsions>
[ 6907 6896 6895 6894 ] final   34.63 input  -60.11 | X-H torsion
[ 7974 7965 7964 7962 ] final -150.64 input  175.53 | X-H torsion
[ 8008 7997 7996 7995 ] final  -54.25 input   59.86 | X-H torsion
[ 10167 10162 10161 10158 ] final -179.60 input  -65.29 | X-H torsion
[ 10718 10713 10712 10709 ] final  154.27 input   66.30 | X-H torsion
[ 10763 10752 10751 10750 ] final -103.02 input  -60.55 | X-H torsion
[ 11005 11000 10999 10996 ] final  -67.87 input  -57.11 | X-H torsion

> <Gold.Protein.ActiveResidues>
 VAL166  LYS551  ARG553  GLY616  TRP617  ASP618  TYR619  PRO620  LYS621  CYS622 
 ASP623  PHE694  ASN695  SER759  ASP760  ASP761  ALA762  ILE779  LEU786  VAL792 
 PHE793  MET794  SER795  GLU796  ALA797  LYS798  CYS799  TRP800  GLU811  SER814 

> <Gold.Protein.RotatedAtoms>
  152.1051  134.9314  160.0568 H   0  0  0  0  0  0  0  0  0  0  0  0  # atno 6907 bound_to 6896
  152.0513  133.4015  159.4387 H   0  0  0  0  0  0  0  0  0  0  0  0  # atno 6908 bound_to 6896
  150.6841  134.3225  159.4836 H   0  0  0  0  0  0  0  0  0  0  0  0  # atno 6909 bound_to 6896
  144.7896  140.4905  143.5782 H   0  0  0  0  0  0  0  0  0  0  0  0  # atno 7974 bound_to 7965
  154.4157  140.1180  156.5286 H   0  0  0  0  0  0  0  0  0  0  0  0  # atno 8008 bound_to 7997
  155.6629  140.3496  155.4770 H   0  0  0  0  0  0  0  0  0  0  0  0  # atno 8009 bound_to 7997
  155.9698  140.1139  157.0812 H   0  0  0  0  0  0  0  0  0  0  0  0  # atno 8010 bound_to 7997
  139.5379  144.2446  152.0833 H   0  0  0  0  0  0  0  0  0  0  0  0  # atno 10167 bound_to 10162
  157.2338  131.0744  151.1836 H   0  0  0  0  0  0  0  0  0  0  0  0  # atno 10718 bound_to 10713
  154.7777  135.4839  153.9778 H   0  0  0  0  0  0  0  0  0  0  0  0  # atno 10763 bound_to 10752
  153.1451  135.6780  153.8975 H   0  0  0  0  0  0  0  0  0  0  0  0  # atno 10764 bound_to 10752
  153.8637  135.3152  155.3417 H   0  0  0  0  0  0  0  0  0  0  0  0  # atno 10765 bound_to 10752
  141.1518  133.6728  156.6359 H   0  0  0  0  0  0  0  0  0  0  0  0  # atno 11005 bound_to 11000
  145.5830  139.1490  143.3225 LP  0  0  0  0  0  0  0  0  0  0  0  0  # atno 17320 bound_to 7965
  146.2142  140.5959  142.9046 LP  0  0  0  0  0  0  0  0  0  0  0  0  # atno 17321 bound_to 7965
  140.1920  144.4743  150.6474 LP  0  0  0  0  0  0  0  0  0  0  0  0  # atno 17342 bound_to 10162
  140.6594  143.2247  151.5891 LP  0  0  0  0  0  0  0  0  0  0  0  0  # atno 17343 bound_to 10162
  157.3450  130.7053  149.6405 LP  0  0  0  0  0  0  0  0  0  0  0  0  # atno 17370 bound_to 10713
  155.9674  130.4269  150.4718 LP  0  0  0  0  0  0  0  0  0  0  0  0  # atno 17371 bound_to 10713
  140.3430  134.7832  157.4412 LP  0  0  0  0  0  0  0  0  0  0  0  0  # atno 17394 bound_to 11000
  140.0922  134.5586  155.8433 LP  0  0  0  0  0  0  0  0  0  0  0  0  # atno 17395 bound_to 11000

$$$$
