AV-unprocessed.smi:287|AV-procd|sdf|2189|dock3
  -GOLD-   2262021573D 1   1.00000     0.00000
 Structure written by MMmdl.
 55 58  0  0  0  0  0  0  0  0  1 V2000
  141.8323  135.4259  163.2695 C   0  0  0  0  0  0  0  0  0  0  0  0
  143.0368  134.8552  162.6033 C   0  0  0  0  0  0  0  0  0  0  0  0
  144.2821  135.3396  162.3280 C   0  0  0  0  0  0  0  0  0  0  0  0
  145.0002  134.3103  161.6490 C   0  0  0  0  0  0  0  0  0  0  0  0
  146.4319  134.4078  161.1387 C   0  0  1  0  0  0  0  0  0  0  0  0
  147.3571  133.5467  162.0143 C   0  0  0  0  0  0  0  0  0  0  0  0
  146.5833  133.9049  159.8252 O   0  0  0  0  0  0  0  0  0  0  0  0
  146.9445  135.8664  161.0986 C   0  0  0  0  0  0  0  0  0  0  0  0
  148.2620  135.9890  160.4826 N   0  0  0  0  0  0  0  0  0  0  0  0
  148.4718  136.8970  159.5070 C   0  0  0  0  0  0  0  0  0  0  0  0
  147.4443  137.3571  158.7481 N   0  0  0  0  0  0  0  0  0  0  0  0
  147.6783  138.2535  157.7867 C   0  0  0  0  0  0  0  0  0  0  0  0
  148.8388  138.8049  157.4264 N   0  0  0  0  0  0  0  0  0  0  0  0
  149.8799  138.3487  158.1831 C   0  0  0  0  0  0  0  0  0  0  0  0
  149.7712  137.4000  159.2399 C   0  0  0  0  0  0  0  0  0  0  0  0
  151.0193  137.1675  159.7977 N   0  0  0  0  0  0  0  0  0  0  0  0
  151.8171  137.9382  159.1108 C   0  0  0  0  0  0  0  0  0  0  0  0
  151.2249  138.6754  158.1075 N   0  0  0  0  0  0  0  0  0  0  0  0
  151.9288  139.6488  157.2008 C   0  0  2  0  0  0  0  0  0  0  0  0
  152.3382  140.7406  157.9610 O   0  0  0  0  0  0  0  0  0  0  0  0
  151.3991  141.7937  157.8214 C   0  0  1  0  0  0  0  0  0  0  0  0
  152.0459  143.1434  158.1798 C   0  0  0  0  0  0  0  0  0  0  0  0
  151.2138  144.2359  157.8464 O   0  0  0  0  0  0  0  0  0  0  0  0
  150.8303  141.6529  156.3989 C   0  0  2  0  0  0  0  0  0  0  0  0
  149.4543  141.9761  156.3934 O   0  0  0  0  0  0  0  0  0  0  0  0
  151.0441  140.1745  156.0524 C   0  0  1  0  0  0  0  0  0  0  0  0
  151.7090  140.0593  154.8102 O   0  0  0  0  0  0  0  0  0  0  0  0
  144.1205  133.2563  161.5807 C   0  0  0  0  0  0  0  0  0  0  0  0
  144.1991  131.8727  161.0248 C   0  0  0  0  0  0  0  0  0  0  0  0
  142.9275  133.5801  162.1535 O   0  0  0  0  0  0  0  0  0  0  0  0
  152.7984  139.0906  156.8509 H   0  0  0  0  0  0  0  0  0  0  0  0
  150.6172  141.5993  158.5553 H   0  0  0  0  0  0  0  0  0  0  0  0
  151.3535  142.2964  155.6911 H   0  0  0  0  0  0  0  0  0  0  0  0
  150.1168  139.6051  155.9895 H   0  0  0  0  0  0  0  0  0  0  0  0
  141.9883  136.4745  163.5235 H   0  0  0  0  0  0  0  0  0  0  0  0
  141.6062  134.8850  164.1885 H   0  0  0  0  0  0  0  0  0  0  0  0
  140.9625  135.3634  162.6154 H   0  0  0  0  0  0  0  0  0  0  0  0
  144.6379  136.3285  162.5771 H   0  0  0  0  0  0  0  0  0  0  0  0
  147.3401  133.8791  163.0530 H   0  0  0  0  0  0  0  0  0  0  0  0
  148.3917  133.5961  161.6730 H   0  0  0  0  0  0  0  0  0  0  0  0
  147.0541  132.4988  162.0012 H   0  0  0  0  0  0  0  0  0  0  0  0
  146.2324  134.5396  159.2195 H   0  0  0  0  0  0  0  0  0  0  0  0
  146.2529  136.4577  160.4964 H   0  0  0  0  0  0  0  0  0  0  0  0
  146.9464  136.3096  162.0958 H   0  0  0  0  0  0  0  0  0  0  0  0
  148.9358  135.2805  160.7375 H   0  0  0  0  0  0  0  0  0  0  0  0
  146.8133  138.5729  157.2243 H   0  0  0  0  0  0  0  0  0  0  0  0
  152.8760  137.9890  159.3198 H   0  0  0  0  0  0  0  0  0  0  0  0
  152.2394  143.1837  159.2518 H   0  0  0  0  0  0  0  0  0  0  0  0
  153.0074  143.2520  157.6777 H   0  0  0  0  0  0  0  0  0  0  0  0
  151.4722  144.5624  156.9981 H   0  0  0  0  0  0  0  0  0  0  0  0
  149.3610  142.8757  156.1174 H   0  0  0  0  0  0  0  0  0  0  0  0
  152.2648  139.2952  154.8386 H   0  0  0  0  0  0  0  0  0  0  0  0
  145.0619  131.3422  161.4282 H   0  0  0  0  0  0  0  0  0  0  0  0
  144.2927  131.8980  159.9389 H   0  0  0  0  0  0  0  0  0  0  0  0
  143.3069  131.2963  161.2716 H   0  0  0  0  0  0  0  0  0  0  0  0
  1  2  1  0  0  0  0
  1 35  1  0  0  0  0
  1 36  1  0  0  0  0
  1 37  1  0  0  0  0
  2 30  1  0  0  0  0
  2  3  2  0  0  0  0
  3  4  1  0  0  0  0
  3 38  1  0  0  0  0
  4  5  1  0  0  0  0
  4 28  2  0  0  0  0
  5  6  1  0  0  0  0
  5  7  1  0  0  0  0
  5  8  1  0  0  0  0
  6 39  1  0  0  0  0
  6 40  1  0  0  0  0
  6 41  1  0  0  0  0
  7 42  1  0  0  0  0
  8  9  1  0  0  0  0
  8 43  1  0  0  0  0
  8 44  1  0  0  0  0
  9 10  1  0  0  0  0
  9 45  1  0  0  0  0
 10 15  1  0  0  0  0
 10 11  2  0  0  0  0
 11 12  1  0  0  0  0
 12 13  2  0  0  0  0
 12 46  1  0  0  0  0
 13 14  1  0  0  0  0
 14 18  1  0  0  0  0
 14 15  2  0  0  0  0
 15 16  1  0  0  0  0
 16 17  2  0  0  0  0
 17 18  1  0  0  0  0
 17 47  1  0  0  0  0
 18 19  1  0  0  0  0
 19 31  1  0  0  0  0
 19 26  1  0  0  0  0
 19 20  1  0  0  0  0
 20 21  1  0  0  0  0
 21 32  1  0  0  0  0
 21 22  1  0  0  0  0
 21 24  1  0  0  0  0
 22 23  1  0  0  0  0
 22 48  1  0  0  0  0
 22 49  1  0  0  0  0
 23 50  1  0  0  0  0
 24 33  1  0  0  0  0
 24 25  1  0  0  0  0
 24 26  1  0  0  0  0
 25 51  1  0  0  0  0
 26 34  1  0  0  0  0
 26 27  1  0  0  0  0
 27 52  1  0  0  0  0
 28 29  1  0  0  0  0
 28 30  1  0  0  0  0
 29 53  1  0  0  0  0
 29 54  1  0  0  0  0
 29 55  1  0  0  0  0
M  END
> <s_m_source_file>
AV-unprocessed.smi

> <i_m_source_file_index>
287

> <i_lp_mmshare_version>
43012

> <i_f3d_flags>
0

> <s_epik_input>
W0NIM11jMVtjSF1jKGMobzEpW0NIM10pW0NAQF0oW0NIM10pKFtPSF0pW0NIMl1bTkhdYyhuW2NIXW4yKWMoYzIzKW5bY0hdbjNbQ0BASF00T1tDQEhdKFtDSDJdW09IXSlbQ0BASF0oW09IXSlbQ0BIXTRbT0hd

> <s_epik_cmdline>
J2VwaWtfcHl0aG9uJywgJy1waCcsICc3LjAnLCAnLXRuJywgJzgnLCAnLW1hJywgJzIwMCcsICctbWV0YWxfYmluZGluZycsICctaW1hZScsICc8aW5maWxlLm1hZT4nLCAnLW9tYWUnLCAnPG91dGZpbGUubWFlPic=

> <r_lp_tautomer_probability>
1

> <r_epik_Ionization_Penalty>
0.000992612

> <r_epik_Ionization_Penalty_Charging>
0

> <r_epik_Ionization_Penalty_Neutral>
0.000992612

> <r_epik_State_Penalty>
-0

> <r_epik_Charging_Adjusted_Penalty>
0

> <i_epik_Tot_Q>
0

> <i_epik_Tot_abs_Q>
0

> <r_epik_Metal_State_Penalty>
-0

> <b_epik_Metal_Only>
0

> <s_epik_Chemistry_Notes>
This compound contains an acetal/aminal-like group ( X-CH(R)-Y where X, Y are N, S, or O) that may be acid/base labile, releasing an aldehyde.

> <s_lp_Force_Field>
OPLS_2005

> <r_lp_Energy>
40.6201

> <b_lp_Chiralities_Consistent>
1

> <s_lp_Variant>
AV-unprocessed.smi:287-13

> <Gold.Version>
5.8.1

> <Gold.Id.Protein>
6NUR|6NUR_protein|mol2

> <Gold.PLP.Fitness>
49.3625

> <Gold.PLP.PLP>
-42.1751

> <Gold.PLP.part.hbond>
-3.6457

> <Gold.PLP.part.metal>
0.0000

> <Gold.PLP.part.buried>
-8.7497

> <Gold.PLP.part.nonpolar>
-30.7739

> <Gold.PLP.part.repulsive>
0.2739

> <Gold.PLP.ligand.clash>
0.0000

> <Gold.PLP.ligand.torsion>
0.9016

> <Gold.PLP.Chemscore.Hbond>
2.9425

> <Gold.PLP.Chemscore.CHOScore>
0.0000

> <Gold.PLP.Chemscore.Metal>
0.0000

> <Gold.Chemscore.Hbonds>
donor molecule, donor type, donor heavy atom, donor atom, acceptor molecule, acceptor atom, score
      L1  H    25    51       P1  8028  1.00
      P1  H  6896  6909       L1    16  0.98
      P1  H  7989  7998       L1    27  1.00

> <Gold.PLP.Chemscore.Internal.Correction>
0.1632

> <Gold.Rescore>
     Score         DG    S(hbond)    S(metal)    S(lipo)     H(rot)  DE(clash)    DE(int)     intcor
      9.25     -11.14       2.66        0.00      87.72       5.27       0.01       1.88       ----

> <Gold.Chemscore.Fitness>
9.2503

> <Gold.Chemscore.DG>
-11.1375

> <Gold.Chemscore.ZeroCoef>
-5.4800

> <Gold.Chemscore.Hbond>
2.6580

> <Gold.Chemscore.Metal>
0.0000

> <Gold.Chemscore.Lipo>
87.7245

> <Gold.Chemscore.Internal_Hbond>
0.0000

> <Gold.Chemscore.DEClash>
0.0106

> <Gold.Chemscore.DEInternal>
1.8765

> <Gold.Chemscore.Rot>
5.2672

> <Gold.Chemscore.Internal.Correction>
   9.000000E+99

> <Gold.Chemscore.Hbonds>
donor molecule, donor type, donor heavy atom, donor atom, acceptor molecule, acceptor atom, score
      L1  H    25    51       P1  8028  0.99
      P1  H  6896  6909       L1    16  0.63
      P1  H  7989  7998       L1    27  0.85

> <Gold.Chemscore.Hbond.Weighted>
-8.8776

> <Gold.Chemscore.Metal.Weighted>
-0.0000

> <Gold.Chemscore.Lipo.Weighted>
-10.2638

> <Gold.Chemscore.Internal_Hbond.Weighted>
0.0000

> <Gold.Chemscore.DEClash.Weighted>
0.0106

> <Gold.Chemscore.DEInternal.Weighted>
1.8765

> <Gold.Chemscore.Rot.Weighted>
13.4839

> <Gold.Chemscore.Internal.Correction.Weighted>
   9.000000E+99

> <Gold.Protein.RotatedTorsions>
[ 6907 6896 6895 6894 ] final  106.12 input  -60.11 | X-H torsion
[ 7974 7965 7964 7962 ] final  -18.25 input  175.53 | X-H torsion
[ 8008 7997 7996 7995 ] final  -20.31 input   59.86 | X-H torsion
[ 10167 10162 10161 10158 ] final   62.30 input  -65.29 | X-H torsion
[ 10718 10713 10712 10709 ] final   91.40 input   66.30 | X-H torsion
[ 10763 10752 10751 10750 ] final  -94.37 input  -60.55 | X-H torsion
[ 11005 11000 10999 10996 ] final  -20.96 input  -57.11 | X-H torsion

> <Gold.Protein.ActiveResidues>
 VAL166  LYS551  ARG553  GLY616  TRP617  ASP618  TYR619  PRO620  LYS621  CYS622 
 ASP623  PHE694  ASN695  SER759  ASP760  ASP761  ALA762  ILE779  LEU786  VAL792 
 PHE793  MET794  SER795  GLU796  ALA797  LYS798  CYS799  TRP800  GLU811  SER814 

> <Gold.Protein.RotatedAtoms>
  152.5205  133.9428  159.7634 H   0  0  0  0  0  0  0  0  0  0  0  0  # atno 6907 bound_to 6896
  150.9754  133.6292  159.2738 H   0  0  0  0  0  0  0  0  0  0  0  0  # atno 6908 bound_to 6896
  151.3488  135.0885  159.9449 H   0  0  0  0  0  0  0  0  0  0  0  0  # atno 6909 bound_to 6896
  146.1901  140.3895  142.8461 H   0  0  0  0  0  0  0  0  0  0  0  0  # atno 7974 bound_to 7965
  154.4778  140.2065  155.9835 H   0  0  0  0  0  0  0  0  0  0  0  0  # atno 8008 bound_to 7997
  156.1117  140.3228  155.8052 H   0  0  0  0  0  0  0  0  0  0  0  0  # atno 8009 bound_to 7997
  155.4622  140.0525  157.2980 H   0  0  0  0  0  0  0  0  0  0  0  0  # atno 8010 bound_to 7997
  140.1454  144.4513  150.6788 H   0  0  0  0  0  0  0  0  0  0  0  0  # atno 10167 bound_to 10162
  157.6960  131.0406  150.3723 H   0  0  0  0  0  0  0  0  0  0  0  0  # atno 10718 bound_to 10713
  154.7049  135.5160  153.8580 H   0  0  0  0  0  0  0  0  0  0  0  0  # atno 10763 bound_to 10752
  153.0733  135.6608  154.0209 H   0  0  0  0  0  0  0  0  0  0  0  0  # atno 10764 bound_to 10752
  154.0062  135.3006  155.3377 H   0  0  0  0  0  0  0  0  0  0  0  0  # atno 10765 bound_to 10752
  140.8515  133.7853  155.9971 H   0  0  0  0  0  0  0  0  0  0  0  0  # atno 11005 bound_to 11000
  144.8471  140.6945  143.6192 LP  0  0  0  0  0  0  0  0  0  0  0  0  # atno 17320 bound_to 7965
  145.3818  139.1635  143.4276 LP  0  0  0  0  0  0  0  0  0  0  0  0  # atno 17321 bound_to 7965
  140.6735  143.2295  151.5566 LP  0  0  0  0  0  0  0  0  0  0  0  0  # atno 17342 bound_to 10162
  139.5451  144.2542  152.1427 LP  0  0  0  0  0  0  0  0  0  0  0  0  # atno 17343 bound_to 10162
  156.4147  130.3941  149.6867 LP  0  0  0  0  0  0  0  0  0  0  0  0  # atno 17370 bound_to 10713
  156.4139  130.7735  151.2750 LP  0  0  0  0  0  0  0  0  0  0  0  0  # atno 17371 bound_to 10713
  140.8785  134.2640  157.5156 LP  0  0  0  0  0  0  0  0  0  0  0  0  # atno 17394 bound_to 11000
  139.8704  134.9603  156.4360 LP  0  0  0  0  0  0  0  0  0  0  0  0  # atno 17395 bound_to 11000

$$$$
