AV-unprocessed.smi:3158|AV-procd|sdf|12045|dock5
  -GOLD-   2272017473D 1   1.00000     0.00000
 Structure written by MMmdl.
 39 39  0  0  0  0  0  0  0  0  1 V2000
  152.7316  144.1147  161.9022 C   0  0  0  0  0  0  0  0  0  0  0  0
  152.7535  142.6113  161.5901 C   0  0  0  0  0  0  0  0  0  0  0  0
  153.2754  142.2780  160.1800 C   0  0  2  0  0  0  0  0  0  0  0  0
  153.0617  143.4494  159.2080 C   0  0  0  0  0  0  0  0  0  0  0  0
  152.6150  141.0803  159.6670 N   0  0  0  0  0  0  0  0  0  0  0  0
  153.2311  139.9456  159.2997 C   0  0  0  0  0  0  0  0  0  0  0  0
  154.4508  139.7872  159.3603 O   0  0  0  0  0  0  0  0  0  0  0  0
  152.3327  138.8298  158.7399 C   0  0  2  0  0  0  0  0  0  0  0  0
  153.1716  137.7640  158.0165 C   0  0  0  0  0  0  0  0  0  0  0  0
  151.2788  139.3292  157.8381 N   0  0  0  0  0  0  0  0  0  0  0  0
  151.7664  139.8135  156.5512 C   0  0  0  0  0  0  0  0  0  0  0  0
  150.9472  141.0389  156.1232 C   0  0  0  0  0  0  0  0  0  0  0  0
  149.8995  140.6759  155.1893 N   0  0  0  0  0  0  0  0  0  0  0  0
  148.7203  141.3392  154.9242 C   0  0  0  0  0  0  0  0  0  0  0  0
  148.0511  140.6154  153.9792 C   0  0  0  0  0  0  0  0  0  0  0  0
  148.9118  139.5108  153.7274 C   0  0  0  0  0  0  0  0  0  0  0  0
  150.0171  139.5492  154.4541 N   0  0  0  0  0  0  0  0  0  0  0  0
  152.3120  144.2974  162.8915 H   0  0  0  0  0  0  0  0  0  0  0  0
  152.1228  144.6575  161.1788 H   0  0  0  0  0  0  0  0  0  0  0  0
  153.7339  144.5432  161.8860 H   0  0  0  0  0  0  0  0  0  0  0  0
  153.3575  142.0969  162.3389 H   0  0  0  0  0  0  0  0  0  0  0  0
  151.7412  142.2203  161.6981 H   0  0  0  0  0  0  0  0  0  0  0  0
  154.3480  142.0897  160.2573 H   0  0  0  0  0  0  0  0  0  0  0  0
  153.5651  144.3493  159.5624 H   0  0  0  0  0  0  0  0  0  0  0  0
  152.0025  143.6831  159.0947 H   0  0  0  0  0  0  0  0  0  0  0  0
  153.4593  143.2212  158.2186 H   0  0  0  0  0  0  0  0  0  0  0  0
  151.6106  141.1219  159.5719 H   0  0  0  0  0  0  0  0  0  0  0  0
  151.8430  138.3371  159.5820 H   0  0  0  0  0  0  0  0  0  0  0  0
  153.9488  137.3616  158.6675 H   0  0  0  0  0  0  0  0  0  0  0  0
  153.6573  138.1677  157.1271 H   0  0  0  0  0  0  0  0  0  0  0  0
  152.5484  136.9271  157.6998 H   0  0  0  0  0  0  0  0  0  0  0  0
  150.5564  138.6380  157.6935 H   0  0  0  0  0  0  0  0  0  0  0  0
  152.8214  140.0787  156.6335 H   0  0  0  0  0  0  0  0  0  0  0  0
  151.6798  139.0383  155.7889 H   0  0  0  0  0  0  0  0  0  0  0  0
  150.4860  141.5129  156.9909 H   0  0  0  0  0  0  0  0  0  0  0  0
  151.5889  141.7879  155.6557 H   0  0  0  0  0  0  0  0  0  0  0  0
  148.4582  142.2596  155.4249 H   0  0  0  0  0  0  0  0  0  0  0  0
  147.0925  140.8399  153.5359 H   0  0  0  0  0  0  0  0  0  0  0  0
  148.7674  138.6874  153.0434 H   0  0  0  0  0  0  0  0  0  0  0  0
  1  2  1  0  0  0  0
  1 18  1  0  0  0  0
  1 19  1  0  0  0  0
  1 20  1  0  0  0  0
  2  3  1  0  0  0  0
  2 21  1  0  0  0  0
  2 22  1  0  0  0  0
  3  4  1  0  0  0  0
  3  5  1  0  0  0  0
  3 23  1  0  0  0  0
  4 24  1  0  0  0  0
  4 25  1  0  0  0  0
  4 26  1  0  0  0  0
  5  6  1  0  0  0  0
  5 27  1  0  0  0  0
  6  7  2  0  0  0  0
  6  8  1  0  0  0  0
  8  9  1  0  0  0  0
  8 10  1  0  0  0  0
  8 28  1  0  0  0  0
  9 29  1  0  0  0  0
  9 30  1  0  0  0  0
  9 31  1  0  0  0  0
 10 11  1  0  0  0  0
 10 32  1  0  0  0  0
 11 12  1  0  0  0  0
 11 33  1  0  0  0  0
 11 34  1  0  0  0  0
 12 13  1  0  0  0  0
 12 35  1  0  0  0  0
 12 36  1  0  0  0  0
 13 17  1  0  0  0  0
 13 14  1  0  0  0  0
 14 15  2  0  0  0  0
 14 37  1  0  0  0  0
 15 16  1  0  0  0  0
 15 38  1  0  0  0  0
 16 17  2  0  0  0  0
 16 39  1  0  0  0  0
M  END
> <s_m_source_file>
AV-unprocessed.smi

> <i_m_source_file_index>
3158

> <i_lp_mmshare_version>
43012

> <i_f3d_flags>
0

> <s_epik_input>
W0NIM11bQ0gyXVtDQEhdKFtDSDNdKVtOSF1DKD1PKVtDQEhdKFtDSDNdKVtOSF1bQ0gyXVtDSDJdbjFbY0hdW2NIXVtjSF1uMQ==

> <s_epik_cmdline>
J2VwaWtfcHl0aG9uJywgJy1waCcsICc3LjAnLCAnLXRuJywgJzgnLCAnLW1hJywgJzIwMCcsICctbWV0YWxfYmluZGluZycsICctaW1hZScsICc8aW5maWxlLm1hZT4nLCAnLW9tYWUnLCAnPG91dGZpbGUubWFlPic=

> <r_lp_tautomer_probability>
1

> <r_epik_Ionization_Penalty>
0.724013

> <r_epik_Ionization_Penalty_Charging>
0

> <r_epik_Ionization_Penalty_Neutral>
0.724013

> <r_epik_State_Penalty>
0.74758

> <r_epik_Charging_Adjusted_Penalty>
0.74758

> <i_epik_Tot_Q>
0

> <i_epik_Tot_abs_Q>
0

> <r_epik_Metal_State_Penalty>
0.746846

> <b_epik_Metal_Only>
0

> <s_lp_Force_Field>
OPLS_2005

> <r_lp_Energy>
5.18205

> <b_lp_Chiralities_Consistent>
1

> <s_lp_Variant>
AV-unprocessed.smi:3158-5

> <Gold.Version>
5.8.1

> <Gold.Id.Protein>
6NUR|6NUR_protein|mol2

> <Gold.PLP.Fitness>
42.4707

> <Gold.PLP.PLP>
-34.8124

> <Gold.PLP.part.hbond>
-2.0000

> <Gold.PLP.part.metal>
0.0000

> <Gold.PLP.part.buried>
0.9100

> <Gold.PLP.part.nonpolar>
-32.4689

> <Gold.PLP.part.repulsive>
0.2235

> <Gold.PLP.ligand.clash>
0.0000

> <Gold.PLP.ligand.torsion>
1.7568

> <Gold.PLP.Chemscore.Hbond>
1.9424

> <Gold.PLP.Chemscore.CHOScore>
1.6964

> <Gold.PLP.Chemscore.Metal>
0.0000

> <Gold.Chemscore.Hbonds>
donor molecule, donor type, donor heavy atom, donor atom, acceptor molecule, acceptor atom, score
      P1  H  7997  8010       L1     7  0.67
      L1  C    14    37       P1  8028  1.00
      L1  C    16    39       P1  7948  0.57
      L1  C    16    39       P1  7957  0.24

> <Gold.PLP.Chemscore.Internal.Correction>
0.2555

> <Gold.Rescore>
     Score         DG    S(hbond)    S(metal)    S(lipo)     H(rot)  DE(clash)    DE(int)     intcor
      9.54     -13.32       0.77        0.00      91.58       2.12       1.48       2.29       ----

> <Gold.Chemscore.Fitness>
9.5444

> <Gold.Chemscore.DG>
-13.3188

> <Gold.Chemscore.ZeroCoef>
-5.4800

> <Gold.Chemscore.Hbond>
0.7663

> <Gold.Chemscore.Metal>
0.0000

> <Gold.Chemscore.Lipo>
91.5830

> <Gold.Chemscore.Internal_Hbond>
0.0000

> <Gold.Chemscore.DEClash>
1.4845

> <Gold.Chemscore.DEInternal>
2.2899

> <Gold.Chemscore.Rot>
2.1234

> <Gold.Chemscore.Internal.Correction>
   9.000000E+99

> <Gold.Chemscore.Hbonds>
donor molecule, donor type, donor heavy atom, donor atom, acceptor molecule, acceptor atom, score
      P1  H  7997  8010       L1     7  0.42

> <Gold.Chemscore.Hbond.Weighted>
-2.5595

> <Gold.Chemscore.Metal.Weighted>
-0.0000

> <Gold.Chemscore.Lipo.Weighted>
-10.7152

> <Gold.Chemscore.Internal_Hbond.Weighted>
0.0000

> <Gold.Chemscore.DEClash.Weighted>
1.4845

> <Gold.Chemscore.DEInternal.Weighted>
2.2899

> <Gold.Chemscore.Rot.Weighted>
5.4359

> <Gold.Chemscore.Internal.Correction.Weighted>
   9.000000E+99

> <Gold.Protein.RotatedTorsions>
[ 6907 6896 6895 6894 ] final    8.00 input  -60.11 | X-H torsion
[ 7974 7965 7964 7962 ] final  168.62 input  175.53 | X-H torsion
[ 8008 7997 7996 7995 ] final   -8.41 input   59.86 | X-H torsion
[ 10167 10162 10161 10158 ] final  -98.89 input  -65.29 | X-H torsion
[ 10718 10713 10712 10709 ] final  -51.36 input   66.30 | X-H torsion
[ 10763 10752 10751 10750 ] final  157.04 input  -60.55 | X-H torsion
[ 11005 11000 10999 10996 ] final   83.77 input  -57.11 | X-H torsion

> <Gold.Protein.ActiveResidues>
 VAL166  LYS551  ARG553  GLY616  TRP617  ASP618  TYR619  PRO620  LYS621  CYS622 
 ASP623  PHE694  ASN695  SER759  ASP760  ASP761  ALA762  ILE779  LEU786  VAL792 
 PHE793  MET794  SER795  GLU796  ALA797  LYS798  CYS799  TRP800  GLU811  SER814 

> <Gold.Protein.RotatedAtoms>
  151.6990  135.0933  160.0247 H   0  0  0  0  0  0  0  0  0  0  0  0  # atno 6907 bound_to 6896
  152.3732  133.6442  159.6111 H   0  0  0  0  0  0  0  0  0  0  0  0  # atno 6908 bound_to 6896
  150.7689  133.9153  159.3423 H   0  0  0  0  0  0  0  0  0  0  0  0  # atno 6909 bound_to 6896
  144.7382  139.8934  143.6404 H   0  0  0  0  0  0  0  0  0  0  0  0  # atno 7974 bound_to 7965
  154.5743  140.2381  155.8145 H   0  0  0  0  0  0  0  0  0  0  0  0  # atno 8008 bound_to 7997
  156.2131  140.3020  155.9735 H   0  0  0  0  0  0  0  0  0  0  0  0  # atno 8009 bound_to 7997
  155.2655  140.0416  157.2992 H   0  0  0  0  0  0  0  0  0  0  0  0  # atno 8010 bound_to 7997
  140.2682  143.3362  152.0560 H   0  0  0  0  0  0  0  0  0  0  0  0  # atno 10167 bound_to 10162
  156.1717  130.4149  149.9637 H   0  0  0  0  0  0  0  0  0  0  0  0  # atno 10718 bound_to 10713
  154.1940  135.2793  155.3013 H   0  0  0  0  0  0  0  0  0  0  0  0  # atno 10763 bound_to 10752
  154.5907  135.5560  153.7279 H   0  0  0  0  0  0  0  0  0  0  0  0  # atno 10764 bound_to 10752
  153.0105  135.6367  154.2078 H   0  0  0  0  0  0  0  0  0  0  0  0  # atno 10765 bound_to 10752
  139.9020  134.8169  156.2354 H   0  0  0  0  0  0  0  0  0  0  0  0  # atno 11005 bound_to 11000
  146.1125  139.4132  143.0279 LP  0  0  0  0  0  0  0  0  0  0  0  0  # atno 17320 bound_to 7965
  145.7422  141.0004  143.1295 LP  0  0  0  0  0  0  0  0  0  0  0  0  # atno 17321 bound_to 7965
  139.4997  144.6674  151.6324 LP  0  0  0  0  0  0  0  0  0  0  0  0  # atno 17342 bound_to 10162
  140.5911  143.9777  150.6325 LP  0  0  0  0  0  0  0  0  0  0  0  0  # atno 17343 bound_to 10162
  156.7435  130.9088  151.3633 LP  0  0  0  0  0  0  0  0  0  0  0  0  # atno 17370 bound_to 10713
  157.6807  130.9137  150.0261 LP  0  0  0  0  0  0  0  0  0  0  0  0  # atno 17371 bound_to 10713
  141.0318  133.6984  156.1444 LP  0  0  0  0  0  0  0  0  0  0  0  0  # atno 17394 bound_to 11000
  140.7084  134.4488  157.5583 LP  0  0  0  0  0  0  0  0  0  0  0  0  # atno 17395 bound_to 11000

$$$$
