AV-unprocessed.smi:1856|AV-procd|sdf|7537|dock4
  -GOLD-   22720 9253D 1   1.00000     0.00000
 Structure written by MMmdl.
 45 46  0  0  0  0  0  0  0  0  2 V2000
  144.9326  133.4695  150.4500 C   0  0  0  0  0  0  0  0  0  0  0  0
  144.8580  134.9553  150.8192 C   0  0  0  0  0  0  0  0  0  0  0  0
  145.8420  135.3325  151.9412 C   0  0  0  0  0  0  0  0  0  0  0  0
  145.6304  136.7553  152.4676 C   0  0  0  0  0  0  0  0  0  0  0  0
  144.5698  137.0688  153.0083 O   0  0  0  0  0  0  0  0  0  0  0  0
  146.6562  137.6056  152.3065 N   0  0  0  0  0  0  0  0  0  0  0  0
  146.6841  138.9982  152.7431 C   0  0  2  0  0  0  0  0  0  0  0  0
  146.6046  139.9331  151.5249 C   0  0  0  0  0  0  0  0  0  0  0  0
  147.9019  139.2566  153.5782 C   0  0  0  0  0  0  0  0  0  0  0  0
  148.9499  138.4038  153.7703 N   0  3  0  0  0  0  0  0  0  0  0  0
  149.8798  138.9801  154.6358 C   0  0  0  0  0  0  0  0  0  0  0  0
  151.0962  138.5042  155.1152 C   0  0  0  0  0  0  0  0  0  0  0  0
  151.8039  139.3498  155.9947 C   0  0  0  0  0  0  0  0  0  0  0  0
  151.2969  140.6121  156.3667 C   0  0  0  0  0  0  0  0  0  0  0  0
  150.0614  141.0827  155.8749 C   0  0  0  0  0  0  0  0  0  0  0  0
  149.3699  140.2412  155.0041 C   0  0  0  0  0  0  0  0  0  0  0  0
  148.1483  140.3670  154.3340 N   0  0  0  0  0  0  0  0  0  0  0  0
  147.3503  141.5885  154.5258 C   0  0  0  0  0  0  0  0  0  0  0  0
  145.9941  141.3208  155.2064 C   0  0  2  0  0  0  0  0  0  0  0  0
  145.0914  142.5602  155.2023 C   0  0  0  0  0  0  0  0  0  0  0  0
  146.1934  140.9128  156.5446 O   0  0  0  0  0  0  0  0  0  0  0  0
  144.2283  133.2320  149.6522 H   0  0  0  0  0  0  0  0  0  0  0  0
  144.6898  132.8392  151.3062 H   0  0  0  0  0  0  0  0  0  0  0  0
  145.9306  133.1978  150.1047 H   0  0  0  0  0  0  0  0  0  0  0  0
  145.0635  135.5549  149.9311 H   0  0  0  0  0  0  0  0  0  0  0  0
  143.8369  135.1915  151.1223 H   0  0  0  0  0  0  0  0  0  0  0  0
  145.7356  134.6398  152.7768 H   0  0  0  0  0  0  0  0  0  0  0  0
  146.8656  135.2283  151.5778 H   0  0  0  0  0  0  0  0  0  0  0  0
  147.4885  137.2557  151.8539 H   0  0  0  0  0  0  0  0  0  0  0  0
  145.8167  139.2066  153.3715 H   0  0  0  0  0  0  0  0  0  0  0  0
  146.6105  140.9794  151.8323 H   0  0  0  0  0  0  0  0  0  0  0  0
  145.6856  139.7633  150.9629 H   0  0  0  0  0  0  0  0  0  0  0  0
  147.4407  139.7784  150.8420 H   0  0  0  0  0  0  0  0  0  0  0  0
  151.4860  137.5372  154.8325 H   0  0  0  0  0  0  0  0  0  0  0  0
  152.7542  139.0236  156.3924 H   0  0  0  0  0  0  0  0  0  0  0  0
  151.8671  141.2323  157.0430 H   0  0  0  0  0  0  0  0  0  0  0  0
  149.6816  142.0511  156.1656 H   0  0  0  0  0  0  0  0  0  0  0  0
  147.9420  142.2839  155.1224 H   0  0  0  0  0  0  0  0  0  0  0  0
  147.2111  142.0657  153.5550 H   0  0  0  0  0  0  0  0  0  0  0  0
  145.4791  140.5112  154.6883 H   0  0  0  0  0  0  0  0  0  0  0  0
  144.8894  142.8930  154.1841 H   0  0  0  0  0  0  0  0  0  0  0  0
  145.5534  143.3901  155.7386 H   0  0  0  0  0  0  0  0  0  0  0  0
  144.1321  142.3500  155.6765 H   0  0  0  0  0  0  0  0  0  0  0  0
  145.9564  141.6280  157.1146 H   0  0  0  0  0  0  0  0  0  0  0  0
  149.0210  137.4931  153.3347 H   0  0  0  0  0  0  0  0  0  0  0  0
  1  2  1  0  0  0  0
  1 22  1  0  0  0  0
  1 23  1  0  0  0  0
  1 24  1  0  0  0  0
  2  3  1  0  0  0  0
  2 25  1  0  0  0  0
  2 26  1  0  0  0  0
  3  4  1  0  0  0  0
  3 27  1  0  0  0  0
  3 28  1  0  0  0  0
  4  5  2  0  0  0  0
  4  6  1  0  0  0  0
  6  7  1  0  0  0  0
  6 29  1  0  0  0  0
  7  8  1  0  0  0  0
  7  9  1  0  0  0  0
  7 30  1  0  0  0  0
  8 31  1  0  0  0  0
  8 32  1  0  0  0  0
  8 33  1  0  0  0  0
  9 17  1  0  0  0  0
  9 10  2  0  0  0  0
 10 11  1  0  0  0  0
 10 45  1  0  0  0  0
 11 16  2  0  0  0  0
 11 12  1  0  0  0  0
 12 13  2  0  0  0  0
 12 34  1  0  0  0  0
 13 14  1  0  0  0  0
 13 35  1  0  0  0  0
 14 15  2  0  0  0  0
 14 36  1  0  0  0  0
 15 16  1  0  0  0  0
 15 37  1  0  0  0  0
 16 17  1  0  0  0  0
 17 18  1  0  0  0  0
 18 19  1  0  0  0  0
 18 38  1  0  0  0  0
 18 39  1  0  0  0  0
 19 20  1  0  0  0  0
 19 21  1  0  0  0  0
 19 40  1  0  0  0  0
 20 41  1  0  0  0  0
 20 42  1  0  0  0  0
 20 43  1  0  0  0  0
 21 44  1  0  0  0  0
M  CHG  1  10   1
M  END
> <s_m_source_file>
AV-unprocessed.smi

> <i_m_source_file_index>
1856

> <i_lp_mmshare_version>
43012

> <i_f3d_flags>
0

> <s_epik_input>
W0NIM11bQ0gyXVtDSDJdQyg9TylbTkhdW0NASF0oW0NIM10pYyhuMSluKFtDSDJdW0NASF0oW0NIM10pW09IXSljKGMxMilbY0hdW2NIXVtjSF1bY0hdMg==

> <s_epik_cmdline>
J2VwaWtfcHl0aG9uJywgJy1waCcsICc3LjAnLCAnLXRuJywgJzgnLCAnLW1hJywgJzIwMCcsICctbWV0YWxfYmluZGluZycsICctaW1hZScsICc8aW5maWxlLm1hZT4nLCAnLW9tYWUnLCAnPG91dGZpbGUubWFlPic=

> <r_epik_Ionization_Penalty>
0.945588

> <r_epik_Ionization_Penalty_Charging>
0.945588

> <r_epik_Ionization_Penalty_Neutral>
8.64698e-08

> <r_epik_State_Penalty>
0.989378

> <r_epik_Charging_Adjusted_Penalty>
1.93497

> <i_epik_Tot_Q>
1

> <i_epik_Tot_abs_Q>
1

> <r_epik_Metal_State_Penalty>
1.10045

> <b_epik_Metal_Only>
0

> <s_lp_Force_Field>
OPLS_2005

> <r_lp_Energy>
9.41994

> <b_lp_Chiralities_Consistent>
1

> <s_lp_Variant>
AV-unprocessed.smi:1856-5

> <Gold.Version>
5.8.1

> <Gold.Id.Protein>
6NUR|6NUR_protein|mol2

> <Gold.PLP.Fitness>
51.2581

> <Gold.PLP.PLP>
-42.8161

> <Gold.PLP.part.hbond>
-3.0000

> <Gold.PLP.part.metal>
0.0000

> <Gold.PLP.part.buried>
2.1955

> <Gold.PLP.part.nonpolar>
-40.8736

> <Gold.PLP.part.repulsive>
0.3255

> <Gold.PLP.ligand.clash>
0.0000

> <Gold.PLP.ligand.torsion>
0.3143

> <Gold.PLP.Chemscore.Hbond>
3.0000

> <Gold.PLP.Chemscore.CHOScore>
0.0000

> <Gold.PLP.Chemscore.Metal>
0.0000

> <Gold.Chemscore.Hbonds>
donor molecule, donor type, donor heavy atom, donor atom, acceptor molecule, acceptor atom, score
      L1  H     6    29       P1  7948  1.00
      L1  H    10    45       P1  7948  2.00

> <Gold.PLP.Chemscore.Internal.Correction>
0.0707

> <Gold.Rescore>
     Score         DG    S(hbond)    S(metal)    S(lipo)     H(rot)  DE(clash)    DE(int)     intcor
     14.34     -17.16       1.94        0.00      99.55       2.52       2.24       0.59       ----

> <Gold.Chemscore.Fitness>
14.3397

> <Gold.Chemscore.DG>
-17.1610

> <Gold.Chemscore.ZeroCoef>
-5.4800

> <Gold.Chemscore.Hbond>
1.9386

> <Gold.Chemscore.Metal>
0.0000

> <Gold.Chemscore.Lipo>
99.5496

> <Gold.Chemscore.Internal_Hbond>
0.0000

> <Gold.Chemscore.DEClash>
2.2358

> <Gold.Chemscore.DEInternal>
0.5856

> <Gold.Chemscore.Rot>
2.5161

> <Gold.Chemscore.Internal.Correction>
   9.000000E+99

> <Gold.Chemscore.Hbonds>
donor molecule, donor type, donor heavy atom, donor atom, acceptor molecule, acceptor atom, score
      L1  H     6    29       P1  7948  0.96
      L1  H    10    45       P1  7948  0.98

> <Gold.Chemscore.Hbond.Weighted>
-6.4749

> <Gold.Chemscore.Metal.Weighted>
-0.0000

> <Gold.Chemscore.Lipo.Weighted>
-11.6473

> <Gold.Chemscore.Internal_Hbond.Weighted>
0.0000

> <Gold.Chemscore.DEClash.Weighted>
2.2358

> <Gold.Chemscore.DEInternal.Weighted>
0.5856

> <Gold.Chemscore.Rot.Weighted>
6.4412

> <Gold.Chemscore.Internal.Correction.Weighted>
   9.000000E+99

> <Gold.Protein.RotatedTorsions>
[ 6907 6896 6895 6894 ] final  129.84 input  -60.11 | X-H torsion
[ 7974 7965 7964 7962 ] final   51.87 input  175.53 | X-H torsion
[ 8008 7997 7996 7995 ] final  -67.55 input   59.86 | X-H torsion
[ 10167 10162 10161 10158 ] final  -89.03 input  -65.29 | X-H torsion
[ 10718 10713 10712 10709 ] final -120.21 input   66.30 | X-H torsion
[ 10763 10752 10751 10750 ] final  120.76 input  -60.55 | X-H torsion
[ 11005 11000 10999 10996 ] final  -93.83 input  -57.11 | X-H torsion

> <Gold.Protein.ActiveResidues>
 VAL166  LYS551  ARG553  GLY616  TRP617  ASP618  TYR619  PRO620  LYS621  CYS622 
 ASP623  PHE694  ASN695  SER759  ASP760  ASP761  ALA762  ILE779  LEU786  VAL792 
 PHE793  MET794  SER795  GLU796  ALA797  LYS798  CYS799  TRP800  GLU811  SER814 

> <Gold.Protein.RotatedAtoms>
  152.3585  133.6267  159.5996 H   0  0  0  0  0  0  0  0  0  0  0  0  # atno 6907 bound_to 6896
  150.7584  133.9462  159.3480 H   0  0  0  0  0  0  0  0  0  0  0  0  # atno 6908 bound_to 6896
  151.7304  135.0877  160.0350 H   0  0  0  0  0  0  0  0  0  0  0  0  # atno 6909 bound_to 6896
  145.9870  139.4300  143.0097 H   0  0  0  0  0  0  0  0  0  0  0  0  # atno 7974 bound_to 7965
  154.4807  140.0890  156.7371 H   0  0  0  0  0  0  0  0  0  0  0  0  # atno 8008 bound_to 7997
  155.4478  140.3456  155.4279 H   0  0  0  0  0  0  0  0  0  0  0  0  # atno 8009 bound_to 7997
  156.1187  140.1468  156.9224 H   0  0  0  0  0  0  0  0  0  0  0  0  # atno 8010 bound_to 7997
  140.3688  143.2805  151.9525 H   0  0  0  0  0  0  0  0  0  0  0  0  # atno 10167 bound_to 10162
  156.1240  130.6345  150.9512 H   0  0  0  0  0  0  0  0  0  0  0  0  # atno 10718 bound_to 10713
  153.6036  135.3443  155.2954 H   0  0  0  0  0  0  0  0  0  0  0  0  # atno 10763 bound_to 10752
  154.8631  135.4233  154.2386 H   0  0  0  0  0  0  0  0  0  0  0  0  # atno 10764 bound_to 10752
  153.3220  135.7039  153.7093 H   0  0  0  0  0  0  0  0  0  0  0  0  # atno 10765 bound_to 10752
  141.1487  133.7914  157.0214 H   0  0  0  0  0  0  0  0  0  0  0  0  # atno 11005 bound_to 11000
  145.7686  140.9906  143.1161 LP  0  0  0  0  0  0  0  0  0  0  0  0  # atno 17320 bound_to 7965
  144.6877  139.9419  143.7475 LP  0  0  0  0  0  0  0  0  0  0  0  0  # atno 17321 bound_to 7965
  139.4806  144.5926  151.7746 LP  0  0  0  0  0  0  0  0  0  0  0  0  # atno 17342 bound_to 10162
  140.5054  144.1106  150.5981 LP  0  0  0  0  0  0  0  0  0  0  0  0  # atno 17343 bound_to 10162
  157.6423  131.0908  150.8226 LP  0  0  0  0  0  0  0  0  0  0  0  0  # atno 17370 bound_to 10713
  156.8319  130.5018  149.5330 LP  0  0  0  0  0  0  0  0  0  0  0  0  # atno 17371 bound_to 10713
  140.0813  134.9646  157.1629 LP  0  0  0  0  0  0  0  0  0  0  0  0  # atno 17394 bound_to 11000
  140.3572  134.2533  155.7191 LP  0  0  0  0  0  0  0  0  0  0  0  0  # atno 17395 bound_to 11000

$$$$
