AV-unprocessed.smi:2602|AV-procd|sdf|10184|dock1
  -GOLD-   2272014193D 1   1.00000     0.00000
 Structure written by MMmdl.
 46 47  0  0  0  0  0  0  0  0  1 V2000
  146.9672  128.3394  151.5767 C   0  0  0  0  0  0  0  0  0  0  0  0
  146.5320  129.3168  152.5179 O   0  0  0  0  0  0  0  0  0  0  0  0
  146.5111  130.6164  152.1396 C   0  0  0  0  0  0  0  0  0  0  0  0
  145.6624  130.8892  151.1473 N   0  0  0  0  0  0  0  0  0  0  0  0
  145.6079  132.1713  150.7311 C   0  0  0  0  0  0  0  0  0  0  0  0
  146.4056  133.1771  151.3132 C   0  0  0  0  0  0  0  0  0  0  0  0
  147.2721  132.7901  152.3595 C   0  0  0  0  0  0  0  0  0  0  0  0
  148.0641  133.8240  152.9248 N   0  0  0  0  0  0  0  0  0  0  0  0
  148.7542  133.7989  154.0782 C   0  0  0  0  0  0  0  0  0  0  0  0
  148.7848  132.8543  154.8673 O   0  0  0  0  0  0  0  0  0  0  0  0
  149.4243  134.9454  154.2671 N   0  0  0  0  0  0  0  0  0  0  0  0
  150.3114  135.2447  155.3920 C   0  0  0  0  0  0  0  0  0  0  0  0
  150.7495  136.7417  155.4361 C   0  0  0  0  0  0  0  0  0  0  0  0
  151.7451  137.0371  156.6089 C   0  0  0  0  0  0  0  0  0  0  0  0
  152.8839  137.4139  156.3199 O   0  0  0  0  0  0  0  0  0  0  0  0
  151.4024  136.8675  157.9151 N   0  0  0  0  0  0  0  0  0  0  0  0
  152.4138  137.0726  158.9573 C   0  0  0  0  0  0  0  0  0  0  0  0
  150.1021  136.4701  158.4644 C   0  0  0  0  0  0  0  0  0  0  0  0
  151.3811  137.0952  154.0598 C   0  0  0  0  0  0  0  0  0  0  0  0
  151.2456  138.6094  153.8716 C   0  0  0  0  0  0  0  0  0  0  0  0
  150.0571  139.0227  154.7416 C   0  0  0  0  0  0  0  0  0  0  0  0
  149.5676  137.7439  155.4357 C   0  0  0  0  0  0  0  0  0  0  0  0
  147.3101  131.4957  152.7602 N   0  0  0  0  0  0  0  0  0  0  0  0
  146.9205  127.3516  152.0350 H   0  0  0  0  0  0  0  0  0  0  0  0
  147.9997  128.5129  151.2688 H   0  0  0  0  0  0  0  0  0  0  0  0
  146.3285  128.3235  150.6923 H   0  0  0  0  0  0  0  0  0  0  0  0
  144.9233  132.3980  149.9273 H   0  0  0  0  0  0  0  0  0  0  0  0
  146.3507  134.1989  150.9673 H   0  0  0  0  0  0  0  0  0  0  0  0
  148.1242  134.6726  152.3820 H   0  0  0  0  0  0  0  0  0  0  0  0
  149.3351  135.6640  153.5637 H   0  0  0  0  0  0  0  0  0  0  0  0
  149.7556  135.0031  156.2984 H   0  0  0  0  0  0  0  0  0  0  0  0
  151.1518  134.5552  155.4068 H   0  0  0  0  0  0  0  0  0  0  0  0
  153.2837  136.4374  158.7823 H   0  0  0  0  0  0  0  0  0  0  0  0
  152.0404  136.8331  159.9541 H   0  0  0  0  0  0  0  0  0  0  0  0
  152.7452  138.1119  158.9719 H   0  0  0  0  0  0  0  0  0  0  0  0
  149.2714  136.4851  157.7675 H   0  0  0  0  0  0  0  0  0  0  0  0
  149.8226  137.1370  159.2809 H   0  0  0  0  0  0  0  0  0  0  0  0
  150.1662  135.4610  158.8722 H   0  0  0  0  0  0  0  0  0  0  0  0
  152.4128  136.7593  153.9454 H   0  0  0  0  0  0  0  0  0  0  0  0
  150.8207  136.6067  153.2611 H   0  0  0  0  0  0  0  0  0  0  0  0
  152.1490  139.1179  154.2103 H   0  0  0  0  0  0  0  0  0  0  0  0
  151.0979  138.8708  152.8232 H   0  0  0  0  0  0  0  0  0  0  0  0
  150.3806  139.7551  155.4823 H   0  0  0  0  0  0  0  0  0  0  0  0
  149.2622  139.4830  154.1541 H   0  0  0  0  0  0  0  0  0  0  0  0
  148.7350  137.3265  154.8679 H   0  0  0  0  0  0  0  0  0  0  0  0
  149.1770  137.9944  156.4195 H   0  0  0  0  0  0  0  0  0  0  0  0
  1  2  1  0  0  0  0
  1 24  1  0  0  0  0
  1 25  1  0  0  0  0
  1 26  1  0  0  0  0
  2  3  1  0  0  0  0
  3 23  1  0  0  0  0
  3  4  2  0  0  0  0
  4  5  1  0  0  0  0
  5  6  2  0  0  0  0
  5 27  1  0  0  0  0
  6  7  1  0  0  0  0
  6 28  1  0  0  0  0
  7  8  1  0  0  0  0
  7 23  2  0  0  0  0
  8  9  1  0  0  0  0
  8 29  1  0  0  0  0
  9 10  2  0  0  0  0
  9 11  1  0  0  0  0
 11 12  1  0  0  0  0
 11 30  1  0  0  0  0
 12 13  1  0  0  0  0
 12 31  1  0  0  0  0
 12 32  1  0  0  0  0
 13 22  1  0  0  0  0
 13 14  1  0  0  0  0
 13 19  1  0  0  0  0
 14 15  2  0  0  0  0
 14 16  1  0  0  0  0
 16 17  1  0  0  0  0
 16 18  1  0  0  0  0
 17 33  1  0  0  0  0
 17 34  1  0  0  0  0
 17 35  1  0  0  0  0
 18 36  1  0  0  0  0
 18 37  1  0  0  0  0
 18 38  1  0  0  0  0
 19 20  1  0  0  0  0
 19 39  1  0  0  0  0
 19 40  1  0  0  0  0
 20 21  1  0  0  0  0
 20 41  1  0  0  0  0
 20 42  1  0  0  0  0
 21 22  1  0  0  0  0
 21 43  1  0  0  0  0
 21 44  1  0  0  0  0
 22 45  1  0  0  0  0
 22 46  1  0  0  0  0
M  END
> <s_m_source_file>
AV-unprocessed.smi

> <i_m_source_file_index>
2602

> <i_lp_mmshare_version>
43012

> <i_f3d_flags>
0

> <s_epik_input>
W0NIM11PYzFuW2NIXVtjSF1jKG4xKVtOSF1DKD1PKVtOSF1bQ0gyXUMyKEMoPU8pTihbQ0gzXSlbQ0gzXSlbQ0gyXVtDSDJdW0NIMl1bQ0gyXTI=

> <s_epik_cmdline>
J2VwaWtfcHl0aG9uJywgJy1waCcsICc3LjAnLCAnLXRuJywgJzgnLCAnLW1hJywgJzIwMCcsICctbWV0YWxfYmluZGluZycsICctaW1hZScsICc8aW5maWxlLm1hZT4nLCAnLW9tYWUnLCAnPG91dGZpbGUubWFlPic=

> <r_lp_tautomer_probability>
1

> <r_epik_Ionization_Penalty>
0.00154328

> <r_epik_Ionization_Penalty_Charging>
0

> <r_epik_Ionization_Penalty_Neutral>
0.00154328

> <r_epik_State_Penalty>
-0

> <r_epik_Charging_Adjusted_Penalty>
0

> <i_epik_Tot_Q>
0

> <i_epik_Tot_abs_Q>
0

> <r_epik_Metal_State_Penalty>
-0

> <b_epik_Metal_Only>
0

> <s_lp_Force_Field>
OPLS_2005

> <r_lp_Energy>
36.1441

> <b_lp_Chiralities_Consistent>
1

> <s_lp_Variant>
AV-unprocessed.smi:2602-1

> <Gold.Version>
5.8.1

> <Gold.Id.Protein>
6NUR|6NUR_protein|mol2

> <Gold.PLP.Fitness>
38.2606

> <Gold.PLP.PLP>
-32.4224

> <Gold.PLP.part.hbond>
-2.0000

> <Gold.PLP.part.metal>
0.0000

> <Gold.PLP.part.buried>
-5.3886

> <Gold.PLP.part.nonpolar>
-25.4294

> <Gold.PLP.part.repulsive>
0.3936

> <Gold.PLP.ligand.clash>
0.0000

> <Gold.PLP.ligand.torsion>
0.1898

> <Gold.PLP.Chemscore.Hbond>
2.0000

> <Gold.PLP.Chemscore.CHOScore>
0.0000

> <Gold.PLP.Chemscore.Metal>
0.0000

> <Gold.Chemscore.Hbonds>
donor molecule, donor type, donor heavy atom, donor atom, acceptor molecule, acceptor atom, score
      L1  H     8    29       P1  7948  1.00
      L1  H    11    30       P1  7948  1.00

> <Gold.PLP.Chemscore.Internal.Correction>
0.2178

> <Gold.Rescore>
     Score         DG    S(hbond)    S(metal)    S(lipo)     H(rot)  DE(clash)    DE(int)     intcor
     12.63     -14.11       1.72        0.00      66.55       1.91       0.05       1.44       ----

> <Gold.Chemscore.Fitness>
12.6279

> <Gold.Chemscore.DG>
-14.1144

> <Gold.Chemscore.ZeroCoef>
-5.4800

> <Gold.Chemscore.Hbond>
1.7156

> <Gold.Chemscore.Metal>
0.0000

> <Gold.Chemscore.Lipo>
66.5531

> <Gold.Chemscore.Internal_Hbond>
0.0000

> <Gold.Chemscore.DEClash>
0.0480

> <Gold.Chemscore.DEInternal>
1.4385

> <Gold.Chemscore.Rot>
1.9072

> <Gold.Chemscore.Internal.Correction>
   9.000000E+99

> <Gold.Chemscore.Hbonds>
donor molecule, donor type, donor heavy atom, donor atom, acceptor molecule, acceptor atom, score
      L1  H     8    29       P1  7948  0.38
      L1  H    11    30       P1  7948  0.43

> <Gold.Chemscore.Hbond.Weighted>
-5.7301

> <Gold.Chemscore.Metal.Weighted>
-0.0000

> <Gold.Chemscore.Lipo.Weighted>
-7.7867

> <Gold.Chemscore.Internal_Hbond.Weighted>
0.0000

> <Gold.Chemscore.DEClash.Weighted>
0.0480

> <Gold.Chemscore.DEInternal.Weighted>
1.4385

> <Gold.Chemscore.Rot.Weighted>
4.8824

> <Gold.Chemscore.Internal.Correction.Weighted>
   9.000000E+99

> <Gold.Protein.RotatedTorsions>
[ 6907 6896 6895 6894 ] final   79.53 input  -60.11 | X-H torsion
[ 7974 7965 7964 7962 ] final  -11.18 input  175.53 | X-H torsion
[ 8008 7997 7996 7995 ] final   37.51 input   59.86 | X-H torsion
[ 10167 10162 10161 10158 ] final -105.13 input  -65.29 | X-H torsion
[ 10718 10713 10712 10709 ] final   -2.79 input   66.30 | X-H torsion
[ 10763 10752 10751 10750 ] final  144.73 input  -60.55 | X-H torsion
[ 11005 11000 10999 10996 ] final   67.18 input  -57.11 | X-H torsion

> <Gold.Protein.ActiveResidues>
 VAL166  LYS551  ARG553  GLY616  TRP617  ASP618  TYR619  PRO620  LYS621  CYS622 
 ASP623  PHE694  ASN695  SER759  ASP760  ASP761  ALA762  ILE779  LEU786  VAL792 
 PHE793  MET794  SER795  GLU796  ALA797  LYS798  CYS799  TRP800  GLU811  SER814 

> <Gold.Protein.RotatedAtoms>
  152.5202  134.3497  159.9246 H   0  0  0  0  0  0  0  0  0  0  0  0  # atno 6907 bound_to 6896
  151.3448  133.3942  159.2682 H   0  0  0  0  0  0  0  0  0  0  0  0  # atno 6908 bound_to 6896
  150.9774  134.9154  159.7882 H   0  0  0  0  0  0  0  0  0  0  0  0  # atno 6909 bound_to 6896
  146.2196  140.2873  142.8366 H   0  0  0  0  0  0  0  0  0  0  0  0  # atno 7974 bound_to 7965
  155.2049  140.3319  155.4337 H   0  0  0  0  0  0  0  0  0  0  0  0  # atno 8008 bound_to 7997
  156.2393  140.1887  156.7083 H   0  0  0  0  0  0  0  0  0  0  0  0  # atno 8009 bound_to 7997
  154.6117  140.0608  156.9487 H   0  0  0  0  0  0  0  0  0  0  0  0  # atno 8010 bound_to 7997
  140.2018  143.3812  152.1123 H   0  0  0  0  0  0  0  0  0  0  0  0  # atno 10167 bound_to 10162
  156.7856  130.5345  149.5744 H   0  0  0  0  0  0  0  0  0  0  0  0  # atno 10718 bound_to 10713
  153.9938  135.2929  155.3409 H   0  0  0  0  0  0  0  0  0  0  0  0  # atno 10763 bound_to 10752
  154.7199  135.5113  153.8799 H   0  0  0  0  0  0  0  0  0  0  0  0  # atno 10764 bound_to 10752
  153.0797  135.6675  154.0187 H   0  0  0  0  0  0  0  0  0  0  0  0  # atno 10765 bound_to 10752
  139.9786  134.6781  156.0306 H   0  0  0  0  0  0  0  0  0  0  0  0  # atno 11005 bound_to 11000
  144.9152  140.7804  143.5782 LP  0  0  0  0  0  0  0  0  0  0  0  0  # atno 17320 bound_to 7965
  145.2807  139.1919  143.4793 LP  0  0  0  0  0  0  0  0  0  0  0  0  # atno 17321 bound_to 7965
  139.5214  144.7045  151.5394 LP  0  0  0  0  0  0  0  0  0  0  0  0  # atno 17342 bound_to 10162
  140.6385  143.8937  150.6669 LP  0  0  0  0  0  0  0  0  0  0  0  0  # atno 17343 bound_to 10162
  156.1190  130.6096  151.0165 LP  0  0  0  0  0  0  0  0  0  0  0  0  # atno 17370 bound_to 10713
  157.6625  131.0878  150.7805 LP  0  0  0  0  0  0  0  0  0  0  0  0  # atno 17371 bound_to 10713
  141.1461  133.6556  156.3871 LP  0  0  0  0  0  0  0  0  0  0  0  0  # atno 17394 bound_to 11000
  140.5143  134.6365  157.5295 LP  0  0  0  0  0  0  0  0  0  0  0  0  # atno 17395 bound_to 11000

$$$$
