AV-unprocessed.smi:24|AV-procd|sdf|178|dock6
  -GOLD-   2262015443D 1   1.00000     0.00000
 Structure written by MMmdl.
 61 65  0  0  0  0  0  0  0  0  1 V2000
  148.9201  125.2835  151.4242 C   0  0  0  0  0  0  0  0  0  0  0  0
  147.7363  126.0582  151.5481 O   0  0  0  0  0  0  0  0  0  0  0  0
  147.8367  127.3076  152.1213 C   0  0  0  0  0  0  0  0  0  0  0  0
  146.6990  128.1369  152.0542 C   0  0  0  0  0  0  0  0  0  0  0  0
  146.7159  129.4322  152.6059 C   0  0  0  0  0  0  0  0  0  0  0  0
  147.8774  129.9233  153.2350 C   0  0  0  0  0  0  0  0  0  0  0  0
  147.8749  131.3351  153.8202 C   0  0  1  0  0  0  0  0  0  0  0  0
  147.3424  132.3729  152.8281 C   0  0  0  0  0  0  0  0  0  0  0  0
  146.2251  132.9861  153.6041 C   0  0  0  0  0  0  0  0  0  0  0  0
  145.3907  134.0720  153.0428 C   0  0  0  0  0  0  0  0  0  0  0  0
  144.3946  134.6694  153.8487 C   0  0  0  0  0  0  0  0  0  0  0  0
  143.6050  135.7084  153.3183 C   0  0  0  0  0  0  0  0  0  0  0  0
  143.8086  136.1472  151.9951 C   0  0  0  0  0  0  0  0  0  0  0  0
  144.8022  135.5482  151.1954 C   0  0  0  0  0  0  0  0  0  0  0  0
  145.5982  134.5078  151.7144 C   0  0  0  0  0  0  0  0  0  0  0  0
  146.0716  132.4857  154.7738 N   0  0  0  0  0  0  0  0  0  0  0  0
  147.0009  131.5206  154.9864 N   0  0  0  0  0  0  0  0  0  0  0  0
  147.1579  130.8928  156.1729 C   0  0  0  0  0  0  0  0  0  0  0  0
  148.0952  130.1203  156.3820 O   0  0  0  0  0  0  0  0  0  0  0  0
  146.1276  131.1692  157.2882 C   0  0  0  0  0  0  0  0  0  0  0  0
  146.7272  131.7474  158.5104 N   0  0  0  0  0  0  0  0  0  0  0  0
  147.6479  130.9695  159.2547 C   0  0  0  0  0  0  0  0  0  0  0  0
  147.9591  129.8321  158.8982 O   0  0  0  0  0  0  0  0  0  0  0  0
  148.1815  131.6037  160.4551 C   0  0  0  0  0  0  0  0  0  0  0  0
  149.0714  130.9444  161.2163 F   0  0  0  0  0  0  0  0  0  0  0  0
  147.7962  132.8451  160.8161 C   0  0  0  0  0  0  0  0  0  0  0  0
  146.8833  133.5867  160.0877 N   0  0  0  0  0  0  0  0  0  0  0  0
  146.4482  134.9719  160.5149 C   0  0  1  0  0  0  0  0  0  0  0  0
  145.9173  134.9492  161.9601 C   0  0  0  0  0  0  0  0  0  0  0  0
  146.6784  136.0866  162.6110 C   0  0  0  0  0  0  0  0  0  0  0  0
  147.9797  136.0841  161.8232 C   0  0  0  0  0  0  0  0  0  0  0  0
  147.5433  135.8436  160.4915 O   0  0  0  0  0  0  0  0  0  0  0  0
  146.3280  133.0455  158.9084 C   0  0  0  0  0  0  0  0  0  0  0  0
  145.5078  133.6880  158.2484 O   0  0  0  0  0  0  0  0  0  0  0  0
  149.0166  129.0926  153.3199 C   0  0  0  0  0  0  0  0  0  0  0  0
  149.0001  127.7984  152.7654 C   0  0  0  0  0  0  0  0  0  0  0  0
  148.6813  124.3379  150.9377 H   0  0  0  0  0  0  0  0  0  0  0  0
  149.3492  125.0530  152.4004 H   0  0  0  0  0  0  0  0  0  0  0  0
  149.6666  125.7902  150.8110 H   0  0  0  0  0  0  0  0  0  0  0  0
  145.8029  127.7768  151.5703 H   0  0  0  0  0  0  0  0  0  0  0  0
  145.8329  130.0508  152.5388 H   0  0  0  0  0  0  0  0  0  0  0  0
  148.8924  131.6011  154.1133 H   0  0  0  0  0  0  0  0  0  0  0  0
  148.1048  133.1102  152.5739 H   0  0  0  0  0  0  0  0  0  0  0  0
  146.9724  131.9182  151.9079 H   0  0  0  0  0  0  0  0  0  0  0  0
  144.2238  134.3481  154.8662 H   0  0  0  0  0  0  0  0  0  0  0  0
  142.8424  136.1701  153.9282 H   0  0  0  0  0  0  0  0  0  0  0  0
  143.2017  136.9451  151.5930 H   0  0  0  0  0  0  0  0  0  0  0  0
  144.9548  135.8882  150.1816 H   0  0  0  0  0  0  0  0  0  0  0  0
  146.3541  134.0664  151.0821 H   0  0  0  0  0  0  0  0  0  0  0  0
  145.3468  131.8147  156.8834 H   0  0  0  0  0  0  0  0  0  0  0  0
  145.6070  130.2420  157.5346 H   0  0  0  0  0  0  0  0  0  0  0  0
  148.2304  133.2572  161.7138 H   0  0  0  0  0  0  0  0  0  0  0  0
  145.7154  135.2965  159.7740 H   0  0  0  0  0  0  0  0  0  0  0  0
  144.8355  135.0834  161.9829 H   0  0  0  0  0  0  0  0  0  0  0  0
  146.1677  134.0013  162.4394 H   0  0  0  0  0  0  0  0  0  0  0  0
  146.1503  137.0286  162.4583 H   0  0  0  0  0  0  0  0  0  0  0  0
  146.8270  135.9450  163.6819 H   0  0  0  0  0  0  0  0  0  0  0  0
  148.5245  137.0249  161.9030 H   0  0  0  0  0  0  0  0  0  0  0  0
  148.6331  135.2770  162.1571 H   0  0  0  0  0  0  0  0  0  0  0  0
  149.9139  129.4442  153.8077 H   0  0  0  0  0  0  0  0  0  0  0  0
  149.8952  127.2010  152.8474 H   0  0  0  0  0  0  0  0  0  0  0  0
  1  2  1  0  0  0  0
  1 37  1  0  0  0  0
  1 38  1  0  0  0  0
  1 39  1  0  0  0  0
  2  3  1  0  0  0  0
  3 36  1  0  0  0  0
  3  4  2  0  0  0  0
  4  5  1  0  0  0  0
  4 40  1  0  0  0  0
  5  6  2  0  0  0  0
  5 41  1  0  0  0  0
  6  7  1  0  0  0  0
  6 35  1  0  0  0  0
  7 17  1  0  0  0  0
  7  8  1  0  0  0  0
  7 42  1  0  0  0  0
  8  9  1  0  0  0  0
  8 43  1  0  0  0  0
  8 44  1  0  0  0  0
  9 10  1  0  0  0  0
  9 16  2  0  0  0  0
 10 15  1  0  0  0  0
 10 11  2  0  0  0  0
 11 12  1  0  0  0  0
 11 45  1  0  0  0  0
 12 13  2  0  0  0  0
 12 46  1  0  0  0  0
 13 14  1  0  0  0  0
 13 47  1  0  0  0  0
 14 15  2  0  0  0  0
 14 48  1  0  0  0  0
 15 49  1  0  0  0  0
 16 17  1  0  0  0  0
 17 18  1  0  0  0  0
 18 19  2  0  0  0  0
 18 20  1  0  0  0  0
 20 21  1  0  0  0  0
 20 50  1  0  0  0  0
 20 51  1  0  0  0  0
 21 33  1  0  0  0  0
 21 22  1  0  0  0  0
 22 23  2  0  0  0  0
 22 24  1  0  0  0  0
 24 25  1  0  0  0  0
 24 26  2  0  0  0  0
 26 27  1  0  0  0  0
 26 52  1  0  0  0  0
 27 28  1  0  0  0  0
 27 33  1  0  0  0  0
 28 32  1  0  0  0  0
 28 29  1  0  0  0  0
 28 53  1  0  0  0  0
 29 30  1  0  0  0  0
 29 54  1  0  0  0  0
 29 55  1  0  0  0  0
 30 31  1  0  0  0  0
 30 56  1  0  0  0  0
 30 57  1  0  0  0  0
 31 32  1  0  0  0  0
 31 58  1  0  0  0  0
 31 59  1  0  0  0  0
 33 34  2  0  0  0  0
 35 36  2  0  0  0  0
 35 60  1  0  0  0  0
 36 61  1  0  0  0  0
M  END
> <s_m_source_file>
AV-unprocessed.smi

> <i_m_source_file_index>
24

> <i_lp_mmshare_version>
43012

> <i_f3d_flags>
0

> <s_epik_input>
W0NIM11PYzFbY0hdW2NIXWMoW2NIXVtjSF0xKVtDQEBIXTJbQ0gyXUMoYzNbY0hdW2NIXVtjSF1bY0hdW2NIXTMpPU5OMkMoPU8pW0NIMl1uNGMoPU8pYyhGKVtjSF1uKGM0PU8pW0NAQEhdNVtDSDJdW0NIMl1bQ0gyXU81

> <s_epik_cmdline>
J2VwaWtfcHl0aG9uJywgJy1waCcsICc3LjAnLCAnLXRuJywgJzgnLCAnLW1hJywgJzIwMCcsICctbWV0YWxfYmluZGluZycsICctaW1hZScsICc8aW5maWxlLm1hZT4nLCAnLW9tYWUnLCAnPG91dGZpbGUubWFlPic=

> <r_lp_tautomer_probability>
1

> <r_epik_Ionization_Penalty>
1.46326e-08

> <r_epik_Ionization_Penalty_Charging>
4.53232e-09

> <r_epik_Ionization_Penalty_Neutral>
1.01002e-08

> <r_epik_State_Penalty>
-0

> <r_epik_Charging_Adjusted_Penalty>
4.53232e-09

> <i_epik_Tot_Q>
0

> <i_epik_Tot_abs_Q>
0

> <r_epik_Metal_State_Penalty>
-0

> <b_epik_Metal_Only>
0

> <s_epik_Chemistry_Notes>
This compound has an imine and may undergo hydrolysis. This compound contains an acetal/aminal-like group ( X-CH(R)-Y where X, Y are N, S, or O) that may be acid/base labile, releasing an aldehyde.

> <s_lp_Force_Field>
OPLS_2005

> <r_lp_Energy>
49.9994

> <b_lp_Chiralities_Consistent>
1

> <s_lp_Variant>
AV-unprocessed.smi:24-4

> <Gold.Version>
5.8.1

> <Gold.Id.Protein>
6NUR|6NUR_protein|mol2

> <Gold.PLP.Fitness>
44.8872

> <Gold.PLP.PLP>
-45.4692

> <Gold.PLP.part.hbond>
-0.2740

> <Gold.PLP.part.metal>
0.0000

> <Gold.PLP.part.buried>
-5.1632

> <Gold.PLP.part.nonpolar>
-39.8941

> <Gold.PLP.part.repulsive>
0.1502

> <Gold.PLP.ligand.clash>
0.0000

> <Gold.PLP.ligand.torsion>
0.3313

> <Gold.PLP.Chemscore.Hbond>
0.0000

> <Gold.PLP.Chemscore.CHOScore>
0.0000

> <Gold.PLP.Chemscore.Metal>
0.0000

> <Gold.PLP.Chemscore.Internal.Correction>
0.0805

> <Gold.Rescore>
     Score         DG    S(hbond)    S(metal)    S(lipo)     H(rot)  DE(clash)    DE(int)     intcor
     11.95     -14.65       0.00        0.00     121.59       1.98       0.91       1.79       ----

> <Gold.Chemscore.Fitness>
11.9510

> <Gold.Chemscore.DG>
-14.6505

> <Gold.Chemscore.ZeroCoef>
-5.4800

> <Gold.Chemscore.Hbond>
0.0000

> <Gold.Chemscore.Metal>
0.0000

> <Gold.Chemscore.Lipo>
121.5944

> <Gold.Chemscore.Internal_Hbond>
0.0000

> <Gold.Chemscore.DEClash>
0.9092

> <Gold.Chemscore.DEInternal>
1.7903

> <Gold.Chemscore.Rot>
1.9750

> <Gold.Chemscore.Internal.Correction>
   9.000000E+99

> <Gold.Chemscore.Hbond.Weighted>
-0.0000

> <Gold.Chemscore.Metal.Weighted>
-0.0000

> <Gold.Chemscore.Lipo.Weighted>
-14.2265

> <Gold.Chemscore.Internal_Hbond.Weighted>
0.0000

> <Gold.Chemscore.DEClash.Weighted>
0.9092

> <Gold.Chemscore.DEInternal.Weighted>
1.7903

> <Gold.Chemscore.Rot.Weighted>
5.0561

> <Gold.Chemscore.Internal.Correction.Weighted>
   9.000000E+99

> <Gold.Protein.RotatedTorsions>
[ 6907 6896 6895 6894 ] final -112.72 input  -60.11 | X-H torsion
[ 7974 7965 7964 7962 ] final -160.47 input  175.53 | X-H torsion
[ 8008 7997 7996 7995 ] final   41.53 input   59.86 | X-H torsion
[ 10167 10162 10161 10158 ] final   98.18 input  -65.29 | X-H torsion
[ 10718 10713 10712 10709 ] final  -27.54 input   66.30 | X-H torsion
[ 10763 10752 10751 10750 ] final   55.13 input  -60.55 | X-H torsion
[ 11005 11000 10999 10996 ] final   46.90 input  -57.11 | X-H torsion

> <Gold.Protein.ActiveResidues>
 VAL166  LYS551  ARG553  GLY616  TRP617  ASP618  TYR619  PRO620  LYS621  CYS622 
 ASP623  PHE694  ASN695  SER759  ASP760  ASP761  ALA762  ILE779  LEU786  VAL792 
 PHE793  MET794  SER795  GLU796  ALA797  LYS798  CYS799  TRP800  GLU811  SER814 

> <Gold.Protein.RotatedAtoms>
  150.7778  133.9048  159.3351 H   0  0  0  0  0  0  0  0  0  0  0  0  # atno 6907 bound_to 6896
  151.6918  135.0943  160.0244 H   0  0  0  0  0  0  0  0  0  0  0  0  # atno 6908 bound_to 6896
  152.3820  133.6521  159.6204 H   0  0  0  0  0  0  0  0  0  0  0  0  # atno 6909 bound_to 6896
  144.7426  140.3537  143.6110 H   0  0  0  0  0  0  0  0  0  0  0  0  # atno 7974 bound_to 7965
  155.2712  140.3366  155.4265 H   0  0  0  0  0  0  0  0  0  0  0  0  # atno 8008 bound_to 7997
  156.2132  140.1778  156.7691 H   0  0  0  0  0  0  0  0  0  0  0  0  # atno 8009 bound_to 7997
  154.5715  140.0669  156.8956 H   0  0  0  0  0  0  0  0  0  0  0  0  # atno 8010 bound_to 7997
  139.7732  144.6915  151.0126 H   0  0  0  0  0  0  0  0  0  0  0  0  # atno 10167 bound_to 10162
  156.4368  130.4456  149.7079 H   0  0  0  0  0  0  0  0  0  0  0  0  # atno 10718 bound_to 10713
  152.9813  135.5721  154.5017 H   0  0  0  0  0  0  0  0  0  0  0  0  # atno 10763 bound_to 10752
  154.4535  135.2779  155.1766 H   0  0  0  0  0  0  0  0  0  0  0  0  # atno 10764 bound_to 10752
  154.3384  135.6234  153.5638 H   0  0  0  0  0  0  0  0  0  0  0  0  # atno 10765 bound_to 10752
  140.1327  134.4685  155.8509 H   0  0  0  0  0  0  0  0  0  0  0  0  # atno 11005 bound_to 11000
  145.7249  139.1720  143.2463 LP  0  0  0  0  0  0  0  0  0  0  0  0  # atno 17320 bound_to 7965
  146.1249  140.7261  142.9440 LP  0  0  0  0  0  0  0  0  0  0  0  0  # atno 17321 bound_to 7965
  140.7815  143.4565  151.0338 LP  0  0  0  0  0  0  0  0  0  0  0  0  # atno 17342 bound_to 10162
  139.8248  143.7771  152.3178 LP  0  0  0  0  0  0  0  0  0  0  0  0  # atno 17343 bound_to 10162
  156.3960  130.7651  151.2655 LP  0  0  0  0  0  0  0  0  0  0  0  0  # atno 17370 bound_to 10713
  157.7507  131.0254  150.3916 LP  0  0  0  0  0  0  0  0  0  0  0  0  # atno 17371 bound_to 10713
  141.2173  133.6802  156.7099 LP  0  0  0  0  0  0  0  0  0  0  0  0  # atno 17394 bound_to 11000
  140.2822  134.8308  157.3943 LP  0  0  0  0  0  0  0  0  0  0  0  0  # atno 17395 bound_to 11000

$$$$
