AV-unprocessed.smi:1804|AV-procd|sdf|7295|dock9
  -GOLD-   22720 8553D 1   1.00000     0.00000
 Structure written by MMmdl.
 44 45  0  0  0  0  0  0  0  0  2 V2000
  150.4377  137.9469  157.8909 C   0  0  0  0  0  0  0  0  0  0  0  0
  149.6833  138.4571  156.7150 N   0  3  0  0  0  0  0  0  0  0  0  0
  148.4618  137.6345  156.5095 C   0  0  0  0  0  0  0  0  0  0  0  0
  150.5096  138.7300  155.4826 C   0  0  0  0  0  0  0  0  0  0  0  0
  151.2349  137.4166  155.0351 C   0  0  0  0  0  0  0  0  0  0  0  0
  150.3333  136.3803  154.5285 N   0  0  0  0  0  0  0  0  0  0  0  0
  150.2160  135.1366  155.0170 C   0  0  0  0  0  0  0  0  0  0  0  0
  150.8734  134.7174  155.9698 O   0  0  0  0  0  0  0  0  0  0  0  0
  149.3037  134.4279  154.3292 N   0  0  0  0  0  0  0  0  0  0  0  0
  148.9115  133.0768  154.5218 C   0  0  0  0  0  0  0  0  0  0  0  0
  149.4329  132.2776  155.4656 N   0  0  0  0  0  0  0  0  0  0  0  0
  148.8744  131.0063  155.4362 N   0  0  0  0  0  0  0  0  0  0  0  0
  147.9553  130.8969  154.4728 C   0  0  0  0  0  0  0  0  0  0  0  0
  147.6832  132.3359  153.5059 S   0  0  0  0  0  0  0  0  0  0  0  0
  149.6290  139.2089  154.2811 C   0  0  0  0  0  0  0  0  0  0  0  0
  148.6829  140.4039  154.5026 C   0  0  0  0  0  0  0  0  0  0  0  0
  149.3721  141.7157  154.8976 C   0  0  0  0  0  0  0  0  0  0  0  0
  149.8354  141.7091  156.3577 C   0  0  0  0  0  0  0  0  0  0  0  0
  151.2097  141.0684  156.6015 C   0  0  0  0  0  0  0  0  0  0  0  0
  151.5891  139.8236  155.7657 C   0  0  0  0  0  0  0  0  0  0  0  0
  150.7216  136.9023  157.7618 H   0  0  0  0  0  0  0  0  0  0  0  0
  149.8137  138.0037  158.7832 H   0  0  0  0  0  0  0  0  0  0  0  0
  151.3406  138.5151  158.1037 H   0  0  0  0  0  0  0  0  0  0  0  0
  148.7086  136.6113  156.2268 H   0  0  0  0  0  0  0  0  0  0  0  0
  147.7909  138.0434  155.7570 H   0  0  0  0  0  0  0  0  0  0  0  0
  147.8877  137.5851  157.4350 H   0  0  0  0  0  0  0  0  0  0  0  0
  152.0005  137.6242  154.2874 H   0  0  0  0  0  0  0  0  0  0  0  0
  151.7640  136.9694  155.8758 H   0  0  0  0  0  0  0  0  0  0  0  0
  149.7512  136.6340  153.7434 H   0  0  0  0  0  0  0  0  0  0  0  0
  148.8375  134.9084  153.5740 H   0  0  0  0  0  0  0  0  0  0  0  0
  147.4340  129.9620  154.3300 H   0  0  0  0  0  0  0  0  0  0  0  0
  150.2728  139.4676  153.4398 H   0  0  0  0  0  0  0  0  0  0  0  0
  149.0327  138.3745  153.9105 H   0  0  0  0  0  0  0  0  0  0  0  0
  148.1463  140.5753  153.5687 H   0  0  0  0  0  0  0  0  0  0  0  0
  147.9114  140.1602  155.2322 H   0  0  0  0  0  0  0  0  0  0  0  0
  150.1945  141.9528  154.2214 H   0  0  0  0  0  0  0  0  0  0  0  0
  148.6454  142.5206  154.7794 H   0  0  0  0  0  0  0  0  0  0  0  0
  149.8775  142.7375  156.7184 H   0  0  0  0  0  0  0  0  0  0  0  0
  149.0832  141.2226  156.9791 H   0  0  0  0  0  0  0  0  0  0  0  0
  151.9764  141.8233  156.4232 H   0  0  0  0  0  0  0  0  0  0  0  0
  151.2896  140.8399  157.6639 H   0  0  0  0  0  0  0  0  0  0  0  0
  152.4477  139.3667  156.2589 H   0  0  0  0  0  0  0  0  0  0  0  0
  151.9894  140.1762  154.8145 H   0  0  0  0  0  0  0  0  0  0  0  0
  149.3448  139.3672  156.9937 H   0  0  0  0  0  0  0  0  0  0  0  0
  1  2  1  0  0  0  0
  1 21  1  0  0  0  0
  1 22  1  0  0  0  0
  1 23  1  0  0  0  0
  2  3  1  0  0  0  0
  2  4  1  0  0  0  0
  2 44  1  0  0  0  0
  3 24  1  0  0  0  0
  3 25  1  0  0  0  0
  3 26  1  0  0  0  0
  4 20  1  0  0  0  0
  4  5  1  0  0  0  0
  4 15  1  0  0  0  0
  5  6  1  0  0  0  0
  5 27  1  0  0  0  0
  5 28  1  0  0  0  0
  6  7  1  0  0  0  0
  6 29  1  0  0  0  0
  7  8  2  0  0  0  0
  7  9  1  0  0  0  0
  9 10  1  0  0  0  0
  9 30  1  0  0  0  0
 10 14  1  0  0  0  0
 10 11  2  0  0  0  0
 11 12  1  0  0  0  0
 12 13  2  0  0  0  0
 13 14  1  0  0  0  0
 13 31  1  0  0  0  0
 15 16  1  0  0  0  0
 15 32  1  0  0  0  0
 15 33  1  0  0  0  0
 16 17  1  0  0  0  0
 16 34  1  0  0  0  0
 16 35  1  0  0  0  0
 17 18  1  0  0  0  0
 17 36  1  0  0  0  0
 17 37  1  0  0  0  0
 18 19  1  0  0  0  0
 18 38  1  0  0  0  0
 18 39  1  0  0  0  0
 19 20  1  0  0  0  0
 19 40  1  0  0  0  0
 19 41  1  0  0  0  0
 20 42  1  0  0  0  0
 20 43  1  0  0  0  0
M  CHG  1   2   1
M  END
> <s_m_source_file>
AV-unprocessed.smi

> <i_m_source_file_index>
1804

> <i_lp_mmshare_version>
43012

> <i_f3d_flags>
0

> <s_epik_input>
W0NIMl0xW0NIMl1bQ0gyXVtDSDJdW0NIMl1bQ0gyXUMxKE4oW0NIM10pW0NIM10pW0NIMl1bTkhdQyg9TylbTkhdYzJubltjSF1zMg==

> <s_epik_cmdline>
J2VwaWtfcHl0aG9uJywgJy1waCcsICc3LjAnLCAnLXRuJywgJzgnLCAnLW1hJywgJzIwMCcsICctbWV0YWxfYmluZGluZycsICctaW1hZScsICc8aW5maWxlLm1hZT4nLCAnLW9tYWUnLCAnPG91dGZpbGUubWFlPic=

> <r_lp_tautomer_probability>
1

> <r_epik_Ionization_Penalty>
0.00320238

> <r_epik_Ionization_Penalty_Charging>
0.00244219

> <r_epik_Ionization_Penalty_Neutral>
0.000760187

> <r_epik_State_Penalty>
-0

> <r_epik_Charging_Adjusted_Penalty>
0.00244219

> <i_epik_Tot_Q>
1

> <i_epik_Tot_abs_Q>
1

> <r_epik_Metal_State_Penalty>
0.262153

> <b_epik_Metal_Only>
0

> <s_lp_Force_Field>
OPLS_2005

> <r_lp_Energy>
34.4391

> <b_lp_Chiralities_Consistent>
1

> <s_lp_Variant>
AV-unprocessed.smi:1804-1

> <Gold.Version>
5.8.1

> <Gold.Id.Protein>
6NUR|6NUR_protein|mol2

> <Gold.PLP.Fitness>
39.0751

> <Gold.PLP.PLP>
-31.4221

> <Gold.PLP.part.hbond>
-4.0000

> <Gold.PLP.part.metal>
0.0000

> <Gold.PLP.part.buried>
0.6392

> <Gold.PLP.part.nonpolar>
-27.8760

> <Gold.PLP.part.repulsive>
0.1731

> <Gold.PLP.ligand.clash>
0.0000

> <Gold.PLP.ligand.torsion>
0.1566

> <Gold.PLP.Chemscore.Hbond>
2.6271

> <Gold.PLP.Chemscore.CHOScore>
0.0000

> <Gold.PLP.Chemscore.Metal>
0.0000

> <Gold.Chemscore.Hbonds>
donor molecule, donor type, donor heavy atom, donor atom, acceptor molecule, acceptor atom, score
      L1  H     6    29       P1  7948  0.95
      L1  H     9    30       P1  7948  0.72

> <Gold.PLP.Chemscore.Internal.Correction>
0.0847

> <Gold.Rescore>
     Score         DG    S(hbond)    S(metal)    S(lipo)     H(rot)  DE(clash)    DE(int)     intcor
     11.35     -13.54       1.26        0.00      69.14       1.65       0.51       1.68       ----

> <Gold.Chemscore.Fitness>
11.3496

> <Gold.Chemscore.DG>
-13.5410

> <Gold.Chemscore.ZeroCoef>
-5.4800

> <Gold.Chemscore.Hbond>
1.2550

> <Gold.Chemscore.Metal>
0.0000

> <Gold.Chemscore.Lipo>
69.1444

> <Gold.Chemscore.Internal_Hbond>
0.0000

> <Gold.Chemscore.DEClash>
0.5118

> <Gold.Chemscore.DEInternal>
1.6796

> <Gold.Chemscore.Rot>
1.6487

> <Gold.Chemscore.Internal.Correction>
   9.000000E+99

> <Gold.Chemscore.Hbonds>
donor molecule, donor type, donor heavy atom, donor atom, acceptor molecule, acceptor atom, score
      L1  H     6    29       P1  7948  0.47
      L1  H     9    30       P1  7948  0.34

> <Gold.Chemscore.Hbond.Weighted>
-4.1918

> <Gold.Chemscore.Metal.Weighted>
-0.0000

> <Gold.Chemscore.Lipo.Weighted>
-8.0899

> <Gold.Chemscore.Internal_Hbond.Weighted>
0.0000

> <Gold.Chemscore.DEClash.Weighted>
0.5118

> <Gold.Chemscore.DEInternal.Weighted>
1.6796

> <Gold.Chemscore.Rot.Weighted>
4.2207

> <Gold.Chemscore.Internal.Correction.Weighted>
   9.000000E+99

> <Gold.Protein.RotatedTorsions>
[ 6907 6896 6895 6894 ] final -177.56 input  -60.11 | X-H torsion
[ 7974 7965 7964 7962 ] final -133.06 input  175.53 | X-H torsion
[ 8008 7997 7996 7995 ] final  -68.26 input   59.86 | X-H torsion
[ 10167 10162 10161 10158 ] final  121.50 input  -65.29 | X-H torsion
[ 10718 10713 10712 10709 ] final  -24.57 input   66.30 | X-H torsion
[ 10763 10752 10751 10750 ] final   88.04 input  -60.55 | X-H torsion
[ 11005 11000 10999 10996 ] final    1.76 input  -57.11 | X-H torsion

> <Gold.Protein.ActiveResidues>
 VAL166  LYS551  ARG553  GLY616  TRP617  ASP618  TYR619  PRO620  LYS621  CYS622 
 ASP623  PHE694  ASN695  SER759  ASP760  ASP761  ALA762  ILE779  LEU786  VAL792 
 PHE793  MET794  SER795  GLU796  ALA797  LYS798  CYS799  TRP800  GLU811  SER814 

> <Gold.Protein.RotatedAtoms>
  151.6230  133.3337  159.3091 H   0  0  0  0  0  0  0  0  0  0  0  0  # atno 6907 bound_to 6896
  150.8096  134.7246  159.6687 H   0  0  0  0  0  0  0  0  0  0  0  0  # atno 6908 bound_to 6896
  152.4192  134.5990  160.0046 H   0  0  0  0  0  0  0  0  0  0  0  0  # atno 6909 bound_to 6896
  144.9228  140.7034  143.4955 H   0  0  0  0  0  0  0  0  0  0  0  0  # atno 7974 bound_to 7965
  154.4856  140.0876  156.7478 H   0  0  0  0  0  0  0  0  0  0  0  0  # atno 8008 bound_to 7997
  155.4359  140.3451  155.4266 H   0  0  0  0  0  0  0  0  0  0  0  0  # atno 8009 bound_to 7997
  156.1256  140.1486  156.9129 H   0  0  0  0  0  0  0  0  0  0  0  0  # atno 8010 bound_to 7997
  139.5916  144.7027  151.3277 H   0  0  0  0  0  0  0  0  0  0  0  0  # atno 10167 bound_to 10162
  156.4759  130.4534  149.6840 H   0  0  0  0  0  0  0  0  0  0  0  0  # atno 10718 bound_to 10713
  153.1729  135.4521  154.9926 H   0  0  0  0  0  0  0  0  0  0  0  0  # atno 10763 bound_to 10752
  154.7978  135.3244  154.7627 H   0  0  0  0  0  0  0  0  0  0  0  0  # atno 10764 bound_to 10752
  153.8101  135.6955  153.4897 H   0  0  0  0  0  0  0  0  0  0  0  0  # atno 10765 bound_to 10752
  140.6119  133.9741  155.8181 H   0  0  0  0  0  0  0  0  0  0  0  0  # atno 11005 bound_to 11000
  145.3268  139.1771  143.4558 LP  0  0  0  0  0  0  0  0  0  0  0  0  # atno 17320 bound_to 7965
  146.3212  140.3293  142.8639 LP  0  0  0  0  0  0  0  0  0  0  0  0  # atno 17321 bound_to 7965
  140.7177  143.7221  150.7688 LP  0  0  0  0  0  0  0  0  0  0  0  0  # atno 17342 bound_to 10162
  140.0778  143.4999  152.2546 LP  0  0  0  0  0  0  0  0  0  0  0  0  # atno 17343 bound_to 10162
  156.3570  130.7462  151.2429 LP  0  0  0  0  0  0  0  0  0  0  0  0  # atno 17370 bound_to 10713
  157.7487  131.0361  150.4393 LP  0  0  0  0  0  0  0  0  0  0  0  0  # atno 17371 bound_to 10713
  141.0802  134.0073  157.3397 LP  0  0  0  0  0  0  0  0  0  0  0  0  # atno 17394 bound_to 11000
  139.9189  135.0199  156.7987 LP  0  0  0  0  0  0  0  0  0  0  0  0  # atno 17395 bound_to 11000

$$$$
