AV-unprocessed.smi:1655|AV-procd|sdf|6644|dock5
  -GOLD-   22720 7343D 1   1.00000     0.00000
 Structure written by MMmdl.
 34 35  0  0  0  0  0  0  0  0  1 V2000
  145.9429  138.4616  153.2590 C   0  0  0  0  0  0  0  0  0  0  0  0
  146.4740  139.7257  153.8428 C   0  0  0  0  0  0  0  0  0  0  0  0
  147.4729  139.9901  154.7373 C   0  0  0  0  0  0  0  0  0  0  0  0
  147.4375  141.4059  154.8474 C   0  0  0  0  0  0  0  0  0  0  0  0
  148.3374  142.0924  155.7021 N   0  0  0  0  0  0  0  0  0  0  0  0
  149.0964  141.5718  156.6817 C   0  0  0  0  0  0  0  0  0  0  0  0
  149.1265  140.3826  157.0002 O   0  0  0  0  0  0  0  0  0  0  0  0
  149.8331  142.5181  157.2816 N   0  0  0  0  0  0  0  0  0  0  0  0
  150.7643  142.2854  158.3800 C   0  0  0  0  0  0  0  0  0  0  0  0
  151.4943  143.5761  158.7877 C   0  0  0  0  0  0  0  0  0  0  0  0
  152.6753  143.3139  159.7339 C   0  0  2  0  0  0  0  0  0  0  0  0
  153.4749  142.0572  159.3974 C   0  0  0  0  0  0  0  0  0  0  0  0
  154.1128  141.6778  160.7248 C   0  0  0  0  0  0  0  0  0  0  0  0
  153.3178  142.4742  161.7643 C   0  0  0  0  0  0  0  0  0  0  0  0
  152.2257  143.0377  161.0506 O   0  0  0  0  0  0  0  0  0  0  0  0
  146.5031  141.9559  154.0869 N   0  0  0  0  0  0  0  0  0  0  0  0
  145.8813  140.8821  153.4390 O   0  0  0  0  0  0  0  0  0  0  0  0
  146.3756  137.5916  153.7533 H   0  0  0  0  0  0  0  0  0  0  0  0
  146.1774  138.3984  152.1964 H   0  0  0  0  0  0  0  0  0  0  0  0
  144.8598  138.4094  153.3705 H   0  0  0  0  0  0  0  0  0  0  0  0
  148.1207  139.2819  155.2321 H   0  0  0  0  0  0  0  0  0  0  0  0
  148.4156  143.0865  155.5478 H   0  0  0  0  0  0  0  0  0  0  0  0
  149.7440  143.4694  156.9556 H   0  0  0  0  0  0  0  0  0  0  0  0
  150.1962  141.8971  159.2255 H   0  0  0  0  0  0  0  0  0  0  0  0
  151.4811  141.5091  158.1061 H   0  0  0  0  0  0  0  0  0  0  0  0
  151.8486  144.0994  157.8985 H   0  0  0  0  0  0  0  0  0  0  0  0
  150.7880  144.2468  159.2786 H   0  0  0  0  0  0  0  0  0  0  0  0
  153.3410  144.1789  159.7592 H   0  0  0  0  0  0  0  0  0  0  0  0
  152.8044  141.2589  159.0758 H   0  0  0  0  0  0  0  0  0  0  0  0
  154.2061  142.2219  158.6056 H   0  0  0  0  0  0  0  0  0  0  0  0
  154.0448  140.6035  160.8982 H   0  0  0  0  0  0  0  0  0  0  0  0
  155.1666  141.9568  160.7543 H   0  0  0  0  0  0  0  0  0  0  0  0
  152.9676  141.8539  162.5894 H   0  0  0  0  0  0  0  0  0  0  0  0
  153.9281  143.2780  162.1785 H   0  0  0  0  0  0  0  0  0  0  0  0
  1  2  1  0  0  0  0
  1 18  1  0  0  0  0
  1 19  1  0  0  0  0
  1 20  1  0  0  0  0
  2 17  1  0  0  0  0
  2  3  2  0  0  0  0
  3  4  1  0  0  0  0
  3 21  1  0  0  0  0
  4  5  1  0  0  0  0
  4 16  2  0  0  0  0
  5  6  1  0  0  0  0
  5 22  1  0  0  0  0
  6  7  2  0  0  0  0
  6  8  1  0  0  0  0
  8  9  1  0  0  0  0
  8 23  1  0  0  0  0
  9 10  1  0  0  0  0
  9 24  1  0  0  0  0
  9 25  1  0  0  0  0
 10 11  1  0  0  0  0
 10 26  1  0  0  0  0
 10 27  1  0  0  0  0
 11 15  1  0  0  0  0
 11 12  1  0  0  0  0
 11 28  1  0  0  0  0
 12 13  1  0  0  0  0
 12 29  1  0  0  0  0
 12 30  1  0  0  0  0
 13 14  1  0  0  0  0
 13 31  1  0  0  0  0
 13 32  1  0  0  0  0
 14 15  1  0  0  0  0
 14 33  1  0  0  0  0
 14 34  1  0  0  0  0
 16 17  1  0  0  0  0
M  END
> <s_m_source_file>
AV-unprocessed.smi

> <i_m_source_file_index>
1655

> <i_lp_mmshare_version>
43012

> <i_f3d_flags>
0

> <s_epik_input>
W0NIM11jMVtjSF1jKG5vMSlbTkhdQyg9TylbTkhdW0NIMl1bQ0gyXVtDQEBIXTJbQ0gyXVtDSDJdW0NIMl1PMg==

> <s_epik_cmdline>
J2VwaWtfcHl0aG9uJywgJy1waCcsICc3LjAnLCAnLXRuJywgJzgnLCAnLW1hJywgJzIwMCcsICctbWV0YWxfYmluZGluZycsICctaW1hZScsICc8aW5maWxlLm1hZT4nLCAnLW9tYWUnLCAnPG91dGZpbGUubWFlPic=

> <r_lp_tautomer_probability>
1

> <r_epik_Ionization_Penalty>
2.23964e-05

> <r_epik_Ionization_Penalty_Charging>
0

> <r_epik_Ionization_Penalty_Neutral>
2.23964e-05

> <r_epik_State_Penalty>
-0

> <r_epik_Charging_Adjusted_Penalty>
0

> <i_epik_Tot_Q>
0

> <i_epik_Tot_abs_Q>
0

> <r_epik_Metal_State_Penalty>
-0

> <b_epik_Metal_Only>
0

> <s_lp_Force_Field>
OPLS_2005

> <r_lp_Energy>
15.5425

> <b_lp_Chiralities_Consistent>
1

> <s_lp_Variant>
AV-unprocessed.smi:1655-1

> <Gold.Version>
5.8.1

> <Gold.Id.Protein>
6NUR|6NUR_protein|mol2

> <Gold.PLP.Fitness>
36.9382

> <Gold.PLP.PLP>
-30.6601

> <Gold.PLP.part.hbond>
-3.0000

> <Gold.PLP.part.metal>
0.0000

> <Gold.PLP.part.buried>
-0.9389

> <Gold.PLP.part.nonpolar>
-29.1736

> <Gold.PLP.part.repulsive>
1.6122

> <Gold.PLP.ligand.clash>
0.0000

> <Gold.PLP.ligand.torsion>
0.2568

> <Gold.PLP.Chemscore.Hbond>
2.2595

> <Gold.PLP.Chemscore.CHOScore>
0.0000

> <Gold.PLP.Chemscore.Metal>
0.0000

> <Gold.Chemscore.Hbonds>
donor molecule, donor type, donor heavy atom, donor atom, acceptor molecule, acceptor atom, score
      L1  H     5    22       P1  8028  1.00
      L1  H     8    23       P1  8028  0.96

> <Gold.PLP.Chemscore.Internal.Correction>
0.0132

> <Gold.Rescore>
     Score         DG    S(hbond)    S(metal)    S(lipo)     H(rot)  DE(clash)    DE(int)     intcor
     15.49     -17.81       2.09        0.00      79.49       1.55       0.83       1.49       ----

> <Gold.Chemscore.Fitness>
15.4888

> <Gold.Chemscore.DG>
-17.8073

> <Gold.Chemscore.ZeroCoef>
-5.4800

> <Gold.Chemscore.Hbond>
2.0945

> <Gold.Chemscore.Metal>
0.0000

> <Gold.Chemscore.Lipo>
79.4913

> <Gold.Chemscore.Internal_Hbond>
0.0000

> <Gold.Chemscore.DEClash>
0.8306

> <Gold.Chemscore.DEInternal>
1.4879

> <Gold.Chemscore.Rot>
1.5503

> <Gold.Chemscore.Internal.Correction>
   9.000000E+99

> <Gold.Chemscore.Hbonds>
donor molecule, donor type, donor heavy atom, donor atom, acceptor molecule, acceptor atom, score
      L1  H     5    22       P1  8028  0.99
      L1  H     8    23       P1  8028  0.89

> <Gold.Chemscore.Hbond.Weighted>
-6.9956

> <Gold.Chemscore.Metal.Weighted>
-0.0000

> <Gold.Chemscore.Lipo.Weighted>
-9.3005

> <Gold.Chemscore.Internal_Hbond.Weighted>
0.0000

> <Gold.Chemscore.DEClash.Weighted>
0.8306

> <Gold.Chemscore.DEInternal.Weighted>
1.4879

> <Gold.Chemscore.Rot.Weighted>
3.9687

> <Gold.Chemscore.Internal.Correction.Weighted>
   9.000000E+99

> <Gold.Protein.RotatedTorsions>
[ 6907 6896 6895 6894 ] final -112.16 input  -60.11 | X-H torsion
[ 7974 7965 7964 7962 ] final  160.25 input  175.53 | X-H torsion
[ 8008 7997 7996 7995 ] final  -78.39 input   59.86 | X-H torsion
[ 10167 10162 10161 10158 ] final  -41.17 input  -65.29 | X-H torsion
[ 10718 10713 10712 10709 ] final -146.49 input   66.30 | X-H torsion
[ 10763 10752 10751 10750 ] final  133.02 input  -60.55 | X-H torsion
[ 11005 11000 10999 10996 ] final -110.90 input  -57.11 | X-H torsion

> <Gold.Protein.ActiveResidues>
 VAL166  LYS551  ARG553  GLY616  TRP617  ASP618  TYR619  PRO620  LYS621  CYS622 
 ASP623  PHE694  ASN695  SER759  ASP760  ASP761  ALA762  ILE779  LEU786  VAL792 
 PHE793  MET794  SER795  GLU796  ALA797  LYS798  CYS799  TRP800  GLU811  SER814 

> <Gold.Protein.RotatedAtoms>
  150.7739  133.9130  159.3374 H   0  0  0  0  0  0  0  0  0  0  0  0  # atno 6907 bound_to 6896
  151.7009  135.0928  160.0260 H   0  0  0  0  0  0  0  0  0  0  0  0  # atno 6908 bound_to 6896
  152.3768  133.6454  159.6165 H   0  0  0  0  0  0  0  0  0  0  0  0  # atno 6909 bound_to 6896
  144.7747  139.7731  143.6283 H   0  0  0  0  0  0  0  0  0  0  0  0  # atno 7974 bound_to 7965
  154.5685  140.0695  156.8929 H   0  0  0  0  0  0  0  0  0  0  0  0  # atno 8008 bound_to 7997
  155.2678  140.3363  155.4249 H   0  0  0  0  0  0  0  0  0  0  0  0  # atno 8009 bound_to 7997
  156.2100  140.1755  156.7702 H   0  0  0  0  0  0  0  0  0  0  0  0  # atno 8010 bound_to 7997
  140.7011  143.3110  151.3028 H   0  0  0  0  0  0  0  0  0  0  0  0  # atno 10167 bound_to 10162
  156.3956  130.7907  151.2114 H   0  0  0  0  0  0  0  0  0  0  0  0  # atno 10718 bound_to 10713
  153.8002  135.3143  155.3389 H   0  0  0  0  0  0  0  0  0  0  0  0  # atno 10763 bound_to 10752
  154.8092  135.4678  154.0474 H   0  0  0  0  0  0  0  0  0  0  0  0  # atno 10764 bound_to 10752
  153.1820  135.6895  153.8553 H   0  0  0  0  0  0  0  0  0  0  0  0  # atno 10765 bound_to 10752
  141.0765  133.9292  157.2378 H   0  0  0  0  0  0  0  0  0  0  0  0  # atno 11005 bound_to 11000
  146.1918  139.5162  142.9800 LP  0  0  0  0  0  0  0  0  0  0  0  0  # atno 17320 bound_to 7965
  145.6222  141.0320  143.1909 LP  0  0  0  0  0  0  0  0  0  0  0  0  # atno 17321 bound_to 7965
  139.6533  144.0322  152.2642 LP  0  0  0  0  0  0  0  0  0  0  0  0  # atno 17342 bound_to 10162
  139.9865  144.6391  150.7853 LP  0  0  0  0  0  0  0  0  0  0  0  0  # atno 17343 bound_to 10162
  157.7501  131.0302  150.4128 LP  0  0  0  0  0  0  0  0  0  0  0  0  # atno 17370 bound_to 10713
  156.4398  130.3989  149.6705 LP  0  0  0  0  0  0  0  0  0  0  0  0  # atno 17371 bound_to 10713
  139.9578  135.0161  156.9176 LP  0  0  0  0  0  0  0  0  0  0  0  0  # atno 17394 bound_to 11000
  140.5561  134.0580  155.7384 LP  0  0  0  0  0  0  0  0  0  0  0  0  # atno 17395 bound_to 11000

$$$$
