AV-unprocessed.smi:1636|AV-procd|sdf|6542|dock1
  -GOLD-   22720 7223D 1   1.00000     0.00000
 Structure written by MMmdl.
 43 44  0  0  0  0  0  0  0  0  1 V2000
  151.2948  144.8126  159.3521 C   0  0  0  0  0  0  0  0  0  0  0  0
  152.3064  143.6672  159.2393 C   0  0  2  0  0  0  0  0  0  0  0  0
  151.6984  142.4213  158.5671 C   0  0  0  0  0  0  0  0  0  0  0  0
  152.6582  141.3192  158.5709 N   0  0  0  0  0  0  0  0  0  0  0  0
  152.3685  140.1877  157.7782 C   0  0  0  0  0  0  0  0  0  0  0  0
  152.0706  138.9487  158.3926 C   0  0  0  0  0  0  0  0  0  0  0  0
  151.7825  137.8332  157.5838 C   0  0  0  0  0  0  0  0  0  0  0  0
  151.8001  137.9761  156.1826 C   0  0  0  0  0  0  0  0  0  0  0  0
  151.4767  136.7777  155.2982 C   0  0  0  0  0  0  0  0  0  0  0  0
  150.2396  136.8859  154.5303 N   0  0  0  0  0  0  0  0  0  0  0  0
  149.1230  137.4930  154.9557 C   0  0  0  0  0  0  0  0  0  0  0  0
  149.0050  138.0244  156.0601 O   0  0  0  0  0  0  0  0  0  0  0  0
  148.1486  137.4441  154.0368 N   0  0  0  0  0  0  0  0  0  0  0  0
  146.8075  137.9935  154.2051 C   0  0  0  0  0  0  0  0  0  0  0  0
  145.9721  137.8623  152.9198 C   0  0  0  0  0  0  0  0  0  0  0  0
  146.7642  138.1670  151.7916 O   0  0  0  0  0  0  0  0  0  0  0  0
  152.1072  139.2512  155.6586 C   0  0  0  0  0  0  0  0  0  0  0  0
  152.3872  140.3235  156.4291 N   0  0  0  0  0  0  0  0  0  0  0  0
  153.2075  141.0350  159.8939 C   0  0  0  0  0  0  0  0  0  0  0  0
  153.7554  142.3220  160.5340 C   0  0  0  0  0  0  0  0  0  0  0  0
  152.7423  143.3224  160.5512 O   0  0  0  0  0  0  0  0  0  0  0  0
  150.9433  145.1233  158.3679 H   0  0  0  0  0  0  0  0  0  0  0  0
  151.7429  145.6815  159.8343 H   0  0  0  0  0  0  0  0  0  0  0  0
  150.4259  144.5157  159.9402 H   0  0  0  0  0  0  0  0  0  0  0  0
  153.1621  144.0170  158.6587 H   0  0  0  0  0  0  0  0  0  0  0  0
  150.7940  142.1126  159.0934 H   0  0  0  0  0  0  0  0  0  0  0  0
  151.4135  142.6651  157.5426 H   0  0  0  0  0  0  0  0  0  0  0  0
  152.0734  138.8390  159.4668 H   0  0  0  0  0  0  0  0  0  0  0  0
  151.5532  136.8797  158.0364 H   0  0  0  0  0  0  0  0  0  0  0  0
  152.3119  136.5925  154.6203 H   0  0  0  0  0  0  0  0  0  0  0  0
  151.3996  135.8973  155.9364 H   0  0  0  0  0  0  0  0  0  0  0  0
  150.2382  136.4768  153.6073 H   0  0  0  0  0  0  0  0  0  0  0  0
  148.3416  136.9809  153.1608 H   0  0  0  0  0  0  0  0  0  0  0  0
  146.3106  137.4575  155.0156 H   0  0  0  0  0  0  0  0  0  0  0  0
  146.8725  139.0322  154.5312 H   0  0  0  0  0  0  0  0  0  0  0  0
  145.5252  136.8728  152.8152 H   0  0  0  0  0  0  0  0  0  0  0  0
  145.1513  138.5793  152.9432 H   0  0  0  0  0  0  0  0  0  0  0  0
  147.2457  138.9605  151.9689 H   0  0  0  0  0  0  0  0  0  0  0  0
  152.1281  139.4285  154.5936 H   0  0  0  0  0  0  0  0  0  0  0  0
  152.4182  140.6151  160.5189 H   0  0  0  0  0  0  0  0  0  0  0  0
  154.0044  140.2939  159.8495 H   0  0  0  0  0  0  0  0  0  0  0  0
  154.0752  142.1246  161.5572 H   0  0  0  0  0  0  0  0  0  0  0  0
  154.6305  142.6844  159.9918 H   0  0  0  0  0  0  0  0  0  0  0  0
  1  2  1  0  0  0  0
  1 22  1  0  0  0  0
  1 23  1  0  0  0  0
  1 24  1  0  0  0  0
  2 21  1  0  0  0  0
  2  3  1  0  0  0  0
  2 25  1  0  0  0  0
  3  4  1  0  0  0  0
  3 26  1  0  0  0  0
  3 27  1  0  0  0  0
  4  5  1  0  0  0  0
  4 19  1  0  0  0  0
  5 18  1  0  0  0  0
  5  6  2  0  0  0  0
  6  7  1  0  0  0  0
  6 28  1  0  0  0  0
  7  8  2  0  0  0  0
  7 29  1  0  0  0  0
  8  9  1  0  0  0  0
  8 17  1  0  0  0  0
  9 10  1  0  0  0  0
  9 30  1  0  0  0  0
  9 31  1  0  0  0  0
 10 11  1  0  0  0  0
 10 32  1  0  0  0  0
 11 12  2  0  0  0  0
 11 13  1  0  0  0  0
 13 14  1  0  0  0  0
 13 33  1  0  0  0  0
 14 15  1  0  0  0  0
 14 34  1  0  0  0  0
 14 35  1  0  0  0  0
 15 16  1  0  0  0  0
 15 36  1  0  0  0  0
 15 37  1  0  0  0  0
 16 38  1  0  0  0  0
 17 18  2  0  0  0  0
 17 39  1  0  0  0  0
 19 20  1  0  0  0  0
 19 40  1  0  0  0  0
 19 41  1  0  0  0  0
 20 21  1  0  0  0  0
 20 42  1  0  0  0  0
 20 43  1  0  0  0  0
M  END
> <s_m_source_file>
AV-unprocessed.smi

> <i_m_source_file_index>
1636

> <i_lp_mmshare_version>
43012

> <i_f3d_flags>
0

> <s_epik_input>
W0NIM11bQ0BASF0xW0NIMl1OKFtDSDJdW0NIMl1PMSljMltjSF1bY0hdYyhbY0hdbjIpW0NIMl1bTkhdQyg9TylbTkhdW0NIMl1bQ0gyXVtPSF0=

> <s_epik_cmdline>
J2VwaWtfcHl0aG9uJywgJy1waCcsICc3LjAnLCAnLXRuJywgJzgnLCAnLW1hJywgJzIwMCcsICctbWV0YWxfYmluZGluZycsICctaW1hZScsICc8aW5maWxlLm1hZT4nLCAnLW9tYWUnLCAnPG91dGZpbGUubWFlPic=

> <r_lp_tautomer_probability>
1

> <r_epik_Ionization_Penalty>
0.00695222

> <r_epik_Ionization_Penalty_Charging>
0

> <r_epik_Ionization_Penalty_Neutral>
0.00695222

> <r_epik_State_Penalty>
0.00513345

> <r_epik_Charging_Adjusted_Penalty>
0.00513345

> <i_epik_Tot_Q>
0

> <i_epik_Tot_abs_Q>
0

> <r_epik_Metal_State_Penalty>
-0

> <b_epik_Metal_Only>
0

> <s_lp_Force_Field>
OPLS_2005

> <r_lp_Energy>
15.2616

> <b_lp_Chiralities_Consistent>
1

> <s_lp_Variant>
AV-unprocessed.smi:1636-1

> <Gold.Version>
5.8.1

> <Gold.Id.Protein>
6NUR|6NUR_protein|mol2

> <Gold.PLP.Fitness>
49.3304

> <Gold.PLP.PLP>
-36.8873

> <Gold.PLP.part.hbond>
-5.9249

> <Gold.PLP.part.metal>
0.0000

> <Gold.PLP.part.buried>
-2.6240

> <Gold.PLP.part.nonpolar>
-28.4076

> <Gold.PLP.part.repulsive>
0.1040

> <Gold.PLP.ligand.clash>
0.0000

> <Gold.PLP.ligand.torsion>
0.7322

> <Gold.PLP.Chemscore.Hbond>
4.5173

> <Gold.PLP.Chemscore.CHOScore>
0.0000

> <Gold.PLP.Chemscore.Metal>
0.0000

> <Gold.Chemscore.Hbonds>
donor molecule, donor type, donor heavy atom, donor atom, acceptor molecule, acceptor atom, score
      L1  H    10    32       P1  7948  0.38
      L1  H    13    33       P1  7948  1.00
      P1  H  7954  7966       L1    16  0.05
      P1  H  7997  8008       L1    18  0.55

> <Gold.PLP.Chemscore.Internal.Correction>
0.3556

> <Gold.Rescore>
     Score         DG    S(hbond)    S(metal)    S(lipo)     H(rot)  DE(clash)    DE(int)     intcor
     16.55     -20.04       3.28        0.00      91.88       2.78       1.19       2.31       ----

> <Gold.Chemscore.Fitness>
16.5469

> <Gold.Chemscore.DG>
-20.0446

> <Gold.Chemscore.ZeroCoef>
-5.4800

> <Gold.Chemscore.Hbond>
3.2751

> <Gold.Chemscore.Metal>
0.0000

> <Gold.Chemscore.Lipo>
91.8779

> <Gold.Chemscore.Internal_Hbond>
0.0000

> <Gold.Chemscore.DEClash>
1.1906

> <Gold.Chemscore.DEInternal>
2.3071

> <Gold.Chemscore.Rot>
2.7828

> <Gold.Chemscore.Internal.Correction>
   9.000000E+99

> <Gold.Chemscore.Hbonds>
donor molecule, donor type, donor heavy atom, donor atom, acceptor molecule, acceptor atom, score
      L1  H    10    32       P1  7948  0.03
      L1  H    13    33       P1  7948  0.99
      P1  H  7997  8008       L1    18  0.01

> <Gold.Chemscore.Hbond.Weighted>
-10.9389

> <Gold.Chemscore.Metal.Weighted>
-0.0000

> <Gold.Chemscore.Lipo.Weighted>
-10.7497

> <Gold.Chemscore.Internal_Hbond.Weighted>
0.0000

> <Gold.Chemscore.DEClash.Weighted>
1.1906

> <Gold.Chemscore.DEInternal.Weighted>
2.3071

> <Gold.Chemscore.Rot.Weighted>
7.1241

> <Gold.Chemscore.Internal.Correction.Weighted>
   9.000000E+99

> <Gold.Protein.RotatedTorsions>
[ 6907 6896 6895 6894 ] final  121.72 input  -60.11 | X-H torsion
[ 7974 7965 7964 7962 ] final   18.52 input  175.53 | X-H torsion
[ 8008 7997 7996 7995 ] final  -43.11 input   59.86 | X-H torsion
[ 10167 10162 10161 10158 ] final -162.76 input  -65.29 | X-H torsion
[ 10718 10713 10712 10709 ] final  140.60 input   66.30 | X-H torsion
[ 10763 10752 10751 10750 ] final -118.89 input  -60.55 | X-H torsion
[ 11005 11000 10999 10996 ] final   99.40 input  -57.11 | X-H torsion

> <Gold.Protein.ActiveResidues>
 VAL166  LYS551  ARG553  GLY616  TRP617  ASP618  TYR619  PRO620  LYS621  CYS622 
 ASP623  PHE694  ASN695  SER759  ASP760  ASP761  ALA762  ILE779  LEU786  VAL792 
 PHE793  MET794  SER795  GLU796  ALA797  LYS798  CYS799  TRP800  GLU811  SER814 

> <Gold.Protein.RotatedAtoms>
  152.4299  133.7260  159.6560 H   0  0  0  0  0  0  0  0  0  0  0  0  # atno 6907 bound_to 6896
  150.8178  133.8295  159.3158 H   0  0  0  0  0  0  0  0  0  0  0  0  # atno 6908 bound_to 6896
  151.5987  135.1051  160.0107 H   0  0  0  0  0  0  0  0  0  0  0  0  # atno 6909 bound_to 6896
  146.2182  139.8445  142.8634 H   0  0  0  0  0  0  0  0  0  0  0  0  # atno 7974 bound_to 7965
  154.3997  140.1456  156.3465 H   0  0  0  0  0  0  0  0  0  0  0  0  # atno 8008 bound_to 7997
  155.8308  140.3466  155.5550 H   0  0  0  0  0  0  0  0  0  0  0  0  # atno 8009 bound_to 7997
  155.8190  140.0895  157.1851 H   0  0  0  0  0  0  0  0  0  0  0  0  # atno 8010 bound_to 7997
  139.6369  144.0333  152.2061 H   0  0  0  0  0  0  0  0  0  0  0  0  # atno 10167 bound_to 10162
  157.4015  131.1017  151.0547 H   0  0  0  0  0  0  0  0  0  0  0  0  # atno 10718 bound_to 10713
  154.8601  135.4258  154.2211 H   0  0  0  0  0  0  0  0  0  0  0  0  # atno 10763 bound_to 10752
  153.3216  135.6982  153.7031 H   0  0  0  0  0  0  0  0  0  0  0  0  # atno 10764 bound_to 10752
  153.6084  135.3524  155.2944 H   0  0  0  0  0  0  0  0  0  0  0  0  # atno 10765 bound_to 10752
  139.8771  134.9094  156.4600 H   0  0  0  0  0  0  0  0  0  0  0  0  # atno 11005 bound_to 11000
  145.2865  141.0154  143.3687 LP  0  0  0  0  0  0  0  0  0  0  0  0  # atno 17320 bound_to 7965
  144.9110  139.4529  143.6587 LP  0  0  0  0  0  0  0  0  0  0  0  0  # atno 17321 bound_to 7965
  140.0013  144.6291  150.7727 LP  0  0  0  0  0  0  0  0  0  0  0  0  # atno 17342 bound_to 10162
  140.7470  143.2899  151.3359 LP  0  0  0  0  0  0  0  0  0  0  0  0  # atno 17343 bound_to 10162
  157.1544  130.6198  149.5592 LP  0  0  0  0  0  0  0  0  0  0  0  0  # atno 17370 bound_to 10713
  155.9824  130.4838  150.6882 LP  0  0  0  0  0  0  0  0  0  0  0  0  # atno 17371 bound_to 10713
  140.8871  133.7875  155.9530 LP  0  0  0  0  0  0  0  0  0  0  0  0  # atno 17394 bound_to 11000
  140.8793  134.2631  157.5152 LP  0  0  0  0  0  0  0  0  0  0  0  0  # atno 17395 bound_to 11000

$$$$
