AV-unprocessed.smi:37|AV-procd|sdf|315|dock5
  -GOLD-   2262016133D 1   1.00000     0.00000
 Structure written by MMmdl.
 44 45  0  0  0  0  0  0  0  0  1 V2000
  144.1138  134.7377  153.8346 C   0  0  0  0  0  0  0  0  0  0  0  0
  143.2488  135.2171  155.0081 C   0  0  0  0  0  0  0  0  0  0  0  0
  143.9533  135.0423  156.3516 C   0  0  0  0  0  0  0  0  0  0  0  0
  143.4875  134.3168  157.2307 O   0  0  0  0  0  0  0  0  0  0  0  0
  145.0875  135.7550  156.4382 O   0  0  0  0  0  0  0  0  0  0  0  0
  145.8731  135.6805  157.6157 C   0  0  0  0  0  0  0  0  0  0  0  0
  147.1787  136.4641  157.4025 C   0  0  2  0  0  0  0  0  0  0  0  0
  147.6676  136.1330  156.0974 O   0  0  0  0  0  0  0  0  0  0  0  0
  148.9961  135.7048  156.1445 C   0  0  1  0  0  0  0  0  0  0  0  0
  149.9361  136.8652  155.8631 N   0  0  0  0  0  0  0  0  0  0  0  0
  149.4901  138.1129  155.4382 C   0  0  0  0  0  0  0  0  0  0  0  0
  150.3260  139.1446  155.1723 C   0  0  0  0  0  0  0  0  0  0  0  0
  149.8187  140.3214  154.7674 F   0  0  0  0  0  0  0  0  0  0  0  0
  151.7705  138.9901  155.3122 C   0  0  0  0  0  0  0  0  0  0  0  0
  152.6057  139.8670  155.1008 O   0  0  0  0  0  0  0  0  0  0  0  0
  152.1761  137.7160  155.7173 N   0  0  0  0  0  0  0  0  0  0  0  0
  151.3262  136.6433  155.9903 C   0  0  0  0  0  0  0  0  0  0  0  0
  151.7968  135.5573  156.3263 O   0  0  0  0  0  0  0  0  0  0  0  0
  149.2019  135.1642  157.5601 C   0  0  2  0  0  0  0  0  0  0  0  0
  148.5402  133.2829  157.6421 Br  0  0  0  0  0  0  0  0  0  0  0  0
  148.3172  136.0991  158.3724 C   0  0  2  0  0  0  0  0  0  0  0  0
  147.8723  135.5202  159.5937 O   0  0  0  0  0  0  0  0  0  0  0  0
  147.2187  136.2653  160.5029 C   0  0  0  0  0  0  0  0  0  0  0  0
  146.8519  137.4309  160.3538 O   0  0  0  0  0  0  0  0  0  0  0  0
  146.9619  135.5087  161.8036 C   0  0  0  0  0  0  0  0  0  0  0  0
  147.6314  136.1876  163.0063 C   0  0  0  0  0  0  0  0  0  0  0  0
  153.1684  137.5576  155.8160 H   0  0  0  0  0  0  0  0  0  0  0  0
  143.5644  134.8139  152.8963 H   0  0  0  0  0  0  0  0  0  0  0  0
  144.4100  133.6955  153.9596 H   0  0  0  0  0  0  0  0  0  0  0  0
  145.0199  135.3363  153.7351 H   0  0  0  0  0  0  0  0  0  0  0  0
  142.9902  136.2681  154.8778 H   0  0  0  0  0  0  0  0  0  0  0  0
  142.3117  134.6603  155.0277 H   0  0  0  0  0  0  0  0  0  0  0  0
  145.3011  136.1109  158.4386 H   0  0  0  0  0  0  0  0  0  0  0  0
  146.0835  134.6409  157.8683 H   0  0  0  0  0  0  0  0  0  0  0  0
  146.9733  137.5327  157.4734 H   0  0  0  0  0  0  0  0  0  0  0  0
  149.1946  134.9813  155.3514 H   0  0  0  0  0  0  0  0  0  0  0  0
  148.4365  138.2978  155.2997 H   0  0  0  0  0  0  0  0  0  0  0  0
  150.2453  135.1686  157.8745 H   0  0  0  0  0  0  0  0  0  0  0  0
  148.8750  137.0153  158.5738 H   0  0  0  0  0  0  0  0  0  0  0  0
  145.8861  135.4420  161.9669 H   0  0  0  0  0  0  0  0  0  0  0  0
  147.3304  134.4881  161.6969 H   0  0  0  0  0  0  0  0  0  0  0  0
  147.4025  135.6508  163.9268 H   0  0  0  0  0  0  0  0  0  0  0  0
  147.2835  137.2142  163.1266 H   0  0  0  0  0  0  0  0  0  0  0  0
  148.7166  136.2106  162.9002 H   0  0  0  0  0  0  0  0  0  0  0  0
  1  2  1  0  0  0  0
  1 28  1  0  0  0  0
  1 29  1  0  0  0  0
  1 30  1  0  0  0  0
  2  3  1  0  0  0  0
  2 31  1  0  0  0  0
  2 32  1  0  0  0  0
  3  4  2  0  0  0  0
  3  5  1  0  0  0  0
  5  6  1  0  0  0  0
  6  7  1  0  0  0  0
  6 33  1  0  0  0  0
  6 34  1  0  0  0  0
  7 21  1  0  0  0  0
  7  8  1  0  0  0  0
  7 35  1  0  0  0  0
  8  9  1  0  0  0  0
  9 10  1  0  0  0  0
  9 19  1  0  0  0  0
  9 36  1  0  0  0  0
 10 17  1  0  0  0  0
 10 11  1  0  0  0  0
 11 12  2  0  0  0  0
 11 37  1  0  0  0  0
 12 13  1  0  0  0  0
 12 14  1  0  0  0  0
 14 15  2  0  0  0  0
 14 16  1  0  0  0  0
 16 27  1  0  0  0  0
 16 17  1  0  0  0  0
 17 18  2  0  0  0  0
 19 20  1  0  0  0  0
 19 21  1  0  0  0  0
 19 38  1  0  0  0  0
 21 22  1  0  0  0  0
 21 39  1  0  0  0  0
 22 23  1  0  0  0  0
 23 24  2  0  0  0  0
 23 25  1  0  0  0  0
 25 26  1  0  0  0  0
 25 40  1  0  0  0  0
 25 41  1  0  0  0  0
 26 42  1  0  0  0  0
 26 43  1  0  0  0  0
 26 44  1  0  0  0  0
M  END
> <s_m_source_file>
AV-unprocessed.smi

> <i_m_source_file_index>
37

> <i_lp_mmshare_version>
43012

> <i_f3d_flags>
0

> <s_epik_input>
W0NIM11bQ0gyXUMoPU8pT1tDSDJdW0NAQEhdMU9bQ0BASF0objJbY0hdYyhGKWMoPU8pW25IXWMyPU8pW0NAQEhdKEJyKVtDQEhdMU9DKD1PKVtDSDJdW0NIM10=

> <s_epik_cmdline>
J2VwaWtfcHl0aG9uJywgJy1waCcsICc3LjAnLCAnLXRuJywgJzgnLCAnLW1hJywgJzIwMCcsICctbWV0YWxfYmluZGluZycsICctaW1hZScsICc8aW5maWxlLm1hZT4nLCAnLW9tYWUnLCAnPG91dGZpbGUubWFlPic=

> <r_lp_tautomer_probability>
0.999537

> <r_epik_Ionization_Penalty>
0.104106

> <r_epik_Ionization_Penalty_Charging>
0.104106

> <r_epik_Ionization_Penalty_Neutral>
3.94675e-16

> <r_epik_State_Penalty>
0.0940182

> <r_epik_Charging_Adjusted_Penalty>
0.198124

> <i_epik_Tot_Q>
0

> <i_epik_Tot_abs_Q>
0

> <r_epik_Metal_State_Penalty>
3.05314

> <b_epik_Metal_Only>
0

> <s_epik_Chemistry_Notes>
This compound has an ester and may undergo hydrolysis at high or low pH. This compound contains an acetal/aminal-like group ( X-CH(R)-Y where X, Y are N, S, or O) that may be acid/base labile, releasing an aldehyde.

> <s_lp_Force_Field>
OPLS_2005

> <r_lp_Energy>
24.3846

> <b_lp_Chiralities_Consistent>
1

> <s_lp_Variant>
AV-unprocessed.smi:37-13

> <Gold.Version>
5.8.1

> <Gold.Id.Protein>
6NUR|6NUR_protein|mol2

> <Gold.PLP.Fitness>
39.7993

> <Gold.PLP.PLP>
-29.1776

> <Gold.PLP.part.hbond>
-4.6355

> <Gold.PLP.part.metal>
0.0000

> <Gold.PLP.part.buried>
-3.8699

> <Gold.PLP.part.nonpolar>
-20.7528

> <Gold.PLP.part.repulsive>
0.2779

> <Gold.PLP.ligand.clash>
0.0000

> <Gold.PLP.ligand.torsion>
0.3132

> <Gold.PLP.Chemscore.Hbond>
3.6862

> <Gold.PLP.Chemscore.CHOScore>
0.0000

> <Gold.PLP.Chemscore.Metal>
0.0000

> <Gold.Chemscore.Hbonds>
donor molecule, donor type, donor heavy atom, donor atom, acceptor molecule, acceptor atom, score
      P1  H  6934  6947       L1    24  1.00
      P1  H  7989  7998       L1    15  0.46
      P1  H  7997  8009       L1    15  0.99
      P1  H 10752 10764       L1    18  0.90
      P1  H 11000 11005       L1     4  0.20

> <Gold.PLP.Chemscore.Internal.Correction>
0.1896

> <Gold.Rescore>
     Score         DG    S(hbond)    S(metal)    S(lipo)     H(rot)  DE(clash)    DE(int)     intcor
     11.20     -12.50       3.28        0.00      39.14       3.33       0.02       1.28       ----

> <Gold.Chemscore.Fitness>
11.1974

> <Gold.Chemscore.DG>
-12.4978

> <Gold.Chemscore.ZeroCoef>
-5.4800

> <Gold.Chemscore.Hbond>
3.2828

> <Gold.Chemscore.Metal>
0.0000

> <Gold.Chemscore.Lipo>
39.1367

> <Gold.Chemscore.Internal_Hbond>
0.0000

> <Gold.Chemscore.DEClash>
0.0202

> <Gold.Chemscore.DEInternal>
1.2802

> <Gold.Chemscore.Rot>
3.3303

> <Gold.Chemscore.Internal.Correction>
   9.000000E+99

> <Gold.Chemscore.Hbonds>
donor molecule, donor type, donor heavy atom, donor atom, acceptor molecule, acceptor atom, score
      P1  H  6934  6947       L1    24  1.00
      P1  H  7989  7998       L1    15  0.12
      P1  H  7997  8009       L1    15  0.92
      P1  H 10752 10764       L1    18  0.18
      P1  H 11000 11005       L1     4  0.20

> <Gold.Chemscore.Hbond.Weighted>
-10.9644

> <Gold.Chemscore.Metal.Weighted>
-0.0000

> <Gold.Chemscore.Lipo.Weighted>
-4.5790

> <Gold.Chemscore.Internal_Hbond.Weighted>
0.0000

> <Gold.Chemscore.DEClash.Weighted>
0.0202

> <Gold.Chemscore.DEInternal.Weighted>
1.2802

> <Gold.Chemscore.Rot.Weighted>
8.5256

> <Gold.Chemscore.Internal.Correction.Weighted>
   9.000000E+99

> <Gold.Protein.RotatedTorsions>
[ 6907 6896 6895 6894 ] final   80.90 input  -60.11 | X-H torsion
[ 7974 7965 7964 7962 ] final  -77.81 input  175.53 | X-H torsion
[ 8008 7997 7996 7995 ] final -134.12 input   59.86 | X-H torsion
[ 10167 10162 10161 10158 ] final   68.89 input  -65.29 | X-H torsion
[ 10718 10713 10712 10709 ] final   61.72 input   66.30 | X-H torsion
[ 10763 10752 10751 10750 ] final  -29.48 input  -60.55 | X-H torsion
[ 11005 11000 10999 10996 ] final  -95.88 input  -57.11 | X-H torsion

> <Gold.Protein.ActiveResidues>
 VAL166  LYS551  ARG553  GLY616  TRP617  ASP618  TYR619  PRO620  LYS621  CYS622 
 ASP623  PHE694  ASN695  SER759  ASP760  ASP761  ALA762  ILE779  LEU786  VAL792 
 PHE793  MET794  SER795  GLU796  ALA797  LYS798  CYS799  TRP800  GLU811  SER814 

> <Gold.Protein.RotatedAtoms>
  152.5250  134.3287  159.9174 H   0  0  0  0  0  0  0  0  0  0  0  0  # atno 6907 bound_to 6896
  151.3236  133.4023  159.2664 H   0  0  0  0  0  0  0  0  0  0  0  0  # atno 6908 bound_to 6896
  150.9939  134.9284  159.7972 H   0  0  0  0  0  0  0  0  0  0  0  0  # atno 6909 bound_to 6896
  145.5948  140.9422  143.1273 H   0  0  0  0  0  0  0  0  0  0  0  0  # atno 7974 bound_to 7965
  155.3569  140.0480  157.3046 H   0  0  0  0  0  0  0  0  0  0  0  0  # atno 8008 bound_to 7997
  154.5198  140.2221  155.8961 H   0  0  0  0  0  0  0  0  0  0  0  0  # atno 8009 bound_to 7997
  156.1677  140.3102  155.8924 H   0  0  0  0  0  0  0  0  0  0  0  0  # atno 8010 bound_to 7997
  140.0737  144.5130  150.7209 H   0  0  0  0  0  0  0  0  0  0  0  0  # atno 10167 bound_to 10162
  157.5848  130.9010  149.9496 H   0  0  0  0  0  0  0  0  0  0  0  0  # atno 10718 bound_to 10713
  153.7653  135.6916  153.4917 H   0  0  0  0  0  0  0  0  0  0  0  0  # atno 10763 bound_to 10752
  153.1911  135.4471  155.0148 H   0  0  0  0  0  0  0  0  0  0  0  0  # atno 10764 bound_to 10752
  154.8138  135.3389  154.7166 H   0  0  0  0  0  0  0  0  0  0  0  0  # atno 10765 bound_to 10752
  141.1428  133.8058  157.0496 H   0  0  0  0  0  0  0  0  0  0  0  0  # atno 11005 bound_to 11000
  144.7335  139.7653  143.7338 LP  0  0  0  0  0  0  0  0  0  0  0  0  # atno 17320 bound_to 7965
  146.1620  139.4738  142.9982 LP  0  0  0  0  0  0  0  0  0  0  0  0  # atno 17321 bound_to 7965
  140.7113  143.2507  151.4573 LP  0  0  0  0  0  0  0  0  0  0  0  0  # atno 17342 bound_to 10162
  139.5820  144.1687  152.1981 LP  0  0  0  0  0  0  0  0  0  0  0  0  # atno 17343 bound_to 10162
  156.0896  130.3664  150.0420 LP  0  0  0  0  0  0  0  0  0  0  0  0  # atno 17370 bound_to 10713
  156.8553  130.9473  151.3622 LP  0  0  0  0  0  0  0  0  0  0  0  0  # atno 17371 bound_to 10713
  140.0640  134.9739  157.1355 LP  0  0  0  0  0  0  0  0  0  0  0  0  # atno 17394 bound_to 11000
  140.3806  134.2291  155.7171 LP  0  0  0  0  0  0  0  0  0  0  0  0  # atno 17395 bound_to 11000

$$$$
