AV-unprocessed.smi:2831|AV-procd|sdf|10908|dock9
  -GOLD-   2272015353D 1   1.00000     0.00000
 Structure written by MMmdl.
 30 31  0  0  0  0  0  0  0  0  1 V2000
  143.7822  132.6128  149.2039 C   0  0  0  0  0  0  0  0  0  0  0  0
  144.8705  132.6572  150.2214 C   0  0  0  0  0  0  0  0  0  0  0  0
  145.3213  131.5630  150.8470 N   0  0  0  0  0  0  0  0  0  0  0  0
  146.3308  131.8539  151.7540 N   0  0  0  0  0  0  0  0  0  0  0  0
  146.6110  133.1641  151.7869 C   0  0  0  0  0  0  0  0  0  0  0  0
  147.5981  133.7395  152.6301 N   0  0  0  0  0  0  0  0  0  0  0  0
  148.0677  133.2756  153.8014 C   0  0  0  0  0  0  0  0  0  0  0  0
  147.7108  132.2307  154.3459 O   0  0  0  0  0  0  0  0  0  0  0  0
  148.9906  134.1067  154.3136 N   0  0  0  0  0  0  0  0  0  0  0  0
  149.7404  133.9403  155.5642 C   0  0  1  0  0  0  0  0  0  0  0  0
  150.5871  132.6499  155.5159 C   0  0  0  0  0  0  0  0  0  0  0  0
  150.6379  135.1672  155.7858 C   0  0  0  0  0  0  0  0  0  0  0  0
  150.0768  135.8399  157.0357 C   0  0  0  0  0  0  0  0  0  0  0  0
  149.5073  134.7617  157.7531 O   0  0  0  0  0  0  0  0  0  0  0  0
  148.8147  133.9740  156.7998 C   0  0  0  0  0  0  0  0  0  0  0  0
  145.6559  134.1575  150.6995 S   0  0  0  0  0  0  0  0  0  0  0  0
  143.7648  131.6433  148.7050 H   0  0  0  0  0  0  0  0  0  0  0  0
  143.9370  133.3876  148.4527 H   0  0  0  0  0  0  0  0  0  0  0  0
  142.8178  132.7779  149.6843 H   0  0  0  0  0  0  0  0  0  0  0  0
  147.9905  134.6103  152.3041 H   0  0  0  0  0  0  0  0  0  0  0  0
  149.2037  134.9388  153.7836 H   0  0  0  0  0  0  0  0  0  0  0  0
  151.1812  132.5347  156.4232 H   0  0  0  0  0  0  0  0  0  0  0  0
  151.2749  132.6600  154.6698 H   0  0  0  0  0  0  0  0  0  0  0  0
  149.9660  131.7587  155.4255 H   0  0  0  0  0  0  0  0  0  0  0  0
  151.6686  134.8641  155.9747 H   0  0  0  0  0  0  0  0  0  0  0  0
  150.6606  135.8541  154.9385 H   0  0  0  0  0  0  0  0  0  0  0  0
  150.8417  136.3538  157.6181 H   0  0  0  0  0  0  0  0  0  0  0  0
  149.2987  136.5598  156.7768 H   0  0  0  0  0  0  0  0  0  0  0  0
  147.8649  134.4649  156.5799 H   0  0  0  0  0  0  0  0  0  0  0  0
  148.5904  132.9829  157.1952 H   0  0  0  0  0  0  0  0  0  0  0  0
  1  2  1  0  0  0  0
  1 17  1  0  0  0  0
  1 18  1  0  0  0  0
  1 19  1  0  0  0  0
  2 16  1  0  0  0  0
  2  3  2  0  0  0  0
  3  4  1  0  0  0  0
  4  5  2  0  0  0  0
  5  6  1  0  0  0  0
  5 16  1  0  0  0  0
  6  7  1  0  0  0  0
  6 20  1  0  0  0  0
  7  8  2  0  0  0  0
  7  9  1  0  0  0  0
  9 10  1  0  0  0  0
  9 21  1  0  0  0  0
 10 15  1  0  0  0  0
 10 11  1  0  0  0  0
 10 12  1  0  0  0  0
 11 22  1  0  0  0  0
 11 23  1  0  0  0  0
 11 24  1  0  0  0  0
 12 13  1  0  0  0  0
 12 25  1  0  0  0  0
 12 26  1  0  0  0  0
 13 14  1  0  0  0  0
 13 27  1  0  0  0  0
 13 28  1  0  0  0  0
 14 15  1  0  0  0  0
 15 29  1  0  0  0  0
 15 30  1  0  0  0  0
M  END
> <s_m_source_file>
AV-unprocessed.smi

> <i_m_source_file_index>
2831

> <i_lp_mmshare_version>
43012

> <i_f3d_flags>
0

> <s_epik_input>
W0NIM11jMW5uYyhzMSlbTkhdQyg9TylbTkhdW0NAQF0yKFtDSDNdKVtDSDJdW0NIMl1PW0NIMl0y

> <s_epik_cmdline>
J2VwaWtfcHl0aG9uJywgJy1waCcsICc3LjAnLCAnLXRuJywgJzgnLCAnLW1hJywgJzIwMCcsICctbWV0YWxfYmluZGluZycsICctaW1hZScsICc8aW5maWxlLm1hZT4nLCAnLW9tYWUnLCAnPG91dGZpbGUubWFlPic=

> <r_lp_tautomer_probability>
1

> <r_epik_Ionization_Penalty>
0.00277018

> <r_epik_Ionization_Penalty_Charging>
0

> <r_epik_Ionization_Penalty_Neutral>
0.00277018

> <r_epik_State_Penalty>
-0

> <r_epik_Charging_Adjusted_Penalty>
0

> <i_epik_Tot_Q>
0

> <i_epik_Tot_abs_Q>
0

> <r_epik_Metal_State_Penalty>
0.356997

> <b_epik_Metal_Only>
0

> <s_lp_Force_Field>
OPLS_2005

> <r_lp_Energy>
15.109

> <b_lp_Chiralities_Consistent>
1

> <s_lp_Variant>
AV-unprocessed.smi:2831-1

> <Gold.Version>
5.8.1

> <Gold.Id.Protein>
6NUR|6NUR_protein|mol2

> <Gold.PLP.Fitness>
30.4925

> <Gold.PLP.PLP>
-23.6165

> <Gold.PLP.part.hbond>
-2.5336

> <Gold.PLP.part.metal>
0.0000

> <Gold.PLP.part.buried>
-5.0223

> <Gold.PLP.part.nonpolar>
-16.9980

> <Gold.PLP.part.repulsive>
0.4219

> <Gold.PLP.ligand.clash>
0.0000

> <Gold.PLP.ligand.torsion>
0.1549

> <Gold.PLP.Chemscore.Hbond>
2.3861

> <Gold.PLP.Chemscore.CHOScore>
0.0000

> <Gold.PLP.Chemscore.Metal>
0.0000

> <Gold.Chemscore.Hbonds>
donor molecule, donor type, donor heavy atom, donor atom, acceptor molecule, acceptor atom, score
      L1  H     6    20       P1  7948  1.00
      L1  H     9    21       P1  7948  0.34
      P1  H  6896  6907       L1    14  0.91

> <Gold.PLP.Chemscore.Internal.Correction>
0.0275

> <Gold.Rescore>
     Score         DG    S(hbond)    S(metal)    S(lipo)     H(rot)  DE(clash)    DE(int)     intcor
     13.82     -15.23       2.10        0.00      45.37       1.00       0.12       1.29       ----

> <Gold.Chemscore.Fitness>
13.8164

> <Gold.Chemscore.DG>
-15.2289

> <Gold.Chemscore.ZeroCoef>
-5.4800

> <Gold.Chemscore.Hbond>
2.0959

> <Gold.Chemscore.Metal>
0.0000

> <Gold.Chemscore.Lipo>
45.3712

> <Gold.Chemscore.Internal_Hbond>
0.0000

> <Gold.Chemscore.DEClash>
0.1216

> <Gold.Chemscore.DEInternal>
1.2909

> <Gold.Chemscore.Rot>
1.0000

> <Gold.Chemscore.Internal.Correction>
   9.000000E+99

> <Gold.Chemscore.Hbonds>
donor molecule, donor type, donor heavy atom, donor atom, acceptor molecule, acceptor atom, score
      L1  H     6    20       P1  7948  0.40
      L1  H     9    21       P1  7948  0.08
      P1  H  6896  6907       L1    14  0.73

> <Gold.Chemscore.Hbond.Weighted>
-7.0005

> <Gold.Chemscore.Metal.Weighted>
-0.0000

> <Gold.Chemscore.Lipo.Weighted>
-5.3084

> <Gold.Chemscore.Internal_Hbond.Weighted>
0.0000

> <Gold.Chemscore.DEClash.Weighted>
0.1216

> <Gold.Chemscore.DEInternal.Weighted>
1.2909

> <Gold.Chemscore.Rot.Weighted>
2.5600

> <Gold.Chemscore.Internal.Correction.Weighted>
   9.000000E+99

> <Gold.Protein.RotatedTorsions>
[ 6907 6896 6895 6894 ] final  -97.63 input  -60.11 | X-H torsion
[ 7974 7965 7964 7962 ] final -101.46 input  175.53 | X-H torsion
[ 8008 7997 7996 7995 ] final  169.20 input   59.86 | X-H torsion
[ 10167 10162 10161 10158 ] final  -50.84 input  -65.29 | X-H torsion
[ 10718 10713 10712 10709 ] final  153.35 input   66.30 | X-H torsion
[ 10763 10752 10751 10750 ] final    5.39 input  -60.55 | X-H torsion
[ 11005 11000 10999 10996 ] final  -46.63 input  -57.11 | X-H torsion

> <Gold.Protein.ActiveResidues>
 VAL166  LYS551  ARG553  GLY616  TRP617  ASP618  TYR619  PRO620  LYS621  CYS622 
 ASP623  PHE694  ASN695  SER759  ASP760  ASP761  ALA762  ILE779  LEU786  VAL792 
 PHE793  MET794  SER795  GLU796  ALA797  LYS798  CYS799  TRP800  GLU811  SER814 

> <Gold.Protein.RotatedAtoms>
  150.7022  134.1319  159.4072 H   0  0  0  0  0  0  0  0  0  0  0  0  # atno 6907 bound_to 6896
  151.9305  135.0256  160.0538 H   0  0  0  0  0  0  0  0  0  0  0  0  # atno 6908 bound_to 6896
  152.2180  133.4926  159.5183 H   0  0  0  0  0  0  0  0  0  0  0  0  # atno 6909 bound_to 6896
  145.2813  140.9327  143.2930 H   0  0  0  0  0  0  0  0  0  0  0  0  # atno 7974 bound_to 7965
  156.1478  140.1570  156.8818 H   0  0  0  0  0  0  0  0  0  0  0  0  # atno 8008 bound_to 7997
  154.5044  140.0817  156.7902 H   0  0  0  0  0  0  0  0  0  0  0  0  # atno 8009 bound_to 7997
  155.3954  140.3412  155.4256 H   0  0  0  0  0  0  0  0  0  0  0  0  # atno 8010 bound_to 7997
  140.6618  143.2642  151.4417 H   0  0  0  0  0  0  0  0  0  0  0  0  # atno 10167 bound_to 10162
  157.2460  131.0769  151.1761 H   0  0  0  0  0  0  0  0  0  0  0  0  # atno 10718 bound_to 10713
  153.2600  135.6922  153.7589 H   0  0  0  0  0  0  0  0  0  0  0  0  # atno 10763 bound_to 10752
  153.6652  135.3353  155.3139 H   0  0  0  0  0  0  0  0  0  0  0  0  # atno 10764 bound_to 10752
  154.8426  135.4486  154.1586 H   0  0  0  0  0  0  0  0  0  0  0  0  # atno 10765 bound_to 10752
  141.0591  133.6715  156.3182 H   0  0  0  0  0  0  0  0  0  0  0  0  # atno 11005 bound_to 11000
  144.9251  139.4365  143.6522 LP  0  0  0  0  0  0  0  0  0  0  0  0  # atno 17320 bound_to 7965
  146.3215  139.8132  142.8941 LP  0  0  0  0  0  0  0  0  0  0  0  0  # atno 17321 bound_to 7965
  139.5854  144.1616  152.2022 LP  0  0  0  0  0  0  0  0  0  0  0  0  # atno 17342 bound_to 10162
  140.0954  144.5585  150.7025 LP  0  0  0  0  0  0  0  0  0  0  0  0  # atno 17343 bound_to 10162
  157.3329  130.6994  149.6335 LP  0  0  0  0  0  0  0  0  0  0  0  0  # atno 17370 bound_to 10713
  155.9668  130.4302  150.4867 LP  0  0  0  0  0  0  0  0  0  0  0  0  # atno 17371 bound_to 10713
  140.5905  134.5655  157.5498 LP  0  0  0  0  0  0  0  0  0  0  0  0  # atno 17394 bound_to 11000
  139.9416  134.7776  156.0664 LP  0  0  0  0  0  0  0  0  0  0  0  0  # atno 17395 bound_to 11000

$$$$
