AV-unprocessed.smi:81|AV-procd|sdf|791|dock2
  -GOLD-   2262017163D 1   1.00000     0.00000
 Structure written by MMmdl.
 64 67  0  0  0  0  0  0  0  0  2 V2000
  145.8079  134.5985  162.7450 C   0  0  0  0  0  0  0  0  0  0  0  0
  147.3301  134.7126  162.5607 C   0  0  0  0  0  0  0  0  0  0  0  0
  147.7685  136.1655  162.7994 C   0  0  0  0  0  0  0  0  0  0  0  0
  147.8154  134.2389  161.1673 C   0  0  0  0  0  0  0  0  0  0  0  0
  146.8096  134.2720  160.0955 N   0  0  0  0  0  0  0  0  0  0  0  0
  146.8143  135.4590  159.4401 C   0  0  0  0  0  0  0  0  0  0  0  0
  145.6490  135.9857  158.9788 N   0  0  0  0  0  0  0  0  0  0  0  0
  145.6566  137.1457  158.3152 C   0  0  0  0  0  0  0  0  0  0  0  0
  146.6963  137.9245  158.0078 N   0  0  0  0  0  0  0  0  0  0  0  0
  147.8665  137.3965  158.4689 C   0  0  0  0  0  0  0  0  0  0  0  0
  148.0121  136.1804  159.1915 C   0  0  0  0  0  0  0  0  0  0  0  0
  149.3474  135.9689  159.5090 N   0  0  0  0  0  0  0  0  0  0  0  0
  149.9606  136.9979  158.9905 C   0  0  0  0  0  0  0  0  0  0  0  0
  149.1493  137.8985  158.3364 N   0  0  0  0  0  0  0  0  0  0  0  0
  149.5692  139.1154  157.6585 C   0  0  0  0  0  0  0  0  0  0  0  0
  149.6465  138.9664  156.1189 C   0  0  2  0  0  0  0  0  0  0  0  0
  148.3401  138.7076  155.6317 O   0  0  0  0  0  0  0  0  0  0  0  0
  150.5520  137.8048  155.6963 C   0  0  0  0  0  0  0  0  0  0  0  0
  151.7496  138.4865  155.0454 C   0  0  0  0  0  0  0  0  0  0  0  0
  151.1745  139.6387  154.4560 O   0  0  0  0  0  0  0  0  0  0  0  0
  150.2842  140.1922  155.4136 C   0  0  1  0  0  0  0  0  0  0  0  0
  149.3290  141.1976  154.7493 C   0  0  0  0  0  0  0  0  0  0  0  0
  146.4252  133.0707  159.3297 C   0  0  2  0  0  0  0  0  0  0  0  0
  145.8275  131.9498  160.2192 C   0  0  0  0  0  0  0  0  0  0  0  0
  146.8780  131.3621  161.1792 C   0  0  0  0  0  0  0  0  0  0  0  0
  148.0435  130.8287  160.4319 N   0  3  2  0  0  0  0  0  0  0  0  0
  149.0343  130.1857  161.3210 C   0  0  0  0  0  0  0  0  0  0  0  0
  148.6578  131.8466  159.5438 C   0  0  0  0  0  0  0  0  0  0  0  0
  147.6160  132.4369  158.5750 C   0  0  0  0  0  0  0  0  0  0  0  0
  145.2736  135.1603  161.9787 H   0  0  0  0  0  0  0  0  0  0  0  0
  145.5025  134.9931  163.7143 H   0  0  0  0  0  0  0  0  0  0  0  0
  145.4651  133.5674  162.7051 H   0  0  0  0  0  0  0  0  0  0  0  0
  147.8105  134.1145  163.3345 H   0  0  0  0  0  0  0  0  0  0  0  0
  147.3275  136.8395  162.0644 H   0  0  0  0  0  0  0  0  0  0  0  0
  148.8524  136.2651  162.7340 H   0  0  0  0  0  0  0  0  0  0  0  0
  147.4704  136.5108  163.7899 H   0  0  0  0  0  0  0  0  0  0  0  0
  148.7027  134.7959  160.8710 H   0  0  0  0  0  0  0  0  0  0  0  0
  148.1667  133.2101  161.2548 H   0  0  0  0  0  0  0  0  0  0  0  0
  144.6925  137.4994  157.9804 H   0  0  0  0  0  0  0  0  0  0  0  0
  151.0312  137.1251  159.0623 H   0  0  0  0  0  0  0  0  0  0  0  0
  148.8727  139.9123  157.9224 H   0  0  0  0  0  0  0  0  0  0  0  0
  150.5383  139.4138  158.0610 H   0  0  0  0  0  0  0  0  0  0  0  0
  148.3954  138.5499  154.7016 H   0  0  0  0  0  0  0  0  0  0  0  0
  150.8481  137.1606  156.5250 H   0  0  0  0  0  0  0  0  0  0  0  0
  150.0610  137.1719  154.9552 H   0  0  0  0  0  0  0  0  0  0  0  0
  152.4865  138.7834  155.7935 H   0  0  0  0  0  0  0  0  0  0  0  0
  152.2426  137.8565  154.3050 H   0  0  0  0  0  0  0  0  0  0  0  0
  150.9101  140.7310  156.1259 H   0  0  0  0  0  0  0  0  0  0  0  0
  148.6251  141.6108  155.4721 H   0  0  0  0  0  0  0  0  0  0  0  0
  148.7561  140.7379  153.9439 H   0  0  0  0  0  0  0  0  0  0  0  0
  149.8861  142.0302  154.3203 H   0  0  0  0  0  0  0  0  0  0  0  0
  145.6642  133.3648  158.6077 H   0  0  0  0  0  0  0  0  0  0  0  0
  144.9609  132.2916  160.7840 H   0  0  0  0  0  0  0  0  0  0  0  0
  145.4495  131.1516  159.5787 H   0  0  0  0  0  0  0  0  0  0  0  0
  147.2115  132.1206  161.8893 H   0  0  0  0  0  0  0  0  0  0  0  0
  146.4263  130.5605  161.7646 H   0  0  0  0  0  0  0  0  0  0  0  0
  149.4676  130.9096  162.0124 H   0  0  0  0  0  0  0  0  0  0  0  0
  149.8423  129.7412  160.7391 H   0  0  0  0  0  0  0  0  0  0  0  0
  148.5690  129.3908  161.9046 H   0  0  0  0  0  0  0  0  0  0  0  0
  149.1086  132.6362  160.1472 H   0  0  0  0  0  0  0  0  0  0  0  0
  149.4653  131.3875  158.9723 H   0  0  0  0  0  0  0  0  0  0  0  0
  147.2437  131.6401  157.9298 H   0  0  0  0  0  0  0  0  0  0  0  0
  148.0888  133.1485  157.8999 H   0  0  0  0  0  0  0  0  0  0  0  0
  147.6861  130.1021  159.8280 H   0  0  0  0  0  0  0  0  0  0  0  0
  1  2  1  0  0  0  0
  1 30  1  0  0  0  0
  1 31  1  0  0  0  0
  1 32  1  0  0  0  0
  2  3  1  0  0  0  0
  2  4  1  0  0  0  0
  2 33  1  0  0  0  0
  3 34  1  0  0  0  0
  3 35  1  0  0  0  0
  3 36  1  0  0  0  0
  4  5  1  0  0  0  0
  4 37  1  0  0  0  0
  4 38  1  0  0  0  0
  5  6  1  0  0  0  0
  5 23  1  0  0  0  0
  6 11  1  0  0  0  0
  6  7  2  0  0  0  0
  7  8  1  0  0  0  0
  8  9  2  0  0  0  0
  8 39  1  0  0  0  0
  9 10  1  0  0  0  0
 10 14  1  0  0  0  0
 10 11  2  0  0  0  0
 11 12  1  0  0  0  0
 12 13  2  0  0  0  0
 13 14  1  0  0  0  0
 13 40  1  0  0  0  0
 14 15  1  0  0  0  0
 15 16  1  0  0  0  0
 15 41  1  0  0  0  0
 15 42  1  0  0  0  0
 16 21  1  0  0  0  0
 16 17  1  0  0  0  0
 16 18  1  0  0  0  0
 17 43  1  0  0  0  0
 18 19  1  0  0  0  0
 18 44  1  0  0  0  0
 18 45  1  0  0  0  0
 19 20  1  0  0  0  0
 19 46  1  0  0  0  0
 19 47  1  0  0  0  0
 20 21  1  0  0  0  0
 21 22  1  0  0  0  0
 21 48  1  0  0  0  0
 22 49  1  0  0  0  0
 22 50  1  0  0  0  0
 22 51  1  0  0  0  0
 23 29  1  0  0  0  0
 23 24  1  0  0  0  0
 23 52  1  0  0  0  0
 24 25  1  0  0  0  0
 24 53  1  0  0  0  0
 24 54  1  0  0  0  0
 25 26  1  0  0  0  0
 25 55  1  0  0  0  0
 25 56  1  0  0  0  0
 26 27  1  0  0  0  0
 26 28  1  0  0  0  0
 26 64  1  0  0  0  0
 27 57  1  0  0  0  0
 27 58  1  0  0  0  0
 27 59  1  0  0  0  0
 28 29  1  0  0  0  0
 28 60  1  0  0  0  0
 28 61  1  0  0  0  0
 29 62  1  0  0  0  0
 29 63  1  0  0  0  0
M  CHG  1  26   1
M  END
> <s_m_source_file>
AV-unprocessed.smi

> <i_m_source_file_index>
81

> <i_lp_mmshare_version>
43012

> <i_f3d_flags>
0

> <s_epik_input>
W0NIMl0xW0NIMl1OKFtDSDNdKVtDSDJdW0NIMl1bQ0hdMU4oW0NIMl1bQ0hdKFtDSDNdKVtDSDNdKWMobltjSF1uMiljKGMyMyluW2NIXW4zW0NIMl1bQ0BAXTQoW09IXSlbQ0gyXVtDSDJdT1tDQEhdNFtDSDNd

> <s_epik_cmdline>
J2VwaWtfcHl0aG9uJywgJy1waCcsICc3LjAnLCAnLXRuJywgJzgnLCAnLW1hJywgJzIwMCcsICctbWV0YWxfYmluZGluZycsICctaW1hZScsICc8aW5maWxlLm1hZT4nLCAnLW9tYWUnLCAnPG91dGZpbGUubWFlPic=

> <r_lp_tautomer_probability>
1

> <r_epik_Ionization_Penalty>
0.00272708

> <r_epik_Ionization_Penalty_Charging>
0.00158983

> <r_epik_Ionization_Penalty_Neutral>
0.00113725

> <r_epik_State_Penalty>
-0

> <r_epik_Charging_Adjusted_Penalty>
0.00158983

> <i_epik_Tot_Q>
1

> <i_epik_Tot_abs_Q>
1

> <r_epik_Metal_State_Penalty>
-0

> <b_epik_Metal_Only>
0

> <s_lp_Force_Field>
OPLS_2005

> <r_lp_Energy>
49.6566

> <b_lp_Chiralities_Consistent>
1

> <s_lp_Variant>
AV-unprocessed.smi:81-6

> <Gold.Version>
5.8.1

> <Gold.Id.Protein>
6NUR|6NUR_protein|mol2

> <Gold.PLP.Fitness>
41.2408

> <Gold.PLP.PLP>
-37.7694

> <Gold.PLP.part.hbond>
-2.0000

> <Gold.PLP.part.metal>
0.0000

> <Gold.PLP.part.buried>
-6.2197

> <Gold.PLP.part.nonpolar>
-30.2436

> <Gold.PLP.part.repulsive>
0.1367

> <Gold.PLP.ligand.clash>
0.0000

> <Gold.PLP.ligand.torsion>
2.2508

> <Gold.PLP.Chemscore.Hbond>
2.0000

> <Gold.PLP.Chemscore.CHOScore>
0.0000

> <Gold.PLP.Chemscore.Metal>
0.0000

> <Gold.Chemscore.Hbonds>
donor molecule, donor type, donor heavy atom, donor atom, acceptor molecule, acceptor atom, score
      P1  H  6896  6908       L1    12  0.95
      P1  H  7989  7998       L1    20  1.00

> <Gold.PLP.Chemscore.Internal.Correction>
1.9730

> <Gold.Rescore>
     Score         DG    S(hbond)    S(metal)    S(lipo)     H(rot)  DE(clash)    DE(int)     intcor
     10.90     -15.73       1.77        0.00      87.83       2.32       0.10       4.73       ----

> <Gold.Chemscore.Fitness>
10.8996

> <Gold.Chemscore.DG>
-15.7277

> <Gold.Chemscore.ZeroCoef>
-5.4800

> <Gold.Chemscore.Hbond>
1.7669

> <Gold.Chemscore.Metal>
0.0000

> <Gold.Chemscore.Lipo>
87.8300

> <Gold.Chemscore.Internal_Hbond>
0.0000

> <Gold.Chemscore.DEClash>
0.1028

> <Gold.Chemscore.DEInternal>
4.7252

> <Gold.Chemscore.Rot>
2.3163

> <Gold.Chemscore.Internal.Correction>
   9.000000E+99

> <Gold.Chemscore.Hbonds>
donor molecule, donor type, donor heavy atom, donor atom, acceptor molecule, acceptor atom, score
      P1  H  6896  6908       L1    12  0.22
      P1  H  7989  7998       L1    20  0.60

> <Gold.Chemscore.Hbond.Weighted>
-5.9013

> <Gold.Chemscore.Metal.Weighted>
-0.0000

> <Gold.Chemscore.Lipo.Weighted>
-10.2761

> <Gold.Chemscore.Internal_Hbond.Weighted>
0.0000

> <Gold.Chemscore.DEClash.Weighted>
0.1028

> <Gold.Chemscore.DEInternal.Weighted>
4.7252

> <Gold.Chemscore.Rot.Weighted>
5.9297

> <Gold.Chemscore.Internal.Correction.Weighted>
   9.000000E+99

> <Gold.Protein.RotatedTorsions>
[ 6907 6896 6895 6894 ] final -173.00 input  -60.11 | X-H torsion
[ 7974 7965 7964 7962 ] final  159.54 input  175.53 | X-H torsion
[ 8008 7997 7996 7995 ] final -164.15 input   59.86 | X-H torsion
[ 10167 10162 10161 10158 ] final   81.38 input  -65.29 | X-H torsion
[ 10718 10713 10712 10709 ] final -109.41 input   66.30 | X-H torsion
[ 10763 10752 10751 10750 ] final -113.34 input  -60.55 | X-H torsion
[ 11005 11000 10999 10996 ] final  -46.11 input  -57.11 | X-H torsion

> <Gold.Protein.ActiveResidues>
 VAL166  LYS551  ARG553  GLY616  TRP617  ASP618  TYR619  PRO620  LYS621  CYS622 
 ASP623  PHE694  ASN695  SER759  ASP760  ASP761  ALA762  ILE779  LEU786  VAL792 
 PHE793  MET794  SER795  GLU796  ALA797  LYS798  CYS799  TRP800  GLU811  SER814 

> <Gold.Protein.RotatedAtoms>
  151.5490  133.3420  159.2949 H   0  0  0  0  0  0  0  0  0  0  0  0  # atno 6907 bound_to 6896
  150.8490  134.7811  159.7004 H   0  0  0  0  0  0  0  0  0  0  0  0  # atno 6908 bound_to 6896
  152.4540  134.5339  159.9871 H   0  0  0  0  0  0  0  0  0  0  0  0  # atno 6909 bound_to 6896
  144.7785  139.7631  143.6269 H   0  0  0  0  0  0  0  0  0  0  0  0  # atno 7974 bound_to 7965
  155.8315  140.0934  157.1789 H   0  0  0  0  0  0  0  0  0  0  0  0  # atno 8008 bound_to 7997
  154.3980  140.1418  156.3681 H   0  0  0  0  0  0  0  0  0  0  0  0  # atno 8009 bound_to 7997
  155.8160  140.3448  155.5488 H   0  0  0  0  0  0  0  0  0  0  0  0  # atno 8010 bound_to 7997
  139.9399  144.6097  150.8262 H   0  0  0  0  0  0  0  0  0  0  0  0  # atno 10167 bound_to 10162
  156.0536  130.5762  150.8096 H   0  0  0  0  0  0  0  0  0  0  0  0  # atno 10718 bound_to 10713
  154.8391  135.4458  154.1334 H   0  0  0  0  0  0  0  0  0  0  0  0  # atno 10763 bound_to 10752
  153.2538  135.6929  153.7657 H   0  0  0  0  0  0  0  0  0  0  0  0  # atno 10764 bound_to 10752
  153.6959  135.3379  155.3189 H   0  0  0  0  0  0  0  0  0  0  0  0  # atno 10765 bound_to 10752
  141.0558  133.6726  156.3108 H   0  0  0  0  0  0  0  0  0  0  0  0  # atno 11005 bound_to 11000
  146.1979  139.5256  142.9762 LP  0  0  0  0  0  0  0  0  0  0  0  0  # atno 17320 bound_to 7965
  145.6118  141.0338  143.1962 LP  0  0  0  0  0  0  0  0  0  0  0  0  # atno 17321 bound_to 7965
  140.7614  143.3173  151.2703 LP  0  0  0  0  0  0  0  0  0  0  0  0  # atno 17342 bound_to 10162
  139.6713  144.0015  152.2755 LP  0  0  0  0  0  0  0  0  0  0  0  0  # atno 17343 bound_to 10162
  157.5485  131.0943  150.9729 LP  0  0  0  0  0  0  0  0  0  0  0  0  # atno 17370 bound_to 10713
  156.9994  130.5594  149.5310 LP  0  0  0  0  0  0  0  0  0  0  0  0  # atno 17371 bound_to 10713
  140.5967  134.5596  157.5510 LP  0  0  0  0  0  0  0  0  0  0  0  0  # atno 17394 bound_to 11000
  139.9389  134.7824  156.0731 LP  0  0  0  0  0  0  0  0  0  0  0  0  # atno 17395 bound_to 11000

$$$$
