AV-unprocessed.smi:2125|AV-procd|sdf|8674|dock6
  -GOLD-   2272011423D 1   1.00000     0.00000
 Structure written by MMmdl.
 32 33  0  0  0  0  0  0  0  0  1 V2000
  151.4426  137.8059  154.0905 C   0  0  0  0  0  0  0  0  0  0  0  0
  151.3810  138.3319  155.4381 N   0  0  0  0  0  0  0  0  0  0  0  0
  151.8269  137.5291  156.5162 C   0  0  0  0  0  0  0  0  0  0  0  0
  152.2711  136.3915  156.3597 O   0  0  0  0  0  0  0  0  0  0  0  0
  151.7158  138.1626  157.8248 C   0  0  0  0  0  0  0  0  0  0  0  0
  151.2233  139.4143  157.9513 C   0  0  0  0  0  0  0  0  0  0  0  0
  150.7950  140.1770  156.8801 N   0  0  0  0  0  0  0  0  0  0  0  0
  150.2617  141.5254  157.1133 C   0  0  0  0  0  0  0  0  0  0  0  0
  151.2973  142.4894  157.7087 C   0  0  0  0  0  0  0  0  0  0  0  0
  152.1125  142.1009  158.5465 O   0  0  0  0  0  0  0  0  0  0  0  0
  151.2635  143.7474  157.2447 N   0  0  0  0  0  0  0  0  0  0  0  0
  152.1665  144.8139  157.6570 C   0  0  0  0  0  0  0  0  0  0  0  0
  152.0036  145.2685  159.0952 C   0  0  0  0  0  0  0  0  0  0  0  0
  152.2682  144.3280  160.2489 C   0  0  0  0  0  0  0  0  0  0  0  0
  150.8557  144.7544  159.9325 C   0  0  0  0  0  0  0  0  0  0  0  0
  150.8651  139.6388  155.5775 C   0  0  0  0  0  0  0  0  0  0  0  0
  150.4861  140.2942  154.6033 O   0  0  0  0  0  0  0  0  0  0  0  0
  151.8569  136.7985  154.0745 H   0  0  0  0  0  0  0  0  0  0  0  0
  152.0798  138.4762  153.5106 H   0  0  0  0  0  0  0  0  0  0  0  0
  150.4224  137.7918  153.7028 H   0  0  0  0  0  0  0  0  0  0  0  0
  152.0313  137.6218  158.7048 H   0  0  0  0  0  0  0  0  0  0  0  0
  151.1582  139.8377  158.9431 H   0  0  0  0  0  0  0  0  0  0  0  0
  149.9042  141.9493  156.1740 H   0  0  0  0  0  0  0  0  0  0  0  0
  149.3871  141.4754  157.7646 H   0  0  0  0  0  0  0  0  0  0  0  0
  150.5636  143.9817  156.5556 H   0  0  0  0  0  0  0  0  0  0  0  0
  153.1856  144.4477  157.5314 H   0  0  0  0  0  0  0  0  0  0  0  0
  152.0657  145.6692  156.9862 H   0  0  0  0  0  0  0  0  0  0  0  0
  152.2625  146.3135  159.2554 H   0  0  0  0  0  0  0  0  0  0  0  0
  152.5476  143.3026  160.0146 H   0  0  0  0  0  0  0  0  0  0  0  0
  152.7344  144.7458  161.1388 H   0  0  0  0  0  0  0  0  0  0  0  0
  150.3776  145.4555  160.6137 H   0  0  0  0  0  0  0  0  0  0  0  0
  150.1958  144.0117  159.4882 H   0  0  0  0  0  0  0  0  0  0  0  0
  1  2  1  0  0  0  0
  1 18  1  0  0  0  0
  1 19  1  0  0  0  0
  1 20  1  0  0  0  0
  2 16  1  0  0  0  0
  2  3  1  0  0  0  0
  3  4  2  0  0  0  0
  3  5  1  0  0  0  0
  5  6  2  0  0  0  0
  5 21  1  0  0  0  0
  6  7  1  0  0  0  0
  6 22  1  0  0  0  0
  7  8  1  0  0  0  0
  7 16  1  0  0  0  0
  8  9  1  0  0  0  0
  8 23  1  0  0  0  0
  8 24  1  0  0  0  0
  9 10  2  0  0  0  0
  9 11  1  0  0  0  0
 11 12  1  0  0  0  0
 11 25  1  0  0  0  0
 12 13  1  0  0  0  0
 12 26  1  0  0  0  0
 12 27  1  0  0  0  0
 13 15  1  0  0  0  0
 13 14  1  0  0  0  0
 13 28  1  0  0  0  0
 14 15  1  0  0  0  0
 14 29  1  0  0  0  0
 14 30  1  0  0  0  0
 15 31  1  0  0  0  0
 15 32  1  0  0  0  0
 16 17  2  0  0  0  0
M  END
> <s_m_source_file>
AV-unprocessed.smi

> <i_m_source_file_index>
2125

> <i_lp_mmshare_version>
43012

> <i_f3d_flags>
0

> <s_epik_input>
W0NIM11uMWMoPU8pW2NIXVtjSF1uKGMxPU8pW0NIMl1DKD1PKVtOSF1bQ0gyXVtDSF0yW0NIMl1bQ0gyXTI=

> <s_epik_cmdline>
J2VwaWtfcHl0aG9uJywgJy1waCcsICc3LjAnLCAnLXRuJywgJzgnLCAnLW1hJywgJzIwMCcsICctbWV0YWxfYmluZGluZycsICctaW1hZScsICc8aW5maWxlLm1hZT4nLCAnLW9tYWUnLCAnPG91dGZpbGUubWFlPic=

> <r_lp_tautomer_probability>
1

> <r_epik_Ionization_Penalty>
3.09839e-08

> <r_epik_Ionization_Penalty_Charging>
1.16822e-08

> <r_epik_Ionization_Penalty_Neutral>
1.93017e-08

> <r_epik_State_Penalty>
-0

> <r_epik_Charging_Adjusted_Penalty>
1.16822e-08

> <i_epik_Tot_Q>
0

> <i_epik_Tot_abs_Q>
0

> <r_epik_Metal_State_Penalty>
-0

> <b_epik_Metal_Only>
0

> <s_lp_Force_Field>
OPLS_2005

> <r_lp_Energy>
19.7621

> <b_lp_Chiralities_Consistent>
1

> <s_lp_Variant>
AV-unprocessed.smi:2125-1

> <Gold.Version>
5.8.1

> <Gold.Id.Protein>
6NUR|6NUR_protein|mol2

> <Gold.PLP.Fitness>
43.5683

> <Gold.PLP.PLP>
-35.4385

> <Gold.PLP.part.hbond>
-3.0000

> <Gold.PLP.part.metal>
0.0000

> <Gold.PLP.part.buried>
-6.5974

> <Gold.PLP.part.nonpolar>
-26.6421

> <Gold.PLP.part.repulsive>
0.0988

> <Gold.PLP.ligand.clash>
0.0000

> <Gold.PLP.ligand.torsion>
0.7056

> <Gold.PLP.Chemscore.Hbond>
3.0000

> <Gold.PLP.Chemscore.CHOScore>
0.0000

> <Gold.PLP.Chemscore.Metal>
0.0000

> <Gold.Chemscore.Hbonds>
donor molecule, donor type, donor heavy atom, donor atom, acceptor molecule, acceptor atom, score
      L1  H    11    25       P1  8028  1.00
      P1  H  7989  7998       L1    17  1.00
      P1  H 10752 10763       L1     4  1.00

> <Gold.PLP.Chemscore.Internal.Correction>
0.5411

> <Gold.Rescore>
     Score         DG    S(hbond)    S(metal)    S(lipo)     H(rot)  DE(clash)    DE(int)     intcor
     15.62     -19.08       2.99        0.00      70.56       1.81       0.04       3.42       ----

> <Gold.Chemscore.Fitness>
15.6218

> <Gold.Chemscore.DG>
-19.0764

> <Gold.Chemscore.ZeroCoef>
-5.4800

> <Gold.Chemscore.Hbond>
2.9873

> <Gold.Chemscore.Metal>
0.0000

> <Gold.Chemscore.Lipo>
70.5612

> <Gold.Chemscore.Internal_Hbond>
0.0000

> <Gold.Chemscore.DEClash>
0.0396

> <Gold.Chemscore.DEInternal>
3.4150

> <Gold.Chemscore.Rot>
1.8112

> <Gold.Chemscore.Internal.Correction>
   9.000000E+99

> <Gold.Chemscore.Hbonds>
donor molecule, donor type, donor heavy atom, donor atom, acceptor molecule, acceptor atom, score
      L1  H    11    25       P1  8028  0.94
      P1  H  7989  7998       L1    17  0.96
      P1  H 10752 10763       L1     4  1.00

> <Gold.Chemscore.Hbond.Weighted>
-9.9775

> <Gold.Chemscore.Metal.Weighted>
-0.0000

> <Gold.Chemscore.Lipo.Weighted>
-8.2557

> <Gold.Chemscore.Internal_Hbond.Weighted>
0.0000

> <Gold.Chemscore.DEClash.Weighted>
0.0396

> <Gold.Chemscore.DEInternal.Weighted>
3.4150

> <Gold.Chemscore.Rot.Weighted>
4.6367

> <Gold.Chemscore.Internal.Correction.Weighted>
   9.000000E+99

> <Gold.Protein.RotatedTorsions>
[ 6907 6896 6895 6894 ] final  118.62 input  -60.11 | X-H torsion
[ 7974 7965 7964 7962 ] final   -9.93 input  175.53 | X-H torsion
[ 8008 7997 7996 7995 ] final   19.60 input   59.86 | X-H torsion
[ 10167 10162 10161 10158 ] final  164.26 input  -65.29 | X-H torsion
[ 10718 10713 10712 10709 ] final    6.98 input   66.30 | X-H torsion
[ 10763 10752 10751 10750 ] final   91.24 input  -60.55 | X-H torsion
[ 11005 11000 10999 10996 ] final   34.26 input  -57.11 | X-H torsion

> <Gold.Protein.ActiveResidues>
 VAL166  LYS551  ARG553  GLY616  TRP617  ASP618  TYR619  PRO620  LYS621  CYS622 
 ASP623  PHE694  ASN695  SER759  ASP760  ASP761  ALA762  ILE779  LEU786  VAL792 
 PHE793  MET794  SER795  GLU796  ALA797  LYS798  CYS799  TRP800  GLU811  SER814 

> <Gold.Protein.RotatedAtoms>
  152.4530  133.7667  159.6776 H   0  0  0  0  0  0  0  0  0  0  0  0  # atno 6907 bound_to 6896
  150.8448  133.7869  159.3053 H   0  0  0  0  0  0  0  0  0  0  0  0  # atno 6908 bound_to 6896
  151.5482  135.1070  159.9995 H   0  0  0  0  0  0  0  0  0  0  0  0  # atno 6909 bound_to 6896
  146.2236  140.2689  142.8355 H   0  0  0  0  0  0  0  0  0  0  0  0  # atno 7974 bound_to 7965
  154.9231  140.3030  155.5206 H   0  0  0  0  0  0  0  0  0  0  0  0  # atno 8008 bound_to 7997
  156.3008  140.2368  156.4219 H   0  0  0  0  0  0  0  0  0  0  0  0  # atno 8009 bound_to 7997
  154.8311  140.0418  157.1466 H   0  0  0  0  0  0  0  0  0  0  0  0  # atno 8010 bound_to 7997
  139.4886  144.4253  151.9137 H   0  0  0  0  0  0  0  0  0  0  0  0  # atno 10167 bound_to 10162
  156.9301  130.5823  149.5649 H   0  0  0  0  0  0  0  0  0  0  0  0  # atno 10718 bound_to 10713
  153.2061  135.4405  155.0325 H   0  0  0  0  0  0  0  0  0  0  0  0  # atno 10763 bound_to 10752
  154.8174  135.3322  154.7138 H   0  0  0  0  0  0  0  0  0  0  0  0  # atno 10764 bound_to 10752
  153.7579  135.6993  153.4987 H   0  0  0  0  0  0  0  0  0  0  0  0  # atno 10765 bound_to 10752
  140.2547  134.3262  155.7878 H   0  0  0  0  0  0  0  0  0  0  0  0  # atno 11005 bound_to 11000
  144.9283  140.7946  143.5705 LP  0  0  0  0  0  0  0  0  0  0  0  0  # atno 17320 bound_to 7965
  145.2631  139.1984  143.4881 LP  0  0  0  0  0  0  0  0  0  0  0  0  # atno 17321 bound_to 7965
  140.3698  144.2869  150.5921 LP  0  0  0  0  0  0  0  0  0  0  0  0  # atno 17342 bound_to 10162
  140.5329  143.2239  151.8210 LP  0  0  0  0  0  0  0  0  0  0  0  0  # atno 17343 bound_to 10162
  156.0451  130.5528  150.8861 LP  0  0  0  0  0  0  0  0  0  0  0  0  # atno 17370 bound_to 10713
  157.5852  131.0945  150.9208 LP  0  0  0  0  0  0  0  0  0  0  0  0  # atno 17371 bound_to 10713
  141.2197  133.7374  156.9093 LP  0  0  0  0  0  0  0  0  0  0  0  0  # atno 17394 bound_to 11000
  140.1523  134.9222  157.2609 LP  0  0  0  0  0  0  0  0  0  0  0  0  # atno 17395 bound_to 11000

$$$$
