AV-unprocessed.smi:21|AV-procd|sdf|163|dock6
  -GOLD-   2262015403D 1   1.00000     0.00000
 Structure written by MMmdl.
 61 64  0  0  0  0  0  0  0  0  1 V2000
  152.0056  144.1911  161.6473 C   0  0  0  0  0  0  0  0  0  0  0  0
  152.4211  143.1707  160.7535 O   0  0  0  0  0  0  0  0  0  0  0  0
  151.9984  143.3849  159.4141 C   0  0  1  0  0  0  0  0  0  0  0  0
  152.3708  142.1801  158.5353 C   0  0  0  0  0  0  0  0  0  0  0  0
  151.0239  141.6252  158.0442 C   0  0  2  0  0  0  0  0  0  0  0  0
  151.1116  140.9023  156.6827 C   0  0  0  0  0  0  0  0  0  0  0  0
  150.0794  139.8729  156.5276 N   0  0  0  0  0  0  0  0  0  0  0  0
  149.0039  140.1328  155.5785 C   0  0  0  0  0  0  0  0  0  0  0  0
  149.9818  138.8349  157.4096 C   0  0  0  0  0  0  0  0  0  0  0  0
  151.1267  138.2177  157.8085 N   0  0  0  0  0  0  0  0  0  0  0  0
  151.0985  137.1975  158.6685 C   0  0  0  0  0  0  0  0  0  0  0  0
  150.0435  136.6300  159.2511 N   0  0  0  0  0  0  0  0  0  0  0  0
  148.8852  137.2323  158.8612 C   0  0  0  0  0  0  0  0  0  0  0  0
  148.7600  138.3282  157.9558 C   0  0  0  0  0  0  0  0  0  0  0  0
  147.4135  138.6583  157.8245 N   0  0  0  0  0  0  0  0  0  0  0  0
  146.7877  137.8134  158.5960 C   0  0  0  0  0  0  0  0  0  0  0  0
  147.5967  136.9238  159.2610 N   0  0  0  0  0  0  0  0  0  0  0  0
  147.1668  135.8806  160.1767 C   0  0  0  0  0  0  0  0  0  0  0  0
  146.3323  136.4124  161.3695 C   0  0  2  0  0  0  0  0  0  0  0  0
  147.1648  136.4177  162.6778 C   0  0  0  0  0  0  0  0  0  0  0  0
  148.4690  136.9166  162.4674 O   0  0  0  0  0  0  0  0  0  0  0  0
  145.0178  135.5953  161.5089 C   0  0  1  0  0  0  0  0  0  0  0  0
  145.1742  134.1679  162.0057 C   0  0  0  0  0  0  0  0  0  0  0  0
  143.7626  133.8255  162.4658 C   0  0  0  0  0  0  0  0  0  0  0  0
  143.2193  135.0431  162.9595 O   0  0  0  0  0  0  0  0  0  0  0  0
  144.0346  136.1382  162.5542 C   0  0  0  0  0  0  0  0  0  0  0  0
  150.1282  142.7706  158.0658 N   0  0  0  0  0  0  0  0  0  0  0  0
  148.7160  142.4163  158.0089 C   0  0  0  0  0  0  0  0  0  0  0  0
  150.4695  143.4531  159.2981 C   0  0  0  0  0  0  0  0  0  0  0  0
  152.4601  144.2838  159.0011 H   0  0  0  0  0  0  0  0  0  0  0  0
  150.6747  140.9103  158.7918 H   0  0  0  0  0  0  0  0  0  0  0  0
  152.3728  143.9691  162.6492 H   0  0  0  0  0  0  0  0  0  0  0  0
  150.9188  144.2622  161.6991 H   0  0  0  0  0  0  0  0  0  0  0  0
  152.4060  145.1615  161.3515 H   0  0  0  0  0  0  0  0  0  0  0  0
  152.9780  142.5219  157.6967 H   0  0  0  0  0  0  0  0  0  0  0  0
  152.9465  141.4253  159.0724 H   0  0  0  0  0  0  0  0  0  0  0  0
  150.9631  141.6215  155.8778 H   0  0  0  0  0  0  0  0  0  0  0  0
  152.1179  140.5146  156.5260 H   0  0  0  0  0  0  0  0  0  0  0  0
  148.7727  139.2387  154.9989 H   0  0  0  0  0  0  0  0  0  0  0  0
  149.2863  140.9157  154.8744 H   0  0  0  0  0  0  0  0  0  0  0  0
  148.1039  140.4637  156.0977 H   0  0  0  0  0  0  0  0  0  0  0  0
  152.0592  136.7767  158.9259 H   0  0  0  0  0  0  0  0  0  0  0  0
  145.7129  137.8180  158.7051 H   0  0  0  0  0  0  0  0  0  0  0  0
  146.5934  135.1617  159.5917 H   0  0  0  0  0  0  0  0  0  0  0  0
  148.0455  135.3471  160.5408 H   0  0  0  0  0  0  0  0  0  0  0  0
  146.0677  137.4455  161.1384 H   0  0  0  0  0  0  0  0  0  0  0  0
  146.6674  137.0033  163.4517 H   0  0  0  0  0  0  0  0  0  0  0  0
  147.2908  135.4134  163.0792 H   0  0  0  0  0  0  0  0  0  0  0  0
  149.0811  136.3616  162.9265 H   0  0  0  0  0  0  0  0  0  0  0  0
  144.5099  135.5658  160.5432 H   0  0  0  0  0  0  0  0  0  0  0  0
  145.5332  133.4803  161.2398 H   0  0  0  0  0  0  0  0  0  0  0  0
  145.8623  134.1307  162.8514 H   0  0  0  0  0  0  0  0  0  0  0  0
  143.1580  133.4916  161.6217 H   0  0  0  0  0  0  0  0  0  0  0  0
  143.7478  133.0431  163.2248 H   0  0  0  0  0  0  0  0  0  0  0  0
  144.5674  136.5071  163.4317 H   0  0  0  0  0  0  0  0  0  0  0  0
  143.4214  136.9518  162.1659 H   0  0  0  0  0  0  0  0  0  0  0  0
  148.0941  143.3081  158.0918 H   0  0  0  0  0  0  0  0  0  0  0  0
  148.4442  141.7379  158.8187 H   0  0  0  0  0  0  0  0  0  0  0  0
  148.4706  141.9333  157.0634 H   0  0  0  0  0  0  0  0  0  0  0  0
  150.0197  142.9307  160.1445 H   0  0  0  0  0  0  0  0  0  0  0  0
  150.0970  144.4781  159.3067 H   0  0  0  0  0  0  0  0  0  0  0  0
  1  2  1  0  0  0  0
  1 32  1  0  0  0  0
  1 33  1  0  0  0  0
  1 34  1  0  0  0  0
  2  3  1  0  0  0  0
  3 30  1  0  0  0  0
  3 29  1  0  0  0  0
  3  4  1  0  0  0  0
  4  5  1  0  0  0  0
  4 35  1  0  0  0  0
  4 36  1  0  0  0  0
  5 31  1  0  0  0  0
  5  6  1  0  0  0  0
  5 27  1  0  0  0  0
  6  7  1  0  0  0  0
  6 37  1  0  0  0  0
  6 38  1  0  0  0  0
  7  8  1  0  0  0  0
  7  9  1  0  0  0  0
  8 39  1  0  0  0  0
  8 40  1  0  0  0  0
  8 41  1  0  0  0  0
  9 14  1  0  0  0  0
  9 10  2  0  0  0  0
 10 11  1  0  0  0  0
 11 12  2  0  0  0  0
 11 42  1  0  0  0  0
 12 13  1  0  0  0  0
 13 17  1  0  0  0  0
 13 14  2  0  0  0  0
 14 15  1  0  0  0  0
 15 16  2  0  0  0  0
 16 17  1  0  0  0  0
 16 43  1  0  0  0  0
 17 18  1  0  0  0  0
 18 19  1  0  0  0  0
 18 44  1  0  0  0  0
 18 45  1  0  0  0  0
 19 20  1  0  0  0  0
 19 22  1  0  0  0  0
 19 46  1  0  0  0  0
 20 21  1  0  0  0  0
 20 47  1  0  0  0  0
 20 48  1  0  0  0  0
 21 49  1  0  0  0  0
 22 26  1  0  0  0  0
 22 23  1  0  0  0  0
 22 50  1  0  0  0  0
 23 24  1  0  0  0  0
 23 51  1  0  0  0  0
 23 52  1  0  0  0  0
 24 25  1  0  0  0  0
 24 53  1  0  0  0  0
 24 54  1  0  0  0  0
 25 26  1  0  0  0  0
 26 55  1  0  0  0  0
 26 56  1  0  0  0  0
 27 28  1  0  0  0  0
 27 29  1  0  0  0  0
 28 57  1  0  0  0  0
 28 58  1  0  0  0  0
 28 59  1  0  0  0  0
 29 60  1  0  0  0  0
 29 61  1  0  0  0  0
M  END
> <s_m_source_file>
AV-unprocessed.smi

> <i_m_source_file_index>
21

> <i_lp_mmshare_version>
43012

> <i_f3d_flags>
0

> <s_epik_input>
W0NIM11PW0NASF0xW0NIMl1bQ0BIXShOKFtDSDNdKVtDSDJdMSlbQ0gyXU4oW0NIM10pYyhuW2NIXW4yKWMoYzIzKW5bY0hdbjNbQ0gyXVtDQEhdKFtDSDJdW09IXSlbQ0BASF00W0NIMl1bQ0gyXU9bQ0gyXTQ=

> <s_epik_cmdline>
J2VwaWtfcHl0aG9uJywgJy1waCcsICc3LjAnLCAnLXRuJywgJzgnLCAnLW1hJywgJzIwMCcsICctbWV0YWxfYmluZGluZycsICctaW1hZScsICc8aW5maWxlLm1hZT4nLCAnLW9tYWUnLCAnPG91dGZpbGUubWFlPic=

> <r_lp_tautomer_probability>
1

> <r_epik_Ionization_Penalty>
2.17574

> <r_epik_Ionization_Penalty_Charging>
0

> <r_epik_Ionization_Penalty_Neutral>
2.17574

> <r_epik_State_Penalty>
2.31336

> <r_epik_Charging_Adjusted_Penalty>
2.31336

> <i_epik_Tot_Q>
0

> <i_epik_Tot_abs_Q>
0

> <r_epik_Metal_State_Penalty>
2.31025

> <b_epik_Metal_Only>
0

> <s_lp_Force_Field>
OPLS_2005

> <r_lp_Energy>
69.6605

> <b_lp_Chiralities_Consistent>
1

> <s_lp_Variant>
AV-unprocessed.smi:21-43

> <Gold.Version>
5.8.1

> <Gold.Id.Protein>
6NUR|6NUR_protein|mol2

> <Gold.PLP.Fitness>
43.4789

> <Gold.PLP.PLP>
-40.3794

> <Gold.PLP.part.hbond>
-1.8220

> <Gold.PLP.part.metal>
0.0000

> <Gold.PLP.part.buried>
-7.6914

> <Gold.PLP.part.nonpolar>
-31.0217

> <Gold.PLP.part.repulsive>
0.2723

> <Gold.PLP.ligand.clash>
0.0000

> <Gold.PLP.ligand.torsion>
1.7689

> <Gold.PLP.Chemscore.Hbond>
1.9913

> <Gold.PLP.Chemscore.CHOScore>
0.0000

> <Gold.PLP.Chemscore.Metal>
0.0000

> <Gold.Chemscore.Hbonds>
donor molecule, donor type, donor heavy atom, donor atom, acceptor molecule, acceptor atom, score
      P1  H  6896  6907       L1    12  0.99
      P1  H  6931  6943       L1    21  1.00

> <Gold.PLP.Chemscore.Internal.Correction>
0.6636

> <Gold.Rescore>
     Score         DG    S(hbond)    S(metal)    S(lipo)     H(rot)  DE(clash)    DE(int)     intcor
     12.97     -14.87       1.52        0.00     102.49       3.00       0.07       1.83       ----

> <Gold.Chemscore.Fitness>
12.9697

> <Gold.Chemscore.DG>
-14.8667

> <Gold.Chemscore.ZeroCoef>
-5.4800

> <Gold.Chemscore.Hbond>
1.5220

> <Gold.Chemscore.Metal>
0.0000

> <Gold.Chemscore.Lipo>
102.4892

> <Gold.Chemscore.Internal_Hbond>
0.0000

> <Gold.Chemscore.DEClash>
0.0677

> <Gold.Chemscore.DEInternal>
1.8294

> <Gold.Chemscore.Rot>
3.0031

> <Gold.Chemscore.Internal.Correction>
   9.000000E+99

> <Gold.Chemscore.Hbonds>
donor molecule, donor type, donor heavy atom, donor atom, acceptor molecule, acceptor atom, score
      P1  H  6896  6907       L1    12  0.26
      P1  H  6931  6943       L1    21  0.83

> <Gold.Chemscore.Hbond.Weighted>
-5.0835

> <Gold.Chemscore.Metal.Weighted>
-0.0000

> <Gold.Chemscore.Lipo.Weighted>
-11.9912

> <Gold.Chemscore.Internal_Hbond.Weighted>
0.0000

> <Gold.Chemscore.DEClash.Weighted>
0.0677

> <Gold.Chemscore.DEInternal.Weighted>
1.8294

> <Gold.Chemscore.Rot.Weighted>
7.6880

> <Gold.Chemscore.Internal.Correction.Weighted>
   9.000000E+99

> <Gold.Protein.RotatedTorsions>
[ 6907 6896 6895 6894 ] final  -58.30 input  -60.11 | X-H torsion
[ 7974 7965 7964 7962 ] final -178.72 input  175.53 | X-H torsion
[ 8008 7997 7996 7995 ] final   55.28 input   59.86 | X-H torsion
[ 10167 10162 10161 10158 ] final  -75.63 input  -65.29 | X-H torsion
[ 10718 10713 10712 10709 ] final -172.92 input   66.30 | X-H torsion
[ 10763 10752 10751 10750 ] final -105.01 input  -60.55 | X-H torsion
[ 11005 11000 10999 10996 ] final   24.17 input  -57.11 | X-H torsion

> <Gold.Protein.ActiveResidues>
 VAL166  LYS551  ARG553  GLY616  TRP617  ASP618  TYR619  PRO620  LYS621  CYS622 
 ASP623  PHE694  ASN695  SER759  ASP760  ASP761  ALA762  ILE779  LEU786  VAL792 
 PHE793  MET794  SER795  GLU796  ALA797  LYS798  CYS799  TRP800  GLU811  SER814 

> <Gold.Protein.RotatedAtoms>
  150.8017  134.7116  159.6606 H   0  0  0  0  0  0  0  0  0  0  0  0  # atno 6907 bound_to 6896
  152.4135  134.6080  160.0027 H   0  0  0  0  0  0  0  0  0  0  0  0  # atno 6908 bound_to 6896
  151.6316  133.3294  159.3146 H   0  0  0  0  0  0  0  0  0  0  0  0  # atno 6909 bound_to 6896
  144.7132  140.0826  143.6425 H   0  0  0  0  0  0  0  0  0  0  0  0  # atno 7974 bound_to 7965
  155.4985  140.3473  155.4367 H   0  0  0  0  0  0  0  0  0  0  0  0  # atno 8008 bound_to 7997
  156.0930  140.1415  156.9595 H   0  0  0  0  0  0  0  0  0  0  0  0  # atno 8009 bound_to 7997
  154.4646  140.0922  156.6963 H   0  0  0  0  0  0  0  0  0  0  0  0  # atno 8010 bound_to 7997
  140.4926  143.2377  151.7883 H   0  0  0  0  0  0  0  0  0  0  0  0  # atno 10167 bound_to 10162
  156.7627  130.9419  151.3118 H   0  0  0  0  0  0  0  0  0  0  0  0  # atno 10718 bound_to 10713
  154.7918  135.4765  154.0069 H   0  0  0  0  0  0  0  0  0  0  0  0  # atno 10763 bound_to 10752
  153.1642  135.6814  153.8706 H   0  0  0  0  0  0  0  0  0  0  0  0  # atno 10764 bound_to 10752
  153.8309  135.3192  155.3396 H   0  0  0  0  0  0  0  0  0  0  0  0  # atno 10765 bound_to 10752
  140.3616  134.2119  155.7672 H   0  0  0  0  0  0  0  0  0  0  0  0  # atno 11005 bound_to 11000
  145.9689  139.2855  143.1110 LP  0  0  0  0  0  0  0  0  0  0  0  0  # atno 17320 bound_to 7965
  145.9138  140.9162  143.0440 LP  0  0  0  0  0  0  0  0  0  0  0  0  # atno 17321 bound_to 7965
  139.4854  144.4629  151.9519 LP  0  0  0  0  0  0  0  0  0  0  0  0  # atno 17342 bound_to 10162
  140.3716  144.2848  150.5919 LP  0  0  0  0  0  0  0  0  0  0  0  0  # atno 17343 bound_to 10162
  157.6727  130.9066  150.0078 LP  0  0  0  0  0  0  0  0  0  0  0  0  # atno 17370 bound_to 10713
  156.1329  130.3643  149.9704 LP  0  0  0  0  0  0  0  0  0  0  0  0  # atno 17371 bound_to 10713
  141.1982  133.8041  157.0592 LP  0  0  0  0  0  0  0  0  0  0  0  0  # atno 17394 bound_to 11000
  140.0622  134.9748  157.1324 LP  0  0  0  0  0  0  0  0  0  0  0  0  # atno 17395 bound_to 11000

$$$$
