AV-unprocessed.smi:515|AV-procd|sdf|2781|dock3
  -GOLD-   2262023253D 1   1.00000     0.00000
 Structure written by MMmdl.
 48 50  0  0  0  0  0  0  0  0  2 V2000
  148.5745  135.8341  158.2245 C   0  0  0  0  0  0  0  0  0  0  0  0
  148.6970  134.5191  157.4520 C   0  0  0  0  0  0  0  0  0  0  0  0
  150.0673  134.1729  157.3617 O   0  0  0  0  0  0  0  0  0  0  0  0
  150.2832  132.9179  156.7385 C   0  0  0  0  0  0  0  0  0  0  0  0
  150.2367  133.0861  155.2129 C   0  0  0  0  0  0  0  0  0  0  0  0
  149.8042  131.8657  154.5393 N   0  0  0  0  0  0  0  0  0  0  0  0
  148.8522  131.7417  153.5766 C   0  0  0  0  0  0  0  0  0  0  0  0
  148.0677  132.8991  153.0259 C   0  0  0  0  0  0  0  0  0  0  0  0
  147.2093  132.3071  151.9687 N   0  3  0  0  0  0  0  0  0  0  0  0
  146.1150  131.4483  152.4895 C   0  0  0  0  0  0  0  0  0  0  0  0
  145.3033  130.8506  151.3283 C   0  0  0  0  0  0  0  0  0  0  0  0
  144.7962  131.8976  150.5104 O   0  0  0  0  0  0  0  0  0  0  0  0
  145.8390  132.6726  149.9323 C   0  0  0  0  0  0  0  0  0  0  0  0
  146.6682  133.3330  151.0467 C   0  0  0  0  0  0  0  0  0  0  0  0
  148.6710  130.4892  153.1446 N   0  0  0  0  0  0  0  0  0  0  0  0
  149.5866  129.7584  153.8869 C   0  0  0  0  0  0  0  0  0  0  0  0
  150.2807  130.5673  154.7262 C   0  0  0  0  0  0  0  0  0  0  0  0
  151.3316  130.0592  155.6201 C   0  0  0  0  0  0  0  0  0  0  0  0
  151.9774  130.7729  156.3840 O   0  0  0  0  0  0  0  0  0  0  0  0
  151.5181  128.7213  155.5134 N   0  0  0  0  0  0  0  0  0  0  0  0
  150.8527  127.8514  154.6937 C   0  0  0  0  0  0  0  0  0  0  0  0
  151.1366  126.6539  154.7068 O   0  0  0  0  0  0  0  0  0  0  0  0
  149.8781  128.3648  153.8766 N   0  0  0  0  0  0  0  0  0  0  0  0
  149.1332  127.4785  152.9803 C   0  0  0  0  0  0  0  0  0  0  0  0
  152.2312  128.3207  156.1055 H   0  0  0  0  0  0  0  0  0  0  0  0
  147.5312  136.1362  158.3163 H   0  0  0  0  0  0  0  0  0  0  0  0
  149.1131  136.6362  157.7193 H   0  0  0  0  0  0  0  0  0  0  0  0
  148.9847  135.7365  159.2300 H   0  0  0  0  0  0  0  0  0  0  0  0
  148.1414  133.7327  157.9647 H   0  0  0  0  0  0  0  0  0  0  0  0
  148.2704  134.6311  156.4542 H   0  0  0  0  0  0  0  0  0  0  0  0
  151.2516  132.5138  157.0362 H   0  0  0  0  0  0  0  0  0  0  0  0
  149.5199  132.2080  157.0603 H   0  0  0  0  0  0  0  0  0  0  0  0
  149.5720  133.9047  154.9425 H   0  0  0  0  0  0  0  0  0  0  0  0
  151.2149  133.3804  154.8345 H   0  0  0  0  0  0  0  0  0  0  0  0
  147.4835  133.4207  153.7829 H   0  0  0  0  0  0  0  0  0  0  0  0
  148.7703  133.6161  152.5990 H   0  0  0  0  0  0  0  0  0  0  0  0
  146.5184  130.6385  153.0977 H   0  0  0  0  0  0  0  0  0  0  0  0
  145.4630  132.0387  153.1352 H   0  0  0  0  0  0  0  0  0  0  0  0
  145.9162  130.1713  150.7336 H   0  0  0  0  0  0  0  0  0  0  0  0
  144.4672  130.2682  151.7155 H   0  0  0  0  0  0  0  0  0  0  0  0
  146.4669  132.0456  149.2972 H   0  0  0  0  0  0  0  0  0  0  0  0
  145.3983  133.4353  149.2902 H   0  0  0  0  0  0  0  0  0  0  0  0
  146.0505  134.0380  151.6054 H   0  0  0  0  0  0  0  0  0  0  0  0
  147.4869  133.9027  150.6050 H   0  0  0  0  0  0  0  0  0  0  0  0
  148.6452  126.6828  153.5449 H   0  0  0  0  0  0  0  0  0  0  0  0
  149.8056  127.0185  152.2548 H   0  0  0  0  0  0  0  0  0  0  0  0
  148.3571  128.0014  152.4217 H   0  0  0  0  0  0  0  0  0  0  0  0
  147.8117  131.7156  151.4134 H   0  0  0  0  0  0  0  0  0  0  0  0
  1  2  1  0  0  0  0
  1 26  1  0  0  0  0
  1 27  1  0  0  0  0
  1 28  1  0  0  0  0
  2  3  1  0  0  0  0
  2 29  1  0  0  0  0
  2 30  1  0  0  0  0
  3  4  1  0  0  0  0
  4  5  1  0  0  0  0
  4 31  1  0  0  0  0
  4 32  1  0  0  0  0
  5  6  1  0  0  0  0
  5 33  1  0  0  0  0
  5 34  1  0  0  0  0
  6 17  1  0  0  0  0
  6  7  1  0  0  0  0
  7  8  1  0  0  0  0
  7 15  2  0  0  0  0
  8  9  1  0  0  0  0
  8 35  1  0  0  0  0
  8 36  1  0  0  0  0
  9 14  1  0  0  0  0
  9 10  1  0  0  0  0
  9 48  1  0  0  0  0
 10 11  1  0  0  0  0
 10 37  1  0  0  0  0
 10 38  1  0  0  0  0
 11 12  1  0  0  0  0
 11 39  1  0  0  0  0
 11 40  1  0  0  0  0
 12 13  1  0  0  0  0
 13 14  1  0  0  0  0
 13 41  1  0  0  0  0
 13 42  1  0  0  0  0
 14 43  1  0  0  0  0
 14 44  1  0  0  0  0
 15 16  1  0  0  0  0
 16 23  1  0  0  0  0
 16 17  2  0  0  0  0
 17 18  1  0  0  0  0
 18 19  2  0  0  0  0
 18 20  1  0  0  0  0
 20 25  1  0  0  0  0
 20 21  1  0  0  0  0
 21 22  2  0  0  0  0
 21 23  1  0  0  0  0
 23 24  1  0  0  0  0
 24 45  1  0  0  0  0
 24 46  1  0  0  0  0
 24 47  1  0  0  0  0
M  CHG  1   9   1
M  END
> <s_m_source_file>
AV-unprocessed.smi

> <i_m_source_file_index>
515

> <i_lp_mmshare_version>
43012

> <i_f3d_flags>
0

> <s_epik_input>
W0NIM11uMWMoPU8pW25IXWMoPU8pYyhjMTIpbihbQ0gyXVtDSDJdT1tDSDJdW0NIM10pYyhuMilbQ0gyXU4zW0NIMl1bQ0gyXU9bQ0gyXVtDSDJdMw==

> <s_epik_cmdline>
J2VwaWtfcHl0aG9uJywgJy1waCcsICc3LjAnLCAnLXRuJywgJzgnLCAnLW1hJywgJzIwMCcsICctbWV0YWxfYmluZGluZycsICctaW1hZScsICc8aW5maWxlLm1hZT4nLCAnLW9tYWUnLCAnPG91dGZpbGUubWFlPic=

> <r_epik_Ionization_Penalty>
1.12075

> <r_epik_Ionization_Penalty_Charging>
1.12075

> <r_epik_Ionization_Penalty_Neutral>
5.33793e-09

> <r_epik_State_Penalty>
1.17893

> <r_epik_Charging_Adjusted_Penalty>
2.29968

> <i_epik_Tot_Q>
1

> <i_epik_Tot_abs_Q>
1

> <r_epik_Metal_State_Penalty>
1.3264

> <b_epik_Metal_Only>
0

> <s_lp_Force_Field>
OPLS_2005

> <r_lp_Energy>
34.9817

> <b_lp_Chiralities_Consistent>
1

> <s_lp_Variant>
AV-unprocessed.smi:515-2

> <Gold.Version>
5.8.1

> <Gold.Id.Protein>
6NUR|6NUR_protein|mol2

> <Gold.PLP.Fitness>
40.6817

> <Gold.PLP.PLP>
-35.9600

> <Gold.PLP.part.hbond>
-2.0000

> <Gold.PLP.part.metal>
0.0000

> <Gold.PLP.part.buried>
-5.1403

> <Gold.PLP.part.nonpolar>
-30.1623

> <Gold.PLP.part.repulsive>
1.4145

> <Gold.PLP.ligand.clash>
0.0000

> <Gold.PLP.ligand.torsion>
0.4981

> <Gold.PLP.Chemscore.Hbond>
1.8800

> <Gold.PLP.Chemscore.CHOScore>
0.0000

> <Gold.PLP.Chemscore.Metal>
0.0000

> <Gold.Chemscore.Hbonds>
donor molecule, donor type, donor heavy atom, donor atom, acceptor molecule, acceptor atom, score
      L1  H     9    48       P1 10747  1.00
      P1  H  6896  6908       L1     3  0.83

> <Gold.PLP.Chemscore.Internal.Correction>
0.0780

> <Gold.Rescore>
     Score         DG    S(hbond)    S(metal)    S(lipo)     H(rot)  DE(clash)    DE(int)     intcor
     11.99     -13.82       1.97        0.00      63.65       2.22       0.00       1.83       ----

> <Gold.Chemscore.Fitness>
11.9887

> <Gold.Chemscore.DG>
-13.8247

> <Gold.Chemscore.ZeroCoef>
-5.4800

> <Gold.Chemscore.Hbond>
1.9688

> <Gold.Chemscore.Metal>
0.0000

> <Gold.Chemscore.Lipo>
63.6527

> <Gold.Chemscore.Internal_Hbond>
0.0000

> <Gold.Chemscore.DEClash>
0.0013

> <Gold.Chemscore.DEInternal>
1.8347

> <Gold.Chemscore.Rot>
2.2182

> <Gold.Chemscore.Internal.Correction>
   9.000000E+99

> <Gold.Chemscore.Hbonds>
donor molecule, donor type, donor heavy atom, donor atom, acceptor molecule, acceptor atom, score
      L1  H     9    48       P1 10747  1.00
      P1  H  6896  6908       L1     3  0.19

> <Gold.Chemscore.Hbond.Weighted>
-6.5759

> <Gold.Chemscore.Metal.Weighted>
-0.0000

> <Gold.Chemscore.Lipo.Weighted>
-7.4474

> <Gold.Chemscore.Internal_Hbond.Weighted>
0.0000

> <Gold.Chemscore.DEClash.Weighted>
0.0013

> <Gold.Chemscore.DEInternal.Weighted>
1.8347

> <Gold.Chemscore.Rot.Weighted>
5.6785

> <Gold.Chemscore.Internal.Correction.Weighted>
   9.000000E+99

> <Gold.Protein.RotatedTorsions>
[ 6907 6896 6895 6894 ] final  122.20 input  -60.11 | X-H torsion
[ 7974 7965 7964 7962 ] final -118.38 input  175.53 | X-H torsion
[ 8008 7997 7996 7995 ] final   75.92 input   59.86 | X-H torsion
[ 10167 10162 10161 10158 ] final   45.52 input  -65.29 | X-H torsion
[ 10718 10713 10712 10709 ] final   32.60 input   66.30 | X-H torsion
[ 10763 10752 10751 10750 ] final   21.60 input  -60.55 | X-H torsion
[ 11005 11000 10999 10996 ] final   53.70 input  -57.11 | X-H torsion

> <Gold.Protein.ActiveResidues>
 VAL166  LYS551  ARG553  GLY616  TRP617  ASP618  TYR619  PRO620  LYS621  CYS622 
 ASP623  PHE694  ASN695  SER759  ASP760  ASP761  ALA762  ILE779  LEU786  VAL792 
 PHE793  MET794  SER795  GLU796  ALA797  LYS798  CYS799  TRP800  GLU811  SER814 

> <Gold.Protein.RotatedAtoms>
  152.4262  133.7199  159.6526 H   0  0  0  0  0  0  0  0  0  0  0  0  # atno 6907 bound_to 6896
  150.8138  133.8362  159.3175 H   0  0  0  0  0  0  0  0  0  0  0  0  # atno 6908 bound_to 6896
  151.6064  135.1045  160.0123 H   0  0  0  0  0  0  0  0  0  0  0  0  # atno 6909 bound_to 6896
  145.0745  140.8382  143.4076 H   0  0  0  0  0  0  0  0  0  0  0  0  # atno 7974 bound_to 7965
  155.8198  140.3470  155.5507 H   0  0  0  0  0  0  0  0  0  0  0  0  # atno 8008 bound_to 7997
  155.8353  140.0933  157.1787 H   0  0  0  0  0  0  0  0  0  0  0  0  # atno 8009 bound_to 7997
  154.4004  140.1404  156.3651 H   0  0  0  0  0  0  0  0  0  0  0  0  # atno 8010 bound_to 7997
  140.3233  144.2679  150.6179 H   0  0  0  0  0  0  0  0  0  0  0  0  # atno 10167 bound_to 10162
  157.2872  130.7285  149.6590 H   0  0  0  0  0  0  0  0  0  0  0  0  # atno 10718 bound_to 10713
  153.0982  135.6665  153.9723 H   0  0  0  0  0  0  0  0  0  0  0  0  # atno 10763 bound_to 10752
  153.9301  135.3005  155.3447 H   0  0  0  0  0  0  0  0  0  0  0  0  # atno 10764 bound_to 10752
  154.7401  135.5083  153.9183 H   0  0  0  0  0  0  0  0  0  0  0  0  # atno 10765 bound_to 10752
  140.0746  134.5423  155.9010 H   0  0  0  0  0  0  0  0  0  0  0  0  # atno 11005 bound_to 11000
  145.1253  139.2667  143.5567 LP  0  0  0  0  0  0  0  0  0  0  0  0  # atno 17320 bound_to 7965
  146.3529  140.0888  142.8613 LP  0  0  0  0  0  0  0  0  0  0  0  0  # atno 17321 bound_to 7965
  140.5464  143.2214  151.8000 LP  0  0  0  0  0  0  0  0  0  0  0  0  # atno 17342 bound_to 10162
  139.4870  144.4534  151.9627 LP  0  0  0  0  0  0  0  0  0  0  0  0  # atno 17343 bound_to 10162
  155.9666  130.4320  150.4943 LP  0  0  0  0  0  0  0  0  0  0  0  0  # atno 17370 bound_to 10713
  157.2899  131.0624  151.2141 LP  0  0  0  0  0  0  0  0  0  0  0  0  # atno 17371 bound_to 10713
  141.2024  133.6625  156.6007 LP  0  0  0  0  0  0  0  0  0  0  0  0  # atno 17394 bound_to 11000
  140.3577  134.7714  157.4512 LP  0  0  0  0  0  0  0  0  0  0  0  0  # atno 17395 bound_to 11000

$$$$
