AV-unprocessed.smi:716|AV-procd|sdf|3488|dock5
  -GOLD-   22720 0483D 1   1.00000     0.00000
 Structure written by MMmdl.
 48 50  0  0  0  0  0  0  0  0  1 V2000
  148.1799  146.1349  160.3967 C   0  0  0  0  0  0  0  0  0  0  0  0
  148.2883  145.1640  159.2191 C   0  0  0  0  0  0  0  0  0  0  0  0
  149.5084  144.4510  159.3260 O   0  0  0  0  0  0  0  0  0  0  0  0
  150.1053  144.1852  158.0664 C   0  0  2  0  0  0  0  0  0  0  0  0
  149.6912  142.8533  157.4329 C   0  0  0  0  0  0  0  0  0  0  0  0
  151.1416  142.7509  156.9586 C   0  0  2  0  0  0  0  0  0  0  0  0
  151.6433  141.3822  156.9954 N   0  0  0  0  0  0  0  0  0  0  0  0
  152.0680  140.6985  155.9236 C   0  0  0  0  0  0  0  0  0  0  0  0
  152.0896  141.1712  154.7864 O   0  0  0  0  0  0  0  0  0  0  0  0
  152.5664  139.2709  156.1893 C   0  0  0  0  0  0  0  0  0  0  0  0
  152.7388  138.9741  157.6185 N   0  0  0  0  0  0  0  0  0  0  0  0
  153.5665  139.8606  158.2878 N   0  0  0  0  0  0  0  0  0  0  0  0
  153.8135  139.7188  159.5489 C   0  0  0  0  0  0  0  0  0  0  0  0
  154.7219  140.7210  160.1967 C   0  0  0  0  0  0  0  0  0  0  0  0
  153.2137  138.6160  160.2754 C   0  0  0  0  0  0  0  0  0  0  0  0
  152.4030  137.7565  159.6220 C   0  0  0  0  0  0  0  0  0  0  0  0
  152.1122  137.9069  158.1980 C   0  0  0  0  0  0  0  0  0  0  0  0
  151.3710  137.1460  157.5761 O   0  0  0  0  0  0  0  0  0  0  0  0
  151.5482  143.6303  158.1691 C   0  0  0  0  0  0  0  0  0  0  0  0
  151.9498  142.9598  159.4898 C   0  0  0  0  0  0  0  0  0  0  0  0
  152.5821  144.0485  160.3602 C   0  0  0  0  0  0  0  0  0  0  0  0
  153.0875  145.1154  159.3829 C   0  0  0  0  0  0  0  0  0  0  0  0
  152.6843  144.6305  157.9863 C   0  0  0  0  0  0  0  0  0  0  0  0
  147.2524  146.7053  160.3471 H   0  0  0  0  0  0  0  0  0  0  0  0
  149.0089  146.8429  160.3977 H   0  0  0  0  0  0  0  0  0  0  0  0
  148.1940  145.6001  161.3467 H   0  0  0  0  0  0  0  0  0  0  0  0
  147.4426  144.4752  159.2281 H   0  0  0  0  0  0  0  0  0  0  0  0
  148.2570  145.7145  158.2778 H   0  0  0  0  0  0  0  0  0  0  0  0
  150.0320  145.0239  157.3701 H   0  0  0  0  0  0  0  0  0  0  0  0
  149.4119  142.0966  158.1686 H   0  0  0  0  0  0  0  0  0  0  0  0
  148.9533  142.9370  156.6347 H   0  0  0  0  0  0  0  0  0  0  0  0
  151.2898  143.2586  156.0021 H   0  0  0  0  0  0  0  0  0  0  0  0
  151.6645  140.9237  157.8947 H   0  0  0  0  0  0  0  0  0  0  0  0
  151.8521  138.5781  155.7406 H   0  0  0  0  0  0  0  0  0  0  0  0
  153.5075  139.1029  155.6618 H   0  0  0  0  0  0  0  0  0  0  0  0
  154.8008  140.5460  161.2700 H   0  0  0  0  0  0  0  0  0  0  0  0
  154.3494  141.7352  160.0510 H   0  0  0  0  0  0  0  0  0  0  0  0
  155.7253  140.6643  159.7740 H   0  0  0  0  0  0  0  0  0  0  0  0
  153.4186  138.4910  161.3285 H   0  0  0  0  0  0  0  0  0  0  0  0
  151.9571  136.9356  160.1638 H   0  0  0  0  0  0  0  0  0  0  0  0
  151.1122  142.4797  159.9967 H   0  0  0  0  0  0  0  0  0  0  0  0
  152.6952  142.1839  159.3127 H   0  0  0  0  0  0  0  0  0  0  0  0
  151.8319  144.4815  161.0229 H   0  0  0  0  0  0  0  0  0  0  0  0
  153.3817  143.6503  160.9854 H   0  0  0  0  0  0  0  0  0  0  0  0
  152.6131  146.0725  159.6032 H   0  0  0  0  0  0  0  0  0  0  0  0
  154.1657  145.2591  159.4564 H   0  0  0  0  0  0  0  0  0  0  0  0
  153.5362  144.1393  157.5140 H   0  0  0  0  0  0  0  0  0  0  0  0
  152.4071  145.4646  157.3411 H   0  0  0  0  0  0  0  0  0  0  0  0
  1  2  1  0  0  0  0
  1 24  1  0  0  0  0
  1 25  1  0  0  0  0
  1 26  1  0  0  0  0
  2  3  1  0  0  0  0
  2 27  1  0  0  0  0
  2 28  1  0  0  0  0
  3  4  1  0  0  0  0
  4 19  1  0  0  0  0
  4  5  1  0  0  0  0
  4 29  1  0  0  0  0
  5  6  1  0  0  0  0
  5 30  1  0  0  0  0
  5 31  1  0  0  0  0
  6  7  1  0  0  0  0
  6 19  1  0  0  0  0
  6 32  1  0  0  0  0
  7  8  1  0  0  0  0
  7 33  1  0  0  0  0
  8  9  2  0  0  0  0
  8 10  1  0  0  0  0
 10 11  1  0  0  0  0
 10 34  1  0  0  0  0
 10 35  1  0  0  0  0
 11 17  1  0  0  0  0
 11 12  1  0  0  0  0
 12 13  2  0  0  0  0
 13 14  1  0  0  0  0
 13 15  1  0  0  0  0
 14 36  1  0  0  0  0
 14 37  1  0  0  0  0
 14 38  1  0  0  0  0
 15 16  2  0  0  0  0
 15 39  1  0  0  0  0
 16 17  1  0  0  0  0
 16 40  1  0  0  0  0
 17 18  2  0  0  0  0
 19 23  1  0  0  0  0
 19 20  1  0  0  0  0
 20 21  1  0  0  0  0
 20 41  1  0  0  0  0
 20 42  1  0  0  0  0
 21 22  1  0  0  0  0
 21 43  1  0  0  0  0
 21 44  1  0  0  0  0
 22 23  1  0  0  0  0
 22 45  1  0  0  0  0
 22 46  1  0  0  0  0
 23 47  1  0  0  0  0
 23 48  1  0  0  0  0
M  END
> <s_m_source_file>
AV-unprocessed.smi

> <i_m_source_file_index>
716

> <i_lp_mmshare_version>
43012

> <i_f3d_flags>
0

> <s_epik_input>
W0NIMl0xW0NIMl1bQ0gyXVtDSDJdQzEyW0NASF0oT1tDSDJdW0NIM10pW0NIMl1bQ0BIXTJbTkhdQyg9TylbQ0gyXW4zbmMoW0NIM10pW2NIXVtjSF1jMz1P

> <s_epik_cmdline>
J2VwaWtfcHl0aG9uJywgJy1waCcsICc3LjAnLCAnLXRuJywgJzgnLCAnLW1hJywgJzIwMCcsICctbWV0YWxfYmluZGluZycsICctaW1hZScsICc8aW5maWxlLm1hZT4nLCAnLW9tYWUnLCAnPG91dGZpbGUubWFlPic=

> <r_lp_tautomer_probability>
1

> <r_epik_Ionization_Penalty>
4.75561e-08

> <r_epik_Ionization_Penalty_Charging>
2.86617e-08

> <r_epik_Ionization_Penalty_Neutral>
1.88944e-08

> <r_epik_State_Penalty>
-0

> <r_epik_Charging_Adjusted_Penalty>
2.86617e-08

> <i_epik_Tot_Q>
0

> <i_epik_Tot_abs_Q>
0

> <r_epik_Metal_State_Penalty>
-0

> <b_epik_Metal_Only>
0

> <s_lp_Force_Field>
OPLS_2005

> <r_lp_Energy>
50.3273

> <b_lp_Chiralities_Consistent>
1

> <s_lp_Variant>
AV-unprocessed.smi:716-3

> <Gold.Version>
5.8.1

> <Gold.Id.Protein>
6NUR|6NUR_protein|mol2

> <Gold.PLP.Fitness>
52.1353

> <Gold.PLP.PLP>
-44.7891

> <Gold.PLP.part.hbond>
-4.0000

> <Gold.PLP.part.metal>
0.0000

> <Gold.PLP.part.buried>
-5.5792

> <Gold.PLP.part.nonpolar>
-34.9724

> <Gold.PLP.part.repulsive>
0.2362

> <Gold.PLP.ligand.clash>
0.0000

> <Gold.PLP.ligand.torsion>
0.7727

> <Gold.PLP.Chemscore.Hbond>
2.8494

> <Gold.PLP.Chemscore.CHOScore>
0.0000

> <Gold.PLP.Chemscore.Metal>
0.0000

> <Gold.Chemscore.Hbonds>
donor molecule, donor type, donor heavy atom, donor atom, acceptor molecule, acceptor atom, score
      P1  H  7989  7998       L1     9  0.12
      P1  H  7997  8010       L1    12  0.60

> <Gold.PLP.Chemscore.Internal.Correction>
0.3436

> <Gold.Rescore>
     Score         DG    S(hbond)    S(metal)    S(lipo)     H(rot)  DE(clash)    DE(int)     intcor
     20.65     -23.37       2.99        0.00     105.42       1.73       0.42       2.30       ----

> <Gold.Chemscore.Fitness>
20.6472

> <Gold.Chemscore.DG>
-23.3662

> <Gold.Chemscore.ZeroCoef>
-5.4800

> <Gold.Chemscore.Hbond>
2.9920

> <Gold.Chemscore.Metal>
0.0000

> <Gold.Chemscore.Lipo>
105.4188

> <Gold.Chemscore.Internal_Hbond>
0.0000

> <Gold.Chemscore.DEClash>
0.4236

> <Gold.Chemscore.DEInternal>
2.2954

> <Gold.Chemscore.Rot>
1.7348

> <Gold.Chemscore.Internal.Correction>
   9.000000E+99

> <Gold.Chemscore.Hbonds>
donor molecule, donor type, donor heavy atom, donor atom, acceptor molecule, acceptor atom, score
      P1  H  7989  7998       L1     9  0.12
      P1  H  7997  8010       L1    12  0.04

> <Gold.Chemscore.Hbond.Weighted>
-9.9933

> <Gold.Chemscore.Metal.Weighted>
-0.0000

> <Gold.Chemscore.Lipo.Weighted>
-12.3340

> <Gold.Chemscore.Internal_Hbond.Weighted>
0.0000

> <Gold.Chemscore.DEClash.Weighted>
0.4236

> <Gold.Chemscore.DEInternal.Weighted>
2.2954

> <Gold.Chemscore.Rot.Weighted>
4.4411

> <Gold.Chemscore.Internal.Correction.Weighted>
   9.000000E+99

> <Gold.Protein.RotatedTorsions>
[ 6907 6896 6895 6894 ] final  106.14 input  -60.11 | X-H torsion
[ 7974 7965 7964 7962 ] final  -10.87 input  175.53 | X-H torsion
[ 8008 7997 7996 7995 ] final   40.41 input   59.86 | X-H torsion
[ 10167 10162 10161 10158 ] final -102.00 input  -65.29 | X-H torsion
[ 10718 10713 10712 10709 ] final   50.57 input   66.30 | X-H torsion
[ 10763 10752 10751 10750 ] final -108.56 input  -60.55 | X-H torsion
[ 11005 11000 10999 10996 ] final -143.30 input  -57.11 | X-H torsion

> <Gold.Protein.ActiveResidues>
 VAL166  LYS551  ARG553  GLY616  TRP617  ASP618  TYR619  PRO620  LYS621  CYS622 
 ASP623  PHE694  ASN695  SER759  ASP760  ASP761  ALA762  ILE779  LEU786  VAL792 
 PHE793  MET794  SER795  GLU796  ALA797  LYS798  CYS799  TRP800  GLU811  SER814 

> <Gold.Protein.RotatedAtoms>
  152.5205  133.9425  159.7633 H   0  0  0  0  0  0  0  0  0  0  0  0  # atno 6907 bound_to 6896
  150.9752  133.6294  159.2738 H   0  0  0  0  0  0  0  0  0  0  0  0  # atno 6908 bound_to 6896
  151.3491  135.0886  159.9450 H   0  0  0  0  0  0  0  0  0  0  0  0  # atno 6909 bound_to 6896
  146.2206  140.2828  142.8363 H   0  0  0  0  0  0  0  0  0  0  0  0  # atno 7974 bound_to 7965
  155.2527  140.3353  155.4280 H   0  0  0  0  0  0  0  0  0  0  0  0  # atno 8008 bound_to 7997
  156.2209  140.1808  156.7523 H   0  0  0  0  0  0  0  0  0  0  0  0  # atno 8009 bound_to 7997
  154.5823  140.0651  156.9107 H   0  0  0  0  0  0  0  0  0  0  0  0  # atno 8010 bound_to 7997
  140.2354  143.3577  152.0850 H   0  0  0  0  0  0  0  0  0  0  0  0  # atno 10167 bound_to 10162
  157.4897  130.8368  149.8189 H   0  0  0  0  0  0  0  0  0  0  0  0  # atno 10718 bound_to 10713
  154.8143  135.4633  154.0600 H   0  0  0  0  0  0  0  0  0  0  0  0  # atno 10763 bound_to 10752
  153.2006  135.6868  153.8243 H   0  0  0  0  0  0  0  0  0  0  0  0  # atno 10764 bound_to 10752
  153.7729  135.3267  155.3332 H   0  0  0  0  0  0  0  0  0  0  0  0  # atno 10765 bound_to 10752
  140.8139  134.2711  157.4929 H   0  0  0  0  0  0  0  0  0  0  0  0  # atno 11005 bound_to 11000
  144.9184  140.7840  143.5763 LP  0  0  0  0  0  0  0  0  0  0  0  0  # atno 17320 bound_to 7965
  145.2763  139.1935  143.4814 LP  0  0  0  0  0  0  0  0  0  0  0  0  # atno 17321 bound_to 7965
  139.5095  144.6869  151.5863 LP  0  0  0  0  0  0  0  0  0  0  0  0  # atno 17342 bound_to 10162
  140.6154  143.9358  150.6484 LP  0  0  0  0  0  0  0  0  0  0  0  0  # atno 17343 bound_to 10162
  156.0167  130.3811  150.2090 LP  0  0  0  0  0  0  0  0  0  0  0  0  # atno 17370 bound_to 10713
  157.0278  130.9998  151.3321 LP  0  0  0  0  0  0  0  0  0  0  0  0  # atno 17371 bound_to 10713
  139.8712  134.9498  156.4037 LP  0  0  0  0  0  0  0  0  0  0  0  0  # atno 17394 bound_to 11000
  140.9169  133.7672  155.9859 LP  0  0  0  0  0  0  0  0  0  0  0  0  # atno 17395 bound_to 11000

$$$$
