AV-unprocessed.smi:1802|AV-procd|sdf|7275|dock7
  -GOLD-   22720 8533D 1   1.00000     0.00000
 Structure written by MMmdl.
 40 41  0  0  0  0  0  0  0  0  3 V2000
  144.5236  133.0314  150.6430 C   0  0  0  0  0  0  0  0  0  0  0  0
  145.6331  132.0434  151.0302 C   0  0  2  0  0  0  0  0  0  0  0  0
  145.0663  130.6387  151.2965 C   0  0  0  0  0  0  0  0  0  0  0  0
  146.1916  129.6809  151.7063 C   0  0  0  0  0  0  0  0  0  0  0  0
  146.9726  130.2328  152.9094 C   0  0  0  0  0  0  0  0  0  0  0  0
  147.5116  131.5873  152.6227 N   0  3  2  0  0  0  0  0  0  0  0  0
  148.3846  132.0858  153.7156 C   0  0  0  0  0  0  0  0  0  0  0  0
  148.5051  133.6189  153.7169 C   0  0  0  0  0  0  0  0  0  0  0  0
  149.6574  134.1111  154.6018 C   0  0  0  0  0  0  0  0  0  0  0  0
  149.3224  135.3925  155.2072 N   0  0  0  0  0  0  0  0  0  0  0  0
  150.1966  136.3698  155.4803 C   0  0  0  0  0  0  0  0  0  0  0  0
  151.3922  136.2133  155.2229 O   0  0  0  0  0  0  0  0  0  0  0  0
  149.6299  137.4673  156.0303 N   0  5  0  0  0  0  0  0  0  0  0  0
  150.2001  138.6723  155.8643 C   0  0  0  0  0  0  0  0  0  0  0  0
  151.1927  138.8834  154.9849 N   0  0  0  0  0  0  0  0  0  0  0  0
  151.6432  140.1967  154.9754 N   0  0  0  0  0  0  0  0  0  0  0  0
  150.9811  140.9438  155.8583 C   0  0  0  0  0  0  0  0  0  0  0  0
  149.7488  140.1114  156.7827 S   0  0  0  0  0  0  0  0  0  0  0  0
  146.4291  132.5393  152.2544 C   0  0  0  0  0  0  0  0  0  0  0  0
  143.7979  133.1489  151.4485 H   0  0  0  0  0  0  0  0  0  0  0  0
  143.9855  132.6906  149.7580 H   0  0  0  0  0  0  0  0  0  0  0  0
  144.9342  134.0162  150.4185 H   0  0  0  0  0  0  0  0  0  0  0  0
  146.3211  131.9760  150.1858 H   0  0  0  0  0  0  0  0  0  0  0  0
  144.3159  130.6823  152.0874 H   0  0  0  0  0  0  0  0  0  0  0  0
  144.5613  130.2584  150.4078 H   0  0  0  0  0  0  0  0  0  0  0  0
  145.7772  128.7016  151.9480 H   0  0  0  0  0  0  0  0  0  0  0  0
  146.8700  129.5309  150.8656 H   0  0  0  0  0  0  0  0  0  0  0  0
  146.3304  130.2740  153.7905 H   0  0  0  0  0  0  0  0  0  0  0  0
  147.7910  129.5511  153.1440 H   0  0  0  0  0  0  0  0  0  0  0  0
  148.0232  131.7226  154.6789 H   0  0  0  0  0  0  0  0  0  0  0  0
  149.3860  131.6725  153.5876 H   0  0  0  0  0  0  0  0  0  0  0  0
  148.6610  133.9704  152.6959 H   0  0  0  0  0  0  0  0  0  0  0  0
  147.5775  134.0742  154.0636 H   0  0  0  0  0  0  0  0  0  0  0  0
  149.8661  133.3867  155.3904 H   0  0  0  0  0  0  0  0  0  0  0  0
  150.5664  134.2147  154.0071 H   0  0  0  0  0  0  0  0  0  0  0  0
  148.3531  135.5575  155.4360 H   0  0  0  0  0  0  0  0  0  0  0  0
  151.2215  141.9906  155.9681 H   0  0  0  0  0  0  0  0  0  0  0  0
  146.8529  133.5165  152.0258 H   0  0  0  0  0  0  0  0  0  0  0  0
  145.7629  132.6780  153.1076 H   0  0  0  0  0  0  0  0  0  0  0  0
  148.1040  131.4858  151.8109 H   0  0  0  0  0  0  0  0  0  0  0  0
  1  2  1  0  0  0  0
  1 20  1  0  0  0  0
  1 21  1  0  0  0  0
  1 22  1  0  0  0  0
  2 19  1  0  0  0  0
  2  3  1  0  0  0  0
  2 23  1  0  0  0  0
  3  4  1  0  0  0  0
  3 24  1  0  0  0  0
  3 25  1  0  0  0  0
  4  5  1  0  0  0  0
  4 26  1  0  0  0  0
  4 27  1  0  0  0  0
  5  6  1  0  0  0  0
  5 28  1  0  0  0  0
  5 29  1  0  0  0  0
  6  7  1  0  0  0  0
  6 19  1  0  0  0  0
  6 40  1  0  0  0  0
  7  8  1  0  0  0  0
  7 30  1  0  0  0  0
  7 31  1  0  0  0  0
  8  9  1  0  0  0  0
  8 32  1  0  0  0  0
  8 33  1  0  0  0  0
  9 10  1  0  0  0  0
  9 34  1  0  0  0  0
  9 35  1  0  0  0  0
 10 11  1  0  0  0  0
 10 36  1  0  0  0  0
 11 12  2  0  0  0  0
 11 13  1  0  0  0  0
 13 14  1  0  0  0  0
 14 18  1  0  0  0  0
 14 15  2  0  0  0  0
 15 16  1  0  0  0  0
 16 17  2  0  0  0  0
 17 18  1  0  0  0  0
 17 37  1  0  0  0  0
 19 38  1  0  0  0  0
 19 39  1  0  0  0  0
M  CHG  1   6   1
M  CHG  1  13  -1
M  END
> <s_m_source_file>
AV-unprocessed.smi

> <i_m_source_file_index>
1802

> <i_lp_mmshare_version>
43012

> <i_f3d_flags>
0

> <s_epik_input>
W0NIM11bQ0BASF0xW0NIMl1bQ0gyXVtDSDJdTihbQ0gyXTEpW0NIMl1bQ0gyXVtDSDJdW05IXUMoPU8pW05IXWMybm5bY0hdczI=

> <s_epik_cmdline>
J2VwaWtfcHl0aG9uJywgJy1waCcsICc3LjAnLCAnLXRuJywgJzgnLCAnLW1hJywgJzIwMCcsICctbWV0YWxfYmluZGluZycsICctaW1hZScsICc8aW5maWxlLm1hZT4nLCAnLW9tYWUnLCAnPG91dGZpbGUubWFlPic=

> <r_lp_tautomer_probability>
1

> <r_epik_Ionization_Penalty>
3.29702

> <r_epik_Ionization_Penalty_Charging>
3.26059

> <r_epik_Ionization_Penalty_Neutral>
0.0364294

> <r_epik_State_Penalty>
3.25788

> <r_epik_Charging_Adjusted_Penalty>
6.51847

> <i_epik_Tot_Q>
0

> <i_epik_Tot_abs_Q>
2

> <r_epik_Metal_State_Penalty>
0.477639

> <b_epik_Metal_Only>
1

> <s_lp_Force_Field>
OPLS_2005

> <r_lp_Energy>
10.8961

> <b_lp_Chiralities_Consistent>
1

> <s_lp_Variant>
AV-unprocessed.smi:1802-5

> <Gold.Version>
5.8.1

> <Gold.Id.Protein>
6NUR|6NUR_protein|mol2

> <Gold.PLP.Fitness>
39.8503

> <Gold.PLP.PLP>
-32.7200

> <Gold.PLP.part.hbond>
-3.0000

> <Gold.PLP.part.metal>
0.0000

> <Gold.PLP.part.buried>
-5.4593

> <Gold.PLP.part.nonpolar>
-24.3407

> <Gold.PLP.part.repulsive>
0.2804

> <Gold.PLP.ligand.clash>
0.0000

> <Gold.PLP.ligand.torsion>
0.9307

> <Gold.PLP.Chemscore.Hbond>
2.9760

> <Gold.PLP.Chemscore.CHOScore>
0.0000

> <Gold.PLP.Chemscore.Metal>
0.0000

> <Gold.Chemscore.Hbonds>
donor molecule, donor type, donor heavy atom, donor atom, acceptor molecule, acceptor atom, score
      L1  H     6    40       P1 10747  1.00
      P1  H  7989  7998       L1    16  0.98
      P1  H 10752 10765       L1    12  1.00

> <Gold.PLP.Chemscore.Internal.Correction>
0.0636

> <Gold.Rescore>
     Score         DG    S(hbond)    S(metal)    S(lipo)     H(rot)  DE(clash)    DE(int)     intcor
     16.98     -19.50       2.95        0.00      77.99       1.94       0.01       2.51       ----

> <Gold.Chemscore.Fitness>
16.9782

> <Gold.Chemscore.DG>
-19.4960

> <Gold.Chemscore.ZeroCoef>
-5.4800

> <Gold.Chemscore.Hbond>
2.9500

> <Gold.Chemscore.Metal>
0.0000

> <Gold.Chemscore.Lipo>
77.9909

> <Gold.Chemscore.Internal_Hbond>
0.0000

> <Gold.Chemscore.DEClash>
0.0073

> <Gold.Chemscore.DEInternal>
2.5105

> <Gold.Chemscore.Rot>
1.9383

> <Gold.Chemscore.Internal.Correction>
   9.000000E+99

> <Gold.Chemscore.Hbonds>
donor molecule, donor type, donor heavy atom, donor atom, acceptor molecule, acceptor atom, score
      L1  H     6    40       P1 10747  1.00
      P1  H  7989  7998       L1    16  0.67
      P1  H 10752 10765       L1    12  1.00

> <Gold.Chemscore.Hbond.Weighted>
-9.8531

> <Gold.Chemscore.Metal.Weighted>
-0.0000

> <Gold.Chemscore.Lipo.Weighted>
-9.1249

> <Gold.Chemscore.Internal_Hbond.Weighted>
0.0000

> <Gold.Chemscore.DEClash.Weighted>
0.0073

> <Gold.Chemscore.DEInternal.Weighted>
2.5105

> <Gold.Chemscore.Rot.Weighted>
4.9620

> <Gold.Chemscore.Internal.Correction.Weighted>
   9.000000E+99

> <Gold.Protein.RotatedTorsions>
[ 6907 6896 6895 6894 ] final   98.63 input  -60.11 | X-H torsion
[ 7974 7965 7964 7962 ] final  145.19 input  175.53 | X-H torsion
[ 8008 7997 7996 7995 ] final  -23.79 input   59.86 | X-H torsion
[ 10167 10162 10161 10158 ] final   96.50 input  -65.29 | X-H torsion
[ 10718 10713 10712 10709 ] final   12.72 input   66.30 | X-H torsion
[ 10763 10752 10751 10750 ] final -171.16 input  -60.55 | X-H torsion
[ 11005 11000 10999 10996 ] final   83.72 input  -57.11 | X-H torsion

> <Gold.Protein.ActiveResidues>
 VAL166  LYS551  ARG553  GLY616  TRP617  ASP618  TYR619  PRO620  LYS621  CYS622 
 ASP623  PHE694  ASN695  SER759  ASP760  ASP761  ALA762  ILE779  LEU786  VAL792 
 PHE793  MET794  SER795  GLU796  ALA797  LYS798  CYS799  TRP800  GLU811  SER814 

> <Gold.Protein.RotatedAtoms>
  152.5406  134.0551  159.8126 H   0  0  0  0  0  0  0  0  0  0  0  0  # atno 6907 bound_to 6896
  151.0687  133.5476  159.2636 H   0  0  0  0  0  0  0  0  0  0  0  0  # atno 6908 bound_to 6896
  151.2348  135.0575  159.9056 H   0  0  0  0  0  0  0  0  0  0  0  0  # atno 6909 bound_to 6896
  144.8773  139.5753  143.5859 H   0  0  0  0  0  0  0  0  0  0  0  0  # atno 7974 bound_to 7965
  154.4565  140.1971  156.0365 H   0  0  0  0  0  0  0  0  0  0  0  0  # atno 8008 bound_to 7997
  156.0756  140.3278  155.7602 H   0  0  0  0  0  0  0  0  0  0  0  0  # atno 8009 bound_to 7997
  155.5193  140.0568  157.2900 H   0  0  0  0  0  0  0  0  0  0  0  0  # atno 8010 bound_to 7997
  139.7889  144.6860  150.9920 H   0  0  0  0  0  0  0  0  0  0  0  0  # atno 10167 bound_to 10162
  157.0142  130.6129  149.5712 H   0  0  0  0  0  0  0  0  0  0  0  0  # atno 10718 bound_to 10713
  154.6336  135.2889  155.0187 H   0  0  0  0  0  0  0  0  0  0  0  0  # atno 10763 bound_to 10752
  154.1339  135.6529  153.4932 H   0  0  0  0  0  0  0  0  0  0  0  0  # atno 10764 bound_to 10752
  153.0291  135.5317  154.7173 H   0  0  0  0  0  0  0  0  0  0  0  0  # atno 10765 bound_to 10752
  139.9022  134.8165  156.2347 H   0  0  0  0  0  0  0  0  0  0  0  0  # atno 11005 bound_to 11000
  146.2971  139.7312  142.9118 LP  0  0  0  0  0  0  0  0  0  0  0  0  # atno 17320 bound_to 7965
  145.4019  141.0386  143.3066 LP  0  0  0  0  0  0  0  0  0  0  0  0  # atno 17321 bound_to 7965
  140.7820  143.4402  151.0562 LP  0  0  0  0  0  0  0  0  0  0  0  0  # atno 17342 bound_to 10162
  139.8080  143.7991  152.3169 LP  0  0  0  0  0  0  0  0  0  0  0  0  # atno 17343 bound_to 10162
  156.0125  130.5217  150.8033 LP  0  0  0  0  0  0  0  0  0  0  0  0  # atno 17370 bound_to 10713
  157.5298  131.0936  150.9970 LP  0  0  0  0  0  0  0  0  0  0  0  0  # atno 17371 bound_to 10713
  141.0323  133.6982  156.1451 LP  0  0  0  0  0  0  0  0  0  0  0  0  # atno 17394 bound_to 11000
  140.7078  134.4494  157.5583 LP  0  0  0  0  0  0  0  0  0  0  0  0  # atno 17395 bound_to 11000

$$$$
