AV-unprocessed.smi:2416|AV-procd|sdf|9545|dock8
  -GOLD-   2272013173D 1   1.00000     0.00000
 Structure written by MMmdl.
 40 41  0  0  0  0  0  0  0  0  1 V2000
  145.9077  142.8396  154.2024 C   0  0  0  0  0  0  0  0  0  0  0  0
  146.2625  141.5616  154.7157 O   0  0  0  0  0  0  0  0  0  0  0  0
  147.4331  140.9349  154.1727 C   0  0  2  0  0  0  0  0  0  0  0  0
  148.6722  141.8050  154.4186 C   0  0  0  0  0  0  0  0  0  0  0  0
  147.1467  140.4125  152.7513 C   0  0  0  0  0  0  0  0  0  0  0  0
  146.5401  139.1748  153.4094 C   0  0  1  0  0  0  0  0  0  0  0  0
  146.8285  137.9456  152.6772 N   0  0  0  0  0  0  0  0  0  0  0  0
  145.9665  136.9282  152.5428 C   0  0  0  0  0  0  0  0  0  0  0  0
  144.8378  136.9284  153.0351 O   0  0  0  0  0  0  0  0  0  0  0  0
  146.4972  135.9304  151.8135 N   0  0  0  0  0  0  0  0  0  0  0  0
  145.8982  134.6942  151.4506 C   0  0  0  0  0  0  0  0  0  0  0  0
  144.4851  134.6797  151.4892 C   0  0  0  0  0  0  0  0  0  0  0  0
  143.7944  133.5000  151.1491 C   0  0  0  0  0  0  0  0  0  0  0  0
  144.5372  132.3652  150.7779 C   0  0  0  0  0  0  0  0  0  0  0  0
  143.9176  131.2087  150.4427 F   0  0  0  0  0  0  0  0  0  0  0  0
  145.9407  132.4629  150.7632 C   0  0  0  0  0  0  0  0  0  0  0  0
  146.6036  133.5928  151.0896 N   0  0  0  0  0  0  0  0  0  0  0  0
  147.4527  139.4406  154.6347 C   0  0  0  0  0  0  0  0  0  0  0  0
  148.8311  138.7524  154.6349 C   0  0  0  0  0  0  0  0  0  0  0  0
  146.8375  139.1380  156.0056 C   0  0  0  0  0  0  0  0  0  0  0  0
  144.9229  143.1129  154.5812 H   0  0  0  0  0  0  0  0  0  0  0  0
  145.8584  142.8524  153.1142 H   0  0  0  0  0  0  0  0  0  0  0  0
  146.6040  143.6108  154.5309 H   0  0  0  0  0  0  0  0  0  0  0  0
  149.5876  141.3037  154.1065 H   0  0  0  0  0  0  0  0  0  0  0  0
  148.7789  142.0517  155.4751 H   0  0  0  0  0  0  0  0  0  0  0  0
  148.6335  142.7386  153.8578 H   0  0  0  0  0  0  0  0  0  0  0  0
  146.4413  140.9939  152.1583 H   0  0  0  0  0  0  0  0  0  0  0  0
  148.0563  140.2061  152.1845 H   0  0  0  0  0  0  0  0  0  0  0  0
  145.4797  139.3176  153.6307 H   0  0  0  0  0  0  0  0  0  0  0  0
  147.7370  137.8706  152.2436 H   0  0  0  0  0  0  0  0  0  0  0  0
  147.4365  136.0741  151.4736 H   0  0  0  0  0  0  0  0  0  0  0  0
  143.9312  135.5613  151.7773 H   0  0  0  0  0  0  0  0  0  0  0  0
  142.7151  133.4677  151.1736 H   0  0  0  0  0  0  0  0  0  0  0  0
  146.5471  131.6143  150.4832 H   0  0  0  0  0  0  0  0  0  0  0  0
  148.7437  137.6763  154.7892 H   0  0  0  0  0  0  0  0  0  0  0  0
  149.4707  139.1393  155.4289 H   0  0  0  0  0  0  0  0  0  0  0  0
  149.3640  138.8962  153.6951 H   0  0  0  0  0  0  0  0  0  0  0  0
  146.8301  138.0680  156.2148 H   0  0  0  0  0  0  0  0  0  0  0  0
  145.8027  139.4744  156.0719 H   0  0  0  0  0  0  0  0  0  0  0  0
  147.3902  139.6282  156.8076 H   0  0  0  0  0  0  0  0  0  0  0  0
  1  2  1  0  0  0  0
  1 21  1  0  0  0  0
  1 22  1  0  0  0  0
  1 23  1  0  0  0  0
  2  3  1  0  0  0  0
  3 18  1  0  0  0  0
  3  4  1  0  0  0  0
  3  5  1  0  0  0  0
  4 24  1  0  0  0  0
  4 25  1  0  0  0  0
  4 26  1  0  0  0  0
  5  6  1  0  0  0  0
  5 27  1  0  0  0  0
  5 28  1  0  0  0  0
  6  7  1  0  0  0  0
  6 18  1  0  0  0  0
  6 29  1  0  0  0  0
  7  8  1  0  0  0  0
  7 30  1  0  0  0  0
  8  9  2  0  0  0  0
  8 10  1  0  0  0  0
 10 11  1  0  0  0  0
 10 31  1  0  0  0  0
 11 17  1  0  0  0  0
 11 12  2  0  0  0  0
 12 13  1  0  0  0  0
 12 32  1  0  0  0  0
 13 14  2  0  0  0  0
 13 33  1  0  0  0  0
 14 15  1  0  0  0  0
 14 16  1  0  0  0  0
 16 17  2  0  0  0  0
 16 34  1  0  0  0  0
 18 19  1  0  0  0  0
 18 20  1  0  0  0  0
 19 35  1  0  0  0  0
 19 36  1  0  0  0  0
 19 37  1  0  0  0  0
 20 38  1  0  0  0  0
 20 39  1  0  0  0  0
 20 40  1  0  0  0  0
M  END
> <s_m_source_file>
AV-unprocessed.smi

> <i_m_source_file_index>
2416

> <i_lp_mmshare_version>
43012

> <i_f3d_flags>
0

> <s_epik_input>
W0NIM11PW0NAQF0xKFtDSDNdKVtDSDJdW0NASF0oQzEoW0NIM10pW0NIM10pW05IXUMoPU8pW05IXWMyW2NIXVtjSF1jKEYpW2NIXW4y

> <s_epik_cmdline>
J2VwaWtfcHl0aG9uJywgJy1waCcsICc3LjAnLCAnLXRuJywgJzgnLCAnLW1hJywgJzIwMCcsICctbWV0YWxfYmluZGluZycsICctaW1hZScsICc8aW5maWxlLm1hZT4nLCAnLW9tYWUnLCAnPG91dGZpbGUubWFlPic=

> <r_lp_tautomer_probability>
1

> <r_epik_Ionization_Penalty>
3.67756e-05

> <r_epik_Ionization_Penalty_Charging>
0

> <r_epik_Ionization_Penalty_Neutral>
3.67756e-05

> <r_epik_State_Penalty>
-0

> <r_epik_Charging_Adjusted_Penalty>
0

> <i_epik_Tot_Q>
0

> <i_epik_Tot_abs_Q>
0

> <r_epik_Metal_State_Penalty>
-0

> <b_epik_Metal_Only>
0

> <s_lp_Force_Field>
OPLS_2005

> <r_lp_Energy>
27.4355

> <b_lp_Chiralities_Consistent>
1

> <s_lp_Variant>
AV-unprocessed.smi:2416-2

> <Gold.Version>
5.8.1

> <Gold.Id.Protein>
6NUR|6NUR_protein|mol2

> <Gold.PLP.Fitness>
34.5992

> <Gold.PLP.PLP>
-27.2111

> <Gold.PLP.part.hbond>
-1.7046

> <Gold.PLP.part.metal>
0.0000

> <Gold.PLP.part.buried>
0.2433

> <Gold.PLP.part.nonpolar>
-27.2831

> <Gold.PLP.part.repulsive>
0.6327

> <Gold.PLP.ligand.clash>
0.0000

> <Gold.PLP.ligand.torsion>
0.3519

> <Gold.PLP.Chemscore.Hbond>
1.5783

> <Gold.PLP.Chemscore.CHOScore>
0.9946

> <Gold.PLP.Chemscore.Metal>
0.0000

> <Gold.Chemscore.Hbonds>
donor molecule, donor type, donor heavy atom, donor atom, acceptor molecule, acceptor atom, score
      L1  H     7    30       P1  7948  0.62
      L1  H    10    31       P1  7948  0.96
      L1  C    16    34       P1 10747  0.96

> <Gold.PLP.Chemscore.Internal.Correction>
0.3730

> <Gold.Rescore>
     Score         DG    S(hbond)    S(metal)    S(lipo)     H(rot)  DE(clash)    DE(int)     intcor
     13.65     -16.00       1.77        0.00      67.16       1.27       0.58       1.78       ----

> <Gold.Chemscore.Fitness>
13.6461

> <Gold.Chemscore.DG>
-16.0046

> <Gold.Chemscore.ZeroCoef>
-5.4800

> <Gold.Chemscore.Hbond>
1.7682

> <Gold.Chemscore.Metal>
0.0000

> <Gold.Chemscore.Lipo>
67.1637

> <Gold.Chemscore.Internal_Hbond>
0.0000

> <Gold.Chemscore.DEClash>
0.5775

> <Gold.Chemscore.DEInternal>
1.7810

> <Gold.Chemscore.Rot>
1.2653

> <Gold.Chemscore.Internal.Correction>
   9.000000E+99

> <Gold.Chemscore.Hbonds>
donor molecule, donor type, donor heavy atom, donor atom, acceptor molecule, acceptor atom, score
      L1  H     7    30       P1  7948  0.59
      L1  H    10    31       P1  7948  0.86

> <Gold.Chemscore.Hbond.Weighted>
-5.9057

> <Gold.Chemscore.Metal.Weighted>
-0.0000

> <Gold.Chemscore.Lipo.Weighted>
-7.8581

> <Gold.Chemscore.Internal_Hbond.Weighted>
0.0000

> <Gold.Chemscore.DEClash.Weighted>
0.5775

> <Gold.Chemscore.DEInternal.Weighted>
1.7810

> <Gold.Chemscore.Rot.Weighted>
3.2392

> <Gold.Chemscore.Internal.Correction.Weighted>
   9.000000E+99

> <Gold.Protein.RotatedTorsions>
[ 6907 6896 6895 6894 ] final   55.68 input  -60.11 | X-H torsion
[ 7974 7965 7964 7962 ] final -179.20 input  175.53 | X-H torsion
[ 8008 7997 7996 7995 ] final  -80.56 input   59.86 | X-H torsion
[ 10167 10162 10161 10158 ] final  -77.64 input  -65.29 | X-H torsion
[ 10718 10713 10712 10709 ] final   22.61 input   66.30 | X-H torsion
[ 10763 10752 10751 10750 ] final  121.97 input  -60.55 | X-H torsion
[ 11005 11000 10999 10996 ] final   94.95 input  -57.11 | X-H torsion

> <Gold.Protein.ActiveResidues>
 VAL166  LYS551  ARG553  GLY616  TRP617  ASP618  TYR619  PRO620  LYS621  CYS622 
 ASP623  PHE694  ASN695  SER759  ASP760  ASP761  ALA762  ILE779  LEU786  VAL792 
 PHE793  MET794  SER795  GLU796  ALA797  LYS798  CYS799  TRP800  GLU811  SER814 

> <Gold.Protein.RotatedAtoms>
  152.3562  134.6936  160.0220 H   0  0  0  0  0  0  0  0  0  0  0  0  # atno 6907 bound_to 6896
  151.7274  133.3311  159.3339 H   0  0  0  0  0  0  0  0  0  0  0  0  # atno 6908 bound_to 6896
  150.7573  134.6328  159.6240 H   0  0  0  0  0  0  0  0  0  0  0  0  # atno 6909 bound_to 6896
  144.7135  140.0754  143.6428 H   0  0  0  0  0  0  0  0  0  0  0  0  # atno 7974 bound_to 7965
  154.5896  140.0661  156.9219 H   0  0  0  0  0  0  0  0  0  0  0  0  # atno 8008 bound_to 7997
  155.2319  140.3338  155.4284 H   0  0  0  0  0  0  0  0  0  0  0  0  # atno 8009 bound_to 7997
  156.2246  140.1814  156.7378 H   0  0  0  0  0  0  0  0  0  0  0  0  # atno 8010 bound_to 7997
  140.4752  143.2416  151.8144 H   0  0  0  0  0  0  0  0  0  0  0  0  # atno 10167 bound_to 10162
  157.1547  130.6690  149.6023 H   0  0  0  0  0  0  0  0  0  0  0  0  # atno 10718 bound_to 10713
  153.6225  135.3410  155.3015 H   0  0  0  0  0  0  0  0  0  0  0  0  # atno 10763 bound_to 10752
  154.8597  135.4276  154.2192 H   0  0  0  0  0  0  0  0  0  0  0  0  # atno 10764 bound_to 10752
  153.3069  135.7029  153.7224 H   0  0  0  0  0  0  0  0  0  0  0  0  # atno 10765 bound_to 10752
  139.8793  134.8873  156.3939 H   0  0  0  0  0  0  0  0  0  0  0  0  # atno 11005 bound_to 11000
  145.9747  139.2896  143.1077 LP  0  0  0  0  0  0  0  0  0  0  0  0  # atno 17320 bound_to 7965
  145.9077  140.9201  143.0470 LP  0  0  0  0  0  0  0  0  0  0  0  0  # atno 17321 bound_to 7965
  139.4824  144.4842  151.9268 LP  0  0  0  0  0  0  0  0  0  0  0  0  # atno 17342 bound_to 10162
  140.3927  144.2594  150.5898 LP  0  0  0  0  0  0  0  0  0  0  0  0  # atno 17343 bound_to 10162
  155.9764  130.4732  150.6526 LP  0  0  0  0  0  0  0  0  0  0  0  0  # atno 17370 bound_to 10713
  157.4188  131.0834  151.1151 LP  0  0  0  0  0  0  0  0  0  0  0  0  # atno 17371 bound_to 10713
  140.9314  133.7577  156.0029 LP  0  0  0  0  0  0  0  0  0  0  0  0  # atno 17394 bound_to 11000
  140.8326  134.3160  157.5343 LP  0  0  0  0  0  0  0  0  0  0  0  0  # atno 17395 bound_to 11000

$$$$
