AV-unprocessed.smi:1616|AV-procd|sdf|6483|dock5
  -GOLD-   22720 7143D 1   1.00000     0.00000
 Structure written by MMmdl.
 38 39  0  0  0  0  0  0  0  0  1 V2000
  147.5172  141.3987  153.9075 C   0  0  0  0  0  0  0  0  0  0  0  0
  148.8164  140.9267  154.5025 C   0  0  0  0  0  0  0  0  0  0  0  0
  149.4463  141.7635  155.2597 N   0  0  0  0  0  0  0  0  0  0  0  0
  150.6509  141.4336  155.8505 N   0  0  0  0  0  0  0  0  0  0  0  0
  151.2372  142.5112  156.6608 C   0  0  0  0  0  0  0  0  0  0  0  0
  151.3252  142.1675  158.1550 C   0  0  0  0  0  0  0  0  0  0  0  0
  150.3061  141.9547  158.8135 O   0  0  0  0  0  0  0  0  0  0  0  0
  152.5627  142.0962  158.6693 N   0  0  0  0  0  0  0  0  0  0  0  0
  152.8896  141.7901  160.0585 C   0  0  1  0  0  0  0  0  0  0  0  0
  154.0401  140.7723  160.1098 C   0  0  0  0  0  0  0  0  0  0  0  0
  153.2301  143.0323  160.8600 C   0  0  0  0  0  0  0  0  0  0  0  0
  152.9413  143.1086  162.3402 C   0  0  0  0  0  0  0  0  0  0  0  0
  152.1470  143.9528  161.3687 C   0  0  0  0  0  0  0  0  0  0  0  0
  151.2798  140.2307  155.7122 C   0  0  0  0  0  0  0  0  0  0  0  0
  152.3530  139.9775  156.2620 O   0  0  0  0  0  0  0  0  0  0  0  0
  150.5594  139.2870  154.8548 C   0  0  0  0  0  0  0  0  0  0  0  0
  151.1864  138.0167  154.6794 C   0  0  0  0  0  0  0  0  0  0  0  0
  151.6982  136.9856  154.5574 N   0  0  0  0  0  0  0  0  0  0  0  0
  149.3778  139.6004  154.2668 C   0  0  0  0  0  0  0  0  0  0  0  0
  148.5909  138.6572  153.3669 C   0  0  0  0  0  0  0  0  0  0  0  0
  146.6868  140.7835  154.2545 H   0  0  0  0  0  0  0  0  0  0  0  0
  147.5476  141.3446  152.8191 H   0  0  0  0  0  0  0  0  0  0  0  0
  147.2973  142.4324  154.1788 H   0  0  0  0  0  0  0  0  0  0  0  0
  152.2443  142.7425  156.3095 H   0  0  0  0  0  0  0  0  0  0  0  0
  150.6636  143.4306  156.5282 H   0  0  0  0  0  0  0  0  0  0  0  0
  153.3402  142.2810  158.0522 H   0  0  0  0  0  0  0  0  0  0  0  0
  152.0163  141.3334  160.5283 H   0  0  0  0  0  0  0  0  0  0  0  0
  154.2806  140.5050  161.1392 H   0  0  0  0  0  0  0  0  0  0  0  0
  154.9447  141.1724  159.6505 H   0  0  0  0  0  0  0  0  0  0  0  0
  153.7798  139.8516  159.5864 H   0  0  0  0  0  0  0  0  0  0  0  0
  154.1502  143.5172  160.5386 H   0  0  0  0  0  0  0  0  0  0  0  0
  152.4333  142.2649  162.8030 H   0  0  0  0  0  0  0  0  0  0  0  0
  153.6699  143.6163  162.9688 H   0  0  0  0  0  0  0  0  0  0  0  0
  152.3472  145.0221  161.3489 H   0  0  0  0  0  0  0  0  0  0  0  0
  151.1122  143.6689  161.1859 H   0  0  0  0  0  0  0  0  0  0  0  0
  149.0513  137.6720  153.2985 H   0  0  0  0  0  0  0  0  0  0  0  0
  148.5260  139.0612  152.3564 H   0  0  0  0  0  0  0  0  0  0  0  0
  147.5787  138.5166  153.7473 H   0  0  0  0  0  0  0  0  0  0  0  0
  1  2  1  0  0  0  0
  1 21  1  0  0  0  0
  1 22  1  0  0  0  0
  1 23  1  0  0  0  0
  2 19  1  0  0  0  0
  2  3  2  0  0  0  0
  3  4  1  0  0  0  0
  4  5  1  0  0  0  0
  4 14  1  0  0  0  0
  5  6  1  0  0  0  0
  5 24  1  0  0  0  0
  5 25  1  0  0  0  0
  6  7  2  0  0  0  0
  6  8  1  0  0  0  0
  8  9  1  0  0  0  0
  8 26  1  0  0  0  0
  9 10  1  0  0  0  0
  9 11  1  0  0  0  0
  9 27  1  0  0  0  0
 10 28  1  0  0  0  0
 10 29  1  0  0  0  0
 10 30  1  0  0  0  0
 11 13  1  0  0  0  0
 11 12  1  0  0  0  0
 11 31  1  0  0  0  0
 12 13  1  0  0  0  0
 12 32  1  0  0  0  0
 12 33  1  0  0  0  0
 13 34  1  0  0  0  0
 13 35  1  0  0  0  0
 14 15  2  0  0  0  0
 14 16  1  0  0  0  0
 16 17  1  0  0  0  0
 16 19  2  0  0  0  0
 17 18  3  0  0  0  0
 19 20  1  0  0  0  0
 20 36  1  0  0  0  0
 20 37  1  0  0  0  0
 20 38  1  0  0  0  0
M  END
> <s_m_source_file>
AV-unprocessed.smi

> <i_m_source_file_index>
1616

> <i_lp_mmshare_version>
43012

> <i_f3d_flags>
0

> <s_epik_input>
TiNDYyhjMVtDSDNdKWMoPU8pbihuYzFbQ0gzXSlbQ0gyXUMoPU8pW05IXVtDQEhdKFtDSDNdKVtDSF0yW0NIMl1bQ0gyXTI=

> <s_epik_cmdline>
J2VwaWtfcHl0aG9uJywgJy1waCcsICc3LjAnLCAnLXRuJywgJzgnLCAnLW1hJywgJzIwMCcsICctbWV0YWxfYmluZGluZycsICctaW1hZScsICc8aW5maWxlLm1hZT4nLCAnLW9tYWUnLCAnPG91dGZpbGUubWFlPic=

> <r_lp_tautomer_probability>
1

> <r_epik_Ionization_Penalty>
1.93246e-08

> <r_epik_Ionization_Penalty_Charging>
2.27031e-11

> <r_epik_Ionization_Penalty_Neutral>
1.93019e-08

> <r_epik_State_Penalty>
-0

> <r_epik_Charging_Adjusted_Penalty>
2.27031e-11

> <i_epik_Tot_Q>
0

> <i_epik_Tot_abs_Q>
0

> <r_epik_Metal_State_Penalty>
-0

> <b_epik_Metal_Only>
0

> <s_lp_Force_Field>
OPLS_2005

> <r_lp_Energy>
27.6916

> <b_lp_Chiralities_Consistent>
1

> <s_lp_Variant>
AV-unprocessed.smi:1616-2

> <Gold.Version>
5.8.1

> <Gold.Id.Protein>
6NUR|6NUR_protein|mol2

> <Gold.PLP.Fitness>
48.5585

> <Gold.PLP.PLP>
-43.0682

> <Gold.PLP.part.hbond>
-2.8693

> <Gold.PLP.part.metal>
0.0000

> <Gold.PLP.part.buried>
0.1536

> <Gold.PLP.part.nonpolar>
-40.2495

> <Gold.PLP.part.repulsive>
0.8052

> <Gold.PLP.ligand.clash>
0.0000

> <Gold.PLP.ligand.torsion>
0.7922

> <Gold.PLP.Chemscore.Hbond>
2.0000

> <Gold.PLP.Chemscore.CHOScore>
0.0000

> <Gold.PLP.Chemscore.Metal>
0.0000

> <Gold.Chemscore.Hbonds>
donor molecule, donor type, donor heavy atom, donor atom, acceptor molecule, acceptor atom, score
      P1  H  7997  8010       L1    15  1.00
      P1  H 10752 10763       L1    18  1.00

> <Gold.PLP.Chemscore.Internal.Correction>
1.0746

> <Gold.Rescore>
     Score         DG    S(hbond)    S(metal)    S(lipo)     H(rot)  DE(clash)    DE(int)     intcor
     16.65     -19.14       1.91        0.00      98.96       1.68       1.68       0.81       ----

> <Gold.Chemscore.Fitness>
16.6519

> <Gold.Chemscore.DG>
-19.1437

> <Gold.Chemscore.ZeroCoef>
-5.4800

> <Gold.Chemscore.Hbond>
1.9128

> <Gold.Chemscore.Metal>
0.0000

> <Gold.Chemscore.Lipo>
98.9572

> <Gold.Chemscore.Internal_Hbond>
0.0000

> <Gold.Chemscore.DEClash>
1.6799

> <Gold.Chemscore.DEInternal>
0.8119

> <Gold.Chemscore.Rot>
1.6809

> <Gold.Chemscore.Internal.Correction>
   9.000000E+99

> <Gold.Chemscore.Hbonds>
donor molecule, donor type, donor heavy atom, donor atom, acceptor molecule, acceptor atom, score
      P1  H  7997  8010       L1    15  0.91
      P1  H 10752 10763       L1    18  0.99

> <Gold.Chemscore.Hbond.Weighted>
-6.3887

> <Gold.Chemscore.Metal.Weighted>
-0.0000

> <Gold.Chemscore.Lipo.Weighted>
-11.5780

> <Gold.Chemscore.Internal_Hbond.Weighted>
0.0000

> <Gold.Chemscore.DEClash.Weighted>
1.6799

> <Gold.Chemscore.DEInternal.Weighted>
0.8119

> <Gold.Chemscore.Rot.Weighted>
4.3030

> <Gold.Chemscore.Internal.Correction.Weighted>
   9.000000E+99

> <Gold.Protein.RotatedTorsions>
[ 6907 6896 6895 6894 ] final -125.97 input  -60.11 | X-H torsion
[ 7974 7965 7964 7962 ] final  -87.36 input  175.53 | X-H torsion
[ 8008 7997 7996 7995 ] final   92.19 input   59.86 | X-H torsion
[ 10167 10162 10161 10158 ] final  159.01 input  -65.29 | X-H torsion
[ 10718 10713 10712 10709 ] final  171.13 input   66.30 | X-H torsion
[ 10763 10752 10751 10750 ] final   45.70 input  -60.55 | X-H torsion
[ 11005 11000 10999 10996 ] final -129.35 input  -57.11 | X-H torsion

> <Gold.Protein.ActiveResidues>
 VAL166  LYS551  ARG553  GLY616  TRP617  ASP618  TYR619  PRO620  LYS621  CYS622 
 ASP623  PHE694  ASN695  SER759  ASP760  ASP761  ALA762  ILE779  LEU786  VAL792 
 PHE793  MET794  SER795  GLU796  ALA797  LYS798  CYS799  TRP800  GLU811  SER814 

> <Gold.Protein.RotatedAtoms>
  150.8922  133.7229  159.2901 H   0  0  0  0  0  0  0  0  0  0  0  0  # atno 6907 bound_to 6896
  151.4775  135.1048  159.9778 H   0  0  0  0  0  0  0  0  0  0  0  0  # atno 6908 bound_to 6896
  152.4827  133.8246  159.7127 H   0  0  0  0  0  0  0  0  0  0  0  0  # atno 6909 bound_to 6896
  145.4676  140.9560  143.1935 H   0  0  0  0  0  0  0  0  0  0  0  0  # atno 7974 bound_to 7965
  156.0325  140.3328  155.7155 H   0  0  0  0  0  0  0  0  0  0  0  0  # atno 8008 bound_to 7997
  155.5863  140.0642  157.2788 H   0  0  0  0  0  0  0  0  0  0  0  0  # atno 8009 bound_to 7997
  154.4359  140.1835  156.1017 H   0  0  0  0  0  0  0  0  0  0  0  0  # atno 8010 bound_to 7997
  139.4830  144.4770  151.8497 H   0  0  0  0  0  0  0  0  0  0  0  0  # atno 10167 bound_to 10162
  156.9981  131.0168  151.2838 H   0  0  0  0  0  0  0  0  0  0  0  0  # atno 10718 bound_to 10713
  152.9820  135.6031  154.3480 H   0  0  0  0  0  0  0  0  0  0  0  0  # atno 10763 bound_to 10752
  154.3172  135.2770  155.2539 H   0  0  0  0  0  0  0  0  0  0  0  0  # atno 10764 bound_to 10752
  154.4722  135.5939  153.6386 H   0  0  0  0  0  0  0  0  0  0  0  0  # atno 10765 bound_to 10752
  140.9439  134.1156  157.4125 H   0  0  0  0  0  0  0  0  0  0  0  0  # atno 11005 bound_to 11000
  144.7965  139.6224  143.7090 LP  0  0  0  0  0  0  0  0  0  0  0  0  # atno 17320 bound_to 7965
  146.2415  139.6012  142.9488 LP  0  0  0  0  0  0  0  0  0  0  0  0  # atno 17321 bound_to 7965
  140.4244  144.2201  150.5887 LP  0  0  0  0  0  0  0  0  0  0  0  0  # atno 17342 bound_to 10162
  140.4842  143.2369  151.8911 LP  0  0  0  0  0  0  0  0  0  0  0  0  # atno 17343 bound_to 10162
  157.5410  130.8120  149.8029 LP  0  0  0  0  0  0  0  0  0  0  0  0  # atno 17370 bound_to 10713
  156.0181  130.3805  150.2046 LP  0  0  0  0  0  0  0  0  0  0  0  0  # atno 17371 bound_to 10713
  139.8828  135.0045  156.6254 LP  0  0  0  0  0  0  0  0  0  0  0  0  # atno 17394 bound_to 11000
  140.7696  133.8749  155.8481 LP  0  0  0  0  0  0  0  0  0  0  0  0  # atno 17395 bound_to 11000

$$$$
