AV-unprocessed.smi:187|AV-procd|sdf|1470|dock3
  -GOLD-   2262019283D 1   1.00000     0.00000
 Structure written by MMmdl.
 53 56  0  0  0  0  0  0  0  0  1 V2000
  149.5442  139.3778  154.1535 C   0  0  0  0  0  0  0  0  0  0  0  0
  148.1589  140.0477  154.0355 C   0  0  2  0  0  0  0  0  0  0  0  0
  148.2850  141.5557  154.3370 C   0  0  0  0  0  0  0  0  0  0  0  0
  146.9207  142.2656  154.2958 C   0  0  0  0  0  0  0  0  0  0  0  0
  145.8744  141.5744  155.1956 C   0  0  2  0  0  0  0  0  0  0  0  0
  146.1053  141.8501  156.6941 C   0  0  0  0  0  0  0  0  0  0  0  0
  146.0769  143.1273  157.0842 N   0  0  0  0  0  0  0  0  0  0  0  0
  146.2960  140.9351  157.4932 O   0  0  0  0  0  0  0  0  0  0  0  0
  145.8272  140.0659  154.8705 C   0  0  0  0  0  0  0  0  0  0  0  0
  147.1505  139.4400  154.9158 N   0  0  0  0  0  0  0  0  0  0  0  0
  147.0650  138.0926  154.8499 C   0  0  0  0  0  0  0  0  0  0  0  0
  147.5010  137.3318  155.8882 N   0  0  0  0  0  0  0  0  0  0  0  0
  147.3990  136.0009  155.8234 C   0  0  0  0  0  0  0  0  0  0  0  0
  146.9013  135.2487  154.8393 N   0  0  0  0  0  0  0  0  0  0  0  0
  146.4615  136.0130  153.7974 C   0  0  0  0  0  0  0  0  0  0  0  0
  146.5102  137.4327  153.7233 C   0  0  0  0  0  0  0  0  0  0  0  0
  145.9747  137.8697  152.5196 N   0  0  0  0  0  0  0  0  0  0  0  0
  145.6253  136.7679  151.9135 C   0  0  0  0  0  0  0  0  0  0  0  0
  145.8787  135.6048  152.6076 N   0  0  0  0  0  0  0  0  0  0  0  0
  145.5870  134.2686  152.1688 C   0  0  0  0  0  0  0  0  0  0  0  0
  146.0993  133.7433  150.8251 C   0  0  0  0  0  0  0  0  0  0  0  0
  144.8139  132.8949  150.6783 C   0  0  0  0  0  0  0  0  0  0  0  0
  144.1590  132.8444  149.2836 C   0  0  0  0  0  0  0  0  0  0  0  0
  142.9401  132.1281  149.2828 O   0  0  0  0  0  0  0  0  0  0  0  0
  144.9219  131.4446  151.1852 C   0  0  0  0  0  0  0  0  0  0  0  0
  146.1515  130.8531  150.8163 O   0  0  0  0  0  0  0  0  0  0  0  0
  144.1846  133.8723  151.6992 C   0  0  0  0  0  0  0  0  0  0  0  0
  150.2799  139.8908  153.5336 H   0  0  0  0  0  0  0  0  0  0  0  0
  149.5252  138.3378  153.8267 H   0  0  0  0  0  0  0  0  0  0  0  0
  149.9062  139.3983  155.1822 H   0  0  0  0  0  0  0  0  0  0  0  0
  147.8119  139.9357  153.0071 H   0  0  0  0  0  0  0  0  0  0  0  0
  148.7467  141.6994  155.3143 H   0  0  0  0  0  0  0  0  0  0  0  0
  148.9577  142.0233  153.6172 H   0  0  0  0  0  0  0  0  0  0  0  0
  147.0376  143.3125  154.5790 H   0  0  0  0  0  0  0  0  0  0  0  0
  146.5555  142.2713  153.2681 H   0  0  0  0  0  0  0  0  0  0  0  0
  144.8969  141.9888  154.9436 H   0  0  0  0  0  0  0  0  0  0  0  0
  146.2218  143.3621  158.0553 H   0  0  0  0  0  0  0  0  0  0  0  0
  145.9094  143.8544  156.4039 H   0  0  0  0  0  0  0  0  0  0  0  0
  145.1588  139.5595  155.5692 H   0  0  0  0  0  0  0  0  0  0  0  0
  145.3989  139.9265  153.8765 H   0  0  0  0  0  0  0  0  0  0  0  0
  147.7661  135.4609  156.6836 H   0  0  0  0  0  0  0  0  0  0  0  0
  145.1674  136.7766  150.9350 H   0  0  0  0  0  0  0  0  0  0  0  0
  145.9094  133.6023  152.9711 H   0  0  0  0  0  0  0  0  0  0  0  0
  146.1927  134.5260  150.0715 H   0  0  0  0  0  0  0  0  0  0  0  0
  147.0237  133.1692  150.8952 H   0  0  0  0  0  0  0  0  0  0  0  0
  143.9491  133.8475  148.9115 H   0  0  0  0  0  0  0  0  0  0  0  0
  144.8241  132.3730  148.5595 H   0  0  0  0  0  0  0  0  0  0  0  0
  142.2305  132.7410  149.3987 H   0  0  0  0  0  0  0  0  0  0  0  0
  144.8442  131.3996  152.2717 H   0  0  0  0  0  0  0  0  0  0  0  0
  144.1080  130.8318  150.7959 H   0  0  0  0  0  0  0  0  0  0  0  0
  146.8456  131.4724  150.9843 H   0  0  0  0  0  0  0  0  0  0  0  0
  143.5745  133.3979  152.4683 H   0  0  0  0  0  0  0  0  0  0  0  0
  143.6439  134.7014  151.2416 H   0  0  0  0  0  0  0  0  0  0  0  0
  1  2  1  0  0  0  0
  1 28  1  0  0  0  0
  1 29  1  0  0  0  0
  1 30  1  0  0  0  0
  2 10  1  0  0  0  0
  2  3  1  0  0  0  0
  2 31  1  0  0  0  0
  3  4  1  0  0  0  0
  3 32  1  0  0  0  0
  3 33  1  0  0  0  0
  4  5  1  0  0  0  0
  4 34  1  0  0  0  0
  4 35  1  0  0  0  0
  5  6  1  0  0  0  0
  5  9  1  0  0  0  0
  5 36  1  0  0  0  0
  6  7  1  0  0  0  0
  6  8  2  0  0  0  0
  7 37  1  0  0  0  0
  7 38  1  0  0  0  0
  9 10  1  0  0  0  0
  9 39  1  0  0  0  0
  9 40  1  0  0  0  0
 10 11  1  0  0  0  0
 11 16  1  0  0  0  0
 11 12  2  0  0  0  0
 12 13  1  0  0  0  0
 13 14  2  0  0  0  0
 13 41  1  0  0  0  0
 14 15  1  0  0  0  0
 15 19  1  0  0  0  0
 15 16  2  0  0  0  0
 16 17  1  0  0  0  0
 17 18  2  0  0  0  0
 18 19  1  0  0  0  0
 18 42  1  0  0  0  0
 19 20  1  0  0  0  0
 20 27  1  0  0  0  0
 20 21  1  0  0  0  0
 20 43  1  0  0  0  0
 21 22  1  0  0  0  0
 21 44  1  0  0  0  0
 21 45  1  0  0  0  0
 22 23  1  0  0  0  0
 22 25  1  0  0  0  0
 22 27  1  0  0  0  0
 23 24  1  0  0  0  0
 23 46  1  0  0  0  0
 23 47  1  0  0  0  0
 24 48  1  0  0  0  0
 25 26  1  0  0  0  0
 25 49  1  0  0  0  0
 25 50  1  0  0  0  0
 26 51  1  0  0  0  0
 27 52  1  0  0  0  0
 27 53  1  0  0  0  0
M  END
> <s_m_source_file>
AV-unprocessed.smi

> <i_m_source_file_index>
187

> <i_lp_mmshare_version>
43012

> <i_f3d_flags>
0

> <s_epik_input>
W0NIM11bQ0BASF0xW0NIMl1bQ0gyXVtDQEBIXShDKD1PKVtOSDJdKVtDSDJdTjFjKG5bY0hdbjIpYyhjMjMpbltjSF1uM1tDSF0oW0NIMl00KVtDSDJdQzQoW0NIMl1bT0hdKVtDSDJdW09IXQ==

> <s_epik_cmdline>
J2VwaWtfcHl0aG9uJywgJy1waCcsICc3LjAnLCAnLXRuJywgJzgnLCAnLW1hJywgJzIwMCcsICctbWV0YWxfYmluZGluZycsICctaW1hZScsICc8aW5maWxlLm1hZT4nLCAnLW9tYWUnLCAnPG91dGZpbGUubWFlPic=

> <r_lp_tautomer_probability>
1

> <r_epik_Ionization_Penalty>
0.0017711

> <r_epik_Ionization_Penalty_Charging>
0

> <r_epik_Ionization_Penalty_Neutral>
0.0017711

> <r_epik_State_Penalty>
0.00107211

> <r_epik_Charging_Adjusted_Penalty>
0.00107211

> <i_epik_Tot_Q>
0

> <i_epik_Tot_abs_Q>
0

> <r_epik_Metal_State_Penalty>
-0

> <b_epik_Metal_Only>
0

> <s_lp_Force_Field>
OPLS_2005

> <r_lp_Energy>
40.7321

> <b_lp_Chiralities_Consistent>
1

> <s_lp_Variant>
AV-unprocessed.smi:187-3

> <Gold.Version>
5.8.1

> <Gold.Id.Protein>
6NUR|6NUR_protein|mol2

> <Gold.PLP.Fitness>
44.8838

> <Gold.PLP.PLP>
-37.3273

> <Gold.PLP.part.hbond>
-4.0422

> <Gold.PLP.part.metal>
0.0000

> <Gold.PLP.part.buried>
-3.0924

> <Gold.PLP.part.nonpolar>
-30.1689

> <Gold.PLP.part.repulsive>
0.4363

> <Gold.PLP.ligand.clash>
0.0000

> <Gold.PLP.ligand.torsion>
0.8558

> <Gold.PLP.Chemscore.Hbond>
1.8870

> <Gold.PLP.Chemscore.CHOScore>
0.9917

> <Gold.PLP.Chemscore.Metal>
0.0000

> <Gold.Chemscore.Hbonds>
donor molecule, donor type, donor heavy atom, donor atom, acceptor molecule, acceptor atom, score
      L1  H    24    48       P1 10186  0.89
      L1  H    26    51       P1 10747  0.08
      P1  H 10785 10796       L1    24  0.89
      L1  C    18    42       P1 10171  1.00

> <Gold.PLP.Chemscore.Internal.Correction>
0.6321

> <Gold.Rescore>
     Score         DG    S(hbond)    S(metal)    S(lipo)     H(rot)  DE(clash)    DE(int)     intcor
      9.63     -10.39       1.83        0.00      77.12       3.99       0.02       0.75       ----

> <Gold.Chemscore.Fitness>
9.6250

> <Gold.Chemscore.DG>
-10.3913

> <Gold.Chemscore.ZeroCoef>
-5.4800

> <Gold.Chemscore.Hbond>
1.8271

> <Gold.Chemscore.Metal>
0.0000

> <Gold.Chemscore.Lipo>
77.1241

> <Gold.Chemscore.Internal_Hbond>
0.0000

> <Gold.Chemscore.DEClash>
0.0205

> <Gold.Chemscore.DEInternal>
0.7458

> <Gold.Chemscore.Rot>
3.9902

> <Gold.Chemscore.Internal.Correction>
   9.000000E+99

> <Gold.Chemscore.Hbonds>
donor molecule, donor type, donor heavy atom, donor atom, acceptor molecule, acceptor atom, score
      L1  H    24    48       P1 10186  0.87
      L1  H    26    51       P1 10747  0.09
      P1  H 10785 10796       L1    24  0.71

> <Gold.Chemscore.Hbond.Weighted>
-6.1026

> <Gold.Chemscore.Metal.Weighted>
-0.0000

> <Gold.Chemscore.Lipo.Weighted>
-9.0235

> <Gold.Chemscore.Internal_Hbond.Weighted>
0.0000

> <Gold.Chemscore.DEClash.Weighted>
0.0205

> <Gold.Chemscore.DEInternal.Weighted>
0.7458

> <Gold.Chemscore.Rot.Weighted>
10.2148

> <Gold.Chemscore.Internal.Correction.Weighted>
   9.000000E+99

> <Gold.Protein.RotatedTorsions>
[ 6907 6896 6895 6894 ] final  -92.25 input  -60.11 | X-H torsion
[ 7974 7965 7964 7962 ] final   76.77 input  175.53 | X-H torsion
[ 8008 7997 7996 7995 ] final  133.26 input   59.86 | X-H torsion
[ 10167 10162 10161 10158 ] final   -2.63 input  -65.29 | X-H torsion
[ 10718 10713 10712 10709 ] final  -39.31 input   66.30 | X-H torsion
[ 10763 10752 10751 10750 ] final  -75.69 input  -60.55 | X-H torsion
[ 11005 11000 10999 10996 ] final   89.94 input  -57.11 | X-H torsion

> <Gold.Protein.ActiveResidues>
 VAL166  LYS551  ARG553  GLY616  TRP617  ASP618  TYR619  PRO620  LYS621  CYS622 
 ASP623  PHE694  ASN695  SER759  ASP760  ASP761  ALA762  ILE779  LEU786  VAL792 
 PHE793  MET794  SER795  GLU796  ALA797  LYS798  CYS799  TRP800  GLU811  SER814 

> <Gold.Protein.RotatedAtoms>
  150.6903  134.2150  159.4374 H   0  0  0  0  0  0  0  0  0  0  0  0  # atno 6907 bound_to 6896
  152.0110  134.9874  160.0577 H   0  0  0  0  0  0  0  0  0  0  0  0  # atno 6908 bound_to 6896
  152.1488  133.4474  159.4840 H   0  0  0  0  0  0  0  0  0  0  0  0  # atno 6909 bound_to 6896
  145.6986  139.2575  143.1718 H   0  0  0  0  0  0  0  0  0  0  0  0  # atno 7974 bound_to 7965
  156.2990  140.2526  156.3224 H   0  0  0  0  0  0  0  0  0  0  0  0  # atno 8008 bound_to 7997
  154.9223  140.0400  157.2023 H   0  0  0  0  0  0  0  0  0  0  0  0  # atno 8009 bound_to 7997
  154.8299  140.2874  155.5733 H   0  0  0  0  0  0  0  0  0  0  0  0  # atno 8010 bound_to 7997
  140.6858  143.6634  150.8247 H   0  0  0  0  0  0  0  0  0  0  0  0  # atno 10167 bound_to 10162
  156.2939  130.4231  149.8211 H   0  0  0  0  0  0  0  0  0  0  0  0  # atno 10718 bound_to 10713
  154.4899  135.5823  153.6451 H   0  0  0  0  0  0  0  0  0  0  0  0  # atno 10763 bound_to 10752
  152.9860  135.6110  154.3138 H   0  0  0  0  0  0  0  0  0  0  0  0  # atno 10764 bound_to 10752
  154.3037  135.2846  155.2578 H   0  0  0  0  0  0  0  0  0  0  0  0  # atno 10765 bound_to 10752
  139.8865  134.8583  156.3213 H   0  0  0  0  0  0  0  0  0  0  0  0  # atno 11005 bound_to 11000
  146.0818  140.7756  142.9638 LP  0  0  0  0  0  0  0  0  0  0  0  0  # atno 17320 bound_to 7965
  144.6975  140.3500  143.7183 LP  0  0  0  0  0  0  0  0  0  0  0  0  # atno 17321 bound_to 7965
  140.0341  143.5413  152.2747 LP  0  0  0  0  0  0  0  0  0  0  0  0  # atno 17342 bound_to 10162
  139.6216  144.7630  151.2727 LP  0  0  0  0  0  0  0  0  0  0  0  0  # atno 17343 bound_to 10162
  156.5614  130.8385  151.3329 LP  0  0  0  0  0  0  0  0  0  0  0  0  # atno 17370 bound_to 10713
  157.7350  130.9755  150.2058 LP  0  0  0  0  0  0  0  0  0  0  0  0  # atno 17371 bound_to 10713
  140.9785  133.7282  156.0637 LP  0  0  0  0  0  0  0  0  0  0  0  0  # atno 17394 bound_to 11000
  140.7780  134.3757  157.5493 LP  0  0  0  0  0  0  0  0  0  0  0  0  # atno 17395 bound_to 11000

$$$$
