AV-unprocessed.smi:195|AV-procd|sdf|1525|dock6
  -GOLD-   2262019373D 1   1.00000     0.00000
 Structure written by MMmdl.
 45 48  0  0  0  0  0  0  0  0  1 V2000
  145.3540  143.9018  153.9518 N   0  0  0  0  0  0  0  0  0  0  0  0
  146.1055  143.0711  153.6619 C   0  0  0  0  0  0  0  0  0  0  0  0
  147.0608  142.0139  153.2929 C   0  0  0  0  0  0  0  0  0  0  0  0
  148.1414  141.7751  154.3513 C   0  0  0  0  0  0  0  0  0  0  0  0
  148.8990  142.9673  154.3392 O   0  0  0  0  0  0  0  0  0  0  0  0
  147.6864  141.3144  155.7388 C   0  0  0  0  0  0  0  0  0  0  0  0
  148.3308  140.0283  155.4947 N   0  0  0  0  0  0  0  0  0  0  0  0
  147.4148  138.9473  155.3517 C   0  0  0  0  0  0  0  0  0  0  0  0
  146.9689  138.2405  156.4256 N   0  0  0  0  0  0  0  0  0  0  0  0
  146.1115  137.2268  156.2733 C   0  0  0  0  0  0  0  0  0  0  0  0
  145.5729  136.7532  155.1490 N   0  0  0  0  0  0  0  0  0  0  0  0
  146.0109  137.4534  154.0648 C   0  0  0  0  0  0  0  0  0  0  0  0
  146.9226  138.5467  154.0799 C   0  0  0  0  0  0  0  0  0  0  0  0
  147.1374  139.0019  152.7849 N   0  0  0  0  0  0  0  0  0  0  0  0
  146.3913  138.2261  152.0463 C   0  0  0  0  0  0  0  0  0  0  0  0
  145.6814  137.2683  152.7339 N   0  0  0  0  0  0  0  0  0  0  0  0
  144.7786  136.2836  152.1634 C   0  0  0  0  0  0  0  0  0  0  0  0
  145.5164  135.2248  151.3216 C   0  0  1  0  0  0  0  0  0  0  0  0
  146.5338  134.6309  152.1050 O   0  0  0  0  0  0  0  0  0  0  0  0
  144.5684  134.1209  150.8188 C   0  0  2  0  0  0  0  0  0  0  0  0
  143.7387  133.4461  151.9141 C   0  0  0  0  0  0  0  0  0  0  0  0
  143.4681  132.0533  151.3635 C   0  0  0  0  0  0  0  0  0  0  0  0
  144.4050  131.9385  150.1590 C   0  0  0  0  0  0  0  0  0  0  0  0
  145.3063  133.0269  150.2955 O   0  0  0  0  0  0  0  0  0  0  0  0
  148.9679  140.4877  154.2637 C   0  0  0  0  0  0  0  0  0  0  0  0
  146.4927  141.1038  153.0971 H   0  0  0  0  0  0  0  0  0  0  0  0
  147.5002  142.3047  152.3402 H   0  0  0  0  0  0  0  0  0  0  0  0
  148.9732  143.2564  155.2361 H   0  0  0  0  0  0  0  0  0  0  0  0
  148.1622  141.8566  156.5569 H   0  0  0  0  0  0  0  0  0  0  0  0
  146.6034  141.2646  155.8629 H   0  0  0  0  0  0  0  0  0  0  0  0
  145.8155  136.7238  157.1822 H   0  0  0  0  0  0  0  0  0  0  0  0
  146.3381  138.3301  150.9722 H   0  0  0  0  0  0  0  0  0  0  0  0
  144.2182  135.8088  152.9700 H   0  0  0  0  0  0  0  0  0  0  0  0
  144.0490  136.8128  151.5496 H   0  0  0  0  0  0  0  0  0  0  0  0
  145.9901  135.7106  150.4675 H   0  0  0  0  0  0  0  0  0  0  0  0
  147.1474  135.3034  152.3581 H   0  0  0  0  0  0  0  0  0  0  0  0
  143.9103  134.5074  150.0375 H   0  0  0  0  0  0  0  0  0  0  0  0
  144.3186  133.3661  152.8344 H   0  0  0  0  0  0  0  0  0  0  0  0
  142.8249  133.9954  152.1422 H   0  0  0  0  0  0  0  0  0  0  0  0
  143.6892  131.2942  152.1146 H   0  0  0  0  0  0  0  0  0  0  0  0
  142.4279  131.9325  151.0590 H   0  0  0  0  0  0  0  0  0  0  0  0
  144.9356  130.9865  150.1276 H   0  0  0  0  0  0  0  0  0  0  0  0
  143.8478  132.0494  149.2276 H   0  0  0  0  0  0  0  0  0  0  0  0
  148.7713  139.8758  153.3823 H   0  0  0  0  0  0  0  0  0  0  0  0
  150.0372  140.6510  154.4032 H   0  0  0  0  0  0  0  0  0  0  0  0
  1  2  3  0  0  0  0
  2  3  1  0  0  0  0
  3  4  1  0  0  0  0
  3 26  1  0  0  0  0
  3 27  1  0  0  0  0
  4 25  1  0  0  0  0
  4  5  1  0  0  0  0
  4  6  1  0  0  0  0
  5 28  1  0  0  0  0
  6  7  1  0  0  0  0
  6 29  1  0  0  0  0
  6 30  1  0  0  0  0
  7  8  1  0  0  0  0
  7 25  1  0  0  0  0
  8 13  1  0  0  0  0
  8  9  2  0  0  0  0
  9 10  1  0  0  0  0
 10 11  2  0  0  0  0
 10 31  1  0  0  0  0
 11 12  1  0  0  0  0
 12 16  1  0  0  0  0
 12 13  2  0  0  0  0
 13 14  1  0  0  0  0
 14 15  2  0  0  0  0
 15 16  1  0  0  0  0
 15 32  1  0  0  0  0
 16 17  1  0  0  0  0
 17 18  1  0  0  0  0
 17 33  1  0  0  0  0
 17 34  1  0  0  0  0
 18 19  1  0  0  0  0
 18 20  1  0  0  0  0
 18 35  1  0  0  0  0
 19 36  1  0  0  0  0
 20 24  1  0  0  0  0
 20 21  1  0  0  0  0
 20 37  1  0  0  0  0
 21 22  1  0  0  0  0
 21 38  1  0  0  0  0
 21 39  1  0  0  0  0
 22 23  1  0  0  0  0
 22 40  1  0  0  0  0
 22 41  1  0  0  0  0
 23 24  1  0  0  0  0
 23 42  1  0  0  0  0
 23 43  1  0  0  0  0
 25 44  1  0  0  0  0
 25 45  1  0  0  0  0
M  END
> <s_m_source_file>
AV-unprocessed.smi

> <i_m_source_file_index>
195

> <i_lp_mmshare_version>
43012

> <i_f3d_flags>
0

> <s_epik_input>
TiNDW0NIMl1DMShbT0hdKVtDSDJdTihbQ0gyXTEpYyhuW2NIXW4yKWMoYzIzKW5bY0hdbjNbQ0gyXVtDQEhdKFtPSF0pW0NAQEhdNFtDSDJdW0NIMl1bQ0gyXU80

> <s_epik_cmdline>
J2VwaWtfcHl0aG9uJywgJy1waCcsICc3LjAnLCAnLXRuJywgJzgnLCAnLW1hJywgJzIwMCcsICctbWV0YWxfYmluZGluZycsICctaW1hZScsICc8aW5maWxlLm1hZT4nLCAnLW9tYWUnLCAnPG91dGZpbGUubWFlPic=

> <r_lp_tautomer_probability>
1

> <r_epik_Ionization_Penalty>
0.00307146

> <r_epik_Ionization_Penalty_Charging>
0

> <r_epik_Ionization_Penalty_Neutral>
0.00307146

> <r_epik_State_Penalty>
0.0020279

> <r_epik_Charging_Adjusted_Penalty>
0.0020279

> <i_epik_Tot_Q>
0

> <i_epik_Tot_abs_Q>
0

> <r_epik_Metal_State_Penalty>
-0

> <b_epik_Metal_Only>
0

> <s_lp_Force_Field>
OPLS_2005

> <r_lp_Energy>
44.0633

> <b_lp_Chiralities_Consistent>
1

> <s_lp_Variant>
AV-unprocessed.smi:195-2

> <Gold.Version>
5.8.1

> <Gold.Id.Protein>
6NUR|6NUR_protein|mol2

> <Gold.PLP.Fitness>
44.4809

> <Gold.PLP.PLP>
-36.3760

> <Gold.PLP.part.hbond>
-2.6354

> <Gold.PLP.part.metal>
0.0000

> <Gold.PLP.part.buried>
-4.1480

> <Gold.PLP.part.nonpolar>
-31.8466

> <Gold.PLP.part.repulsive>
2.8517

> <Gold.PLP.ligand.clash>
0.0000

> <Gold.PLP.ligand.torsion>
0.7938

> <Gold.PLP.Chemscore.Hbond>
2.2880

> <Gold.PLP.Chemscore.CHOScore>
0.8455

> <Gold.PLP.Chemscore.Metal>
0.0000

> <Gold.Chemscore.Hbonds>
donor molecule, donor type, donor heavy atom, donor atom, acceptor molecule, acceptor atom, score
      L1  H     5    28       P1  8028  0.43
      L1  H    19    36       P1  7948  0.79
      P1  H  8022  8030       L1     5  0.75
      L1  C    15    32       P1 10171  0.40

> <Gold.PLP.Chemscore.Internal.Correction>
0.2920

> <Gold.Rescore>
     Score         DG    S(hbond)    S(metal)    S(lipo)     H(rot)  DE(clash)    DE(int)     intcor
      6.11      -9.97       1.72        0.00      70.68       3.72       1.13       2.73       ----

> <Gold.Chemscore.Fitness>
6.1087

> <Gold.Chemscore.DG>
-9.9718

> <Gold.Chemscore.ZeroCoef>
-5.4800

> <Gold.Chemscore.Hbond>
1.7209

> <Gold.Chemscore.Metal>
0.0000

> <Gold.Chemscore.Lipo>
70.6811

> <Gold.Chemscore.Internal_Hbond>
0.0000

> <Gold.Chemscore.DEClash>
1.1337

> <Gold.Chemscore.DEInternal>
2.7294

> <Gold.Chemscore.Rot>
3.7210

> <Gold.Chemscore.Internal.Correction>
   9.000000E+99

> <Gold.Chemscore.Hbonds>
donor molecule, donor type, donor heavy atom, donor atom, acceptor molecule, acceptor atom, score
      L1  H     5    28       P1  8028  0.40
      L1  H    19    36       P1  7948  0.75
      P1  H  8022  8030       L1     5  0.09

> <Gold.Chemscore.Hbond.Weighted>
-5.7478

> <Gold.Chemscore.Metal.Weighted>
-0.0000

> <Gold.Chemscore.Lipo.Weighted>
-8.2697

> <Gold.Chemscore.Internal_Hbond.Weighted>
0.0000

> <Gold.Chemscore.DEClash.Weighted>
1.1337

> <Gold.Chemscore.DEInternal.Weighted>
2.7294

> <Gold.Chemscore.Rot.Weighted>
9.5256

> <Gold.Chemscore.Internal.Correction.Weighted>
   9.000000E+99

> <Gold.Protein.RotatedTorsions>
[ 6907 6896 6895 6894 ] final   17.39 input  -60.11 | X-H torsion
[ 7974 7965 7964 7962 ] final -139.68 input  175.53 | X-H torsion
[ 8008 7997 7996 7995 ] final  143.58 input   59.86 | X-H torsion
[ 10167 10162 10161 10158 ] final  -68.51 input  -65.29 | X-H torsion
[ 10718 10713 10712 10709 ] final  -41.87 input   66.30 | X-H torsion
[ 10763 10752 10751 10750 ] final -130.23 input  -60.55 | X-H torsion
[ 11005 11000 10999 10996 ] final  -66.64 input  -57.11 | X-H torsion

> <Gold.Protein.ActiveResidues>
 VAL166  LYS551  ARG553  GLY616  TRP617  ASP618  TYR619  PRO620  LYS621  CYS622 
 ASP623  PHE694  ASN695  SER759  ASP760  ASP761  ALA762  ILE779  LEU786  VAL792 
 PHE793  MET794  SER795  GLU796  ALA797  LYS798  CYS799  TRP800  GLU811  SER814 

> <Gold.Protein.RotatedAtoms>
  151.8488  135.0565  160.0456 H   0  0  0  0  0  0  0  0  0  0  0  0  # atno 6907 bound_to 6896
  152.2752  133.5415  159.5472 H   0  0  0  0  0  0  0  0  0  0  0  0  # atno 6908 bound_to 6896
  150.7167  134.0557  159.3856 H   0  0  0  0  0  0  0  0  0  0  0  0  # atno 6909 bound_to 6896
  144.8658  140.6290  143.5299 H   0  0  0  0  0  0  0  0  0  0  0  0  # atno 7974 bound_to 7965
  156.2927  140.2258  156.4913 H   0  0  0  0  0  0  0  0  0  0  0  0  # atno 8008 bound_to 7997
  154.7768  140.0463  157.1117 H   0  0  0  0  0  0  0  0  0  0  0  0  # atno 8009 bound_to 7997
  154.9806  140.3078  155.4951 H   0  0  0  0  0  0  0  0  0  0  0  0  # atno 8010 bound_to 7997
  140.5502  143.2312  151.6926 H   0  0  0  0  0  0  0  0  0  0  0  0  # atno 10167 bound_to 10162
  156.2657  130.4201  149.8493 H   0  0  0  0  0  0  0  0  0  0  0  0  # atno 10718 bound_to 10713
  154.8756  135.3869  154.4050 H   0  0  0  0  0  0  0  0  0  0  0  0  # atno 10763 bound_to 10752
  153.4770  135.7030  153.5965 H   0  0  0  0  0  0  0  0  0  0  0  0  # atno 10764 bound_to 10752
  153.4397  135.3859  155.2188 H   0  0  0  0  0  0  0  0  0  0  0  0  # atno 10765 bound_to 10752
  141.1487  133.6703  156.6170 H   0  0  0  0  0  0  0  0  0  0  0  0  # atno 11005 bound_to 11000
  145.4225  139.1561  143.4066 LP  0  0  0  0  0  0  0  0  0  0  0  0  # atno 17320 bound_to 7965
  146.2894  140.4336  142.8745 LP  0  0  0  0  0  0  0  0  0  0  0  0  # atno 17321 bound_to 7965
  139.5024  144.3830  152.0356 LP  0  0  0  0  0  0  0  0  0  0  0  0  # atno 17342 bound_to 10162
  140.2947  144.3714  150.6078 LP  0  0  0  0  0  0  0  0  0  0  0  0  # atno 17343 bound_to 10162
  156.5992  130.8539  151.3427 LP  0  0  0  0  0  0  0  0  0  0  0  0  # atno 17370 bound_to 10713
  157.7266  130.9632  150.1664 LP  0  0  0  0  0  0  0  0  0  0  0  0  # atno 17371 bound_to 10713
  140.3570  134.7720  157.4507 LP  0  0  0  0  0  0  0  0  0  0  0  0  # atno 17394 bound_to 11000
  140.0815  134.5724  155.8535 LP  0  0  0  0  0  0  0  0  0  0  0  0  # atno 17395 bound_to 11000

$$$$
