AV-unprocessed.smi:196|AV-procd|sdf|1534|dock2
  -GOLD-   2262019383D 1   1.00000     0.00000
 Structure written by MMmdl.
 47 50  0  0  0  0  0  0  0  0  1 V2000
  147.2227  133.2890  150.9958 C   0  0  0  0  0  0  0  0  0  0  0  0
  145.9011  133.4888  151.7573 C   0  0  2  0  0  0  0  0  0  0  0  0
  145.2133  132.2368  151.7292 O   0  0  0  0  0  0  0  0  0  0  0  0
  143.8604  132.4260  151.3429 C   0  0  0  0  0  0  0  0  0  0  0  0
  143.9206  133.6420  150.4331 C   0  0  0  0  0  0  0  0  0  0  0  0
  144.9253  134.5334  151.1551 C   0  0  2  0  0  0  0  0  0  0  0  0
  145.5424  135.3849  150.2044 O   0  0  0  0  0  0  0  0  0  0  0  0
  144.3011  135.4173  152.2680 C   0  0  0  0  0  0  0  0  0  0  0  0
  145.2113  136.4060  152.8252 N   0  0  0  0  0  0  0  0  0  0  0  0
  145.1695  137.7689  152.6351 C   0  0  0  0  0  0  0  0  0  0  0  0
  146.1037  138.4448  153.2466 N   0  0  0  0  0  0  0  0  0  0  0  0
  146.8525  137.4739  153.8993 C   0  0  0  0  0  0  0  0  0  0  0  0
  148.0012  137.5056  154.7346 C   0  0  0  0  0  0  0  0  0  0  0  0
  148.6022  138.6671  155.0936 N   0  0  0  0  0  0  0  0  0  0  0  0
  147.7258  139.7580  155.5151 C   0  0  0  0  0  0  0  0  0  0  0  0
  147.7756  140.7753  154.3828 C   0  0  1  0  0  0  0  0  0  0  0  0
  147.4516  142.0052  154.7809 F   0  0  0  0  0  0  0  0  0  0  0  0
  149.2243  140.6691  153.9277 C   0  0  0  0  0  0  0  0  0  0  0  0
  149.5574  139.1720  154.0926 C   0  0  1  0  0  0  0  0  0  0  0  0
  151.0340  138.9666  154.4757 C   0  0  0  0  0  0  0  0  0  0  0  0
  151.4904  137.7207  154.6382 N   0  0  0  0  0  0  0  0  0  0  0  0
  151.7656  139.9433  154.6206 O   0  0  0  0  0  0  0  0  0  0  0  0
  148.4713  136.3202  155.2073 N   0  0  0  0  0  0  0  0  0  0  0  0
  147.8639  135.1771  154.8753 C   0  0  0  0  0  0  0  0  0  0  0  0
  146.7882  134.9966  154.1061 N   0  0  0  0  0  0  0  0  0  0  0  0
  146.3103  136.1848  153.6368 C   0  0  0  0  0  0  0  0  0  0  0  0
  147.0972  140.4914  153.5767 H   0  0  0  0  0  0  0  0  0  0  0  0
  149.3910  138.6757  153.1335 H   0  0  0  0  0  0  0  0  0  0  0  0
  147.8287  134.1951  151.0085 H   0  0  0  0  0  0  0  0  0  0  0  0
  147.0446  133.0151  149.9554 H   0  0  0  0  0  0  0  0  0  0  0  0
  147.8141  132.4937  151.4497 H   0  0  0  0  0  0  0  0  0  0  0  0
  146.1320  133.7345  152.7948 H   0  0  0  0  0  0  0  0  0  0  0  0
  143.4591  131.5442  150.8432 H   0  0  0  0  0  0  0  0  0  0  0  0
  143.2518  132.6267  152.2254 H   0  0  0  0  0  0  0  0  0  0  0  0
  144.3142  133.3346  149.4626 H   0  0  0  0  0  0  0  0  0  0  0  0
  142.9468  134.0973  150.2583 H   0  0  0  0  0  0  0  0  0  0  0  0
  145.5681  134.9361  149.3735 H   0  0  0  0  0  0  0  0  0  0  0  0
  143.4238  135.9425  151.8886 H   0  0  0  0  0  0  0  0  0  0  0  0
  143.9413  134.7902  153.0850 H   0  0  0  0  0  0  0  0  0  0  0  0
  144.4168  138.2499  152.0271 H   0  0  0  0  0  0  0  0  0  0  0  0
  146.7047  139.4500  155.7463 H   0  0  0  0  0  0  0  0  0  0  0  0
  148.1431  140.1855  156.4277 H   0  0  0  0  0  0  0  0  0  0  0  0
  149.3636  141.0197  152.9045 H   0  0  0  0  0  0  0  0  0  0  0  0
  149.8527  141.2835  154.5759 H   0  0  0  0  0  0  0  0  0  0  0  0
  152.4547  137.5684  154.8965 H   0  0  0  0  0  0  0  0  0  0  0  0
  150.8673  136.9370  154.5090 H   0  0  0  0  0  0  0  0  0  0  0  0
  148.3005  134.2792  155.2875 H   0  0  0  0  0  0  0  0  0  0  0  0
  1  2  1  0  0  0  0
  1 29  1  0  0  0  0
  1 30  1  0  0  0  0
  1 31  1  0  0  0  0
  2  6  1  0  0  0  0
  2  3  1  0  0  0  0
  2 32  1  0  0  0  0
  3  4  1  0  0  0  0
  4  5  1  0  0  0  0
  4 33  1  0  0  0  0
  4 34  1  0  0  0  0
  5  6  1  0  0  0  0
  5 35  1  0  0  0  0
  5 36  1  0  0  0  0
  6  7  1  0  0  0  0
  6  8  1  0  0  0  0
  7 37  1  0  0  0  0
  8  9  1  0  0  0  0
  8 38  1  0  0  0  0
  8 39  1  0  0  0  0
  9 26  1  0  0  0  0
  9 10  1  0  0  0  0
 10 11  2  0  0  0  0
 10 40  1  0  0  0  0
 11 12  1  0  0  0  0
 12 26  2  0  0  0  0
 12 13  1  0  0  0  0
 13 14  1  0  0  0  0
 13 23  2  0  0  0  0
 14 19  1  0  0  0  0
 14 15  1  0  0  0  0
 15 16  1  0  0  0  0
 15 41  1  0  0  0  0
 15 42  1  0  0  0  0
 16 27  1  0  0  0  0
 16 17  1  0  0  0  0
 16 18  1  0  0  0  0
 18 19  1  0  0  0  0
 18 43  1  0  0  0  0
 18 44  1  0  0  0  0
 19 28  1  0  0  0  0
 19 20  1  0  0  0  0
 20 21  1  0  0  0  0
 20 22  2  0  0  0  0
 21 45  1  0  0  0  0
 21 46  1  0  0  0  0
 23 24  1  0  0  0  0
 24 25  2  0  0  0  0
 24 47  1  0  0  0  0
 25 26  1  0  0  0  0
M  END
> <s_m_source_file>
AV-unprocessed.smi

> <i_m_source_file_index>
196

> <i_lp_mmshare_version>
43012

> <i_f3d_flags>
0

> <s_epik_input>
W0NIMl0xW0NIMl1PW0NAQEhdKFtDSDNdKVtDQEBdMShbT0hdKVtDSDJdbihbY0hdbjIpYyhjMjMpbltjSF1uYzNONFtDSDJdW0NASF0oRilbQ0gyXVtDQEhdNEMoPU8pW05IMl0=

> <s_epik_cmdline>
J2VwaWtfcHl0aG9uJywgJy1waCcsICc3LjAnLCAnLXRuJywgJzgnLCAnLW1hJywgJzIwMCcsICctbWV0YWxfYmluZGluZycsICctaW1hZScsICc8aW5maWxlLm1hZT4nLCAnLW9tYWUnLCAnPG91dGZpbGUubWFlPic=

> <r_lp_tautomer_probability>
1

> <r_epik_Ionization_Penalty>
0.000857933

> <r_epik_Ionization_Penalty_Charging>
0

> <r_epik_Ionization_Penalty_Neutral>
0.000857933

> <r_epik_State_Penalty>
0.000462053

> <r_epik_Charging_Adjusted_Penalty>
0.000462053

> <i_epik_Tot_Q>
0

> <i_epik_Tot_abs_Q>
0

> <r_epik_Metal_State_Penalty>
-0

> <b_epik_Metal_Only>
0

> <s_lp_Force_Field>
OPLS_2005

> <r_lp_Energy>
47.3735

> <b_lp_Chiralities_Consistent>
1

> <s_lp_Variant>
AV-unprocessed.smi:196-7

> <Gold.Version>
5.8.1

> <Gold.Id.Protein>
6NUR|6NUR_protein|mol2

> <Gold.PLP.Fitness>
39.2424

> <Gold.PLP.PLP>
-29.0800

> <Gold.PLP.part.hbond>
-2.0000

> <Gold.PLP.part.metal>
0.0000

> <Gold.PLP.part.buried>
-0.4829

> <Gold.PLP.part.nonpolar>
-26.2412

> <Gold.PLP.part.repulsive>
0.7274

> <Gold.PLP.ligand.clash>
0.0000

> <Gold.PLP.ligand.torsion>
0.7119

> <Gold.PLP.Chemscore.Hbond>
2.0000

> <Gold.PLP.Chemscore.CHOScore>
1.8239

> <Gold.PLP.Chemscore.Metal>
0.0000

> <Gold.Chemscore.Hbonds>
donor molecule, donor type, donor heavy atom, donor atom, acceptor molecule, acceptor atom, score
      L1  H     7    37       P1  7921  1.00
      P1  H  7989  7998       L1    22  0.80
      L1  C    10    40       P1 10171  1.00
      L1  C    10    40       P1 10175  0.86

> <Gold.PLP.Chemscore.Internal.Correction>
0.1143

> <Gold.Rescore>
     Score         DG    S(hbond)    S(metal)    S(lipo)     H(rot)  DE(clash)    DE(int)     intcor
      9.69     -11.39       1.98        0.00      60.64       3.04       1.05       0.65       ----

> <Gold.Chemscore.Fitness>
9.6860

> <Gold.Chemscore.DG>
-11.3897

> <Gold.Chemscore.ZeroCoef>
-5.4800

> <Gold.Chemscore.Hbond>
1.9764

> <Gold.Chemscore.Metal>
0.0000

> <Gold.Chemscore.Lipo>
60.6353

> <Gold.Chemscore.Internal_Hbond>
0.0000

> <Gold.Chemscore.DEClash>
1.0518

> <Gold.Chemscore.DEInternal>
0.6519

> <Gold.Chemscore.Rot>
3.0413

> <Gold.Chemscore.Internal.Correction>
   9.000000E+99

> <Gold.Chemscore.Hbonds>
donor molecule, donor type, donor heavy atom, donor atom, acceptor molecule, acceptor atom, score
      L1  H     7    37       P1  7921  0.94
      P1  H  7989  7998       L1    22  0.62

> <Gold.Chemscore.Hbond.Weighted>
-6.6010

> <Gold.Chemscore.Metal.Weighted>
-0.0000

> <Gold.Chemscore.Lipo.Weighted>
-7.0943

> <Gold.Chemscore.Internal_Hbond.Weighted>
0.0000

> <Gold.Chemscore.DEClash.Weighted>
1.0518

> <Gold.Chemscore.DEInternal.Weighted>
0.6519

> <Gold.Chemscore.Rot.Weighted>
7.7856

> <Gold.Chemscore.Internal.Correction.Weighted>
   9.000000E+99

> <Gold.Protein.RotatedTorsions>
[ 6907 6896 6895 6894 ] final  -37.29 input  -60.11 | X-H torsion
[ 7974 7965 7964 7962 ] final  120.67 input  175.53 | X-H torsion
[ 8008 7997 7996 7995 ] final  157.50 input   59.86 | X-H torsion
[ 10167 10162 10161 10158 ] final  123.31 input  -65.29 | X-H torsion
[ 10718 10713 10712 10709 ] final   77.79 input   66.30 | X-H torsion
[ 10763 10752 10751 10750 ] final  129.81 input  -60.55 | X-H torsion
[ 11005 11000 10999 10996 ] final  171.50 input  -57.11 | X-H torsion

> <Gold.Protein.ActiveResidues>
 VAL166  LYS551  ARG553  GLY616  TRP617  ASP618  TYR619  PRO620  LYS621  CYS622 
 ASP623  PHE694  ASN695  SER759  ASP760  ASP761  ALA762  ILE779  LEU786  VAL792 
 PHE793  MET794  SER795  GLU796  ALA797  LYS798  CYS799  TRP800  GLU811  SER814 

> <Gold.Protein.RotatedAtoms>
  151.0165  134.9436  159.8035 H   0  0  0  0  0  0  0  0  0  0  0  0  # atno 6907 bound_to 6896
  152.5315  134.2960  159.9070 H   0  0  0  0  0  0  0  0  0  0  0  0  # atno 6908 bound_to 6896
  151.2966  133.4099  159.2671 H   0  0  0  0  0  0  0  0  0  0  0  0  # atno 6909 bound_to 6896
  145.1284  139.3343  143.4678 H   0  0  0  0  0  0  0  0  0  0  0  0  # atno 7974 bound_to 7965
  156.2360  140.1883  156.7118 H   0  0  0  0  0  0  0  0  0  0  0  0  # atno 8008 bound_to 7997
  154.6107  140.0622  156.9517 H   0  0  0  0  0  0  0  0  0  0  0  0  # atno 8009 bound_to 7997
  155.2021  140.3293  155.4344 H   0  0  0  0  0  0  0  0  0  0  0  0  # atno 8010 bound_to 7997
  139.5807  144.6984  151.3537 H   0  0  0  0  0  0  0  0  0  0  0  0  # atno 10167 bound_to 10162
  157.6723  130.9838  150.1693 H   0  0  0  0  0  0  0  0  0  0  0  0  # atno 10718 bound_to 10713
  153.7477  135.3214  155.3315 H   0  0  0  0  0  0  0  0  0  0  0  0  # atno 10763 bound_to 10752
  154.8273  135.4560  154.0963 H   0  0  0  0  0  0  0  0  0  0  0  0  # atno 10764 bound_to 10752
  153.2156  135.6941  153.8143 H   0  0  0  0  0  0  0  0  0  0  0  0  # atno 10765 bound_to 10752
  140.3197  134.7448  157.4054 H   0  0  0  0  0  0  0  0  0  0  0  0  # atno 11005 bound_to 11000
  146.3516  140.1273  142.8598 LP  0  0  0  0  0  0  0  0  0  0  0  0  # atno 17320 bound_to 7965
  145.0662  140.9123  143.4909 LP  0  0  0  0  0  0  0  0  0  0  0  0  # atno 17321 bound_to 7965
  140.7085  143.7452  150.7524 LP  0  0  0  0  0  0  0  0  0  0  0  0  # atno 17342 bound_to 10162
  140.0983  143.4812  152.2440 LP  0  0  0  0  0  0  0  0  0  0  0  0  # atno 17343 bound_to 10162
  156.2451  130.3695  149.8294 LP  0  0  0  0  0  0  0  0  0  0  0  0  # atno 17370 bound_to 10713
  156.6083  130.8576  151.3448 LP  0  0  0  0  0  0  0  0  0  0  0  0  # atno 17371 bound_to 10713
  140.0953  134.5546  155.8404 LP  0  0  0  0  0  0  0  0  0  0  0  0  # atno 17394 bound_to 11000
  141.2089  133.6679  156.6405 LP  0  0  0  0  0  0  0  0  0  0  0  0  # atno 17395 bound_to 11000

$$$$
