AV-unprocessed.smi:3017|AV-procd|sdf|11477|dock2
  -GOLD-   2272016413D 1   1.00000     0.00000
 Structure written by MMmdl.
 37 38  0  0  0  0  0  0  0  0  1 V2000
  151.8892  145.6042  159.7519 C   0  0  0  0  0  0  0  0  0  0  0  0
  151.6490  144.1098  159.4943 C   0  0  2  0  0  0  0  0  0  0  0  0
  152.8636  143.2632  159.9211 C   0  0  0  0  0  0  0  0  0  0  0  0
  152.6273  141.7676  159.6590 C   0  0  0  0  0  0  0  0  0  0  0  0
  152.2737  141.5129  158.1862 C   0  0  0  0  0  0  0  0  0  0  0  0
  151.0526  142.3407  157.7524 C   0  0  2  0  0  0  0  0  0  0  0  0
  150.8511  142.0975  156.3668 O   0  0  0  0  0  0  0  0  0  0  0  0
  150.7893  140.7219  156.0107 C   0  0  0  0  0  0  0  0  0  0  0  0
  149.6588  140.5138  155.0029 C   0  0  0  0  0  0  0  0  0  0  0  0
  149.4961  141.3361  154.1015 O   0  0  0  0  0  0  0  0  0  0  0  0
  148.8905  139.4245  155.1926 N   0  0  0  0  0  0  0  0  0  0  0  0
  147.7929  138.9767  154.4124 C   0  0  0  0  0  0  0  0  0  0  0  0
  147.7284  139.4863  153.0939 C   0  0  0  0  0  0  0  0  0  0  0  0
  146.7414  139.1559  152.2316 N   0  0  0  0  0  0  0  0  0  0  0  0
  145.8006  138.3027  152.6892 C   0  0  0  0  0  0  0  0  0  0  0  0
  145.8490  137.7845  153.9988 C   0  0  0  0  0  0  0  0  0  0  0  0
  146.8384  138.1187  154.8556 N   0  0  0  0  0  0  0  0  0  0  0  0
  151.2939  143.8416  158.0181 C   0  0  0  0  0  0  0  0  0  0  0  0
  152.7291  145.9778  159.1654 H   0  0  0  0  0  0  0  0  0  0  0  0
  152.1083  145.7908  160.8035 H   0  0  0  0  0  0  0  0  0  0  0  0
  151.0108  146.1942  159.4892 H   0  0  0  0  0  0  0  0  0  0  0  0
  150.7975  143.8052  160.1047 H   0  0  0  0  0  0  0  0  0  0  0  0
  153.7512  143.5913  159.3783 H   0  0  0  0  0  0  0  0  0  0  0  0
  153.0748  143.4191  160.9796 H   0  0  0  0  0  0  0  0  0  0  0  0
  153.5159  141.1976  159.9316 H   0  0  0  0  0  0  0  0  0  0  0  0
  151.8199  141.4066  160.2972 H   0  0  0  0  0  0  0  0  0  0  0  0
  153.1299  141.7636  157.5582 H   0  0  0  0  0  0  0  0  0  0  0  0
  152.0772  140.4514  158.0313 H   0  0  0  0  0  0  0  0  0  0  0  0
  150.1861  141.9979  158.3212 H   0  0  0  0  0  0  0  0  0  0  0  0
  151.7288  140.4025  155.5573 H   0  0  0  0  0  0  0  0  0  0  0  0
  150.6113  140.0983  156.8871 H   0  0  0  0  0  0  0  0  0  0  0  0
  149.1352  138.8402  155.9790 H   0  0  0  0  0  0  0  0  0  0  0  0
  148.4783  140.1702  152.7234 H   0  0  0  0  0  0  0  0  0  0  0  0
  145.0067  138.0324  152.0087 H   0  0  0  0  0  0  0  0  0  0  0  0
  145.0938  137.1020  154.3592 H   0  0  0  0  0  0  0  0  0  0  0  0
  150.4096  144.4195  157.7504 H   0  0  0  0  0  0  0  0  0  0  0  0
  152.1006  144.1984  157.3762 H   0  0  0  0  0  0  0  0  0  0  0  0
  1  2  1  0  0  0  0
  1 19  1  0  0  0  0
  1 20  1  0  0  0  0
  1 21  1  0  0  0  0
  2 18  1  0  0  0  0
  2  3  1  0  0  0  0
  2 22  1  0  0  0  0
  3  4  1  0  0  0  0
  3 23  1  0  0  0  0
  3 24  1  0  0  0  0
  4  5  1  0  0  0  0
  4 25  1  0  0  0  0
  4 26  1  0  0  0  0
  5  6  1  0  0  0  0
  5 27  1  0  0  0  0
  5 28  1  0  0  0  0
  6  7  1  0  0  0  0
  6 18  1  0  0  0  0
  6 29  1  0  0  0  0
  7  8  1  0  0  0  0
  8  9  1  0  0  0  0
  8 30  1  0  0  0  0
  8 31  1  0  0  0  0
  9 10  2  0  0  0  0
  9 11  1  0  0  0  0
 11 12  1  0  0  0  0
 11 32  1  0  0  0  0
 12 17  1  0  0  0  0
 12 13  2  0  0  0  0
 13 14  1  0  0  0  0
 13 33  1  0  0  0  0
 14 15  2  0  0  0  0
 15 16  1  0  0  0  0
 15 34  1  0  0  0  0
 16 17  2  0  0  0  0
 16 35  1  0  0  0  0
 18 36  1  0  0  0  0
 18 37  1  0  0  0  0
M  END
> <s_m_source_file>
AV-unprocessed.smi

> <i_m_source_file_index>
3017

> <i_lp_mmshare_version>
43012

> <i_f3d_flags>
0

> <s_epik_input>
W0NIM11bQ0BASF0xW0NIMl1bQ0gyXVtDSDJdW0NASF0oW0NIMl0xKU9bQ0gyXUMoPU8pW05IXWMyW2NIXW5bY0hdW2NIXW4y

> <s_epik_cmdline>
J2VwaWtfcHl0aG9uJywgJy1waCcsICc3LjAnLCAnLXRuJywgJzgnLCAnLW1hJywgJzIwMCcsICctbWV0YWxfYmluZGluZycsICctaW1hZScsICc8aW5maWxlLm1hZT4nLCAnLW9tYWUnLCAnPG91dGZpbGUubWFlPic=

> <r_lp_tautomer_probability>
1

> <r_epik_Ionization_Penalty>
2.89243e-06

> <r_epik_Ionization_Penalty_Charging>
0

> <r_epik_Ionization_Penalty_Neutral>
2.89243e-06

> <r_epik_State_Penalty>
-0

> <r_epik_Charging_Adjusted_Penalty>
0

> <i_epik_Tot_Q>
0

> <i_epik_Tot_abs_Q>
0

> <r_epik_Metal_State_Penalty>
-0

> <b_epik_Metal_Only>
0

> <s_lp_Force_Field>
OPLS_2005

> <r_lp_Energy>
19.9912

> <b_lp_Chiralities_Consistent>
1

> <s_lp_Variant>
AV-unprocessed.smi:3017-3

> <Gold.Version>
5.8.1

> <Gold.Id.Protein>
6NUR|6NUR_protein|mol2

> <Gold.PLP.Fitness>
37.9717

> <Gold.PLP.PLP>
-31.7435

> <Gold.PLP.part.hbond>
-2.0000

> <Gold.PLP.part.metal>
0.0000

> <Gold.PLP.part.buried>
-0.4928

> <Gold.PLP.part.nonpolar>
-29.9984

> <Gold.PLP.part.repulsive>
0.6886

> <Gold.PLP.ligand.clash>
0.0098

> <Gold.PLP.ligand.torsion>
0.6693

> <Gold.PLP.Chemscore.Hbond>
0.6846

> <Gold.PLP.Chemscore.CHOScore>
1.8338

> <Gold.PLP.Chemscore.Metal>
0.0000

> <Gold.Chemscore.Hbonds>
donor molecule, donor type, donor heavy atom, donor atom, acceptor molecule, acceptor atom, score
      P1  H  7989  7998       L1    10  0.06
      P1  H  8011  8017       L1    10  0.61
      L1  C    13    33       P1  7957  0.74
      L1  C    15    34       P1 10171  1.00
      L1  C    15    34       P1 10175  0.09

> <Gold.PLP.Chemscore.Internal.Correction>
0.0216

> <Gold.Rescore>
     Score         DG    S(hbond)    S(metal)    S(lipo)     H(rot)  DE(clash)    DE(int)     intcor
     11.90     -15.64       0.79        0.00      97.45       1.51       1.66       2.08       ----

> <Gold.Chemscore.Fitness>
11.8958

> <Gold.Chemscore.DG>
-15.6396

> <Gold.Chemscore.ZeroCoef>
-5.4800

> <Gold.Chemscore.Hbond>
0.7870

> <Gold.Chemscore.Metal>
0.0000

> <Gold.Chemscore.Lipo>
97.4487

> <Gold.Chemscore.Internal_Hbond>
0.0000

> <Gold.Chemscore.DEClash>
1.6635

> <Gold.Chemscore.DEInternal>
2.0802

> <Gold.Chemscore.Rot>
1.5119

> <Gold.Chemscore.Internal.Correction>
   9.000000E+99

> <Gold.Chemscore.Hbonds>
donor molecule, donor type, donor heavy atom, donor atom, acceptor molecule, acceptor atom, score
      P1  H  8011  8017       L1    10  0.60

> <Gold.Chemscore.Hbond.Weighted>
-2.6287

> <Gold.Chemscore.Metal.Weighted>
-0.0000

> <Gold.Chemscore.Lipo.Weighted>
-11.4015

> <Gold.Chemscore.Internal_Hbond.Weighted>
0.0000

> <Gold.Chemscore.DEClash.Weighted>
1.6635

> <Gold.Chemscore.DEInternal.Weighted>
2.0802

> <Gold.Chemscore.Rot.Weighted>
3.8706

> <Gold.Chemscore.Internal.Correction.Weighted>
   9.000000E+99

> <Gold.Protein.RotatedTorsions>
[ 6907 6896 6895 6894 ] final -156.41 input  -60.11 | X-H torsion
[ 7974 7965 7964 7962 ] final   58.60 input  175.53 | X-H torsion
[ 8008 7997 7996 7995 ] final  -56.52 input   59.86 | X-H torsion
[ 10167 10162 10161 10158 ] final -160.68 input  -65.29 | X-H torsion
[ 10718 10713 10712 10709 ] final  142.49 input   66.30 | X-H torsion
[ 10763 10752 10751 10750 ] final -166.10 input  -60.55 | X-H torsion
[ 11005 11000 10999 10996 ] final -154.41 input  -57.11 | X-H torsion

> <Gold.Protein.ActiveResidues>
 VAL166  LYS551  ARG553  GLY616  TRP617  ASP618  TYR619  PRO620  LYS621  CYS622 
 ASP623  PHE694  ASN695  SER759  ASP760  ASP761  ALA762  ILE779  LEU786  VAL792 
 PHE793  MET794  SER795  GLU796  ALA797  LYS798  CYS799  TRP800  GLU811  SER814 

> <Gold.Protein.RotatedAtoms>
  151.2872  133.4182  159.2630 H   0  0  0  0  0  0  0  0  0  0  0  0  # atno 6907 bound_to 6896
  151.0309  134.9539  159.8121 H   0  0  0  0  0  0  0  0  0  0  0  0  # atno 6908 bound_to 6896
  152.5345  134.2833  159.9068 H   0  0  0  0  0  0  0  0  0  0  0  0  # atno 6909 bound_to 6896
  145.9164  139.3694  143.0504 H   0  0  0  0  0  0  0  0  0  0  0  0  # atno 7974 bound_to 7965
  154.4233  140.1128  156.5651 H   0  0  0  0  0  0  0  0  0  0  0  0  # atno 8008 bound_to 7997
  155.6270  140.3495  155.4651 H   0  0  0  0  0  0  0  0  0  0  0  0  # atno 8009 bound_to 7997
  155.9978  140.1193  157.0566 H   0  0  0  0  0  0  0  0  0  0  0  0  # atno 8010 bound_to 7997
  139.6521  144.0065  152.2169 H   0  0  0  0  0  0  0  0  0  0  0  0  # atno 10167 bound_to 10162
  157.3800  131.0991  151.0748 H   0  0  0  0  0  0  0  0  0  0  0  0  # atno 10718 bound_to 10713
  154.6867  135.2963  154.9537 H   0  0  0  0  0  0  0  0  0  0  0  0  # atno 10763 bound_to 10752
  154.0514  135.6644  153.4805 H   0  0  0  0  0  0  0  0  0  0  0  0  # atno 10764 bound_to 10752
  153.0584  135.5131  154.7938 H   0  0  0  0  0  0  0  0  0  0  0  0  # atno 10765 bound_to 10752
  140.6976  134.3972  157.5213 H   0  0  0  0  0  0  0  0  0  0  0  0  # atno 11005 bound_to 11000
  145.8606  140.9477  143.0702 LP  0  0  0  0  0  0  0  0  0  0  0  0  # atno 17320 bound_to 7965
  144.6748  140.0525  143.7478 LP  0  0  0  0  0  0  0  0  0  0  0  0  # atno 17321 bound_to 7965
  139.9782  144.6447  150.7926 LP  0  0  0  0  0  0  0  0  0  0  0  0  # atno 17342 bound_to 10162
  140.7542  143.3023  151.3048 LP  0  0  0  0  0  0  0  0  0  0  0  0  # atno 17343 bound_to 10162
  157.1820  130.6314  149.5675 LP  0  0  0  0  0  0  0  0  0  0  0  0  # atno 17370 bound_to 10713
  155.9773  130.4750  150.6588 LP  0  0  0  0  0  0  0  0  0  0  0  0  # atno 17371 bound_to 10713
  139.8905  134.8802  156.2364 LP  0  0  0  0  0  0  0  0  0  0  0  0  # atno 17394 bound_to 11000
  141.0190  133.7052  156.1236 LP  0  0  0  0  0  0  0  0  0  0  0  0  # atno 17395 bound_to 11000

$$$$
