AV-unprocessed.smi:2079|AV-procd|sdf|8482|dock2
  -GOLD-   2272011183D 1   1.00000     0.00000
 Structure written by MMmdl.
 41 42  0  0  0  0  0  0  0  0  3 V2000
  150.3269  140.5286  153.9423 C   0  0  0  0  0  0  0  0  0  0  0  0
  150.3242  139.0577  154.1845 C   0  0  0  0  0  0  0  0  0  0  0  0
  151.2995  138.1042  154.1098 C   0  0  0  0  0  0  0  0  0  0  0  0
  150.6139  136.9098  154.4627 C   0  0  0  0  0  0  0  0  0  0  0  0
  151.1574  135.6856  154.5470 N   0  5  0  0  0  0  0  0  0  0  0  0
  150.3802  134.6127  154.8197 C   0  0  0  0  0  0  0  0  0  0  0  0
  150.5635  133.7810  155.7115 O   0  0  0  0  0  0  0  0  0  0  0  0
  149.3212  134.4958  154.0081 N   0  0  0  0  0  0  0  0  0  0  0  0
  148.3275  133.4334  154.0757 C   0  0  0  0  0  0  0  0  0  0  0  0
  148.0507  132.8717  152.6699 C   0  0  0  0  0  0  0  0  0  0  0  0
  146.6041  132.8906  152.3058 N   0  3  1  0  0  0  0  0  0  0  0  0
  146.2791  134.0449  151.4173 C   0  0  0  0  0  0  0  0  0  0  0  0
  144.7742  134.1555  151.1369 C   0  0  0  0  0  0  0  0  0  0  0  0
  144.2501  132.8644  150.5103 C   0  0  0  0  0  0  0  0  0  0  0  0
  144.5844  131.6875  151.4291 C   0  0  0  0  0  0  0  0  0  0  0  0
  146.0969  131.5979  151.7353 C   0  0  2  0  0  0  0  0  0  0  0  0
  146.3345  130.3843  152.6589 C   0  0  0  0  0  0  0  0  0  0  0  0
  149.3388  137.1221  154.7422 N   0  0  0  0  0  0  0  0  0  0  0  0
  149.1432  138.4964  154.5595 O   0  0  0  0  0  0  0  0  0  0  0  0
  151.1158  141.0126  154.5183 H   0  0  0  0  0  0  0  0  0  0  0  0
  149.3756  140.9768  154.2303 H   0  0  0  0  0  0  0  0  0  0  0  0
  150.4965  140.7440  152.8875 H   0  0  0  0  0  0  0  0  0  0  0  0
  152.3372  138.2380  153.8433 H   0  0  0  0  0  0  0  0  0  0  0  0
  149.2051  135.1964  153.2905 H   0  0  0  0  0  0  0  0  0  0  0  0
  148.6924  132.6421  154.7325 H   0  0  0  0  0  0  0  0  0  0  0  0
  147.4263  133.8448  154.5290 H   0  0  0  0  0  0  0  0  0  0  0  0
  148.6254  133.4147  151.9180 H   0  0  0  0  0  0  0  0  0  0  0  0
  148.4365  131.8555  152.6729 H   0  0  0  0  0  0  0  0  0  0  0  0
  146.6002  134.9833  151.8648 H   0  0  0  0  0  0  0  0  0  0  0  0
  146.8254  133.9438  150.4781 H   0  0  0  0  0  0  0  0  0  0  0  0
  144.2390  134.3635  152.0643 H   0  0  0  0  0  0  0  0  0  0  0  0
  144.5802  134.9969  150.4708 H   0  0  0  0  0  0  0  0  0  0  0  0
  143.1728  132.9291  150.3538 H   0  0  0  0  0  0  0  0  0  0  0  0
  144.7028  132.7132  149.5295 H   0  0  0  0  0  0  0  0  0  0  0  0
  144.0251  131.7866  152.3609 H   0  0  0  0  0  0  0  0  0  0  0  0
  144.2403  130.7632  150.9633 H   0  0  0  0  0  0  0  0  0  0  0  0
  146.6239  131.4168  150.7968 H   0  0  0  0  0  0  0  0  0  0  0  0
  145.7999  129.5073  152.2927 H   0  0  0  0  0  0  0  0  0  0  0  0
  145.9848  130.5797  153.6731 H   0  0  0  0  0  0  0  0  0  0  0  0
  147.3828  130.0925  152.7064 H   0  0  0  0  0  0  0  0  0  0  0  0
  146.0981  133.0337  153.1682 H   0  0  0  0  0  0  0  0  0  0  0  0
  1  2  1  0  0  0  0
  1 20  1  0  0  0  0
  1 21  1  0  0  0  0
  1 22  1  0  0  0  0
  2 19  1  0  0  0  0
  2  3  2  0  0  0  0
  3  4  1  0  0  0  0
  3 23  1  0  0  0  0
  4  5  1  0  0  0  0
  4 18  2  0  0  0  0
  5  6  1  0  0  0  0
  6  7  2  0  0  0  0
  6  8  1  0  0  0  0
  8  9  1  0  0  0  0
  8 24  1  0  0  0  0
  9 10  1  0  0  0  0
  9 25  1  0  0  0  0
  9 26  1  0  0  0  0
 10 11  1  0  0  0  0
 10 27  1  0  0  0  0
 10 28  1  0  0  0  0
 11 16  1  0  0  0  0
 11 12  1  0  0  0  0
 11 41  1  0  0  0  0
 12 13  1  0  0  0  0
 12 29  1  0  0  0  0
 12 30  1  0  0  0  0
 13 14  1  0  0  0  0
 13 31  1  0  0  0  0
 13 32  1  0  0  0  0
 14 15  1  0  0  0  0
 14 33  1  0  0  0  0
 14 34  1  0  0  0  0
 15 16  1  0  0  0  0
 15 35  1  0  0  0  0
 15 36  1  0  0  0  0
 16 17  1  0  0  0  0
 16 37  1  0  0  0  0
 17 38  1  0  0  0  0
 17 39  1  0  0  0  0
 17 40  1  0  0  0  0
 18 19  1  0  0  0  0
M  CHG  1   5  -1
M  CHG  1  11   1
M  END
> <s_m_source_file>
AV-unprocessed.smi

> <i_m_source_file_index>
2079

> <i_lp_mmshare_version>
43012

> <i_f3d_flags>
0

> <s_epik_input>
W0NIM11jMVtjSF1jKG5vMSlbTkhdQyg9TylbTkhdW0NIMl1bQ0gyXU4yW0NIMl1bQ0gyXVtDSDJdW0NIMl1bQ0BIXTJbQ0gzXQ==

> <s_epik_cmdline>
J2VwaWtfcHl0aG9uJywgJy1waCcsICc3LjAnLCAnLXRuJywgJzgnLCAnLW1hJywgJzIwMCcsICctbWV0YWxfYmluZGluZycsICctaW1hZScsICc8aW5maWxlLm1hZT4nLCAnLW9tYWUnLCAnPG91dGZpbGUubWFlPic=

> <r_epik_Ionization_Penalty>
6.22371

> <r_epik_Ionization_Penalty_Charging>
6.22362

> <r_epik_Ionization_Penalty_Neutral>
9.40454e-05

> <r_epik_State_Penalty>
6.22363

> <r_epik_Charging_Adjusted_Penalty>
12.4472

> <i_epik_Tot_Q>
0

> <i_epik_Tot_abs_Q>
2

> <r_epik_Metal_State_Penalty>
2.16675

> <b_epik_Metal_Only>
1

> <s_lp_Force_Field>
OPLS_2005

> <r_lp_Energy>
8.88901

> <b_lp_Chiralities_Consistent>
1

> <s_lp_Variant>
AV-unprocessed.smi:2079-8

> <Gold.Version>
5.8.1

> <Gold.Id.Protein>
6NUR|6NUR_protein|mol2

> <Gold.PLP.Fitness>
39.2312

> <Gold.PLP.PLP>
-33.2790

> <Gold.PLP.part.hbond>
-2.0000

> <Gold.PLP.part.metal>
0.0000

> <Gold.PLP.part.buried>
-2.5365

> <Gold.PLP.part.nonpolar>
-28.4369

> <Gold.PLP.part.repulsive>
0.4278

> <Gold.PLP.ligand.clash>
0.0000

> <Gold.PLP.ligand.torsion>
1.5491

> <Gold.PLP.Chemscore.Hbond>
3.0000

> <Gold.PLP.Chemscore.CHOScore>
0.0000

> <Gold.PLP.Chemscore.Metal>
0.0000

> <Gold.Chemscore.Hbonds>
donor molecule, donor type, donor heavy atom, donor atom, acceptor molecule, acceptor atom, score
      L1  H     8    24       P1  7948  0.85
      P1  H 10752 10764       L1     5  2.00

> <Gold.PLP.Chemscore.Internal.Correction>
0.0505

> <Gold.Rescore>
     Score         DG    S(hbond)    S(metal)    S(lipo)     H(rot)  DE(clash)    DE(int)     intcor
     11.90     -13.86       1.16        0.00      72.12       1.54       0.00       1.95       ----

> <Gold.Chemscore.Fitness>
11.9045

> <Gold.Chemscore.DG>
-13.8608

> <Gold.Chemscore.ZeroCoef>
-5.4800

> <Gold.Chemscore.Hbond>
1.1639

> <Gold.Chemscore.Metal>
0.0000

> <Gold.Chemscore.Lipo>
72.1209

> <Gold.Chemscore.Internal_Hbond>
0.0000

> <Gold.Chemscore.DEClash>
0.0015

> <Gold.Chemscore.DEInternal>
1.9549

> <Gold.Chemscore.Rot>
1.5409

> <Gold.Chemscore.Internal.Correction>
   9.000000E+99

> <Gold.Chemscore.Hbonds>
donor molecule, donor type, donor heavy atom, donor atom, acceptor molecule, acceptor atom, score
      L1  H     8    24       P1  7948  0.15
      P1  H 10752 10764       L1     5  0.94

> <Gold.Chemscore.Hbond.Weighted>
-3.8873

> <Gold.Chemscore.Metal.Weighted>
-0.0000

> <Gold.Chemscore.Lipo.Weighted>
-8.4381

> <Gold.Chemscore.Internal_Hbond.Weighted>
0.0000

> <Gold.Chemscore.DEClash.Weighted>
0.0015

> <Gold.Chemscore.DEInternal.Weighted>
1.9549

> <Gold.Chemscore.Rot.Weighted>
3.9446

> <Gold.Chemscore.Internal.Correction.Weighted>
   9.000000E+99

> <Gold.Protein.RotatedTorsions>
[ 6907 6896 6895 6894 ] final -124.91 input  -60.11 | X-H torsion
[ 7974 7965 7964 7962 ] final  -18.45 input  175.53 | X-H torsion
[ 8008 7997 7996 7995 ] final   29.59 input   59.86 | X-H torsion
[ 10167 10162 10161 10158 ] final -115.04 input  -65.29 | X-H torsion
[ 10718 10713 10712 10709 ] final   63.26 input   66.30 | X-H torsion
[ 10763 10752 10751 10750 ] final  -62.04 input  -60.55 | X-H torsion
[ 11005 11000 10999 10996 ] final  -95.27 input  -57.11 | X-H torsion

> <Gold.Protein.ActiveResidues>
 VAL166  LYS551  ARG553  GLY616  TRP617  ASP618  TYR619  PRO620  LYS621  CYS622 
 ASP623  PHE694  ASN695  SER759  ASP760  ASP761  ALA762  ILE779  LEU786  VAL792 
 PHE793  MET794  SER795  GLU796  ALA797  LYS798  CYS799  TRP800  GLU811  SER814 

> <Gold.Protein.RotatedAtoms>
  150.8815  133.7366  159.2930 H   0  0  0  0  0  0  0  0  0  0  0  0  # atno 6907 bound_to 6896
  151.4946  135.1057  159.9822 H   0  0  0  0  0  0  0  0  0  0  0  0  # atno 6908 bound_to 6896
  152.4762  133.8099  159.7053 H   0  0  0  0  0  0  0  0  0  0  0  0  # atno 6909 bound_to 6896
  146.1891  140.3923  142.8465 H   0  0  0  0  0  0  0  0  0  0  0  0  # atno 7974 bound_to 7965
  155.0769  140.3206  155.4613 H   0  0  0  0  0  0  0  0  0  0  0  0  # atno 8008 bound_to 7997
  156.2777  140.2102  156.5842 H   0  0  0  0  0  0  0  0  0  0  0  0  # atno 8009 bound_to 7997
  154.7009  140.0507  157.0445 H   0  0  0  0  0  0  0  0  0  0  0  0  # atno 8010 bound_to 7997
  140.0944  143.4670  152.1850 H   0  0  0  0  0  0  0  0  0  0  0  0  # atno 10167 bound_to 10162
  157.5959  130.9095  149.9693 H   0  0  0  0  0  0  0  0  0  0  0  0  # atno 10718 bound_to 10713
  154.2938  135.6248  153.5396 H   0  0  0  0  0  0  0  0  0  0  0  0  # atno 10763 bound_to 10752
  152.9849  135.5662  154.5360 H   0  0  0  0  0  0  0  0  0  0  0  0  # atno 10764 bound_to 10752
  154.4976  135.2870  155.1422 H   0  0  0  0  0  0  0  0  0  0  0  0  # atno 10765 bound_to 10752
  141.1447  133.8014  157.0412 H   0  0  0  0  0  0  0  0  0  0  0  0  # atno 11005 bound_to 11000
  144.8453  140.6920  143.6203 LP  0  0  0  0  0  0  0  0  0  0  0  0  # atno 17320 bound_to 7965
  145.3847  139.1629  143.4261 LP  0  0  0  0  0  0  0  0  0  0  0  0  # atno 17321 bound_to 7965
  139.5706  144.7460  151.3901 LP  0  0  0  0  0  0  0  0  0  0  0  0  # atno 17342 bound_to 10162
  140.7011  143.7629  150.7405 LP  0  0  0  0  0  0  0  0  0  0  0  0  # atno 17343 bound_to 10162
  156.1021  130.3655  150.0199 LP  0  0  0  0  0  0  0  0  0  0  0  0  # atno 17370 bound_to 10713
  156.8313  130.9393  151.3637 LP  0  0  0  0  0  0  0  0  0  0  0  0  # atno 17371 bound_to 10713
  140.0692  134.9712  157.1438 LP  0  0  0  0  0  0  0  0  0  0  0  0  # atno 17394 bound_to 11000
  140.3736  134.2364  155.7176 LP  0  0  0  0  0  0  0  0  0  0  0  0  # atno 17395 bound_to 11000

$$$$
