AV-unprocessed.smi:2568|AV-procd|sdf|10092|dock5
  -GOLD-   2272014113D 1   1.00000     0.00000
 Structure written by MMmdl.
 25 26  0  0  0  0  0  0  0  0  2 V2000
  146.2563  132.8048  155.9353 C   0  0  0  0  0  0  0  0  0  0  0  0
  146.5020  133.2532  154.5352 C   0  0  0  0  0  0  0  0  0  0  0  0
  147.5645  133.9924  154.2203 N   0  0  0  0  0  0  0  0  0  0  0  0
  147.4027  134.1646  152.8915 N   0  0  0  0  0  0  0  0  0  0  0  0
  146.2922  133.5376  152.4961 C   0  0  0  0  0  0  0  0  0  0  0  0
  145.8319  133.5528  151.0725 C   0  0  2  0  0  0  0  0  0  0  0  0
  144.4358  134.1852  150.9123 C   0  0  0  0  0  0  0  0  0  0  0  0
  143.9936  134.0819  149.5081 N   0  3  0  0  0  0  0  0  0  0  0  0
  144.0361  132.6858  149.0295 C   0  0  0  0  0  0  0  0  0  0  0  0
  145.4379  132.0910  149.2524 C   0  0  0  0  0  0  0  0  0  0  0  0
  145.7930  132.1992  150.6272 O   0  0  0  0  0  0  0  0  0  0  0  0
  145.6647  132.9359  153.5025 N   0  0  0  0  0  0  0  0  0  0  0  0
  148.0496  134.6921  152.3227 H   0  0  0  0  0  0  0  0  0  0  0  0
  146.9370  133.3004  156.6286 H   0  0  0  0  0  0  0  0  0  0  0  0
  146.4046  131.7278  156.0161 H   0  0  0  0  0  0  0  0  0  0  0  0
  145.2335  133.0374  156.2326 H   0  0  0  0  0  0  0  0  0  0  0  0
  146.5633  134.1044  150.4783 H   0  0  0  0  0  0  0  0  0  0  0  0
  143.7107  133.6774  151.5501 H   0  0  0  0  0  0  0  0  0  0  0  0
  144.4498  135.2336  151.2119 H   0  0  0  0  0  0  0  0  0  0  0  0
  143.0515  134.4370  149.4255 H   0  0  0  0  0  0  0  0  0  0  0  0
  143.2891  132.0999  149.5669 H   0  0  0  0  0  0  0  0  0  0  0  0
  143.7689  132.6562  147.9731 H   0  0  0  0  0  0  0  0  0  0  0  0
  145.4499  131.0394  148.9655 H   0  0  0  0  0  0  0  0  0  0  0  0
  146.1792  132.5984  148.6331 H   0  0  0  0  0  0  0  0  0  0  0  0
  144.6075  134.6403  148.9323 H   0  0  0  0  0  0  0  0  0  0  0  0
  1  2  1  0  0  0  0
  1 14  1  0  0  0  0
  1 15  1  0  0  0  0
  1 16  1  0  0  0  0
  2 12  1  0  0  0  0
  2  3  2  0  0  0  0
  3  4  1  0  0  0  0
  4 13  1  0  0  0  0
  4  5  1  0  0  0  0
  5  6  1  0  0  0  0
  5 12  2  0  0  0  0
  6 11  1  0  0  0  0
  6  7  1  0  0  0  0
  6 17  1  0  0  0  0
  7  8  1  0  0  0  0
  7 18  1  0  0  0  0
  7 19  1  0  0  0  0
  8  9  1  0  0  0  0
  8 20  1  0  0  0  0
  8 25  1  0  0  0  0
  9 10  1  0  0  0  0
  9 21  1  0  0  0  0
  9 22  1  0  0  0  0
 10 11  1  0  0  0  0
 10 23  1  0  0  0  0
 10 24  1  0  0  0  0
M  CHG  1   8   1
M  END
> <s_m_source_file>
AV-unprocessed.smi

> <i_m_source_file_index>
2568

> <i_lp_mmshare_version>
43012

> <i_f3d_flags>
0

> <s_epik_input>
W0NIM11jMW5bbkhdYyhuMSlbQ0BASF0yW0NIMl1bTkhdW0NIMl1bQ0gyXU8y

> <s_epik_cmdline>
J2VwaWtfcHl0aG9uJywgJy1waCcsICc3LjAnLCAnLXRuJywgJzgnLCAnLW1hJywgJzIwMCcsICctbWV0YWxfYmluZGluZycsICctaW1hZScsICc8aW5maWxlLm1hZT4nLCAnLW9tYWUnLCAnPG91dGZpbGUubWFlPic=

> <r_epik_Ionization_Penalty>
0.166663

> <r_epik_Ionization_Penalty_Charging>
0.125708

> <r_epik_Ionization_Penalty_Neutral>
0.0409555

> <r_epik_State_Penalty>
1.3004

> <r_epik_Charging_Adjusted_Penalty>
1.42611

> <i_epik_Tot_Q>
1

> <i_epik_Tot_abs_Q>
1

> <r_epik_Metal_State_Penalty>
1.60166

> <b_epik_Metal_Only>
0

> <s_lp_Force_Field>
OPLS_2005

> <r_lp_Energy>
12.4533

> <b_lp_Chiralities_Consistent>
1

> <s_lp_Variant>
AV-unprocessed.smi:2568-5

> <Gold.Version>
5.8.1

> <Gold.Id.Protein>
6NUR|6NUR_protein|mol2

> <Gold.PLP.Fitness>
30.9348

> <Gold.PLP.PLP>
-18.9352

> <Gold.PLP.part.hbond>
-3.0000

> <Gold.PLP.part.metal>
0.0000

> <Gold.PLP.part.buried>
-3.8326

> <Gold.PLP.part.nonpolar>
-12.3149

> <Gold.PLP.part.repulsive>
0.4204

> <Gold.PLP.ligand.clash>
0.0000

> <Gold.PLP.ligand.torsion>
0.0007

> <Gold.PLP.Chemscore.Hbond>
4.0000

> <Gold.PLP.Chemscore.CHOScore>
0.0000

> <Gold.PLP.Chemscore.Metal>
0.0000

> <Gold.Chemscore.Hbonds>
donor molecule, donor type, donor heavy atom, donor atom, acceptor molecule, acceptor atom, score
      L1  H     4    13       P1  7948  1.00
      L1  H     8    20       P1 10186  1.95
      L1  H     8    25       P1  7921  1.00

> <Gold.PLP.Chemscore.Internal.Correction>
0.0010

> <Gold.Rescore>
     Score         DG    S(hbond)    S(metal)    S(lipo)     H(rot)  DE(clash)    DE(int)     intcor
     17.27     -17.31       2.90        0.00      40.04       1.00       0.03       0.00       ----

> <Gold.Chemscore.Fitness>
17.2744

> <Gold.Chemscore.DG>
-17.3061

> <Gold.Chemscore.ZeroCoef>
-5.4800

> <Gold.Chemscore.Hbond>
2.9045

> <Gold.Chemscore.Metal>
0.0000

> <Gold.Chemscore.Lipo>
40.0430

> <Gold.Chemscore.Internal_Hbond>
0.0000

> <Gold.Chemscore.DEClash>
0.0291

> <Gold.Chemscore.DEInternal>
0.0026

> <Gold.Chemscore.Rot>
1.0000

> <Gold.Chemscore.Internal.Correction>
   9.000000E+99

> <Gold.Chemscore.Hbonds>
donor molecule, donor type, donor heavy atom, donor atom, acceptor molecule, acceptor atom, score
      L1  H     4    13       P1  7948  0.44
      L1  H     8    20       P1 10186  0.91
      L1  H     8    25       P1  7921  0.91

> <Gold.Chemscore.Hbond.Weighted>
-9.7011

> <Gold.Chemscore.Metal.Weighted>
-0.0000

> <Gold.Chemscore.Lipo.Weighted>
-4.6850

> <Gold.Chemscore.Internal_Hbond.Weighted>
0.0000

> <Gold.Chemscore.DEClash.Weighted>
0.0291

> <Gold.Chemscore.DEInternal.Weighted>
0.0026

> <Gold.Chemscore.Rot.Weighted>
2.5600

> <Gold.Chemscore.Internal.Correction.Weighted>
   9.000000E+99

> <Gold.Protein.RotatedTorsions>
[ 6907 6896 6895 6894 ] final  -12.62 input  -60.11 | X-H torsion
[ 7974 7965 7964 7962 ] final  -66.58 input  175.53 | X-H torsion
[ 8008 7997 7996 7995 ] final   64.60 input   59.86 | X-H torsion
[ 10167 10162 10161 10158 ] final  102.36 input  -65.29 | X-H torsion
[ 10718 10713 10712 10709 ] final  -40.81 input   66.30 | X-H torsion
[ 10763 10752 10751 10750 ] final   41.37 input  -60.55 | X-H torsion
[ 11005 11000 10999 10996 ] final   15.23 input  -57.11 | X-H torsion

> <Gold.Protein.ActiveResidues>
 VAL166  LYS551  ARG553  GLY616  TRP617  ASP618  TYR619  PRO620  LYS621  CYS622 
 ASP623  PHE694  ASN695  SER759  ASP760  ASP761  ALA762  ILE779  LEU786  VAL792 
 PHE793  MET794  SER795  GLU796  ALA797  LYS798  CYS799  TRP800  GLU811  SER814 

> <Gold.Protein.RotatedAtoms>
  151.3678  135.0916  159.9455 H   0  0  0  0  0  0  0  0  0  0  0  0  # atno 6907 bound_to 6896
  152.5144  133.9195  159.7538 H   0  0  0  0  0  0  0  0  0  0  0  0  # atno 6908 bound_to 6896
  150.9602  133.6398  159.2785 H   0  0  0  0  0  0  0  0  0  0  0  0  # atno 6909 bound_to 6896
  145.7400  140.8958  143.0535 H   0  0  0  0  0  0  0  0  0  0  0  0  # atno 7974 bound_to 7965
  155.6486  140.3497  155.4740 H   0  0  0  0  0  0  0  0  0  0  0  0  # atno 8008 bound_to 7997
  155.9867  140.1185  157.0700 H   0  0  0  0  0  0  0  0  0  0  0  0  # atno 8009 bound_to 7997
  154.4207  140.1127  156.5495 H   0  0  0  0  0  0  0  0  0  0  0  0  # atno 8010 bound_to 7997
  139.7356  144.7025  151.0654 H   0  0  0  0  0  0  0  0  0  0  0  0  # atno 10167 bound_to 10162
  156.2772  130.4213  149.8375 H   0  0  0  0  0  0  0  0  0  0  0  0  # atno 10718 bound_to 10713
  152.9910  135.6164  154.2776 H   0  0  0  0  0  0  0  0  0  0  0  0  # atno 10763 bound_to 10752
  154.2506  135.2785  155.2819 H   0  0  0  0  0  0  0  0  0  0  0  0  # atno 10764 bound_to 10752
  154.5291  135.5793  153.6801 H   0  0  0  0  0  0  0  0  0  0  0  0  # atno 10765 bound_to 10752
  140.4607  134.1130  155.7716 H   0  0  0  0  0  0  0  0  0  0  0  0  # atno 11005 bound_to 11000
  144.6873  139.9447  143.7476 LP  0  0  0  0  0  0  0  0  0  0  0  0  # atno 17320 bound_to 7965
  146.0457  139.3463  143.0670 LP  0  0  0  0  0  0  0  0  0  0  0  0  # atno 17321 bound_to 7965
  140.7778  143.4988  150.9798 LP  0  0  0  0  0  0  0  0  0  0  0  0  # atno 17342 bound_to 10162
  139.8676  143.7234  152.3169 LP  0  0  0  0  0  0  0  0  0  0  0  0  # atno 17343 bound_to 10162
  156.5835  130.8476  151.3389 LP  0  0  0  0  0  0  0  0  0  0  0  0  # atno 17370 bound_to 10713
  157.7303  130.9683  150.1826 LP  0  0  0  0  0  0  0  0  0  0  0  0  # atno 17371 bound_to 10713
  141.1622  133.8770  157.1814 LP  0  0  0  0  0  0  0  0  0  0  0  0  # atno 17394 bound_to 11000
  139.9947  135.0051  157.0056 LP  0  0  0  0  0  0  0  0  0  0  0  0  # atno 17395 bound_to 11000

$$$$
