AV-unprocessed.smi:3318|AV-procd|sdf|12766|dock1
  -GOLD-   2272019103D 1   1.00000     0.00000
 Structure written by MMmdl.
 44 45  0  0  0  0  0  0  0  0  2 V2000
  148.9525  133.2959  153.7520 C   0  0  0  0  0  0  0  0  0  0  0  0
  149.4036  134.1294  154.9566 C   0  0  0  0  0  0  0  0  0  0  0  0
  148.5305  135.3795  155.1641 C   0  0  0  0  0  0  0  0  0  0  0  0
  149.1684  136.6145  154.6410 N   0  3  2  0  0  0  0  0  0  0  0  0
  150.4880  136.9010  155.2615 C   0  0  0  0  0  0  0  0  0  0  0  0
  151.1748  138.1010  154.5868 C   0  0  0  0  0  0  0  0  0  0  0  0
  150.2853  139.3623  154.5799 C   0  0  2  0  0  0  0  0  0  0  0  0
  150.1709  139.9817  155.8970 N   0  0  0  0  0  0  0  0  0  0  0  0
  151.4622  140.4030  156.4233 C   0  0  0  0  0  0  0  0  0  0  0  0
  151.3651  140.5727  157.9457 C   0  0  0  0  0  0  0  0  0  0  0  0
  151.6022  142.0080  158.3762 C   0  0  0  0  0  0  0  0  0  0  0  0
  152.3383  142.2975  159.5450 C   0  0  0  0  0  0  0  0  0  0  0  0
  152.5353  143.6469  159.8966 C   0  0  0  0  0  0  0  0  0  0  0  0
  151.9930  144.6495  159.0698 C   0  0  0  0  0  0  0  0  0  0  0  0
  151.2751  144.2563  157.9226 C   0  0  0  0  0  0  0  0  0  0  0  0
  151.0808  142.9654  157.5761 N   0  0  0  0  0  0  0  0  0  0  0  0
  148.8814  139.0260  154.0458 C   0  0  0  0  0  0  0  0  0  0  0  0
  148.2672  137.7912  154.7303 C   0  0  0  0  0  0  0  0  0  0  0  0
  149.5863  132.4174  153.6289 H   0  0  0  0  0  0  0  0  0  0  0  0
  149.0050  133.8744  152.8293 H   0  0  0  0  0  0  0  0  0  0  0  0
  147.9256  132.9503  153.8738 H   0  0  0  0  0  0  0  0  0  0  0  0
  149.3833  133.4950  155.8421 H   0  0  0  0  0  0  0  0  0  0  0  0
  150.4427  134.4284  154.8138 H   0  0  0  0  0  0  0  0  0  0  0  0
  147.5869  135.2172  154.6409 H   0  0  0  0  0  0  0  0  0  0  0  0
  148.2790  135.5080  156.2181 H   0  0  0  0  0  0  0  0  0  0  0  0
  150.3570  137.0934  156.3274 H   0  0  0  0  0  0  0  0  0  0  0  0
  151.1429  136.0347  155.1790 H   0  0  0  0  0  0  0  0  0  0  0  0
  152.1411  138.2909  155.0527 H   0  0  0  0  0  0  0  0  0  0  0  0
  151.3997  137.8321  153.5539 H   0  0  0  0  0  0  0  0  0  0  0  0
  150.7229  140.1018  153.9076 H   0  0  0  0  0  0  0  0  0  0  0  0
  149.5779  140.7969  155.8269 H   0  0  0  0  0  0  0  0  0  0  0  0
  152.2316  139.6688  156.1870 H   0  0  0  0  0  0  0  0  0  0  0  0
  151.7561  141.3473  155.9633 H   0  0  0  0  0  0  0  0  0  0  0  0
  150.3814  140.2577  158.2980 H   0  0  0  0  0  0  0  0  0  0  0  0
  152.0905  139.9263  158.4421 H   0  0  0  0  0  0  0  0  0  0  0  0
  152.7438  141.5063  160.1583 H   0  0  0  0  0  0  0  0  0  0  0  0
  153.0930  143.9082  160.7841 H   0  0  0  0  0  0  0  0  0  0  0  0
  152.1242  145.6945  159.3086 H   0  0  0  0  0  0  0  0  0  0  0  0
  150.8458  144.9983  157.2658 H   0  0  0  0  0  0  0  0  0  0  0  0
  148.2159  139.8844  154.1485 H   0  0  0  0  0  0  0  0  0  0  0  0
  148.9526  138.8305  152.9751 H   0  0  0  0  0  0  0  0  0  0  0  0
  147.3130  137.5630  154.2536 H   0  0  0  0  0  0  0  0  0  0  0  0
  148.0521  138.0063  155.7783 H   0  0  0  0  0  0  0  0  0  0  0  0
  149.3306  136.4576  153.6565 H   0  0  0  0  0  0  0  0  0  0  0  0
  1  2  1  0  0  0  0
  1 19  1  0  0  0  0
  1 20  1  0  0  0  0
  1 21  1  0  0  0  0
  2  3  1  0  0  0  0
  2 22  1  0  0  0  0
  2 23  1  0  0  0  0
  3  4  1  0  0  0  0
  3 24  1  0  0  0  0
  3 25  1  0  0  0  0
  4 18  1  0  0  0  0
  4  5  1  0  0  0  0
  4 44  1  0  0  0  0
  5  6  1  0  0  0  0
  5 26  1  0  0  0  0
  5 27  1  0  0  0  0
  6  7  1  0  0  0  0
  6 28  1  0  0  0  0
  6 29  1  0  0  0  0
  7  8  1  0  0  0  0
  7 17  1  0  0  0  0
  7 30  1  0  0  0  0
  8  9  1  0  0  0  0
  8 31  1  0  0  0  0
  9 10  1  0  0  0  0
  9 32  1  0  0  0  0
  9 33  1  0  0  0  0
 10 11  1  0  0  0  0
 10 34  1  0  0  0  0
 10 35  1  0  0  0  0
 11 16  1  0  0  0  0
 11 12  2  0  0  0  0
 12 13  1  0  0  0  0
 12 36  1  0  0  0  0
 13 14  2  0  0  0  0
 13 37  1  0  0  0  0
 14 15  1  0  0  0  0
 14 38  1  0  0  0  0
 15 16  2  0  0  0  0
 15 39  1  0  0  0  0
 17 18  1  0  0  0  0
 17 40  1  0  0  0  0
 17 41  1  0  0  0  0
 18 42  1  0  0  0  0
 18 43  1  0  0  0  0
M  CHG  1   4   1
M  END
> <s_m_source_file>
AV-unprocessed.smi

> <i_m_source_file_index>
3318

> <i_lp_mmshare_version>
43012

> <i_f3d_flags>
0

> <s_epik_input>
W0NIM11bQ0gyXVtDSDJdTjFbQ0gyXVtDSDJdW0NIXShbQ0gyXVtDSDJdMSlbTkhdW0NIMl1bQ0gyXWMyW2NIXVtjSF1bY0hdW2NIXW4y

> <s_epik_cmdline>
J2VwaWtfcHl0aG9uJywgJy1waCcsICc3LjAnLCAnLXRuJywgJzgnLCAnLW1hJywgJzIwMCcsICctbWV0YWxfYmluZGluZycsICctaW1hZScsICc8aW5maWxlLm1hZT4nLCAnLW9tYWUnLCAnPG91dGZpbGUubWFlPic=

> <r_epik_Ionization_Penalty>
2.30703

> <r_epik_Ionization_Penalty_Charging>
0.000286176

> <r_epik_Ionization_Penalty_Neutral>
2.30674

> <r_epik_State_Penalty>
2.39905

> <r_epik_Charging_Adjusted_Penalty>
2.39933

> <i_epik_Tot_Q>
1

> <i_epik_Tot_abs_Q>
1

> <r_epik_Metal_State_Penalty>
2.30906

> <b_epik_Metal_Only>
0

> <s_lp_Force_Field>
OPLS_2005

> <r_lp_Energy>
21.3611

> <b_lp_Chiralities_Consistent>
1

> <s_lp_Variant>
AV-unprocessed.smi:3318-5

> <Gold.Version>
5.8.1

> <Gold.Id.Protein>
6NUR|6NUR_protein|mol2

> <Gold.PLP.Fitness>
48.0420

> <Gold.PLP.PLP>
-41.0420

> <Gold.PLP.part.hbond>
-1.0000

> <Gold.PLP.part.metal>
0.0000

> <Gold.PLP.part.buried>
-4.0508

> <Gold.PLP.part.nonpolar>
-36.4969

> <Gold.PLP.part.repulsive>
0.1250

> <Gold.PLP.ligand.clash>
0.0000

> <Gold.PLP.ligand.torsion>
1.0624

> <Gold.PLP.Chemscore.Hbond>
2.0000

> <Gold.PLP.Chemscore.CHOScore>
1.0000

> <Gold.PLP.Chemscore.Metal>
0.0000

> <Gold.Chemscore.Hbonds>
donor molecule, donor type, donor heavy atom, donor atom, acceptor molecule, acceptor atom, score
      L1  H     4    44       P1  7948  2.00
      L1  C    15    39       P1  8028  0.99

> <Gold.PLP.Chemscore.Internal.Correction>
0.1247

> <Gold.Rescore>
     Score         DG    S(hbond)    S(metal)    S(lipo)     H(rot)  DE(clash)    DE(int)     intcor
     17.55     -18.67       1.00        0.00     116.60       1.48       0.03       1.08       ----

> <Gold.Chemscore.Fitness>
17.5487

> <Gold.Chemscore.DG>
-18.6651

> <Gold.Chemscore.ZeroCoef>
-5.4800

> <Gold.Chemscore.Hbond>
0.9985

> <Gold.Chemscore.Metal>
0.0000

> <Gold.Chemscore.Lipo>
116.5979

> <Gold.Chemscore.Internal_Hbond>
0.0000

> <Gold.Chemscore.DEClash>
0.0348

> <Gold.Chemscore.DEInternal>
1.0817

> <Gold.Chemscore.Rot>
1.4811

> <Gold.Chemscore.Internal.Correction>
   9.000000E+99

> <Gold.Chemscore.Hbonds>
donor molecule, donor type, donor heavy atom, donor atom, acceptor molecule, acceptor atom, score
      L1  H     4    44       P1  7948  0.90

> <Gold.Chemscore.Hbond.Weighted>
-3.3348

> <Gold.Chemscore.Metal.Weighted>
-0.0000

> <Gold.Chemscore.Lipo.Weighted>
-13.6420

> <Gold.Chemscore.Internal_Hbond.Weighted>
0.0000

> <Gold.Chemscore.DEClash.Weighted>
0.0348

> <Gold.Chemscore.DEInternal.Weighted>
1.0817

> <Gold.Chemscore.Rot.Weighted>
3.7917

> <Gold.Chemscore.Internal.Correction.Weighted>
   9.000000E+99

> <Gold.Protein.RotatedTorsions>
[ 6907 6896 6895 6894 ] final -159.53 input  -60.11 | X-H torsion
[ 7974 7965 7964 7962 ] final   15.57 input  175.53 | X-H torsion
[ 8008 7997 7996 7995 ] final   49.62 input   59.86 | X-H torsion
[ 10167 10162 10161 10158 ] final   82.93 input  -65.29 | X-H torsion
[ 10718 10713 10712 10709 ] final -131.13 input   66.30 | X-H torsion
[ 10763 10752 10751 10750 ] final  -56.38 input  -60.55 | X-H torsion
[ 11005 11000 10999 10996 ] final -145.14 input  -57.11 | X-H torsion

> <Gold.Protein.ActiveResidues>
 VAL166  LYS551  ARG553  GLY616  TRP617  ASP618  TYR619  PRO620  LYS621  CYS622 
 ASP623  PHE694  ASN695  SER759  ASP760  ASP761  ALA762  ILE779  LEU786  VAL792 
 PHE793  MET794  SER795  GLU796  ALA797  LYS798  CYS799  TRP800  GLU811  SER814 

> <Gold.Protein.RotatedAtoms>
  151.3349  133.3985  159.2665 H   0  0  0  0  0  0  0  0  0  0  0  0  # atno 6907 bound_to 6896
  150.9925  134.9257  159.7918 H   0  0  0  0  0  0  0  0  0  0  0  0  # atno 6908 bound_to 6896
  152.5251  134.3314  159.9237 H   0  0  0  0  0  0  0  0  0  0  0  0  # atno 6909 bound_to 6896
  146.2274  139.8875  142.8560 H   0  0  0  0  0  0  0  0  0  0  0  0  # atno 7974 bound_to 7965
  155.4053  140.3440  155.4260 H   0  0  0  0  0  0  0  0  0  0  0  0  # atno 8008 bound_to 7997
  156.1480  140.1562  156.8848 H   0  0  0  0  0  0  0  0  0  0  0  0  # atno 8009 bound_to 7997
  154.5027  140.0810  156.7813 H   0  0  0  0  0  0  0  0  0  0  0  0  # atno 8010 bound_to 7997
  139.9236  144.6197  150.8415 H   0  0  0  0  0  0  0  0  0  0  0  0  # atno 10167 bound_to 10162
  156.2213  130.6980  151.0759 H   0  0  0  0  0  0  0  0  0  0  0  0  # atno 10718 bound_to 10713
  154.2058  135.6403  153.5100 H   0  0  0  0  0  0  0  0  0  0  0  0  # atno 10763 bound_to 10752
  153.0001  135.5462  154.6267 H   0  0  0  0  0  0  0  0  0  0  0  0  # atno 10764 bound_to 10752
  154.5692  135.2915  155.0817 H   0  0  0  0  0  0  0  0  0  0  0  0  # atno 10765 bound_to 10752
  140.7953  134.2921  157.4999 H   0  0  0  0  0  0  0  0  0  0  0  0  # atno 11005 bound_to 11000
  145.2451  141.0023  143.3913 LP  0  0  0  0  0  0  0  0  0  0  0  0  # atno 17320 bound_to 7965
  144.9420  139.4178  143.6444 LP  0  0  0  0  0  0  0  0  0  0  0  0  # atno 17321 bound_to 7965
  140.7656  143.3279  151.2475 LP  0  0  0  0  0  0  0  0  0  0  0  0  # atno 17342 bound_to 10162
  139.6840  143.9805  152.2824 LP  0  0  0  0  0  0  0  0  0  0  0  0  # atno 17343 bound_to 10162
  157.7089  131.0743  150.6571 LP  0  0  0  0  0  0  0  0  0  0  0  0  # atno 17370 bound_to 10713
  156.6634  130.4519  149.5680 LP  0  0  0  0  0  0  0  0  0  0  0  0  # atno 17371 bound_to 10713
  139.8727  134.9398  156.3752 LP  0  0  0  0  0  0  0  0  0  0  0  0  # atno 17394 bound_to 11000
  140.9349  133.7554  156.0072 LP  0  0  0  0  0  0  0  0  0  0  0  0  # atno 17395 bound_to 11000

$$$$
