AV-unprocessed.smi:522|AV-procd|sdf|2802|dock3
  -GOLD-   2262023273D 1   1.00000     0.00000
 Structure written by MMmdl.
 41 42  0  0  0  0  0  0  0  0  1 V2000
  153.9117  137.8786  158.0810 C   0  0  0  0  0  0  0  0  0  0  0  0
  154.2145  139.1613  158.5995 O   0  0  0  0  0  0  0  0  0  0  0  0
  153.2913  139.5795  159.5917 C   0  0  0  0  0  0  0  0  0  0  0  0
  151.8840  139.6771  158.9869 C   0  0  0  0  0  0  0  0  0  0  0  0
  151.6907  140.9186  158.2521 N   0  0  0  0  0  0  0  0  0  0  0  0
  151.3338  141.0800  156.9539 C   0  0  0  0  0  0  0  0  0  0  0  0
  151.0303  139.7077  155.8859 S   0  0  0  0  0  0  0  0  0  0  0  0
  149.2167  139.8438  155.7868 C   0  0  0  0  0  0  0  0  0  0  0  0
  148.7438  140.7099  154.6102 C   0  0  0  0  0  0  0  0  0  0  0  0
  149.5491  141.4688  154.0689 O   0  0  0  0  0  0  0  0  0  0  0  0
  147.3130  140.5902  154.2286 C   0  0  0  0  0  0  0  0  0  0  0  0
  146.5240  141.7575  153.9875 C   0  0  0  0  0  0  0  0  0  0  0  0
  145.8995  142.7123  153.7913 N   0  0  0  0  0  0  0  0  0  0  0  0
  146.6941  139.3857  154.1023 C   0  0  0  0  0  0  0  0  0  0  0  0
  147.3275  138.0189  154.3331 C   0  0  0  0  0  0  0  0  0  0  0  0
  145.3610  139.2863  153.7439 N   0  0  0  0  0  0  0  0  0  0  0  0
  151.2210  142.3423  156.5387 N   0  0  0  0  0  0  0  0  0  0  0  0
  151.5389  143.0660  157.6710 C   0  0  0  0  0  0  0  0  0  0  0  0
  151.6033  144.4621  157.8812 C   0  0  0  0  0  0  0  0  0  0  0  0
  151.9569  144.9776  159.1454 C   0  0  0  0  0  0  0  0  0  0  0  0
  152.2497  144.1070  160.2150 C   0  0  0  0  0  0  0  0  0  0  0  0
  152.1913  142.7127  160.0268 C   0  0  0  0  0  0  0  0  0  0  0  0
  151.8383  142.2036  158.7628 C   0  0  0  0  0  0  0  0  0  0  0  0
  154.6446  137.6084  157.3208 H   0  0  0  0  0  0  0  0  0  0  0  0
  152.9243  137.8636  157.6176 H   0  0  0  0  0  0  0  0  0  0  0  0
  153.9438  137.1198  158.8639 H   0  0  0  0  0  0  0  0  0  0  0  0
  153.2882  138.8706  160.4206 H   0  0  0  0  0  0  0  0  0  0  0  0
  153.5901  140.5491  159.9936 H   0  0  0  0  0  0  0  0  0  0  0  0
  151.6905  138.8281  158.3318 H   0  0  0  0  0  0  0  0  0  0  0  0
  151.1350  139.6242  159.7775 H   0  0  0  0  0  0  0  0  0  0  0  0
  148.7884  138.8443  155.7107 H   0  0  0  0  0  0  0  0  0  0  0  0
  148.8482  140.2829  156.7138 H   0  0  0  0  0  0  0  0  0  0  0  0
  147.7523  137.9556  155.3356 H   0  0  0  0  0  0  0  0  0  0  0  0
  148.1163  137.8320  153.6040 H   0  0  0  0  0  0  0  0  0  0  0  0
  146.5989  137.2125  154.2373 H   0  0  0  0  0  0  0  0  0  0  0  0
  144.7967  140.1045  153.5625 H   0  0  0  0  0  0  0  0  0  0  0  0
  144.8956  138.3944  153.6500 H   0  0  0  0  0  0  0  0  0  0  0  0
  151.3815  145.1372  157.0680 H   0  0  0  0  0  0  0  0  0  0  0  0
  152.0041  146.0464  159.2951 H   0  0  0  0  0  0  0  0  0  0  0  0
  152.5193  144.5101  161.1802 H   0  0  0  0  0  0  0  0  0  0  0  0
  152.4158  142.0428  160.8437 H   0  0  0  0  0  0  0  0  0  0  0  0
  1  2  1  0  0  0  0
  1 24  1  0  0  0  0
  1 25  1  0  0  0  0
  1 26  1  0  0  0  0
  2  3  1  0  0  0  0
  3  4  1  0  0  0  0
  3 27  1  0  0  0  0
  3 28  1  0  0  0  0
  4  5  1  0  0  0  0
  4 29  1  0  0  0  0
  4 30  1  0  0  0  0
  5 23  1  0  0  0  0
  5  6  1  0  0  0  0
  6  7  1  0  0  0  0
  6 17  2  0  0  0  0
  7  8  1  0  0  0  0
  8  9  1  0  0  0  0
  8 31  1  0  0  0  0
  8 32  1  0  0  0  0
  9 10  2  0  0  0  0
  9 11  1  0  0  0  0
 11 12  1  0  0  0  0
 11 14  2  0  0  0  0
 12 13  3  0  0  0  0
 14 15  1  0  0  0  0
 14 16  1  0  0  0  0
 15 33  1  0  0  0  0
 15 34  1  0  0  0  0
 15 35  1  0  0  0  0
 16 36  1  0  0  0  0
 16 37  1  0  0  0  0
 17 18  1  0  0  0  0
 18 23  2  0  0  0  0
 18 19  1  0  0  0  0
 19 20  2  0  0  0  0
 19 38  1  0  0  0  0
 20 21  1  0  0  0  0
 20 39  1  0  0  0  0
 21 22  2  0  0  0  0
 21 40  1  0  0  0  0
 22 23  1  0  0  0  0
 22 41  1  0  0  0  0
M  END
> <s_m_source_file>
AV-unprocessed.smi

> <i_m_source_file_index>
522

> <i_lp_mmshare_version>
43012

> <i_f3d_flags>
0

> <s_epik_input>
W2NIXTFbY0hdW2NIXVtjSF1jKGMxMiluKFtDSDJdW0NIMl1PW0NIM10pYyhuMilTW0NIMl1DKD1PKS9DKEMjTik9QygvW0NIM10pW05IMl0=

> <s_epik_cmdline>
J2VwaWtfcHl0aG9uJywgJy1waCcsICc3LjAnLCAnLXRuJywgJzgnLCAnLW1hJywgJzIwMCcsICctbWV0YWxfYmluZGluZycsICctaW1hZScsICc8aW5maWxlLm1hZT4nLCAnLW9tYWUnLCAnPG91dGZpbGUubWFlPic=

> <r_lp_tautomer_probability>
0.5

> <r_epik_Ionization_Penalty>
0.0129021

> <r_epik_Ionization_Penalty_Charging>
0

> <r_epik_Ionization_Penalty_Neutral>
0.0129021

> <r_epik_State_Penalty>
0.42069

> <r_epik_Charging_Adjusted_Penalty>
0.42069

> <i_epik_Tot_Q>
0

> <i_epik_Tot_abs_Q>
0

> <r_epik_Metal_State_Penalty>
0.41068

> <b_epik_Metal_Only>
0

> <s_lp_Force_Field>
OPLS_2005

> <r_lp_Energy>
16.5573

> <b_lp_Chiralities_Consistent>
1

> <s_lp_Variant>
AV-unprocessed.smi:522-2

> <Gold.Version>
5.8.1

> <Gold.Id.Protein>
6NUR|6NUR_protein|mol2

> <Gold.PLP.Fitness>
47.7886

> <Gold.PLP.PLP>
-42.9575

> <Gold.PLP.part.hbond>
-3.6225

> <Gold.PLP.part.metal>
0.0000

> <Gold.PLP.part.buried>
-5.1313

> <Gold.PLP.part.nonpolar>
-35.3744

> <Gold.PLP.part.repulsive>
0.4975

> <Gold.PLP.ligand.clash>
0.0000

> <Gold.PLP.ligand.torsion>
1.4268

> <Gold.PLP.Chemscore.Hbond>
2.5216

> <Gold.PLP.Chemscore.CHOScore>
0.0000

> <Gold.PLP.Chemscore.Metal>
0.0000

> <Gold.Chemscore.Hbonds>
donor molecule, donor type, donor heavy atom, donor atom, acceptor molecule, acceptor atom, score
      L1  H    16    36       P1 10175  0.70
      P1  H  7989  7998       L1    10  0.15
      P1  H  7997  8009       L1     2  1.00
      P1  H  8011  8017       L1    10  0.67

> <Gold.PLP.Chemscore.Internal.Correction>
0.1200

> <Gold.Rescore>
     Score         DG    S(hbond)    S(metal)    S(lipo)     H(rot)  DE(clash)    DE(int)     intcor
     17.04     -20.28       2.52        0.00     105.52       2.33       0.65       2.59       ----

> <Gold.Chemscore.Fitness>
17.0423

> <Gold.Chemscore.DG>
-20.2811

> <Gold.Chemscore.ZeroCoef>
-5.4800

> <Gold.Chemscore.Hbond>
2.5194

> <Gold.Chemscore.Metal>
0.0000

> <Gold.Chemscore.Lipo>
105.5215

> <Gold.Chemscore.Internal_Hbond>
0.0000

> <Gold.Chemscore.DEClash>
0.6491

> <Gold.Chemscore.DEInternal>
2.5897

> <Gold.Chemscore.Rot>
2.3280

> <Gold.Chemscore.Internal.Correction>
   9.000000E+99

> <Gold.Chemscore.Hbonds>
donor molecule, donor type, donor heavy atom, donor atom, acceptor molecule, acceptor atom, score
      L1  H    16    36       P1 10175  0.69
      P1  H  7989  7998       L1    10  0.15
      P1  H  7997  8009       L1     2  0.29
      P1  H  8011  8017       L1    10  0.64

> <Gold.Chemscore.Hbond.Weighted>
-8.4149

> <Gold.Chemscore.Metal.Weighted>
-0.0000

> <Gold.Chemscore.Lipo.Weighted>
-12.3460

> <Gold.Chemscore.Internal_Hbond.Weighted>
0.0000

> <Gold.Chemscore.DEClash.Weighted>
0.6491

> <Gold.Chemscore.DEInternal.Weighted>
2.5897

> <Gold.Chemscore.Rot.Weighted>
5.9598

> <Gold.Chemscore.Internal.Correction.Weighted>
   9.000000E+99

> <Gold.Protein.RotatedTorsions>
[ 6907 6896 6895 6894 ] final   84.92 input  -60.11 | X-H torsion
[ 7974 7965 7964 7962 ] final -147.82 input  175.53 | X-H torsion
[ 8008 7997 7996 7995 ] final  150.06 input   59.86 | X-H torsion
[ 10167 10162 10161 10158 ] final  128.40 input  -65.29 | X-H torsion
[ 10718 10713 10712 10709 ] final -131.34 input   66.30 | X-H torsion
[ 10763 10752 10751 10750 ] final -151.74 input  -60.55 | X-H torsion
[ 11005 11000 10999 10996 ] final   82.62 input  -57.11 | X-H torsion

> <Gold.Protein.ActiveResidues>
 VAL166  LYS551  ARG553  GLY616  TRP617  ASP618  TYR619  PRO620  LYS621  CYS622 
 ASP623  PHE694  ASN695  SER759  ASP760  ASP761  ALA762  ILE779  LEU786  VAL792 
 PHE793  MET794  SER795  GLU796  ALA797  LYS798  CYS799  TRP800  GLU811  SER814 

> <Gold.Protein.RotatedAtoms>
  152.5363  134.2665  159.8955 H   0  0  0  0  0  0  0  0  0  0  0  0  # atno 6907 bound_to 6896
  151.2624  133.4289  159.2624 H   0  0  0  0  0  0  0  0  0  0  0  0  # atno 6908 bound_to 6896
  151.0441  134.9642  159.8234 H   0  0  0  0  0  0  0  0  0  0  0  0  # atno 6909 bound_to 6896
  144.8069  140.5277  143.5669 H   0  0  0  0  0  0  0  0  0  0  0  0  # atno 7974 bound_to 7965
  156.2731  140.2085  156.5957 H   0  0  0  0  0  0  0  0  0  0  0  0  # atno 8008 bound_to 7997
  154.6947  140.0527  157.0422 H   0  0  0  0  0  0  0  0  0  0  0  0  # atno 8009 bound_to 7997
  155.0818  140.3187  155.4602 H   0  0  0  0  0  0  0  0  0  0  0  0  # atno 8010 bound_to 7997
  139.5529  144.6827  151.4270 H   0  0  0  0  0  0  0  0  0  0  0  0  # atno 10167 bound_to 10162
  156.2235  130.6993  151.0781 H   0  0  0  0  0  0  0  0  0  0  0  0  # atno 10718 bound_to 10713
  154.8039  135.3253  154.7481 H   0  0  0  0  0  0  0  0  0  0  0  0  # atno 10763 bound_to 10752
  153.8143  135.6893  153.4840 H   0  0  0  0  0  0  0  0  0  0  0  0  # atno 10764 bound_to 10752
  153.1772  135.4600  154.9925 H   0  0  0  0  0  0  0  0  0  0  0  0  # atno 10765 bound_to 10752
  139.9058  134.8084  156.2199 H   0  0  0  0  0  0  0  0  0  0  0  0  # atno 11005 bound_to 11000
  145.5417  139.1475  143.3443 LP  0  0  0  0  0  0  0  0  0  0  0  0  # atno 17320 bound_to 7965
  146.2362  140.5556  142.8954 LP  0  0  0  0  0  0  0  0  0  0  0  0  # atno 17321 bound_to 7965
  140.6795  143.8113  150.7103 LP  0  0  0  0  0  0  0  0  0  0  0  0  # atno 17342 bound_to 10162
  140.1562  143.4315  152.2098 LP  0  0  0  0  0  0  0  0  0  0  0  0  # atno 17343 bound_to 10162
  157.7099  131.0739  150.6538 LP  0  0  0  0  0  0  0  0  0  0  0  0  # atno 17370 bound_to 10713
  156.6602  130.4510  149.5690 LP  0  0  0  0  0  0  0  0  0  0  0  0  # atno 17371 bound_to 10713
  141.0412  133.6937  156.1602 LP  0  0  0  0  0  0  0  0  0  0  0  0  # atno 17394 bound_to 11000
  140.6952  134.4623  157.5588 LP  0  0  0  0  0  0  0  0  0  0  0  0  # atno 17395 bound_to 11000

$$$$
