AV-unprocessed.smi:2734|AV-procd|sdf|10537|dock1
  -GOLD-   2272014583D 1   1.00000     0.00000
 Structure written by MMmdl.
 40 42  0  0  0  0  0  0  0  0  1 V2000
  153.2030  142.9486  161.2437 C   0  0  0  0  0  0  0  0  0  0  0  0
  152.5618  142.6259  159.9055 C   0  0  0  0  0  0  0  0  0  0  0  0
  152.8862  141.4092  159.2639 C   0  0  0  0  0  0  0  0  0  0  0  0
  152.3106  141.0706  158.0197 C   0  0  0  0  0  0  0  0  0  0  0  0
  152.4811  139.9498  157.2254 N   0  0  0  0  0  0  0  0  0  0  0  0
  151.6778  140.2228  156.2009 C   0  0  0  0  0  0  0  0  0  0  0  0
  151.0069  141.3902  156.2379 N   0  0  0  0  0  0  0  0  0  0  0  0
  150.0817  141.9038  155.2438 C   0  0  0  0  0  0  0  0  0  0  0  0
  149.1502  140.8109  154.6866 C   0  0  2  0  0  0  0  0  0  0  0  0
  148.8491  141.0916  153.3330 O   0  0  0  0  0  0  0  0  0  0  0  0
  147.8416  140.7100  155.4863 C   0  0  0  0  0  0  0  0  0  0  0  0
  146.8933  142.2622  155.4447 S   0  0  0  0  0  0  0  0  0  0  0  0
  146.5290  142.4394  157.1640 C   0  0  0  0  0  0  0  0  0  0  0  0
  146.9594  141.6606  158.1503 N   0  0  0  0  0  0  0  0  0  0  0  0
  146.3988  142.2162  159.2846 N   0  0  0  0  0  0  0  0  0  0  0  0
  145.6786  143.2595  158.9919 N   0  0  0  0  0  0  0  0  0  0  0  0
  145.7511  143.4158  157.6478 N   0  0  0  0  0  0  0  0  0  0  0  0
  145.0540  144.4975  156.9810 C   0  0  0  0  0  0  0  0  0  0  0  0
  151.3955  141.9907  157.4298 C   0  0  0  0  0  0  0  0  0  0  0  0
  151.0651  143.2044  158.0576 C   0  0  0  0  0  0  0  0  0  0  0  0
  151.6478  143.5264  159.3012 C   0  0  0  0  0  0  0  0  0  0  0  0
  151.2821  144.8380  159.9733 C   0  0  0  0  0  0  0  0  0  0  0  0
  153.8892  142.1614  161.5571 H   0  0  0  0  0  0  0  0  0  0  0  0
  152.4408  143.0550  162.0161 H   0  0  0  0  0  0  0  0  0  0  0  0
  153.7677  143.8790  161.1830 H   0  0  0  0  0  0  0  0  0  0  0  0
  153.5817  140.7228  159.7238 H   0  0  0  0  0  0  0  0  0  0  0  0
  151.5685  139.5336  155.3763 H   0  0  0  0  0  0  0  0  0  0  0  0
  149.4959  142.6988  155.7067 H   0  0  0  0  0  0  0  0  0  0  0  0
  150.6536  142.3667  154.4380 H   0  0  0  0  0  0  0  0  0  0  0  0
  149.6653  139.8502  154.7259 H   0  0  0  0  0  0  0  0  0  0  0  0
  149.0502  140.3257  152.8169 H   0  0  0  0  0  0  0  0  0  0  0  0
  147.2191  139.9182  155.0677 H   0  0  0  0  0  0  0  0  0  0  0  0
  148.0516  140.4407  156.5224 H   0  0  0  0  0  0  0  0  0  0  0  0
  144.2853  144.0879  156.3257 H   0  0  0  0  0  0  0  0  0  0  0  0
  145.7595  145.0774  156.3856 H   0  0  0  0  0  0  0  0  0  0  0  0
  144.5826  145.1569  157.7108 H   0  0  0  0  0  0  0  0  0  0  0  0
  150.3673  143.8802  157.5856 H   0  0  0  0  0  0  0  0  0  0  0  0
  150.5601  145.4009  159.3809 H   0  0  0  0  0  0  0  0  0  0  0  0
  152.1673  145.4609  160.1024 H   0  0  0  0  0  0  0  0  0  0  0  0
  150.8403  144.6551  160.9530 H   0  0  0  0  0  0  0  0  0  0  0  0
  1  2  1  0  0  0  0
  1 23  1  0  0  0  0
  1 24  1  0  0  0  0
  1 25  1  0  0  0  0
  2 21  1  0  0  0  0
  2  3  2  0  0  0  0
  3  4  1  0  0  0  0
  3 26  1  0  0  0  0
  4 19  2  0  0  0  0
  4  5  1  0  0  0  0
  5  6  2  0  0  0  0
  6  7  1  0  0  0  0
  6 27  1  0  0  0  0
  7  8  1  0  0  0  0
  7 19  1  0  0  0  0
  8  9  1  0  0  0  0
  8 28  1  0  0  0  0
  8 29  1  0  0  0  0
  9 10  1  0  0  0  0
  9 11  1  0  0  0  0
  9 30  1  0  0  0  0
 10 31  1  0  0  0  0
 11 12  1  0  0  0  0
 11 32  1  0  0  0  0
 11 33  1  0  0  0  0
 12 13  1  0  0  0  0
 13 17  1  0  0  0  0
 13 14  2  0  0  0  0
 14 15  1  0  0  0  0
 15 16  2  0  0  0  0
 16 17  1  0  0  0  0
 17 18  1  0  0  0  0
 18 34  1  0  0  0  0
 18 35  1  0  0  0  0
 18 36  1  0  0  0  0
 19 20  1  0  0  0  0
 20 21  2  0  0  0  0
 20 37  1  0  0  0  0
 21 22  1  0  0  0  0
 22 38  1  0  0  0  0
 22 39  1  0  0  0  0
 22 40  1  0  0  0  0
M  END
> <s_m_source_file>
AV-unprocessed.smi

> <i_m_source_file_index>
2734

> <i_lp_mmshare_version>
43012

> <i_f3d_flags>
0

> <s_epik_input>
W0NIM11jKFtjSF0xKWMoW0NIM10pW2NIXWMoYzEyKW4oW2NIXW4yKVtDSDJdW0NASF0oW09IXSlbQ0gyXVNjM25ubm4zW0NIM10=

> <s_epik_cmdline>
J2VwaWtfcHl0aG9uJywgJy1waCcsICc3LjAnLCAnLXRuJywgJzgnLCAnLW1hJywgJzIwMCcsICctbWV0YWxfYmluZGluZycsICctaW1hZScsICc8aW5maWxlLm1hZT4nLCAnLW9tYWUnLCAnPG91dGZpbGUubWFlPic=

> <r_lp_tautomer_probability>
1

> <r_epik_Ionization_Penalty>
0.105517

> <r_epik_Ionization_Penalty_Charging>
0

> <r_epik_Ionization_Penalty_Neutral>
0.105517

> <r_epik_State_Penalty>
0.0953887

> <r_epik_Charging_Adjusted_Penalty>
0.0953887

> <i_epik_Tot_Q>
0

> <i_epik_Tot_abs_Q>
0

> <r_epik_Metal_State_Penalty>
0.0808533

> <b_epik_Metal_Only>
0

> <s_lp_Force_Field>
OPLS_2005

> <r_lp_Energy>
9.5145

> <b_lp_Chiralities_Consistent>
1

> <s_lp_Variant>
AV-unprocessed.smi:2734-1

> <Gold.Version>
5.8.1

> <Gold.Id.Protein>
6NUR|6NUR_protein|mol2

> <Gold.PLP.Fitness>
50.5520

> <Gold.PLP.PLP>
-41.3988

> <Gold.PLP.part.hbond>
-4.6357

> <Gold.PLP.part.metal>
0.0000

> <Gold.PLP.part.buried>
-4.5157

> <Gold.PLP.part.nonpolar>
-31.4285

> <Gold.PLP.part.repulsive>
0.1046

> <Gold.PLP.ligand.clash>
0.0000

> <Gold.PLP.ligand.torsion>
1.0348

> <Gold.PLP.Chemscore.Hbond>
3.6720

> <Gold.PLP.Chemscore.CHOScore>
0.0000

> <Gold.PLP.Chemscore.Metal>
0.0000

> <Gold.Chemscore.Hbonds>
donor molecule, donor type, donor heavy atom, donor atom, acceptor molecule, acceptor atom, score
      L1  H    10    31       P1  7957  0.69
      P1  H  6934  6946       L1    15  1.00
      P1  H  7997  8009       L1     5  1.00
      P1  H  8011  8017       L1    10  1.00

> <Gold.PLP.Chemscore.Internal.Correction>
0.2069

> <Gold.Rescore>
     Score         DG    S(hbond)    S(metal)    S(lipo)     H(rot)  DE(clash)    DE(int)     intcor
     15.90     -17.35       2.11        0.00     103.42       2.85       0.21       1.24       ----

> <Gold.Chemscore.Fitness>
15.9026

> <Gold.Chemscore.DG>
-17.3535

> <Gold.Chemscore.ZeroCoef>
-5.4800

> <Gold.Chemscore.Hbond>
2.1128

> <Gold.Chemscore.Metal>
0.0000

> <Gold.Chemscore.Lipo>
103.4220

> <Gold.Chemscore.Internal_Hbond>
0.0000

> <Gold.Chemscore.DEClash>
0.2083

> <Gold.Chemscore.DEInternal>
1.2426

> <Gold.Chemscore.Rot>
2.8452

> <Gold.Chemscore.Internal.Correction>
   9.000000E+99

> <Gold.Chemscore.Hbonds>
donor molecule, donor type, donor heavy atom, donor atom, acceptor molecule, acceptor atom, score
      L1  H    10    31       P1  7957  0.70
      P1  H  6934  6946       L1    15  0.27
      P1  H  7997  8009       L1     5  0.26
      P1  H  8011  8017       L1    10  0.24

> <Gold.Chemscore.Hbond.Weighted>
-7.0568

> <Gold.Chemscore.Metal.Weighted>
-0.0000

> <Gold.Chemscore.Lipo.Weighted>
-12.1004

> <Gold.Chemscore.Internal_Hbond.Weighted>
0.0000

> <Gold.Chemscore.DEClash.Weighted>
0.2083

> <Gold.Chemscore.DEInternal.Weighted>
1.2426

> <Gold.Chemscore.Rot.Weighted>
7.2837

> <Gold.Chemscore.Internal.Correction.Weighted>
   9.000000E+99

> <Gold.Protein.RotatedTorsions>
[ 6907 6896 6895 6894 ] final   61.89 input  -60.11 | X-H torsion
[ 7974 7965 7964 7962 ] final  -19.33 input  175.53 | X-H torsion
[ 8008 7997 7996 7995 ] final -173.39 input   59.86 | X-H torsion
[ 10167 10162 10161 10158 ] final  -13.15 input  -65.29 | X-H torsion
[ 10718 10713 10712 10709 ] final -141.09 input   66.30 | X-H torsion
[ 10763 10752 10751 10750 ] final  -67.46 input  -60.55 | X-H torsion
[ 11005 11000 10999 10996 ] final   96.71 input  -57.11 | X-H torsion

> <Gold.Protein.ActiveResidues>
 VAL166  LYS551  ARG553  GLY616  TRP617  ASP618  TYR619  PRO620  LYS621  CYS622 
 ASP623  PHE694  ASN695  SER759  ASP760  ASP761  ALA762  ILE779  LEU786  VAL792 
 PHE793  MET794  SER795  GLU796  ALA797  LYS798  CYS799  TRP800  GLU811  SER814 

> <Gold.Protein.RotatedAtoms>
  152.4127  134.6097  160.0022 H   0  0  0  0  0  0  0  0  0  0  0  0  # atno 6907 bound_to 6896
  151.6269  133.3329  159.3108 H   0  0  0  0  0  0  0  0  0  0  0  0  # atno 6908 bound_to 6896
  150.8017  134.7154  159.6672 H   0  0  0  0  0  0  0  0  0  0  0  0  # atno 6909 bound_to 6896
  146.1847  140.4047  142.8481 H   0  0  0  0  0  0  0  0  0  0  0  0  # atno 7974 bound_to 7965
  155.9568  140.1137  157.0929 H   0  0  0  0  0  0  0  0  0  0  0  0  # atno 8008 bound_to 7997
  154.4122  140.1189  156.5193 H   0  0  0  0  0  0  0  0  0  0  0  0  # atno 8009 bound_to 7997
  155.6771  140.3473  155.4843 H   0  0  0  0  0  0  0  0  0  0  0  0  # atno 8010 bound_to 7997
  140.7176  143.5457  150.9358 H   0  0  0  0  0  0  0  0  0  0  0  0  # atno 10167 bound_to 10162
  156.3299  130.7580  151.1696 H   0  0  0  0  0  0  0  0  0  0  0  0  # atno 10718 bound_to 10713
  154.3748  135.6087  153.5759 H   0  0  0  0  0  0  0  0  0  0  0  0  # atno 10763 bound_to 10752
  152.9789  135.5846  154.4480 H   0  0  0  0  0  0  0  0  0  0  0  0  # atno 10764 bound_to 10752
  154.4239  135.2846  155.1935 H   0  0  0  0  0  0  0  0  0  0  0  0  # atno 10765 bound_to 10752
  139.8780  134.8964  156.4199 H   0  0  0  0  0  0  0  0  0  0  0  0  # atno 11005 bound_to 11000
  144.8376  140.6806  143.6250 LP  0  0  0  0  0  0  0  0  0  0  0  0  # atno 17320 bound_to 7965
  145.3974  139.1604  143.4196 LP  0  0  0  0  0  0  0  0  0  0  0  0  # atno 17321 bound_to 7965
  139.9181  143.6639  152.3102 LP  0  0  0  0  0  0  0  0  0  0  0  0  # atno 17342 bound_to 10162
  139.7046  144.7630  151.1214 LP  0  0  0  0  0  0  0  0  0  0  0  0  # atno 17343 bound_to 10162
  157.7428  131.0484  150.4993 LP  0  0  0  0  0  0  0  0  0  0  0  0  # atno 17370 bound_to 10713
  156.5158  130.4150  149.6277 LP  0  0  0  0  0  0  0  0  0  0  0  0  # atno 17371 bound_to 10713
  140.9141  133.7691  155.9827 LP  0  0  0  0  0  0  0  0  0  0  0  0  # atno 17394 bound_to 11000
  140.8513  134.2950  157.5274 LP  0  0  0  0  0  0  0  0  0  0  0  0  # atno 17395 bound_to 11000

$$$$
