AV-unprocessed.smi:1554|AV-procd|sdf|6262|dock2
  -GOLD-   22720 6453D 1   1.00000     0.00000
 Structure written by MMmdl.
 49 51  0  0  0  0  0  0  0  0  3 V2000
  152.0953  143.3963  160.3509 C   0  0  0  0  0  0  0  0  0  0  0  0
  151.7827  142.4576  159.1979 C   0  0  0  0  0  0  0  0  0  0  0  0
  150.9516  142.9240  158.1548 C   0  0  0  0  0  0  0  0  0  0  0  0
  150.6856  142.0430  157.1134 C   0  0  0  0  0  0  0  0  0  0  0  0
  149.9189  142.2008  155.9572 N   0  3  0  0  0  0  0  0  0  0  0  0
  149.9532  141.0512  155.2285 C   0  0  0  0  0  0  0  0  0  0  0  0
  150.7347  140.1615  155.8998 N   0  0  0  0  0  0  0  0  0  0  0  0
  151.0872  138.7782  155.5495 C   0  0  0  0  0  0  0  0  0  0  0  0
  149.8611  137.8475  155.4656 C   0  0  2  0  0  0  0  0  0  0  0  0
  149.1566  137.9600  156.6853 O   0  0  0  0  0  0  0  0  0  0  0  0
  150.2182  136.3630  155.2313 C   0  0  0  0  0  0  0  0  0  0  0  0
  149.2049  135.6527  154.4099 N   0  3  2  0  0  0  0  0  0  0  0  0
  147.8215  135.8973  154.8818 C   0  0  0  0  0  0  0  0  0  0  0  0
  146.8082  135.1912  153.9661 C   0  0  0  0  0  0  0  0  0  0  0  0
  147.1011  133.8005  153.9164 O   0  0  0  0  0  0  0  0  0  0  0  0
  148.3931  133.5402  153.3789 C   0  0  2  0  0  0  0  0  0  0  0  0
  148.5746  132.0214  153.2813 C   0  0  0  0  0  0  0  0  0  0  0  0
  149.4561  134.1954  154.2821 C   0  0  0  0  0  0  0  0  0  0  0  0
  151.2116  140.7362  157.0851 C   0  0  0  0  0  0  0  0  0  0  0  0
  152.0322  140.2613  158.1063 C   0  0  0  0  0  0  0  0  0  0  0  0
  152.3166  141.1433  159.1733 C   0  0  0  0  0  0  0  0  0  0  0  0
  153.2110  140.6528  160.2993 C   0  0  0  0  0  0  0  0  0  0  0  0
  151.5937  144.3570  160.2309 H   0  0  0  0  0  0  0  0  0  0  0  0
  153.1672  143.5853  160.4104 H   0  0  0  0  0  0  0  0  0  0  0  0
  151.7661  142.9657  161.2969 H   0  0  0  0  0  0  0  0  0  0  0  0
  150.5414  143.9235  158.1670 H   0  0  0  0  0  0  0  0  0  0  0  0
  149.4493  140.8771  154.2885 H   0  0  0  0  0  0  0  0  0  0  0  0
  151.6549  138.7712  154.6191 H   0  0  0  0  0  0  0  0  0  0  0  0
  151.7701  138.4219  156.3224 H   0  0  0  0  0  0  0  0  0  0  0  0
  149.2118  138.2117  154.6702 H   0  0  0  0  0  0  0  0  0  0  0  0
  149.5085  138.6883  157.1747 H   0  0  0  0  0  0  0  0  0  0  0  0
  151.1895  136.2639  154.7456 H   0  0  0  0  0  0  0  0  0  0  0  0
  150.3118  135.8730  156.2019 H   0  0  0  0  0  0  0  0  0  0  0  0
  147.7141  135.5365  155.9061 H   0  0  0  0  0  0  0  0  0  0  0  0
  147.6166  136.9685  154.8947 H   0  0  0  0  0  0  0  0  0  0  0  0
  145.7969  135.3258  154.3502 H   0  0  0  0  0  0  0  0  0  0  0  0
  146.8266  135.6168  152.9615 H   0  0  0  0  0  0  0  0  0  0  0  0
  148.4548  133.9619  152.3738 H   0  0  0  0  0  0  0  0  0  0  0  0
  149.5500  131.7681  152.8652 H   0  0  0  0  0  0  0  0  0  0  0  0
  147.8147  131.5786  152.6370 H   0  0  0  0  0  0  0  0  0  0  0  0
  148.4957  131.5493  154.2612 H   0  0  0  0  0  0  0  0  0  0  0  0
  150.4444  134.0158  153.8604 H   0  0  0  0  0  0  0  0  0  0  0  0
  149.4433  133.7352  155.2716 H   0  0  0  0  0  0  0  0  0  0  0  0
  152.4417  139.2626  158.0932 H   0  0  0  0  0  0  0  0  0  0  0  0
  153.5352  139.6249  160.1335 H   0  0  0  0  0  0  0  0  0  0  0  0
  152.6807  140.6843  161.2514 H   0  0  0  0  0  0  0  0  0  0  0  0
  154.1032  141.2744  160.3781 H   0  0  0  0  0  0  0  0  0  0  0  0
  149.2622  136.0470  153.4813 H   0  0  0  0  0  0  0  0  0  0  0  0
  149.4056  143.0297  155.6852 H   0  0  0  0  0  0  0  0  0  0  0  0
  1  2  1  0  0  0  0
  1 23  1  0  0  0  0
  1 24  1  0  0  0  0
  1 25  1  0  0  0  0
  2 21  1  0  0  0  0
  2  3  2  0  0  0  0
  3  4  1  0  0  0  0
  3 26  1  0  0  0  0
  4 19  2  0  0  0  0
  4  5  1  0  0  0  0
  5  6  2  0  0  0  0
  5 49  1  0  0  0  0
  6  7  1  0  0  0  0
  6 27  1  0  0  0  0
  7  8  1  0  0  0  0
  7 19  1  0  0  0  0
  8  9  1  0  0  0  0
  8 28  1  0  0  0  0
  8 29  1  0  0  0  0
  9 10  1  0  0  0  0
  9 11  1  0  0  0  0
  9 30  1  0  0  0  0
 10 31  1  0  0  0  0
 11 12  1  0  0  0  0
 11 32  1  0  0  0  0
 11 33  1  0  0  0  0
 12 18  1  0  0  0  0
 12 13  1  0  0  0  0
 12 48  1  0  0  0  0
 13 14  1  0  0  0  0
 13 34  1  0  0  0  0
 13 35  1  0  0  0  0
 14 15  1  0  0  0  0
 14 36  1  0  0  0  0
 14 37  1  0  0  0  0
 15 16  1  0  0  0  0
 16 17  1  0  0  0  0
 16 18  1  0  0  0  0
 16 38  1  0  0  0  0
 17 39  1  0  0  0  0
 17 40  1  0  0  0  0
 17 41  1  0  0  0  0
 18 42  1  0  0  0  0
 18 43  1  0  0  0  0
 19 20  1  0  0  0  0
 20 21  2  0  0  0  0
 20 44  1  0  0  0  0
 21 22  1  0  0  0  0
 22 45  1  0  0  0  0
 22 46  1  0  0  0  0
 22 47  1  0  0  0  0
M  CHG  1   5   1
M  CHG  1  12   1
M  END
> <s_m_source_file>
AV-unprocessed.smi

> <i_m_source_file_index>
1554

> <i_lp_mmshare_version>
43012

> <i_f3d_flags>
0

> <s_epik_input>
W0NIM11jKFtjSF0xKWMoW0NIM10pW2NIXWMoYzEyKW4oW2NIXW4yKVtDSDJdW0NASF0oW09IXSlbQ0gyXU4zW0NIMl1bQ0gyXU9bQ0BASF0oW0NIM10pW0NIMl0z

> <s_epik_cmdline>
J2VwaWtfcHl0aG9uJywgJy1waCcsICc3LjAnLCAnLXRuJywgJzgnLCAnLW1hJywgJzIwMCcsICctbWV0YWxfYmluZGluZycsICctaW1hZScsICc8aW5maWxlLm1hZT4nLCAnLW9tYWUnLCAnPG91dGZpbGUubWFlPic=

> <r_epik_Ionization_Penalty>
1.8848

> <r_epik_Ionization_Penalty_Charging>
1.88479

> <r_epik_Ionization_Penalty_Neutral>
1.42224e-05

> <r_epik_State_Penalty>
1.94551

> <r_epik_Charging_Adjusted_Penalty>
3.8303

> <i_epik_Tot_Q>
2

> <i_epik_Tot_abs_Q>
2

> <r_epik_Metal_State_Penalty>
5.95849

> <b_epik_Metal_Only>
0

> <s_lp_Force_Field>
OPLS_2005

> <r_lp_Energy>
32.1421

> <b_lp_Chiralities_Consistent>
1

> <s_lp_Variant>
AV-unprocessed.smi:1554-23

> <Gold.Version>
5.8.1

> <Gold.Id.Protein>
6NUR|6NUR_protein|mol2

> <Gold.PLP.Fitness>
51.9620

> <Gold.PLP.PLP>
-40.8897

> <Gold.PLP.part.hbond>
-2.0000

> <Gold.PLP.part.metal>
0.0000

> <Gold.PLP.part.buried>
-3.2937

> <Gold.PLP.part.nonpolar>
-36.1850

> <Gold.PLP.part.repulsive>
0.2433

> <Gold.PLP.ligand.clash>
0.0000

> <Gold.PLP.ligand.torsion>
0.5040

> <Gold.PLP.Chemscore.Hbond>
4.0000

> <Gold.PLP.Chemscore.CHOScore>
0.0000

> <Gold.PLP.Chemscore.Metal>
0.0000

> <Gold.Chemscore.Hbonds>
donor molecule, donor type, donor heavy atom, donor atom, acceptor molecule, acceptor atom, score
      L1  H     5    49       P1  8028  2.00
      L1  H    12    48       P1  7948  2.00

> <Gold.PLP.Chemscore.Internal.Correction>
0.0802

> <Gold.Rescore>
     Score         DG    S(hbond)    S(metal)    S(lipo)     H(rot)  DE(clash)    DE(int)     intcor
     18.07     -18.72       1.97        0.00     103.02       2.11       0.03       0.63       ----

> <Gold.Chemscore.Fitness>
18.0658

> <Gold.Chemscore.DG>
-18.7198

> <Gold.Chemscore.ZeroCoef>
-5.4800

> <Gold.Chemscore.Hbond>
1.9741

> <Gold.Chemscore.Metal>
0.0000

> <Gold.Chemscore.Lipo>
103.0230

> <Gold.Chemscore.Internal_Hbond>
0.0000

> <Gold.Chemscore.DEClash>
0.0285

> <Gold.Chemscore.DEInternal>
0.6256

> <Gold.Chemscore.Rot>
2.1122

> <Gold.Chemscore.Internal.Correction>
   9.000000E+99

> <Gold.Chemscore.Hbonds>
donor molecule, donor type, donor heavy atom, donor atom, acceptor molecule, acceptor atom, score
      L1  H     5    49       P1  8028  1.00
      L1  H    12    48       P1  7948  0.78

> <Gold.Chemscore.Hbond.Weighted>
-6.5934

> <Gold.Chemscore.Metal.Weighted>
-0.0000

> <Gold.Chemscore.Lipo.Weighted>
-12.0537

> <Gold.Chemscore.Internal_Hbond.Weighted>
0.0000

> <Gold.Chemscore.DEClash.Weighted>
0.0285

> <Gold.Chemscore.DEInternal.Weighted>
0.6256

> <Gold.Chemscore.Rot.Weighted>
5.4073

> <Gold.Chemscore.Internal.Correction.Weighted>
   9.000000E+99

> <Gold.Protein.RotatedTorsions>
[ 6907 6896 6895 6894 ] final   12.55 input  -60.11 | X-H torsion
[ 7974 7965 7964 7962 ] final  168.93 input  175.53 | X-H torsion
[ 8008 7997 7996 7995 ] final    6.30 input   59.86 | X-H torsion
[ 10167 10162 10161 10158 ] final  -62.63 input  -65.29 | X-H torsion
[ 10718 10713 10712 10709 ] final  137.71 input   66.30 | X-H torsion
[ 10763 10752 10751 10750 ] final  -40.43 input  -60.55 | X-H torsion
[ 11005 11000 10999 10996 ] final  136.13 input  -57.11 | X-H torsion

> <Gold.Protein.ActiveResidues>
 VAL166  LYS551  ARG553  GLY616  TRP617  ASP618  TYR619  PRO620  LYS621  CYS622 
 ASP623  PHE694  ASN695  SER759  ASP760  ASP761  ALA762  ILE779  LEU786  VAL792 
 PHE793  MET794  SER795  GLU796  ALA797  LYS798  CYS799  TRP800  GLU811  SER814 

> <Gold.Protein.RotatedAtoms>
  151.7722  135.0783  160.0361 H   0  0  0  0  0  0  0  0  0  0  0  0  # atno 6907 bound_to 6896
  152.3281  133.5923  159.5799 H   0  0  0  0  0  0  0  0  0  0  0  0  # atno 6908 bound_to 6896
  150.7407  133.9826  159.3623 H   0  0  0  0  0  0  0  0  0  0  0  0  # atno 6909 bound_to 6896
  144.7372  139.8979  143.6407 H   0  0  0  0  0  0  0  0  0  0  0  0  # atno 7974 bound_to 7965
  154.7392  140.2745  155.6388 H   0  0  0  0  0  0  0  0  0  0  0  0  # atno 8008 bound_to 7997
  156.2869  140.2700  156.2041 H   0  0  0  0  0  0  0  0  0  0  0  0  # atno 8009 bound_to 7997
  155.0280  140.0371  157.2453 H   0  0  0  0  0  0  0  0  0  0  0  0  # atno 8010 bound_to 7997
  140.5926  143.2344  151.6107 H   0  0  0  0  0  0  0  0  0  0  0  0  # atno 10167 bound_to 10162
  157.4332  131.1050  151.0227 H   0  0  0  0  0  0  0  0  0  0  0  0  # atno 10718 bound_to 10713
  153.9459  135.6756  153.4744 H   0  0  0  0  0  0  0  0  0  0  0  0  # atno 10763 bound_to 10752
  153.0908  135.4875  154.8683 H   0  0  0  0  0  0  0  0  0  0  0  0  # atno 10764 bound_to 10752
  154.7352  135.3147  154.8782 H   0  0  0  0  0  0  0  0  0  0  0  0  # atno 10765 bound_to 10752
  140.0025  134.9472  157.0103 H   0  0  0  0  0  0  0  0  0  0  0  0  # atno 11005 bound_to 11000
  146.1093  139.4096  143.0298 LP  0  0  0  0  0  0  0  0  0  0  0  0  # atno 17320 bound_to 7965
  145.7466  140.9988  143.1273 LP  0  0  0  0  0  0  0  0  0  0  0  0  # atno 17321 bound_to 7965
  139.5237  144.3125  152.0980 LP  0  0  0  0  0  0  0  0  0  0  0  0  # atno 17342 bound_to 10162
  140.2292  144.4386  150.6307 LP  0  0  0  0  0  0  0  0  0  0  0  0  # atno 17343 bound_to 10162
  157.1116  130.6024  149.5483 LP  0  0  0  0  0  0  0  0  0  0  0  0  # atno 17370 bound_to 10713
  155.9921  130.4977  150.7325 LP  0  0  0  0  0  0  0  0  0  0  0  0  # atno 17371 bound_to 10713
  140.4701  134.1395  155.7202 LP  0  0  0  0  0  0  0  0  0  0  0  0  # atno 17394 bound_to 11000
  141.1652  133.8716  157.1733 LP  0  0  0  0  0  0  0  0  0  0  0  0  # atno 17395 bound_to 11000

$$$$
