AV-unprocessed.smi:2846|AV-procd|sdf|10951|dock7
  -GOLD-   2272015403D 1   1.00000     0.00000
 Structure written by MMmdl.
 48 50  0  0  0  0  0  0  0  0  1 V2000
  149.3166  142.7645  158.6265 O   0  0  0  0  0  0  0  0  0  0  0  0
  150.2549  142.3015  157.9769 C   0  0  0  0  0  0  0  0  0  0  0  0
  151.6763  142.8377  158.1636 C   0  0  0  0  0  0  0  0  0  0  0  0
  152.2025  142.8719  159.5891 C   0  0  0  0  0  0  0  0  0  0  0  0
  151.8894  143.8644  160.4447 C   0  0  0  0  0  0  0  0  0  0  0  0
  152.3776  143.9366  161.8806 C   0  0  0  0  0  0  0  0  0  0  0  0
  152.9675  142.6013  162.3651 C   0  0  0  0  0  0  0  0  0  0  0  0
  153.8769  141.9780  161.2985 C   0  0  0  0  0  0  0  0  0  0  0  0
  153.1117  141.7159  159.9885 C   0  0  0  0  0  0  0  0  0  0  0  0
  150.1152  141.3123  157.0819 N   0  0  0  0  0  0  0  0  0  0  0  0
  148.8626  140.6359  156.7500 C   0  0  0  0  0  0  0  0  0  0  0  0
  148.8796  139.9684  155.3462 C   0  0  0  0  0  0  0  0  0  0  0  0
  149.9591  138.8760  155.3017 C   0  0  0  0  0  0  0  0  0  0  0  0
  149.8182  137.6967  156.0688 C   0  0  0  0  0  0  0  0  0  0  0  0
  150.8161  136.7055  155.9879 C   0  0  0  0  0  0  0  0  0  0  0  0
  151.9090  136.8156  155.2046 N   0  0  0  0  0  0  0  0  0  0  0  0
  152.0395  137.9353  154.4634 C   0  0  0  0  0  0  0  0  0  0  0  0
  151.0998  138.9850  154.4715 C   0  0  0  0  0  0  0  0  0  0  0  0
  147.4805  139.4515  154.9406 C   0  0  0  0  0  0  0  0  0  0  0  0
  146.6903  140.6749  154.4684 C   0  0  0  0  0  0  0  0  0  0  0  0
  147.7379  141.6807  153.9791 C   0  0  0  0  0  0  0  0  0  0  0  0
  149.1042  141.0420  154.2605 C   0  0  0  0  0  0  0  0  0  0  0  0
  152.3398  142.2075  157.5693 H   0  0  0  0  0  0  0  0  0  0  0  0
  151.7473  143.8381  157.7346 H   0  0  0  0  0  0  0  0  0  0  0  0
  151.2620  144.6792  160.1137 H   0  0  0  0  0  0  0  0  0  0  0  0
  153.1284  144.7250  161.9413 H   0  0  0  0  0  0  0  0  0  0  0  0
  151.5516  144.2338  162.5271 H   0  0  0  0  0  0  0  0  0  0  0  0
  153.5178  142.7519  163.2942 H   0  0  0  0  0  0  0  0  0  0  0  0
  152.1581  141.9071  162.5945 H   0  0  0  0  0  0  0  0  0  0  0  0
  154.7109  142.6533  161.1024 H   0  0  0  0  0  0  0  0  0  0  0  0
  154.3125  141.0488  161.6667 H   0  0  0  0  0  0  0  0  0  0  0  0
  152.4952  140.8221  160.0885 H   0  0  0  0  0  0  0  0  0  0  0  0
  153.8244  141.5194  159.1867 H   0  0  0  0  0  0  0  0  0  0  0  0
  150.9427  140.9935  156.5986 H   0  0  0  0  0  0  0  0  0  0  0  0
  148.5919  139.9192  157.5266 H   0  0  0  0  0  0  0  0  0  0  0  0
  148.0827  141.3977  156.7757 H   0  0  0  0  0  0  0  0  0  0  0  0
  148.9610  137.5432  156.7073 H   0  0  0  0  0  0  0  0  0  0  0  0
  150.7305  135.7971  156.5657 H   0  0  0  0  0  0  0  0  0  0  0  0
  152.9183  137.9954  153.8389 H   0  0  0  0  0  0  0  0  0  0  0  0
  151.2617  139.8467  153.8418 H   0  0  0  0  0  0  0  0  0  0  0  0
  147.5757  138.7762  154.0885 H   0  0  0  0  0  0  0  0  0  0  0  0
  146.9666  138.8970  155.7254 H   0  0  0  0  0  0  0  0  0  0  0  0
  145.9733  140.4149  153.6891 H   0  0  0  0  0  0  0  0  0  0  0  0
  146.1281  141.1009  155.3005 H   0  0  0  0  0  0  0  0  0  0  0  0
  147.6196  141.9065  152.9189 H   0  0  0  0  0  0  0  0  0  0  0  0
  147.6356  142.6189  154.5256 H   0  0  0  0  0  0  0  0  0  0  0  0
  149.8613  141.7788  154.5302 H   0  0  0  0  0  0  0  0  0  0  0  0
  149.4433  140.5605  153.3415 H   0  0  0  0  0  0  0  0  0  0  0  0
  1  2  2  0  0  0  0
  2  3  1  0  0  0  0
  2 10  1  0  0  0  0
  3  4  1  0  0  0  0
  3 23  1  0  0  0  0
  3 24  1  0  0  0  0
  4  9  1  0  0  0  0
  4  5  2  0  0  0  0
  5  6  1  0  0  0  0
  5 25  1  0  0  0  0
  6  7  1  0  0  0  0
  6 26  1  0  0  0  0
  6 27  1  0  0  0  0
  7  8  1  0  0  0  0
  7 28  1  0  0  0  0
  7 29  1  0  0  0  0
  8  9  1  0  0  0  0
  8 30  1  0  0  0  0
  8 31  1  0  0  0  0
  9 32  1  0  0  0  0
  9 33  1  0  0  0  0
 10 11  1  0  0  0  0
 10 34  1  0  0  0  0
 11 12  1  0  0  0  0
 11 35  1  0  0  0  0
 11 36  1  0  0  0  0
 12 22  1  0  0  0  0
 12 13  1  0  0  0  0
 12 19  1  0  0  0  0
 13 18  1  0  0  0  0
 13 14  2  0  0  0  0
 14 15  1  0  0  0  0
 14 37  1  0  0  0  0
 15 16  2  0  0  0  0
 15 38  1  0  0  0  0
 16 17  1  0  0  0  0
 17 18  2  0  0  0  0
 17 39  1  0  0  0  0
 18 40  1  0  0  0  0
 19 20  1  0  0  0  0
 19 41  1  0  0  0  0
 19 42  1  0  0  0  0
 20 21  1  0  0  0  0
 20 43  1  0  0  0  0
 20 44  1  0  0  0  0
 21 22  1  0  0  0  0
 21 45  1  0  0  0  0
 21 46  1  0  0  0  0
 22 47  1  0  0  0  0
 22 48  1  0  0  0  0
M  END
> <s_m_source_file>
AV-unprocessed.smi

> <i_m_source_file_index>
2846

> <i_lp_mmshare_version>
43012

> <i_f3d_flags>
0

> <s_epik_input>
W0NIMl0xW0NIMl1bQ0gyXVtDSDJdW0NIXT1DMVtDSDJdQyg9TylbTkhdW0NIMl1DMihbQ0gyXVtDSDJdW0NIMl1bQ0gyXTIpYzNbY0hdW2NIXW5bY0hdW2NIXTM=

> <s_epik_cmdline>
J2VwaWtfcHl0aG9uJywgJy1waCcsICc3LjAnLCAnLXRuJywgJzgnLCAnLW1hJywgJzIwMCcsICctbWV0YWxfYmluZGluZycsICctaW1hZScsICc8aW5maWxlLm1hZT4nLCAnLW9tYWUnLCAnPG91dGZpbGUubWFlPic=

> <r_epik_Ionization_Penalty>
0.0617419

> <r_epik_Ionization_Penalty_Charging>
0

> <r_epik_Ionization_Penalty_Neutral>
0.0617419

> <r_epik_State_Penalty>
0.0536117

> <r_epik_Charging_Adjusted_Penalty>
0.0536117

> <i_epik_Tot_Q>
0

> <i_epik_Tot_abs_Q>
0

> <r_epik_Metal_State_Penalty>
0.0485218

> <b_epik_Metal_Only>
0

> <s_lp_Force_Field>
OPLS_2005

> <r_lp_Energy>
29.944

> <b_lp_Chiralities_Consistent>
1

> <s_lp_Variant>
AV-unprocessed.smi:2846-1

> <Gold.Version>
5.8.1

> <Gold.Id.Protein>
6NUR|6NUR_protein|mol2

> <Gold.PLP.Fitness>
48.4398

> <Gold.PLP.PLP>
-46.6205

> <Gold.PLP.part.hbond>
-1.1158

> <Gold.PLP.part.metal>
0.0000

> <Gold.PLP.part.buried>
-5.8163

> <Gold.PLP.part.nonpolar>
-39.8357

> <Gold.PLP.part.repulsive>
0.2857

> <Gold.PLP.ligand.clash>
0.0000

> <Gold.PLP.ligand.torsion>
0.6586

> <Gold.PLP.Chemscore.Hbond>
1.0000

> <Gold.PLP.Chemscore.CHOScore>
0.0000

> <Gold.PLP.Chemscore.Metal>
0.0000

> <Gold.Chemscore.Hbonds>
donor molecule, donor type, donor heavy atom, donor atom, acceptor molecule, acceptor atom, score
      P1  H 10752 10763       L1    16  1.00

> <Gold.PLP.Chemscore.Internal.Correction>
0.1365

> <Gold.Rescore>
     Score         DG    S(hbond)    S(metal)    S(lipo)     H(rot)  DE(clash)    DE(int)     intcor
     20.53     -21.05       0.93        0.00     136.63       1.38       0.08       0.43       ----

> <Gold.Chemscore.Fitness>
20.5333

> <Gold.Chemscore.DG>
-21.0490

> <Gold.Chemscore.ZeroCoef>
-5.4800

> <Gold.Chemscore.Hbond>
0.9321

> <Gold.Chemscore.Metal>
0.0000

> <Gold.Chemscore.Lipo>
136.6292

> <Gold.Chemscore.Internal_Hbond>
0.0000

> <Gold.Chemscore.DEClash>
0.0835

> <Gold.Chemscore.DEInternal>
0.4322

> <Gold.Chemscore.Rot>
1.3789

> <Gold.Chemscore.Internal.Correction>
   9.000000E+99

> <Gold.Chemscore.Hbonds>
donor molecule, donor type, donor heavy atom, donor atom, acceptor molecule, acceptor atom, score
      P1  H 10752 10763       L1    16  0.80

> <Gold.Chemscore.Hbond.Weighted>
-3.1133

> <Gold.Chemscore.Metal.Weighted>
-0.0000

> <Gold.Chemscore.Lipo.Weighted>
-15.9856

> <Gold.Chemscore.Internal_Hbond.Weighted>
0.0000

> <Gold.Chemscore.DEClash.Weighted>
0.0835

> <Gold.Chemscore.DEInternal.Weighted>
0.4322

> <Gold.Chemscore.Rot.Weighted>
3.5299

> <Gold.Chemscore.Internal.Correction.Weighted>
   9.000000E+99

> <Gold.Protein.RotatedTorsions>
[ 6907 6896 6895 6894 ] final   18.27 input  -60.11 | X-H torsion
[ 7974 7965 7964 7962 ] final  -69.90 input  175.53 | X-H torsion
[ 8008 7997 7996 7995 ] final  -28.18 input   59.86 | X-H torsion
[ 10167 10162 10161 10158 ] final -152.60 input  -65.29 | X-H torsion
[ 10718 10713 10712 10709 ] final   55.38 input   66.30 | X-H torsion
[ 10763 10752 10751 10750 ] final   65.16 input  -60.55 | X-H torsion
[ 11005 11000 10999 10996 ] final -173.51 input  -57.11 | X-H torsion

> <Gold.Protein.ActiveResidues>
 VAL166  LYS551  ARG553  GLY616  TRP617  ASP618  TYR619  PRO620  LYS621  CYS622 
 ASP623  PHE694  ASN695  SER759  ASP760  ASP761  ALA762  ILE779  LEU786  VAL792 
 PHE793  MET794  SER795  GLU796  ALA797  LYS798  CYS799  TRP800  GLU811  SER814 

> <Gold.Protein.RotatedAtoms>
  151.8627  135.0518  160.0470 H   0  0  0  0  0  0  0  0  0  0  0  0  # atno 6907 bound_to 6896
  152.2650  133.5327  159.5413 H   0  0  0  0  0  0  0  0  0  0  0  0  # atno 6908 bound_to 6896
  150.7130  134.0693  159.3901 H   0  0  0  0  0  0  0  0  0  0  0  0  # atno 6909 bound_to 6896
  145.6978  140.9128  143.0747 H   0  0  0  0  0  0  0  0  0  0  0  0  # atno 7974 bound_to 7965
  154.4344  140.1852  156.1049 H   0  0  0  0  0  0  0  0  0  0  0  0  # atno 8008 bound_to 7997
  156.0263  140.3335  155.7066 H   0  0  0  0  0  0  0  0  0  0  0  0  # atno 8009 bound_to 7997
  155.5903  140.0630  157.2751 H   0  0  0  0  0  0  0  0  0  0  0  0  # atno 8010 bound_to 7997
  139.7168  143.9021  152.2489 H   0  0  0  0  0  0  0  0  0  0  0  0  # atno 10167 bound_to 10162
  157.5340  130.8650  149.8727 H   0  0  0  0  0  0  0  0  0  0  0  0  # atno 10718 bound_to 10713
  153.0085  135.5367  154.6623 H   0  0  0  0  0  0  0  0  0  0  0  0  # atno 10763 bound_to 10752
  154.5829  135.2851  155.0717 H   0  0  0  0  0  0  0  0  0  0  0  0  # atno 10764 bound_to 10752
  154.1839  135.6511  153.5094 H   0  0  0  0  0  0  0  0  0  0  0  0  # atno 10765 bound_to 10752
  140.4849  134.6040  157.4933 H   0  0  0  0  0  0  0  0  0  0  0  0  # atno 11005 bound_to 11000
  144.6977  139.8908  143.7453 LP  0  0  0  0  0  0  0  0  0  0  0  0  # atno 17320 bound_to 7965
  146.0824  139.3812  143.0456 LP  0  0  0  0  0  0  0  0  0  0  0  0  # atno 17321 bound_to 7965
  139.8906  144.6968  150.8775 LP  0  0  0  0  0  0  0  0  0  0  0  0  # atno 17342 bound_to 10162
  140.7745  143.3590  151.1866 LP  0  0  0  0  0  0  0  0  0  0  0  0  # atno 17343 bound_to 10162
  156.0444  130.3731  150.1354 LP  0  0  0  0  0  0  0  0  0  0  0  0  # atno 17370 bound_to 10713
  156.9538  130.9783  151.3493 LP  0  0  0  0  0  0  0  0  0  0  0  0  # atno 17371 bound_to 10713
  139.9804  134.7147  155.9871 LP  0  0  0  0  0  0  0  0  0  0  0  0  # atno 17394 bound_to 11000
  141.1513  133.6548  156.4021 LP  0  0  0  0  0  0  0  0  0  0  0  0  # atno 17395 bound_to 11000

$$$$
