AV-unprocessed.smi:1381|AV-procd|sdf|5603|dock2
  -GOLD-   22720 5213D 1   1.00000     0.00000
 Structure written by MMmdl.
 42 43  0  0  0  0  0  0  0  0  1 V2000
  145.5327  130.5962  153.2031 C   0  0  0  0  0  0  0  0  0  0  0  0
  146.4347  131.6268  153.7905 C   0  0  0  0  0  0  0  0  0  0  0  0
  146.9180  132.8163  153.3221 C   0  0  0  0  0  0  0  0  0  0  0  0
  147.7217  133.2807  154.3971 C   0  0  0  0  0  0  0  0  0  0  0  0
  148.4172  134.5131  154.3060 N   0  0  0  0  0  0  0  0  0  0  0  0
  149.2269  135.0666  155.2247 C   0  0  0  0  0  0  0  0  0  0  0  0
  149.5022  134.5726  156.3184 O   0  0  0  0  0  0  0  0  0  0  0  0
  149.7080  136.2445  154.8024 N   0  0  0  0  0  0  0  0  0  0  0  0
  150.6090  137.1064  155.5612 C   0  0  0  0  0  0  0  0  0  0  0  0
  151.2915  138.1688  154.6757 C   0  0  0  0  0  0  0  0  0  0  0  0
  150.7968  139.5336  154.8505 N   0  0  0  0  0  0  0  0  0  0  0  0
  151.0895  140.0266  156.1903 C   0  0  0  0  0  0  0  0  0  0  0  0
  150.6177  141.4787  156.3849 C   0  0  2  0  0  0  0  0  0  0  0  0
  150.8523  141.9742  157.8157 C   0  0  0  0  0  0  0  0  0  0  0  0
  149.2206  141.5615  156.1098 O   0  0  0  0  0  0  0  0  0  0  0  0
  148.8229  141.0713  154.8282 C   0  0  1  0  0  0  0  0  0  0  0  0
  149.2062  142.0454  153.7012 C   0  0  0  0  0  0  0  0  0  0  0  0
  149.3600  139.6424  154.6085 C   0  0  0  0  0  0  0  0  0  0  0  0
  147.7263  132.4514  155.4295 N   0  0  0  0  0  0  0  0  0  0  0  0
  146.9015  131.3872  155.0461 O   0  0  0  0  0  0  0  0  0  0  0  0
  145.3111  130.8216  152.1598 H   0  0  0  0  0  0  0  0  0  0  0  0
  144.5893  130.5530  153.7475 H   0  0  0  0  0  0  0  0  0  0  0  0
  145.9939  129.6094  153.2447 H   0  0  0  0  0  0  0  0  0  0  0  0
  146.7268  133.2763  152.3641 H   0  0  0  0  0  0  0  0  0  0  0  0
  148.2841  135.0285  153.4487 H   0  0  0  0  0  0  0  0  0  0  0  0
  149.4294  136.5736  153.8898 H   0  0  0  0  0  0  0  0  0  0  0  0
  150.0341  137.6026  156.3450 H   0  0  0  0  0  0  0  0  0  0  0  0
  151.3504  136.4946  156.0759 H   0  0  0  0  0  0  0  0  0  0  0  0
  152.3758  138.1377  154.7939 H   0  0  0  0  0  0  0  0  0  0  0  0
  151.1069  137.8763  153.6409 H   0  0  0  0  0  0  0  0  0  0  0  0
  150.6116  139.3846  156.9321 H   0  0  0  0  0  0  0  0  0  0  0  0
  152.1627  139.9715  156.3767 H   0  0  0  0  0  0  0  0  0  0  0  0
  151.1608  142.1332  155.7024 H   0  0  0  0  0  0  0  0  0  0  0  0
  151.9118  141.9448  158.0720 H   0  0  0  0  0  0  0  0  0  0  0  0
  150.3146  141.3611  158.5393 H   0  0  0  0  0  0  0  0  0  0  0  0
  150.5112  143.0032  157.9318 H   0  0  0  0  0  0  0  0  0  0  0  0
  147.7341  141.0195  154.8456 H   0  0  0  0  0  0  0  0  0  0  0  0
  148.7906  141.7183  152.7480 H   0  0  0  0  0  0  0  0  0  0  0  0
  150.2859  142.1232  153.5751 H   0  0  0  0  0  0  0  0  0  0  0  0
  148.8204  143.0445  153.9041 H   0  0  0  0  0  0  0  0  0  0  0  0
  149.1205  139.3281  153.5930 H   0  0  0  0  0  0  0  0  0  0  0  0
  148.8295  138.9605  155.2750 H   0  0  0  0  0  0  0  0  0  0  0  0
  1  2  1  0  0  0  0
  1 21  1  0  0  0  0
  1 22  1  0  0  0  0
  1 23  1  0  0  0  0
  2 20  1  0  0  0  0
  2  3  2  0  0  0  0
  3  4  1  0  0  0  0
  3 24  1  0  0  0  0
  4  5  1  0  0  0  0
  4 19  2  0  0  0  0
  5  6  1  0  0  0  0
  5 25  1  0  0  0  0
  6  7  2  0  0  0  0
  6  8  1  0  0  0  0
  8  9  1  0  0  0  0
  8 26  1  0  0  0  0
  9 10  1  0  0  0  0
  9 27  1  0  0  0  0
  9 28  1  0  0  0  0
 10 11  1  0  0  0  0
 10 29  1  0  0  0  0
 10 30  1  0  0  0  0
 11 18  1  0  0  0  0
 11 12  1  0  0  0  0
 12 13  1  0  0  0  0
 12 31  1  0  0  0  0
 12 32  1  0  0  0  0
 13 14  1  0  0  0  0
 13 15  1  0  0  0  0
 13 33  1  0  0  0  0
 14 34  1  0  0  0  0
 14 35  1  0  0  0  0
 14 36  1  0  0  0  0
 15 16  1  0  0  0  0
 16 17  1  0  0  0  0
 16 18  1  0  0  0  0
 16 37  1  0  0  0  0
 17 38  1  0  0  0  0
 17 39  1  0  0  0  0
 17 40  1  0  0  0  0
 18 41  1  0  0  0  0
 18 42  1  0  0  0  0
 19 20  1  0  0  0  0
M  END
> <s_m_source_file>
AV-unprocessed.smi

> <i_m_source_file_index>
1381

> <i_lp_mmshare_version>
43012

> <i_f3d_flags>
0

> <s_epik_input>
W0NIM11jMVtjSF1jKG5vMSlbTkhdQyg9TylbTkhdW0NIMl1bQ0gyXU4yW0NIMl1bQ0BASF0oW0NIM10pT1tDQEBIXShbQ0gzXSlbQ0gyXTI=

> <s_epik_cmdline>
J2VwaWtfcHl0aG9uJywgJy1waCcsICc3LjAnLCAnLXRuJywgJzgnLCAnLW1hJywgJzIwMCcsICctbWV0YWxfYmluZGluZycsICctaW1hZScsICc8aW5maWxlLm1hZT4nLCAnLW9tYWUnLCAnPG91dGZpbGUubWFlPic=

> <r_epik_Ionization_Penalty>
0.214073

> <r_epik_Ionization_Penalty_Charging>
0

> <r_epik_Ionization_Penalty_Neutral>
0.214073

> <r_epik_State_Penalty>
0.204211

> <r_epik_Charging_Adjusted_Penalty>
0.204211

> <i_epik_Tot_Q>
0

> <i_epik_Tot_abs_Q>
0

> <r_epik_Metal_State_Penalty>
0.217067

> <b_epik_Metal_Only>
0

> <s_lp_Force_Field>
OPLS_2005

> <r_lp_Energy>
25.417

> <b_lp_Chiralities_Consistent>
1

> <s_lp_Variant>
AV-unprocessed.smi:1381-2

> <Gold.Version>
5.8.1

> <Gold.Id.Protein>
6NUR|6NUR_protein|mol2

> <Gold.PLP.Fitness>
41.1989

> <Gold.PLP.PLP>
-33.8946

> <Gold.PLP.part.hbond>
-4.7522

> <Gold.PLP.part.metal>
0.0000

> <Gold.PLP.part.buried>
-1.2323

> <Gold.PLP.part.nonpolar>
-27.5586

> <Gold.PLP.part.repulsive>
0.3594

> <Gold.PLP.ligand.clash>
0.0000

> <Gold.PLP.ligand.torsion>
0.4469

> <Gold.PLP.Chemscore.Hbond>
2.7246

> <Gold.PLP.Chemscore.CHOScore>
0.0000

> <Gold.PLP.Chemscore.Metal>
0.0000

> <Gold.Chemscore.Hbonds>
donor molecule, donor type, donor heavy atom, donor atom, acceptor molecule, acceptor atom, score
      L1  H     5    25       P1  7948  0.88
      L1  H     8    26       P1  7948  0.86
      P1  H  7989  7998       L1    11  0.89

> <Gold.PLP.Chemscore.Internal.Correction>
0.0245

> <Gold.Rescore>
     Score         DG    S(hbond)    S(metal)    S(lipo)     H(rot)  DE(clash)    DE(int)     intcor
     11.77     -15.16       1.60        0.00      71.38       1.57       1.71       1.68       ----

> <Gold.Chemscore.Fitness>
11.7652

> <Gold.Chemscore.DG>
-15.1616

> <Gold.Chemscore.ZeroCoef>
-5.4800

> <Gold.Chemscore.Hbond>
1.6013

> <Gold.Chemscore.Metal>
0.0000

> <Gold.Chemscore.Lipo>
71.3812

> <Gold.Chemscore.Internal_Hbond>
0.0000

> <Gold.Chemscore.DEClash>
1.7127

> <Gold.Chemscore.DEInternal>
1.6837

> <Gold.Chemscore.Rot>
1.5697

> <Gold.Chemscore.Internal.Correction>
   9.000000E+99

> <Gold.Chemscore.Hbonds>
donor molecule, donor type, donor heavy atom, donor atom, acceptor molecule, acceptor atom, score
      L1  H     5    25       P1  7948  0.78
      L1  H     8    26       P1  7948  0.71
      P1  H  7989  7998       L1    11  0.21

> <Gold.Chemscore.Hbond.Weighted>
-5.3485

> <Gold.Chemscore.Metal.Weighted>
-0.0000

> <Gold.Chemscore.Lipo.Weighted>
-8.3516

> <Gold.Chemscore.Internal_Hbond.Weighted>
0.0000

> <Gold.Chemscore.DEClash.Weighted>
1.7127

> <Gold.Chemscore.DEInternal.Weighted>
1.6837

> <Gold.Chemscore.Rot.Weighted>
4.0185

> <Gold.Chemscore.Internal.Correction.Weighted>
   9.000000E+99

> <Gold.Protein.RotatedTorsions>
[ 6907 6896 6895 6894 ] final -109.01 input  -60.11 | X-H torsion
[ 7974 7965 7964 7962 ] final   81.66 input  175.53 | X-H torsion
[ 8008 7997 7996 7995 ] final   30.05 input   59.86 | X-H torsion
[ 10167 10162 10161 10158 ] final -142.98 input  -65.29 | X-H torsion
[ 10718 10713 10712 10709 ] final  140.47 input   66.30 | X-H torsion
[ 10763 10752 10751 10750 ] final  -32.11 input  -60.55 | X-H torsion
[ 11005 11000 10999 10996 ] final -118.72 input  -57.11 | X-H torsion

> <Gold.Protein.ActiveResidues>
 VAL166  LYS551  ARG553  GLY616  TRP617  ASP618  TYR619  PRO620  LYS621  CYS622 
 ASP623  PHE694  ASN695  SER759  ASP760  ASP761  ALA762  ILE779  LEU786  VAL792 
 PHE793  MET794  SER795  GLU796  ALA797  LYS798  CYS799  TRP800  GLU811  SER814 

> <Gold.Protein.RotatedAtoms>
  150.7536  133.9593  159.3510 H   0  0  0  0  0  0  0  0  0  0  0  0  # atno 6907 bound_to 6896
  151.7517  135.0829  160.0341 H   0  0  0  0  0  0  0  0  0  0  0  0  # atno 6908 bound_to 6896
  152.3462  133.6087  159.5947 H   0  0  0  0  0  0  0  0  0  0  0  0  # atno 6909 bound_to 6896
  145.6352  139.2413  143.2062 H   0  0  0  0  0  0  0  0  0  0  0  0  # atno 7974 bound_to 7965
  155.0842  140.3213  155.4592 H   0  0  0  0  0  0  0  0  0  0  0  0  # atno 8008 bound_to 7997
  156.2759  140.2089  156.5916 H   0  0  0  0  0  0  0  0  0  0  0  0  # atno 8009 bound_to 7997
  154.6954  140.0512  157.0392 H   0  0  0  0  0  0  0  0  0  0  0  0  # atno 8010 bound_to 7997
  139.8037  143.7798  152.2660 H   0  0  0  0  0  0  0  0  0  0  0  0  # atno 10167 bound_to 10162
  157.4029  131.1019  151.0533 H   0  0  0  0  0  0  0  0  0  0  0  0  # atno 10718 bound_to 10713
  153.8083  135.6884  153.4845 H   0  0  0  0  0  0  0  0  0  0  0  0  # atno 10763 bound_to 10752
  153.1644  135.4567  154.9815 H   0  0  0  0  0  0  0  0  0  0  0  0  # atno 10764 bound_to 10752
  154.7978  135.3326  154.7566 H   0  0  0  0  0  0  0  0  0  0  0  0  # atno 10765 bound_to 10752
  141.0266  134.0044  157.3205 H   0  0  0  0  0  0  0  0  0  0  0  0  # atno 11005 bound_to 11000
  146.1325  140.7167  142.9405 LP  0  0  0  0  0  0  0  0  0  0  0  0  # atno 17320 bound_to 7965
  144.7178  140.4270  143.7031 LP  0  0  0  0  0  0  0  0  0  0  0  0  # atno 17321 bound_to 7965
  139.7926  144.7404  150.9934 LP  0  0  0  0  0  0  0  0  0  0  0  0  # atno 17342 bound_to 10162
  140.7819  143.4426  151.0529 LP  0  0  0  0  0  0  0  0  0  0  0  0  # atno 17343 bound_to 10162
  157.1525  130.6190  149.5586 LP  0  0  0  0  0  0  0  0  0  0  0  0  # atno 17370 bound_to 10713
  155.9828  130.4844  150.6901 LP  0  0  0  0  0  0  0  0  0  0  0  0  # atno 17371 bound_to 10713
  139.9180  135.0198  156.7955 LP  0  0  0  0  0  0  0  0  0  0  0  0  # atno 17394 bound_to 11000
  140.6481  133.9757  155.7741 LP  0  0  0  0  0  0  0  0  0  0  0  0  # atno 17395 bound_to 11000

$$$$
