AV-unprocessed.smi:766|AV-procd|sdf|3656|dock5
  -GOLD-   22720 1 63D 1   1.00000     0.00000
 Structure written by MMmdl.
 46 48  0  0  0  0  0  0  0  0  1 V2000
  153.7949  142.9059  163.4237 C   0  0  0  0  0  0  0  0  0  0  0  0
  153.2557  142.5883  162.0403 C   0  0  0  0  0  0  0  0  0  0  0  0
  152.3258  143.4710  161.4460 C   0  0  0  0  0  0  0  0  0  0  0  0
  151.7968  143.2096  160.1632 C   0  0  0  0  0  0  0  0  0  0  0  0
  150.8854  143.9235  159.4045 N   0  0  0  0  0  0  0  0  0  0  0  0
  150.7960  143.1670  158.3146 C   0  0  0  0  0  0  0  0  0  0  0  0
  151.5460  142.0486  158.2751 N   0  0  0  0  0  0  0  0  0  0  0  0
  151.6123  141.0740  157.2007 C   0  0  0  0  0  0  0  0  0  0  0  0
  150.4459  140.0626  157.2366 C   0  0  1  0  0  0  0  0  0  0  0  0
  149.9898  139.8040  155.9250 O   0  0  0  0  0  0  0  0  0  0  0  0
  150.7386  138.7279  157.9519 C   0  0  0  0  0  0  0  0  0  0  0  0
  149.6859  138.3692  158.8981 N   0  0  0  0  0  0  0  0  0  0  0  0
  149.8390  137.0330  159.4648 C   0  0  0  0  0  0  0  0  0  0  0  0
  148.4919  136.2959  159.5352 C   0  0  0  0  0  0  0  0  0  0  0  0
  148.0553  136.0756  160.9031 N   0  0  0  0  0  0  0  0  0  0  0  0
  147.8282  134.8785  161.5491 C   0  0  0  0  0  0  0  0  0  0  0  0
  147.4339  135.1724  162.8231 C   0  0  0  0  0  0  0  0  0  0  0  0
  147.4471  136.5948  162.8613 C   0  0  0  0  0  0  0  0  0  0  0  0
  147.8144  137.1324  161.7094 N   0  0  0  0  0  0  0  0  0  0  0  0
  152.2288  142.0321  159.4852 C   0  0  0  0  0  0  0  0  0  0  0  0
  153.1559  141.1481  160.0642 C   0  0  0  0  0  0  0  0  0  0  0  0
  153.6731  141.4236  161.3472 C   0  0  0  0  0  0  0  0  0  0  0  0
  154.6710  140.4604  161.9654 C   0  0  0  0  0  0  0  0  0  0  0  0
  153.3511  143.8174  163.8252 H   0  0  0  0  0  0  0  0  0  0  0  0
  154.8753  143.0468  163.3881 H   0  0  0  0  0  0  0  0  0  0  0  0
  153.5733  142.0940  164.1167 H   0  0  0  0  0  0  0  0  0  0  0  0
  152.0072  144.3583  161.9729 H   0  0  0  0  0  0  0  0  0  0  0  0
  150.1511  143.4420  157.4938 H   0  0  0  0  0  0  0  0  0  0  0  0
  151.6171  141.6104  156.2510 H   0  0  0  0  0  0  0  0  0  0  0  0
  152.5699  140.5553  157.2657 H   0  0  0  0  0  0  0  0  0  0  0  0
  149.6104  140.5315  157.7576 H   0  0  0  0  0  0  0  0  0  0  0  0
  150.7394  139.6315  155.3760 H   0  0  0  0  0  0  0  0  0  0  0  0
  150.8326  137.9402  157.2031 H   0  0  0  0  0  0  0  0  0  0  0  0
  151.7027  138.7816  158.4591 H   0  0  0  0  0  0  0  0  0  0  0  0
  149.6435  139.0590  159.6417 H   0  0  0  0  0  0  0  0  0  0  0  0
  150.5460  136.4507  158.8726 H   0  0  0  0  0  0  0  0  0  0  0  0
  150.2619  137.1066  160.4671 H   0  0  0  0  0  0  0  0  0  0  0  0
  147.7238  136.8764  159.0226 H   0  0  0  0  0  0  0  0  0  0  0  0
  148.5513  135.3348  159.0225 H   0  0  0  0  0  0  0  0  0  0  0  0
  147.9697  133.9281  161.0559 H   0  0  0  0  0  0  0  0  0  0  0  0
  147.1779  134.4777  163.6093 H   0  0  0  0  0  0  0  0  0  0  0  0
  147.2023  137.2479  163.6859 H   0  0  0  0  0  0  0  0  0  0  0  0
  153.4631  140.2644  159.5248 H   0  0  0  0  0  0  0  0  0  0  0  0
  154.8964  139.6343  161.2904 H   0  0  0  0  0  0  0  0  0  0  0  0
  154.2729  140.0394  162.8890 H   0  0  0  0  0  0  0  0  0  0  0  0
  155.6068  140.9717  162.1923 H   0  0  0  0  0  0  0  0  0  0  0  0
  1  2  1  0  0  0  0
  1 24  1  0  0  0  0
  1 25  1  0  0  0  0
  1 26  1  0  0  0  0
  2 22  1  0  0  0  0
  2  3  2  0  0  0  0
  3  4  1  0  0  0  0
  3 27  1  0  0  0  0
  4 20  2  0  0  0  0
  4  5  1  0  0  0  0
  5  6  2  0  0  0  0
  6  7  1  0  0  0  0
  6 28  1  0  0  0  0
  7  8  1  0  0  0  0
  7 20  1  0  0  0  0
  8  9  1  0  0  0  0
  8 29  1  0  0  0  0
  8 30  1  0  0  0  0
  9 10  1  0  0  0  0
  9 11  1  0  0  0  0
  9 31  1  0  0  0  0
 10 32  1  0  0  0  0
 11 12  1  0  0  0  0
 11 33  1  0  0  0  0
 11 34  1  0  0  0  0
 12 13  1  0  0  0  0
 12 35  1  0  0  0  0
 13 14  1  0  0  0  0
 13 36  1  0  0  0  0
 13 37  1  0  0  0  0
 14 15  1  0  0  0  0
 14 38  1  0  0  0  0
 14 39  1  0  0  0  0
 15 19  1  0  0  0  0
 15 16  1  0  0  0  0
 16 17  2  0  0  0  0
 16 40  1  0  0  0  0
 17 18  1  0  0  0  0
 17 41  1  0  0  0  0
 18 19  2  0  0  0  0
 18 42  1  0  0  0  0
 20 21  1  0  0  0  0
 21 22  2  0  0  0  0
 21 43  1  0  0  0  0
 22 23  1  0  0  0  0
 23 44  1  0  0  0  0
 23 45  1  0  0  0  0
 23 46  1  0  0  0  0
M  END
> <s_m_source_file>
AV-unprocessed.smi

> <i_m_source_file_index>
766

> <i_lp_mmshare_version>
43012

> <i_f3d_flags>
0

> <s_epik_input>
W0NIM11jKFtjSF0xKWMoW0NIM10pW2NIXWMoYzEyKW4oW2NIXW4yKVtDSDJdW0NASF0oW09IXSlbQ0gyXVtOSF1bQ0gyXVtDSDJdbjNbY0hdW2NIXVtjSF1uMw==

> <s_epik_cmdline>
J2VwaWtfcHl0aG9uJywgJy1waCcsICc3LjAnLCAnLXRuJywgJzgnLCAnLW1hJywgJzIwMCcsICctbWV0YWxfYmluZGluZycsICctaW1hZScsICc8aW5maWxlLm1hZT4nLCAnLW9tYWUnLCAnPG91dGZpbGUubWFlPic=

> <r_lp_tautomer_probability>
1

> <r_epik_Ionization_Penalty>
1.68727

> <r_epik_Ionization_Penalty_Charging>
0

> <r_epik_Ionization_Penalty_Neutral>
1.68727

> <r_epik_State_Penalty>
1.78741

> <r_epik_Charging_Adjusted_Penalty>
1.78741

> <i_epik_Tot_Q>
0

> <i_epik_Tot_abs_Q>
0

> <r_epik_Metal_State_Penalty>
1.73664

> <b_epik_Metal_Only>
0

> <s_lp_Force_Field>
OPLS_2005

> <r_lp_Energy>
18.4914

> <b_lp_Chiralities_Consistent>
1

> <s_lp_Variant>
AV-unprocessed.smi:766-6

> <Gold.Version>
5.8.1

> <Gold.Id.Protein>
6NUR|6NUR_protein|mol2

> <Gold.PLP.Fitness>
59.8955

> <Gold.PLP.PLP>
-55.8140

> <Gold.PLP.part.hbond>
-2.4971

> <Gold.PLP.part.metal>
0.0000

> <Gold.PLP.part.buried>
-6.5214

> <Gold.PLP.part.nonpolar>
-46.2374

> <Gold.PLP.part.repulsive>
0.0936

> <Gold.PLP.ligand.clash>
0.0000

> <Gold.PLP.ligand.torsion>
2.1489

> <Gold.PLP.Chemscore.Hbond>
1.7200

> <Gold.PLP.Chemscore.CHOScore>
1.0000

> <Gold.PLP.Chemscore.Metal>
0.0000

> <Gold.Chemscore.Hbonds>
donor molecule, donor type, donor heavy atom, donor atom, acceptor molecule, acceptor atom, score
      P1  H  6931  6943       L1    19  1.00
      P1  H  6934  6947       L1    19  0.50
      L1  C     6    28       P1  8028  0.94

> <Gold.PLP.Chemscore.Internal.Correction>
0.2193

> <Gold.Rescore>
     Score         DG    S(hbond)    S(metal)    S(lipo)     H(rot)  DE(clash)    DE(int)     intcor
     16.38     -18.62       1.33        0.00     136.29       2.83       0.02       2.21       ----

> <Gold.Chemscore.Fitness>
16.3838

> <Gold.Chemscore.DG>
-18.6191

> <Gold.Chemscore.ZeroCoef>
-5.4800

> <Gold.Chemscore.Hbond>
1.3324

> <Gold.Chemscore.Metal>
0.0000

> <Gold.Chemscore.Lipo>
136.2922

> <Gold.Chemscore.Internal_Hbond>
0.0000

> <Gold.Chemscore.DEClash>
0.0247

> <Gold.Chemscore.DEInternal>
2.2106

> <Gold.Chemscore.Rot>
2.8348

> <Gold.Chemscore.Internal.Correction>
   9.000000E+99

> <Gold.Chemscore.Hbonds>
donor molecule, donor type, donor heavy atom, donor atom, acceptor molecule, acceptor atom, score
      P1  H  6931  6943       L1    19  0.74
      P1  H  6934  6947       L1    19  0.50

> <Gold.Chemscore.Hbond.Weighted>
-4.4501

> <Gold.Chemscore.Metal.Weighted>
-0.0000

> <Gold.Chemscore.Lipo.Weighted>
-15.9462

> <Gold.Chemscore.Internal_Hbond.Weighted>
0.0000

> <Gold.Chemscore.DEClash.Weighted>
0.0247

> <Gold.Chemscore.DEInternal.Weighted>
2.2106

> <Gold.Chemscore.Rot.Weighted>
7.2572

> <Gold.Chemscore.Internal.Correction.Weighted>
   9.000000E+99

> <Gold.Protein.RotatedTorsions>
[ 6907 6896 6895 6894 ] final    8.92 input  -60.11 | X-H torsion
[ 7974 7965 7964 7962 ] final  -22.69 input  175.53 | X-H torsion
[ 8008 7997 7996 7995 ] final  -56.62 input   59.86 | X-H torsion
[ 10167 10162 10161 10158 ] final -173.50 input  -65.29 | X-H torsion
[ 10718 10713 10712 10709 ] final  164.72 input   66.30 | X-H torsion
[ 10763 10752 10751 10750 ] final  145.88 input  -60.55 | X-H torsion
[ 11005 11000 10999 10996 ] final  178.00 input  -57.11 | X-H torsion

> <Gold.Protein.ActiveResidues>
 VAL166  LYS551  ARG553  GLY616  TRP617  ASP618  TYR619  PRO620  LYS621  CYS622 
 ASP623  PHE694  ASN695  SER759  ASP760  ASP761  ALA762  ILE779  LEU786  VAL792 
 PHE793  MET794  SER795  GLU796  ALA797  LYS798  CYS799  TRP800  GLU811  SER814 

> <Gold.Protein.RotatedAtoms>
  151.7139  135.0907  160.0272 H   0  0  0  0  0  0  0  0  0  0  0  0  # atno 6907 bound_to 6896
  152.3644  133.6334  159.6048 H   0  0  0  0  0  0  0  0  0  0  0  0  # atno 6908 bound_to 6896
  150.7627  133.9287  159.3462 H   0  0  0  0  0  0  0  0  0  0  0  0  # atno 6909 bound_to 6896
  146.1661  140.4514  142.8551 H   0  0  0  0  0  0  0  0  0  0  0  0  # atno 7974 bound_to 7965
  154.4237  140.1125  156.5666 H   0  0  0  0  0  0  0  0  0  0  0  0  # atno 8008 bound_to 7997
  155.6256  140.3495  155.4647 H   0  0  0  0  0  0  0  0  0  0  0  0  # atno 8009 bound_to 7997
  155.9989  140.1195  157.0556 H   0  0  0  0  0  0  0  0  0  0  0  0  # atno 8010 bound_to 7997
  139.5685  144.1698  152.1349 H   0  0  0  0  0  0  0  0  0  0  0  0  # atno 10167 bound_to 10162
  157.0904  131.0416  151.2539 H   0  0  0  0  0  0  0  0  0  0  0  0  # atno 10718 bound_to 10713
  154.0128  135.2913  155.3390 H   0  0  0  0  0  0  0  0  0  0  0  0  # atno 10763 bound_to 10752
  154.7093  135.5156  153.8645 H   0  0  0  0  0  0  0  0  0  0  0  0  # atno 10764 bound_to 10752
  153.0716  135.6649  154.0357 H   0  0  0  0  0  0  0  0  0  0  0  0  # atno 10765 bound_to 10752
  140.3903  134.6868  157.4504 H   0  0  0  0  0  0  0  0  0  0  0  0  # atno 11005 bound_to 11000
  144.8094  140.6358  143.6425 LP  0  0  0  0  0  0  0  0  0  0  0  0  # atno 17320 bound_to 7965
  145.4464  139.1529  143.3942 LP  0  0  0  0  0  0  0  0  0  0  0  0  # atno 17321 bound_to 7965
  140.1226  144.5360  150.6853 LP  0  0  0  0  0  0  0  0  0  0  0  0  # atno 17342 bound_to 10162
  140.6969  143.2409  151.4975 LP  0  0  0  0  0  0  0  0  0  0  0  0  # atno 17343 bound_to 10162
  157.4726  130.7718  149.7338 LP  0  0  0  0  0  0  0  0  0  0  0  0  # atno 17370 bound_to 10713
  155.9899  130.3948  150.3050 LP  0  0  0  0  0  0  0  0  0  0  0  0  # atno 17371 bound_to 10713
  140.0411  134.6265  155.8979 LP  0  0  0  0  0  0  0  0  0  0  0  0  # atno 17394 bound_to 11000
  141.1893  133.6565  156.5361 LP  0  0  0  0  0  0  0  0  0  0  0  0  # atno 17395 bound_to 11000

$$$$
