AV-unprocessed.smi:3200|AV-procd|sdf|12235|dock9
  -GOLD-   2272018 73D 1   1.00000     0.00000
 Structure written by MMmdl.
 38 39  0  0  0  0  0  0  0  0  2 V2000
  152.8544  138.0504  154.3827 C   0  0  0  0  0  0  0  0  0  0  0  0
  152.1042  139.0409  155.2065 C   0  0  0  0  0  0  0  0  0  0  0  0
  152.4046  139.2500  156.4828 N   0  0  0  0  0  0  0  0  0  0  0  0
  151.4875  140.2358  156.8742 O   0  0  0  0  0  0  0  0  0  0  0  0
  150.7282  140.4877  155.7812 C   0  0  0  0  0  0  0  0  0  0  0  0
  149.6747  141.5410  155.8623 C   0  0  0  0  0  0  0  0  0  0  0  0
  149.3274  141.9106  157.3100 C   0  0  0  0  0  0  0  0  0  0  0  0
  149.9505  143.1938  157.6930 N   0  3  0  0  0  0  0  0  0  0  0  0
  151.3130  143.0799  158.2611 C   0  0  2  0  0  0  0  0  0  0  0  0
  151.5172  141.8235  159.1193 C   0  0  0  0  0  0  0  0  0  0  0  0
  152.6448  142.1761  160.0983 C   0  0  0  0  0  0  0  0  0  0  0  0
  152.9143  143.6785  159.9257 C   0  0  0  0  0  0  0  0  0  0  0  0
  151.6976  144.2582  159.1815 C   0  0  0  0  0  0  0  0  0  0  0  0
  152.0829  145.5132  158.3760 C   0  0  0  0  0  0  0  0  0  0  0  0
  150.5865  144.6169  160.1960 C   0  0  0  0  0  0  0  0  0  0  0  0
  151.0809  139.7870  154.7067 N   0  0  0  0  0  0  0  0  0  0  0  0
  153.6542  137.5859  154.9607 H   0  0  0  0  0  0  0  0  0  0  0  0
  153.2968  138.5405  153.5152 H   0  0  0  0  0  0  0  0  0  0  0  0
  152.1824  137.2669  154.0326 H   0  0  0  0  0  0  0  0  0  0  0  0
  150.0236  142.4223  155.3221 H   0  0  0  0  0  0  0  0  0  0  0  0
  148.7859  141.1838  155.3403 H   0  0  0  0  0  0  0  0  0  0  0  0
  148.2450  141.9822  157.4233 H   0  0  0  0  0  0  0  0  0  0  0  0
  149.6726  141.1264  157.9855 H   0  0  0  0  0  0  0  0  0  0  0  0
  150.0095  143.7691  156.8648 H   0  0  0  0  0  0  0  0  0  0  0  0
  152.0251  143.0443  157.4341 H   0  0  0  0  0  0  0  0  0  0  0  0
  150.6104  141.5899  159.6791 H   0  0  0  0  0  0  0  0  0  0  0  0
  151.7601  140.9496  158.5138 H   0  0  0  0  0  0  0  0  0  0  0  0
  152.3371  141.9534  161.1204 H   0  0  0  0  0  0  0  0  0  0  0  0
  153.5458  141.5959  159.8966 H   0  0  0  0  0  0  0  0  0  0  0  0
  153.1065  144.1755  160.8776 H   0  0  0  0  0  0  0  0  0  0  0  0
  153.8136  143.8015  159.3201 H   0  0  0  0  0  0  0  0  0  0  0  0
  152.4337  146.3097  159.0331 H   0  0  0  0  0  0  0  0  0  0  0  0
  151.2318  145.9003  157.8145 H   0  0  0  0  0  0  0  0  0  0  0  0
  152.8793  145.3044  157.6609 H   0  0  0  0  0  0  0  0  0  0  0  0
  150.9294  145.3799  160.8956 H   0  0  0  0  0  0  0  0  0  0  0  0
  150.2746  143.7552  160.7863 H   0  0  0  0  0  0  0  0  0  0  0  0
  149.7008  145.0148  159.7003 H   0  0  0  0  0  0  0  0  0  0  0  0
  149.3584  143.6600  158.3656 H   0  0  0  0  0  0  0  0  0  0  0  0
  1  2  1  0  0  0  0
  1 17  1  0  0  0  0
  1 18  1  0  0  0  0
  1 19  1  0  0  0  0
  2 16  1  0  0  0  0
  2  3  2  0  0  0  0
  3  4  1  0  0  0  0
  4  5  1  0  0  0  0
  5  6  1  0  0  0  0
  5 16  2  0  0  0  0
  6  7  1  0  0  0  0
  6 20  1  0  0  0  0
  6 21  1  0  0  0  0
  7  8  1  0  0  0  0
  7 22  1  0  0  0  0
  7 23  1  0  0  0  0
  8  9  1  0  0  0  0
  8 24  1  0  0  0  0
  8 38  1  0  0  0  0
  9 13  1  0  0  0  0
  9 10  1  0  0  0  0
  9 25  1  0  0  0  0
 10 11  1  0  0  0  0
 10 26  1  0  0  0  0
 10 27  1  0  0  0  0
 11 12  1  0  0  0  0
 11 28  1  0  0  0  0
 11 29  1  0  0  0  0
 12 13  1  0  0  0  0
 12 30  1  0  0  0  0
 12 31  1  0  0  0  0
 13 14  1  0  0  0  0
 13 15  1  0  0  0  0
 14 32  1  0  0  0  0
 14 33  1  0  0  0  0
 14 34  1  0  0  0  0
 15 35  1  0  0  0  0
 15 36  1  0  0  0  0
 15 37  1  0  0  0  0
M  CHG  1   8   1
M  END
> <s_m_source_file>
AV-unprocessed.smi

> <i_m_source_file_index>
3200

> <i_lp_mmshare_version>
43012

> <i_f3d_flags>
0

> <s_epik_input>
W0NIM11jMW5vYyhuMSlbQ0gyXVtDSDJdW05IXVtDQEBIXShDMihbQ0gzXSlbQ0gzXSlbQ0gyXVtDSDJdW0NIMl0y

> <s_epik_cmdline>
J2VwaWtfcHl0aG9uJywgJy1waCcsICc3LjAnLCAnLXRuJywgJzgnLCAnLW1hJywgJzIwMCcsICctbWV0YWxfYmluZGluZycsICctaW1hZScsICc8aW5maWxlLm1hZT4nLCAnLW9tYWUnLCAnPG91dGZpbGUubWFlPic=

> <r_lp_tautomer_probability>
1

> <r_epik_Ionization_Penalty>
0.000953161

> <r_epik_Ionization_Penalty_Charging>
0.000953161

> <r_epik_Ionization_Penalty_Neutral>
4.23223e-13

> <r_epik_State_Penalty>
0.000619331

> <r_epik_Charging_Adjusted_Penalty>
0.00157249

> <i_epik_Tot_Q>
1

> <i_epik_Tot_abs_Q>
1

> <r_epik_Metal_State_Penalty>
-0

> <b_epik_Metal_Only>
0

> <s_lp_Force_Field>
OPLS_2005

> <r_lp_Energy>
25.4915

> <b_lp_Chiralities_Consistent>
1

> <s_lp_Variant>
AV-unprocessed.smi:3200-1

> <Gold.Version>
5.8.1

> <Gold.Id.Protein>
6NUR|6NUR_protein|mol2

> <Gold.PLP.Fitness>
44.1986

> <Gold.PLP.PLP>
-34.6813

> <Gold.PLP.part.hbond>
-3.0000

> <Gold.PLP.part.metal>
0.0000

> <Gold.PLP.part.buried>
-3.7332

> <Gold.PLP.part.nonpolar>
-29.0186

> <Gold.PLP.part.repulsive>
0.1075

> <Gold.PLP.ligand.clash>
0.0031

> <Gold.PLP.ligand.torsion>
0.9385

> <Gold.PLP.Chemscore.Hbond>
3.7920

> <Gold.PLP.Chemscore.CHOScore>
0.0000

> <Gold.PLP.Chemscore.Metal>
0.0000

> <Gold.Chemscore.Hbonds>
donor molecule, donor type, donor heavy atom, donor atom, acceptor molecule, acceptor atom, score
      L1  H     8    24       P1  8028  1.63
      P1  H  7989  7998       L1    16  1.00
      P1  H  7997  8009       L1     3  0.80

> <Gold.PLP.Chemscore.Internal.Correction>
0.0213

> <Gold.Rescore>
     Score         DG    S(hbond)    S(metal)    S(lipo)     H(rot)  DE(clash)    DE(int)     intcor
     17.02     -19.42       2.15        0.00      96.77       1.79       1.59       0.81       ----

> <Gold.Chemscore.Fitness>
17.0235

> <Gold.Chemscore.DG>
-19.4241

> <Gold.Chemscore.ZeroCoef>
-5.4800

> <Gold.Chemscore.Hbond>
2.1550

> <Gold.Chemscore.Metal>
0.0000

> <Gold.Chemscore.Lipo>
96.7673

> <Gold.Chemscore.Internal_Hbond>
0.0000

> <Gold.Chemscore.DEClash>
1.5868

> <Gold.Chemscore.DEInternal>
0.8138

> <Gold.Chemscore.Rot>
1.7872

> <Gold.Chemscore.Internal.Correction>
   9.000000E+99

> <Gold.Chemscore.Hbonds>
donor molecule, donor type, donor heavy atom, donor atom, acceptor molecule, acceptor atom, score
      L1  H     8    24       P1  8028  0.81
      P1  H  7989  7998       L1    16  0.55
      P1  H  7997  8009       L1     3  0.25

> <Gold.Chemscore.Hbond.Weighted>
-7.1976

> <Gold.Chemscore.Metal.Weighted>
-0.0000

> <Gold.Chemscore.Lipo.Weighted>
-11.3218

> <Gold.Chemscore.Internal_Hbond.Weighted>
0.0000

> <Gold.Chemscore.DEClash.Weighted>
1.5868

> <Gold.Chemscore.DEInternal.Weighted>
0.8138

> <Gold.Chemscore.Rot.Weighted>
4.5753

> <Gold.Chemscore.Internal.Correction.Weighted>
   9.000000E+99

> <Gold.Protein.RotatedTorsions>
[ 6907 6896 6895 6894 ] final -173.71 input  -60.11 | X-H torsion
[ 7974 7965 7964 7962 ] final  -42.24 input  175.53 | X-H torsion
[ 8008 7997 7996 7995 ] final -166.29 input   59.86 | X-H torsion
[ 10167 10162 10161 10158 ] final  162.47 input  -65.29 | X-H torsion
[ 10718 10713 10712 10709 ] final  148.91 input   66.30 | X-H torsion
[ 10763 10752 10751 10750 ] final  -73.45 input  -60.55 | X-H torsion
[ 11005 11000 10999 10996 ] final  -78.16 input  -57.11 | X-H torsion

> <Gold.Protein.ActiveResidues>
 VAL166  LYS551  ARG553  GLY616  TRP617  ASP618  TYR619  PRO620  LYS621  CYS622 
 ASP623  PHE694  ASN695  SER759  ASP760  ASP761  ALA762  ILE779  LEU786  VAL792 
 PHE793  MET794  SER795  GLU796  ALA797  LYS798  CYS799  TRP800  GLU811  SER814 

> <Gold.Protein.RotatedAtoms>
  151.5606  133.3404  159.2970 H   0  0  0  0  0  0  0  0  0  0  0  0  # atno 6907 bound_to 6896
  150.8425  134.7725  159.6955 H   0  0  0  0  0  0  0  0  0  0  0  0  # atno 6908 bound_to 6896
  152.4490  134.5442  159.9899 H   0  0  0  0  0  0  0  0  0  0  0  0  # atno 6909 bound_to 6896
  146.0135  140.6936  142.9213 H   0  0  0  0  0  0  0  0  0  0  0  0  # atno 7974 bound_to 7965
  155.8618  140.0979  157.1608 H   0  0  0  0  0  0  0  0  0  0  0  0  # atno 8008 bound_to 7997
  154.3991  140.1363  156.4032 H   0  0  0  0  0  0  0  0  0  0  0  0  # atno 8009 bound_to 7997
  155.7848  140.3457  155.5319 H   0  0  0  0  0  0  0  0  0  0  0  0  # atno 8010 bound_to 7997
  139.4861  144.4434  151.8922 H   0  0  0  0  0  0  0  0  0  0  0  0  # atno 10167 bound_to 10162
  157.3027  131.0874  151.1377 H   0  0  0  0  0  0  0  0  0  0  0  0  # atno 10718 bound_to 10713
  154.4596  135.5897  153.6246 H   0  0  0  0  0  0  0  0  0  0  0  0  # atno 10763 bound_to 10752
  152.9822  135.6040  154.3503 H   0  0  0  0  0  0  0  0  0  0  0  0  # atno 10764 bound_to 10752
  154.3373  135.2842  155.2420 H   0  0  0  0  0  0  0  0  0  0  0  0  # atno 10765 bound_to 10752
  141.1663  133.7052  156.7930 H   0  0  0  0  0  0  0  0  0  0  0  0  # atno 11005 bound_to 11000
  144.6962  140.3440  143.7194 LP  0  0  0  0  0  0  0  0  0  0  0  0  # atno 17320 bound_to 7965
  145.7305  139.1735  143.2433 LP  0  0  0  0  0  0  0  0  0  0  0  0  # atno 17321 bound_to 7965
  140.3887  144.2643  150.5901 LP  0  0  0  0  0  0  0  0  0  0  0  0  # atno 17342 bound_to 10162
  140.5166  143.2276  151.8454 LP  0  0  0  0  0  0  0  0  0  0  0  0  # atno 17343 bound_to 10162
  157.2730  130.6713  149.6028 LP  0  0  0  0  0  0  0  0  0  0  0  0  # atno 17370 bound_to 10713
  155.9672  130.4473  150.5575 LP  0  0  0  0  0  0  0  0  0  0  0  0  # atno 17371 bound_to 10713
  140.2311  134.8685  157.3478 LP  0  0  0  0  0  0  0  0  0  0  0  0  # atno 17394 bound_to 11000
  140.1890  134.4396  155.7727 LP  0  0  0  0  0  0  0  0  0  0  0  0  # atno 17395 bound_to 11000

$$$$
