AV-unprocessed.smi:2159|AV-procd|sdf|8792|dock5
  -GOLD-   2272011573D 1   1.00000     0.00000
 Structure written by MMmdl.
 47 49  0  0  0  0  0  0  0  0  1 V2000
  150.0056  133.6267  155.3587 O   0  0  0  0  0  0  0  0  0  0  0  0
  149.4038  134.6669  155.0908 C   0  0  0  0  0  0  0  0  0  0  0  0
  149.8027  135.9914  155.7484 C   0  0  0  0  0  0  0  0  0  0  0  0
  150.9081  136.7422  154.9791 C   0  0  0  0  0  0  0  0  0  0  0  0
  151.2882  137.9793  155.6698 N   0  0  0  0  0  0  0  0  0  0  0  0
  151.0652  139.2080  155.1827 C   0  0  0  0  0  0  0  0  0  0  0  0
  150.5107  139.4769  154.1170 O   0  0  0  0  0  0  0  0  0  0  0  0
  151.6051  140.2811  156.1249 C   0  0  1  0  0  0  0  0  0  0  0  0
  150.5067  141.2693  156.5705 C   0  0  0  0  0  0  0  0  0  0  0  0
  150.9713  142.1239  157.7628 C   0  0  0  0  0  0  0  0  0  0  0  0
  151.5627  141.2946  158.9249 C   0  0  0  0  0  0  0  0  0  0  0  0
  151.5714  139.7793  158.6579 C   0  0  0  0  0  0  0  0  0  0  0  0
  152.1967  139.4526  157.2854 C   0  0  1  0  0  0  0  0  0  0  0  0
  151.9157  138.0154  156.8538 C   0  0  0  0  0  0  0  0  0  0  0  0
  152.2468  137.0413  157.5299 O   0  0  0  0  0  0  0  0  0  0  0  0
  148.3746  134.7209  154.2318 N   0  0  0  0  0  0  0  0  0  0  0  0
  147.8180  133.5814  153.5112 C   0  0  0  0  0  0  0  0  0  0  0  0
  146.2820  133.5553  153.5804 C   0  0  0  0  0  0  0  0  0  0  0  0
  145.6577  133.1021  152.2737 C   0  0  0  0  0  0  0  0  0  0  0  0
  146.4529  132.5303  151.2575 C   0  0  0  0  0  0  0  0  0  0  0  0
  145.8285  132.1357  150.0585 C   0  0  0  0  0  0  0  0  0  0  0  0
  144.4401  132.3276  149.9218 C   0  0  0  0  0  0  0  0  0  0  0  0
  143.7349  132.9078  150.9952 C   0  0  0  0  0  0  0  0  0  0  0  0
  144.3243  133.2899  152.1489 N   0  0  0  0  0  0  0  0  0  0  0  0
  148.9195  136.6270  155.8301 H   0  0  0  0  0  0  0  0  0  0  0  0
  150.1321  135.7817  156.7665 H   0  0  0  0  0  0  0  0  0  0  0  0
  151.7853  136.1040  154.8577 H   0  0  0  0  0  0  0  0  0  0  0  0
  150.5713  136.9699  153.9658 H   0  0  0  0  0  0  0  0  0  0  0  0
  152.4036  140.8244  155.6175 H   0  0  0  0  0  0  0  0  0  0  0  0
  150.2275  141.9189  155.7399 H   0  0  0  0  0  0  0  0  0  0  0  0
  149.6010  140.7274  156.8485 H   0  0  0  0  0  0  0  0  0  0  0  0
  151.7246  142.8332  157.4175 H   0  0  0  0  0  0  0  0  0  0  0  0
  150.1382  142.7276  158.1242 H   0  0  0  0  0  0  0  0  0  0  0  0
  152.5847  141.6271  159.1104 H   0  0  0  0  0  0  0  0  0  0  0  0
  151.0124  141.4986  159.8440 H   0  0  0  0  0  0  0  0  0  0  0  0
  152.1209  139.2701  159.4508 H   0  0  0  0  0  0  0  0  0  0  0  0
  150.5489  139.4003  158.7070 H   0  0  0  0  0  0  0  0  0  0  0  0
  153.2765  139.6023  157.3294 H   0  0  0  0  0  0  0  0  0  0  0  0
  147.9374  135.6172  154.0730 H   0  0  0  0  0  0  0  0  0  0  0  0
  148.1564  133.5925  152.4736 H   0  0  0  0  0  0  0  0  0  0  0  0
  148.2219  132.6735  153.9599 H   0  0  0  0  0  0  0  0  0  0  0  0
  145.9567  132.8897  154.3811 H   0  0  0  0  0  0  0  0  0  0  0  0
  145.8972  134.5453  153.8300 H   0  0  0  0  0  0  0  0  0  0  0  0
  147.5165  132.3979  151.3920 H   0  0  0  0  0  0  0  0  0  0  0  0
  146.4046  131.6952  149.2582 H   0  0  0  0  0  0  0  0  0  0  0  0
  143.9281  132.0372  149.0166 H   0  0  0  0  0  0  0  0  0  0  0  0
  142.6694  133.0700  150.9250 H   0  0  0  0  0  0  0  0  0  0  0  0
  1  2  2  0  0  0  0
  2  3  1  0  0  0  0
  2 16  1  0  0  0  0
  3  4  1  0  0  0  0
  3 25  1  0  0  0  0
  3 26  1  0  0  0  0
  4  5  1  0  0  0  0
  4 27  1  0  0  0  0
  4 28  1  0  0  0  0
  5 14  1  0  0  0  0
  5  6  1  0  0  0  0
  6  7  2  0  0  0  0
  6  8  1  0  0  0  0
  8 13  1  0  0  0  0
  8  9  1  0  0  0  0
  8 29  1  0  0  0  0
  9 10  1  0  0  0  0
  9 30  1  0  0  0  0
  9 31  1  0  0  0  0
 10 11  1  0  0  0  0
 10 32  1  0  0  0  0
 10 33  1  0  0  0  0
 11 12  1  0  0  0  0
 11 34  1  0  0  0  0
 11 35  1  0  0  0  0
 12 13  1  0  0  0  0
 12 36  1  0  0  0  0
 12 37  1  0  0  0  0
 13 14  1  0  0  0  0
 13 38  1  0  0  0  0
 14 15  2  0  0  0  0
 16 17  1  0  0  0  0
 16 39  1  0  0  0  0
 17 18  1  0  0  0  0
 17 40  1  0  0  0  0
 17 41  1  0  0  0  0
 18 19  1  0  0  0  0
 18 42  1  0  0  0  0
 18 43  1  0  0  0  0
 19 24  1  0  0  0  0
 19 20  2  0  0  0  0
 20 21  1  0  0  0  0
 20 44  1  0  0  0  0
 21 22  2  0  0  0  0
 21 45  1  0  0  0  0
 22 23  1  0  0  0  0
 22 46  1  0  0  0  0
 23 24  2  0  0  0  0
 23 47  1  0  0  0  0
M  END
> <s_m_source_file>
AV-unprocessed.smi

> <i_m_source_file_index>
2159

> <i_lp_mmshare_version>
43012

> <i_f3d_flags>
0

> <s_epik_input>
bjFbY0hdW2NIXVtjSF1bY0hdYzFbQ0gyXVtDSDJdW05IXUMoPU8pW0NIMl1bQ0gyXU4oQzI9TylDKD1PKVtDQEhdKFtDQEBIXTIzKVtDSDJdW0NIMl1bQ0gyXVtDSDJdMw==

> <s_epik_cmdline>
J2VwaWtfcHl0aG9uJywgJy1waCcsICc3LjAnLCAnLXRuJywgJzgnLCAnLW1hJywgJzIwMCcsICctbWV0YWxfYmluZGluZycsICctaW1hZScsICc8aW5maWxlLm1hZT4nLCAnLW9tYWUnLCAnPG91dGZpbGUubWFlPic=

> <r_lp_tautomer_probability>
1

> <r_epik_Ionization_Penalty>
0.026624

> <r_epik_Ionization_Penalty_Charging>
0

> <r_epik_Ionization_Penalty_Neutral>
0.026624

> <r_epik_State_Penalty>
0.0217444

> <r_epik_Charging_Adjusted_Penalty>
0.0217444

> <i_epik_Tot_Q>
0

> <i_epik_Tot_abs_Q>
0

> <r_epik_Metal_State_Penalty>
0.0208054

> <b_epik_Metal_Only>
0

> <s_lp_Force_Field>
OPLS_2005

> <r_lp_Energy>
25.0147

> <b_lp_Chiralities_Consistent>
1

> <s_lp_Variant>
AV-unprocessed.smi:2159-2

> <Gold.Version>
5.8.1

> <Gold.Id.Protein>
6NUR|6NUR_protein|mol2

> <Gold.PLP.Fitness>
45.1352

> <Gold.PLP.PLP>
-40.8604

> <Gold.PLP.part.hbond>
-2.0000

> <Gold.PLP.part.metal>
0.0000

> <Gold.PLP.part.buried>
-5.0631

> <Gold.PLP.part.nonpolar>
-34.5310

> <Gold.PLP.part.repulsive>
0.6275

> <Gold.PLP.ligand.clash>
0.0000

> <Gold.PLP.ligand.torsion>
0.8934

> <Gold.PLP.Chemscore.Hbond>
1.0000

> <Gold.PLP.Chemscore.CHOScore>
1.0000

> <Gold.PLP.Chemscore.Metal>
0.0000

> <Gold.Chemscore.Hbonds>
donor molecule, donor type, donor heavy atom, donor atom, acceptor molecule, acceptor atom, score
      P1  H  7989  7998       L1     7  1.00
      L1  C    23    47       P1 10186  0.98

> <Gold.PLP.Chemscore.Internal.Correction>
0.0616

> <Gold.Rescore>
     Score         DG    S(hbond)    S(metal)    S(lipo)     H(rot)  DE(clash)    DE(int)     intcor
     13.63     -14.69       0.98        0.00      93.74       1.97       0.06       1.01       ----

> <Gold.Chemscore.Fitness>
13.6274

> <Gold.Chemscore.DG>
-14.6922

> <Gold.Chemscore.ZeroCoef>
-5.4800

> <Gold.Chemscore.Hbond>
0.9846

> <Gold.Chemscore.Metal>
0.0000

> <Gold.Chemscore.Lipo>
93.7426

> <Gold.Chemscore.Internal_Hbond>
0.0000

> <Gold.Chemscore.DEClash>
0.0574

> <Gold.Chemscore.DEInternal>
1.0074

> <Gold.Chemscore.Rot>
1.9704

> <Gold.Chemscore.Internal.Correction>
   9.000000E+99

> <Gold.Chemscore.Hbonds>
donor molecule, donor type, donor heavy atom, donor atom, acceptor molecule, acceptor atom, score
      P1  H  7989  7998       L1     7  0.30

> <Gold.Chemscore.Hbond.Weighted>
-3.2886

> <Gold.Chemscore.Metal.Weighted>
-0.0000

> <Gold.Chemscore.Lipo.Weighted>
-10.9679

> <Gold.Chemscore.Internal_Hbond.Weighted>
0.0000

> <Gold.Chemscore.DEClash.Weighted>
0.0574

> <Gold.Chemscore.DEInternal.Weighted>
1.0074

> <Gold.Chemscore.Rot.Weighted>
5.0443

> <Gold.Chemscore.Internal.Correction.Weighted>
   9.000000E+99

> <Gold.Protein.RotatedTorsions>
[ 6907 6896 6895 6894 ] final   56.95 input  -60.11 | X-H torsion
[ 7974 7965 7964 7962 ] final   84.52 input  175.53 | X-H torsion
[ 8008 7997 7996 7995 ] final   46.68 input   59.86 | X-H torsion
[ 10167 10162 10161 10158 ] final  -59.20 input  -65.29 | X-H torsion
[ 10718 10713 10712 10709 ] final  -22.73 input   66.30 | X-H torsion
[ 10763 10752 10751 10750 ] final   80.86 input  -60.55 | X-H torsion
[ 11005 11000 10999 10996 ] final   90.50 input  -57.11 | X-H torsion

> <Gold.Protein.ActiveResidues>
 VAL166  LYS551  ARG553  GLY616  TRP617  ASP618  TYR619  PRO620  LYS621  CYS622 
 ASP623  PHE694  ASN695  SER759  ASP760  ASP761  ALA762  ILE779  LEU786  VAL792 
 PHE793  MET794  SER795  GLU796  ALA797  LYS798  CYS799  TRP800  GLU811  SER814 

> <Gold.Protein.RotatedAtoms>
  152.3685  134.6768  160.0183 H   0  0  0  0  0  0  0  0  0  0  0  0  # atno 6907 bound_to 6896
  151.7069  133.3306  159.3289 H   0  0  0  0  0  0  0  0  0  0  0  0  # atno 6908 bound_to 6896
  150.7656  134.6502  159.6328 H   0  0  0  0  0  0  0  0  0  0  0  0  # atno 6909 bound_to 6896
  145.5976  139.2347  143.2264 H   0  0  0  0  0  0  0  0  0  0  0  0  # atno 7974 bound_to 7965
  155.3564  140.3416  155.4240 H   0  0  0  0  0  0  0  0  0  0  0  0  # atno 8008 bound_to 7997
  156.1737  140.1640  156.8437 H   0  0  0  0  0  0  0  0  0  0  0  0  # atno 8009 bound_to 7997
  154.5259  140.0756  156.8240 H   0  0  0  0  0  0  0  0  0  0  0  0  # atno 8010 bound_to 7997
  140.6150  143.2399  151.5619 H   0  0  0  0  0  0  0  0  0  0  0  0  # atno 10167 bound_to 10162
  156.5006  130.4587  149.6703 H   0  0  0  0  0  0  0  0  0  0  0  0  # atno 10718 bound_to 10713
  153.1069  135.4787  154.8966 H   0  0  0  0  0  0  0  0  0  0  0  0  # atno 10763 bound_to 10752
  154.7439  135.3089  154.8681 H   0  0  0  0  0  0  0  0  0  0  0  0  # atno 10764 bound_to 10752
  153.9281  135.6847  153.4799 H   0  0  0  0  0  0  0  0  0  0  0  0  # atno 10765 bound_to 10752
  139.8855  134.8617  156.3293 H   0  0  0  0  0  0  0  0  0  0  0  0  # atno 11005 bound_to 11000
  146.1600  140.6802  142.9282 LP  0  0  0  0  0  0  0  0  0  0  0  0  # atno 17320 bound_to 7965
  144.7324  140.4710  143.6928 LP  0  0  0  0  0  0  0  0  0  0  0  0  # atno 17321 bound_to 7965
  139.5391  144.2697  152.1314 LP  0  0  0  0  0  0  0  0  0  0  0  0  # atno 17342 bound_to 10162
  140.1905  144.4757  150.6481 LP  0  0  0  0  0  0  0  0  0  0  0  0  # atno 17343 bound_to 10162
  156.3336  130.7344  151.2278 LP  0  0  0  0  0  0  0  0  0  0  0  0  # atno 17370 bound_to 10713
  157.7463  131.0423  150.4688 LP  0  0  0  0  0  0  0  0  0  0  0  0  # atno 17371 bound_to 10713
  140.9733  133.7313  156.0566 LP  0  0  0  0  0  0  0  0  0  0  0  0  # atno 17394 bound_to 11000
  140.7842  134.3690  157.5480 LP  0  0  0  0  0  0  0  0  0  0  0  0  # atno 17395 bound_to 11000

$$$$
