AV-unprocessed.smi:2876|AV-procd|sdf|11042|dock10
  -GOLD-   2272015513D 1   1.00000     0.00000
 Structure written by MMmdl.
 25 26  0  0  0  0  0  0  0  0  2 V2000
  152.5366  136.1654  156.9799 O   0  0  0  0  0  0  0  0  0  0  0  0
  152.3383  137.0506  157.8400 C   0  0  0  0  0  0  0  0  0  0  0  0
  152.3410  136.7794  159.0627 O   0  5  0  0  0  0  0  0  0  0  0  0
  152.0881  138.4820  157.4217 C   0  0  0  0  0  0  0  0  0  0  0  0
  152.1086  139.4042  158.4165 N   0  0  0  0  0  0  0  0  0  0  0  0
  151.8915  140.6829  158.0998 C   0  0  0  0  0  0  0  0  0  0  0  0
  151.9124  141.6078  159.1268 N   0  0  0  0  0  0  0  0  0  0  0  0
  153.0519  141.5448  160.0328 C   0  0  0  0  0  0  0  0  0  0  0  0
  152.7945  142.4144  161.2757 C   0  0  0  0  0  0  0  0  0  0  0  0
  152.4983  143.7485  160.8741 O   0  0  0  0  0  0  0  0  0  0  0  0
  151.3367  143.8116  160.0522 C   0  0  0  0  0  0  0  0  0  0  0  0
  151.5589  142.9779  158.7783 C   0  0  0  0  0  0  0  0  0  0  0  0
  151.6505  141.1660  156.8817 N   0  0  0  0  0  0  0  0  0  0  0  0
  151.6254  140.2712  155.8729 C   0  0  0  0  0  0  0  0  0  0  0  0
  151.8395  138.8928  156.0783 C   0  0  0  0  0  0  0  0  0  0  0  0
  151.7826  137.8376  154.7065 Cl  0  0  0  0  0  0  0  0  0  0  0  0
  153.2311  140.5106  160.3295 H   0  0  0  0  0  0  0  0  0  0  0  0
  153.9467  141.8896  159.5124 H   0  0  0  0  0  0  0  0  0  0  0  0
  151.9723  142.0108  161.8689 H   0  0  0  0  0  0  0  0  0  0  0  0
  153.6757  142.4241  161.9172 H   0  0  0  0  0  0  0  0  0  0  0  0
  150.4671  143.4527  160.6051 H   0  0  0  0  0  0  0  0  0  0  0  0
  151.1419  144.8520  159.7919 H   0  0  0  0  0  0  0  0  0  0  0  0
  152.3570  143.4162  158.1774 H   0  0  0  0  0  0  0  0  0  0  0  0
  150.6562  142.9816  158.1659 H   0  0  0  0  0  0  0  0  0  0  0  0
  151.4308  140.6623  154.8852 H   0  0  0  0  0  0  0  0  0  0  0  0
  1  2  2  0  0  0  0
  2  3  1  0  0  0  0
  2  4  1  0  0  0  0
  4 15  1  0  0  0  0
  4  5  2  0  0  0  0
  5  6  1  0  0  0  0
  6  7  1  0  0  0  0
  6 13  2  0  0  0  0
  7 12  1  0  0  0  0
  7  8  1  0  0  0  0
  8  9  1  0  0  0  0
  8 17  1  0  0  0  0
  8 18  1  0  0  0  0
  9 10  1  0  0  0  0
  9 19  1  0  0  0  0
  9 20  1  0  0  0  0
 10 11  1  0  0  0  0
 11 12  1  0  0  0  0
 11 21  1  0  0  0  0
 11 22  1  0  0  0  0
 12 23  1  0  0  0  0
 12 24  1  0  0  0  0
 13 14  1  0  0  0  0
 14 15  2  0  0  0  0
 14 25  1  0  0  0  0
 15 16  1  0  0  0  0
M  CHG  1   3  -1
M  END
> <s_m_source_file>
AV-unprocessed.smi

> <i_m_source_file_index>
2876

> <i_lp_mmshare_version>
43012

> <i_f3d_flags>
0

> <s_epik_input>
Tz1DKFtPSF0pYzFuYyhuW2NIXWMxQ2wpTjJbQ0gyXVtDSDJdT1tDSDJdW0NIMl0y

> <s_epik_cmdline>
J2VwaWtfcHl0aG9uJywgJy1waCcsICc3LjAnLCAnLXRuJywgJzgnLCAnLW1hJywgJzIwMCcsICctbWV0YWxfYmluZGluZycsICctaW1hZScsICc8aW5maWxlLm1hZT4nLCAnLW9tYWUnLCAnPG91dGZpbGUubWFlPic=

> <r_lp_tautomer_probability>
1

> <r_epik_Ionization_Penalty>
2.42258e-06

> <r_epik_Ionization_Penalty_Charging>
2.2596e-06

> <r_epik_Ionization_Penalty_Neutral>
1.62982e-07

> <r_epik_State_Penalty>
-0

> <r_epik_Charging_Adjusted_Penalty>
2.2596e-06

> <i_epik_Tot_Q>
-1

> <i_epik_Tot_abs_Q>
1

> <r_epik_Metal_State_Penalty>
-0

> <b_epik_Metal_Only>
0

> <s_lp_Force_Field>
OPLS_2005

> <r_lp_Energy>
19.4651

> <b_lp_Chiralities_Consistent>
1

> <s_lp_Variant>
AV-unprocessed.smi:2876-1

> <Gold.Version>
5.8.1

> <Gold.Id.Protein>
6NUR|6NUR_protein|mol2

> <Gold.PLP.Fitness>
37.7568

> <Gold.PLP.PLP>
-26.4159

> <Gold.PLP.part.hbond>
-2.0000

> <Gold.PLP.part.metal>
0.0000

> <Gold.PLP.part.buried>
-4.5285

> <Gold.PLP.part.nonpolar>
-21.0974

> <Gold.PLP.part.repulsive>
0.0995

> <Gold.PLP.ligand.clash>
0.0000

> <Gold.PLP.ligand.torsion>
0.1929

> <Gold.PLP.Chemscore.Hbond>
3.8240

> <Gold.PLP.Chemscore.CHOScore>
0.0000

> <Gold.PLP.Chemscore.Metal>
0.0000

> <Gold.Chemscore.Hbonds>
donor molecule, donor type, donor heavy atom, donor atom, acceptor molecule, acceptor atom, score
      P1  H  6896  6907       L1     3  1.89
      P1  H 10752 10764       L1     1  1.85

> <Gold.PLP.Chemscore.Internal.Correction>
0.2548

> <Gold.Rescore>
     Score         DG    S(hbond)    S(metal)    S(lipo)     H(rot)  DE(clash)    DE(int)     intcor
     15.39     -16.83       1.84        0.00      66.27       1.00       0.01       1.43       ----

> <Gold.Chemscore.Fitness>
15.3912

> <Gold.Chemscore.DG>
-16.8323

> <Gold.Chemscore.ZeroCoef>
-5.4800

> <Gold.Chemscore.Hbond>
1.8440

> <Gold.Chemscore.Metal>
0.0000

> <Gold.Chemscore.Lipo>
66.2672

> <Gold.Chemscore.Internal_Hbond>
0.0000

> <Gold.Chemscore.DEClash>
0.0106

> <Gold.Chemscore.DEInternal>
1.4304

> <Gold.Chemscore.Rot>
1.0000

> <Gold.Chemscore.Internal.Correction>
   9.000000E+99

> <Gold.Chemscore.Hbonds>
donor molecule, donor type, donor heavy atom, donor atom, acceptor molecule, acceptor atom, score
      P1  H  6896  6907       L1     3  0.89
      P1  H 10752 10764       L1     1  0.89

> <Gold.Chemscore.Hbond.Weighted>
-6.1590

> <Gold.Chemscore.Metal.Weighted>
-0.0000

> <Gold.Chemscore.Lipo.Weighted>
-7.7533

> <Gold.Chemscore.Internal_Hbond.Weighted>
0.0000

> <Gold.Chemscore.DEClash.Weighted>
0.0106

> <Gold.Chemscore.DEInternal.Weighted>
1.4304

> <Gold.Chemscore.Rot.Weighted>
2.5600

> <Gold.Chemscore.Internal.Correction.Weighted>
   9.000000E+99

> <Gold.Protein.RotatedTorsions>
[ 6907 6896 6895 6894 ] final   14.75 input  -60.11 | X-H torsion
[ 7974 7965 7964 7962 ] final  -36.68 input  175.53 | X-H torsion
[ 8008 7997 7996 7995 ] final   77.52 input   59.86 | X-H torsion
[ 10167 10162 10161 10158 ] final -170.22 input  -65.29 | X-H torsion
[ 10718 10713 10712 10709 ] final  106.07 input   66.30 | X-H torsion
[ 10763 10752 10751 10750 ] final  -15.95 input  -60.55 | X-H torsion
[ 11005 11000 10999 10996 ] final   11.95 input  -57.11 | X-H torsion

> <Gold.Protein.ActiveResidues>
 VAL166  LYS551  ARG553  GLY616  TRP617  ASP618  TYR619  PRO620  LYS621  CYS622 
 ASP623  PHE694  ASN695  SER759  ASP760  ASP761  ALA762  ILE779  LEU786  VAL792 
 PHE793  MET794  SER795  GLU796  ALA797  LYS798  CYS799  TRP800  GLU811  SER814 

> <Gold.Protein.RotatedAtoms>
  151.8072  135.0691  160.0407 H   0  0  0  0  0  0  0  0  0  0  0  0  # atno 6907 bound_to 6896
  152.3046  133.5686  159.5649 H   0  0  0  0  0  0  0  0  0  0  0  0  # atno 6908 bound_to 6896
  150.7290  134.0157  159.3726 H   0  0  0  0  0  0  0  0  0  0  0  0  # atno 6909 bound_to 6896
  146.0641  140.6307  142.8983 H   0  0  0  0  0  0  0  0  0  0  0  0  # atno 7974 bound_to 7965
  155.8427  140.3461  155.5642 H   0  0  0  0  0  0  0  0  0  0  0  0  # atno 8008 bound_to 7997
  155.8123  140.0900  157.1916 H   0  0  0  0  0  0  0  0  0  0  0  0  # atno 8009 bound_to 7997
  154.4005  140.1445  156.3389 H   0  0  0  0  0  0  0  0  0  0  0  0  # atno 8010 bound_to 7997
  139.5875  144.1286  152.1593 H   0  0  0  0  0  0  0  0  0  0  0  0  # atno 10167 bound_to 10162
  157.6682  131.0842  150.5951 H   0  0  0  0  0  0  0  0  0  0  0  0  # atno 10718 bound_to 10713
  153.5512  135.7011  153.5590 H   0  0  0  0  0  0  0  0  0  0  0  0  # atno 10763 bound_to 10752
  153.3514  135.3994  155.1648 H   0  0  0  0  0  0  0  0  0  0  0  0  # atno 10764 bound_to 10752
  154.8661  135.3766  154.5023 H   0  0  0  0  0  0  0  0  0  0  0  0  # atno 10765 bound_to 10752
  140.4975  134.0779  155.7785 H   0  0  0  0  0  0  0  0  0  0  0  0  # atno 11005 bound_to 11000
  144.7192  140.4314  143.7021 LP  0  0  0  0  0  0  0  0  0  0  0  0  # atno 17320 bound_to 7965
  145.6509  139.1565  143.2862 LP  0  0  0  0  0  0  0  0  0  0  0  0  # atno 17321 bound_to 7965
  140.0853  144.5666  150.7093 LP  0  0  0  0  0  0  0  0  0  0  0  0  # atno 17342 bound_to 10162
  140.7144  143.2532  151.4480 LP  0  0  0  0  0  0  0  0  0  0  0  0  # atno 17343 bound_to 10162
  156.6251  130.4416  149.5807 LP  0  0  0  0  0  0  0  0  0  0  0  0  # atno 17370 bound_to 10713
  156.2325  130.6803  151.1477 LP  0  0  0  0  0  0  0  0  0  0  0  0  # atno 17371 bound_to 10713
  141.1453  133.9067  157.2231 LP  0  0  0  0  0  0  0  0  0  0  0  0  # atno 17394 bound_to 11000
  139.9733  135.0122  156.9567 LP  0  0  0  0  0  0  0  0  0  0  0  0  # atno 17395 bound_to 11000

$$$$
