AV-unprocessed.smi:153|AV-procd|sdf|1257|dock7
  -GOLD-   2262018503D 1   1.00000     0.00000
 Structure written by MMmdl.
 60 63  0  0  0  0  0  0  0  0  2 V2000
  147.4966  132.7600  161.8548 C   0  0  0  0  0  0  0  0  0  0  0  0
  146.7020  134.0753  161.8972 C   0  0  1  0  0  0  0  0  0  0  0  0
  147.1343  134.7254  163.0946 O   0  0  0  0  0  0  0  0  0  0  0  0
  147.4658  136.0812  162.8398 C   0  0  0  0  0  0  0  0  0  0  0  0
  147.9229  136.0752  161.3885 C   0  0  0  0  0  0  0  0  0  0  0  0
  146.9647  135.0843  160.7443 C   0  0  2  0  0  0  0  0  0  0  0  0
  145.7549  135.7775  160.4869 O   0  0  0  0  0  0  0  0  0  0  0  0
  147.4989  134.5380  159.3910 C   0  0  0  0  0  0  0  0  0  0  0  0
  148.0602  135.5319  158.4802 N   0  0  0  0  0  0  0  0  0  0  0  0
  147.6879  136.8500  158.3299 C   0  0  0  0  0  0  0  0  0  0  0  0
  148.3803  137.5290  157.4579 N   0  0  0  0  0  0  0  0  0  0  0  0
  149.3203  136.6247  156.9783 C   0  0  0  0  0  0  0  0  0  0  0  0
  150.3901  136.6958  156.0345 C   0  0  0  0  0  0  0  0  0  0  0  0
  150.7204  137.8049  155.3167 N   0  0  0  0  0  0  0  0  0  0  0  0
  151.3456  137.6547  154.0088 C   0  0  0  0  0  0  0  0  0  0  0  0
  150.1792  139.1147  155.6955 C   0  0  0  0  0  0  0  0  0  0  0  0
  151.1985  140.0388  156.4016 C   0  0  1  0  0  0  0  0  0  0  0  0
  152.3473  140.1742  155.5890 O   0  0  0  0  0  0  0  0  0  0  0  0
  150.6521  141.4298  156.7903 C   0  0  0  0  0  0  0  0  0  0  0  0
  151.5494  142.1564  157.7229 N   0  3  0  0  0  0  0  0  0  0  0  0
  151.3423  143.6238  157.6806 C   0  0  0  0  0  0  0  0  0  0  0  0
  152.3316  144.3345  158.6194 C   0  0  0  0  0  0  0  0  0  0  0  0
  152.1824  143.8299  159.9405 O   0  0  0  0  0  0  0  0  0  0  0  0
  152.4643  142.4379  160.0128 C   0  0  0  0  0  0  0  0  0  0  0  0
  151.4786  141.6640  159.1212 C   0  0  0  0  0  0  0  0  0  0  0  0
  151.1387  135.5741  155.8660 N   0  0  0  0  0  0  0  0  0  0  0  0
  150.8647  134.4609  156.5503 C   0  0  0  0  0  0  0  0  0  0  0  0
  149.9023  134.2522  157.4481 N   0  0  0  0  0  0  0  0  0  0  0  0
  149.1456  135.3712  157.6333 C   0  0  0  0  0  0  0  0  0  0  0  0
  147.1411  132.0971  161.0694 H   0  0  0  0  0  0  0  0  0  0  0  0
  147.3862  132.2159  162.7931 H   0  0  0  0  0  0  0  0  0  0  0  0
  148.5611  132.9380  161.7015 H   0  0  0  0  0  0  0  0  0  0  0  0
  145.6392  133.8416  161.9796 H   0  0  0  0  0  0  0  0  0  0  0  0
  146.5772  136.7009  162.9666 H   0  0  0  0  0  0  0  0  0  0  0  0
  148.2349  136.4407  163.5235 H   0  0  0  0  0  0  0  0  0  0  0  0
  147.9067  137.0651  160.9307 H   0  0  0  0  0  0  0  0  0  0  0  0
  148.9463  135.7005  161.3366 H   0  0  0  0  0  0  0  0  0  0  0  0
  145.2655  135.8361  161.2932 H   0  0  0  0  0  0  0  0  0  0  0  0
  148.2663  133.7844  159.5717 H   0  0  0  0  0  0  0  0  0  0  0  0
  146.6948  134.0163  158.8713 H   0  0  0  0  0  0  0  0  0  0  0  0
  146.8867  137.3095  158.8885 H   0  0  0  0  0  0  0  0  0  0  0  0
  152.1129  136.8798  154.0288 H   0  0  0  0  0  0  0  0  0  0  0  0
  151.8250  138.5854  153.7048 H   0  0  0  0  0  0  0  0  0  0  0  0
  150.6036  137.3961  153.2530 H   0  0  0  0  0  0  0  0  0  0  0  0
  149.7837  139.6320  154.8218 H   0  0  0  0  0  0  0  0  0  0  0  0
  149.3133  138.9627  156.3410 H   0  0  0  0  0  0  0  0  0  0  0  0
  151.5243  139.5131  157.2984 H   0  0  0  0  0  0  0  0  0  0  0  0
  152.0694  140.3319  154.6992 H   0  0  0  0  0  0  0  0  0  0  0  0
  150.5264  142.0213  155.8821 H   0  0  0  0  0  0  0  0  0  0  0  0
  149.6612  141.3426  157.2389 H   0  0  0  0  0  0  0  0  0  0  0  0
  151.4805  143.9893  156.6623 H   0  0  0  0  0  0  0  0  0  0  0  0
  150.3163  143.8576  157.9692 H   0  0  0  0  0  0  0  0  0  0  0  0
  153.3592  144.1986  158.2785 H   0  0  0  0  0  0  0  0  0  0  0  0
  152.1378  145.4073  158.6265 H   0  0  0  0  0  0  0  0  0  0  0  0
  153.4957  142.2461  159.7120 H   0  0  0  0  0  0  0  0  0  0  0  0
  152.3692  142.1120  161.0487 H   0  0  0  0  0  0  0  0  0  0  0  0
  150.4630  141.7841  159.5018 H   0  0  0  0  0  0  0  0  0  0  0  0
  151.7117  140.6007  159.1655 H   0  0  0  0  0  0  0  0  0  0  0  0
  151.5071  133.6165  156.3484 H   0  0  0  0  0  0  0  0  0  0  0  0
  152.4918  141.9939  157.3962 H   0  0  0  0  0  0  0  0  0  0  0  0
  1  2  1  0  0  0  0
  1 30  1  0  0  0  0
  1 31  1  0  0  0  0
  1 32  1  0  0  0  0
  2  6  1  0  0  0  0
  2  3  1  0  0  0  0
  2 33  1  0  0  0  0
  3  4  1  0  0  0  0
  4  5  1  0  0  0  0
  4 34  1  0  0  0  0
  4 35  1  0  0  0  0
  5  6  1  0  0  0  0
  5 36  1  0  0  0  0
  5 37  1  0  0  0  0
  6  7  1  0  0  0  0
  6  8  1  0  0  0  0
  7 38  1  0  0  0  0
  8  9  1  0  0  0  0
  8 39  1  0  0  0  0
  8 40  1  0  0  0  0
  9 29  1  0  0  0  0
  9 10  1  0  0  0  0
 10 11  2  0  0  0  0
 10 41  1  0  0  0  0
 11 12  1  0  0  0  0
 12 29  2  0  0  0  0
 12 13  1  0  0  0  0
 13 14  1  0  0  0  0
 13 26  2  0  0  0  0
 14 15  1  0  0  0  0
 14 16  1  0  0  0  0
 15 42  1  0  0  0  0
 15 43  1  0  0  0  0
 15 44  1  0  0  0  0
 16 17  1  0  0  0  0
 16 45  1  0  0  0  0
 16 46  1  0  0  0  0
 17 18  1  0  0  0  0
 17 19  1  0  0  0  0
 17 47  1  0  0  0  0
 18 48  1  0  0  0  0
 19 20  1  0  0  0  0
 19 49  1  0  0  0  0
 19 50  1  0  0  0  0
 20 25  1  0  0  0  0
 20 21  1  0  0  0  0
 20 60  1  0  0  0  0
 21 22  1  0  0  0  0
 21 51  1  0  0  0  0
 21 52  1  0  0  0  0
 22 23  1  0  0  0  0
 22 53  1  0  0  0  0
 22 54  1  0  0  0  0
 23 24  1  0  0  0  0
 24 25  1  0  0  0  0
 24 55  1  0  0  0  0
 24 56  1  0  0  0  0
 25 57  1  0  0  0  0
 25 58  1  0  0  0  0
 26 27  1  0  0  0  0
 27 28  2  0  0  0  0
 27 59  1  0  0  0  0
 28 29  1  0  0  0  0
M  CHG  1  20   1
M  END
> <s_m_source_file>
AV-unprocessed.smi

> <i_m_source_file_index>
153

> <i_lp_mmshare_version>
43012

> <i_f3d_flags>
0

> <s_epik_input>
W0NIMl0xW0NIMl1PW0NAQEhdKFtDSDNdKVtDQEBdMShbT0hdKVtDSDJdbihbY0hdbjIpYyhjMjMpbltjSF1uYzNOKFtDSDNdKVtDSDJdW0NASF0oW09IXSlbQ0gyXU40W0NIMl1bQ0gyXU9bQ0gyXVtDSDJdNA==

> <s_epik_cmdline>
J2VwaWtfcHl0aG9uJywgJy1waCcsICc3LjAnLCAnLXRuJywgJzgnLCAnLW1hJywgJzIwMCcsICctbWV0YWxfYmluZGluZycsICctaW1hZScsICc8aW5maWxlLm1hZT4nLCAnLW9tYWUnLCAnPG91dGZpbGUubWFlPic=

> <r_lp_tautomer_probability>
1

> <r_epik_Ionization_Penalty>
0.403509

> <r_epik_Ionization_Penalty_Charging>
0.40072

> <r_epik_Ionization_Penalty_Neutral>
0.00278876

> <r_epik_State_Penalty>
0.400058

> <r_epik_Charging_Adjusted_Penalty>
0.800778

> <i_epik_Tot_Q>
1

> <i_epik_Tot_abs_Q>
1

> <r_epik_Metal_State_Penalty>
0.400321

> <b_epik_Metal_Only>
0

> <s_lp_Force_Field>
OPLS_2005

> <r_lp_Energy>
51.1355

> <b_lp_Chiralities_Consistent>
1

> <s_lp_Variant>
AV-unprocessed.smi:153-8

> <Gold.Version>
5.8.1

> <Gold.Id.Protein>
6NUR|6NUR_protein|mol2

> <Gold.PLP.Fitness>
53.8276

> <Gold.PLP.PLP>
-47.4526

> <Gold.PLP.part.hbond>
-4.0000

> <Gold.PLP.part.metal>
0.0000

> <Gold.PLP.part.buried>
-2.4457

> <Gold.PLP.part.nonpolar>
-41.7484

> <Gold.PLP.part.repulsive>
0.1218

> <Gold.PLP.ligand.clash>
0.0000

> <Gold.PLP.ligand.torsion>
1.2735

> <Gold.PLP.Chemscore.Hbond>
2.7840

> <Gold.PLP.Chemscore.CHOScore>
0.0000

> <Gold.PLP.Chemscore.Metal>
0.0000

> <Gold.Chemscore.Hbonds>
donor molecule, donor type, donor heavy atom, donor atom, acceptor molecule, acceptor atom, score
      P1  H  6896  6908       L1    28  0.74
      P1  H  7997  8010       L1    18  0.86
      P1  H 10752 10765       L1    26  0.75

> <Gold.PLP.Chemscore.Internal.Correction>
0.5701

> <Gold.Rescore>
     Score         DG    S(hbond)    S(metal)    S(lipo)     H(rot)  DE(clash)    DE(int)     intcor
     13.40     -17.70       2.33        0.00     117.05       3.62       1.13       3.17       ----

> <Gold.Chemscore.Fitness>
13.3950

> <Gold.Chemscore.DG>
-17.6954

> <Gold.Chemscore.ZeroCoef>
-5.4800

> <Gold.Chemscore.Hbond>
2.3303

> <Gold.Chemscore.Metal>
0.0000

> <Gold.Chemscore.Lipo>
117.0498

> <Gold.Chemscore.Internal_Hbond>
0.0000

> <Gold.Chemscore.DEClash>
1.1285

> <Gold.Chemscore.DEInternal>
3.1719

> <Gold.Chemscore.Rot>
3.6182

> <Gold.Chemscore.Internal.Correction>
   9.000000E+99

> <Gold.Chemscore.Hbonds>
donor molecule, donor type, donor heavy atom, donor atom, acceptor molecule, acceptor atom, score
      P1  H  6896  6908       L1    28  0.30
      P1  H  7997  8010       L1    18  0.81
      P1  H 10752 10765       L1    26  0.66

> <Gold.Chemscore.Hbond.Weighted>
-7.7831

> <Gold.Chemscore.Metal.Weighted>
-0.0000

> <Gold.Chemscore.Lipo.Weighted>
-13.6948

> <Gold.Chemscore.Internal_Hbond.Weighted>
0.0000

> <Gold.Chemscore.DEClash.Weighted>
1.1285

> <Gold.Chemscore.DEInternal.Weighted>
3.1719

> <Gold.Chemscore.Rot.Weighted>
9.2625

> <Gold.Chemscore.Internal.Correction.Weighted>
   9.000000E+99

> <Gold.Protein.RotatedTorsions>
[ 6907 6896 6895 6894 ] final  116.00 input  -60.11 | X-H torsion
[ 7974 7965 7964 7962 ] final -169.33 input  175.53 | X-H torsion
[ 8008 7997 7996 7995 ] final   96.13 input   59.86 | X-H torsion
[ 10167 10162 10161 10158 ] final  -34.86 input  -65.29 | X-H torsion
[ 10718 10713 10712 10709 ] final -141.56 input   66.30 | X-H torsion
[ 10763 10752 10751 10750 ] final -165.27 input  -60.55 | X-H torsion
[ 11005 11000 10999 10996 ] final -156.09 input  -57.11 | X-H torsion

> <Gold.Protein.ActiveResidues>
 VAL166  LYS551  ARG553  GLY616  TRP617  ASP618  TYR619  PRO620  LYS621  CYS622 
 ASP623  PHE694  ASN695  SER759  ASP760  ASP761  ALA762  ILE779  LEU786  VAL792 
 PHE793  MET794  SER795  GLU796  ALA797  LYS798  CYS799  TRP800  GLU811  SER814 

> <Gold.Protein.RotatedAtoms>
  152.4706  133.8020  159.6957 H   0  0  0  0  0  0  0  0  0  0  0  0  # atno 6907 bound_to 6896
  150.8692  133.7520  159.2973 H   0  0  0  0  0  0  0  0  0  0  0  0  # atno 6908 bound_to 6896
  151.5060  135.1067  159.9893 H   0  0  0  0  0  0  0  0  0  0  0  0  # atno 6909 bound_to 6896
  144.7187  140.2236  143.6313 H   0  0  0  0  0  0  0  0  0  0  0  0  # atno 7974 bound_to 7965
  156.0763  140.3277  155.7638 H   0  0  0  0  0  0  0  0  0  0  0  0  # atno 8008 bound_to 7997
  155.5225  140.0586  157.2921 H   0  0  0  0  0  0  0  0  0  0  0  0  # atno 8009 bound_to 7997
  154.4557  140.1941  156.0404 H   0  0  0  0  0  0  0  0  0  0  0  0  # atno 8010 bound_to 7997
  140.7177  143.3518  151.2141 H   0  0  0  0  0  0  0  0  0  0  0  0  # atno 10167 bound_to 10162
  156.3355  130.7609  151.1736 H   0  0  0  0  0  0  0  0  0  0  0  0  # atno 10718 bound_to 10713
  154.6948  135.2977  154.9428 H   0  0  0  0  0  0  0  0  0  0  0  0  # atno 10763 bound_to 10752
  154.0379  135.6661  153.4791 H   0  0  0  0  0  0  0  0  0  0  0  0  # atno 10764 bound_to 10752
  153.0638  135.5100  154.8059 H   0  0  0  0  0  0  0  0  0  0  0  0  # atno 10765 bound_to 10752
  140.6793  134.4162  157.5227 H   0  0  0  0  0  0  0  0  0  0  0  0  # atno 11005 bound_to 11000
  145.8477  139.2160  143.1790 LP  0  0  0  0  0  0  0  0  0  0  0  0  # atno 17320 bound_to 7965
  146.0289  140.8277  142.9886 LP  0  0  0  0  0  0  0  0  0  0  0  0  # atno 17321 bound_to 7965
  139.7050  143.9470  152.2922 LP  0  0  0  0  0  0  0  0  0  0  0  0  # atno 17342 bound_to 10162
  139.9176  144.6819  150.8496 LP  0  0  0  0  0  0  0  0  0  0  0  0  # atno 17343 bound_to 10162
  157.7438  131.0469  150.4917 LP  0  0  0  0  0  0  0  0  0  0  0  0  # atno 17370 bound_to 10713
  156.5090  130.4135  149.6311 LP  0  0  0  0  0  0  0  0  0  0  0  0  # atno 17371 bound_to 10713
  139.8956  134.8678  156.2122 LP  0  0  0  0  0  0  0  0  0  0  0  0  # atno 17394 bound_to 11000
  141.0330  133.6978  156.1463 LP  0  0  0  0  0  0  0  0  0  0  0  0  # atno 17395 bound_to 11000

$$$$
