AV-unprocessed.smi:18|AV-procd|sdf|108|dock2
  -GOLD-   2262015263D 1   1.00000     0.00000
 Structure written by MMmdl.
 47 50  0  0  0  0  0  0  0  0  1 V2000
  144.9518  139.6647  154.8874 O   0  0  0  0  0  0  0  0  0  0  0  0
  144.5117  140.0387  156.1775 C   0  0  0  0  0  0  0  0  0  0  0  0
  144.3613  141.5655  156.3014 C   0  0  0  0  0  0  0  0  0  0  0  0
  145.6086  142.2892  155.7516 C   0  0  0  0  0  0  0  0  0  0  0  0
  146.8420  141.9729  156.4564 N   0  0  0  0  0  0  0  0  0  0  0  0
  147.0997  142.1829  157.7934 C   0  0  0  0  0  0  0  0  0  0  0  0
  148.2843  141.8144  158.1988 N   0  0  0  0  0  0  0  0  0  0  0  0
  148.8940  141.3263  157.0506 C   0  0  0  0  0  0  0  0  0  0  0  0
  150.1745  140.7787  156.7728 C   0  0  0  0  0  0  0  0  0  0  0  0
  151.1050  140.6102  157.7434 N   0  0  0  0  0  0  0  0  0  0  0  0
  151.9264  139.4425  157.4398 C   0  0  0  0  0  0  0  0  0  0  0  0
  152.8670  139.1267  158.6089 C   0  0  0  0  0  0  0  0  0  0  0  0
  153.6583  140.2741  158.8804 O   0  0  0  0  0  0  0  0  0  0  0  0
  152.8610  141.3796  159.2867 C   0  0  0  0  0  0  0  0  0  0  0  0
  151.8746  141.7898  158.1672 C   0  0  2  0  0  0  0  0  0  0  0  0
  150.9568  142.9454  158.6455 C   0  0  0  0  0  0  0  0  0  0  0  0
  151.7103  144.1575  159.2150 C   0  0  0  0  0  0  0  0  0  0  0  0
  152.4325  144.7504  158.2647 F   0  0  0  0  0  0  0  0  0  0  0  0
  150.8391  145.0362  159.7091 F   0  0  0  0  0  0  0  0  0  0  0  0
  150.4320  140.3867  155.4963 N   0  0  0  0  0  0  0  0  0  0  0  0
  149.5022  140.5410  154.5488 C   0  0  0  0  0  0  0  0  0  0  0  0
  148.2709  141.0438  154.6617 N   0  0  0  0  0  0  0  0  0  0  0  0
  148.0044  141.4230  155.9442 C   0  0  0  0  0  0  0  0  0  0  0  0
  143.0052  142.1057  155.8245 C   0  0  0  0  0  0  0  0  0  0  0  0
  142.5071  142.2033  157.1753 O   0  0  0  0  0  0  0  0  0  0  0  0
  143.8557  142.0530  157.6664 C   0  0  0  0  0  0  0  0  0  0  0  0
  144.4178  140.1100  154.2470 H   0  0  0  0  0  0  0  0  0  0  0  0
  143.5791  139.5214  156.4033 H   0  0  0  0  0  0  0  0  0  0  0  0
  145.2416  139.6671  156.8976 H   0  0  0  0  0  0  0  0  0  0  0  0
  145.7570  142.0491  154.6980 H   0  0  0  0  0  0  0  0  0  0  0  0
  145.4665  143.3700  155.7843 H   0  0  0  0  0  0  0  0  0  0  0  0
  146.3718  142.6141  158.4656 H   0  0  0  0  0  0  0  0  0  0  0  0
  151.2954  138.5759  157.2368 H   0  0  0  0  0  0  0  0  0  0  0  0
  152.5094  139.6337  156.5373 H   0  0  0  0  0  0  0  0  0  0  0  0
  152.3057  138.8311  159.4966 H   0  0  0  0  0  0  0  0  0  0  0  0
  153.5224  138.2948  158.3511 H   0  0  0  0  0  0  0  0  0  0  0  0
  152.3284  141.1315  160.2064 H   0  0  0  0  0  0  0  0  0  0  0  0
  153.5369  142.2001  159.5235 H   0  0  0  0  0  0  0  0  0  0  0  0
  152.4594  142.1334  157.3127 H   0  0  0  0  0  0  0  0  0  0  0  0
  150.3358  143.3073  157.8266 H   0  0  0  0  0  0  0  0  0  0  0  0
  150.2630  142.5672  159.3974 H   0  0  0  0  0  0  0  0  0  0  0  0
  152.3824  143.8916  160.0299 H   0  0  0  0  0  0  0  0  0  0  0  0
  149.7843  140.2118  153.5596 H   0  0  0  0  0  0  0  0  0  0  0  0
  143.0544  143.0857  155.3484 H   0  0  0  0  0  0  0  0  0  0  0  0
  142.4359  141.4044  155.2135 H   0  0  0  0  0  0  0  0  0  0  0  0
  143.9333  141.3116  158.4624 H   0  0  0  0  0  0  0  0  0  0  0  0
  144.2804  143.0077  157.9814 H   0  0  0  0  0  0  0  0  0  0  0  0
  1  2  1  0  0  0  0
  1 27  1  0  0  0  0
  2  3  1  0  0  0  0
  2 28  1  0  0  0  0
  2 29  1  0  0  0  0
  3 26  1  0  0  0  0
  3  4  1  0  0  0  0
  3 24  1  0  0  0  0
  4  5  1  0  0  0  0
  4 30  1  0  0  0  0
  4 31  1  0  0  0  0
  5 23  1  0  0  0  0
  5  6  1  0  0  0  0
  6  7  2  0  0  0  0
  6 32  1  0  0  0  0
  7  8  1  0  0  0  0
  8 23  2  0  0  0  0
  8  9  1  0  0  0  0
  9 10  1  0  0  0  0
  9 20  2  0  0  0  0
 10 15  1  0  0  0  0
 10 11  1  0  0  0  0
 11 12  1  0  0  0  0
 11 33  1  0  0  0  0
 11 34  1  0  0  0  0
 12 13  1  0  0  0  0
 12 35  1  0  0  0  0
 12 36  1  0  0  0  0
 13 14  1  0  0  0  0
 14 15  1  0  0  0  0
 14 37  1  0  0  0  0
 14 38  1  0  0  0  0
 15 16  1  0  0  0  0
 15 39  1  0  0  0  0
 16 17  1  0  0  0  0
 16 40  1  0  0  0  0
 16 41  1  0  0  0  0
 17 18  1  0  0  0  0
 17 19  1  0  0  0  0
 17 42  1  0  0  0  0
 20 21  1  0  0  0  0
 21 22  2  0  0  0  0
 21 43  1  0  0  0  0
 22 23  1  0  0  0  0
 24 25  1  0  0  0  0
 24 44  1  0  0  0  0
 24 45  1  0  0  0  0
 25 26  1  0  0  0  0
 26 46  1  0  0  0  0
 26 47  1  0  0  0  0
M  END
> <s_m_source_file>
AV-unprocessed.smi

> <i_m_source_file_index>
18

> <i_lp_mmshare_version>
43012

> <i_f3d_flags>
0

> <s_epik_input>
W0NIMl0xT1tDSDJdQzEoW0NIMl1bT0hdKVtDSDJdbihbY0hdbjIpYyhjMjMpbltjSF1uYzNONFtDSDJdW0NIMl1PW0NIMl1bQ0BIXTRbQ0gyXVtDSF0oRilG

> <s_epik_cmdline>
J2VwaWtfcHl0aG9uJywgJy1waCcsICc3LjAnLCAnLXRuJywgJzgnLCAnLW1hJywgJzIwMCcsICctbWV0YWxfYmluZGluZycsICctaW1hZScsICc8aW5maWxlLm1hZT4nLCAnLW9tYWUnLCAnPG91dGZpbGUubWFlPic=

> <r_lp_tautomer_probability>
1

> <r_epik_Ionization_Penalty>
6.63711e-05

> <r_epik_Ionization_Penalty_Charging>
0

> <r_epik_Ionization_Penalty_Neutral>
6.63711e-05

> <r_epik_State_Penalty>
-0

> <r_epik_Charging_Adjusted_Penalty>
0

> <i_epik_Tot_Q>
0

> <i_epik_Tot_abs_Q>
0

> <r_epik_Metal_State_Penalty>
-0

> <b_epik_Metal_Only>
0

> <s_lp_Force_Field>
OPLS_2005

> <r_lp_Energy>
38.6195

> <b_lp_Chiralities_Consistent>
1

> <s_lp_Variant>
AV-unprocessed.smi:18-2

> <Gold.Version>
5.8.1

> <Gold.Id.Protein>
6NUR|6NUR_protein|mol2

> <Gold.PLP.Fitness>
44.8964

> <Gold.PLP.PLP>
-37.3126

> <Gold.PLP.part.hbond>
-2.1066

> <Gold.PLP.part.metal>
0.0000

> <Gold.PLP.part.buried>
-4.7568

> <Gold.PLP.part.nonpolar>
-29.7712

> <Gold.PLP.part.repulsive>
0.2981

> <Gold.PLP.ligand.clash>
0.0000

> <Gold.PLP.ligand.torsion>
0.9260

> <Gold.PLP.Chemscore.Hbond>
1.9600

> <Gold.PLP.Chemscore.CHOScore>
1.0000

> <Gold.PLP.Chemscore.Metal>
0.0000

> <Gold.Chemscore.Hbonds>
donor molecule, donor type, donor heavy atom, donor atom, acceptor molecule, acceptor atom, score
      L1  H     1    27       P1 10175  1.00
      P1  H  7997  8009       L1    13  0.59
      L1  C    21    43       P1  7957  1.00

> <Gold.PLP.Chemscore.Internal.Correction>
0.5559

> <Gold.Rescore>
     Score         DG    S(hbond)    S(metal)    S(lipo)     H(rot)  DE(clash)    DE(int)     intcor
      9.19     -10.54       1.63        0.00      61.49       2.96       0.34       1.01       ----

> <Gold.Chemscore.Fitness>
9.1942

> <Gold.Chemscore.DG>
-10.5428

> <Gold.Chemscore.ZeroCoef>
-5.4800

> <Gold.Chemscore.Hbond>
1.6339

> <Gold.Chemscore.Metal>
0.0000

> <Gold.Chemscore.Lipo>
61.4887

> <Gold.Chemscore.Internal_Hbond>
0.0000

> <Gold.Chemscore.DEClash>
0.3392

> <Gold.Chemscore.DEInternal>
1.0093

> <Gold.Chemscore.Rot>
2.9643

> <Gold.Chemscore.Internal.Correction>
   9.000000E+99

> <Gold.Chemscore.Hbonds>
donor molecule, donor type, donor heavy atom, donor atom, acceptor molecule, acceptor atom, score
      L1  H     1    27       P1 10175  0.98
      P1  H  7997  8009       L1    13  0.05

> <Gold.Chemscore.Hbond.Weighted>
-5.4572

> <Gold.Chemscore.Metal.Weighted>
-0.0000

> <Gold.Chemscore.Lipo.Weighted>
-7.1942

> <Gold.Chemscore.Internal_Hbond.Weighted>
0.0000

> <Gold.Chemscore.DEClash.Weighted>
0.3392

> <Gold.Chemscore.DEInternal.Weighted>
1.0093

> <Gold.Chemscore.Rot.Weighted>
7.5886

> <Gold.Chemscore.Internal.Correction.Weighted>
   9.000000E+99

> <Gold.Protein.RotatedTorsions>
[ 6907 6896 6895 6894 ] final -125.48 input  -60.11 | X-H torsion
[ 7974 7965 7964 7962 ] final -149.95 input  175.53 | X-H torsion
[ 8008 7997 7996 7995 ] final  140.90 input   59.86 | X-H torsion
[ 10167 10162 10161 10158 ] final   47.25 input  -65.29 | X-H torsion
[ 10718 10713 10712 10709 ] final  -26.48 input   66.30 | X-H torsion
[ 10763 10752 10751 10750 ] final  162.15 input  -60.55 | X-H torsion
[ 11005 11000 10999 10996 ] final   35.80 input  -57.11 | X-H torsion

> <Gold.Protein.ActiveResidues>
 VAL166  LYS551  ARG553  GLY616  TRP617  ASP618  TYR619  PRO620  LYS621  CYS622 
 ASP623  PHE694  ASN695  SER759  ASP760  ASP761  ALA762  ILE779  LEU786  VAL792 
 PHE793  MET794  SER795  GLU796  ALA797  LYS798  CYS799  TRP800  GLU811  SER814 

> <Gold.Protein.RotatedAtoms>
  150.8871  133.7292  159.2914 H   0  0  0  0  0  0  0  0  0  0  0  0  # atno 6907 bound_to 6896
  151.4854  135.1053  159.9799 H   0  0  0  0  0  0  0  0  0  0  0  0  # atno 6908 bound_to 6896
  152.4797  133.8178  159.7093 H   0  0  0  0  0  0  0  0  0  0  0  0  # atno 6909 bound_to 6896
  144.7936  140.4996  143.5755 H   0  0  0  0  0  0  0  0  0  0  0  0  # atno 7974 bound_to 7965
  156.2973  140.2329  156.4476 H   0  0  0  0  0  0  0  0  0  0  0  0  # atno 8008 bound_to 7997
  154.8130  140.0442  157.1377 H   0  0  0  0  0  0  0  0  0  0  0  0  # atno 8009 bound_to 7997
  154.9401  140.3028  155.5128 H   0  0  0  0  0  0  0  0  0  0  0  0  # atno 8010 bound_to 7997
  140.3055  144.2883  150.6210 H   0  0  0  0  0  0  0  0  0  0  0  0  # atno 10167 bound_to 10162
  156.4507  130.4483  149.6992 H   0  0  0  0  0  0  0  0  0  0  0  0  # atno 10718 bound_to 10713
  154.2739  135.2765  155.2726 H   0  0  0  0  0  0  0  0  0  0  0  0  # atno 10763 bound_to 10752
  154.5277  135.5738  153.6736 H   0  0  0  0  0  0  0  0  0  0  0  0  # atno 10764 bound_to 10752
  152.9940  135.6220  154.2895 H   0  0  0  0  0  0  0  0  0  0  0  0  # atno 10765 bound_to 10752
  140.2390  134.3437  155.7933 H   0  0  0  0  0  0  0  0  0  0  0  0  # atno 11005 bound_to 11000
  145.5730  139.1484  143.3278 LP  0  0  0  0  0  0  0  0  0  0  0  0  # atno 17320 bound_to 7965
  146.2197  140.5862  142.9022 LP  0  0  0  0  0  0  0  0  0  0  0  0  # atno 17321 bound_to 7965
  140.5614  143.2192  151.7759 LP  0  0  0  0  0  0  0  0  0  0  0  0  # atno 17342 bound_to 10162
  139.4905  144.4344  151.9836 LP  0  0  0  0  0  0  0  0  0  0  0  0  # atno 17343 bound_to 10162
  156.3819  130.7583  151.2577 LP  0  0  0  0  0  0  0  0  0  0  0  0  # atno 17370 bound_to 10713
  157.7503  131.0293  150.4087 LP  0  0  0  0  0  0  0  0  0  0  0  0  # atno 17371 bound_to 10713
  141.2212  133.7288  156.8855 LP  0  0  0  0  0  0  0  0  0  0  0  0  # atno 17394 bound_to 11000
  140.1672  134.9125  157.2789 LP  0  0  0  0  0  0  0  0  0  0  0  0  # atno 17395 bound_to 11000

$$$$
