AV-unprocessed.smi:271|AV-procd|sdf|2051|dock3
  -GOLD-   2262021283D 1   1.00000     0.00000
 Structure written by MMmdl.
 58 60  0  0  0  0  0  0  0  0  1 V2000
  152.3093  143.6259  160.1458 C   0  0  0  0  0  0  0  0  0  0  0  0
  152.4316  142.4122  161.0794 C   0  0  0  0  0  0  0  0  0  0  0  0
  152.8168  142.8677  162.4974 C   0  0  0  0  0  0  0  0  0  0  0  0
  153.4293  141.3851  160.5102 C   0  0  0  0  0  0  0  0  0  0  0  0
  152.7633  140.2702  159.6735 C   0  0  0  0  0  0  0  0  0  0  0  0
  153.5925  139.7842  158.5689 N   0  0  0  0  0  0  0  0  0  0  0  0
  152.8501  139.3409  157.3915 C   0  0  0  0  0  0  0  0  0  0  0  0
  152.0268  140.4597  156.7338 C   0  0  0  0  0  0  0  0  0  0  0  0
  151.5549  140.0905  155.3913 C   0  0  0  0  0  0  0  0  0  0  0  0
  151.1836  139.8005  154.3345 N   0  0  0  0  0  0  0  0  0  0  0  0
  154.5441  138.9019  158.9507 C   0  0  0  0  0  0  0  0  0  0  0  0
  155.6751  138.8481  158.2049 N   0  0  0  0  0  0  0  0  0  0  0  0
  156.6745  138.0379  158.5664 C   0  0  0  0  0  0  0  0  0  0  0  0
  156.7510  137.2261  159.6233 N   0  0  0  0  0  0  0  0  0  0  0  0
  155.6106  137.2748  160.3698 C   0  0  0  0  0  0  0  0  0  0  0  0
  154.4590  138.0643  160.0985 C   0  0  0  0  0  0  0  0  0  0  0  0
  153.4886  137.8380  161.0672 N   0  0  0  0  0  0  0  0  0  0  0  0
  154.0445  136.9822  161.8801 C   0  0  0  0  0  0  0  0  0  0  0  0
  155.3322  136.6184  161.5554 N   0  0  0  0  0  0  0  0  0  0  0  0
  156.1945  135.7210  162.3015 C   0  0  0  0  0  0  0  0  0  0  0  0
  155.8206  134.2195  162.1729 C   0  0  2  0  0  0  0  0  0  0  0  0
  155.5154  133.8973  160.6916 C   0  0  0  0  0  0  0  0  0  0  0  0
  156.6363  134.1317  159.8629 O   0  0  0  0  0  0  0  0  0  0  0  0
  154.6913  133.7452  163.1372 C   0  0  1  0  0  0  0  0  0  0  0  0
  154.5640  132.2353  163.2736 C   0  0  0  0  0  0  0  0  0  0  0  0
  153.7594  132.0938  164.5569 C   0  0  0  0  0  0  0  0  0  0  0  0
  154.2750  133.1073  165.4048 O   0  0  0  0  0  0  0  0  0  0  0  0
  154.8548  134.1423  164.6159 C   0  0  0  0  0  0  0  0  0  0  0  0
  153.2621  144.1470  160.0464 H   0  0  0  0  0  0  0  0  0  0  0  0
  151.5773  144.3406  160.5232 H   0  0  0  0  0  0  0  0  0  0  0  0
  151.9882  143.3255  159.1479 H   0  0  0  0  0  0  0  0  0  0  0  0
  151.4490  141.9413  161.1293 H   0  0  0  0  0  0  0  0  0  0  0  0
  153.8094  143.3190  162.5127 H   0  0  0  0  0  0  0  0  0  0  0  0
  152.8181  142.0374  163.2027 H   0  0  0  0  0  0  0  0  0  0  0  0
  152.1116  143.6082  162.8756 H   0  0  0  0  0  0  0  0  0  0  0  0
  154.1536  141.8985  159.8764 H   0  0  0  0  0  0  0  0  0  0  0  0
  153.9997  140.9630  161.3387 H   0  0  0  0  0  0  0  0  0  0  0  0
  152.4809  139.4302  160.3066 H   0  0  0  0  0  0  0  0  0  0  0  0
  151.8328  140.6559  159.2555 H   0  0  0  0  0  0  0  0  0  0  0  0
  153.5395  138.9095  156.6644 H   0  0  0  0  0  0  0  0  0  0  0  0
  152.1767  138.5371  157.6913 H   0  0  0  0  0  0  0  0  0  0  0  0
  151.1520  140.6958  157.3403 H   0  0  0  0  0  0  0  0  0  0  0  0
  152.6117  141.3739  156.6330 H   0  0  0  0  0  0  0  0  0  0  0  0
  157.5420  138.0508  157.9232 H   0  0  0  0  0  0  0  0  0  0  0  0
  153.5371  136.6131  162.7596 H   0  0  0  0  0  0  0  0  0  0  0  0
  157.2216  135.8819  161.9720 H   0  0  0  0  0  0  0  0  0  0  0  0
  156.1564  136.0274  163.3475 H   0  0  0  0  0  0  0  0  0  0  0  0
  156.7120  133.6414  162.4188 H   0  0  0  0  0  0  0  0  0  0  0  0
  155.2161  132.8543  160.5844 H   0  0  0  0  0  0  0  0  0  0  0  0
  154.6771  134.4893  160.3246 H   0  0  0  0  0  0  0  0  0  0  0  0
  156.5843  135.0142  159.5290 H   0  0  0  0  0  0  0  0  0  0  0  0
  153.7333  134.1284  162.7815 H   0  0  0  0  0  0  0  0  0  0  0  0
  154.0707  131.7657  162.4220 H   0  0  0  0  0  0  0  0  0  0  0  0
  155.5461  131.7766  163.3984 H   0  0  0  0  0  0  0  0  0  0  0  0
  152.7024  132.2888  164.3708 H   0  0  0  0  0  0  0  0  0  0  0  0
  153.8520  131.1062  165.0089 H   0  0  0  0  0  0  0  0  0  0  0  0
  155.9060  134.2240  164.8937 H   0  0  0  0  0  0  0  0  0  0  0  0
  154.3705  135.0912  164.8422 H   0  0  0  0  0  0  0  0  0  0  0  0
  1  2  1  0  0  0  0
  1 29  1  0  0  0  0
  1 30  1  0  0  0  0
  1 31  1  0  0  0  0
  2  3  1  0  0  0  0
  2  4  1  0  0  0  0
  2 32  1  0  0  0  0
  3 33  1  0  0  0  0
  3 34  1  0  0  0  0
  3 35  1  0  0  0  0
  4  5  1  0  0  0  0
  4 36  1  0  0  0  0
  4 37  1  0  0  0  0
  5  6  1  0  0  0  0
  5 38  1  0  0  0  0
  5 39  1  0  0  0  0
  6  7  1  0  0  0  0
  6 11  1  0  0  0  0
  7  8  1  0  0  0  0
  7 40  1  0  0  0  0
  7 41  1  0  0  0  0
  8  9  1  0  0  0  0
  8 42  1  0  0  0  0
  8 43  1  0  0  0  0
  9 10  3  0  0  0  0
 11 16  1  0  0  0  0
 11 12  2  0  0  0  0
 12 13  1  0  0  0  0
 13 14  2  0  0  0  0
 13 44  1  0  0  0  0
 14 15  1  0  0  0  0
 15 19  1  0  0  0  0
 15 16  2  0  0  0  0
 16 17  1  0  0  0  0
 17 18  2  0  0  0  0
 18 19  1  0  0  0  0
 18 45  1  0  0  0  0
 19 20  1  0  0  0  0
 20 21  1  0  0  0  0
 20 46  1  0  0  0  0
 20 47  1  0  0  0  0
 21 22  1  0  0  0  0
 21 24  1  0  0  0  0
 21 48  1  0  0  0  0
 22 23  1  0  0  0  0
 22 49  1  0  0  0  0
 22 50  1  0  0  0  0
 23 51  1  0  0  0  0
 24 28  1  0  0  0  0
 24 25  1  0  0  0  0
 24 52  1  0  0  0  0
 25 26  1  0  0  0  0
 25 53  1  0  0  0  0
 25 54  1  0  0  0  0
 26 27  1  0  0  0  0
 26 55  1  0  0  0  0
 26 56  1  0  0  0  0
 27 28  1  0  0  0  0
 28 57  1  0  0  0  0
 28 58  1  0  0  0  0
M  END
> <s_m_source_file>
AV-unprocessed.smi

> <i_m_source_file_index>
271

> <i_lp_mmshare_version>
43012

> <i_f3d_flags>
0

> <s_epik_input>
W0NIM11bQ0hdKFtDSDNdKVtDSDJdW0NIMl1OKFtDSDJdW0NIMl1DI04pYyhuW2NIXW4xKWMoYzEyKW5bY0hdbjJbQ0gyXVtDQEhdKFtDSDJdW09IXSlbQ0BASF0zW0NIMl1bQ0gyXU9bQ0gyXTM=

> <s_epik_cmdline>
J2VwaWtfcHl0aG9uJywgJy1waCcsICc3LjAnLCAnLXRuJywgJzgnLCAnLW1hJywgJzIwMCcsICctbWV0YWxfYmluZGluZycsICctaW1hZScsICc8aW5maWxlLm1hZT4nLCAnLW9tYWUnLCAnPG91dGZpbGUubWFlPic=

> <r_lp_tautomer_probability>
1

> <r_epik_Ionization_Penalty>
0.000825874

> <r_epik_Ionization_Penalty_Charging>
0

> <r_epik_Ionization_Penalty_Neutral>
0.000825874

> <r_epik_State_Penalty>
0.000396768

> <r_epik_Charging_Adjusted_Penalty>
0.000396768

> <i_epik_Tot_Q>
0

> <i_epik_Tot_abs_Q>
0

> <r_epik_Metal_State_Penalty>
-0

> <b_epik_Metal_Only>
0

> <s_lp_Force_Field>
OPLS_2005

> <r_lp_Energy>
35.9661

> <b_lp_Chiralities_Consistent>
1

> <s_lp_Variant>
AV-unprocessed.smi:271-3

> <Gold.Version>
5.8.1

> <Gold.Id.Protein>
6NUR|6NUR_protein|mol2

> <Gold.PLP.Fitness>
46.9655

> <Gold.PLP.PLP>
-44.4839

> <Gold.PLP.part.hbond>
-2.8524

> <Gold.PLP.part.metal>
0.0000

> <Gold.PLP.part.buried>
-3.2129

> <Gold.PLP.part.nonpolar>
-37.3846

> <Gold.PLP.part.repulsive>
0.2086

> <Gold.PLP.ligand.clash>
0.0000

> <Gold.PLP.ligand.torsion>
2.1443

> <Gold.PLP.Chemscore.Hbond>
1.9760

> <Gold.PLP.Chemscore.CHOScore>
0.0000

> <Gold.PLP.Chemscore.Metal>
0.0000

> <Gold.Chemscore.Hbonds>
donor molecule, donor type, donor heavy atom, donor atom, acceptor molecule, acceptor atom, score
      P1  H  7989  7998       L1    10  0.73
      P1  H  7997  8009       L1    12  0.66

> <Gold.PLP.Chemscore.Internal.Correction>
0.8422

> <Gold.Rescore>
     Score         DG    S(hbond)    S(metal)    S(lipo)     H(rot)  DE(clash)    DE(int)     intcor
     11.36     -14.60       1.89        0.00     106.53       3.77       0.14       3.09       ----

> <Gold.Chemscore.Fitness>
11.3642

> <Gold.Chemscore.DG>
-14.5966

> <Gold.Chemscore.ZeroCoef>
-5.4800

> <Gold.Chemscore.Hbond>
1.8862

> <Gold.Chemscore.Metal>
0.0000

> <Gold.Chemscore.Lipo>
106.5252

> <Gold.Chemscore.Internal_Hbond>
0.0000

> <Gold.Chemscore.DEClash>
0.1409

> <Gold.Chemscore.DEInternal>
3.0916

> <Gold.Chemscore.Rot>
3.7683

> <Gold.Chemscore.Internal.Correction>
   9.000000E+99

> <Gold.Chemscore.Hbonds>
donor molecule, donor type, donor heavy atom, donor atom, acceptor molecule, acceptor atom, score
      P1  H  7989  7998       L1    10  0.36
      P1  H  7997  8009       L1    12  0.09

> <Gold.Chemscore.Hbond.Weighted>
-6.3000

> <Gold.Chemscore.Metal.Weighted>
-0.0000

> <Gold.Chemscore.Lipo.Weighted>
-12.4635

> <Gold.Chemscore.Internal_Hbond.Weighted>
0.0000

> <Gold.Chemscore.DEClash.Weighted>
0.1409

> <Gold.Chemscore.DEInternal.Weighted>
3.0916

> <Gold.Chemscore.Rot.Weighted>
9.6468

> <Gold.Chemscore.Internal.Correction.Weighted>
   9.000000E+99

> <Gold.Protein.RotatedTorsions>
[ 6907 6896 6895 6894 ] final   67.86 input  -60.11 | X-H torsion
[ 7974 7965 7964 7962 ] final   74.10 input  175.53 | X-H torsion
[ 8008 7997 7996 7995 ] final  106.97 input   59.86 | X-H torsion
[ 10167 10162 10161 10158 ] final  -57.96 input  -65.29 | X-H torsion
[ 10718 10713 10712 10709 ] final   23.67 input   66.30 | X-H torsion
[ 10763 10752 10751 10750 ] final -104.57 input  -60.55 | X-H torsion
[ 11005 11000 10999 10996 ] final  -20.09 input  -57.11 | X-H torsion

> <Gold.Protein.ActiveResidues>
 VAL166  LYS551  ARG553  GLY616  TRP617  ASP618  TYR619  PRO620  LYS621  CYS622 
 ASP623  PHE694  ASN695  SER759  ASP760  ASP761  ALA762  ILE779  LEU786  VAL792 
 PHE793  MET794  SER795  GLU796  ALA797  LYS798  CYS799  TRP800  GLU811  SER814 

> <Gold.Protein.RotatedAtoms>
  152.4581  134.5246  159.9792 H   0  0  0  0  0  0  0  0  0  0  0  0  # atno 6907 bound_to 6896
  151.5302  133.3444  159.2924 H   0  0  0  0  0  0  0  0  0  0  0  0  # atno 6908 bound_to 6896
  150.8533  134.7894  159.7088 H   0  0  0  0  0  0  0  0  0  0  0  0  # atno 6909 bound_to 6896
  145.7325  139.2689  143.1533 H   0  0  0  0  0  0  0  0  0  0  0  0  # atno 7974 bound_to 7965
  156.1786  140.3103  155.9107 H   0  0  0  0  0  0  0  0  0  0  0  0  # atno 8008 bound_to 7997
  155.3432  140.0467  157.3062 H   0  0  0  0  0  0  0  0  0  0  0  0  # atno 8009 bound_to 7997
  154.5318  140.2233  155.8801 H   0  0  0  0  0  0  0  0  0  0  0  0  # atno 8010 bound_to 7997
  140.6226  143.2425  151.5442 H   0  0  0  0  0  0  0  0  0  0  0  0  # atno 10167 bound_to 10162
  157.1692  130.6752  149.6072 H   0  0  0  0  0  0  0  0  0  0  0  0  # atno 10718 bound_to 10713
  154.7887  135.4781  154.0003 H   0  0  0  0  0  0  0  0  0  0  0  0  # atno 10763 bound_to 10752
  153.1598  135.6806  153.8766 H   0  0  0  0  0  0  0  0  0  0  0  0  # atno 10764 bound_to 10752
  153.8383  135.3182  155.3402 H   0  0  0  0  0  0  0  0  0  0  0  0  # atno 10765 bound_to 10752
  140.8431  133.7912  155.9882 H   0  0  0  0  0  0  0  0  0  0  0  0  # atno 11005 bound_to 11000
  146.0524  140.8055  142.9775 LP  0  0  0  0  0  0  0  0  0  0  0  0  # atno 17320 bound_to 7965
  144.6889  140.3073  143.7254 LP  0  0  0  0  0  0  0  0  0  0  0  0  # atno 17321 bound_to 7965
  139.5452  144.2540  152.1428 LP  0  0  0  0  0  0  0  0  0  0  0  0  # atno 17342 bound_to 10162
  140.1764  144.4886  150.6552 LP  0  0  0  0  0  0  0  0  0  0  0  0  # atno 17343 bound_to 10162
  155.9741  130.4685  150.6361 LP  0  0  0  0  0  0  0  0  0  0  0  0  # atno 17370 bound_to 10713
  157.4059  131.0816  151.1266 LP  0  0  0  0  0  0  0  0  0  0  0  0  # atno 17371 bound_to 10713
  140.8874  134.2538  157.5113 LP  0  0  0  0  0  0  0  0  0  0  0  0  # atno 17394 bound_to 11000
  139.8703  134.9644  156.4496 LP  0  0  0  0  0  0  0  0  0  0  0  0  # atno 17395 bound_to 11000

$$$$
