AV-unprocessed.smi:1661|AV-procd|sdf|6656|dock1
  -GOLD-   22720 7363D 1   1.00000     0.00000
 Structure written by MMmdl.
 37 38  0  0  0  0  0  0  0  0  3 V2000
  143.9510  133.1420  150.8462 C   0  0  0  0  0  0  0  0  0  0  0  0
  145.3171  133.7564  150.4936 C   0  0  2  0  0  0  0  0  0  0  0  0
  146.4957  132.9837  151.1127 C   0  0  0  0  0  0  0  0  0  0  0  0
  146.6218  133.2275  152.6273 C   0  0  0  0  0  0  0  0  0  0  0  0
  146.7307  134.6773  152.9342 N   0  3  2  0  0  0  0  0  0  0  0  0
  146.9839  134.9260  154.3753 C   0  0  0  0  0  0  0  0  0  0  0  0
  148.3715  134.4278  154.8211 C   0  0  0  0  0  0  0  0  0  0  0  0
  149.4175  135.3736  154.4514 N   0  0  0  0  0  0  0  0  0  0  0  0
  150.5429  135.6042  155.1424 C   0  0  0  0  0  0  0  0  0  0  0  0
  150.7618  134.9829  156.1849 O   0  0  0  0  0  0  0  0  0  0  0  0
  151.3398  136.5434  154.5857 N   0  5  0  0  0  0  0  0  0  0  0  0
  150.9777  137.8366  154.6194 C   0  0  0  0  0  0  0  0  0  0  0  0
  151.8672  138.8270  154.7946 N   0  0  0  0  0  0  0  0  0  0  0  0
  151.2874  140.0885  154.7933 N   0  0  0  0  0  0  0  0  0  0  0  0
  149.9694  140.0170  154.6083 C   0  0  0  0  0  0  0  0  0  0  0  0
  149.3177  138.4031  154.4162 S   0  0  0  0  0  0  0  0  0  0  0  0
  145.5685  135.4379  152.4032 C   0  0  0  0  0  0  0  0  0  0  0  0
  145.4196  135.2419  150.8837 C   0  0  0  0  0  0  0  0  0  0  0  0
  143.7563  133.1573  151.9181 H   0  0  0  0  0  0  0  0  0  0  0  0
  143.8932  132.1045  150.5159 H   0  0  0  0  0  0  0  0  0  0  0  0
  143.1418  133.6849  150.3569 H   0  0  0  0  0  0  0  0  0  0  0  0
  145.4132  133.6921  149.4091 H   0  0  0  0  0  0  0  0  0  0  0  0
  146.3957  131.9164  150.9119 H   0  0  0  0  0  0  0  0  0  0  0  0
  147.4214  133.2961  150.6275 H   0  0  0  0  0  0  0  0  0  0  0  0
  145.7682  132.8033  153.1577 H   0  0  0  0  0  0  0  0  0  0  0  0
  147.5078  132.7081  152.9941 H   0  0  0  0  0  0  0  0  0  0  0  0
  146.8625  135.9876  154.5967 H   0  0  0  0  0  0  0  0  0  0  0  0
  146.2272  134.4032  154.9619 H   0  0  0  0  0  0  0  0  0  0  0  0
  148.3903  134.2523  155.8980 H   0  0  0  0  0  0  0  0  0  0  0  0
  148.6160  133.4780  154.3478 H   0  0  0  0  0  0  0  0  0  0  0  0
  149.2811  135.8998  153.6005 H   0  0  0  0  0  0  0  0  0  0  0  0
  149.3778  140.9197  154.5812 H   0  0  0  0  0  0  0  0  0  0  0  0
  144.6596  135.1255  152.9190 H   0  0  0  0  0  0  0  0  0  0  0  0
  145.6893  136.5014  152.6053 H   0  0  0  0  0  0  0  0  0  0  0  0
  146.2834  135.6835  150.3847 H   0  0  0  0  0  0  0  0  0  0  0  0
  144.5491  135.7887  150.5195 H   0  0  0  0  0  0  0  0  0  0  0  0
  147.5495  135.0059  152.4427 H   0  0  0  0  0  0  0  0  0  0  0  0
  1  2  1  0  0  0  0
  1 19  1  0  0  0  0
  1 20  1  0  0  0  0
  1 21  1  0  0  0  0
  2 18  1  0  0  0  0
  2  3  1  0  0  0  0
  2 22  1  0  0  0  0
  3  4  1  0  0  0  0
  3 23  1  0  0  0  0
  3 24  1  0  0  0  0
  4  5  1  0  0  0  0
  4 25  1  0  0  0  0
  4 26  1  0  0  0  0
  5  6  1  0  0  0  0
  5 17  1  0  0  0  0
  5 37  1  0  0  0  0
  6  7  1  0  0  0  0
  6 27  1  0  0  0  0
  6 28  1  0  0  0  0
  7  8  1  0  0  0  0
  7 29  1  0  0  0  0
  7 30  1  0  0  0  0
  8  9  1  0  0  0  0
  8 31  1  0  0  0  0
  9 10  2  0  0  0  0
  9 11  1  0  0  0  0
 11 12  1  0  0  0  0
 12 16  1  0  0  0  0
 12 13  2  0  0  0  0
 13 14  1  0  0  0  0
 14 15  2  0  0  0  0
 15 16  1  0  0  0  0
 15 32  1  0  0  0  0
 17 18  1  0  0  0  0
 17 33  1  0  0  0  0
 17 34  1  0  0  0  0
 18 35  1  0  0  0  0
 18 36  1  0  0  0  0
M  CHG  1   5   1
M  CHG  1  11  -1
M  END
> <s_m_source_file>
AV-unprocessed.smi

> <i_m_source_file_index>
1661

> <i_lp_mmshare_version>
43012

> <i_f3d_flags>
0

> <s_epik_input>
W0NIM11bQ0hdMVtDSDJdW0NIMl1OKFtDSDJdW0NIMl0xKVtDSDJdW0NIMl1bTkhdQyg9TylbTkhdYzJubltjSF1zMg==

> <s_epik_cmdline>
J2VwaWtfcHl0aG9uJywgJy1waCcsICc3LjAnLCAnLXRuJywgJzgnLCAnLW1hJywgJzIwMCcsICctbWV0YWxfYmluZGluZycsICctaW1hZScsICc8aW5maWxlLm1hZT4nLCAnLW9tYWUnLCAnPG91dGZpbGUubWFlPic=

> <r_lp_tautomer_probability>
1

> <r_epik_Ionization_Penalty>
3.04466

> <r_epik_Ionization_Penalty_Charging>
3.01305

> <r_epik_Ionization_Penalty_Neutral>
0.0316037

> <r_epik_State_Penalty>
3.00821

> <r_epik_Charging_Adjusted_Penalty>
6.02127

> <i_epik_Tot_Q>
0

> <i_epik_Tot_abs_Q>
2

> <r_epik_Metal_State_Penalty>
0.454395

> <b_epik_Metal_Only>
1

> <s_lp_Force_Field>
OPLS_2005

> <r_lp_Energy>
9.834

> <b_lp_Chiralities_Consistent>
1

> <s_lp_Variant>
AV-unprocessed.smi:1661-4

> <Gold.Version>
5.8.1

> <Gold.Id.Protein>
6NUR|6NUR_protein|mol2

> <Gold.PLP.Fitness>
45.6306

> <Gold.PLP.PLP>
-30.1094

> <Gold.PLP.part.hbond>
-4.4140

> <Gold.PLP.part.metal>
0.0000

> <Gold.PLP.part.buried>
-4.2014

> <Gold.PLP.part.nonpolar>
-21.9736

> <Gold.PLP.part.repulsive>
0.5408

> <Gold.PLP.ligand.clash>
0.0000

> <Gold.PLP.ligand.torsion>
1.3000

> <Gold.PLP.Chemscore.Hbond>
6.0000

> <Gold.PLP.Chemscore.CHOScore>
0.0000

> <Gold.PLP.Chemscore.Metal>
0.0000

> <Gold.Chemscore.Hbonds>
donor molecule, donor type, donor heavy atom, donor atom, acceptor molecule, acceptor atom, score
      L1  H     5    37       P1  7948  2.00
      L1  H     8    31       P1  7948  1.00
      P1  H  7989  7998       L1    14  0.90
      P1  H 10752 10764       L1    11  2.00

> <Gold.PLP.Chemscore.Internal.Correction>
0.1213

> <Gold.Rescore>
     Score         DG    S(hbond)    S(metal)    S(lipo)     H(rot)  DE(clash)    DE(int)     intcor
     16.34     -18.68       3.33        0.00      54.48       1.68       0.04       2.30       ----

> <Gold.Chemscore.Fitness>
16.3434

> <Gold.Chemscore.DG>
-18.6810

> <Gold.Chemscore.ZeroCoef>
-5.4800

> <Gold.Chemscore.Hbond>
3.3297

> <Gold.Chemscore.Metal>
0.0000

> <Gold.Chemscore.Lipo>
54.4844

> <Gold.Chemscore.Internal_Hbond>
0.0000

> <Gold.Chemscore.DEClash>
0.0392

> <Gold.Chemscore.DEInternal>
2.2984

> <Gold.Chemscore.Rot>
1.6777

> <Gold.Chemscore.Internal.Correction>
   9.000000E+99

> <Gold.Chemscore.Hbonds>
donor molecule, donor type, donor heavy atom, donor atom, acceptor molecule, acceptor atom, score
      L1  H     5    37       P1  7948  0.97
      L1  H     8    31       P1  7948  0.69
      P1  H  7989  7998       L1    14  0.13
      P1  H 10752 10764       L1    11  0.57

> <Gold.Chemscore.Hbond.Weighted>
-11.1213

> <Gold.Chemscore.Metal.Weighted>
-0.0000

> <Gold.Chemscore.Lipo.Weighted>
-6.3747

> <Gold.Chemscore.Internal_Hbond.Weighted>
0.0000

> <Gold.Chemscore.DEClash.Weighted>
0.0392

> <Gold.Chemscore.DEInternal.Weighted>
2.2984

> <Gold.Chemscore.Rot.Weighted>
4.2950

> <Gold.Chemscore.Internal.Correction.Weighted>
   9.000000E+99

> <Gold.Protein.RotatedTorsions>
[ 6907 6896 6895 6894 ] final -113.41 input  -60.11 | X-H torsion
[ 7974 7965 7964 7962 ] final -133.97 input  175.53 | X-H torsion
[ 8008 7997 7996 7995 ] final -133.60 input   59.86 | X-H torsion
[ 10167 10162 10161 10158 ] final -159.66 input  -65.29 | X-H torsion
[ 10718 10713 10712 10709 ] final  147.48 input   66.30 | X-H torsion
[ 10763 10752 10751 10750 ] final  -89.98 input  -60.55 | X-H torsion
[ 11005 11000 10999 10996 ] final  176.15 input  -57.11 | X-H torsion

> <Gold.Protein.ActiveResidues>
 VAL166  LYS551  ARG553  GLY616  TRP617  ASP618  TYR619  PRO620  LYS621  CYS622 
 ASP623  PHE694  ASN695  SER759  ASP760  ASP761  ALA762  ILE779  LEU786  VAL792 
 PHE793  MET794  SER795  GLU796  ALA797  LYS798  CYS799  TRP800  GLU811  SER814 

> <Gold.Protein.RotatedAtoms>
  150.7827  133.8948  159.3323 H   0  0  0  0  0  0  0  0  0  0  0  0  # atno 6907 bound_to 6896
  151.6807  135.0960  160.0225 H   0  0  0  0  0  0  0  0  0  0  0  0  # atno 6908 bound_to 6896
  152.3883  133.6604  159.6252 H   0  0  0  0  0  0  0  0  0  0  0  0  # atno 6909 bound_to 6896
  144.9145  140.6937  143.5004 H   0  0  0  0  0  0  0  0  0  0  0  0  # atno 7974 bound_to 7965
  155.3482  140.0476  157.3046 H   0  0  0  0  0  0  0  0  0  0  0  0  # atno 8008 bound_to 7997
  154.5241  140.2235  155.8886 H   0  0  0  0  0  0  0  0  0  0  0  0  # atno 8009 bound_to 7997
  156.1721  140.3093  155.8998 H   0  0  0  0  0  0  0  0  0  0  0  0  # atno 8010 bound_to 7997
  139.6598  143.9933  152.2218 H   0  0  0  0  0  0  0  0  0  0  0  0  # atno 10167 bound_to 10162
  157.3205  131.0903  151.1244 H   0  0  0  0  0  0  0  0  0  0  0  0  # atno 10718 bound_to 10713
  154.6610  135.5321  153.8017 H   0  0  0  0  0  0  0  0  0  0  0  0  # atno 10763 bound_to 10752
  153.0442  135.6505  154.0872 H   0  0  0  0  0  0  0  0  0  0  0  0  # atno 10764 bound_to 10752
  154.0781  135.2949  155.3275 H   0  0  0  0  0  0  0  0  0  0  0  0  # atno 10765 bound_to 10752
  140.3700  134.7038  157.4386 H   0  0  0  0  0  0  0  0  0  0  0  0  # atno 11005 bound_to 11000
  145.3399  139.1735  143.4491 LP  0  0  0  0  0  0  0  0  0  0  0  0  # atno 17320 bound_to 7965
  146.3175  140.3438  142.8650 LP  0  0  0  0  0  0  0  0  0  0  0  0  # atno 17321 bound_to 7965
  139.9669  144.6520  150.8026 LP  0  0  0  0  0  0  0  0  0  0  0  0  # atno 17342 bound_to 10162
  140.7575  143.3088  151.2896 LP  0  0  0  0  0  0  0  0  0  0  0  0  # atno 17343 bound_to 10162
  157.2531  130.6623  149.5940 LP  0  0  0  0  0  0  0  0  0  0  0  0  # atno 17370 bound_to 10713
  155.9685  130.4532  150.5803 LP  0  0  0  0  0  0  0  0  0  0  0  0  # atno 17371 bound_to 10713
  140.0559  134.6064  155.8805 LP  0  0  0  0  0  0  0  0  0  0  0  0  # atno 17394 bound_to 11000
  141.1957  133.6588  156.5658 LP  0  0  0  0  0  0  0  0  0  0  0  0  # atno 17395 bound_to 11000

$$$$
