AV-unprocessed.smi:818|AV-procd|sdf|3833|dock3
  -GOLD-   22720 1273D 1   1.00000     0.00000
 Structure written by MMmdl.
 44 45  0  0  0  0  0  0  0  0  1 V2000
  151.1555  145.1869  160.6191 C   0  0  0  0  0  0  0  0  0  0  0  0
  151.2677  144.3566  159.3349 C   0  0  0  0  0  0  0  0  0  0  0  0
  151.6496  142.9866  159.6152 N   0  0  0  0  0  0  0  0  0  0  0  0
  152.7884  142.5305  160.2487 C   0  0  0  0  0  0  0  0  0  0  0  0
  152.6875  141.1719  160.2613 C   0  0  0  0  0  0  0  0  0  0  0  0
  153.6533  140.2941  160.8129 N   0  0  0  0  0  0  0  0  0  0  0  0
  154.4378  140.5158  161.8797 C   0  0  0  0  0  0  0  0  0  0  0  0
  154.4697  141.5594  162.5321 O   0  0  0  0  0  0  0  0  0  0  0  0
  155.1996  139.4464  162.1526 N   0  0  0  0  0  0  0  0  0  0  0  0
  156.1782  139.3597  163.2357 C   0  0  1  0  0  0  0  0  0  0  0  0
  157.1802  138.2493  162.8781 C   0  0  0  0  0  0  0  0  0  0  0  0
  156.9621  140.6752  163.3743 C   0  0  0  0  0  0  0  0  0  0  0  0
  157.6141  141.1243  162.4299 O   0  0  0  0  0  0  0  0  0  0  0  0
  156.9014  141.2719  164.5746 N   0  0  0  0  0  0  0  0  0  0  0  0
  157.5835  142.5116  164.9360 C   0  0  0  0  0  0  0  0  0  0  0  0
  157.2532  142.9145  166.3861 C   0  0  0  0  0  0  0  0  0  0  0  0
  156.8624  144.3929  166.3377 C   0  0  0  0  0  0  0  0  0  0  0  0
  156.2688  144.5815  164.9453 C   0  0  0  0  0  0  0  0  0  0  0  0
  157.1248  143.6858  164.0488 C   0  0  0  0  0  0  0  0  0  0  0  0
  151.4567  140.8673  159.6135 C   0  0  0  0  0  0  0  0  0  0  0  0
  150.8379  141.9727  159.2261 N   0  0  0  0  0  0  0  0  0  0  0  0
  150.8655  146.2130  160.3927 H   0  0  0  0  0  0  0  0  0  0  0  0
  152.1061  145.2205  161.1523 H   0  0  0  0  0  0  0  0  0  0  0  0
  150.4070  144.7700  161.2936 H   0  0  0  0  0  0  0  0  0  0  0  0
  150.3147  144.3513  158.8049 H   0  0  0  0  0  0  0  0  0  0  0  0
  152.0029  144.7974  158.6599 H   0  0  0  0  0  0  0  0  0  0  0  0
  153.5515  143.1970  160.6233 H   0  0  0  0  0  0  0  0  0  0  0  0
  153.7482  139.3993  160.3555 H   0  0  0  0  0  0  0  0  0  0  0  0
  155.1122  138.6364  161.5566 H   0  0  0  0  0  0  0  0  0  0  0  0
  155.6791  139.1172  164.1762 H   0  0  0  0  0  0  0  0  0  0  0  0
  157.9329  138.1276  163.6580 H   0  0  0  0  0  0  0  0  0  0  0  0
  157.7009  138.4573  161.9421 H   0  0  0  0  0  0  0  0  0  0  0  0
  156.6738  137.2899  162.7666 H   0  0  0  0  0  0  0  0  0  0  0  0
  156.3427  140.8339  165.2927 H   0  0  0  0  0  0  0  0  0  0  0  0
  158.6628  142.3808  164.8358 H   0  0  0  0  0  0  0  0  0  0  0  0
  156.4077  142.3368  166.7639 H   0  0  0  0  0  0  0  0  0  0  0  0
  158.0897  142.7366  167.0629 H   0  0  0  0  0  0  0  0  0  0  0  0
  156.1693  144.6703  167.1322 H   0  0  0  0  0  0  0  0  0  0  0  0
  157.7538  145.0126  166.4424 H   0  0  0  0  0  0  0  0  0  0  0  0
  155.2352  144.2322  164.9356 H   0  0  0  0  0  0  0  0  0  0  0  0
  156.2724  145.6235  164.6243 H   0  0  0  0  0  0  0  0  0  0  0  0
  158.0004  144.2444  163.7151 H   0  0  0  0  0  0  0  0  0  0  0  0
  156.5872  143.3712  163.1530 H   0  0  0  0  0  0  0  0  0  0  0  0
  150.9974  139.9121  159.4083 H   0  0  0  0  0  0  0  0  0  0  0  0
  1  2  1  0  0  0  0
  1 22  1  0  0  0  0
  1 23  1  0  0  0  0
  1 24  1  0  0  0  0
  2  3  1  0  0  0  0
  2 25  1  0  0  0  0
  2 26  1  0  0  0  0
  3 21  1  0  0  0  0
  3  4  1  0  0  0  0
  4  5  2  0  0  0  0
  4 27  1  0  0  0  0
  5  6  1  0  0  0  0
  5 20  1  0  0  0  0
  6  7  1  0  0  0  0
  6 28  1  0  0  0  0
  7  8  2  0  0  0  0
  7  9  1  0  0  0  0
  9 10  1  0  0  0  0
  9 29  1  0  0  0  0
 10 11  1  0  0  0  0
 10 12  1  0  0  0  0
 10 30  1  0  0  0  0
 11 31  1  0  0  0  0
 11 32  1  0  0  0  0
 11 33  1  0  0  0  0
 12 13  2  0  0  0  0
 12 14  1  0  0  0  0
 14 15  1  0  0  0  0
 14 34  1  0  0  0  0
 15 19  1  0  0  0  0
 15 16  1  0  0  0  0
 15 35  1  0  0  0  0
 16 17  1  0  0  0  0
 16 36  1  0  0  0  0
 16 37  1  0  0  0  0
 17 18  1  0  0  0  0
 17 38  1  0  0  0  0
 17 39  1  0  0  0  0
 18 19  1  0  0  0  0
 18 40  1  0  0  0  0
 18 41  1  0  0  0  0
 19 42  1  0  0  0  0
 19 43  1  0  0  0  0
 20 21  2  0  0  0  0
 20 44  1  0  0  0  0
M  END
> <s_m_source_file>
AV-unprocessed.smi

> <i_m_source_file_index>
818

> <i_lp_mmshare_version>
43012

> <i_f3d_flags>
0

> <s_epik_input>
W0NIM11bQ0gyXW4xW2NIXWMoW2NIXW4xKVtOSF1DKD1PKVtOSF1bQ0BIXShbQ0gzXSlDKD1PKVtOSF1bQ0hdMltDSDJdW0NIMl1bQ0gyXVtDSDJdMg==

> <s_epik_cmdline>
J2VwaWtfcHl0aG9uJywgJy1waCcsICc3LjAnLCAnLXRuJywgJzgnLCAnLW1hJywgJzIwMCcsICctbWV0YWxfYmluZGluZycsICctaW1hZScsICc8aW5maWxlLm1hZT4nLCAnLW9tYWUnLCAnPG91dGZpbGUubWFlPic=

> <r_lp_tautomer_probability>
1

> <r_epik_Ionization_Penalty>
0.00015627

> <r_epik_Ionization_Penalty_Charging>
0

> <r_epik_Ionization_Penalty_Neutral>
0.00015627

> <r_epik_State_Penalty>
-0

> <r_epik_Charging_Adjusted_Penalty>
0

> <i_epik_Tot_Q>
0

> <i_epik_Tot_abs_Q>
0

> <r_epik_Metal_State_Penalty>
-0

> <b_epik_Metal_Only>
0

> <s_lp_Force_Field>
OPLS_2005

> <r_lp_Energy>
21.9602

> <b_lp_Chiralities_Consistent>
1

> <s_lp_Variant>
AV-unprocessed.smi:818-2

> <Gold.Version>
5.8.1

> <Gold.Id.Protein>
6NUR|6NUR_protein|mol2

> <Gold.PLP.Fitness>
42.2535

> <Gold.PLP.PLP>
-43.2682

> <Gold.PLP.part.hbond>
-1.5321

> <Gold.PLP.part.metal>
0.0000

> <Gold.PLP.part.buried>
-5.8207

> <Gold.PLP.part.nonpolar>
-37.1144

> <Gold.PLP.part.repulsive>
0.1083

> <Gold.PLP.ligand.clash>
0.0000

> <Gold.PLP.ligand.torsion>
0.5221

> <Gold.PLP.Chemscore.Hbond>
0.0000

> <Gold.PLP.Chemscore.CHOScore>
0.0000

> <Gold.PLP.Chemscore.Metal>
0.0000

> <Gold.PLP.Chemscore.Internal.Correction>
0.0296

> <Gold.Rescore>
     Score         DG    S(hbond)    S(metal)    S(lipo)     H(rot)  DE(clash)    DE(int)     intcor
      9.12     -13.29       0.00        0.00     103.57       1.68       1.27       2.91       ----

> <Gold.Chemscore.Fitness>
9.1151

> <Gold.Chemscore.DG>
-13.2900

> <Gold.Chemscore.ZeroCoef>
-5.4800

> <Gold.Chemscore.Hbond>
0.0000

> <Gold.Chemscore.Metal>
0.0000

> <Gold.Chemscore.Lipo>
103.5732

> <Gold.Chemscore.Internal_Hbond>
0.0000

> <Gold.Chemscore.DEClash>
1.2652

> <Gold.Chemscore.DEInternal>
2.9097

> <Gold.Chemscore.Rot>
1.6828

> <Gold.Chemscore.Internal.Correction>
   9.000000E+99

> <Gold.Chemscore.Hbond.Weighted>
-0.0000

> <Gold.Chemscore.Metal.Weighted>
-0.0000

> <Gold.Chemscore.Lipo.Weighted>
-12.1181

> <Gold.Chemscore.Internal_Hbond.Weighted>
0.0000

> <Gold.Chemscore.DEClash.Weighted>
1.2652

> <Gold.Chemscore.DEInternal.Weighted>
2.9097

> <Gold.Chemscore.Rot.Weighted>
4.3081

> <Gold.Chemscore.Internal.Correction.Weighted>
   9.000000E+99

> <Gold.Protein.RotatedTorsions>
[ 6907 6896 6895 6894 ] final  169.69 input  -60.11 | X-H torsion
[ 7974 7965 7964 7962 ] final   -3.86 input  175.53 | X-H torsion
[ 8008 7997 7996 7995 ] final -109.28 input   59.86 | X-H torsion
[ 10167 10162 10161 10158 ] final  -87.01 input  -65.29 | X-H torsion
[ 10718 10713 10712 10709 ] final  -75.52 input   66.30 | X-H torsion
[ 10763 10752 10751 10750 ] final   79.53 input  -60.55 | X-H torsion
[ 11005 11000 10999 10996 ] final  -17.34 input  -57.11 | X-H torsion

> <Gold.Protein.ActiveResidues>
 VAL166  LYS551  ARG553  GLY616  TRP617  ASP618  TYR619  PRO620  LYS621  CYS622 
 ASP623  PHE694  ASN695  SER759  ASP760  ASP761  ALA762  ILE779  LEU786  VAL792 
 PHE793  MET794  SER795  GLU796  ALA797  LYS798  CYS799  TRP800  GLU811  SER814 

> <Gold.Protein.RotatedAtoms>
  151.8279  133.3404  159.3604 H   0  0  0  0  0  0  0  0  0  0  0  0  # atno 6907 bound_to 6896
  150.7273  134.5511  159.5804 H   0  0  0  0  0  0  0  0  0  0  0  0  # atno 6908 bound_to 6896
  152.2958  134.7670  160.0419 H   0  0  0  0  0  0  0  0  0  0  0  0  # atno 6909 bound_to 6896
  146.2382  140.1784  142.8332 H   0  0  0  0  0  0  0  0  0  0  0  0  # atno 7974 bound_to 7965
  154.9570  140.0400  157.2172 H   0  0  0  0  0  0  0  0  0  0  0  0  # atno 8008 bound_to 7997
  154.7924  140.2838  155.5959 H   0  0  0  0  0  0  0  0  0  0  0  0  # atno 8009 bound_to 7997
  156.2951  140.2571  156.2775 H   0  0  0  0  0  0  0  0  0  0  0  0  # atno 8010 bound_to 7997
  140.3886  143.2715  151.9294 H   0  0  0  0  0  0  0  0  0  0  0  0  # atno 10167 bound_to 10162
  156.0205  130.4443  150.3055 H   0  0  0  0  0  0  0  0  0  0  0  0  # atno 10718 bound_to 10713
  153.0960  135.4836  154.8779 H   0  0  0  0  0  0  0  0  0  0  0  0  # atno 10763 bound_to 10752
  154.7325  135.3063  154.8870 H   0  0  0  0  0  0  0  0  0  0  0  0  # atno 10764 bound_to 10752
  153.9501  135.6824  153.4797 H   0  0  0  0  0  0  0  0  0  0  0  0  # atno 10765 bound_to 10752
  140.8159  133.8105  155.9610 H   0  0  0  0  0  0  0  0  0  0  0  0  # atno 11005 bound_to 11000
  144.9954  140.8585  143.5314 LP  0  0  0  0  0  0  0  0  0  0  0  0  # atno 17320 bound_to 7965
  145.1796  139.2359  143.5299 LP  0  0  0  0  0  0  0  0  0  0  0  0  # atno 17321 bound_to 7965
  139.4790  144.5750  151.8027 LP  0  0  0  0  0  0  0  0  0  0  0  0  # atno 17342 bound_to 10162
  140.4864  144.1375  150.5942 LP  0  0  0  0  0  0  0  0  0  0  0  0  # atno 17343 bound_to 10162
  157.1157  131.0233  151.3030 LP  0  0  0  0  0  0  0  0  0  0  0  0  # atno 17370 bound_to 10713
  157.4668  130.7685  149.7287 LP  0  0  0  0  0  0  0  0  0  0  0  0  # atno 17371 bound_to 10713
  140.9150  134.2213  157.4962 LP  0  0  0  0  0  0  0  0  0  0  0  0  # atno 17394 bound_to 11000
  139.8711  134.9767  156.4930 LP  0  0  0  0  0  0  0  0  0  0  0  0  # atno 17395 bound_to 11000

$$$$
