AV-unprocessed.smi:99|AV-procd|sdf|869|dock5
  -GOLD-   2262017323D 1   1.00000     0.00000
 Structure written by MMmdl.
 53 56  0  0  0  0  0  0  0  0  1 V2000
  153.1451  138.5888  157.4020 O   0  0  0  0  0  0  0  0  0  0  0  0
  152.2208  139.3904  157.2506 C   0  0  0  0  0  0  0  0  0  0  0  0
  151.2589  139.2503  156.3172 O   0  0  0  0  0  0  0  0  0  0  0  0
  151.2100  138.0771  155.5225 C   0  0  0  0  0  0  0  0  0  0  0  0
  150.8199  136.8790  156.4023 C   0  0  2  0  0  0  0  0  0  0  0  0
  151.2155  135.6750  155.7560 O   0  0  0  0  0  0  0  0  0  0  0  0
  150.1894  135.2134  154.9347 C   0  0  1  0  0  0  0  0  0  0  0  0
  150.1765  133.7013  155.0452 N   0  0  0  0  0  0  0  0  0  0  0  0
  150.9903  133.0400  155.9582 C   0  0  0  0  0  0  0  0  0  0  0  0
  151.0806  131.6915  156.0369 C   0  0  0  0  0  0  0  0  0  0  0  0
  150.3248  130.8458  155.1206 C   0  0  0  0  0  0  0  0  0  0  0  0
  150.3283  129.6166  155.1225 O   0  0  0  0  0  0  0  0  0  0  0  0
  149.5628  131.5474  154.1828 N   0  0  0  0  0  0  0  0  0  0  0  0
  149.4740  132.9372  154.0837 C   0  0  0  0  0  0  0  0  0  0  0  0
  148.7974  133.4385  153.1866 O   0  0  0  0  0  0  0  0  0  0  0  0
  148.8705  135.8751  155.3826 C   0  0  2  0  0  0  0  0  0  0  0  0
  148.3138  136.6984  154.3768 O   0  0  0  0  0  0  0  0  0  0  0  0
  149.3022  136.7439  156.5633 C   0  0  1  0  0  0  0  0  0  0  0  0
  149.0260  136.1057  157.8041 O   0  0  0  0  0  0  0  0  0  0  0  0
  148.5869  136.8118  158.8677 C   0  0  0  0  0  0  0  0  0  0  0  0
  148.6555  138.0396  158.9489 O   0  0  0  0  0  0  0  0  0  0  0  0
  147.9993  135.9467  159.9301 C   0  0  0  0  0  0  0  0  0  0  0  0
  147.8197  134.5662  159.6801 C   0  0  0  0  0  0  0  0  0  0  0  0
  147.2700  133.7245  160.6666 C   0  0  0  0  0  0  0  0  0  0  0  0
  146.8942  134.2526  161.9155 C   0  0  0  0  0  0  0  0  0  0  0  0
  147.0694  135.6240  162.1772 C   0  0  0  0  0  0  0  0  0  0  0  0
  147.6185  136.4675  161.1919 C   0  0  0  0  0  0  0  0  0  0  0  0
  152.0511  140.6171  158.0817 C   0  0  0  0  0  0  0  0  0  0  0  0
  152.8767  140.8057  159.2146 C   0  0  0  0  0  0  0  0  0  0  0  0
  152.7403  141.9540  160.0187 C   0  0  0  0  0  0  0  0  0  0  0  0
  151.7767  142.9282  159.6994 C   0  0  0  0  0  0  0  0  0  0  0  0
  150.9488  142.7522  158.5755 C   0  0  0  0  0  0  0  0  0  0  0  0
  151.0835  141.6042  157.7702 C   0  0  0  0  0  0  0  0  0  0  0  0
  149.0423  131.0023  153.5107 H   0  0  0  0  0  0  0  0  0  0  0  0
  150.4640  138.2169  154.7390 H   0  0  0  0  0  0  0  0  0  0  0  0
  152.1699  137.9061  155.0334 H   0  0  0  0  0  0  0  0  0  0  0  0
  151.3103  136.9702  157.3728 H   0  0  0  0  0  0  0  0  0  0  0  0
  150.4186  135.4664  153.8985 H   0  0  0  0  0  0  0  0  0  0  0  0
  151.5974  133.6092  156.6433 H   0  0  0  0  0  0  0  0  0  0  0  0
  151.7234  131.2362  156.7767 H   0  0  0  0  0  0  0  0  0  0  0  0
  148.1134  135.1384  155.6508 H   0  0  0  0  0  0  0  0  0  0  0  0
  148.4633  136.2928  153.5367 H   0  0  0  0  0  0  0  0  0  0  0  0
  148.8265  137.7264  156.5516 H   0  0  0  0  0  0  0  0  0  0  0  0
  148.1007  134.1377  158.7285 H   0  0  0  0  0  0  0  0  0  0  0  0
  147.1363  132.6720  160.4640 H   0  0  0  0  0  0  0  0  0  0  0  0
  146.4724  133.6071  162.6716 H   0  0  0  0  0  0  0  0  0  0  0  0
  146.7824  136.0305  163.1359 H   0  0  0  0  0  0  0  0  0  0  0  0
  147.7409  137.5150  161.4271 H   0  0  0  0  0  0  0  0  0  0  0  0
  153.6242  140.0717  159.4793 H   0  0  0  0  0  0  0  0  0  0  0  0
  153.3766  142.0873  160.8812 H   0  0  0  0  0  0  0  0  0  0  0  0
  151.6734  143.8093  160.3157 H   0  0  0  0  0  0  0  0  0  0  0  0
  150.2085  143.4992  158.3295 H   0  0  0  0  0  0  0  0  0  0  0  0
  150.4321  141.5003  156.9148 H   0  0  0  0  0  0  0  0  0  0  0  0
  1  2  2  0  0  0  0
  2  3  1  0  0  0  0
  2 28  1  0  0  0  0
  3  4  1  0  0  0  0
  4  5  1  0  0  0  0
  4 35  1  0  0  0  0
  4 36  1  0  0  0  0
  5 18  1  0  0  0  0
  5  6  1  0  0  0  0
  5 37  1  0  0  0  0
  6  7  1  0  0  0  0
  7  8  1  0  0  0  0
  7 16  1  0  0  0  0
  7 38  1  0  0  0  0
  8 14  1  0  0  0  0
  8  9  1  0  0  0  0
  9 10  2  0  0  0  0
  9 39  1  0  0  0  0
 10 11  1  0  0  0  0
 10 40  1  0  0  0  0
 11 12  2  0  0  0  0
 11 13  1  0  0  0  0
 13 34  1  0  0  0  0
 13 14  1  0  0  0  0
 14 15  2  0  0  0  0
 16 17  1  0  0  0  0
 16 18  1  0  0  0  0
 16 41  1  0  0  0  0
 17 42  1  0  0  0  0
 18 19  1  0  0  0  0
 18 43  1  0  0  0  0
 19 20  1  0  0  0  0
 20 21  2  0  0  0  0
 20 22  1  0  0  0  0
 22 27  1  0  0  0  0
 22 23  2  0  0  0  0
 23 24  1  0  0  0  0
 23 44  1  0  0  0  0
 24 25  2  0  0  0  0
 24 45  1  0  0  0  0
 25 26  1  0  0  0  0
 25 46  1  0  0  0  0
 26 27  2  0  0  0  0
 26 47  1  0  0  0  0
 27 48  1  0  0  0  0
 28 33  1  0  0  0  0
 28 29  2  0  0  0  0
 29 30  1  0  0  0  0
 29 49  1  0  0  0  0
 30 31  2  0  0  0  0
 30 50  1  0  0  0  0
 31 32  1  0  0  0  0
 31 51  1  0  0  0  0
 32 33  2  0  0  0  0
 32 52  1  0  0  0  0
 33 53  1  0  0  0  0
M  END
> <s_m_source_file>
AV-unprocessed.smi

> <i_m_source_file_index>
99

> <i_lp_mmshare_version>
43012

> <i_f3d_flags>
0

> <s_epik_input>
W2NIXTFbY0hdW2NIXVtjSF1bY0hdYzFDKD1PKU9bQ0gyXVtDQEBIXTJPW0NAQEhdKG4zW2NIXVtjSF1jKD1PKVtuSF1jMz1PKVtDQEBIXShbT0hdKVtDQEhdMk9DKD1PKWM0W2NIXVtjSF1bY0hdW2NIXVtjSF00

> <s_epik_cmdline>
J2VwaWtfcHl0aG9uJywgJy1waCcsICc3LjAnLCAnLXRuJywgJzgnLCAnLW1hJywgJzIwMCcsICctbWV0YWxfYmluZGluZycsICctaW1hZScsICc8aW5maWxlLm1hZT4nLCAnLW9tYWUnLCAnPG91dGZpbGUubWFlPic=

> <r_lp_tautomer_probability>
1

> <r_epik_Ionization_Penalty>
0.00454555

> <r_epik_Ionization_Penalty_Charging>
0.0045191

> <r_epik_Ionization_Penalty_Neutral>
2.64449e-05

> <r_epik_State_Penalty>
-0

> <r_epik_Charging_Adjusted_Penalty>
0.0045191

> <i_epik_Tot_Q>
0

> <i_epik_Tot_abs_Q>
0

> <r_epik_Metal_State_Penalty>
1.27877

> <b_epik_Metal_Only>
0

> <s_epik_Chemistry_Notes>
This compound has an ester and may undergo hydrolysis at high or low pH. This compound contains an acetal/aminal-like group ( X-CH(R)-Y where X, Y are N, S, or O) that may be acid/base labile, releasing an aldehyde.

> <s_lp_Force_Field>
OPLS_2005

> <r_lp_Energy>
32.4523

> <b_lp_Chiralities_Consistent>
1

> <s_lp_Variant>
AV-unprocessed.smi:99-5

> <Gold.Version>
5.8.1

> <Gold.Id.Protein>
6NUR|6NUR_protein|mol2

> <Gold.PLP.Fitness>
60.8536

> <Gold.PLP.PLP>
-54.2649

> <Gold.PLP.part.hbond>
-4.4959

> <Gold.PLP.part.metal>
0.0000

> <Gold.PLP.part.buried>
-7.2326

> <Gold.PLP.part.nonpolar>
-43.1622

> <Gold.PLP.part.repulsive>
0.3086

> <Gold.PLP.ligand.clash>
0.0000

> <Gold.PLP.ligand.torsion>
1.3696

> <Gold.PLP.Chemscore.Hbond>
3.0000

> <Gold.PLP.Chemscore.CHOScore>
0.0000

> <Gold.PLP.Chemscore.Metal>
0.0000

> <Gold.Chemscore.Hbonds>
donor molecule, donor type, donor heavy atom, donor atom, acceptor molecule, acceptor atom, score
      L1  H    17    42       P1  7948  1.00
      P1  H  7997  8008       L1     1  0.59
      P1  H 10752 10764       L1     6  1.00

> <Gold.PLP.Chemscore.Internal.Correction>
0.3281

> <Gold.Rescore>
     Score         DG    S(hbond)    S(metal)    S(lipo)     H(rot)  DE(clash)    DE(int)     intcor
     18.04     -19.57       2.75        0.00     111.88       3.19       0.13       1.40       ----

> <Gold.Chemscore.Fitness>
18.0356

> <Gold.Chemscore.DG>
-19.5709

> <Gold.Chemscore.ZeroCoef>
-5.4800

> <Gold.Chemscore.Hbond>
2.7450

> <Gold.Chemscore.Metal>
0.0000

> <Gold.Chemscore.Lipo>
111.8762

> <Gold.Chemscore.Internal_Hbond>
0.0000

> <Gold.Chemscore.DEClash>
0.1337

> <Gold.Chemscore.DEInternal>
1.4016

> <Gold.Chemscore.Rot>
3.1903

> <Gold.Chemscore.Internal.Correction>
   9.000000E+99

> <Gold.Chemscore.Hbonds>
donor molecule, donor type, donor heavy atom, donor atom, acceptor molecule, acceptor atom, score
      L1  H    17    42       P1  7948  0.99
      P1  H  7997  8008       L1     1  0.05
      P1  H 10752 10764       L1     6  0.74

> <Gold.Chemscore.Hbond.Weighted>
-9.1684

> <Gold.Chemscore.Metal.Weighted>
-0.0000

> <Gold.Chemscore.Lipo.Weighted>
-13.0895

> <Gold.Chemscore.Internal_Hbond.Weighted>
0.0000

> <Gold.Chemscore.DEClash.Weighted>
0.1337

> <Gold.Chemscore.DEInternal.Weighted>
1.4016

> <Gold.Chemscore.Rot.Weighted>
8.1671

> <Gold.Chemscore.Internal.Correction.Weighted>
   9.000000E+99

> <Gold.Protein.RotatedTorsions>
[ 6907 6896 6895 6894 ] final  145.50 input  -60.11 | X-H torsion
[ 7974 7965 7964 7962 ] final  126.94 input  175.53 | X-H torsion
[ 8008 7997 7996 7995 ] final  -84.38 input   59.86 | X-H torsion
[ 10167 10162 10161 10158 ] final  145.96 input  -65.29 | X-H torsion
[ 10718 10713 10712 10709 ] final   71.82 input   66.30 | X-H torsion
[ 10763 10752 10751 10750 ] final  -45.66 input  -60.55 | X-H torsion
[ 11005 11000 10999 10996 ] final -151.82 input  -57.11 | X-H torsion

> <Gold.Protein.ActiveResidues>
 VAL166  LYS551  ARG553  GLY616  TRP617  ASP618  TYR619  PRO620  LYS621  CYS622 
 ASP623  PHE694  ASN695  SER759  ASP760  ASP761  ALA762  ILE779  LEU786  VAL792 
 PHE793  MET794  SER795  GLU796  ALA797  LYS798  CYS799  TRP800  GLU811  SER814 

> <Gold.Protein.RotatedAtoms>
  152.1800  133.4701  159.4953 H   0  0  0  0  0  0  0  0  0  0  0  0  # atno 6907 bound_to 6896
  150.6933  134.1845  159.4270 H   0  0  0  0  0  0  0  0  0  0  0  0  # atno 6908 bound_to 6896
  151.9755  135.0054  160.0605 H   0  0  0  0  0  0  0  0  0  0  0  0  # atno 6909 bound_to 6896
  145.0561  139.3843  143.5029 H   0  0  0  0  0  0  0  0  0  0  0  0  # atno 7974 bound_to 7965
  154.6292  140.0606  156.9711 H   0  0  0  0  0  0  0  0  0  0  0  0  # atno 8008 bound_to 7997
  155.1693  140.3289  155.4377 H   0  0  0  0  0  0  0  0  0  0  0  0  # atno 8009 bound_to 7997
  156.2473  140.1917  156.6796 H   0  0  0  0  0  0  0  0  0  0  0  0  # atno 8010 bound_to 7997
  139.4916  144.5864  151.6769 H   0  0  0  0  0  0  0  0  0  0  0  0  # atno 10167 bound_to 10162
  157.6471  130.9548  150.0843 H   0  0  0  0  0  0  0  0  0  0  0  0  # atno 10718 bound_to 10713
  154.0321  135.6655  153.4782 H   0  0  0  0  0  0  0  0  0  0  0  0  # atno 10763 bound_to 10752
  153.0536  135.5069  154.7922 H   0  0  0  0  0  0  0  0  0  0  0  0  # atno 10764 bound_to 10752
  154.6871  135.3055  154.9497 H   0  0  0  0  0  0  0  0  0  0  0  0  # atno 10765 bound_to 10752
  140.7255  134.3680  157.5176 H   0  0  0  0  0  0  0  0  0  0  0  0  # atno 11005 bound_to 11000
  146.3521  140.0236  142.8656 LP  0  0  0  0  0  0  0  0  0  0  0  0  # atno 17320 bound_to 7965
  145.1467  140.9601  143.4457 LP  0  0  0  0  0  0  0  0  0  0  0  0  # atno 17321 bound_to 7965
  140.5481  144.0469  150.6115 LP  0  0  0  0  0  0  0  0  0  0  0  0  # atno 17342 bound_to 10162
  140.3514  143.2960  152.0482 LP  0  0  0  0  0  0  0  0  0  0  0  0  # atno 17343 bound_to 10162
  156.1810  130.3650  149.9035 LP  0  0  0  0  0  0  0  0  0  0  0  0  # atno 17370 bound_to 10713
  156.6988  130.8925  151.3597 LP  0  0  0  0  0  0  0  0  0  0  0  0  # atno 17371 bound_to 10713
  139.8838  134.8983  156.2742 LP  0  0  0  0  0  0  0  0  0  0  0  0  # atno 17394 bound_to 11000
  140.9967  133.7176  156.0896 LP  0  0  0  0  0  0  0  0  0  0  0  0  # atno 17395 bound_to 11000

$$$$
