AV-unprocessed.smi:512|AV-procd|sdf|2769|dock2
  -GOLD-   2262023233D 1   1.00000     0.00000
 Structure written by MMmdl.
 48 50  0  0  0  0  0  0  0  0  1 V2000
  147.5863  141.1075  153.5322 C   0  0  0  0  0  0  0  0  0  0  0  0
  147.9088  141.3590  155.0067 C   0  0  0  0  0  0  0  0  0  0  0  0
  149.3115  141.4951  155.1440 O   0  0  0  0  0  0  0  0  0  0  0  0
  149.7477  141.4191  156.4912 C   0  0  0  0  0  0  0  0  0  0  0  0
  151.2622  141.6613  156.5527 C   0  0  0  0  0  0  0  0  0  0  0  0
  151.9248  140.7043  157.4372 N   0  0  0  0  0  0  0  0  0  0  0  0
  152.5983  140.9475  158.5948 C   0  0  0  0  0  0  0  0  0  0  0  0
  152.7103  142.2283  159.1358 N   0  0  0  0  0  0  0  0  0  0  0  0
  152.9415  142.5784  160.5351 C   0  0  0  0  0  0  0  0  0  0  0  0
  151.9417  143.6521  161.0073 C   0  0  0  0  0  0  0  0  0  0  0  0
  152.1221  144.8619  160.2053 N   0  0  0  0  0  0  0  0  0  0  0  0
  151.1764  145.8809  160.6363 C   0  0  0  0  0  0  0  0  0  0  0  0
  151.8862  144.5338  158.7991 C   0  0  0  0  0  0  0  0  0  0  0  0
  152.8811  143.4455  158.3483 C   0  0  0  0  0  0  0  0  0  0  0  0
  153.1848  139.8755  159.1339 N   0  0  0  0  0  0  0  0  0  0  0  0
  152.8359  138.8553  158.2630 C   0  0  0  0  0  0  0  0  0  0  0  0
  152.0882  139.3313  157.2346 C   0  0  0  0  0  0  0  0  0  0  0  0
  151.6257  138.4695  156.1363 C   0  0  0  0  0  0  0  0  0  0  0  0
  150.9601  138.8741  155.1858 O   0  0  0  0  0  0  0  0  0  0  0  0
  152.0161  137.1790  156.2716 N   0  0  0  0  0  0  0  0  0  0  0  0
  152.7635  136.6373  157.2806 C   0  0  0  0  0  0  0  0  0  0  0  0
  153.0495  135.4403  157.2592 O   0  0  0  0  0  0  0  0  0  0  0  0
  153.1715  137.4716  158.2894 N   0  0  0  0  0  0  0  0  0  0  0  0
  153.9785  136.9491  159.3937 C   0  0  0  0  0  0  0  0  0  0  0  0
  151.7271  136.5455  155.5405 H   0  0  0  0  0  0  0  0  0  0  0  0
  146.5119  141.0048  153.3796 H   0  0  0  0  0  0  0  0  0  0  0  0
  148.0644  140.1935  153.1785 H   0  0  0  0  0  0  0  0  0  0  0  0
  147.9361  141.9313  152.9095 H   0  0  0  0  0  0  0  0  0  0  0  0
  147.4075  142.2658  155.3485 H   0  0  0  0  0  0  0  0  0  0  0  0
  147.5482  140.5292  155.6160 H   0  0  0  0  0  0  0  0  0  0  0  0
  149.2295  142.1666  157.0936 H   0  0  0  0  0  0  0  0  0  0  0  0
  149.5085  140.4400  156.9081 H   0  0  0  0  0  0  0  0  0  0  0  0
  151.6871  141.6085  155.5548 H   0  0  0  0  0  0  0  0  0  0  0  0
  151.4701  142.6750  156.8877 H   0  0  0  0  0  0  0  0  0  0  0  0
  152.8823  141.6911  161.1639 H   0  0  0  0  0  0  0  0  0  0  0  0
  153.9625  142.9467  160.6456 H   0  0  0  0  0  0  0  0  0  0  0  0
  150.9170  143.2863  160.9251 H   0  0  0  0  0  0  0  0  0  0  0  0
  152.1189  143.8833  162.0583 H   0  0  0  0  0  0  0  0  0  0  0  0
  151.3001  146.7902  160.0471 H   0  0  0  0  0  0  0  0  0  0  0  0
  151.3425  146.1379  161.6830 H   0  0  0  0  0  0  0  0  0  0  0  0
  150.1457  145.5400  160.5273 H   0  0  0  0  0  0  0  0  0  0  0  0
  150.8597  144.1929  158.6526 H   0  0  0  0  0  0  0  0  0  0  0  0
  152.0191  145.4285  158.1897 H   0  0  0  0  0  0  0  0  0  0  0  0
  153.9086  143.8017  158.4358 H   0  0  0  0  0  0  0  0  0  0  0  0
  152.7176  143.2197  157.2939 H   0  0  0  0  0  0  0  0  0  0  0  0
  153.5352  136.0430  159.8100 H   0  0  0  0  0  0  0  0  0  0  0  0
  154.0738  137.6618  160.2129 H   0  0  0  0  0  0  0  0  0  0  0  0
  154.9832  136.7075  159.0451 H   0  0  0  0  0  0  0  0  0  0  0  0
  1  2  1  0  0  0  0
  1 26  1  0  0  0  0
  1 27  1  0  0  0  0
  1 28  1  0  0  0  0
  2  3  1  0  0  0  0
  2 29  1  0  0  0  0
  2 30  1  0  0  0  0
  3  4  1  0  0  0  0
  4  5  1  0  0  0  0
  4 31  1  0  0  0  0
  4 32  1  0  0  0  0
  5  6  1  0  0  0  0
  5 33  1  0  0  0  0
  5 34  1  0  0  0  0
  6 17  1  0  0  0  0
  6  7  1  0  0  0  0
  7  8  1  0  0  0  0
  7 15  2  0  0  0  0
  8 14  1  0  0  0  0
  8  9  1  0  0  0  0
  9 10  1  0  0  0  0
  9 35  1  0  0  0  0
  9 36  1  0  0  0  0
 10 11  1  0  0  0  0
 10 37  1  0  0  0  0
 10 38  1  0  0  0  0
 11 12  1  0  0  0  0
 11 13  1  0  0  0  0
 12 39  1  0  0  0  0
 12 40  1  0  0  0  0
 12 41  1  0  0  0  0
 13 14  1  0  0  0  0
 13 42  1  0  0  0  0
 13 43  1  0  0  0  0
 14 44  1  0  0  0  0
 14 45  1  0  0  0  0
 15 16  1  0  0  0  0
 16 23  1  0  0  0  0
 16 17  2  0  0  0  0
 17 18  1  0  0  0  0
 18 19  2  0  0  0  0
 18 20  1  0  0  0  0
 20 25  1  0  0  0  0
 20 21  1  0  0  0  0
 21 22  2  0  0  0  0
 21 23  1  0  0  0  0
 23 24  1  0  0  0  0
 24 46  1  0  0  0  0
 24 47  1  0  0  0  0
 24 48  1  0  0  0  0
M  END
> <s_m_source_file>
AV-unprocessed.smi

> <i_m_source_file_index>
512

> <i_lp_mmshare_version>
43012

> <i_f3d_flags>
0

> <s_epik_input>
W0NIM11uMWMoPU8pW25IXWMoPU8pYyhjMTIpbihbQ0gyXVtDSDJdT1tDSDJdW0NIM10pYyhuMilOM1tDSDJdW0NIMl1OKFtDSDNdKVtDSDJdW0NIMl0z

> <s_epik_cmdline>
J2VwaWtfcHl0aG9uJywgJy1waCcsICc3LjAnLCAnLXRuJywgJzgnLCAnLW1hJywgJzIwMCcsICctbWV0YWxfYmluZGluZycsICctaW1hZScsICc8aW5maWxlLm1hZT4nLCAnLW9tYWUnLCAnPG91dGZpbGUubWFlPic=

> <r_epik_Ionization_Penalty>
1.34391

> <r_epik_Ionization_Penalty_Charging>
1.55829e-05

> <r_epik_Ionization_Penalty_Neutral>
1.34389

> <r_epik_State_Penalty>
1.4212

> <r_epik_Charging_Adjusted_Penalty>
1.42122

> <i_epik_Tot_Q>
0

> <i_epik_Tot_abs_Q>
0

> <r_epik_Metal_State_Penalty>
1.44738

> <b_epik_Metal_Only>
0

> <s_lp_Force_Field>
OPLS_2005

> <r_lp_Energy>
48.5788

> <b_lp_Chiralities_Consistent>
1

> <s_lp_Variant>
AV-unprocessed.smi:512-2

> <Gold.Version>
5.8.1

> <Gold.Id.Protein>
6NUR|6NUR_protein|mol2

> <Gold.PLP.Fitness>
39.7154

> <Gold.PLP.PLP>
-37.9388

> <Gold.PLP.part.hbond>
-1.0077

> <Gold.PLP.part.metal>
0.0000

> <Gold.PLP.part.buried>
-2.9184

> <Gold.PLP.part.nonpolar>
-33.7292

> <Gold.PLP.part.repulsive>
0.7135

> <Gold.PLP.ligand.clash>
0.0000

> <Gold.PLP.ligand.torsion>
0.8484

> <Gold.PLP.Chemscore.Hbond>
1.0000

> <Gold.PLP.Chemscore.CHOScore>
0.0000

> <Gold.PLP.Chemscore.Metal>
0.0000

> <Gold.Chemscore.Hbonds>
donor molecule, donor type, donor heavy atom, donor atom, acceptor molecule, acceptor atom, score
      P1  H 10752 10765       L1    22  0.80

> <Gold.PLP.Chemscore.Internal.Correction>
0.4733

> <Gold.Rescore>
     Score         DG    S(hbond)    S(metal)    S(lipo)     H(rot)  DE(clash)    DE(int)     intcor
     10.20     -13.71       0.30        0.00      97.34       1.63       1.60       1.90       ----

> <Gold.Chemscore.Fitness>
10.2035

> <Gold.Chemscore.DG>
-13.7056

> <Gold.Chemscore.ZeroCoef>
-5.4800

> <Gold.Chemscore.Hbond>
0.3043

> <Gold.Chemscore.Metal>
0.0000

> <Gold.Chemscore.Lipo>
97.3423

> <Gold.Chemscore.Internal_Hbond>
0.0000

> <Gold.Chemscore.DEClash>
1.5973

> <Gold.Chemscore.DEInternal>
1.9048

> <Gold.Chemscore.Rot>
1.6328

> <Gold.Chemscore.Internal.Correction>
   9.000000E+99

> <Gold.Chemscore.Hbonds>
donor molecule, donor type, donor heavy atom, donor atom, acceptor molecule, acceptor atom, score
      P1  H 10752 10765       L1    22  0.11

> <Gold.Chemscore.Hbond.Weighted>
-1.0165

> <Gold.Chemscore.Metal.Weighted>
-0.0000

> <Gold.Chemscore.Lipo.Weighted>
-11.3891

> <Gold.Chemscore.Internal_Hbond.Weighted>
0.0000

> <Gold.Chemscore.DEClash.Weighted>
1.5973

> <Gold.Chemscore.DEInternal.Weighted>
1.9048

> <Gold.Chemscore.Rot.Weighted>
4.1800

> <Gold.Chemscore.Internal.Correction.Weighted>
   9.000000E+99

> <Gold.Protein.RotatedTorsions>
[ 6907 6896 6895 6894 ] final   14.78 input  -60.11 | X-H torsion
[ 7974 7965 7964 7962 ] final -149.46 input  175.53 | X-H torsion
[ 8008 7997 7996 7995 ] final  -34.98 input   59.86 | X-H torsion
[ 10167 10162 10161 10158 ] final  117.15 input  -65.29 | X-H torsion
[ 10718 10713 10712 10709 ] final  153.08 input   66.30 | X-H torsion
[ 10763 10752 10751 10750 ] final -122.85 input  -60.55 | X-H torsion
[ 11005 11000 10999 10996 ] final   86.95 input  -57.11 | X-H torsion

> <Gold.Protein.ActiveResidues>
 VAL166  LYS551  ARG553  GLY616  TRP617  ASP618  TYR619  PRO620  LYS621  CYS622 
 ASP623  PHE694  ASN695  SER759  ASP760  ASP761  ALA762  ILE779  LEU786  VAL792 
 PHE793  MET794  SER795  GLU796  ALA797  LYS798  CYS799  TRP800  GLU811  SER814 

> <Gold.Protein.RotatedAtoms>
  151.8077  135.0690  160.0408 H   0  0  0  0  0  0  0  0  0  0  0  0  # atno 6907 bound_to 6896
  152.3043  133.5682  159.5647 H   0  0  0  0  0  0  0  0  0  0  0  0  # atno 6908 bound_to 6896
  150.7288  134.0162  159.3728 H   0  0  0  0  0  0  0  0  0  0  0  0  # atno 6909 bound_to 6896
  144.7966  140.5062  143.5736 H   0  0  0  0  0  0  0  0  0  0  0  0  # atno 7974 bound_to 7965
  154.4107  140.1669  156.2137 H   0  0  0  0  0  0  0  0  0  0  0  0  # atno 8008 bound_to 7997
  155.9422  140.3407  155.6314 H   0  0  0  0  0  0  0  0  0  0  0  0  # atno 8009 bound_to 7997
  155.6974  140.0741  157.2414 H   0  0  0  0  0  0  0  0  0  0  0  0  # atno 8010 bound_to 7997
  139.6198  144.7099  151.2659 H   0  0  0  0  0  0  0  0  0  0  0  0  # atno 10167 bound_to 10162
  157.2495  131.0776  151.1739 H   0  0  0  0  0  0  0  0  0  0  0  0  # atno 10718 bound_to 10713
  154.8697  135.4118  154.2848 H   0  0  0  0  0  0  0  0  0  0  0  0  # atno 10763 bound_to 10752
  153.3734  135.7008  153.6625 H   0  0  0  0  0  0  0  0  0  0  0  0  # atno 10764 bound_to 10752
  153.5478  135.3635  155.2718 H   0  0  0  0  0  0  0  0  0  0  0  0  # atno 10765 bound_to 10752
  139.8931  134.8390  156.2792 H   0  0  0  0  0  0  0  0  0  0  0  0  # atno 11005 bound_to 11000
  145.5658  139.1481  143.3316 LP  0  0  0  0  0  0  0  0  0  0  0  0  # atno 17320 bound_to 7965
  146.2236  140.5792  142.9006 LP  0  0  0  0  0  0  0  0  0  0  0  0  # atno 17321 bound_to 7965
  140.7374  143.6677  150.8108 LP  0  0  0  0  0  0  0  0  0  0  0  0  # atno 17342 bound_to 10162
  140.0286  143.5467  152.2770 LP  0  0  0  0  0  0  0  0  0  0  0  0  # atno 17343 bound_to 10162
  157.3293  130.6977  149.6315 LP  0  0  0  0  0  0  0  0  0  0  0  0  # atno 17370 bound_to 10713
  155.9667  130.4312  150.4910 LP  0  0  0  0  0  0  0  0  0  0  0  0  # atno 17371 bound_to 10713
  141.0050  133.7129  156.1020 LP  0  0  0  0  0  0  0  0  0  0  0  0  # atno 17394 bound_to 11000
  140.7446  134.4112  157.5550 LP  0  0  0  0  0  0  0  0  0  0  0  0  # atno 17395 bound_to 11000

$$$$
