AV-unprocessed.smi:1906|AV-procd|sdf|7730|dock1
  -GOLD-   22720 9473D 1   1.00000     0.00000
 Structure written by MMmdl.
 36 38  0  0  0  0  0  0  0  0  2 V2000
  151.8859  138.1652  154.2929 C   0  0  0  0  0  0  0  0  0  0  0  0
  150.6386  138.9842  154.2878 C   0  0  0  0  0  0  0  0  0  0  0  0
  149.5239  138.7367  153.5434 N   0  3  0  0  0  0  0  0  0  0  0  0
  148.5607  139.7147  153.7947 C   0  0  0  0  0  0  0  0  0  0  0  0
  147.2791  139.8865  153.2805 C   0  0  0  0  0  0  0  0  0  0  0  0
  146.5520  140.9992  153.7523 C   0  0  0  0  0  0  0  0  0  0  0  0
  147.1022  141.8891  154.6978 C   0  0  0  0  0  0  0  0  0  0  0  0
  148.4026  141.7047  155.2118 C   0  0  0  0  0  0  0  0  0  0  0  0
  149.1146  140.6026  154.7393 C   0  0  0  0  0  0  0  0  0  0  0  0
  150.3980  140.1160  155.0109 N   0  0  0  0  0  0  0  0  0  0  0  0
  151.2520  140.8398  155.9654 C   0  0  0  0  0  0  0  0  0  0  0  0
  150.7927  140.6670  157.4275 C   0  0  1  0  0  0  0  0  0  0  0  0
  151.0905  139.3458  157.8284 O   0  0  0  0  0  0  0  0  0  0  0  0
  151.4086  141.7074  158.3525 C   0  0  0  0  0  0  0  0  0  0  0  0
  152.2132  141.3174  159.4463 C   0  0  0  0  0  0  0  0  0  0  0  0
  152.7948  142.2908  160.2818 C   0  0  0  0  0  0  0  0  0  0  0  0
  152.5784  143.6585  160.0276 C   0  0  0  0  0  0  0  0  0  0  0  0
  151.7793  144.0531  158.9376 C   0  0  0  0  0  0  0  0  0  0  0  0
  151.5749  145.3681  158.6882 F   0  0  0  0  0  0  0  0  0  0  0  0
  151.1955  143.0805  158.1034 C   0  0  0  0  0  0  0  0  0  0  0  0
  151.7467  137.2524  153.7133 H   0  0  0  0  0  0  0  0  0  0  0  0
  152.1543  137.8888  155.3126 H   0  0  0  0  0  0  0  0  0  0  0  0
  152.7091  138.7295  153.8553 H   0  0  0  0  0  0  0  0  0  0  0  0
  146.8551  139.2061  152.5565 H   0  0  0  0  0  0  0  0  0  0  0  0
  145.5519  141.1734  153.3821 H   0  0  0  0  0  0  0  0  0  0  0  0
  146.5146  142.7304  155.0363 H   0  0  0  0  0  0  0  0  0  0  0  0
  148.8157  142.3915  155.9360 H   0  0  0  0  0  0  0  0  0  0  0  0
  152.2756  140.4859  155.8343 H   0  0  0  0  0  0  0  0  0  0  0  0
  151.2552  141.8941  155.6864 H   0  0  0  0  0  0  0  0  0  0  0  0
  149.7075  140.7613  157.4786 H   0  0  0  0  0  0  0  0  0  0  0  0
  152.0297  139.2511  157.8765 H   0  0  0  0  0  0  0  0  0  0  0  0
  152.3927  140.2707  159.6450 H   0  0  0  0  0  0  0  0  0  0  0  0
  153.4097  141.9876  161.1167 H   0  0  0  0  0  0  0  0  0  0  0  0
  153.0267  144.4043  160.6675 H   0  0  0  0  0  0  0  0  0  0  0  0
  150.5897  143.3921  157.2652 H   0  0  0  0  0  0  0  0  0  0  0  0
  149.4318  137.9536  152.9092 H   0  0  0  0  0  0  0  0  0  0  0  0
  1  2  1  0  0  0  0
  1 21  1  0  0  0  0
  1 22  1  0  0  0  0
  1 23  1  0  0  0  0
  2 10  1  0  0  0  0
  2  3  2  0  0  0  0
  3  4  1  0  0  0  0
  3 36  1  0  0  0  0
  4  9  2  0  0  0  0
  4  5  1  0  0  0  0
  5  6  2  0  0  0  0
  5 24  1  0  0  0  0
  6  7  1  0  0  0  0
  6 25  1  0  0  0  0
  7  8  2  0  0  0  0
  7 26  1  0  0  0  0
  8  9  1  0  0  0  0
  8 27  1  0  0  0  0
  9 10  1  0  0  0  0
 10 11  1  0  0  0  0
 11 12  1  0  0  0  0
 11 28  1  0  0  0  0
 11 29  1  0  0  0  0
 12 13  1  0  0  0  0
 12 14  1  0  0  0  0
 12 30  1  0  0  0  0
 13 31  1  0  0  0  0
 14 20  1  0  0  0  0
 14 15  2  0  0  0  0
 15 16  1  0  0  0  0
 15 32  1  0  0  0  0
 16 17  2  0  0  0  0
 16 33  1  0  0  0  0
 17 18  1  0  0  0  0
 17 34  1  0  0  0  0
 18 19  1  0  0  0  0
 18 20  2  0  0  0  0
 20 35  1  0  0  0  0
M  CHG  1   3   1
M  END
> <s_m_source_file>
AV-unprocessed.smi

> <i_m_source_file_index>
1906

> <i_lp_mmshare_version>
43012

> <i_f3d_flags>
0

> <s_epik_input>
W2NIXTFbY0hdW2NIXVtjSF1jKGMxMiluKGMobjIpW0NIM10pW0NIMl1bQ0BIXShbT0hdKWMzW2NIXVtjSF1bY0hdYyhGKVtjSF0z

> <s_epik_cmdline>
J2VwaWtfcHl0aG9uJywgJy1waCcsICc3LjAnLCAnLXRuJywgJzgnLCAnLW1hJywgJzIwMCcsICctbWV0YWxfYmluZGluZycsICctaW1hZScsICc8aW5maWxlLm1hZT4nLCAnLW9tYWUnLCAnPG91dGZpbGUubWFlPic=

> <r_epik_Ionization_Penalty>
0.963871

> <r_epik_Ionization_Penalty_Charging>
0.963868

> <r_epik_Ionization_Penalty_Neutral>
3.53208e-06

> <r_epik_State_Penalty>
1.00924

> <r_epik_Charging_Adjusted_Penalty>
1.9731

> <i_epik_Tot_Q>
1

> <i_epik_Tot_abs_Q>
1

> <r_epik_Metal_State_Penalty>
4.98304

> <b_epik_Metal_Only>
0

> <s_lp_Force_Field>
OPLS_2005

> <r_lp_Energy>
15.2016

> <b_lp_Chiralities_Consistent>
1

> <s_lp_Variant>
AV-unprocessed.smi:1906-4

> <Gold.Version>
5.8.1

> <Gold.Id.Protein>
6NUR|6NUR_protein|mol2

> <Gold.PLP.Fitness>
56.0319

> <Gold.PLP.PLP>
-50.5081

> <Gold.PLP.part.hbond>
-2.0000

> <Gold.PLP.part.metal>
0.0000

> <Gold.PLP.part.buried>
1.0032

> <Gold.PLP.part.nonpolar>
-49.4148

> <Gold.PLP.part.repulsive>
0.0791

> <Gold.PLP.ligand.clash>
0.0000

> <Gold.PLP.ligand.torsion>
0.2444

> <Gold.PLP.Chemscore.Hbond>
2.0000

> <Gold.PLP.Chemscore.CHOScore>
0.0000

> <Gold.PLP.Chemscore.Metal>
0.0000

> <Gold.Chemscore.Hbonds>
donor molecule, donor type, donor heavy atom, donor atom, acceptor molecule, acceptor atom, score
      L1  H     3    36       P1  7948  1.98

> <Gold.PLP.Chemscore.Internal.Correction>
0.0126

> <Gold.Rescore>
     Score         DG    S(hbond)    S(metal)    S(lipo)     H(rot)  DE(clash)    DE(int)     intcor
     17.47     -18.04       1.00        0.00     119.34       1.85       0.22       0.35       ----

> <Gold.Chemscore.Fitness>
17.4692

> <Gold.Chemscore.DG>
-18.0403

> <Gold.Chemscore.ZeroCoef>
-5.4800

> <Gold.Chemscore.Hbond>
0.9952

> <Gold.Chemscore.Metal>
0.0000

> <Gold.Chemscore.Lipo>
119.3434

> <Gold.Chemscore.Internal_Hbond>
0.0000

> <Gold.Chemscore.DEClash>
0.2201

> <Gold.Chemscore.DEInternal>
0.3510

> <Gold.Chemscore.Rot>
1.8465

> <Gold.Chemscore.Internal.Correction>
   9.000000E+99

> <Gold.Chemscore.Hbonds>
donor molecule, donor type, donor heavy atom, donor atom, acceptor molecule, acceptor atom, score
      L1  H     3    36       P1  7948  0.81

> <Gold.Chemscore.Hbond.Weighted>
-3.3241

> <Gold.Chemscore.Metal.Weighted>
-0.0000

> <Gold.Chemscore.Lipo.Weighted>
-13.9632

> <Gold.Chemscore.Internal_Hbond.Weighted>
0.0000

> <Gold.Chemscore.DEClash.Weighted>
0.2201

> <Gold.Chemscore.DEInternal.Weighted>
0.3510

> <Gold.Chemscore.Rot.Weighted>
4.7270

> <Gold.Chemscore.Internal.Correction.Weighted>
   9.000000E+99

> <Gold.Protein.RotatedTorsions>
[ 6907 6896 6895 6894 ] final -165.68 input  -60.11 | X-H torsion
[ 7974 7965 7964 7962 ] final  161.11 input  175.53 | X-H torsion
[ 8008 7997 7996 7995 ] final  -28.19 input   59.86 | X-H torsion
[ 10167 10162 10161 10158 ] final   -0.81 input  -65.29 | X-H torsion
[ 10718 10713 10712 10709 ] final  157.98 input   66.30 | X-H torsion
[ 10763 10752 10751 10750 ] final  -46.18 input  -60.55 | X-H torsion
[ 11005 11000 10999 10996 ] final   26.78 input  -57.11 | X-H torsion

> <Gold.Protein.ActiveResidues>
 VAL166  LYS551  ARG553  GLY616  TRP617  ASP618  TYR619  PRO620  LYS621  CYS622 
 ASP623  PHE694  ASN695  SER759  ASP760  ASP761  ALA762  ILE779  LEU786  VAL792 
 PHE793  MET794  SER795  GLU796  ALA797  LYS798  CYS799  TRP800  GLU811  SER814 

> <Gold.Protein.RotatedAtoms>
  151.4315  133.3669  159.2769 H   0  0  0  0  0  0  0  0  0  0  0  0  # atno 6907 bound_to 6896
  150.9222  134.8640  159.7507 H   0  0  0  0  0  0  0  0  0  0  0  0  # atno 6908 bound_to 6896
  152.4987  134.4254  159.9546 H   0  0  0  0  0  0  0  0  0  0  0  0  # atno 6909 bound_to 6896
  144.7702  139.7852  143.6300 H   0  0  0  0  0  0  0  0  0  0  0  0  # atno 7974 bound_to 7965
  154.4343  140.1852  156.1051 H   0  0  0  0  0  0  0  0  0  0  0  0  # atno 8008 bound_to 7997
  156.0261  140.3335  155.7065 H   0  0  0  0  0  0  0  0  0  0  0  0  # atno 8009 bound_to 7997
  155.5906  140.0630  157.2750 H   0  0  0  0  0  0  0  0  0  0  0  0  # atno 8010 bound_to 7997
  140.6783  143.6850  150.8074 H   0  0  0  0  0  0  0  0  0  0  0  0  # atno 10167 bound_to 10162
  157.1842  131.0639  151.2115 H   0  0  0  0  0  0  0  0  0  0  0  0  # atno 10718 bound_to 10713
  154.0408  135.6644  153.4790 H   0  0  0  0  0  0  0  0  0  0  0  0  # atno 10763 bound_to 10752
  153.0502  135.5089  154.7844 H   0  0  0  0  0  0  0  0  0  0  0  0  # atno 10764 bound_to 10752
  154.6819  135.3046  154.9567 H   0  0  0  0  0  0  0  0  0  0  0  0  # atno 10765 bound_to 10752
  140.3333  134.2414  155.7699 H   0  0  0  0  0  0  0  0  0  0  0  0  # atno 11005 bound_to 11000
  146.1843  139.5050  142.9846 LP  0  0  0  0  0  0  0  0  0  0  0  0  # atno 17320 bound_to 7965
  145.6347  141.0297  143.1844 LP  0  0  0  0  0  0  0  0  0  0  0  0  # atno 17321 bound_to 7965
  140.0546  143.5215  152.2657 LP  0  0  0  0  0  0  0  0  0  0  0  0  # atno 17342 bound_to 10162
  139.6089  144.7603  151.2997 LP  0  0  0  0  0  0  0  0  0  0  0  0  # atno 17343 bound_to 10162
  157.3924  130.7289  149.6707 LP  0  0  0  0  0  0  0  0  0  0  0  0  # atno 17370 bound_to 10713
  155.9720  130.4143  150.4125 LP  0  0  0  0  0  0  0  0  0  0  0  0  # atno 17371 bound_to 10713
  141.2058  133.7851  157.0214 LP  0  0  0  0  0  0  0  0  0  0  0  0  # atno 17394 bound_to 11000
  140.0842  134.9630  157.1673 LP  0  0  0  0  0  0  0  0  0  0  0  0  # atno 17395 bound_to 11000

$$$$
