AV-unprocessed.smi:356|AV-procd|sdf|2409|dock4
  -GOLD-   2262022343D 1   1.00000     0.00000
 Structure written by MMmdl.
 41 43  0  0  0  0  0  0  0  0  1 V2000
  151.7948  139.1506  155.2858 C   0  0  0  0  0  0  0  0  0  0  0  0
  151.9294  140.1262  156.4116 C   0  0  0  0  0  0  0  0  0  0  0  0
  152.7935  139.9423  157.4104 N   0  0  0  0  0  0  0  0  0  0  0  0
  152.5816  141.0542  158.2028 C   0  0  0  0  0  0  0  0  0  0  0  0
  153.1904  141.4476  159.4161 C   0  0  0  0  0  0  0  0  0  0  0  0
  152.8027  142.6444  160.0541 C   0  0  0  0  0  0  0  0  0  0  0  0
  151.8032  143.4630  159.4897 C   0  0  0  0  0  0  0  0  0  0  0  0
  151.1839  143.0899  158.2814 C   0  0  0  0  0  0  0  0  0  0  0  0
  151.5746  141.8945  157.6488 C   0  0  0  0  0  0  0  0  0  0  0  0
  151.1772  141.2527  156.4804 N   0  0  0  0  0  0  0  0  0  0  0  0
  150.1584  141.7195  155.5494 C   0  0  0  0  0  0  0  0  0  0  0  0
  148.9671  140.7481  155.4379 C   0  0  1  0  0  0  0  0  0  0  0  0
  148.3811  140.5752  156.7131 O   0  0  0  0  0  0  0  0  0  0  0  0
  147.8901  141.2860  154.4751 C   0  0  0  0  0  0  0  0  0  0  0  0
  146.7695  141.9861  155.1062 N   0  0  0  0  0  0  0  0  0  0  0  0
  145.6854  141.0868  155.4988 C   0  0  0  0  0  0  0  0  0  0  0  0
  144.5070  141.8495  156.1301 C   0  0  0  0  0  0  0  0  0  0  0  0
  144.0399  142.8459  155.2269 O   0  0  0  0  0  0  0  0  0  0  0  0
  145.0572  143.7708  154.8576 C   0  0  0  0  0  0  0  0  0  0  0  0
  146.2321  143.0117  154.2178 C   0  0  0  0  0  0  0  0  0  0  0  0
  152.5346  138.3547  155.3784 H   0  0  0  0  0  0  0  0  0  0  0  0
  151.9484  139.6493  154.3290 H   0  0  0  0  0  0  0  0  0  0  0  0
  150.8022  138.6999  155.2952 H   0  0  0  0  0  0  0  0  0  0  0  0
  153.9569  140.8272  159.8565 H   0  0  0  0  0  0  0  0  0  0  0  0
  153.2747  142.9350  160.9812 H   0  0  0  0  0  0  0  0  0  0  0  0
  151.5124  144.3781  159.9847 H   0  0  0  0  0  0  0  0  0  0  0  0
  150.4187  143.7147  157.8455 H   0  0  0  0  0  0  0  0  0  0  0  0
  149.8183  142.7122  155.8445 H   0  0  0  0  0  0  0  0  0  0  0  0
  150.6290  141.8405  154.5729 H   0  0  0  0  0  0  0  0  0  0  0  0
  149.3413  139.7833  155.0980 H   0  0  0  0  0  0  0  0  0  0  0  0
  147.4487  140.7093  156.6313 H   0  0  0  0  0  0  0  0  0  0  0  0
  148.3793  141.9574  153.7676 H   0  0  0  0  0  0  0  0  0  0  0  0
  147.5013  140.4610  153.8764 H   0  0  0  0  0  0  0  0  0  0  0  0
  145.3305  140.5321  154.6288 H   0  0  0  0  0  0  0  0  0  0  0  0
  146.0406  140.3492  156.2168 H   0  0  0  0  0  0  0  0  0  0  0  0
  143.6903  141.1644  156.3581 H   0  0  0  0  0  0  0  0  0  0  0  0
  144.8074  142.3145  157.0703 H   0  0  0  0  0  0  0  0  0  0  0  0
  144.6439  144.4939  154.1544 H   0  0  0  0  0  0  0  0  0  0  0  0
  145.3891  144.3288  155.7348 H   0  0  0  0  0  0  0  0  0  0  0  0
  147.0167  143.7220  153.9547 H   0  0  0  0  0  0  0  0  0  0  0  0
  145.8995  142.5554  153.2840 H   0  0  0  0  0  0  0  0  0  0  0  0
  1  2  1  0  0  0  0
  1 21  1  0  0  0  0
  1 22  1  0  0  0  0
  1 23  1  0  0  0  0
  2 10  1  0  0  0  0
  2  3  2  0  0  0  0
  3  4  1  0  0  0  0
  4  9  2  0  0  0  0
  4  5  1  0  0  0  0
  5  6  2  0  0  0  0
  5 24  1  0  0  0  0
  6  7  1  0  0  0  0
  6 25  1  0  0  0  0
  7  8  2  0  0  0  0
  7 26  1  0  0  0  0
  8  9  1  0  0  0  0
  8 27  1  0  0  0  0
  9 10  1  0  0  0  0
 10 11  1  0  0  0  0
 11 12  1  0  0  0  0
 11 28  1  0  0  0  0
 11 29  1  0  0  0  0
 12 13  1  0  0  0  0
 12 14  1  0  0  0  0
 12 30  1  0  0  0  0
 13 31  1  0  0  0  0
 14 15  1  0  0  0  0
 14 32  1  0  0  0  0
 14 33  1  0  0  0  0
 15 20  1  0  0  0  0
 15 16  1  0  0  0  0
 16 17  1  0  0  0  0
 16 34  1  0  0  0  0
 16 35  1  0  0  0  0
 17 18  1  0  0  0  0
 17 36  1  0  0  0  0
 17 37  1  0  0  0  0
 18 19  1  0  0  0  0
 19 20  1  0  0  0  0
 19 38  1  0  0  0  0
 19 39  1  0  0  0  0
 20 40  1  0  0  0  0
 20 41  1  0  0  0  0
M  END
> <s_m_source_file>
AV-unprocessed.smi

> <i_m_source_file_index>
356

> <i_lp_mmshare_version>
43012

> <i_f3d_flags>
0

> <s_epik_input>
W2NIXTFbY0hdW2NIXVtjSF1jKGMxMiluKGMobjIpW0NIM10pW0NIMl1bQ0BIXShbT0hdKVtDSDJdTjNbQ0gyXVtDSDJdT1tDSDJdW0NIMl0z

> <s_epik_cmdline>
J2VwaWtfcHl0aG9uJywgJy1waCcsICc3LjAnLCAnLXRuJywgJzgnLCAnLW1hJywgJzIwMCcsICctbWV0YWxfYmluZGluZycsICctaW1hZScsICc8aW5maWxlLm1hZT4nLCAnLW9tYWUnLCAnPG91dGZpbGUubWFlPic=

> <r_epik_Ionization_Penalty>
0.355661

> <r_epik_Ionization_Penalty_Charging>
0

> <r_epik_Ionization_Penalty_Neutral>
0.355661

> <r_epik_State_Penalty>
0.325123

> <r_epik_Charging_Adjusted_Penalty>
0.325123

> <i_epik_Tot_Q>
0

> <i_epik_Tot_abs_Q>
0

> <r_epik_Metal_State_Penalty>
0.239925

> <b_epik_Metal_Only>
0

> <s_lp_Force_Field>
OPLS_2005

> <r_lp_Energy>
29.7319

> <b_lp_Chiralities_Consistent>
1

> <s_lp_Variant>
AV-unprocessed.smi:356-2

> <Gold.Version>
5.8.1

> <Gold.Id.Protein>
6NUR|6NUR_protein|mol2

> <Gold.PLP.Fitness>
39.8947

> <Gold.PLP.PLP>
-38.6117

> <Gold.PLP.part.hbond>
-1.0000

> <Gold.PLP.part.metal>
0.0000

> <Gold.PLP.part.buried>
-5.8977

> <Gold.PLP.part.nonpolar>
-32.1023

> <Gold.PLP.part.repulsive>
0.3113

> <Gold.PLP.ligand.clash>
0.0000

> <Gold.PLP.ligand.torsion>
0.8672

> <Gold.PLP.Chemscore.Hbond>
1.0000

> <Gold.PLP.Chemscore.CHOScore>
0.0000

> <Gold.PLP.Chemscore.Metal>
0.0000

> <Gold.Chemscore.Hbonds>
donor molecule, donor type, donor heavy atom, donor atom, acceptor molecule, acceptor atom, score
      P1  H  7997  8009       L1     3  1.00

> <Gold.PLP.Chemscore.Internal.Correction>
0.0174

> <Gold.Rescore>
     Score         DG    S(hbond)    S(metal)    S(lipo)     H(rot)  DE(clash)    DE(int)     intcor
     13.41     -14.50       0.60        0.00     103.29       1.99       0.12       0.97       ----

> <Gold.Chemscore.Fitness>
13.4102

> <Gold.Chemscore.DG>
-14.4974

> <Gold.Chemscore.ZeroCoef>
-5.4800

> <Gold.Chemscore.Hbond>
0.6041

> <Gold.Chemscore.Metal>
0.0000

> <Gold.Chemscore.Lipo>
103.2888

> <Gold.Chemscore.Internal_Hbond>
0.0000

> <Gold.Chemscore.DEClash>
0.1202

> <Gold.Chemscore.DEInternal>
0.9670

> <Gold.Chemscore.Rot>
1.9863

> <Gold.Chemscore.Internal.Correction>
   9.000000E+99

> <Gold.Chemscore.Hbonds>
donor molecule, donor type, donor heavy atom, donor atom, acceptor molecule, acceptor atom, score
      P1  H  7997  8009       L1     3  0.36

> <Gold.Chemscore.Hbond.Weighted>
-2.0177

> <Gold.Chemscore.Metal.Weighted>
-0.0000

> <Gold.Chemscore.Lipo.Weighted>
-12.0848

> <Gold.Chemscore.Internal_Hbond.Weighted>
0.0000

> <Gold.Chemscore.DEClash.Weighted>
0.1202

> <Gold.Chemscore.DEInternal.Weighted>
0.9670

> <Gold.Chemscore.Rot.Weighted>
5.0850

> <Gold.Chemscore.Internal.Correction.Weighted>
   9.000000E+99

> <Gold.Protein.RotatedTorsions>
[ 6907 6896 6895 6894 ] final  100.86 input  -60.11 | X-H torsion
[ 7974 7965 7964 7962 ] final -176.34 input  175.53 | X-H torsion
[ 8008 7997 7996 7995 ] final  177.50 input   59.86 | X-H torsion
[ 10167 10162 10161 10158 ] final -134.47 input  -65.29 | X-H torsion
[ 10718 10713 10712 10709 ] final  164.01 input   66.30 | X-H torsion
[ 10763 10752 10751 10750 ] final  -61.90 input  -60.55 | X-H torsion
[ 11005 11000 10999 10996 ] final -114.96 input  -57.11 | X-H torsion

> <Gold.Protein.ActiveResidues>
 VAL166  LYS551  ARG553  GLY616  TRP617  ASP618  TYR619  PRO620  LYS621  CYS622 
 ASP623  PHE694  ASN695  SER759  ASP760  ASP761  ALA762  ILE779  LEU786  VAL792 
 PHE793  MET794  SER795  GLU796  ALA797  LYS798  CYS799  TRP800  GLU811  SER814 

> <Gold.Protein.RotatedAtoms>
  152.5363  134.0214  159.7982 H   0  0  0  0  0  0  0  0  0  0  0  0  # atno 6907 bound_to 6896
  151.0399  133.5707  159.2659 H   0  0  0  0  0  0  0  0  0  0  0  0  # atno 6908 bound_to 6896
  151.2681  135.0683  159.9177 H   0  0  0  0  0  0  0  0  0  0  0  0  # atno 6909 bound_to 6896
  144.7127  140.1184  143.6407 H   0  0  0  0  0  0  0  0  0  0  0  0  # atno 7974 bound_to 7965
  156.0649  140.1357  156.9897 H   0  0  0  0  0  0  0  0  0  0  0  0  # atno 8008 bound_to 7997
  154.4501  140.0983  156.6644 H   0  0  0  0  0  0  0  0  0  0  0  0  # atno 8009 bound_to 7997
  155.5319  140.3459  155.4430 H   0  0  0  0  0  0  0  0  0  0  0  0  # atno 8010 bound_to 7997
  139.8877  143.6760  152.2617 H   0  0  0  0  0  0  0  0  0  0  0  0  # atno 10167 bound_to 10162
  157.1005  131.0441  151.2500 H   0  0  0  0  0  0  0  0  0  0  0  0  # atno 10718 bound_to 10713
  154.2916  135.6252  153.5387 H   0  0  0  0  0  0  0  0  0  0  0  0  # atno 10763 bound_to 10752
  152.9852  135.5657  154.5383 H   0  0  0  0  0  0  0  0  0  0  0  0  # atno 10764 bound_to 10752
  154.4995  135.2871  155.1408 H   0  0  0  0  0  0  0  0  0  0  0  0  # atno 10765 bound_to 10752
  141.0518  133.9675  157.2823 H   0  0  0  0  0  0  0  0  0  0  0  0  # atno 11005 bound_to 11000
  145.9393  139.2658  143.1278 LP  0  0  0  0  0  0  0  0  0  0  0  0  # atno 17320 bound_to 7965
  145.9441  140.8958  143.0292 LP  0  0  0  0  0  0  0  0  0  0  0  0  # atno 17321 bound_to 7965
  139.7138  144.7615  151.1068 LP  0  0  0  0  0  0  0  0  0  0  0  0  # atno 17342 bound_to 10162
  140.7732  143.5296  150.9439 LP  0  0  0  0  0  0  0  0  0  0  0  0  # atno 17343 bound_to 10162
  157.4645  130.7672  149.7266 LP  0  0  0  0  0  0  0  0  0  0  0  0  # atno 17370 bound_to 10713
  155.9875  130.3966  150.3162 LP  0  0  0  0  0  0  0  0  0  0  0  0  # atno 17371 bound_to 10713
  139.9357  135.0196  156.8547 LP  0  0  0  0  0  0  0  0  0  0  0  0  # atno 17394 bound_to 11000
  140.6040  134.0145  155.7549 LP  0  0  0  0  0  0  0  0  0  0  0  0  # atno 17395 bound_to 11000

$$$$
