AV-unprocessed.smi:1433|AV-procd|sdf|5847|dock1
  -GOLD-   22720 5513D 1   1.00000     0.00000
 Structure written by MMmdl.
 45 46  0  0  0  0  0  0  0  0  2 V2000
  146.3860  132.1343  150.6101 C   0  0  0  0  0  0  0  0  0  0  0  0
  146.6171  133.4993  151.2681 C   0  0  2  0  0  0  0  0  0  0  0  0
  147.1542  133.3683  152.7048 C   0  0  0  0  0  0  0  0  0  0  0  0
  147.3137  134.7025  153.3450 N   0  3  2  0  0  0  0  0  0  0  0  0
  147.9248  134.6145  154.7122 C   0  0  1  0  0  0  0  0  0  0  0  0
  147.3523  133.3977  155.4765 C   0  0  0  0  0  0  0  0  0  0  0  0
  149.4797  134.5627  154.7020 C   0  0  0  0  0  0  0  0  0  0  0  0
  150.0824  135.7916  154.1970 N   0  0  0  0  0  0  0  0  0  0  0  0
  151.1628  136.3925  154.7192 C   0  0  0  0  0  0  0  0  0  0  0  0
  151.7371  135.9947  155.7325 O   0  0  0  0  0  0  0  0  0  0  0  0
  151.6872  137.6173  153.9700 C   0  0  0  0  0  0  0  0  0  0  0  0
  151.6901  138.7865  154.8314 N   0  0  0  0  0  0  0  0  0  0  0  0
  152.2867  138.9390  156.0658 C   0  0  0  0  0  0  0  0  0  0  0  0
  152.0326  140.2133  156.4854 C   0  0  0  0  0  0  0  0  0  0  0  0
  151.2636  140.7713  155.4263 C   0  0  0  0  0  0  0  0  0  0  0  0
  151.0623  139.9164  154.4364 N   0  0  0  0  0  0  0  0  0  0  0  0
  146.0269  135.4469  153.2620 C   0  0  0  0  0  0  0  0  0  0  0  0
  145.5075  135.5076  151.8126 C   0  0  2  0  0  0  0  0  0  0  0  0
  144.1401  136.1940  151.7189 C   0  0  0  0  0  0  0  0  0  0  0  0
  145.3749  134.1877  151.3036 O   0  0  0  0  0  0  0  0  0  0  0  0
  147.3136  131.5644  150.5505 H   0  0  0  0  0  0  0  0  0  0  0  0
  146.0028  132.2508  149.5960 H   0  0  0  0  0  0  0  0  0  0  0  0
  145.6640  131.5412  151.1723 H   0  0  0  0  0  0  0  0  0  0  0  0
  147.3266  134.0612  150.6580 H   0  0  0  0  0  0  0  0  0  0  0  0
  146.4731  132.7598  153.3022 H   0  0  0  0  0  0  0  0  0  0  0  0
  148.1029  132.8363  152.6699 H   0  0  0  0  0  0  0  0  0  0  0  0
  147.6396  135.5192  155.2515 H   0  0  0  0  0  0  0  0  0  0  0  0
  147.7542  133.3250  156.4871 H   0  0  0  0  0  0  0  0  0  0  0  0
  147.5880  132.4652  154.9626 H   0  0  0  0  0  0  0  0  0  0  0  0
  146.2712  133.4459  155.5934 H   0  0  0  0  0  0  0  0  0  0  0  0
  149.8575  134.3941  155.7110 H   0  0  0  0  0  0  0  0  0  0  0  0
  149.8501  133.7435  154.0843 H   0  0  0  0  0  0  0  0  0  0  0  0
  149.6789  136.1907  153.3613 H   0  0  0  0  0  0  0  0  0  0  0  0
  152.6973  137.4314  153.6012 H   0  0  0  0  0  0  0  0  0  0  0  0
  151.0594  137.8209  153.1014 H   0  0  0  0  0  0  0  0  0  0  0  0
  152.8374  138.1375  156.5361 H   0  0  0  0  0  0  0  0  0  0  0  0
  152.3478  140.6766  157.4086 H   0  0  0  0  0  0  0  0  0  0  0  0
  150.8499  141.7660  155.3474 H   0  0  0  0  0  0  0  0  0  0  0  0
  145.2893  134.9718  153.9112 H   0  0  0  0  0  0  0  0  0  0  0  0
  146.1539  136.4740  153.6024 H   0  0  0  0  0  0  0  0  0  0  0  0
  146.2146  136.0619  151.1926 H   0  0  0  0  0  0  0  0  0  0  0  0
  144.1880  137.2183  152.0891 H   0  0  0  0  0  0  0  0  0  0  0  0
  143.3894  135.6615  152.3037 H   0  0  0  0  0  0  0  0  0  0  0  0
  143.7925  136.2312  150.6862 H   0  0  0  0  0  0  0  0  0  0  0  0
  147.9674  135.2234  152.7781 H   0  0  0  0  0  0  0  0  0  0  0  0
  1  2  1  0  0  0  0
  1 21  1  0  0  0  0
  1 22  1  0  0  0  0
  1 23  1  0  0  0  0
  2 20  1  0  0  0  0
  2  3  1  0  0  0  0
  2 24  1  0  0  0  0
  3  4  1  0  0  0  0
  3 25  1  0  0  0  0
  3 26  1  0  0  0  0
  4  5  1  0  0  0  0
  4 17  1  0  0  0  0
  4 45  1  0  0  0  0
  5  6  1  0  0  0  0
  5  7  1  0  0  0  0
  5 27  1  0  0  0  0
  6 28  1  0  0  0  0
  6 29  1  0  0  0  0
  6 30  1  0  0  0  0
  7  8  1  0  0  0  0
  7 31  1  0  0  0  0
  7 32  1  0  0  0  0
  8  9  1  0  0  0  0
  8 33  1  0  0  0  0
  9 10  2  0  0  0  0
  9 11  1  0  0  0  0
 11 12  1  0  0  0  0
 11 34  1  0  0  0  0
 11 35  1  0  0  0  0
 12 16  1  0  0  0  0
 12 13  1  0  0  0  0
 13 14  2  0  0  0  0
 13 36  1  0  0  0  0
 14 15  1  0  0  0  0
 14 37  1  0  0  0  0
 15 16  2  0  0  0  0
 15 38  1  0  0  0  0
 17 18  1  0  0  0  0
 17 39  1  0  0  0  0
 17 40  1  0  0  0  0
 18 19  1  0  0  0  0
 18 20  1  0  0  0  0
 18 41  1  0  0  0  0
 19 42  1  0  0  0  0
 19 43  1  0  0  0  0
 19 44  1  0  0  0  0
M  CHG  1   4   1
M  END
> <s_m_source_file>
AV-unprocessed.smi

> <i_m_source_file_index>
1433

> <i_lp_mmshare_version>
43012

> <i_f3d_flags>
0

> <s_epik_input>
W0NIM11bQ0BASF0xW0NIMl1OKFtDSDJdW0NASF0oTzEpW0NIM10pW0NASF0oW0NIM10pW0NIMl1bTkhdQyg9TylbQ0gyXW4yW2NIXVtjSF1bY0hdbjI=

> <s_epik_cmdline>
J2VwaWtfcHl0aG9uJywgJy1waCcsICc3LjAnLCAnLXRuJywgJzgnLCAnLW1hJywgJzIwMCcsICctbWV0YWxfYmluZGluZycsICctaW1hZScsICc8aW5maWxlLm1hZT4nLCAnLW9tYWUnLCAnPG91dGZpbGUubWFlPic=

> <r_lp_tautomer_probability>
1

> <r_epik_Ionization_Penalty>
0.748405

> <r_epik_Ionization_Penalty_Charging>
0.748396

> <r_epik_Ionization_Penalty_Neutral>
8.54426e-06

> <r_epik_State_Penalty>
0.775162

> <r_epik_Charging_Adjusted_Penalty>
1.52356

> <i_epik_Tot_Q>
1

> <i_epik_Tot_abs_Q>
1

> <r_epik_Metal_State_Penalty>
0.775167

> <b_epik_Metal_Only>
0

> <s_lp_Force_Field>
OPLS_2005

> <r_lp_Energy>
17.7412

> <b_lp_Chiralities_Consistent>
1

> <s_lp_Variant>
AV-unprocessed.smi:1433-13

> <Gold.Version>
5.8.1

> <Gold.Id.Protein>
6NUR|6NUR_protein|mol2

> <Gold.PLP.Fitness>
45.1902

> <Gold.PLP.PLP>
-31.6769

> <Gold.PLP.part.hbond>
-5.0000

> <Gold.PLP.part.metal>
0.0000

> <Gold.PLP.part.buried>
1.5494

> <Gold.PLP.part.nonpolar>
-27.7689

> <Gold.PLP.part.repulsive>
0.3014

> <Gold.PLP.ligand.clash>
0.0000

> <Gold.PLP.ligand.torsion>
0.7760

> <Gold.PLP.Chemscore.Hbond>
4.9920

> <Gold.PLP.Chemscore.CHOScore>
0.0000

> <Gold.PLP.Chemscore.Metal>
0.0000

> <Gold.Chemscore.Hbonds>
donor molecule, donor type, donor heavy atom, donor atom, acceptor molecule, acceptor atom, score
      L1  H     4    45       P1  7948  2.00
      L1  H     8    33       P1  7948  0.95
      P1  H  7989  7998       L1    16  0.41
      P1  H 10752 10763       L1    10  1.00

> <Gold.PLP.Chemscore.Internal.Correction>
0.0893

> <Gold.Rescore>
     Score         DG    S(hbond)    S(metal)    S(lipo)     H(rot)  DE(clash)    DE(int)     intcor
     16.13     -17.28       2.61        0.00      67.19       1.87       0.23       0.92       ----

> <Gold.Chemscore.Fitness>
16.1268

> <Gold.Chemscore.DG>
-17.2763

> <Gold.Chemscore.ZeroCoef>
-5.4800

> <Gold.Chemscore.Hbond>
2.6081

> <Gold.Chemscore.Metal>
0.0000

> <Gold.Chemscore.Lipo>
67.1906

> <Gold.Chemscore.Internal_Hbond>
0.0000

> <Gold.Chemscore.DEClash>
0.2293

> <Gold.Chemscore.DEInternal>
0.9202

> <Gold.Chemscore.Rot>
1.8657

> <Gold.Chemscore.Internal.Correction>
   9.000000E+99

> <Gold.Chemscore.Hbonds>
donor molecule, donor type, donor heavy atom, donor atom, acceptor molecule, acceptor atom, score
      L1  H     4    45       P1  7948  0.99
      L1  H     8    33       P1  7948  0.21
      P1  H  7989  7998       L1    16  0.02
      P1  H 10752 10763       L1    10  0.30

> <Gold.Chemscore.Hbond.Weighted>
-8.7112

> <Gold.Chemscore.Metal.Weighted>
-0.0000

> <Gold.Chemscore.Lipo.Weighted>
-7.8613

> <Gold.Chemscore.Internal_Hbond.Weighted>
0.0000

> <Gold.Chemscore.DEClash.Weighted>
0.2293

> <Gold.Chemscore.DEInternal.Weighted>
0.9202

> <Gold.Chemscore.Rot.Weighted>
4.7761

> <Gold.Chemscore.Internal.Correction.Weighted>
   9.000000E+99

> <Gold.Protein.RotatedTorsions>
[ 6907 6896 6895 6894 ] final  141.32 input  -60.11 | X-H torsion
[ 7974 7965 7964 7962 ] final    8.28 input  175.53 | X-H torsion
[ 8008 7997 7996 7995 ] final  135.94 input   59.86 | X-H torsion
[ 10167 10162 10161 10158 ] final   90.81 input  -65.29 | X-H torsion
[ 10718 10713 10712 10709 ] final   53.68 input   66.30 | X-H torsion
[ 10763 10752 10751 10750 ] final   93.87 input  -60.55 | X-H torsion
[ 11005 11000 10999 10996 ] final -144.29 input  -57.11 | X-H torsion

> <Gold.Protein.ActiveResidues>
 VAL166  LYS551  ARG553  GLY616  TRP617  ASP618  TYR619  PRO620  LYS621  CYS622 
 ASP623  PHE694  ASN695  SER759  ASP760  ASP761  ALA762  ILE779  LEU786  VAL792 
 PHE793  MET794  SER795  GLU796  ALA797  LYS798  CYS799  TRP800  GLU811  SER814 

> <Gold.Protein.RotatedAtoms>
  152.2324  133.5069  159.5223 H   0  0  0  0  0  0  0  0  0  0  0  0  # atno 6907 bound_to 6896
  150.7041  134.1198  159.4040 H   0  0  0  0  0  0  0  0  0  0  0  0  # atno 6908 bound_to 6896
  151.9120  135.0335  160.0566 H   0  0  0  0  0  0  0  0  0  0  0  0  # atno 6909 bound_to 6896
  146.2418  139.9957  142.8421 H   0  0  0  0  0  0  0  0  0  0  0  0  # atno 7974 bound_to 7965
  156.3004  140.2458  156.3663 H   0  0  0  0  0  0  0  0  0  0  0  0  # atno 8008 bound_to 7997
  154.8830  140.0412  157.1813 H   0  0  0  0  0  0  0  0  0  0  0  0  # atno 8009 bound_to 7997
  154.8676  140.2930  155.5505 H   0  0  0  0  0  0  0  0  0  0  0  0  # atno 8010 bound_to 7997
  139.8437  144.6628  150.9253 H   0  0  0  0  0  0  0  0  0  0  0  0  # atno 10167 bound_to 10162
  157.5188  130.8551  149.8531 H   0  0  0  0  0  0  0  0  0  0  0  0  # atno 10718 bound_to 10713
  153.2352  135.4310  155.0639 H   0  0  0  0  0  0  0  0  0  0  0  0  # atno 10763 bound_to 10752
  154.8315  135.3389  154.6729 H   0  0  0  0  0  0  0  0  0  0  0  0  # atno 10764 bound_to 10752
  153.7154  135.7020  153.5083 H   0  0  0  0  0  0  0  0  0  0  0  0  # atno 10765 bound_to 10752
  140.8039  134.2825  157.4968 H   0  0  0  0  0  0  0  0  0  0  0  0  # atno 11005 bound_to 11000
  145.1462  140.9598  143.4460 LP  0  0  0  0  0  0  0  0  0  0  0  0  # atno 17320 bound_to 7965
  145.0249  139.3391  143.6054 LP  0  0  0  0  0  0  0  0  0  0  0  0  # atno 17321 bound_to 7965
  140.7795  143.3890  151.1344 LP  0  0  0  0  0  0  0  0  0  0  0  0  # atno 17342 bound_to 10162
  139.7534  143.8745  152.3082 LP  0  0  0  0  0  0  0  0  0  0  0  0  # atno 17343 bound_to 10162
  156.0339  130.3757  150.1613 LP  0  0  0  0  0  0  0  0  0  0  0  0  # atno 17370 bound_to 10713
  156.9801  130.9861  151.3439 LP  0  0  0  0  0  0  0  0  0  0  0  0  # atno 17371 bound_to 10713
  139.8719  134.9445  156.3883 LP  0  0  0  0  0  0  0  0  0  0  0  0  # atno 17394 bound_to 11000
  140.9267  133.7607  155.9973 LP  0  0  0  0  0  0  0  0  0  0  0  0  # atno 17395 bound_to 11000

$$$$
