AV-unprocessed.smi:1072|AV-procd|sdf|4688|dock8
  -GOLD-   22720 3203D 1   1.00000     0.00000
 Structure written by MMmdl.
 45 46  0  0  0  0  0  0  0  0  2 V2000
  153.3990  138.8748  154.2215 C   0  0  0  0  0  0  0  0  0  0  0  0
  151.9849  138.4561  154.5626 C   0  0  0  0  0  0  0  0  0  0  0  0
  151.0162  139.2418  154.2820 N   0  0  0  0  0  0  0  0  0  0  0  0
  149.7014  138.8581  154.5964 C   0  0  0  0  0  0  0  0  0  0  0  0
  148.6143  139.8535  154.2297 C   0  0  0  0  0  0  0  0  0  0  0  0
  149.4393  137.6605  155.1942 C   0  0  0  0  0  0  0  0  0  0  0  0
  148.0274  137.2017  155.5588 C   0  0  0  0  0  0  0  0  0  0  0  0
  147.5957  135.8474  154.9907 C   0  0  0  0  0  0  0  0  0  0  0  0
  147.9796  134.8043  155.5194 O   0  0  0  0  0  0  0  0  0  0  0  0
  146.8008  135.8958  153.9061 N   0  0  0  0  0  0  0  0  0  0  0  0
  146.2390  134.7956  153.1098 C   0  0  1  0  0  0  0  0  0  0  0  0
  145.0608  134.2486  153.9442 C   0  0  0  0  0  0  0  0  0  0  0  0
  145.7257  135.3263  151.7424 C   0  0  0  0  0  0  0  0  0  0  0  0
  145.2729  134.2061  150.7887 C   0  0  0  0  0  0  0  0  0  0  0  0
  146.3789  133.1566  150.5776 C   0  0  2  0  0  0  0  0  0  0  0  0
  145.9245  132.0492  149.6164 C   0  0  0  0  0  0  0  0  0  0  0  0
  146.8352  132.5780  151.9290 C   0  0  0  0  0  0  0  0  0  0  0  0
  147.3027  133.6841  152.8921 C   0  0  0  0  0  0  0  0  0  0  0  0
  150.5836  136.7821  155.4975 C   0  0  0  0  0  0  0  0  0  0  0  0
  150.4028  135.6856  156.0257 O   0  0  0  0  0  0  0  0  0  0  0  0
  151.8292  137.2301  155.1696 N   0  5  0  0  0  0  0  0  0  0  0  0
  153.4024  139.7232  153.5359 H   0  0  0  0  0  0  0  0  0  0  0  0
  153.9373  138.0534  153.7472 H   0  0  0  0  0  0  0  0  0  0  0  0
  153.9337  139.1625  155.1270 H   0  0  0  0  0  0  0  0  0  0  0  0
  148.1010  140.2056  155.1244 H   0  0  0  0  0  0  0  0  0  0  0  0
  147.8817  139.3959  153.5649 H   0  0  0  0  0  0  0  0  0  0  0  0
  149.0308  140.7224  153.7188 H   0  0  0  0  0  0  0  0  0  0  0  0
  147.8942  137.1744  156.6404 H   0  0  0  0  0  0  0  0  0  0  0  0
  147.3272  137.9640  155.2152 H   0  0  0  0  0  0  0  0  0  0  0  0
  146.5607  136.8209  153.5809 H   0  0  0  0  0  0  0  0  0  0  0  0
  144.5539  133.4164  153.4579 H   0  0  0  0  0  0  0  0  0  0  0  0
  144.3109  135.0204  154.1222 H   0  0  0  0  0  0  0  0  0  0  0  0
  145.3986  133.8931  154.9184 H   0  0  0  0  0  0  0  0  0  0  0  0
  144.9078  136.0316  151.8956 H   0  0  0  0  0  0  0  0  0  0  0  0
  146.5077  135.8882  151.2325 H   0  0  0  0  0  0  0  0  0  0  0  0
  144.3724  133.7272  151.1735 H   0  0  0  0  0  0  0  0  0  0  0  0
  144.9934  134.6437  149.8298 H   0  0  0  0  0  0  0  0  0  0  0  0
  147.2343  133.6571  150.1213 H   0  0  0  0  0  0  0  0  0  0  0  0
  145.0665  131.5060  150.0139 H   0  0  0  0  0  0  0  0  0  0  0  0
  146.7236  131.3283  149.4420 H   0  0  0  0  0  0  0  0  0  0  0  0
  145.6382  132.4629  148.6491 H   0  0  0  0  0  0  0  0  0  0  0  0
  146.0270  132.0029  152.3812 H   0  0  0  0  0  0  0  0  0  0  0  0
  147.6520  131.8728  151.7704 H   0  0  0  0  0  0  0  0  0  0  0  0
  148.2173  134.1067  152.4774 H   0  0  0  0  0  0  0  0  0  0  0  0
  147.5881  133.2432  153.8481 H   0  0  0  0  0  0  0  0  0  0  0  0
  1  2  1  0  0  0  0
  1 22  1  0  0  0  0
  1 23  1  0  0  0  0
  1 24  1  0  0  0  0
  2 21  1  0  0  0  0
  2  3  2  0  0  0  0
  3  4  1  0  0  0  0
  4  5  1  0  0  0  0
  4  6  2  0  0  0  0
  5 25  1  0  0  0  0
  5 26  1  0  0  0  0
  5 27  1  0  0  0  0
  6  7  1  0  0  0  0
  6 19  1  0  0  0  0
  7  8  1  0  0  0  0
  7 28  1  0  0  0  0
  7 29  1  0  0  0  0
  8  9  2  0  0  0  0
  8 10  1  0  0  0  0
 10 11  1  0  0  0  0
 10 30  1  0  0  0  0
 11 18  1  0  0  0  0
 11 12  1  0  0  0  0
 11 13  1  0  0  0  0
 12 31  1  0  0  0  0
 12 32  1  0  0  0  0
 12 33  1  0  0  0  0
 13 14  1  0  0  0  0
 13 34  1  0  0  0  0
 13 35  1  0  0  0  0
 14 15  1  0  0  0  0
 14 36  1  0  0  0  0
 14 37  1  0  0  0  0
 15 16  1  0  0  0  0
 15 17  1  0  0  0  0
 15 38  1  0  0  0  0
 16 39  1  0  0  0  0
 16 40  1  0  0  0  0
 16 41  1  0  0  0  0
 17 18  1  0  0  0  0
 17 42  1  0  0  0  0
 17 43  1  0  0  0  0
 18 44  1  0  0  0  0
 18 45  1  0  0  0  0
 19 20  2  0  0  0  0
 19 21  1  0  0  0  0
M  CHG  1  21  -1
M  END
> <s_m_source_file>
AV-unprocessed.smi

> <i_m_source_file_index>
1072

> <i_lp_mmshare_version>
43012

> <i_f3d_flags>
0

> <s_epik_input>
W0NIM11jMW5jKFtDSDNdKWMoYyg9TylbbkhdMSlbQ0gyXUMoPU8pW05IXVtDQEBdMihbQ0gzXSlbQ0gyXVtDSDJdW0NAQEhdKFtDSDNdKVtDSDJdW0NIMl0y

> <s_epik_cmdline>
J2VwaWtfcHl0aG9uJywgJy1waCcsICc3LjAnLCAnLXRuJywgJzgnLCAnLW1hJywgJzIwMCcsICctbWV0YWxfYmluZGluZycsICctaW1hZScsICc8aW5maWxlLm1hZT4nLCAnLW9tYWUnLCAnPG91dGZpbGUubWFlPic=

> <r_lp_tautomer_probability>
0.839158

> <r_epik_Ionization_Penalty>
6.73882

> <r_epik_Ionization_Penalty_Charging>
8.02239e-08

> <r_epik_Ionization_Penalty_Neutral>
6.73882

> <r_epik_State_Penalty>
4.55873

> <r_epik_Charging_Adjusted_Penalty>
4.55873

> <i_epik_Tot_Q>
-1

> <i_epik_Tot_abs_Q>
1

> <r_epik_Metal_State_Penalty>
0.872514

> <b_epik_Metal_Only>
1

> <s_lp_Force_Field>
OPLS_2005

> <r_lp_Energy>
18.4266

> <b_lp_Chiralities_Consistent>
1

> <s_lp_Variant>
AV-unprocessed.smi:1072-6

> <Gold.Version>
5.8.1

> <Gold.Id.Protein>
6NUR|6NUR_protein|mol2

> <Gold.PLP.Fitness>
39.4871

> <Gold.PLP.PLP>
-31.7387

> <Gold.PLP.part.hbond>
-3.0000

> <Gold.PLP.part.metal>
0.0000

> <Gold.PLP.part.buried>
-2.2927

> <Gold.PLP.part.nonpolar>
-26.0215

> <Gold.PLP.part.repulsive>
0.3058

> <Gold.PLP.ligand.clash>
0.0000

> <Gold.PLP.ligand.torsion>
0.6274

> <Gold.PLP.Chemscore.Hbond>
3.0000

> <Gold.PLP.Chemscore.CHOScore>
0.0000

> <Gold.PLP.Chemscore.Metal>
0.0000

> <Gold.Chemscore.Hbonds>
donor molecule, donor type, donor heavy atom, donor atom, acceptor molecule, acceptor atom, score
      P1  H  7989  7998       L1     3  1.00
      P1  H 10752 10765       L1    21  1.87

> <Gold.PLP.Chemscore.Internal.Correction>
0.0033

> <Gold.Rescore>
     Score         DG    S(hbond)    S(metal)    S(lipo)     H(rot)  DE(clash)    DE(int)     intcor
     11.45     -15.73       1.65        0.00      71.77       1.43       0.24       4.04       ----

> <Gold.Chemscore.Fitness>
11.4521

> <Gold.Chemscore.DG>
-15.7274

> <Gold.Chemscore.ZeroCoef>
-5.4800

> <Gold.Chemscore.Hbond>
1.6530

> <Gold.Chemscore.Metal>
0.0000

> <Gold.Chemscore.Lipo>
71.7702

> <Gold.Chemscore.Internal_Hbond>
0.0000

> <Gold.Chemscore.DEClash>
0.2390

> <Gold.Chemscore.DEInternal>
4.0363

> <Gold.Chemscore.Rot>
1.4339

> <Gold.Chemscore.Internal.Correction>
   9.000000E+99

> <Gold.Chemscore.Hbonds>
donor molecule, donor type, donor heavy atom, donor atom, acceptor molecule, acceptor atom, score
      P1  H  7989  7998       L1     3  0.78
      P1  H 10752 10765       L1    21  0.54

> <Gold.Chemscore.Hbond.Weighted>
-5.5211

> <Gold.Chemscore.Metal.Weighted>
-0.0000

> <Gold.Chemscore.Lipo.Weighted>
-8.3971

> <Gold.Chemscore.Internal_Hbond.Weighted>
0.0000

> <Gold.Chemscore.DEClash.Weighted>
0.2390

> <Gold.Chemscore.DEInternal.Weighted>
4.0363

> <Gold.Chemscore.Rot.Weighted>
3.6708

> <Gold.Chemscore.Internal.Correction.Weighted>
   9.000000E+99

> <Gold.Protein.RotatedTorsions>
[ 6907 6896 6895 6894 ] final  -89.95 input  -60.11 | X-H torsion
[ 7974 7965 7964 7962 ] final -135.10 input  175.53 | X-H torsion
[ 8008 7997 7996 7995 ] final   27.00 input   59.86 | X-H torsion
[ 10167 10162 10161 10158 ] final  -46.38 input  -65.29 | X-H torsion
[ 10718 10713 10712 10709 ] final  103.75 input   66.30 | X-H torsion
[ 10763 10752 10751 10750 ] final -173.82 input  -60.55 | X-H torsion
[ 11005 11000 10999 10996 ] final  119.02 input  -57.11 | X-H torsion

> <Gold.Protein.ActiveResidues>
 VAL166  LYS551  ARG553  GLY616  TRP617  ASP618  TYR619  PRO620  LYS621  CYS622 
 ASP623  PHE694  ASN695  SER759  ASP760  ASP761  ALA762  ILE779  LEU786  VAL792 
 PHE793  MET794  SER795  GLU796  ALA797  LYS798  CYS799  TRP800  GLU811  SER814 

> <Gold.Protein.RotatedAtoms>
  150.6877  134.2507  159.4509 H   0  0  0  0  0  0  0  0  0  0  0  0  # atno 6907 bound_to 6896
  152.0444  134.9689  160.0583 H   0  0  0  0  0  0  0  0  0  0  0  0  # atno 6908 bound_to 6896
  152.1178  133.4301  159.4698 H   0  0  0  0  0  0  0  0  0  0  0  0  # atno 6909 bound_to 6896
  144.9044  140.6814  143.5064 H   0  0  0  0  0  0  0  0  0  0  0  0  # atno 7974 bound_to 7965
  155.0361  140.3164  155.4741 H   0  0  0  0  0  0  0  0  0  0  0  0  # atno 8008 bound_to 7997
  156.2864  140.2171  156.5426 H   0  0  0  0  0  0  0  0  0  0  0  0  # atno 8009 bound_to 7997
  154.7329  140.0480  157.0730 H   0  0  0  0  0  0  0  0  0  0  0  0  # atno 8010 bound_to 7997
  140.6819  143.2833  151.3775 H   0  0  0  0  0  0  0  0  0  0  0  0  # atno 10167 bound_to 10162
  157.6762  131.0787  150.5602 H   0  0  0  0  0  0  0  0  0  0  0  0  # atno 10718 bound_to 10713
  154.6034  135.2857  155.0510 H   0  0  0  0  0  0  0  0  0  0  0  0  # atno 10763 bound_to 10752
  154.1767  135.6463  153.5027 H   0  0  0  0  0  0  0  0  0  0  0  0  # atno 10764 bound_to 10752
  153.0166  135.5414  154.6762 H   0  0  0  0  0  0  0  0  0  0  0  0  # atno 10765 bound_to 10752
  139.9131  134.9625  156.7592 H   0  0  0  0  0  0  0  0  0  0  0  0  # atno 11005 bound_to 11000
  145.3561  139.1693  143.4408 LP  0  0  0  0  0  0  0  0  0  0  0  0  # atno 17320 bound_to 7965
  146.3126  140.3618  142.8665 LP  0  0  0  0  0  0  0  0  0  0  0  0  # atno 17321 bound_to 7965
  139.6149  144.1024  152.2335 LP  0  0  0  0  0  0  0  0  0  0  0  0  # atno 17342 bound_to 10162
  140.0450  144.5978  150.7381 LP  0  0  0  0  0  0  0  0  0  0  0  0  # atno 17343 bound_to 10162
  156.5905  130.4328  149.5938 LP  0  0  0  0  0  0  0  0  0  0  0  0  # atno 17370 bound_to 10713
  156.2587  130.6949  151.1711 LP  0  0  0  0  0  0  0  0  0  0  0  0  # atno 17371 bound_to 10713
  140.6711  133.9559  155.7857 LP  0  0  0  0  0  0  0  0  0  0  0  0  # atno 17394 bound_to 11000
  141.0577  134.0392  157.3700 LP  0  0  0  0  0  0  0  0  0  0  0  0  # atno 17395 bound_to 11000

$$$$
