AV-unprocessed.smi:416|AV-procd|sdf|2526|dock1
  -GOLD-   2262022483D 1   1.00000     0.00000
 Structure written by MMmdl.
 43 44  0  0  0  0  0  0  0  0  1 V2000
  156.2806  139.8776  165.3755 C   0  0  0  0  0  0  0  0  0  0  0  0
  156.4190  141.3141  165.9190 C   0  0  0  0  0  0  0  0  0  0  0  0
  156.6023  141.2581  167.4502 C   0  0  0  0  0  0  0  0  0  0  0  0
  157.6709  141.9727  165.2921 C   0  0  0  0  0  0  0  0  0  0  0  0
  155.1168  142.0880  165.5984 C   0  0  0  0  0  0  0  0  0  0  0  0
  154.4768  142.6064  166.5145 O   0  0  0  0  0  0  0  0  0  0  0  0
  154.7189  142.1597  164.3162 N   0  0  0  0  0  0  0  0  0  0  0  0
  153.5112  142.8190  163.8293 C   0  0  0  0  0  0  0  0  0  0  0  0
  153.1441  142.4200  162.4092 C   0  0  0  0  0  0  0  0  0  0  0  0
  153.9375  141.5046  161.6903 C   0  0  0  0  0  0  0  0  0  0  0  0
  153.5675  141.1632  160.3754 C   0  0  0  0  0  0  0  0  0  0  0  0
  152.4127  141.7523  159.8064 C   0  0  0  0  0  0  0  0  0  0  0  0
  152.0224  141.4291  158.4878 N   0  0  0  0  0  0  0  0  0  0  0  0
  150.7737  142.0321  158.0270 C   0  0  0  0  0  0  0  0  0  0  0  0
  150.6232  141.8589  156.5060 C   0  0  0  0  0  0  0  0  0  0  0  0
  150.7289  140.4811  156.1640 O   0  0  0  0  0  0  0  0  0  0  0  0
  151.9988  139.9449  156.5193 C   0  0  0  0  0  0  0  0  0  0  0  0
  152.1976  140.0478  158.0408 C   0  0  0  0  0  0  0  0  0  0  0  0
  151.6509  142.6308  160.5042 N   0  0  0  0  0  0  0  0  0  0  0  0
  152.0097  142.9547  161.7640 C   0  0  0  0  0  0  0  0  0  0  0  0
  157.1677  139.2842  165.5996 H   0  0  0  0  0  0  0  0  0  0  0  0
  156.1507  139.8724  164.2923 H   0  0  0  0  0  0  0  0  0  0  0  0
  155.4260  139.3582  165.8115 H   0  0  0  0  0  0  0  0  0  0  0  0
  155.7714  140.7501  167.9422 H   0  0  0  0  0  0  0  0  0  0  0  0
  156.6784  142.2579  167.8799 H   0  0  0  0  0  0  0  0  0  0  0  0
  157.5112  140.7187  167.7189 H   0  0  0  0  0  0  0  0  0  0  0  0
  158.5745  141.4197  165.5509 H   0  0  0  0  0  0  0  0  0  0  0  0
  157.8095  142.9956  165.6455 H   0  0  0  0  0  0  0  0  0  0  0  0
  157.6144  141.9980  164.2029 H   0  0  0  0  0  0  0  0  0  0  0  0
  155.2976  141.7087  163.6223 H   0  0  0  0  0  0  0  0  0  0  0  0
  152.6615  142.6191  164.4840 H   0  0  0  0  0  0  0  0  0  0  0  0
  153.6799  143.8953  163.8739 H   0  0  0  0  0  0  0  0  0  0  0  0
  154.8156  141.0627  162.1379 H   0  0  0  0  0  0  0  0  0  0  0  0
  154.1629  140.4472  159.8292 H   0  0  0  0  0  0  0  0  0  0  0  0
  149.9407  141.5511  158.5411 H   0  0  0  0  0  0  0  0  0  0  0  0
  150.7231  143.0931  158.2658 H   0  0  0  0  0  0  0  0  0  0  0  0
  149.6521  142.2315  156.1804 H   0  0  0  0  0  0  0  0  0  0  0  0
  151.3802  142.4364  155.9727 H   0  0  0  0  0  0  0  0  0  0  0  0
  152.0447  138.9025  156.2043 H   0  0  0  0  0  0  0  0  0  0  0  0
  152.7910  140.4735  155.9867 H   0  0  0  0  0  0  0  0  0  0  0  0
  153.1957  139.6904  158.2975 H   0  0  0  0  0  0  0  0  0  0  0  0
  151.4788  139.4079  158.5549 H   0  0  0  0  0  0  0  0  0  0  0  0
  151.3701  143.6648  162.2661 H   0  0  0  0  0  0  0  0  0  0  0  0
  1  2  1  0  0  0  0
  1 21  1  0  0  0  0
  1 22  1  0  0  0  0
  1 23  1  0  0  0  0
  2  3  1  0  0  0  0
  2  4  1  0  0  0  0
  2  5  1  0  0  0  0
  3 24  1  0  0  0  0
  3 25  1  0  0  0  0
  3 26  1  0  0  0  0
  4 27  1  0  0  0  0
  4 28  1  0  0  0  0
  4 29  1  0  0  0  0
  5  6  2  0  0  0  0
  5  7  1  0  0  0  0
  7  8  1  0  0  0  0
  7 30  1  0  0  0  0
  8  9  1  0  0  0  0
  8 31  1  0  0  0  0
  8 32  1  0  0  0  0
  9 20  1  0  0  0  0
  9 10  2  0  0  0  0
 10 11  1  0  0  0  0
 10 33  1  0  0  0  0
 11 12  2  0  0  0  0
 11 34  1  0  0  0  0
 12 13  1  0  0  0  0
 12 19  1  0  0  0  0
 13 18  1  0  0  0  0
 13 14  1  0  0  0  0
 14 15  1  0  0  0  0
 14 35  1  0  0  0  0
 14 36  1  0  0  0  0
 15 16  1  0  0  0  0
 15 37  1  0  0  0  0
 15 38  1  0  0  0  0
 16 17  1  0  0  0  0
 17 18  1  0  0  0  0
 17 39  1  0  0  0  0
 17 40  1  0  0  0  0
 18 41  1  0  0  0  0
 18 42  1  0  0  0  0
 19 20  2  0  0  0  0
 20 43  1  0  0  0  0
M  END
> <s_m_source_file>
AV-unprocessed.smi

> <i_m_source_file_index>
416

> <i_lp_mmshare_version>
43012

> <i_f3d_flags>
0

> <s_epik_input>
W0NIM11DKFtDSDNdKShbQ0gzXSlDKD1PKVtOSF1bQ0gyXWMxW2NIXVtjSF1jKG5bY0hdMSlOMltDSDJdW0NIMl1PW0NIMl1bQ0gyXTI=

> <s_epik_cmdline>
J2VwaWtfcHl0aG9uJywgJy1waCcsICc3LjAnLCAnLXRuJywgJzgnLCAnLW1hJywgJzIwMCcsICctbWV0YWxfYmluZGluZycsICctaW1hZScsICc8aW5maWxlLm1hZT4nLCAnLW9tYWUnLCAnPG91dGZpbGUubWFlPic=

> <r_lp_tautomer_probability>
1

> <r_epik_Ionization_Penalty>
0.00522353

> <r_epik_Ionization_Penalty_Charging>
0

> <r_epik_Ionization_Penalty_Neutral>
0.00522353

> <r_epik_State_Penalty>
0.0038086

> <r_epik_Charging_Adjusted_Penalty>
0.0038086

> <i_epik_Tot_Q>
0

> <i_epik_Tot_abs_Q>
0

> <r_epik_Metal_State_Penalty>
-0

> <b_epik_Metal_Only>
0

> <s_lp_Force_Field>
OPLS_2005

> <r_lp_Energy>
22.6444

> <b_lp_Chiralities_Consistent>
1

> <s_lp_Variant>
AV-unprocessed.smi:416-1

> <Gold.Version>
5.8.1

> <Gold.Id.Protein>
6NUR|6NUR_protein|mol2

> <Gold.PLP.Fitness>
42.9955

> <Gold.PLP.PLP>
-43.6026

> <Gold.PLP.part.hbond>
-1.9821

> <Gold.PLP.part.metal>
0.0000

> <Gold.PLP.part.buried>
-7.6467

> <Gold.PLP.part.nonpolar>
-33.7931

> <Gold.PLP.part.repulsive>
0.1578

> <Gold.PLP.ligand.clash>
0.0000

> <Gold.PLP.ligand.torsion>
0.4833

> <Gold.PLP.Chemscore.Hbond>
0.0000

> <Gold.PLP.Chemscore.CHOScore>
0.0000

> <Gold.PLP.Chemscore.Metal>
0.0000

> <Gold.PLP.Chemscore.Internal.Correction>
0.3595

> <Gold.Rescore>
     Score         DG    S(hbond)    S(metal)    S(lipo)     H(rot)  DE(clash)    DE(int)     intcor
     12.63     -13.25       0.00        0.00      99.65       1.52       0.15       0.47       ----

> <Gold.Chemscore.Fitness>
12.6328

> <Gold.Chemscore.DG>
-13.2548

> <Gold.Chemscore.ZeroCoef>
-5.4800

> <Gold.Chemscore.Hbond>
0.0000

> <Gold.Chemscore.Metal>
0.0000

> <Gold.Chemscore.Lipo>
99.6506

> <Gold.Chemscore.Internal_Hbond>
0.0000

> <Gold.Chemscore.DEClash>
0.1517

> <Gold.Chemscore.DEInternal>
0.4703

> <Gold.Chemscore.Rot>
1.5173

> <Gold.Chemscore.Internal.Correction>
   9.000000E+99

> <Gold.Chemscore.Hbond.Weighted>
-0.0000

> <Gold.Chemscore.Metal.Weighted>
-0.0000

> <Gold.Chemscore.Lipo.Weighted>
-11.6591

> <Gold.Chemscore.Internal_Hbond.Weighted>
0.0000

> <Gold.Chemscore.DEClash.Weighted>
0.1517

> <Gold.Chemscore.DEInternal.Weighted>
0.4703

> <Gold.Chemscore.Rot.Weighted>
3.8843

> <Gold.Chemscore.Internal.Correction.Weighted>
   9.000000E+99

> <Gold.Protein.RotatedTorsions>
[ 6907 6896 6895 6894 ] final   13.35 input  -60.11 | X-H torsion
[ 7974 7965 7964 7962 ] final  170.37 input  175.53 | X-H torsion
[ 8008 7997 7996 7995 ] final  114.77 input   59.86 | X-H torsion
[ 10167 10162 10161 10158 ] final   21.42 input  -65.29 | X-H torsion
[ 10718 10713 10712 10709 ] final  176.75 input   66.30 | X-H torsion
[ 10763 10752 10751 10750 ] final  -82.18 input  -60.55 | X-H torsion
[ 11005 11000 10999 10996 ] final  103.84 input  -57.11 | X-H torsion

> <Gold.Protein.ActiveResidues>
 VAL166  LYS551  ARG553  GLY616  TRP617  ASP618  TYR619  PRO620  LYS621  CYS622 
 ASP623  PHE694  ASN695  SER759  ASP760  ASP761  ALA762  ILE779  LEU786  VAL792 
 PHE793  MET794  SER795  GLU796  ALA797  LYS798  CYS799  TRP800  GLU811  SER814 

> <Gold.Protein.RotatedAtoms>
  151.7849  135.0751  160.0378 H   0  0  0  0  0  0  0  0  0  0  0  0  # atno 6907 bound_to 6896
  152.3197  133.5836  159.5744 H   0  0  0  0  0  0  0  0  0  0  0  0  # atno 6908 bound_to 6896
  150.7363  133.9945  159.3660 H   0  0  0  0  0  0  0  0  0  0  0  0  # atno 6909 bound_to 6896
  144.7326  139.9192  143.6419 H   0  0  0  0  0  0  0  0  0  0  0  0  # atno 7974 bound_to 7965
  156.2341  140.2952  156.0266 H   0  0  0  0  0  0  0  0  0  0  0  0  # atno 8008 bound_to 7997
  155.2141  140.0413  157.2955 H   0  0  0  0  0  0  0  0  0  0  0  0  # atno 8009 bound_to 7997
  154.6048  140.2436  155.7753 H   0  0  0  0  0  0  0  0  0  0  0  0  # atno 8010 bound_to 7997
  140.5428  143.9647  150.6529 H   0  0  0  0  0  0  0  0  0  0  0  0  # atno 10167 bound_to 10162
  156.9156  130.9924  151.3013 H   0  0  0  0  0  0  0  0  0  0  0  0  # atno 10718 bound_to 10713
  154.5726  135.5600  153.7110 H   0  0  0  0  0  0  0  0  0  0  0  0  # atno 10763 bound_to 10752
  153.0054  135.6301  154.2093 H   0  0  0  0  0  0  0  0  0  0  0  0  # atno 10764 bound_to 10752
  154.2032  135.2877  155.2963 H   0  0  0  0  0  0  0  0  0  0  0  0  # atno 10765 bound_to 10752
  139.8787  134.9278  156.5271 H   0  0  0  0  0  0  0  0  0  0  0  0  # atno 11005 bound_to 11000
  146.0943  139.3934  143.0386 LP  0  0  0  0  0  0  0  0  0  0  0  0  # atno 17320 bound_to 7965
  145.7668  140.9913  143.1171 LP  0  0  0  0  0  0  0  0  0  0  0  0  # atno 17321 bound_to 7965
  140.3052  143.3234  152.0933 LP  0  0  0  0  0  0  0  0  0  0  0  0  # atno 17342 bound_to 10162
  139.4995  144.6671  151.6329 LP  0  0  0  0  0  0  0  0  0  0  0  0  # atno 17343 bound_to 10162
  157.5940  130.8464  149.8701 LP  0  0  0  0  0  0  0  0  0  0  0  0  # atno 17370 bound_to 10713
  156.0515  130.3716  150.1190 LP  0  0  0  0  0  0  0  0  0  0  0  0  # atno 17371 bound_to 10713
  140.8408  133.8206  155.9073 LP  0  0  0  0  0  0  0  0  0  0  0  0  # atno 17394 bound_to 11000
  140.9239  134.2107  157.4908 LP  0  0  0  0  0  0  0  0  0  0  0  0  # atno 17395 bound_to 11000

$$$$
