AV-unprocessed.smi:1769|AV-procd|sdf|7153|dock1
  -GOLD-   22720 8393D 1   1.00000     0.00000
 Structure written by MMmdl.
 42 43  0  0  0  0  0  0  0  0  2 V2000
  152.1314  145.3808  160.2342 C   0  0  0  0  0  0  0  0  0  0  0  0
  152.1177  144.0339  159.5076 C   0  0  0  0  0  0  0  0  0  0  0  0
  152.0766  144.0411  158.2772 O   0  0  0  0  0  0  0  0  0  0  0  0
  152.1561  142.8898  160.2323 N   0  0  0  0  0  0  0  0  0  0  0  0
  152.2857  142.8141  161.6932 C   0  0  0  0  0  0  0  0  0  0  0  0
  153.6950  142.2997  162.0357 C   0  0  0  0  0  0  0  0  0  0  0  0
  153.9660  140.9439  161.3561 C   0  0  0  0  0  0  0  0  0  0  0  0
  153.6497  140.9857  159.8417 C   0  0  1  0  0  0  0  0  0  0  0  0
  153.7859  139.5951  159.2079 C   0  0  0  0  0  0  0  0  0  0  0  0
  154.6407  138.8074  159.6147 O   0  0  0  0  0  0  0  0  0  0  0  0
  152.9377  139.3048  158.2091 N   0  0  0  0  0  0  0  0  0  0  0  0
  152.9100  138.0427  157.4798 C   0  0  0  0  0  0  0  0  0  0  0  0
  153.1004  138.2603  155.9698 C   0  0  0  0  0  0  0  0  0  0  0  0
  151.8284  138.7371  155.2966 C   0  0  0  0  0  0  0  0  0  0  0  0
  151.2475  139.9731  155.6571 C   0  0  0  0  0  0  0  0  0  0  0  0
  150.0663  140.3962  155.0127 C   0  0  0  0  0  0  0  0  0  0  0  0
  149.4928  139.5737  154.0214 C   0  0  0  0  0  0  0  0  0  0  0  0
  150.0773  138.3974  153.7028 N   0  3  0  0  0  0  0  0  0  0  0  0
  151.2083  137.9568  154.2968 C   0  0  0  0  0  0  0  0  0  0  0  0
  152.2336  141.5610  159.6123 C   0  0  0  0  0  0  0  0  0  0  0  0
  153.0248  145.4791  160.8515 H   0  0  0  0  0  0  0  0  0  0  0  0
  151.2493  145.4880  160.8658 H   0  0  0  0  0  0  0  0  0  0  0  0
  152.1306  146.2034  159.5184 H   0  0  0  0  0  0  0  0  0  0  0  0
  152.1022  143.7608  162.1990 H   0  0  0  0  0  0  0  0  0  0  0  0
  151.5337  142.1267  162.0837 H   0  0  0  0  0  0  0  0  0  0  0  0
  154.4382  143.0285  161.7093 H   0  0  0  0  0  0  0  0  0  0  0  0
  153.8082  142.2041  163.1159 H   0  0  0  0  0  0  0  0  0  0  0  0
  155.0044  140.6519  161.5180 H   0  0  0  0  0  0  0  0  0  0  0  0
  153.3538  140.1830  161.8431 H   0  0  0  0  0  0  0  0  0  0  0  0
  154.3685  141.6542  159.3635 H   0  0  0  0  0  0  0  0  0  0  0  0
  152.2629  140.0063  157.9395 H   0  0  0  0  0  0  0  0  0  0  0  0
  153.6770  137.3710  157.8698 H   0  0  0  0  0  0  0  0  0  0  0  0
  151.9506  137.5609  157.6695 H   0  0  0  0  0  0  0  0  0  0  0  0
  153.8931  138.9890  155.7944 H   0  0  0  0  0  0  0  0  0  0  0  0
  153.4235  137.3349  155.4908 H   0  0  0  0  0  0  0  0  0  0  0  0
  151.7020  140.5920  156.4174 H   0  0  0  0  0  0  0  0  0  0  0  0
  149.6082  141.3386  155.2749 H   0  0  0  0  0  0  0  0  0  0  0  0
  148.5921  139.8190  153.4777 H   0  0  0  0  0  0  0  0  0  0  0  0
  151.5802  137.0017  153.9549 H   0  0  0  0  0  0  0  0  0  0  0  0
  151.4776  140.9140  160.0611 H   0  0  0  0  0  0  0  0  0  0  0  0
  152.0035  141.5847  158.5458 H   0  0  0  0  0  0  0  0  0  0  0  0
  149.6461  137.8177  152.9824 H   0  0  0  0  0  0  0  0  0  0  0  0
  1  2  1  0  0  0  0
  1 21  1  0  0  0  0
  1 22  1  0  0  0  0
  1 23  1  0  0  0  0
  2  3  2  0  0  0  0
  2  4  1  0  0  0  0
  4 20  1  0  0  0  0
  4  5  1  0  0  0  0
  5  6  1  0  0  0  0
  5 24  1  0  0  0  0
  5 25  1  0  0  0  0
  6  7  1  0  0  0  0
  6 26  1  0  0  0  0
  6 27  1  0  0  0  0
  7  8  1  0  0  0  0
  7 28  1  0  0  0  0
  7 29  1  0  0  0  0
  8  9  1  0  0  0  0
  8 20  1  0  0  0  0
  8 30  1  0  0  0  0
  9 10  2  0  0  0  0
  9 11  1  0  0  0  0
 11 12  1  0  0  0  0
 11 31  1  0  0  0  0
 12 13  1  0  0  0  0
 12 32  1  0  0  0  0
 12 33  1  0  0  0  0
 13 14  1  0  0  0  0
 13 34  1  0  0  0  0
 13 35  1  0  0  0  0
 14 19  1  0  0  0  0
 14 15  2  0  0  0  0
 15 16  1  0  0  0  0
 15 36  1  0  0  0  0
 16 17  2  0  0  0  0
 16 37  1  0  0  0  0
 17 18  1  0  0  0  0
 17 38  1  0  0  0  0
 18 19  2  0  0  0  0
 18 42  1  0  0  0  0
 19 39  1  0  0  0  0
 20 40  1  0  0  0  0
 20 41  1  0  0  0  0
M  CHG  1  18   1
M  END
> <s_m_source_file>
AV-unprocessed.smi

> <i_m_source_file_index>
1769

> <i_lp_mmshare_version>
43012

> <i_f3d_flags>
0

> <s_epik_input>
W0NIM11DKD1PKU4xW0NIMl1bQ0gyXVtDSDJdW0NASF0oW0NIMl0xKUMoPU8pW05IXVtDSDJdW0NIMl1jMltjSF1bY0hdW2NIXW5bY0hdMg==

> <s_epik_cmdline>
J2VwaWtfcHl0aG9uJywgJy1waCcsICc3LjAnLCAnLXRuJywgJzgnLCAnLW1hJywgJzIwMCcsICctbWV0YWxfYmluZGluZycsICctaW1hZScsICc8aW5maWxlLm1hZT4nLCAnLW9tYWUnLCAnPG91dGZpbGUubWFlPic=

> <r_epik_Ionization_Penalty>
2.25127

> <r_epik_Ionization_Penalty_Charging>
2.25127

> <r_epik_Ionization_Penalty_Neutral>
1.02261e-06

> <r_epik_State_Penalty>
2.39841

> <r_epik_Charging_Adjusted_Penalty>
4.64968

> <i_epik_Tot_Q>
1

> <i_epik_Tot_abs_Q>
1

> <r_epik_Metal_State_Penalty>
2.41159

> <b_epik_Metal_Only>
0

> <s_lp_Force_Field>
OPLS_2005

> <r_lp_Energy>
29.7946

> <b_lp_Chiralities_Consistent>
1

> <s_lp_Variant>
AV-unprocessed.smi:1769-3

> <Gold.Version>
5.8.1

> <Gold.Id.Protein>
6NUR|6NUR_protein|mol2

> <Gold.PLP.Fitness>
49.2527

> <Gold.PLP.PLP>
-44.7854

> <Gold.PLP.part.hbond>
-1.9388

> <Gold.PLP.part.metal>
0.0000

> <Gold.PLP.part.buried>
-1.2614

> <Gold.PLP.part.nonpolar>
-40.7481

> <Gold.PLP.part.repulsive>
0.2270

> <Gold.PLP.ligand.clash>
0.0490

> <Gold.PLP.ligand.torsion>
0.7792

> <Gold.PLP.Chemscore.Hbond>
2.0000

> <Gold.PLP.Chemscore.CHOScore>
0.0000

> <Gold.PLP.Chemscore.Metal>
0.0000

> <Gold.Chemscore.Hbonds>
donor molecule, donor type, donor heavy atom, donor atom, acceptor molecule, acceptor atom, score
      L1  H    18    42       P1  7948  2.00

> <Gold.PLP.Chemscore.Internal.Correction>
0.0747

> <Gold.Rescore>
     Score         DG    S(hbond)    S(metal)    S(lipo)     H(rot)  DE(clash)    DE(int)     intcor
     16.53     -17.09       0.96        0.00     107.04       1.61       0.04       0.52       ----

> <Gold.Chemscore.Fitness>
16.5298

> <Gold.Chemscore.DG>
-17.0943

> <Gold.Chemscore.ZeroCoef>
-5.4800

> <Gold.Chemscore.Hbond>
0.9618

> <Gold.Chemscore.Metal>
0.0000

> <Gold.Chemscore.Lipo>
107.0400

> <Gold.Chemscore.Internal_Hbond>
0.0000

> <Gold.Chemscore.DEClash>
0.0407

> <Gold.Chemscore.DEInternal>
0.5238

> <Gold.Chemscore.Rot>
1.6100

> <Gold.Chemscore.Internal.Correction>
   9.000000E+99

> <Gold.Chemscore.Hbonds>
donor molecule, donor type, donor heavy atom, donor atom, acceptor molecule, acceptor atom, score
      L1  H    18    42       P1  7948  0.66

> <Gold.Chemscore.Hbond.Weighted>
-3.2123

> <Gold.Chemscore.Metal.Weighted>
-0.0000

> <Gold.Chemscore.Lipo.Weighted>
-12.5237

> <Gold.Chemscore.Internal_Hbond.Weighted>
0.0000

> <Gold.Chemscore.DEClash.Weighted>
0.0407

> <Gold.Chemscore.DEInternal.Weighted>
0.5238

> <Gold.Chemscore.Rot.Weighted>
4.1216

> <Gold.Chemscore.Internal.Correction.Weighted>
   9.000000E+99

> <Gold.Protein.RotatedTorsions>
[ 6907 6896 6895 6894 ] final  145.25 input  -60.11 | X-H torsion
[ 7974 7965 7964 7962 ] final -179.78 input  175.53 | X-H torsion
[ 8008 7997 7996 7995 ] final  -84.60 input   59.86 | X-H torsion
[ 10167 10162 10161 10158 ] final  144.23 input  -65.29 | X-H torsion
[ 10718 10713 10712 10709 ] final   99.11 input   66.30 | X-H torsion
[ 10763 10752 10751 10750 ] final  -43.52 input  -60.55 | X-H torsion
[ 11005 11000 10999 10996 ] final  126.42 input  -57.11 | X-H torsion

> <Gold.Protein.ActiveResidues>
 VAL166  LYS551  ARG553  GLY616  TRP617  ASP618  TYR619  PRO620  LYS621  CYS622 
 ASP623  PHE694  ASN695  SER759  ASP760  ASP761  ALA762  ILE779  LEU786  VAL792 
 PHE793  MET794  SER795  GLU796  ALA797  LYS798  CYS799  TRP800  GLU811  SER814 

> <Gold.Protein.RotatedAtoms>
  152.1833  133.4722  159.4969 H   0  0  0  0  0  0  0  0  0  0  0  0  # atno 6907 bound_to 6896
  150.6938  134.1806  159.4256 H   0  0  0  0  0  0  0  0  0  0  0  0  # atno 6908 bound_to 6896
  151.9718  135.0073  160.0604 H   0  0  0  0  0  0  0  0  0  0  0  0  # atno 6909 bound_to 6896
  144.7139  140.0666  143.6431 H   0  0  0  0  0  0  0  0  0  0  0  0  # atno 7974 bound_to 7965
  154.6316  140.0603  156.9739 H   0  0  0  0  0  0  0  0  0  0  0  0  # atno 8008 bound_to 7997
  155.1657  140.3286  155.4384 H   0  0  0  0  0  0  0  0  0  0  0  0  # atno 8009 bound_to 7997
  156.2486  140.1923  156.6762 H   0  0  0  0  0  0  0  0  0  0  0  0  # atno 8010 bound_to 7997
  139.4951  144.5986  151.6530 H   0  0  0  0  0  0  0  0  0  0  0  0  # atno 10167 bound_to 10162
  157.6882  131.0660  150.4899 H   0  0  0  0  0  0  0  0  0  0  0  0  # atno 10718 bound_to 10713
  153.9970  135.6698  153.4757 H   0  0  0  0  0  0  0  0  0  0  0  0  # atno 10763 bound_to 10752
  153.0679  135.4990  154.8238 H   0  0  0  0  0  0  0  0  0  0  0  0  # atno 10764 bound_to 10752
  154.7076  135.3091  154.9210 H   0  0  0  0  0  0  0  0  0  0  0  0  # atno 10765 bound_to 10752
  139.9455  134.9630  156.8704 H   0  0  0  0  0  0  0  0  0  0  0  0  # atno 11005 bound_to 11000
  145.9819  139.2947  143.1037 LP  0  0  0  0  0  0  0  0  0  0  0  0  # atno 17320 bound_to 7965
  145.9001  140.9248  143.0507 LP  0  0  0  0  0  0  0  0  0  0  0  0  # atno 17321 bound_to 7965
  140.5630  144.0237  150.6179 LP  0  0  0  0  0  0  0  0  0  0  0  0  # atno 17342 bound_to 10162
  140.3329  143.3066  152.0668 LP  0  0  0  0  0  0  0  0  0  0  0  0  # atno 17343 bound_to 10162
  156.5226  130.4165  149.6243 LP  0  0  0  0  0  0  0  0  0  0  0  0  # atno 17370 bound_to 10713
  156.3141  130.7245  151.2143 LP  0  0  0  0  0  0  0  0  0  0  0  0  # atno 17371 bound_to 10713
  140.5845  134.0320  155.7476 LP  0  0  0  0  0  0  0  0  0  0  0  0  # atno 17394 bound_to 11000
  141.1104  133.9625  157.2920 LP  0  0  0  0  0  0  0  0  0  0  0  0  # atno 17395 bound_to 11000

$$$$
