AV-unprocessed.smi:760|AV-procd|sdf|3627|dock6
  -GOLD-   22720 1 23D 1   1.00000     0.00000
 Structure written by MMmdl.
 44 45  0  0  0  0  0  0  0  0  2 V2000
  143.4622  142.3569  155.3669 C   0  0  0  0  0  0  0  0  0  0  0  0
  144.4763  143.2343  155.4458 C   0  0  0  0  0  0  0  0  0  0  0  0
  144.4010  144.4706  156.3244 C   0  0  0  0  0  0  0  0  0  0  0  0
  145.7757  143.0243  154.6832 C   0  0  0  0  0  0  0  0  0  0  0  0
  145.8913  141.6634  154.0959 N   0  3  2  0  0  0  0  0  0  0  0  0
  146.2574  140.6569  155.1264 C   0  0  0  0  0  0  0  0  0  0  0  0
  146.2326  139.2300  154.5551 C   0  0  0  0  0  0  0  0  0  0  0  0
  147.1647  139.1058  153.3410 C   0  0  1  0  0  0  0  0  0  0  0  0
  147.0644  137.7641  152.7738 N   0  0  0  0  0  0  0  0  0  0  0  0
  145.9185  137.1060  152.5463 C   0  0  0  0  0  0  0  0  0  0  0  0
  144.8064  137.5713  152.7950 O   0  0  0  0  0  0  0  0  0  0  0  0
  146.1496  135.8903  152.0252 N   0  0  0  0  0  0  0  0  0  0  0  0
  145.1866  134.9195  151.6530 C   0  0  0  0  0  0  0  0  0  0  0  0
  143.9613  134.5724  152.2900 C   0  0  0  0  0  0  0  0  0  0  0  0
  143.3370  133.6106  151.6267 N   0  0  0  0  0  0  0  0  0  0  0  0
  144.1406  133.3309  150.5721 N   0  0  0  0  0  0  0  0  0  0  0  0
  143.7431  132.3070  149.6297 C   0  0  0  0  0  0  0  0  0  0  0  0
  145.2771  134.1145  150.5574 C   0  0  0  0  0  0  0  0  0  0  0  0
  146.7855  140.1716  152.2980 C   0  0  0  0  0  0  0  0  0  0  0  0
  146.7849  141.5832  152.9090 C   0  0  0  0  0  0  0  0  0  0  0  0
  142.5461  142.5055  155.9201 H   0  0  0  0  0  0  0  0  0  0  0  0
  143.5326  141.4747  154.7473 H   0  0  0  0  0  0  0  0  0  0  0  0
  145.1401  144.4045  157.1230 H   0  0  0  0  0  0  0  0  0  0  0  0
  143.4176  144.5696  156.7854 H   0  0  0  0  0  0  0  0  0  0  0  0
  144.5992  145.3794  155.7583 H   0  0  0  0  0  0  0  0  0  0  0  0
  145.8885  143.7855  153.9095 H   0  0  0  0  0  0  0  0  0  0  0  0
  146.5958  143.1764  155.3869 H   0  0  0  0  0  0  0  0  0  0  0  0
  147.2484  140.8850  155.5225 H   0  0  0  0  0  0  0  0  0  0  0  0
  145.5611  140.7167  155.9639 H   0  0  0  0  0  0  0  0  0  0  0  0
  146.5282  138.5194  155.3282 H   0  0  0  0  0  0  0  0  0  0  0  0
  145.2114  138.9713  154.2704 H   0  0  0  0  0  0  0  0  0  0  0  0
  148.1899  139.2787  153.6751 H   0  0  0  0  0  0  0  0  0  0  0  0
  147.9305  137.3027  152.5368 H   0  0  0  0  0  0  0  0  0  0  0  0
  147.1144  135.6300  151.8817 H   0  0  0  0  0  0  0  0  0  0  0  0
  143.5062  134.9697  153.1849 H   0  0  0  0  0  0  0  0  0  0  0  0
  144.5690  132.0788  148.9551 H   0  0  0  0  0  0  0  0  0  0  0  0
  142.8923  132.6568  149.0444 H   0  0  0  0  0  0  0  0  0  0  0  0
  143.4619  131.3987  150.1639 H   0  0  0  0  0  0  0  0  0  0  0  0
  146.0310  134.0320  149.7883 H   0  0  0  0  0  0  0  0  0  0  0  0
  147.4780  140.1394  151.4560 H   0  0  0  0  0  0  0  0  0  0  0  0
  145.7968  139.9553  151.8904 H   0  0  0  0  0  0  0  0  0  0  0  0
  146.4526  142.2793  152.1405 H   0  0  0  0  0  0  0  0  0  0  0  0
  147.7978  141.8742  153.1920 H   0  0  0  0  0  0  0  0  0  0  0  0
  144.9659  141.4162  153.7751 H   0  0  0  0  0  0  0  0  0  0  0  0
  1  2  2  0  0  0  0
  1 21  1  0  0  0  0
  1 22  1  0  0  0  0
  2  3  1  0  0  0  0
  2  4  1  0  0  0  0
  3 23  1  0  0  0  0
  3 24  1  0  0  0  0
  3 25  1  0  0  0  0
  4  5  1  0  0  0  0
  4 26  1  0  0  0  0
  4 27  1  0  0  0  0
  5 20  1  0  0  0  0
  5  6  1  0  0  0  0
  5 44  1  0  0  0  0
  6  7  1  0  0  0  0
  6 28  1  0  0  0  0
  6 29  1  0  0  0  0
  7  8  1  0  0  0  0
  7 30  1  0  0  0  0
  7 31  1  0  0  0  0
  8  9  1  0  0  0  0
  8 19  1  0  0  0  0
  8 32  1  0  0  0  0
  9 10  1  0  0  0  0
  9 33  1  0  0  0  0
 10 11  2  0  0  0  0
 10 12  1  0  0  0  0
 12 13  1  0  0  0  0
 12 34  1  0  0  0  0
 13 18  2  0  0  0  0
 13 14  1  0  0  0  0
 14 15  2  0  0  0  0
 14 35  1  0  0  0  0
 15 16  1  0  0  0  0
 16 17  1  0  0  0  0
 16 18  1  0  0  0  0
 17 36  1  0  0  0  0
 17 37  1  0  0  0  0
 17 38  1  0  0  0  0
 18 39  1  0  0  0  0
 19 20  1  0  0  0  0
 19 40  1  0  0  0  0
 19 41  1  0  0  0  0
 20 42  1  0  0  0  0
 20 43  1  0  0  0  0
M  CHG  1   5   1
M  END
> <s_m_source_file>
AV-unprocessed.smi

> <i_m_source_file_index>
760

> <i_lp_mmshare_version>
43012

> <i_f3d_flags>
0

> <s_epik_input>
W0NIMl09QyhbQ0gzXSlbQ0gyXU4xW0NIMl1bQ0gyXVtDSF0oW0NIMl1bQ0gyXTEpW05IXUMoPU8pW05IXWMyW2NIXW5uKFtDSDNdKVtjSF0y

> <s_epik_cmdline>
J2VwaWtfcHl0aG9uJywgJy1waCcsICc3LjAnLCAnLXRuJywgJzgnLCAnLW1hJywgJzIwMCcsICctbWV0YWxfYmluZGluZycsICctaW1hZScsICc8aW5maWxlLm1hZT4nLCAnLW9tYWUnLCAnPG91dGZpbGUubWFlPic=

> <r_lp_tautomer_probability>
1

> <r_epik_Ionization_Penalty>
0.0194996

> <r_epik_Ionization_Penalty_Charging>
0.0193505

> <r_epik_Ionization_Penalty_Neutral>
0.000149098

> <r_epik_State_Penalty>
0.0154499

> <r_epik_Charging_Adjusted_Penalty>
0.0348004

> <i_epik_Tot_Q>
1

> <i_epik_Tot_abs_Q>
1

> <r_epik_Metal_State_Penalty>
0.0154507

> <b_epik_Metal_Only>
0

> <s_lp_Force_Field>
OPLS_2005

> <r_lp_Energy>
20.4425

> <b_lp_Chiralities_Consistent>
1

> <s_lp_Variant>
AV-unprocessed.smi:760-1

> <Gold.Version>
5.8.1

> <Gold.Id.Protein>
6NUR|6NUR_protein|mol2

> <Gold.PLP.Fitness>
40.9837

> <Gold.PLP.PLP>
-27.9710

> <Gold.PLP.part.hbond>
-3.0000

> <Gold.PLP.part.metal>
0.0000

> <Gold.PLP.part.buried>
-2.5197

> <Gold.PLP.part.nonpolar>
-24.0970

> <Gold.PLP.part.repulsive>
0.7411

> <Gold.PLP.ligand.clash>
0.0000

> <Gold.PLP.ligand.torsion>
0.8191

> <Gold.PLP.Chemscore.Hbond>
3.9440

> <Gold.PLP.Chemscore.CHOScore>
0.9317

> <Gold.PLP.Chemscore.Metal>
0.0000

> <Gold.Chemscore.Hbonds>
donor molecule, donor type, donor heavy atom, donor atom, acceptor molecule, acceptor atom, score
      L1  H     5    44       P1 10175  1.98
      L1  H     9    33       P1  7948  1.00
      L1  H    12    34       P1  7948  0.94
      L1  C    18    39       P1  7921  0.95

> <Gold.PLP.Chemscore.Internal.Correction>
0.0239

> <Gold.Rescore>
     Score         DG    S(hbond)    S(metal)    S(lipo)     H(rot)  DE(clash)    DE(int)     intcor
     15.37     -17.81       2.59        0.00      61.64       1.38       0.22       2.22       ----

> <Gold.Chemscore.Fitness>
15.3676

> <Gold.Chemscore.DG>
-17.8066

> <Gold.Chemscore.ZeroCoef>
-5.4800

> <Gold.Chemscore.Hbond>
2.5855

> <Gold.Chemscore.Metal>
0.0000

> <Gold.Chemscore.Lipo>
61.6375

> <Gold.Chemscore.Internal_Hbond>
0.0000

> <Gold.Chemscore.DEClash>
0.2191

> <Gold.Chemscore.DEInternal>
2.2199

> <Gold.Chemscore.Rot>
1.3752

> <Gold.Chemscore.Internal.Correction>
   9.000000E+99

> <Gold.Chemscore.Hbonds>
donor molecule, donor type, donor heavy atom, donor atom, acceptor molecule, acceptor atom, score
      L1  H     5    44       P1 10175  0.23
      L1  H     9    33       P1  7948  0.99
      L1  H    12    34       P1  7948  0.91

> <Gold.Chemscore.Hbond.Weighted>
-8.6354

> <Gold.Chemscore.Metal.Weighted>
-0.0000

> <Gold.Chemscore.Lipo.Weighted>
-7.2116

> <Gold.Chemscore.Internal_Hbond.Weighted>
0.0000

> <Gold.Chemscore.DEClash.Weighted>
0.2191

> <Gold.Chemscore.DEInternal.Weighted>
2.2199

> <Gold.Chemscore.Rot.Weighted>
3.5204

> <Gold.Chemscore.Internal.Correction.Weighted>
   9.000000E+99

> <Gold.Protein.RotatedTorsions>
[ 6907 6896 6895 6894 ] final -111.92 input  -60.11 | X-H torsion
[ 7974 7965 7964 7962 ] final  170.29 input  175.53 | X-H torsion
[ 8008 7997 7996 7995 ] final   63.76 input   59.86 | X-H torsion
[ 10167 10162 10161 10158 ] final  111.73 input  -65.29 | X-H torsion
[ 10718 10713 10712 10709 ] final  130.94 input   66.30 | X-H torsion
[ 10763 10752 10751 10750 ] final  -30.73 input  -60.55 | X-H torsion
[ 11005 11000 10999 10996 ] final  -34.69 input  -57.11 | X-H torsion

> <Gold.Protein.ActiveResidues>
 VAL166  LYS551  ARG553  GLY616  TRP617  ASP618  TYR619  PRO620  LYS621  CYS622 
 ASP623  PHE694  ASN695  SER759  ASP760  ASP761  ALA762  ILE779  LEU786  VAL792 
 PHE793  MET794  SER795  GLU796  ALA797  LYS798  CYS799  TRP800  GLU811  SER814 

> <Gold.Protein.RotatedAtoms>
  150.7723  133.9165  159.3384 H   0  0  0  0  0  0  0  0  0  0  0  0  # atno 6907 bound_to 6896
  151.7048  135.0921  160.0267 H   0  0  0  0  0  0  0  0  0  0  0  0  # atno 6908 bound_to 6896
  152.3745  133.6425  159.6149 H   0  0  0  0  0  0  0  0  0  0  0  0  # atno 6909 bound_to 6896
  144.7328  139.9180  143.6418 H   0  0  0  0  0  0  0  0  0  0  0  0  # atno 7974 bound_to 7965
  155.6353  140.3496  155.4696 H   0  0  0  0  0  0  0  0  0  0  0  0  # atno 8008 bound_to 7997
  155.9970  140.1205  157.0607 H   0  0  0  0  0  0  0  0  0  0  0  0  # atno 8009 bound_to 7997
  154.4237  140.1108  156.5631 H   0  0  0  0  0  0  0  0  0  0  0  0  # atno 8010 bound_to 7997
  139.6589  144.7129  151.1903 H   0  0  0  0  0  0  0  0  0  0  0  0  # atno 10167 bound_to 10162
  157.5015  131.1094  150.9420 H   0  0  0  0  0  0  0  0  0  0  0  0  # atno 10718 bound_to 10713
  153.7857  135.6901  153.4880 H   0  0  0  0  0  0  0  0  0  0  0  0  # atno 10763 bound_to 10752
  153.1782  135.4516  154.9992 H   0  0  0  0  0  0  0  0  0  0  0  0  # atno 10764 bound_to 10752
  154.8064  135.3359  154.7357 H   0  0  0  0  0  0  0  0  0  0  0  0  # atno 10765 bound_to 10752
  140.9737  133.7095  156.1566 H   0  0  0  0  0  0  0  0  0  0  0  0  # atno 11005 bound_to 11000
  146.0951  139.3943  143.0381 LP  0  0  0  0  0  0  0  0  0  0  0  0  # atno 17320 bound_to 7965
  145.7657  140.9917  143.1176 LP  0  0  0  0  0  0  0  0  0  0  0  0  # atno 17321 bound_to 7965
  140.7571  143.6027  150.8684 LP  0  0  0  0  0  0  0  0  0  0  0  0  # atno 17342 bound_to 10162
  139.9682  143.6086  152.2982 LP  0  0  0  0  0  0  0  0  0  0  0  0  # atno 17343 bound_to 10162
  157.0090  130.5629  149.5319 LP  0  0  0  0  0  0  0  0  0  0  0  0  # atno 17370 bound_to 10713
  156.0232  130.5326  150.8334 LP  0  0  0  0  0  0  0  0  0  0  0  0  # atno 17371 bound_to 10713
  140.7291  134.4274  157.5567 LP  0  0  0  0  0  0  0  0  0  0  0  0  # atno 17394 bound_to 11000
  139.8922  134.8761  156.2283 LP  0  0  0  0  0  0  0  0  0  0  0  0  # atno 17395 bound_to 11000

$$$$
