AV-unprocessed.smi:535|AV-procd|sdf|2860|dock4
  -GOLD-   2262023353D 1   1.00000     0.00000
 Structure written by MMmdl.
 45 47  0  0  0  0  0  0  0  0  2 V2000
  157.1454  138.5230  158.8754 C   0  0  0  0  0  0  0  0  0  0  0  0
  155.8101  138.9532  159.0711 O   0  0  0  0  0  0  0  0  0  0  0  0
  155.1863  138.2977  160.1620 C   0  0  0  0  0  0  0  0  0  0  0  0
  153.7504  138.8159  160.2991 C   0  0  0  0  0  0  0  0  0  0  0  0
  153.2262  139.2773  159.0155 N   0  0  0  0  0  0  0  0  0  0  0  0
  152.9054  140.5476  158.6430 C   0  0  0  0  0  0  0  0  0  0  0  0
  153.0656  141.6446  159.4933 N   0  0  0  0  0  0  0  0  0  0  0  0
  154.0196  141.7587  160.5961 C   0  0  0  0  0  0  0  0  0  0  0  0
  153.3288  142.2125  161.8939 C   0  0  0  0  0  0  0  0  0  0  0  0
  152.6223  143.5579  161.6805 C   0  0  0  0  0  0  0  0  0  0  0  0
  151.6973  143.4867  160.4527 C   0  0  1  0  0  0  0  0  0  0  0  0
  151.0474  144.8452  160.1582 C   0  0  0  0  0  0  0  0  0  0  0  0
  152.4776  142.9576  159.2314 C   0  0  0  0  0  0  0  0  0  0  0  0
  152.3748  140.6508  157.4230 N   0  0  0  0  0  0  0  0  0  0  0  0
  152.3713  139.3410  156.9708 C   0  0  0  0  0  0  0  0  0  0  0  0
  152.8626  138.4932  157.9142 C   0  0  0  0  0  0  0  0  0  0  0  0
  152.9319  137.0241  157.7397 C   0  0  0  0  0  0  0  0  0  0  0  0
  153.3472  136.2943  158.6372 O   0  0  0  0  0  0  0  0  0  0  0  0
  152.4814  136.6272  156.5076 N   0  5  0  0  0  0  0  0  0  0  0  0
  151.9871  137.4525  155.5208 C   0  0  0  0  0  0  0  0  0  0  0  0
  151.5980  137.0111  154.4387 O   0  0  0  0  0  0  0  0  0  0  0  0
  151.9189  138.8038  155.7348 N   0  0  0  0  0  0  0  0  0  0  0  0
  151.3886  139.7048  154.7075 C   0  0  0  0  0  0  0  0  0  0  0  0
  157.5820  139.0557  158.0306 H   0  0  0  0  0  0  0  0  0  0  0  0
  157.1877  137.4547  158.6586 H   0  0  0  0  0  0  0  0  0  0  0  0
  157.7580  138.7269  159.7545 H   0  0  0  0  0  0  0  0  0  0  0  0
  155.1834  137.2182  160.0026 H   0  0  0  0  0  0  0  0  0  0  0  0
  155.7436  138.4953  161.0793 H   0  0  0  0  0  0  0  0  0  0  0  0
  153.1134  138.0378  160.7051 H   0  0  0  0  0  0  0  0  0  0  0  0
  153.6969  139.6174  161.0325 H   0  0  0  0  0  0  0  0  0  0  0  0
  154.5475  140.8172  160.7435 H   0  0  0  0  0  0  0  0  0  0  0  0
  154.7881  142.4814  160.3185 H   0  0  0  0  0  0  0  0  0  0  0  0
  152.6024  141.4646  162.2130 H   0  0  0  0  0  0  0  0  0  0  0  0
  154.0601  142.2984  162.6976 H   0  0  0  0  0  0  0  0  0  0  0  0
  152.0550  143.8289  162.5714 H   0  0  0  0  0  0  0  0  0  0  0  0
  153.3692  144.3394  161.5350 H   0  0  0  0  0  0  0  0  0  0  0  0
  150.8968  142.7785  160.6726 H   0  0  0  0  0  0  0  0  0  0  0  0
  151.7976  145.6002  159.9211 H   0  0  0  0  0  0  0  0  0  0  0  0
  150.4756  145.2015  161.0156 H   0  0  0  0  0  0  0  0  0  0  0  0
  150.3642  144.7775  159.3113 H   0  0  0  0  0  0  0  0  0  0  0  0
  153.2658  143.6567  158.9480 H   0  0  0  0  0  0  0  0  0  0  0  0
  151.8055  142.8858  158.3752 H   0  0  0  0  0  0  0  0  0  0  0  0
  151.9631  139.6142  153.7847 H   0  0  0  0  0  0  0  0  0  0  0  0
  151.4214  140.7519  155.0074 H   0  0  0  0  0  0  0  0  0  0  0  0
  150.3484  139.4605  154.4874 H   0  0  0  0  0  0  0  0  0  0  0  0
  1  2  1  0  0  0  0
  1 24  1  0  0  0  0
  1 25  1  0  0  0  0
  1 26  1  0  0  0  0
  2  3  1  0  0  0  0
  3  4  1  0  0  0  0
  3 27  1  0  0  0  0
  3 28  1  0  0  0  0
  4  5  1  0  0  0  0
  4 29  1  0  0  0  0
  4 30  1  0  0  0  0
  5 16  1  0  0  0  0
  5  6  1  0  0  0  0
  6  7  1  0  0  0  0
  6 14  2  0  0  0  0
  7 13  1  0  0  0  0
  7  8  1  0  0  0  0
  8  9  1  0  0  0  0
  8 31  1  0  0  0  0
  8 32  1  0  0  0  0
  9 10  1  0  0  0  0
  9 33  1  0  0  0  0
  9 34  1  0  0  0  0
 10 11  1  0  0  0  0
 10 35  1  0  0  0  0
 10 36  1  0  0  0  0
 11 12  1  0  0  0  0
 11 13  1  0  0  0  0
 11 37  1  0  0  0  0
 12 38  1  0  0  0  0
 12 39  1  0  0  0  0
 12 40  1  0  0  0  0
 13 41  1  0  0  0  0
 13 42  1  0  0  0  0
 14 15  1  0  0  0  0
 15 22  1  0  0  0  0
 15 16  2  0  0  0  0
 16 17  1  0  0  0  0
 17 18  2  0  0  0  0
 17 19  1  0  0  0  0
 19 20  1  0  0  0  0
 20 21  2  0  0  0  0
 20 22  1  0  0  0  0
 22 23  1  0  0  0  0
 23 43  1  0  0  0  0
 23 44  1  0  0  0  0
 23 45  1  0  0  0  0
M  CHG  1  19  -1
M  END
> <s_m_source_file>
AV-unprocessed.smi

> <i_m_source_file_index>
535

> <i_lp_mmshare_version>
43012

> <i_f3d_flags>
0

> <s_epik_input>
W0NIM11uMWMoPU8pW25IXWMoPU8pYyhjMTIpbihbQ0gyXVtDSDJdT1tDSDNdKWMobjIpTjNbQ0gyXVtDSDJdW0NIMl1bQ0BASF0oW0NIM10pW0NIMl0z

> <s_epik_cmdline>
J2VwaWtfcHl0aG9uJywgJy1waCcsICc3LjAnLCAnLXRuJywgJzgnLCAnLW1hJywgJzIwMCcsICctbWV0YWxfYmluZGluZycsICctaW1hZScsICc8aW5maWxlLm1hZT4nLCAnLW9tYWUnLCAnPG91dGZpbGUubWFlPic=

> <r_lp_tautomer_probability>
1

> <r_epik_Ionization_Penalty>
5.11375

> <r_epik_Ionization_Penalty_Charging>
0.0788329

> <r_epik_Ionization_Penalty_Neutral>
5.03492

> <r_epik_State_Penalty>
5.02848

> <r_epik_Charging_Adjusted_Penalty>
5.10731

> <i_epik_Tot_Q>
-1

> <i_epik_Tot_abs_Q>
1

> <r_epik_Metal_State_Penalty>
1.14014

> <b_epik_Metal_Only>
1

> <s_lp_Force_Field>
OPLS_2005

> <r_lp_Energy>
43.1913

> <b_lp_Chiralities_Consistent>
1

> <s_lp_Variant>
AV-unprocessed.smi:535-3

> <Gold.Version>
5.8.1

> <Gold.Id.Protein>
6NUR|6NUR_protein|mol2

> <Gold.PLP.Fitness>
50.0106

> <Gold.PLP.PLP>
-41.3675

> <Gold.PLP.part.hbond>
-4.1974

> <Gold.PLP.part.metal>
0.0000

> <Gold.PLP.part.buried>
-1.5753

> <Gold.PLP.part.nonpolar>
-35.8449

> <Gold.PLP.part.repulsive>
0.4291

> <Gold.PLP.ligand.clash>
0.9940

> <Gold.PLP.ligand.torsion>
0.4589

> <Gold.PLP.Chemscore.Hbond>
3.3556

> <Gold.PLP.Chemscore.CHOScore>
0.0000

> <Gold.PLP.Chemscore.Metal>
0.0000

> <Gold.Chemscore.Hbonds>
donor molecule, donor type, donor heavy atom, donor atom, acceptor molecule, acceptor atom, score
      P1  H  6896  6907       L1    18  0.30
      P1  H  7997  8009       L1     2  0.96
      P1  H 10752 10764       L1    21  0.04
      P1  H 10752 10765       L1    19  1.50

> <Gold.PLP.Chemscore.Internal.Correction>
0.4881

> <Gold.Rescore>
     Score         DG    S(hbond)    S(metal)    S(lipo)     H(rot)  DE(clash)    DE(int)     intcor
     15.38     -16.99       1.13        0.00      97.48       1.44       0.09       1.52       ----

> <Gold.Chemscore.Fitness>
15.3768

> <Gold.Chemscore.DG>
-16.9867

> <Gold.Chemscore.ZeroCoef>
-5.4800

> <Gold.Chemscore.Hbond>
1.1320

> <Gold.Chemscore.Metal>
0.0000

> <Gold.Chemscore.Lipo>
97.4788

> <Gold.Chemscore.Internal_Hbond>
0.0000

> <Gold.Chemscore.DEClash>
0.0938

> <Gold.Chemscore.DEInternal>
1.5161

> <Gold.Chemscore.Rot>
1.4372

> <Gold.Chemscore.Internal.Correction>
   9.000000E+99

> <Gold.Chemscore.Hbonds>
donor molecule, donor type, donor heavy atom, donor atom, acceptor molecule, acceptor atom, score
      P1  H  6896  6907       L1    18  0.31
      P1  H  7997  8009       L1     2  0.32
      P1  H 10752 10764       L1    21  0.02
      P1  H 10752 10765       L1    19  0.09

> <Gold.Chemscore.Hbond.Weighted>
-3.7810

> <Gold.Chemscore.Metal.Weighted>
-0.0000

> <Gold.Chemscore.Lipo.Weighted>
-11.4050

> <Gold.Chemscore.Internal_Hbond.Weighted>
0.0000

> <Gold.Chemscore.DEClash.Weighted>
0.0938

> <Gold.Chemscore.DEInternal.Weighted>
1.5161

> <Gold.Chemscore.Rot.Weighted>
3.6793

> <Gold.Chemscore.Internal.Correction.Weighted>
   9.000000E+99

> <Gold.Protein.RotatedTorsions>
[ 6907 6896 6895 6894 ] final   33.35 input  -60.11 | X-H torsion
[ 7974 7965 7964 7962 ] final  139.92 input  175.53 | X-H torsion
[ 8008 7997 7996 7995 ] final  101.61 input   59.86 | X-H torsion
[ 10167 10162 10161 10158 ] final  156.61 input  -65.29 | X-H torsion
[ 10718 10713 10712 10709 ] final -171.64 input   66.30 | X-H torsion
[ 10763 10752 10751 10750 ] final -129.33 input  -60.55 | X-H torsion
[ 11005 11000 10999 10996 ] final   38.61 input  -57.11 | X-H torsion

> <Gold.Protein.ActiveResidues>
 VAL166  LYS551  ARG553  GLY616  TRP617  ASP618  TYR619  PRO620  LYS621  CYS622 
 ASP623  PHE694  ASN695  SER759  ASP760  ASP761  ALA762  ILE779  LEU786  VAL792 
 PHE793  MET794  SER795  GLU796  ALA797  LYS798  CYS799  TRP800  GLU811  SER814 

> <Gold.Protein.RotatedAtoms>
  152.0873  134.9431  160.0572 H   0  0  0  0  0  0  0  0  0  0  0  0  # atno 6907 bound_to 6896
  152.0696  133.4096  159.4462 H   0  0  0  0  0  0  0  0  0  0  0  0  # atno 6908 bound_to 6896
  150.6836  134.3026  159.4756 H   0  0  0  0  0  0  0  0  0  0  0  0  # atno 6909 bound_to 6896
  144.9234  139.5139  143.5652 H   0  0  0  0  0  0  0  0  0  0  0  0  # atno 7974 bound_to 7965
  156.1315  140.3195  155.8356 H   0  0  0  0  0  0  0  0  0  0  0  0  # atno 8008 bound_to 7997
  155.4323  140.0519  157.3034 H   0  0  0  0  0  0  0  0  0  0  0  0  # atno 8009 bound_to 7997
  154.4903  140.2089  155.9576 H   0  0  0  0  0  0  0  0  0  0  0  0  # atno 8010 bound_to 7997
  139.4821  144.4993  151.8193 H   0  0  0  0  0  0  0  0  0  0  0  0  # atno 10167 bound_to 10162
  156.7439  130.9353  151.3111 H   0  0  0  0  0  0  0  0  0  0  0  0  # atno 10718 bound_to 10713
  154.8757  135.3899  154.3902 H   0  0  0  0  0  0  0  0  0  0  0  0  # atno 10763 bound_to 10752
  153.4639  135.7029  153.6039 H   0  0  0  0  0  0  0  0  0  0  0  0  # atno 10764 bound_to 10752
  153.4525  135.3830  155.2260 H   0  0  0  0  0  0  0  0  0  0  0  0  # atno 10765 bound_to 10752
  140.2110  134.3756  155.8049 H   0  0  0  0  0  0  0  0  0  0  0  0  # atno 11005 bound_to 11000
  146.3215  139.8130  142.8942 LP  0  0  0  0  0  0  0  0  0  0  0  0  # atno 17320 bound_to 7965
  145.3259  141.0255  143.3474 LP  0  0  0  0  0  0  0  0  0  0  0  0  # atno 17321 bound_to 7965
  140.4484  144.1889  150.5895 LP  0  0  0  0  0  0  0  0  0  0  0  0  # atno 17342 bound_to 10162
  140.4610  143.2449  151.9220 LP  0  0  0  0  0  0  0  0  0  0  0  0  # atno 17343 bound_to 10162
  157.6806  130.9137  150.0259 LP  0  0  0  0  0  0  0  0  0  0  0  0  # atno 17370 bound_to 10713
  156.1446  130.3642  149.9530 LP  0  0  0  0  0  0  0  0  0  0  0  0  # atno 17371 bound_to 10713
  141.2226  133.7143  156.8417 LP  0  0  0  0  0  0  0  0  0  0  0  0  # atno 17394 bound_to 11000
  140.1951  134.8937  157.3105 LP  0  0  0  0  0  0  0  0  0  0  0  0  # atno 17395 bound_to 11000

$$$$
