AV-unprocessed.smi:2930|AV-procd|sdf|11241|dock1
  -GOLD-   2272016133D 1   1.00000     0.00000
 Structure written by MMmdl.
 40 41  0  0  0  0  0  0  0  0  1 V2000
  155.6014  144.8309  164.7543 C   0  0  0  0  0  0  0  0  0  0  0  0
  155.1858  143.4069  165.1485 C   0  0  1  0  0  0  0  0  0  0  0  0
  155.1554  142.5675  163.9532 N   0  0  0  0  0  0  0  0  0  0  0  0
  154.2402  142.6295  162.9751 C   0  0  0  0  0  0  0  0  0  0  0  0
  153.2993  143.4225  162.9704 O   0  0  0  0  0  0  0  0  0  0  0  0
  154.4790  141.7047  162.0301 N   0  0  0  0  0  0  0  0  0  0  0  0
  153.7502  141.4568  160.8363 C   0  0  0  0  0  0  0  0  0  0  0  0
  154.0490  140.4444  159.8934 C   0  0  0  0  0  0  0  0  0  0  0  0
  153.2943  140.2600  158.7889 N   0  0  0  0  0  0  0  0  0  0  0  0
  152.2415  141.0684  158.6095 C   0  0  0  0  0  0  0  0  0  0  0  0
  151.4686  140.8738  157.4610 N   0  0  0  0  0  0  0  0  0  0  0  0
  150.3911  141.7943  157.1095 C   0  0  0  0  0  0  0  0  0  0  0  0
  151.7098  139.7420  156.5706 C   0  0  0  0  0  0  0  0  0  0  0  0
  151.8685  142.0467  159.4455 N   0  0  0  0  0  0  0  0  0  0  0  0
  152.6131  142.2396  160.5545 C   0  0  0  0  0  0  0  0  0  0  0  0
  156.1284  142.8004  166.1899 C   0  0  0  0  0  0  0  0  0  0  0  0
  155.9620  141.3360  166.6264 C   0  0  0  0  0  0  0  0  0  0  0  0
  156.4103  141.7516  168.0300 C   0  0  0  0  0  0  0  0  0  0  0  0
  155.9810  143.1772  167.6723 C   0  0  0  0  0  0  0  0  0  0  0  0
  155.5975  145.4951  165.6189 H   0  0  0  0  0  0  0  0  0  0  0  0
  154.9160  145.2502  164.0171 H   0  0  0  0  0  0  0  0  0  0  0  0
  156.6042  144.8488  164.3262 H   0  0  0  0  0  0  0  0  0  0  0  0
  154.1806  143.4718  165.5692 H   0  0  0  0  0  0  0  0  0  0  0  0
  155.8875  141.8776  163.8699 H   0  0  0  0  0  0  0  0  0  0  0  0
  155.2456  141.0725  162.2095 H   0  0  0  0  0  0  0  0  0  0  0  0
  154.8733  139.7588  160.0123 H   0  0  0  0  0  0  0  0  0  0  0  0
  150.7832  142.8021  156.9685 H   0  0  0  0  0  0  0  0  0  0  0  0
  149.6424  141.8238  157.9017 H   0  0  0  0  0  0  0  0  0  0  0  0
  149.8882  141.5011  156.1879 H   0  0  0  0  0  0  0  0  0  0  0  0
  151.5774  138.8018  157.1070 H   0  0  0  0  0  0  0  0  0  0  0  0
  152.7274  139.7752  156.1801 H   0  0  0  0  0  0  0  0  0  0  0  0
  151.0279  139.7388  155.7203 H   0  0  0  0  0  0  0  0  0  0  0  0
  152.2976  143.0297  161.2199 H   0  0  0  0  0  0  0  0  0  0  0  0
  157.1704  142.9570  165.9013 H   0  0  0  0  0  0  0  0  0  0  0  0
  154.9240  140.9999  166.5994 H   0  0  0  0  0  0  0  0  0  0  0  0
  156.6246  140.6324  166.1218 H   0  0  0  0  0  0  0  0  0  0  0  0
  155.8469  141.2951  168.8444 H   0  0  0  0  0  0  0  0  0  0  0  0
  157.4874  141.6573  168.1767 H   0  0  0  0  0  0  0  0  0  0  0  0
  156.6598  143.9591  168.0144 H   0  0  0  0  0  0  0  0  0  0  0  0
  154.9484  143.3883  167.9556 H   0  0  0  0  0  0  0  0  0  0  0  0
  1  2  1  0  0  0  0
  1 20  1  0  0  0  0
  1 21  1  0  0  0  0
  1 22  1  0  0  0  0
  2  3  1  0  0  0  0
  2 16  1  0  0  0  0
  2 23  1  0  0  0  0
  3  4  1  0  0  0  0
  3 24  1  0  0  0  0
  4  5  2  0  0  0  0
  4  6  1  0  0  0  0
  6  7  1  0  0  0  0
  6 25  1  0  0  0  0
  7 15  1  0  0  0  0
  7  8  2  0  0  0  0
  8  9  1  0  0  0  0
  8 26  1  0  0  0  0
  9 10  2  0  0  0  0
 10 11  1  0  0  0  0
 10 14  1  0  0  0  0
 11 12  1  0  0  0  0
 11 13  1  0  0  0  0
 12 27  1  0  0  0  0
 12 28  1  0  0  0  0
 12 29  1  0  0  0  0
 13 30  1  0  0  0  0
 13 31  1  0  0  0  0
 13 32  1  0  0  0  0
 14 15  2  0  0  0  0
 15 33  1  0  0  0  0
 16 19  1  0  0  0  0
 16 17  1  0  0  0  0
 16 34  1  0  0  0  0
 17 18  1  0  0  0  0
 17 35  1  0  0  0  0
 17 36  1  0  0  0  0
 18 19  1  0  0  0  0
 18 37  1  0  0  0  0
 18 38  1  0  0  0  0
 19 39  1  0  0  0  0
 19 40  1  0  0  0  0
M  END
> <s_m_source_file>
AV-unprocessed.smi

> <i_m_source_file_index>
2930

> <i_lp_mmshare_version>
43012

> <i_f3d_flags>
0

> <s_epik_input>
W0NIMl0xW0NIMl1bQ0gyXVtDSF0xW0NASF0oW0NIM10pW05IXUMoPU8pW05IXWMyW2NIXW5jKE4oW0NIM10pW0NIM10pbltjSF0y

> <s_epik_cmdline>
J2VwaWtfcHl0aG9uJywgJy1waCcsICc3LjAnLCAnLXRuJywgJzgnLCAnLW1hJywgJzIwMCcsICctbWV0YWxfYmluZGluZycsICctaW1hZScsICc8aW5maWxlLm1hZT4nLCAnLW9tYWUnLCAnPG91dGZpbGUubWFlPic=

> <r_lp_tautomer_probability>
1

> <r_epik_Ionization_Penalty>
0.000323856

> <r_epik_Ionization_Penalty_Charging>
0

> <r_epik_Ionization_Penalty_Neutral>
0.000323856

> <r_epik_State_Penalty>
-0

> <r_epik_Charging_Adjusted_Penalty>
0

> <i_epik_Tot_Q>
0

> <i_epik_Tot_abs_Q>
0

> <r_epik_Metal_State_Penalty>
-0

> <b_epik_Metal_Only>
0

> <s_lp_Force_Field>
OPLS_2005

> <r_lp_Energy>
8.86729

> <b_lp_Chiralities_Consistent>
1

> <s_lp_Variant>
AV-unprocessed.smi:2930-2

> <Gold.Version>
5.8.1

> <Gold.Id.Protein>
6NUR|6NUR_protein|mol2

> <Gold.PLP.Fitness>
42.1338

> <Gold.PLP.PLP>
-40.4008

> <Gold.PLP.part.hbond>
-3.0000

> <Gold.PLP.part.metal>
0.0000

> <Gold.PLP.part.buried>
-3.7946

> <Gold.PLP.part.nonpolar>
-32.0178

> <Gold.PLP.part.repulsive>
0.1852

> <Gold.PLP.ligand.clash>
0.0000

> <Gold.PLP.ligand.torsion>
0.3975

> <Gold.PLP.Chemscore.Hbond>
0.8000

> <Gold.PLP.Chemscore.CHOScore>
0.0000

> <Gold.PLP.Chemscore.Metal>
0.0000

> <Gold.Chemscore.Hbonds>
donor molecule, donor type, donor heavy atom, donor atom, acceptor molecule, acceptor atom, score
      P1  H  7997  8008       L1     9  0.52

> <Gold.PLP.Chemscore.Internal.Correction>
0.1279

> <Gold.Rescore>
     Score         DG    S(hbond)    S(metal)    S(lipo)     H(rot)  DE(clash)    DE(int)     intcor
      9.87     -12.80       0.00        0.00      88.69       1.19       1.26       1.67       ----

> <Gold.Chemscore.Fitness>
9.8664

> <Gold.Chemscore.DG>
-12.7996

> <Gold.Chemscore.ZeroCoef>
-5.4800

> <Gold.Chemscore.Hbond>
0.0004

> <Gold.Chemscore.Metal>
0.0000

> <Gold.Chemscore.Lipo>
88.6942

> <Gold.Chemscore.Internal_Hbond>
0.0000

> <Gold.Chemscore.DEClash>
1.2593

> <Gold.Chemscore.DEInternal>
1.6738

> <Gold.Chemscore.Rot>
1.1949

> <Gold.Chemscore.Internal.Correction>
   9.000000E+99

> <Gold.Chemscore.Hbonds>
donor molecule, donor type, donor heavy atom, donor atom, acceptor molecule, acceptor atom, score
      P1  H  7997  8008       L1     9  0.33

> <Gold.Chemscore.Hbond.Weighted>
-0.0013

> <Gold.Chemscore.Metal.Weighted>
-0.0000

> <Gold.Chemscore.Lipo.Weighted>
-10.3772

> <Gold.Chemscore.Internal_Hbond.Weighted>
0.0000

> <Gold.Chemscore.DEClash.Weighted>
1.2593

> <Gold.Chemscore.DEInternal.Weighted>
1.6738

> <Gold.Chemscore.Rot.Weighted>
3.0590

> <Gold.Chemscore.Internal.Correction.Weighted>
   9.000000E+99

> <Gold.Protein.RotatedTorsions>
[ 6907 6896 6895 6894 ] final -150.13 input  -60.11 | X-H torsion
[ 7974 7965 7964 7962 ] final  -57.72 input  175.53 | X-H torsion
[ 8008 7997 7996 7995 ] final  -84.73 input   59.86 | X-H torsion
[ 10167 10162 10161 10158 ] final   61.72 input  -65.29 | X-H torsion
[ 10718 10713 10712 10709 ] final  -49.89 input   66.30 | X-H torsion
[ 10763 10752 10751 10750 ] final   74.75 input  -60.55 | X-H torsion
[ 11005 11000 10999 10996 ] final  -28.54 input  -57.11 | X-H torsion

> <Gold.Protein.ActiveResidues>
 VAL166  LYS551  ARG553  GLY616  TRP617  ASP618  TYR619  PRO620  LYS621  CYS622 
 ASP623  PHE694  ASN695  SER759  ASP760  ASP761  ALA762  ILE779  LEU786  VAL792 
 PHE793  MET794  SER795  GLU796  ALA797  LYS798  CYS799  TRP800  GLU811  SER814 

> <Gold.Protein.RotatedAtoms>
  151.1941  133.4650  159.2595 H   0  0  0  0  0  0  0  0  0  0  0  0  # atno 6907 bound_to 6896
  151.1134  135.0039  159.8515 H   0  0  0  0  0  0  0  0  0  0  0  0  # atno 6908 bound_to 6896
  152.5452  134.1858  159.8707 H   0  0  0  0  0  0  0  0  0  0  0  0  # atno 6909 bound_to 6896
  145.8478  140.8373  143.0001 H   0  0  0  0  0  0  0  0  0  0  0  0  # atno 7974 bound_to 7965
  154.6329  140.0601  156.9754 H   0  0  0  0  0  0  0  0  0  0  0  0  # atno 8008 bound_to 7997
  155.1636  140.3285  155.4388 H   0  0  0  0  0  0  0  0  0  0  0  0  # atno 8009 bound_to 7997
  156.2492  140.1926  156.6742 H   0  0  0  0  0  0  0  0  0  0  0  0  # atno 8010 bound_to 7997
  140.1517  144.4456  150.6756 H   0  0  0  0  0  0  0  0  0  0  0  0  # atno 10167 bound_to 10162
  156.1851  130.4151  149.9451 H   0  0  0  0  0  0  0  0  0  0  0  0  # atno 10718 bound_to 10713
  153.0608  135.5014  154.8088 H   0  0  0  0  0  0  0  0  0  0  0  0  # atno 10763 bound_to 10752
  154.6879  135.2979  154.9524 H   0  0  0  0  0  0  0  0  0  0  0  0  # atno 10764 bound_to 10752
  154.0288  135.6732  153.4831 H   0  0  0  0  0  0  0  0  0  0  0  0  # atno 10765 bound_to 10752
  140.9217  133.7394  156.0811 H   0  0  0  0  0  0  0  0  0  0  0  0  # atno 11005 bound_to 11000
  144.6730  140.0908  143.7465 LP  0  0  0  0  0  0  0  0  0  0  0  0  # atno 17320 bound_to 7965
  145.9392  139.2658  143.1279 LP  0  0  0  0  0  0  0  0  0  0  0  0  # atno 17321 bound_to 7965
  140.6698  143.2281  151.5653 LP  0  0  0  0  0  0  0  0  0  0  0  0  # atno 17342 bound_to 10162
  139.5423  144.2615  152.1374 LP  0  0  0  0  0  0  0  0  0  0  0  0  # atno 17343 bound_to 10162
  156.7209  130.9006  151.3618 LP  0  0  0  0  0  0  0  0  0  0  0  0  # atno 17370 bound_to 10713
  157.6893  130.9217  150.0471 LP  0  0  0  0  0  0  0  0  0  0  0  0  # atno 17371 bound_to 10713
  140.7979  134.3543  157.5447 LP  0  0  0  0  0  0  0  0  0  0  0  0  # atno 17394 bound_to 11000
  139.8777  134.9180  156.3191 LP  0  0  0  0  0  0  0  0  0  0  0  0  # atno 17395 bound_to 11000

$$$$
