AV-unprocessed.smi:2440|AV-procd|sdf|9616|dock5
  -GOLD-   2272013253D 1   1.00000     0.00000
 Structure written by MMmdl.
 52 54  0  0  0  0  0  0  0  0  2 V2000
  151.9111  137.9457  154.2506 C   0  0  0  0  0  0  0  0  0  0  0  0
  151.1315  139.1821  154.6634 C   0  0  0  0  0  0  0  0  0  0  0  0
  151.8146  140.3102  155.1672 C   0  0  0  0  0  0  0  0  0  0  0  0
  151.1967  141.4440  155.5574 N   0  0  0  0  0  0  0  0  0  0  0  0
  149.8523  141.4923  155.4610 C   0  0  0  0  0  0  0  0  0  0  0  0
  149.0710  140.4271  154.9724 C   0  0  0  0  0  0  0  0  0  0  0  0
  149.7214  139.2428  154.5491 C   0  0  0  0  0  0  0  0  0  0  0  0
  149.0212  138.1022  154.0638 N   0  0  0  0  0  0  0  0  0  0  0  0
  147.8581  137.5853  154.4962 C   0  0  0  0  0  0  0  0  0  0  0  0
  147.1632  138.0529  155.3982 O   0  0  0  0  0  0  0  0  0  0  0  0
  147.5287  136.4883  153.7981 N   0  0  0  0  0  0  0  0  0  0  0  0
  146.3291  135.6786  153.9965 C   0  0  2  0  0  0  0  0  0  0  0  0
  146.6445  134.4964  154.9311 C   0  0  0  0  0  0  0  0  0  0  0  0
  145.4458  133.5331  155.0278 C   0  0  0  0  0  0  0  0  0  0  0  0
  145.0382  133.0211  153.6874 N   0  3  2  0  0  0  0  0  0  0  0  0
  145.9853  132.0398  153.0521 C   0  0  0  0  0  0  0  0  0  0  0  0
  145.3126  131.2550  151.8930 C   0  0  0  0  0  0  0  0  0  0  0  0
  146.2364  130.1969  151.2695 C   0  0  0  0  0  0  0  0  0  0  0  0
  146.7538  129.2148  152.3240 C   0  0  0  0  0  0  0  0  0  0  0  0
  147.4716  129.9718  153.4447 C   0  0  0  0  0  0  0  0  0  0  0  0
  146.5571  131.0291  154.0835 C   0  0  0  0  0  0  0  0  0  0  0  0
  144.6425  134.1762  152.8301 C   0  0  0  0  0  0  0  0  0  0  0  0
  145.8012  135.1747  152.6402 C   0  0  0  0  0  0  0  0  0  0  0  0
  152.9823  138.0831  154.4016 H   0  0  0  0  0  0  0  0  0  0  0  0
  151.7453  137.7263  153.1955 H   0  0  0  0  0  0  0  0  0  0  0  0
  151.5965  137.0821  154.8372 H   0  0  0  0  0  0  0  0  0  0  0  0
  152.8904  140.3046  155.2633 H   0  0  0  0  0  0  0  0  0  0  0  0
  149.3813  142.4065  155.7909 H   0  0  0  0  0  0  0  0  0  0  0  0
  147.9976  140.5342  154.9459 H   0  0  0  0  0  0  0  0  0  0  0  0
  149.4281  137.6620  153.2517 H   0  0  0  0  0  0  0  0  0  0  0  0
  148.1611  136.1882  153.0706 H   0  0  0  0  0  0  0  0  0  0  0  0
  145.5411  136.2708  154.4655 H   0  0  0  0  0  0  0  0  0  0  0  0
  147.5266  133.9597  154.5801 H   0  0  0  0  0  0  0  0  0  0  0  0
  146.8936  134.8704  155.9250 H   0  0  0  0  0  0  0  0  0  0  0  0
  145.6411  132.7318  155.7369 H   0  0  0  0  0  0  0  0  0  0  0  0
  144.5987  134.0706  155.4562 H   0  0  0  0  0  0  0  0  0  0  0  0
  146.8272  132.5905  152.6325 H   0  0  0  0  0  0  0  0  0  0  0  0
  144.4023  130.7737  152.2532 H   0  0  0  0  0  0  0  0  0  0  0  0
  145.0162  131.9222  151.0857 H   0  0  0  0  0  0  0  0  0  0  0  0
  145.7036  129.6534  150.4886 H   0  0  0  0  0  0  0  0  0  0  0  0
  147.0797  130.6885  150.7825 H   0  0  0  0  0  0  0  0  0  0  0  0
  145.9231  128.6406  152.7363 H   0  0  0  0  0  0  0  0  0  0  0  0
  147.4323  128.4954  151.8645 H   0  0  0  0  0  0  0  0  0  0  0  0
  147.8133  129.2689  154.2054 H   0  0  0  0  0  0  0  0  0  0  0  0
  148.3654  130.4538  153.0464 H   0  0  0  0  0  0  0  0  0  0  0  0
  147.1527  131.5359  154.8410 H   0  0  0  0  0  0  0  0  0  0  0  0
  145.7387  130.5318  154.6062 H   0  0  0  0  0  0  0  0  0  0  0  0
  144.2362  133.8620  151.8714 H   0  0  0  0  0  0  0  0  0  0  0  0
  143.8139  134.6908  153.3188 H   0  0  0  0  0  0  0  0  0  0  0  0
  145.4595  136.0206  152.0420 H   0  0  0  0  0  0  0  0  0  0  0  0
  146.6053  134.7081  152.0700 H   0  0  0  0  0  0  0  0  0  0  0  0
  144.1897  132.4960  153.8452 H   0  0  0  0  0  0  0  0  0  0  0  0
  1  2  1  0  0  0  0
  1 24  1  0  0  0  0
  1 25  1  0  0  0  0
  1 26  1  0  0  0  0
  2  7  1  0  0  0  0
  2  3  2  0  0  0  0
  3  4  1  0  0  0  0
  3 27  1  0  0  0  0
  4  5  2  0  0  0  0
  5  6  1  0  0  0  0
  5 28  1  0  0  0  0
  6  7  2  0  0  0  0
  6 29  1  0  0  0  0
  7  8  1  0  0  0  0
  8  9  1  0  0  0  0
  8 30  1  0  0  0  0
  9 10  2  0  0  0  0
  9 11  1  0  0  0  0
 11 12  1  0  0  0  0
 11 31  1  0  0  0  0
 12 23  1  0  0  0  0
 12 13  1  0  0  0  0
 12 32  1  0  0  0  0
 13 14  1  0  0  0  0
 13 33  1  0  0  0  0
 13 34  1  0  0  0  0
 14 15  1  0  0  0  0
 14 35  1  0  0  0  0
 14 36  1  0  0  0  0
 15 16  1  0  0  0  0
 15 22  1  0  0  0  0
 15 52  1  0  0  0  0
 16 21  1  0  0  0  0
 16 17  1  0  0  0  0
 16 37  1  0  0  0  0
 17 18  1  0  0  0  0
 17 38  1  0  0  0  0
 17 39  1  0  0  0  0
 18 19  1  0  0  0  0
 18 40  1  0  0  0  0
 18 41  1  0  0  0  0
 19 20  1  0  0  0  0
 19 42  1  0  0  0  0
 19 43  1  0  0  0  0
 20 21  1  0  0  0  0
 20 44  1  0  0  0  0
 20 45  1  0  0  0  0
 21 46  1  0  0  0  0
 21 47  1  0  0  0  0
 22 23  1  0  0  0  0
 22 48  1  0  0  0  0
 22 49  1  0  0  0  0
 23 50  1  0  0  0  0
 23 51  1  0  0  0  0
M  CHG  1  15   1
M  END
> <s_m_source_file>
AV-unprocessed.smi

> <i_m_source_file_index>
2440

> <i_lp_mmshare_version>
43012

> <i_f3d_flags>
0

> <s_epik_input>
W0NIM11jMVtjSF1uW2NIXVtjSF1jMVtOSF1DKD1PKVtOSF1bQ0hdMltDSDJdW0NIMl1OKFtDSDJdW0NIMl0yKVtDSF0zW0NIMl1bQ0gyXVtDSDJdW0NIMl1bQ0gyXTM=

> <s_epik_cmdline>
J2VwaWtfcHl0aG9uJywgJy1waCcsICc3LjAnLCAnLXRuJywgJzgnLCAnLW1hJywgJzIwMCcsICctbWV0YWxfYmluZGluZycsICctaW1hZScsICc8aW5maWxlLm1hZT4nLCAnLW9tYWUnLCAnPG91dGZpbGUubWFlPic=

> <r_epik_Ionization_Penalty>
0.180356

> <r_epik_Ionization_Penalty_Charging>
0.00171891

> <r_epik_Ionization_Penalty_Neutral>
0.178637

> <r_epik_State_Penalty>
0.173134

> <r_epik_Charging_Adjusted_Penalty>
0.174853

> <i_epik_Tot_Q>
1

> <i_epik_Tot_abs_Q>
1

> <r_epik_Metal_State_Penalty>
0.131816

> <b_epik_Metal_Only>
0

> <s_lp_Force_Field>
OPLS_2005

> <r_lp_Energy>
36.8114

> <b_lp_Chiralities_Consistent>
1

> <s_lp_Variant>
AV-unprocessed.smi:2440-2

> <Gold.Version>
5.8.1

> <Gold.Id.Protein>
6NUR|6NUR_protein|mol2

> <Gold.PLP.Fitness>
41.5642

> <Gold.PLP.PLP>
-28.7425

> <Gold.PLP.part.hbond>
-3.8323

> <Gold.PLP.part.metal>
0.0000

> <Gold.PLP.part.buried>
3.2995

> <Gold.PLP.part.nonpolar>
-27.7975

> <Gold.PLP.part.repulsive>
0.0792

> <Gold.PLP.ligand.clash>
0.0000

> <Gold.PLP.ligand.torsion>
0.8487

> <Gold.PLP.Chemscore.Hbond>
3.8247

> <Gold.PLP.Chemscore.CHOScore>
1.0000

> <Gold.PLP.Chemscore.Metal>
0.0000

> <Gold.Chemscore.Hbonds>
donor molecule, donor type, donor heavy atom, donor atom, acceptor molecule, acceptor atom, score
      L1  H     8    30       P1  7948  0.82
      L1  H    11    31       P1  7948  0.78
      L1  H    15    52       P1 10957  2.00
      L1  C     5    28       P1  8028  1.00

> <Gold.PLP.Chemscore.Internal.Correction>
0.0449

> <Gold.Rescore>
     Score         DG    S(hbond)    S(metal)    S(lipo)     H(rot)  DE(clash)    DE(int)     intcor
     19.28     -21.12       2.39        0.00      90.96       1.17       0.43       1.42       ----

> <Gold.Chemscore.Fitness>
19.2751

> <Gold.Chemscore.DG>
-21.1195

> <Gold.Chemscore.ZeroCoef>
-5.4800

> <Gold.Chemscore.Hbond>
2.3942

> <Gold.Chemscore.Metal>
0.0000

> <Gold.Chemscore.Lipo>
90.9562

> <Gold.Chemscore.Internal_Hbond>
0.0000

> <Gold.Chemscore.DEClash>
0.4270

> <Gold.Chemscore.DEInternal>
1.4174

> <Gold.Chemscore.Rot>
1.1715

> <Gold.Chemscore.Internal.Correction>
   9.000000E+99

> <Gold.Chemscore.Hbonds>
donor molecule, donor type, donor heavy atom, donor atom, acceptor molecule, acceptor atom, score
      L1  H     8    30       P1  7948  0.73
      L1  H    11    31       P1  7948  0.76
      L1  H    15    52       P1 10957  0.50

> <Gold.Chemscore.Hbond.Weighted>
-7.9968

> <Gold.Chemscore.Metal.Weighted>
-0.0000

> <Gold.Chemscore.Lipo.Weighted>
-10.6419

> <Gold.Chemscore.Internal_Hbond.Weighted>
0.0000

> <Gold.Chemscore.DEClash.Weighted>
0.4270

> <Gold.Chemscore.DEInternal.Weighted>
1.4174

> <Gold.Chemscore.Rot.Weighted>
2.9991

> <Gold.Chemscore.Internal.Correction.Weighted>
   9.000000E+99

> <Gold.Protein.RotatedTorsions>
[ 6907 6896 6895 6894 ] final  -49.46 input  -60.11 | X-H torsion
[ 7974 7965 7964 7962 ] final -165.92 input  175.53 | X-H torsion
[ 8008 7997 7996 7995 ] final  119.97 input   59.86 | X-H torsion
[ 10167 10162 10161 10158 ] final  -19.19 input  -65.29 | X-H torsion
[ 10718 10713 10712 10709 ] final   56.33 input   66.30 | X-H torsion
[ 10763 10752 10751 10750 ] final   55.63 input  -60.55 | X-H torsion
[ 11005 11000 10999 10996 ] final -102.63 input  -57.11 | X-H torsion

> <Gold.Protein.ActiveResidues>
 VAL166  LYS551  ARG553  GLY616  TRP617  ASP618  TYR619  PRO620  LYS621  CYS622 
 ASP623  PHE694  ASN695  SER759  ASP760  ASP761  ALA762  ILE779  LEU786  VAL792 
 PHE793  MET794  SER795  GLU796  ALA797  LYS798  CYS799  TRP800  GLU811  SER814 

> <Gold.Protein.RotatedAtoms>
  150.8803  134.8193  159.7219 H   0  0  0  0  0  0  0  0  0  0  0  0  # atno 6907 bound_to 6896
  152.4773  134.4806  159.9674 H   0  0  0  0  0  0  0  0  0  0  0  0  # atno 6908 bound_to 6896
  151.4882  133.3492  159.2884 H   0  0  0  0  0  0  0  0  0  0  0  0  # atno 6909 bound_to 6896
  144.7258  140.2743  143.6246 H   0  0  0  0  0  0  0  0  0  0  0  0  # atno 7974 bound_to 7965
  156.2621  140.2841  156.1076 H   0  0  0  0  0  0  0  0  0  0  0  0  # atno 8008 bound_to 7997
  155.1293  140.0393  157.2788 H   0  0  0  0  0  0  0  0  0  0  0  0  # atno 8009 bound_to 7997
  154.6612  140.2567  155.7113 H   0  0  0  0  0  0  0  0  0  0  0  0  # atno 8010 bound_to 7997
  140.7266  143.4843  151.0076 H   0  0  0  0  0  0  0  0  0  0  0  0  # atno 10167 bound_to 10162
  157.5422  130.8705  149.8838 H   0  0  0  0  0  0  0  0  0  0  0  0  # atno 10718 bound_to 10713
  152.9819  135.5704  154.5098 H   0  0  0  0  0  0  0  0  0  0  0  0  # atno 10763 bound_to 10752
  154.4604  135.2781  155.1719 H   0  0  0  0  0  0  0  0  0  0  0  0  # atno 10764 bound_to 10752
  154.3309  135.6249  153.5604 H   0  0  0  0  0  0  0  0  0  0  0  0  # atno 10765 bound_to 10752
  141.1181  133.8574  157.1384 H   0  0  0  0  0  0  0  0  0  0  0  0  # atno 11005 bound_to 11000
  145.8012  139.1965  143.2047 LP  0  0  0  0  0  0  0  0  0  0  0  0  # atno 17320 bound_to 7965
  146.0675  140.7905  142.9704 LP  0  0  0  0  0  0  0  0  0  0  0  0  # atno 17321 bound_to 7965
  139.8543  143.7397  152.3176 LP  0  0  0  0  0  0  0  0  0  0  0  0  # atno 17342 bound_to 10162
  139.7590  144.7512  151.0392 LP  0  0  0  0  0  0  0  0  0  0  0  0  # atno 17343 bound_to 10162
  156.0506  130.3718  150.1211 LP  0  0  0  0  0  0  0  0  0  0  0  0  # atno 17370 bound_to 10713
  156.9390  130.9738  151.3519 LP  0  0  0  0  0  0  0  0  0  0  0  0  # atno 17371 bound_to 10713
  140.0117  134.9985  157.0410 LP  0  0  0  0  0  0  0  0  0  0  0  0  # atno 17394 bound_to 11000
  140.4588  134.1506  155.7189 LP  0  0  0  0  0  0  0  0  0  0  0  0  # atno 17395 bound_to 11000

$$$$
