AV-unprocessed.smi:445|AV-procd|sdf|2592|dock8
  -GOLD-   2262022583D 1   1.00000     0.00000
 Structure written by MMmdl.
 44 45  0  0  0  0  0  0  0  0  3 V2000
  151.0594  140.2251  157.9905 C   0  0  0  0  0  0  0  0  0  0  0  0
  151.1371  141.7321  158.2964 C   0  0  1  0  0  0  0  0  0  0  0  0
  152.2994  142.0324  159.2642 C   0  0  0  0  0  0  0  0  0  0  0  0
  152.3864  143.5277  159.6058 C   0  0  0  0  0  0  0  0  0  0  0  0
  152.5148  144.3769  158.3339 C   0  0  0  0  0  0  0  0  0  0  0  0
  151.3580  144.0960  157.3639 C   0  0  0  0  0  0  0  0  0  0  0  0
  151.2588  142.5955  157.0158 C   0  0  2  0  0  0  0  0  0  0  0  0
  150.1129  142.3592  156.1431 N   0  0  0  0  0  0  0  0  0  0  0  0
  149.9737  141.3377  155.2811 C   0  0  0  0  0  0  0  0  0  0  0  0
  150.8390  140.4780  155.1215 O   0  0  0  0  0  0  0  0  0  0  0  0
  148.6679  141.2423  154.4724 C   0  0  0  0  0  0  0  0  0  0  0  0
  147.5075  141.9209  155.0834 N   0  0  0  0  0  0  0  0  0  0  0  0
  146.7775  142.7797  154.2429 C   0  0  0  0  0  0  0  0  0  0  0  0
  145.6962  143.4545  154.6707 C   0  0  0  0  0  0  0  0  0  0  0  0
  144.9570  144.3258  153.7825 N   0  3  0  0  0  0  0  0  0  0  0  0
  145.4093  144.5486  152.6640 O   0  0  0  0  0  0  0  0  0  0  0  0
  143.9015  144.8164  154.1717 O   0  5  0  0  0  0  0  0  0  0  0  0
  145.2890  143.2758  156.0490 C   0  0  0  0  0  0  0  0  0  0  0  0
  145.9742  142.4466  156.8774 C   0  0  0  0  0  0  0  0  0  0  0  0
  145.5885  142.2274  158.2896 C   0  0  0  0  0  0  0  0  0  0  0  0
  144.4327  142.8046  158.6422 N   0  0  0  0  0  0  0  0  0  0  0  0
  146.2128  141.5877  159.1356 O   0  0  0  0  0  0  0  0  0  0  0  0
  147.1648  141.6973  156.3910 C   0  0  0  0  0  0  0  0  0  0  0  0
  147.8299  140.9126  157.0720 O   0  0  0  0  0  0  0  0  0  0  0  0
  151.9463  139.8842  157.4555 H   0  0  0  0  0  0  0  0  0  0  0  0
  150.1884  139.9795  157.3821 H   0  0  0  0  0  0  0  0  0  0  0  0
  150.9826  139.6436  158.9096 H   0  0  0  0  0  0  0  0  0  0  0  0
  150.2102  142.0085  158.8019 H   0  0  0  0  0  0  0  0  0  0  0  0
  152.1775  141.4581  160.1831 H   0  0  0  0  0  0  0  0  0  0  0  0
  153.2414  141.7065  158.8207 H   0  0  0  0  0  0  0  0  0  0  0  0
  151.4972  143.8297  160.1605 H   0  0  0  0  0  0  0  0  0  0  0  0
  153.2375  143.7106  160.2622 H   0  0  0  0  0  0  0  0  0  0  0  0
  152.5335  145.4357  158.5939 H   0  0  0  0  0  0  0  0  0  0  0  0
  153.4649  144.1615  157.8434 H   0  0  0  0  0  0  0  0  0  0  0  0
  150.4214  144.4337  157.8106 H   0  0  0  0  0  0  0  0  0  0  0  0
  151.4962  144.6863  156.4573 H   0  0  0  0  0  0  0  0  0  0  0  0
  152.1679  142.2976  156.4894 H   0  0  0  0  0  0  0  0  0  0  0  0
  149.3554  143.0232  156.2089 H   0  0  0  0  0  0  0  0  0  0  0  0
  148.8561  141.6276  153.4689 H   0  0  0  0  0  0  0  0  0  0  0  0
  148.4437  140.1854  154.3208 H   0  0  0  0  0  0  0  0  0  0  0  0
  147.1533  142.8415  153.2314 H   0  0  0  0  0  0  0  0  0  0  0  0
  144.4216  143.8182  156.3943 H   0  0  0  0  0  0  0  0  0  0  0  0
  144.0841  142.7095  159.5847 H   0  0  0  0  0  0  0  0  0  0  0  0
  143.9107  143.3335  157.9584 H   0  0  0  0  0  0  0  0  0  0  0  0
  1  2  1  0  0  0  0
  1 25  1  0  0  0  0
  1 26  1  0  0  0  0
  1 27  1  0  0  0  0
  2  7  1  0  0  0  0
  2  3  1  0  0  0  0
  2 28  1  0  0  0  0
  3  4  1  0  0  0  0
  3 29  1  0  0  0  0
  3 30  1  0  0  0  0
  4  5  1  0  0  0  0
  4 31  1  0  0  0  0
  4 32  1  0  0  0  0
  5  6  1  0  0  0  0
  5 33  1  0  0  0  0
  5 34  1  0  0  0  0
  6  7  1  0  0  0  0
  6 35  1  0  0  0  0
  6 36  1  0  0  0  0
  7  8  1  0  0  0  0
  7 37  1  0  0  0  0
  8  9  1  0  0  0  0
  8 38  1  0  0  0  0
  9 10  2  0  0  0  0
  9 11  1  0  0  0  0
 11 12  1  0  0  0  0
 11 39  1  0  0  0  0
 11 40  1  0  0  0  0
 12 23  1  0  0  0  0
 12 13  1  0  0  0  0
 13 14  2  0  0  0  0
 13 41  1  0  0  0  0
 14 15  1  0  0  0  0
 14 18  1  0  0  0  0
 15 16  2  0  0  0  0
 15 17  1  0  0  0  0
 18 19  2  0  0  0  0
 18 42  1  0  0  0  0
 19 20  1  0  0  0  0
 19 23  1  0  0  0  0
 20 21  1  0  0  0  0
 20 22  2  0  0  0  0
 21 43  1  0  0  0  0
 21 44  1  0  0  0  0
 23 24  2  0  0  0  0
M  CHG  1  15   1
M  CHG  1  17  -1
M  END
> <s_m_source_file>
AV-unprocessed.smi

> <i_m_source_file_index>
445

> <i_lp_mmshare_version>
43012

> <i_f3d_flags>
0

> <s_epik_input>
W0NIM11bQ0BASF0xW0NIMl1bQ0gyXVtDSDJdW0NIMl1bQ0BIXTFbTkhdQyg9TylbQ0gyXW4yW2NIXWMoW04rXSg9TylbTy1dKVtjSF1jKGMyPU8pQyg9TylbTkgyXQ==

> <s_epik_cmdline>
J2VwaWtfcHl0aG9uJywgJy1waCcsICc3LjAnLCAnLXRuJywgJzgnLCAnLW1hJywgJzIwMCcsICctbWV0YWxfYmluZGluZycsICctaW1hZScsICc8aW5maWxlLm1hZT4nLCAnLW9tYWUnLCAnPG91dGZpbGUubWFlPic=

> <r_lp_tautomer_probability>
1

> <r_epik_Ionization_Penalty>
2.81321e-06

> <r_epik_Ionization_Penalty_Charging>
2.43777e-12

> <r_epik_Ionization_Penalty_Neutral>
2.81321e-06

> <r_epik_State_Penalty>
-0

> <r_epik_Charging_Adjusted_Penalty>
2.43777e-12

> <i_epik_Tot_Q>
0

> <i_epik_Tot_abs_Q>
2

> <r_epik_Metal_State_Penalty>
-0

> <b_epik_Metal_Only>
0

> <s_lp_Force_Field>
OPLS_2005

> <r_lp_Energy>
28.9067

> <b_lp_Chiralities_Consistent>
1

> <s_lp_Variant>
AV-unprocessed.smi:445-4

> <Gold.Version>
5.8.1

> <Gold.Id.Protein>
6NUR|6NUR_protein|mol2

> <Gold.PLP.Fitness>
51.9051

> <Gold.PLP.PLP>
-45.2210

> <Gold.PLP.part.hbond>
-3.8015

> <Gold.PLP.part.metal>
0.0000

> <Gold.PLP.part.buried>
-3.6493

> <Gold.PLP.part.nonpolar>
-37.7801

> <Gold.PLP.part.repulsive>
0.5196

> <Gold.PLP.ligand.clash>
0.0000

> <Gold.PLP.ligand.torsion>
0.8128

> <Gold.PLP.Chemscore.Hbond>
2.7600

> <Gold.PLP.Chemscore.CHOScore>
0.0000

> <Gold.PLP.Chemscore.Metal>
0.0000

> <Gold.Chemscore.Hbonds>
donor molecule, donor type, donor heavy atom, donor atom, acceptor molecule, acceptor atom, score
      L1  H     8    38       P1  8028  0.82
      P1  H  6934  6946       L1    22  0.85
      P1  H  7989  7998       L1    10  1.00

> <Gold.PLP.Chemscore.Internal.Correction>
0.0297

> <Gold.Rescore>
     Score         DG    S(hbond)    S(metal)    S(lipo)     H(rot)  DE(clash)    DE(int)     intcor
     14.80     -20.05       2.30        0.00      96.29       1.71       1.85       3.39       ----

> <Gold.Chemscore.Fitness>
14.8043

> <Gold.Chemscore.DG>
-20.0469

> <Gold.Chemscore.ZeroCoef>
-5.4800

> <Gold.Chemscore.Hbond>
2.3007

> <Gold.Chemscore.Metal>
0.0000

> <Gold.Chemscore.Lipo>
96.2908

> <Gold.Chemscore.Internal_Hbond>
0.0000

> <Gold.Chemscore.DEClash>
1.8531

> <Gold.Chemscore.DEInternal>
3.3895

> <Gold.Chemscore.Rot>
1.7123

> <Gold.Chemscore.Internal.Correction>
   9.000000E+99

> <Gold.Chemscore.Hbonds>
donor molecule, donor type, donor heavy atom, donor atom, acceptor molecule, acceptor atom, score
      L1  H     8    38       P1  8028  0.81
      P1  H  6934  6946       L1    22  0.83
      P1  H  7989  7998       L1    10  0.48

> <Gold.Chemscore.Hbond.Weighted>
-7.6843

> <Gold.Chemscore.Metal.Weighted>
-0.0000

> <Gold.Chemscore.Lipo.Weighted>
-11.2660

> <Gold.Chemscore.Internal_Hbond.Weighted>
0.0000

> <Gold.Chemscore.DEClash.Weighted>
1.8531

> <Gold.Chemscore.DEInternal.Weighted>
3.3895

> <Gold.Chemscore.Rot.Weighted>
4.3835

> <Gold.Chemscore.Internal.Correction.Weighted>
   9.000000E+99

> <Gold.Protein.RotatedTorsions>
[ 6907 6896 6895 6894 ] final  -96.47 input  -60.11 | X-H torsion
[ 7974 7965 7964 7962 ] final  -97.12 input  175.53 | X-H torsion
[ 8008 7997 7996 7995 ] final  155.44 input   59.86 | X-H torsion
[ 10167 10162 10161 10158 ] final  154.78 input  -65.29 | X-H torsion
[ 10718 10713 10712 10709 ] final  -91.74 input   66.30 | X-H torsion
[ 10763 10752 10751 10750 ] final  114.11 input  -60.55 | X-H torsion
[ 11005 11000 10999 10996 ] final  113.48 input  -57.11 | X-H torsion

> <Gold.Protein.ActiveResidues>
 VAL166  LYS551  ARG553  GLY616  TRP617  ASP618  TYR619  PRO620  LYS621  CYS622 
 ASP623  PHE694  ASN695  SER759  ASP760  ASP761  ALA762  ILE779  LEU786  VAL792 
 PHE793  MET794  SER795  GLU796  ALA797  LYS798  CYS799  TRP800  GLU811  SER814 

> <Gold.Protein.RotatedAtoms>
  150.6989  134.1498  159.4135 H   0  0  0  0  0  0  0  0  0  0  0  0  # atno 6907 bound_to 6896
  151.9481  135.0179  160.0549 H   0  0  0  0  0  0  0  0  0  0  0  0  # atno 6908 bound_to 6896
  152.2035  133.4823  159.5108 H   0  0  0  0  0  0  0  0  0  0  0  0  # atno 6909 bound_to 6896
  145.3379  140.9454  143.2624 H   0  0  0  0  0  0  0  0  0  0  0  0  # atno 7974 bound_to 7965
  156.2478  140.1939  156.6802 H   0  0  0  0  0  0  0  0  0  0  0  0  # atno 8008 bound_to 7997
  154.6327  140.0593  156.9778 H   0  0  0  0  0  0  0  0  0  0  0  0  # atno 8009 bound_to 7997
  155.1685  140.3266  155.4400 H   0  0  0  0  0  0  0  0  0  0  0  0  # atno 8010 bound_to 7997
  139.4822  144.5156  151.7956 H   0  0  0  0  0  0  0  0  0  0  0  0  # atno 10167 bound_to 10162
  155.9996  130.4960  150.5521 H   0  0  0  0  0  0  0  0  0  0  0  0  # atno 10718 bound_to 10713
  153.5024  135.3635  155.2546 H   0  0  0  0  0  0  0  0  0  0  0  0  # atno 10763 bound_to 10752
  154.8747  135.4003  154.3463 H   0  0  0  0  0  0  0  0  0  0  0  0  # atno 10764 bound_to 10752
  153.4102  135.7077  153.6431 H   0  0  0  0  0  0  0  0  0  0  0  0  # atno 10765 bound_to 10752
  139.8954  134.9550  156.6745 H   0  0  0  0  0  0  0  0  0  0  0  0  # atno 11005 bound_to 11000
  144.8813  139.4900  143.6721 LP  0  0  0  0  0  0  0  0  0  0  0  0  # atno 17320 bound_to 7965
  146.3019  139.7455  142.9085 LP  0  0  0  0  0  0  0  0  0  0  0  0  # atno 17321 bound_to 7965
  140.4664  144.1649  150.5912 LP  0  0  0  0  0  0  0  0  0  0  0  0  # atno 17342 bound_to 10162
  140.4429  143.2519  151.9449 LP  0  0  0  0  0  0  0  0  0  0  0  0  # atno 17343 bound_to 10162
  157.3442  131.0722  151.1764 LP  0  0  0  0  0  0  0  0  0  0  0  0  # atno 17370 bound_to 10713
  157.2602  130.6655  149.5971 LP  0  0  0  0  0  0  0  0  0  0  0  0  # atno 17371 bound_to 10713
  140.7347  133.9029  155.8236 LP  0  0  0  0  0  0  0  0  0  0  0  0  # atno 17394 bound_to 11000
  141.0125  134.1000  157.4206 LP  0  0  0  0  0  0  0  0  0  0  0  0  # atno 17395 bound_to 11000

$$$$
