AV-unprocessed.smi:21|AV-procd|sdf|164|dock2
  -GOLD-   2262015403D 1   1.00000     0.00000
 Structure written by MMmdl.
 61 64  0  0  0  0  0  0  0  0  1 V2000
  149.9323  145.0154  160.2439 C   0  0  0  0  0  0  0  0  0  0  0  0
  151.0268  145.7841  159.7701 O   0  0  0  0  0  0  0  0  0  0  0  0
  151.9603  145.0306  159.0077 C   0  0  2  0  0  0  0  0  0  0  0  0
  151.2617  144.1809  157.9316 C   0  0  0  0  0  0  0  0  0  0  0  0
  151.7472  142.7469  158.1932 C   0  0  2  0  0  0  0  0  0  0  0  0
  150.7666  141.6604  157.6928 C   0  0  0  0  0  0  0  0  0  0  0  0
  151.4334  140.4476  157.2161 N   0  0  0  0  0  0  0  0  0  0  0  0
  151.5982  140.3016  155.7718 C   0  0  0  0  0  0  0  0  0  0  0  0
  151.3623  139.3167  157.9721 C   0  0  0  0  0  0  0  0  0  0  0  0
  152.4988  138.8400  158.5495 N   0  0  0  0  0  0  0  0  0  0  0  0
  152.4802  137.7147  159.2681 C   0  0  0  0  0  0  0  0  0  0  0  0
  151.4478  136.9157  159.5377 N   0  0  0  0  0  0  0  0  0  0  0  0
  150.2990  137.3905  158.9785 C   0  0  0  0  0  0  0  0  0  0  0  0
  150.1644  138.5734  158.1947 C   0  0  0  0  0  0  0  0  0  0  0  0
  148.8340  138.7316  157.8211 N   0  0  0  0  0  0  0  0  0  0  0  0
  148.2252  137.6984  158.3335 C   0  0  0  0  0  0  0  0  0  0  0  0
  149.0298  136.8434  159.0492 N   0  0  0  0  0  0  0  0  0  0  0  0
  148.6141  135.6221  159.7179 C   0  0  0  0  0  0  0  0  0  0  0  0
  147.5867  135.8623  160.8525 C   0  0  2  0  0  0  0  0  0  0  0  0
  148.1642  136.8095  161.9353 C   0  0  0  0  0  0  0  0  0  0  0  0
  147.1457  137.5203  162.6067 O   0  0  0  0  0  0  0  0  0  0  0  0
  147.1153  134.5055  161.4447 C   0  0  1  0  0  0  0  0  0  0  0  0
  146.0976  134.5922  162.5694 C   0  0  0  0  0  0  0  0  0  0  0  0
  145.5173  133.1834  162.5927 C   0  0  0  0  0  0  0  0  0  0  0  0
  145.5340  132.7442  161.2407 O   0  0  0  0  0  0  0  0  0  0  0  0
  146.3538  133.6080  160.4600 C   0  0  0  0  0  0  0  0  0  0  0  0
  151.9933  142.7167  159.6263 N   0  0  0  0  0  0  0  0  0  0  0  0
  152.8038  141.5883  160.0656 C   0  0  0  0  0  0  0  0  0  0  0  0
  152.6331  143.9885  159.9078 C   0  0  0  0  0  0  0  0  0  0  0  0
  152.7215  145.6835  158.5771 H   0  0  0  0  0  0  0  0  0  0  0  0
  152.7030  142.6198  157.6816 H   0  0  0  0  0  0  0  0  0  0  0  0
  149.2565  145.6553  160.8110 H   0  0  0  0  0  0  0  0  0  0  0  0
  150.2590  144.2090  160.9014 H   0  0  0  0  0  0  0  0  0  0  0  0
  149.3683  144.5829  159.4167 H   0  0  0  0  0  0  0  0  0  0  0  0
  150.1795  144.2361  158.0567 H   0  0  0  0  0  0  0  0  0  0  0  0
  151.4982  144.5209  156.9231 H   0  0  0  0  0  0  0  0  0  0  0  0
  150.1157  141.3554  158.5113 H   0  0  0  0  0  0  0  0  0  0  0  0
  150.0940  142.0779  156.9475 H   0  0  0  0  0  0  0  0  0  0  0  0
  152.4250  139.6285  155.5413 H   0  0  0  0  0  0  0  0  0  0  0  0
  151.8186  141.2641  155.3098 H   0  0  0  0  0  0  0  0  0  0  0  0
  150.6899  139.9073  155.3144 H   0  0  0  0  0  0  0  0  0  0  0  0
  153.4298  137.4095  159.6825 H   0  0  0  0  0  0  0  0  0  0  0  0
  147.1654  137.5324  158.2060 H   0  0  0  0  0  0  0  0  0  0  0  0
  148.2008  134.9675  158.9512 H   0  0  0  0  0  0  0  0  0  0  0  0
  149.4967  135.1156  160.1102 H   0  0  0  0  0  0  0  0  0  0  0  0
  146.7230  136.3550  160.4029 H   0  0  0  0  0  0  0  0  0  0  0  0
  148.7614  136.2531  162.6581 H   0  0  0  0  0  0  0  0  0  0  0  0
  148.8207  137.5626  161.5020 H   0  0  0  0  0  0  0  0  0  0  0  0
  146.6170  136.9034  163.0895 H   0  0  0  0  0  0  0  0  0  0  0  0
  147.9824  133.9541  161.8124 H   0  0  0  0  0  0  0  0  0  0  0  0
  146.5358  134.8713  163.5278 H   0  0  0  0  0  0  0  0  0  0  0  0
  145.3170  135.3140  162.3239 H   0  0  0  0  0  0  0  0  0  0  0  0
  146.1522  132.5203  163.1815 H   0  0  0  0  0  0  0  0  0  0  0  0
  144.5115  133.1519  163.0116 H   0  0  0  0  0  0  0  0  0  0  0  0
  145.7036  134.2028  159.8171 H   0  0  0  0  0  0  0  0  0  0  0  0
  147.0219  133.0305  159.8209 H   0  0  0  0  0  0  0  0  0  0  0  0
  153.0022  141.6550  161.1357 H   0  0  0  0  0  0  0  0  0  0  0  0
  153.7619  141.5620  159.5448 H   0  0  0  0  0  0  0  0  0  0  0  0
  152.2924  140.6431  159.8868 H   0  0  0  0  0  0  0  0  0  0  0  0
  153.6919  143.9339  159.6483 H   0  0  0  0  0  0  0  0  0  0  0  0
  152.5701  144.2432  160.9664 H   0  0  0  0  0  0  0  0  0  0  0  0
  1  2  1  0  0  0  0
  1 32  1  0  0  0  0
  1 33  1  0  0  0  0
  1 34  1  0  0  0  0
  2  3  1  0  0  0  0
  3 30  1  0  0  0  0
  3 29  1  0  0  0  0
  3  4  1  0  0  0  0
  4  5  1  0  0  0  0
  4 35  1  0  0  0  0
  4 36  1  0  0  0  0
  5 31  1  0  0  0  0
  5  6  1  0  0  0  0
  5 27  1  0  0  0  0
  6  7  1  0  0  0  0
  6 37  1  0  0  0  0
  6 38  1  0  0  0  0
  7  8  1  0  0  0  0
  7  9  1  0  0  0  0
  8 39  1  0  0  0  0
  8 40  1  0  0  0  0
  8 41  1  0  0  0  0
  9 14  1  0  0  0  0
  9 10  2  0  0  0  0
 10 11  1  0  0  0  0
 11 12  2  0  0  0  0
 11 42  1  0  0  0  0
 12 13  1  0  0  0  0
 13 17  1  0  0  0  0
 13 14  2  0  0  0  0
 14 15  1  0  0  0  0
 15 16  2  0  0  0  0
 16 17  1  0  0  0  0
 16 43  1  0  0  0  0
 17 18  1  0  0  0  0
 18 19  1  0  0  0  0
 18 44  1  0  0  0  0
 18 45  1  0  0  0  0
 19 20  1  0  0  0  0
 19 22  1  0  0  0  0
 19 46  1  0  0  0  0
 20 21  1  0  0  0  0
 20 47  1  0  0  0  0
 20 48  1  0  0  0  0
 21 49  1  0  0  0  0
 22 26  1  0  0  0  0
 22 23  1  0  0  0  0
 22 50  1  0  0  0  0
 23 24  1  0  0  0  0
 23 51  1  0  0  0  0
 23 52  1  0  0  0  0
 24 25  1  0  0  0  0
 24 53  1  0  0  0  0
 24 54  1  0  0  0  0
 25 26  1  0  0  0  0
 26 55  1  0  0  0  0
 26 56  1  0  0  0  0
 27 28  1  0  0  0  0
 27 29  1  0  0  0  0
 28 57  1  0  0  0  0
 28 58  1  0  0  0  0
 28 59  1  0  0  0  0
 29 60  1  0  0  0  0
 29 61  1  0  0  0  0
M  END
> <s_m_source_file>
AV-unprocessed.smi

> <i_m_source_file_index>
21

> <i_lp_mmshare_version>
43012

> <i_f3d_flags>
0

> <s_epik_input>
W0NIM11PW0NASF0xW0NIMl1bQ0BIXShOKFtDSDNdKVtDSDJdMSlbQ0gyXU4oW0NIM10pYyhuW2NIXW4yKWMoYzIzKW5bY0hdbjNbQ0gyXVtDQEhdKFtDSDJdW09IXSlbQ0BASF00W0NIMl1bQ0gyXU9bQ0gyXTQ=

> <s_epik_cmdline>
J2VwaWtfcHl0aG9uJywgJy1waCcsICc3LjAnLCAnLXRuJywgJzgnLCAnLW1hJywgJzIwMCcsICctbWV0YWxfYmluZGluZycsICctaW1hZScsICc8aW5maWxlLm1hZT4nLCAnLW9tYWUnLCAnPG91dGZpbGUubWFlPic=

> <r_lp_tautomer_probability>
1

> <r_epik_Ionization_Penalty>
2.17574

> <r_epik_Ionization_Penalty_Charging>
0

> <r_epik_Ionization_Penalty_Neutral>
2.17574

> <r_epik_State_Penalty>
2.31336

> <r_epik_Charging_Adjusted_Penalty>
2.31336

> <i_epik_Tot_Q>
0

> <i_epik_Tot_abs_Q>
0

> <r_epik_Metal_State_Penalty>
2.31025

> <b_epik_Metal_Only>
0

> <s_lp_Force_Field>
OPLS_2005

> <r_lp_Energy>
70.4108

> <b_lp_Chiralities_Consistent>
1

> <s_lp_Variant>
AV-unprocessed.smi:21-44

> <Gold.Version>
5.8.1

> <Gold.Id.Protein>
6NUR|6NUR_protein|mol2

> <Gold.PLP.Fitness>
53.0618

> <Gold.PLP.PLP>
-53.4200

> <Gold.PLP.part.hbond>
-4.7508

> <Gold.PLP.part.metal>
0.0000

> <Gold.PLP.part.buried>
-2.8952

> <Gold.PLP.part.nonpolar>
-44.8392

> <Gold.PLP.part.repulsive>
0.2460

> <Gold.PLP.ligand.clash>
0.0000

> <Gold.PLP.ligand.torsion>
2.4021

> <Gold.PLP.Chemscore.Hbond>
1.1734

> <Gold.PLP.Chemscore.CHOScore>
0.0000

> <Gold.PLP.Chemscore.Metal>
0.0000

> <Gold.Chemscore.Hbonds>
donor molecule, donor type, donor heavy atom, donor atom, acceptor molecule, acceptor atom, score
      P1  H  6896  6908       L1    12  1.00
      P1  H  6934  6947       L1    21  0.11

> <Gold.PLP.Chemscore.Internal.Correction>
0.9257

> <Gold.Rescore>
     Score         DG    S(hbond)    S(metal)    S(lipo)     H(rot)  DE(clash)    DE(int)     intcor
     12.67     -16.59       0.98        0.00     132.83       3.00       1.57       2.35       ----

> <Gold.Chemscore.Fitness>
12.6697

> <Gold.Chemscore.DG>
-16.5915

> <Gold.Chemscore.ZeroCoef>
-5.4800

> <Gold.Chemscore.Hbond>
0.9755

> <Gold.Chemscore.Metal>
0.0000

> <Gold.Chemscore.Lipo>
132.8315

> <Gold.Chemscore.Internal_Hbond>
0.0000

> <Gold.Chemscore.DEClash>
1.5712

> <Gold.Chemscore.DEInternal>
2.3506

> <Gold.Chemscore.Rot>
3.0031

> <Gold.Chemscore.Internal.Correction>
   9.000000E+99

> <Gold.Chemscore.Hbonds>
donor molecule, donor type, donor heavy atom, donor atom, acceptor molecule, acceptor atom, score
      P1  H  6896  6908       L1    12  0.78

> <Gold.Chemscore.Hbond.Weighted>
-3.2582

> <Gold.Chemscore.Metal.Weighted>
-0.0000

> <Gold.Chemscore.Lipo.Weighted>
-15.5413

> <Gold.Chemscore.Internal_Hbond.Weighted>
0.0000

> <Gold.Chemscore.DEClash.Weighted>
1.5712

> <Gold.Chemscore.DEInternal.Weighted>
2.3506

> <Gold.Chemscore.Rot.Weighted>
7.6880

> <Gold.Chemscore.Internal.Correction.Weighted>
   9.000000E+99

> <Gold.Protein.RotatedTorsions>
[ 6907 6896 6895 6894 ] final -137.35 input  -60.11 | X-H torsion
[ 7974 7965 7964 7962 ] final -175.51 input  175.53 | X-H torsion
[ 8008 7997 7996 7995 ] final  -47.85 input   59.86 | X-H torsion
[ 10167 10162 10161 10158 ] final  108.73 input  -65.29 | X-H torsion
[ 10718 10713 10712 10709 ] final   -0.04 input   66.30 | X-H torsion
[ 10763 10752 10751 10750 ] final -112.60 input  -60.55 | X-H torsion
[ 11005 11000 10999 10996 ] final  -64.28 input  -57.11 | X-H torsion

> <Gold.Protein.ActiveResidues>
 VAL166  LYS551  ARG553  GLY616  TRP617  ASP618  TYR619  PRO620  LYS621  CYS622 
 ASP623  PHE694  ASN695  SER759  ASP760  ASP761  ALA762  ILE779  LEU786  VAL792 
 PHE793  MET794  SER795  GLU796  ALA797  LYS798  CYS799  TRP800  GLU811  SER814 

> <Gold.Protein.RotatedAtoms>
  151.0213  133.5874  159.2670 H   0  0  0  0  0  0  0  0  0  0  0  0  # atno 6907 bound_to 6896
  151.2989  135.0762  159.9241 H   0  0  0  0  0  0  0  0  0  0  0  0  # atno 6908 bound_to 6896
  152.5324  133.9898  159.7900 H   0  0  0  0  0  0  0  0  0  0  0  0  # atno 6909 bound_to 6896
  144.7128  140.1310  143.6398 H   0  0  0  0  0  0  0  0  0  0  0  0  # atno 7974 bound_to 7965
  154.4021  140.1336  156.4243 H   0  0  0  0  0  0  0  0  0  0  0  0  # atno 8008 bound_to 7997
  155.7612  140.3486  155.5179 H   0  0  0  0  0  0  0  0  0  0  0  0  # atno 8009 bound_to 7997
  155.8857  140.0995  157.1444 H   0  0  0  0  0  0  0  0  0  0  0  0  # atno 8010 bound_to 7997
  139.6823  144.7117  151.1494 H   0  0  0  0  0  0  0  0  0  0  0  0  # atno 10167 bound_to 10162
  156.8263  130.5473  149.5691 H   0  0  0  0  0  0  0  0  0  0  0  0  # atno 10718 bound_to 10713
  154.8357  135.4485  154.1219 H   0  0  0  0  0  0  0  0  0  0  0  0  # atno 10763 bound_to 10752
  153.2453  135.6921  153.7744 H   0  0  0  0  0  0  0  0  0  0  0  0  # atno 10764 bound_to 10752
  153.7077  135.3361  155.3215 H   0  0  0  0  0  0  0  0  0  0  0  0  # atno 10765 bound_to 10752
  141.1420  133.6663  156.5809 H   0  0  0  0  0  0  0  0  0  0  0  0  # atno 11005 bound_to 11000
  145.9287  139.2592  143.1338 LP  0  0  0  0  0  0  0  0  0  0  0  0  # atno 17320 bound_to 7965
  145.9545  140.8883  143.0242 LP  0  0  0  0  0  0  0  0  0  0  0  0  # atno 17321 bound_to 7965
  140.7656  143.5681  150.9025 LP  0  0  0  0  0  0  0  0  0  0  0  0  # atno 17342 bound_to 10162
  139.9354  143.6444  152.3066 LP  0  0  0  0  0  0  0  0  0  0  0  0  # atno 17343 bound_to 10162
  156.0960  130.5932  150.9814 LP  0  0  0  0  0  0  0  0  0  0  0  0  # atno 17370 bound_to 10713
  157.6430  131.0908  150.8211 LP  0  0  0  0  0  0  0  0  0  0  0  0  # atno 17371 bound_to 10713
  140.3838  134.7500  157.4678 LP  0  0  0  0  0  0  0  0  0  0  0  0  # atno 17394 bound_to 11000
  140.0617  134.5986  155.8741 LP  0  0  0  0  0  0  0  0  0  0  0  0  # atno 17395 bound_to 11000

$$$$
