AV-unprocessed.smi:955|AV-procd|sdf|4261|dock10
  -GOLD-   22720 2173D 1   1.00000     0.00000
 Structure written by MMmdl.
 29 29  0  0  0  0  0  0  0  0  1 V2000
  152.0743  138.1994  156.8901 C   0  0  0  0  0  0  0  0  0  0  0  0
  151.9239  139.6658  156.4525 C   0  0  2  0  0  0  0  0  0  0  0  0
  151.8222  140.4868  157.6572 N   0  0  0  0  0  0  0  0  0  0  0  0
  152.7510  140.5675  158.6243 C   0  0  0  0  0  0  0  0  0  0  0  0
  153.7871  139.9010  158.6177 O   0  0  0  0  0  0  0  0  0  0  0  0
  152.4576  141.5583  159.7618 C   0  0  1  0  0  0  0  0  0  0  0  0
  153.5549  141.5711  160.8460 C   0  0  0  0  0  0  0  0  0  0  0  0
  152.2035  142.8874  159.2165 N   0  0  0  0  0  0  0  0  0  0  0  0
  152.7900  144.0812  159.5853 C   0  0  0  0  0  0  0  0  0  0  0  0
  152.2129  145.0704  158.8420 C   0  0  0  0  0  0  0  0  0  0  0  0
  151.2599  144.3799  158.0435 C   0  0  0  0  0  0  0  0  0  0  0  0
  151.2507  143.0776  158.2742 N   0  0  0  0  0  0  0  0  0  0  0  0
  150.6385  139.7825  155.6167 C   0  0  0  0  0  0  0  0  0  0  0  0
  149.4943  139.4584  156.2234 N   0  0  0  0  0  0  0  0  0  0  0  0
  150.6715  140.1729  154.4501 O   0  0  0  0  0  0  0  0  0  0  0  0
  152.1568  137.5353  156.0288 H   0  0  0  0  0  0  0  0  0  0  0  0
  151.2259  137.8639  157.4889 H   0  0  0  0  0  0  0  0  0  0  0  0
  152.9745  138.0635  157.4902 H   0  0  0  0  0  0  0  0  0  0  0  0
  152.7920  139.9655  155.8619 H   0  0  0  0  0  0  0  0  0  0  0  0
  151.0039  141.0724  157.7376 H   0  0  0  0  0  0  0  0  0  0  0  0
  151.5358  141.2287  160.2439 H   0  0  0  0  0  0  0  0  0  0  0  0
  153.6858  140.5810  161.2840 H   0  0  0  0  0  0  0  0  0  0  0  0
  153.2925  142.2532  161.6550 H   0  0  0  0  0  0  0  0  0  0  0  0
  154.5211  141.8864  160.4496 H   0  0  0  0  0  0  0  0  0  0  0  0
  153.5609  144.1273  160.3401 H   0  0  0  0  0  0  0  0  0  0  0  0
  152.4333  146.1270  158.8696 H   0  0  0  0  0  0  0  0  0  0  0  0
  150.5762  144.7838  157.3115 H   0  0  0  0  0  0  0  0  0  0  0  0
  148.6202  139.5273  155.7227 H   0  0  0  0  0  0  0  0  0  0  0  0
  149.5074  139.1548  157.1863 H   0  0  0  0  0  0  0  0  0  0  0  0
  1  2  1  0  0  0  0
  1 16  1  0  0  0  0
  1 17  1  0  0  0  0
  1 18  1  0  0  0  0
  2  3  1  0  0  0  0
  2 13  1  0  0  0  0
  2 19  1  0  0  0  0
  3  4  1  0  0  0  0
  3 20  1  0  0  0  0
  4  5  2  0  0  0  0
  4  6  1  0  0  0  0
  6  7  1  0  0  0  0
  6  8  1  0  0  0  0
  6 21  1  0  0  0  0
  7 22  1  0  0  0  0
  7 23  1  0  0  0  0
  7 24  1  0  0  0  0
  8 12  1  0  0  0  0
  8  9  1  0  0  0  0
  9 10  2  0  0  0  0
  9 25  1  0  0  0  0
 10 11  1  0  0  0  0
 10 26  1  0  0  0  0
 11 12  2  0  0  0  0
 11 27  1  0  0  0  0
 13 14  1  0  0  0  0
 13 15  2  0  0  0  0
 14 28  1  0  0  0  0
 14 29  1  0  0  0  0
M  END
> <s_m_source_file>
AV-unprocessed.smi

> <i_m_source_file_index>
955

> <i_lp_mmshare_version>
43012

> <i_f3d_flags>
0

> <s_epik_input>
W05IMl1DKD1PKVtDQEhdKFtDSDNdKVtOSF1DKD1PKVtDQEhdKFtDSDNdKW4xW2NIXVtjSF1bY0hdbjE=

> <s_epik_cmdline>
J2VwaWtfcHl0aG9uJywgJy1waCcsICc3LjAnLCAnLXRuJywgJzgnLCAnLW1hJywgJzIwMCcsICctbWV0YWxfYmluZGluZycsICctaW1hZScsICc8aW5maWxlLm1hZT4nLCAnLW9tYWUnLCAnPG91dGZpbGUubWFlPic=

> <r_lp_tautomer_probability>
1

> <r_epik_Ionization_Penalty>
2.8146e-05

> <r_epik_Ionization_Penalty_Charging>
0

> <r_epik_Ionization_Penalty_Neutral>
2.8146e-05

> <r_epik_State_Penalty>
-0

> <r_epik_Charging_Adjusted_Penalty>
0

> <i_epik_Tot_Q>
0

> <i_epik_Tot_abs_Q>
0

> <r_epik_Metal_State_Penalty>
-0

> <b_epik_Metal_Only>
0

> <s_lp_Force_Field>
OPLS_2005

> <r_lp_Energy>
4.42999

> <b_lp_Chiralities_Consistent>
1

> <s_lp_Variant>
AV-unprocessed.smi:955-3

> <Gold.Version>
5.8.1

> <Gold.Id.Protein>
6NUR|6NUR_protein|mol2

> <Gold.PLP.Fitness>
40.3238

> <Gold.PLP.PLP>
-31.3932

> <Gold.PLP.part.hbond>
-1.9292

> <Gold.PLP.part.metal>
0.0000

> <Gold.PLP.part.buried>
-3.4771

> <Gold.PLP.part.nonpolar>
-25.8154

> <Gold.PLP.part.repulsive>
0.2681

> <Gold.PLP.ligand.clash>
0.0000

> <Gold.PLP.ligand.torsion>
0.0901

> <Gold.PLP.Chemscore.Hbond>
2.0000

> <Gold.PLP.Chemscore.CHOScore>
1.0000

> <Gold.PLP.Chemscore.Metal>
0.0000

> <Gold.Chemscore.Hbonds>
donor molecule, donor type, donor heavy atom, donor atom, acceptor molecule, acceptor atom, score
      P1  H  7989  7998       L1    15  0.98
      P1  H  7997  8008       L1     5  1.00
      L1  C    11    27       P1  8028  1.00

> <Gold.PLP.Chemscore.Internal.Correction>
0.1107

> <Gold.Rescore>
     Score         DG    S(hbond)    S(metal)    S(lipo)     H(rot)  DE(clash)    DE(int)     intcor
     12.97     -14.47       1.97        0.00      70.76       2.30       0.01       1.48       ----

> <Gold.Chemscore.Fitness>
12.9736

> <Gold.Chemscore.DG>
-14.4687

> <Gold.Chemscore.ZeroCoef>
-5.4800

> <Gold.Chemscore.Hbond>
1.9733

> <Gold.Chemscore.Metal>
0.0000

> <Gold.Chemscore.Lipo>
70.7595

> <Gold.Chemscore.Internal_Hbond>
0.0000

> <Gold.Chemscore.DEClash>
0.0126

> <Gold.Chemscore.DEInternal>
1.4825

> <Gold.Chemscore.Rot>
2.2972

> <Gold.Chemscore.Internal.Correction>
   9.000000E+99

> <Gold.Chemscore.Hbonds>
donor molecule, donor type, donor heavy atom, donor atom, acceptor molecule, acceptor atom, score
      P1  H  7989  7998       L1    15  0.91
      P1  H  7997  8008       L1     5  0.83

> <Gold.Chemscore.Hbond.Weighted>
-6.5908

> <Gold.Chemscore.Metal.Weighted>
-0.0000

> <Gold.Chemscore.Lipo.Weighted>
-8.2789

> <Gold.Chemscore.Internal_Hbond.Weighted>
0.0000

> <Gold.Chemscore.DEClash.Weighted>
0.0126

> <Gold.Chemscore.DEInternal.Weighted>
1.4825

> <Gold.Chemscore.Rot.Weighted>
5.8809

> <Gold.Chemscore.Internal.Correction.Weighted>
   9.000000E+99

> <Gold.Protein.RotatedTorsions>
[ 6907 6896 6895 6894 ] final -139.10 input  -60.11 | X-H torsion
[ 7974 7965 7964 7962 ] final -155.13 input  175.53 | X-H torsion
[ 8008 7997 7996 7995 ] final  -91.72 input   59.86 | X-H torsion
[ 10167 10162 10161 10158 ] final  -73.44 input  -65.29 | X-H torsion
[ 10718 10713 10712 10709 ] final  -94.33 input   66.30 | X-H torsion
[ 10763 10752 10751 10750 ] final  -19.35 input  -60.55 | X-H torsion
[ 11005 11000 10999 10996 ] final  -72.40 input  -57.11 | X-H torsion

> <Gold.Protein.ActiveResidues>
 VAL166  LYS551  ARG553  GLY616  TRP617  ASP618  TYR619  PRO620  LYS621  CYS622 
 ASP623  PHE694  ASN695  SER759  ASP760  ASP761  ALA762  ILE779  LEU786  VAL792 
 PHE793  MET794  SER795  GLU796  ALA797  LYS798  CYS799  TRP800  GLU811  SER814 

> <Gold.Protein.RotatedAtoms>
  151.0435  133.5685  159.2648 H   0  0  0  0  0  0  0  0  0  0  0  0  # atno 6907 bound_to 6896
  151.2723  135.0687  159.9148 H   0  0  0  0  0  0  0  0  0  0  0  0  # atno 6908 bound_to 6896
  152.5369  134.0163  159.8015 H   0  0  0  0  0  0  0  0  0  0  0  0  # atno 6909 bound_to 6896
  144.7655  140.4291  143.5945 H   0  0  0  0  0  0  0  0  0  0  0  0  # atno 7974 bound_to 7965
  154.7142  140.0516  157.0578 H   0  0  0  0  0  0  0  0  0  0  0  0  # atno 8008 bound_to 7997
  155.0514  140.3179  155.4671 H   0  0  0  0  0  0  0  0  0  0  0  0  # atno 8009 bound_to 7997
  156.2798  140.2115  156.5640 H   0  0  0  0  0  0  0  0  0  0  0  0  # atno 8010 bound_to 7997
  140.5110  143.2345  151.7593 H   0  0  0  0  0  0  0  0  0  0  0  0  # atno 10167 bound_to 10162
  156.0025  130.5063  150.5910 H   0  0  0  0  0  0  0  0  0  0  0  0  # atno 10718 bound_to 10713
  153.6035  135.6998  153.5375 H   0  0  0  0  0  0  0  0  0  0  0  0  # atno 10763 bound_to 10752
  153.3077  135.4110  155.1308 H   0  0  0  0  0  0  0  0  0  0  0  0  # atno 10764 bound_to 10752
  154.8578  135.3664  154.5571 H   0  0  0  0  0  0  0  0  0  0  0  0  # atno 10765 bound_to 10752
  141.1608  133.6846  156.7053 H   0  0  0  0  0  0  0  0  0  0  0  0  # atno 11005 bound_to 11000
  145.6484  139.1561  143.2876 LP  0  0  0  0  0  0  0  0  0  0  0  0  # atno 17320 bound_to 7965
  146.1758  140.6575  142.9212 LP  0  0  0  0  0  0  0  0  0  0  0  0  # atno 17321 bound_to 7965
  139.4896  144.4390  151.9786 LP  0  0  0  0  0  0  0  0  0  0  0  0  # atno 17342 bound_to 10162
  140.3482  144.3121  150.5954 LP  0  0  0  0  0  0  0  0  0  0  0  0  # atno 17343 bound_to 10162
  157.3774  131.0775  151.1506 LP  0  0  0  0  0  0  0  0  0  0  0  0  # atno 17370 bound_to 10713
  157.2239  130.6494  149.5822 LP  0  0  0  0  0  0  0  0  0  0  0  0  # atno 17371 bound_to 10713
  140.2927  134.8227  157.4031 LP  0  0  0  0  0  0  0  0  0  0  0  0  # atno 17394 bound_to 11000
  140.1332  134.5068  155.8089 LP  0  0  0  0  0  0  0  0  0  0  0  0  # atno 17395 bound_to 11000

$$$$
