AV-unprocessed.smi:1709|AV-procd|sdf|6893|dock4
  -GOLD-   22720 8 93D 1   1.00000     0.00000
 Structure written by MMmdl.
 43 45  0  0  0  0  0  0  0  0  2 V2000
  147.9420  133.7576  159.7336 C   0  0  0  0  0  0  0  0  0  0  0  0
  147.7522  134.8334  160.7916 C   0  0  0  0  0  0  0  0  0  0  0  0
  147.3043  134.4605  162.0767 C   0  0  0  0  0  0  0  0  0  0  0  0
  147.1269  135.4523  163.0560 C   0  0  0  0  0  0  0  0  0  0  0  0
  147.4068  136.7835  162.7060 C   0  0  0  0  0  0  0  0  0  0  0  0
  147.8341  137.1483  161.4798 N   0  0  0  0  0  0  0  0  0  0  0  0
  148.0132  136.2041  160.5199 C   0  0  0  0  0  0  0  0  0  0  0  0
  148.4562  136.5002  159.1931 N   0  0  0  0  0  0  0  0  0  0  0  0
  147.9363  136.2057  157.9822 C   0  0  0  0  0  0  0  0  0  0  0  0
  146.8873  135.5720  157.8800 O   0  0  0  0  0  0  0  0  0  0  0  0
  148.6227  136.6456  156.9152 N   0  0  0  0  0  0  0  0  0  0  0  0
  148.2262  136.4799  155.5212 C   0  0  2  0  0  0  0  0  0  0  0  0
  146.7443  136.8143  155.2761 C   0  0  0  0  0  0  0  0  0  0  0  0
  146.2568  135.7792  154.2429 C   0  0  0  0  0  0  0  0  0  0  0  0
  147.4525  134.9935  153.8821 N   0  3  2  0  0  0  0  0  0  0  0  0
  147.2300  133.6255  153.3655 C   0  0  0  0  0  0  0  0  0  0  0  0
  148.5851  133.0047  152.9705 C   0  0  0  0  0  0  0  0  0  0  0  0
  149.6038  133.0697  154.1270 C   0  0  0  0  0  0  0  0  0  0  0  0
  149.7226  134.5015  154.6843 C   0  0  0  0  0  0  0  0  0  0  0  0
  148.3267  135.0231  155.0642 C   0  0  1  0  0  0  0  0  0  0  0  0
  147.6708  132.7727  160.1148 H   0  0  0  0  0  0  0  0  0  0  0  0
  148.9833  133.7174  159.4128 H   0  0  0  0  0  0  0  0  0  0  0  0
  147.3179  133.9620  158.8631 H   0  0  0  0  0  0  0  0  0  0  0  0
  147.0976  133.4267  162.3122 H   0  0  0  0  0  0  0  0  0  0  0  0
  146.7850  135.1988  164.0486 H   0  0  0  0  0  0  0  0  0  0  0  0
  147.2840  137.5776  163.4278 H   0  0  0  0  0  0  0  0  0  0  0  0
  149.3437  136.9800  159.1548 H   0  0  0  0  0  0  0  0  0  0  0  0
  149.4773  137.1559  157.0906 H   0  0  0  0  0  0  0  0  0  0  0  0
  148.8333  137.1108  154.8683 H   0  0  0  0  0  0  0  0  0  0  0  0
  146.1584  136.7231  156.1920 H   0  0  0  0  0  0  0  0  0  0  0  0
  146.6269  137.8361  154.9136 H   0  0  0  0  0  0  0  0  0  0  0  0
  145.5020  135.1312  154.6911 H   0  0  0  0  0  0  0  0  0  0  0  0
  145.8208  136.2466  153.3595 H   0  0  0  0  0  0  0  0  0  0  0  0
  146.7376  133.0162  154.1250 H   0  0  0  0  0  0  0  0  0  0  0  0
  146.5667  133.6636  152.5009 H   0  0  0  0  0  0  0  0  0  0  0  0
  148.4444  131.9706  152.6539 H   0  0  0  0  0  0  0  0  0  0  0  0
  148.9877  133.5377  152.1081 H   0  0  0  0  0  0  0  0  0  0  0  0
  149.2893  132.3957  154.9250 H   0  0  0  0  0  0  0  0  0  0  0  0
  150.5784  132.7154  153.7901 H   0  0  0  0  0  0  0  0  0  0  0  0
  150.3808  134.5081  155.5534 H   0  0  0  0  0  0  0  0  0  0  0  0
  150.1796  135.1548  153.9396 H   0  0  0  0  0  0  0  0  0  0  0  0
  147.8945  134.3769  155.8322 H   0  0  0  0  0  0  0  0  0  0  0  0
  147.9319  135.5141  153.1616 H   0  0  0  0  0  0  0  0  0  0  0  0
  1  2  1  0  0  0  0
  1 21  1  0  0  0  0
  1 22  1  0  0  0  0
  1 23  1  0  0  0  0
  2  7  1  0  0  0  0
  2  3  2  0  0  0  0
  3  4  1  0  0  0  0
  3 24  1  0  0  0  0
  4  5  2  0  0  0  0
  4 25  1  0  0  0  0
  5  6  1  0  0  0  0
  5 26  1  0  0  0  0
  6  7  2  0  0  0  0
  7  8  1  0  0  0  0
  8  9  1  0  0  0  0
  8 27  1  0  0  0  0
  9 10  2  0  0  0  0
  9 11  1  0  0  0  0
 11 12  1  0  0  0  0
 11 28  1  0  0  0  0
 12 20  1  0  0  0  0
 12 13  1  0  0  0  0
 12 29  1  0  0  0  0
 13 14  1  0  0  0  0
 13 30  1  0  0  0  0
 13 31  1  0  0  0  0
 14 15  1  0  0  0  0
 14 32  1  0  0  0  0
 14 33  1  0  0  0  0
 15 20  1  0  0  0  0
 15 16  1  0  0  0  0
 15 43  1  0  0  0  0
 16 17  1  0  0  0  0
 16 34  1  0  0  0  0
 16 35  1  0  0  0  0
 17 18  1  0  0  0  0
 17 36  1  0  0  0  0
 17 37  1  0  0  0  0
 18 19  1  0  0  0  0
 18 38  1  0  0  0  0
 18 39  1  0  0  0  0
 19 20  1  0  0  0  0
 19 40  1  0  0  0  0
 19 41  1  0  0  0  0
 20 42  1  0  0  0  0
M  CHG  1  15   1
M  END
> <s_m_source_file>
AV-unprocessed.smi

> <i_m_source_file_index>
1709

> <i_lp_mmshare_version>
43012

> <i_f3d_flags>
0

> <s_epik_input>
W0NIM11jMVtjSF1bY0hdW2NIXW5jMVtOSF1DKD1PKVtOSF1bQ0BIXShbQ0gyXVtDSDJdMilbQ0BASF0oTjIzKVtDSDJdW0NIMl1bQ0gyXVtDSDJdMw==

> <s_epik_cmdline>
J2VwaWtfcHl0aG9uJywgJy1waCcsICc3LjAnLCAnLXRuJywgJzgnLCAnLW1hJywgJzIwMCcsICctbWV0YWxfYmluZGluZycsICctaW1hZScsICc8aW5maWxlLm1hZT4nLCAnLW9tYWUnLCAnPG91dGZpbGUubWFlPic=

> <r_epik_Ionization_Penalty>
0.00101524

> <r_epik_Ionization_Penalty_Charging>
0.000974069

> <r_epik_Ionization_Penalty_Neutral>
4.11757e-05

> <r_epik_State_Penalty>
0.000633842

> <r_epik_Charging_Adjusted_Penalty>
0.00160791

> <i_epik_Tot_Q>
1

> <i_epik_Tot_abs_Q>
1

> <r_epik_Metal_State_Penalty>
-0

> <b_epik_Metal_Only>
0

> <s_lp_Force_Field>
OPLS_2005

> <r_lp_Energy>
38.5282

> <b_lp_Chiralities_Consistent>
1

> <s_lp_Variant>
AV-unprocessed.smi:1709-3

> <Gold.Version>
5.8.1

> <Gold.Id.Protein>
6NUR|6NUR_protein|mol2

> <Gold.PLP.Fitness>
42.1766

> <Gold.PLP.PLP>
-32.2118

> <Gold.PLP.part.hbond>
-3.0000

> <Gold.PLP.part.metal>
0.0000

> <Gold.PLP.part.buried>
-2.9045

> <Gold.PLP.part.nonpolar>
-26.2121

> <Gold.PLP.part.repulsive>
0.1615

> <Gold.PLP.ligand.clash>
0.0000

> <Gold.PLP.ligand.torsion>
0.6170

> <Gold.PLP.Chemscore.Hbond>
3.7296

> <Gold.PLP.Chemscore.CHOScore>
0.0000

> <Gold.PLP.Chemscore.Metal>
0.0000

> <Gold.Chemscore.Hbonds>
donor molecule, donor type, donor heavy atom, donor atom, acceptor molecule, acceptor atom, score
      L1  H    15    43       P1  7948  2.00
      P1  H  6931  6943       L1     6  1.00
      P1  H  6934  6947       L1     6  0.68

> <Gold.PLP.Chemscore.Internal.Correction>
0.0100

> <Gold.Rescore>
     Score         DG    S(hbond)    S(metal)    S(lipo)     H(rot)  DE(clash)    DE(int)     intcor
     14.36     -18.36       2.20        0.00      69.16       1.00       0.06       3.95       ----

> <Gold.Chemscore.Fitness>
14.3554

> <Gold.Chemscore.DG>
-18.3640

> <Gold.Chemscore.ZeroCoef>
-5.4800

> <Gold.Chemscore.Hbond>
2.2011

> <Gold.Chemscore.Metal>
0.0000

> <Gold.Chemscore.Lipo>
69.1642

> <Gold.Chemscore.Internal_Hbond>
0.0000

> <Gold.Chemscore.DEClash>
0.0589

> <Gold.Chemscore.DEInternal>
3.9498

> <Gold.Chemscore.Rot>
1.0000

> <Gold.Chemscore.Internal.Correction>
   9.000000E+99

> <Gold.Chemscore.Hbonds>
donor molecule, donor type, donor heavy atom, donor atom, acceptor molecule, acceptor atom, score
      L1  H    15    43       P1  7948  1.00
      P1  H  6931  6943       L1     6  0.25
      P1  H  6934  6947       L1     6  0.54

> <Gold.Chemscore.Hbond.Weighted>
-7.3518

> <Gold.Chemscore.Metal.Weighted>
-0.0000

> <Gold.Chemscore.Lipo.Weighted>
-8.0922

> <Gold.Chemscore.Internal_Hbond.Weighted>
0.0000

> <Gold.Chemscore.DEClash.Weighted>
0.0589

> <Gold.Chemscore.DEInternal.Weighted>
3.9498

> <Gold.Chemscore.Rot.Weighted>
2.5600

> <Gold.Chemscore.Internal.Correction.Weighted>
   9.000000E+99

> <Gold.Protein.RotatedTorsions>
[ 6907 6896 6895 6894 ] final  -27.11 input  -60.11 | X-H torsion
[ 7974 7965 7964 7962 ] final  -37.91 input  175.53 | X-H torsion
[ 8008 7997 7996 7995 ] final   74.52 input   59.86 | X-H torsion
[ 10167 10162 10161 10158 ] final  165.18 input  -65.29 | X-H torsion
[ 10718 10713 10712 10709 ] final  -66.32 input   66.30 | X-H torsion
[ 10763 10752 10751 10750 ] final  -11.85 input  -60.55 | X-H torsion
[ 11005 11000 10999 10996 ] final   77.07 input  -57.11 | X-H torsion

> <Gold.Protein.ActiveResidues>
 VAL166  LYS551  ARG553  GLY616  TRP617  ASP618  TYR619  PRO620  LYS621  CYS622 
 ASP623  PHE694  ASN695  SER759  ASP760  ASP761  ALA762  ILE779  LEU786  VAL792 
 PHE793  MET794  SER795  GLU796  ALA797  LYS798  CYS799  TRP800  GLU811  SER814 

> <Gold.Protein.RotatedAtoms>
  151.1515  135.0229  159.8670 H   0  0  0  0  0  0  0  0  0  0  0  0  # atno 6907 bound_to 6896
  152.5452  134.1383  159.8478 H   0  0  0  0  0  0  0  0  0  0  0  0  # atno 6908 bound_to 6896
  151.1469  133.4888  159.2628 H   0  0  0  0  0  0  0  0  0  0  0  0  # atno 6909 bound_to 6896
  146.0533  140.6451  142.9031 H   0  0  0  0  0  0  0  0  0  0  0  0  # atno 7974 bound_to 7965
  155.7995  140.3477  155.5395 H   0  0  0  0  0  0  0  0  0  0  0  0  # atno 8008 bound_to 7997
  155.8552  140.0962  157.1669 H   0  0  0  0  0  0  0  0  0  0  0  0  # atno 8009 bound_to 7997
  154.4009  140.1369  156.3881 H   0  0  0  0  0  0  0  0  0  0  0  0  # atno 8010 bound_to 7997
  139.4901  144.4158  151.9245 H   0  0  0  0  0  0  0  0  0  0  0  0  # atno 10167 bound_to 10162
  156.0619  130.4260  150.1692 H   0  0  0  0  0  0  0  0  0  0  0  0  # atno 10718 bound_to 10713
  153.4898  135.7017  153.5890 H   0  0  0  0  0  0  0  0  0  0  0  0  # atno 10763 bound_to 10752
  153.4068  135.3858  155.2024 H   0  0  0  0  0  0  0  0  0  0  0  0  # atno 10764 bound_to 10752
  154.8717  135.3895  154.4357 H   0  0  0  0  0  0  0  0  0  0  0  0  # atno 10765 bound_to 10752
  139.9270  134.7652  156.1475 H   0  0  0  0  0  0  0  0  0  0  0  0  # atno 11005 bound_to 11000
  144.7134  140.4123  143.7063 LP  0  0  0  0  0  0  0  0  0  0  0  0  # atno 17320 bound_to 7965
  145.6687  139.1595  143.2767 LP  0  0  0  0  0  0  0  0  0  0  0  0  # atno 17321 bound_to 7965
  140.3601  144.2983  150.5935 LP  0  0  0  0  0  0  0  0  0  0  0  0  # atno 17342 bound_to 10162
  140.5410  143.2223  151.8084 LP  0  0  0  0  0  0  0  0  0  0  0  0  # atno 17343 bound_to 10162
  156.9759  130.9849  151.3448 LP  0  0  0  0  0  0  0  0  0  0  0  0  # atno 17370 bound_to 10713
  157.5634  130.8261  149.8295 LP  0  0  0  0  0  0  0  0  0  0  0  0  # atno 17371 bound_to 10713
  141.0835  133.6744  156.2386 LP  0  0  0  0  0  0  0  0  0  0  0  0  # atno 17394 bound_to 11000
  140.6307  134.5267  157.5559 LP  0  0  0  0  0  0  0  0  0  0  0  0  # atno 17395 bound_to 11000

$$$$
