AV-unprocessed.smi:2746|AV-procd|sdf|10574|dock4
  -GOLD-   2272015 23D 1   1.00000     0.00000
 Structure written by MMmdl.
 39 40  0  0  0  0  0  0  0  0  2 V2000
  141.6216  138.1789  153.7089 C   0  0  0  0  0  0  0  0  0  0  0  0
  142.2908  137.5875  152.7079 C   0  0  0  0  0  0  0  0  0  0  0  0
  143.6845  137.0006  152.8347 C   0  0  1  0  0  0  0  0  0  0  0  0
  144.0714  136.2252  151.5692 C   0  0  0  0  0  0  0  0  0  0  0  0
  144.6629  138.0567  153.0736 N   0  0  0  0  0  0  0  0  0  0  0  0
  145.9881  137.8734  153.1982 C   0  0  0  0  0  0  0  0  0  0  0  0
  146.5314  136.7693  153.1513 O   0  0  0  0  0  0  0  0  0  0  0  0
  146.7931  139.1103  153.4726 C   0  0  0  0  0  0  0  0  0  0  0  0
  148.1315  139.0622  153.9307 C   0  0  0  0  0  0  0  0  0  0  0  0
  148.8253  140.2632  154.1936 C   0  0  0  0  0  0  0  0  0  0  0  0
  150.1521  140.2020  154.6408 N   0  0  0  0  0  0  0  0  0  0  0  0
  150.3253  140.6828  156.0059 C   0  0  0  0  0  0  0  0  0  0  0  0
  151.8192  140.6968  156.3741 C   0  0  0  0  0  0  0  0  0  0  0  0
  152.3702  139.3974  156.1801 O   0  0  0  0  0  0  0  0  0  0  0  0
  152.2674  138.9693  154.8249 C   0  0  0  0  0  0  0  0  0  0  0  0
  150.7851  138.9080  154.4169 C   0  0  0  0  0  0  0  0  0  0  0  0
  148.1579  141.4949  153.9975 C   0  0  0  0  0  0  0  0  0  0  0  0
  146.8217  141.4888  153.5519 C   0  0  0  0  0  0  0  0  0  0  0  0
  146.1981  140.3152  153.3136 N   0  3  0  0  0  0  0  0  0  0  0  0
  142.0542  138.2750  154.6939 H   0  0  0  0  0  0  0  0  0  0  0  0
  140.6294  138.5758  153.5543 H   0  0  0  0  0  0  0  0  0  0  0  0
  141.8233  137.5103  151.7369 H   0  0  0  0  0  0  0  0  0  0  0  0
  143.6994  136.3040  153.6754 H   0  0  0  0  0  0  0  0  0  0  0  0
  143.3715  135.4102  151.3812 H   0  0  0  0  0  0  0  0  0  0  0  0
  145.0660  135.7884  151.6639 H   0  0  0  0  0  0  0  0  0  0  0  0
  144.0730  136.8707  150.6902 H   0  0  0  0  0  0  0  0  0  0  0  0
  144.3040  138.9971  153.1517 H   0  0  0  0  0  0  0  0  0  0  0  0
  148.6294  138.1158  154.0872 H   0  0  0  0  0  0  0  0  0  0  0  0
  149.9077  141.6861  156.1009 H   0  0  0  0  0  0  0  0  0  0  0  0
  149.7814  140.0388  156.6982 H   0  0  0  0  0  0  0  0  0  0  0  0
  152.3620  141.4270  155.7716 H   0  0  0  0  0  0  0  0  0  0  0  0
  151.9473  140.9854  157.4173 H   0  0  0  0  0  0  0  0  0  0  0  0
  152.8236  139.6468  154.1750 H   0  0  0  0  0  0  0  0  0  0  0  0
  152.7258  137.9852  154.7269 H   0  0  0  0  0  0  0  0  0  0  0  0
  150.2762  138.1385  154.9987 H   0  0  0  0  0  0  0  0  0  0  0  0
  150.6978  138.6297  153.3658 H   0  0  0  0  0  0  0  0  0  0  0  0
  148.6579  142.4335  154.1880 H   0  0  0  0  0  0  0  0  0  0  0  0
  146.2363  142.3805  153.3820 H   0  0  0  0  0  0  0  0  0  0  0  0
  145.2280  140.3333  152.9966 H   0  0  0  0  0  0  0  0  0  0  0  0
  1  2  2  0  0  0  0
  1 20  1  0  0  0  0
  1 21  1  0  0  0  0
  2  3  1  0  0  0  0
  2 22  1  0  0  0  0
  3  4  1  0  0  0  0
  3  5  1  0  0  0  0
  3 23  1  0  0  0  0
  4 24  1  0  0  0  0
  4 25  1  0  0  0  0
  4 26  1  0  0  0  0
  5  6  1  0  0  0  0
  5 27  1  0  0  0  0
  6  7  2  0  0  0  0
  6  8  1  0  0  0  0
  8 19  1  0  0  0  0
  8  9  2  0  0  0  0
  9 10  1  0  0  0  0
  9 28  1  0  0  0  0
 10 11  1  0  0  0  0
 10 17  2  0  0  0  0
 11 16  1  0  0  0  0
 11 12  1  0  0  0  0
 12 13  1  0  0  0  0
 12 29  1  0  0  0  0
 12 30  1  0  0  0  0
 13 14  1  0  0  0  0
 13 31  1  0  0  0  0
 13 32  1  0  0  0  0
 14 15  1  0  0  0  0
 15 16  1  0  0  0  0
 15 33  1  0  0  0  0
 15 34  1  0  0  0  0
 16 35  1  0  0  0  0
 16 36  1  0  0  0  0
 17 18  1  0  0  0  0
 17 37  1  0  0  0  0
 18 19  2  0  0  0  0
 18 38  1  0  0  0  0
 19 39  1  0  0  0  0
M  CHG  1  19   1
M  END
> <s_m_source_file>
AV-unprocessed.smi

> <i_m_source_file_index>
2746

> <i_lp_mmshare_version>
43012

> <i_f3d_flags>
0

> <s_epik_input>
W0NIMl09W0NIXVtDQEhdKFtDSDNdKVtOSF1DKD1PKWMxW2NIXWMoW2NIXVtjSF1uMSlOMltDSDJdW0NIMl1PW0NIMl1bQ0gyXTI=

> <s_epik_cmdline>
J2VwaWtfcHl0aG9uJywgJy1waCcsICc3LjAnLCAnLXRuJywgJzgnLCAnLW1hJywgJzIwMCcsICctbWV0YWxfYmluZGluZycsICctaW1hZScsICc8aW5maWxlLm1hZT4nLCAnLW9tYWUnLCAnPG91dGZpbGUubWFlPic=

> <r_lp_tautomer_probability>
1

> <r_epik_Ionization_Penalty>
0.451073

> <r_epik_Ionization_Penalty_Charging>
0.450607

> <r_epik_Ionization_Penalty_Neutral>
0.000466544

> <r_epik_State_Penalty>
0.453375

> <r_epik_Charging_Adjusted_Penalty>
0.903982

> <i_epik_Tot_Q>
1

> <i_epik_Tot_abs_Q>
1

> <r_epik_Metal_State_Penalty>
1.0249

> <b_epik_Metal_Only>
0

> <s_lp_Force_Field>
OPLS_2005

> <r_lp_Energy>
25.7361

> <b_lp_Chiralities_Consistent>
1

> <s_lp_Variant>
AV-unprocessed.smi:2746-4

> <Gold.Version>
5.8.1

> <Gold.Id.Protein>
6NUR|6NUR_protein|mol2

> <Gold.PLP.Fitness>
43.2441

> <Gold.PLP.PLP>
-33.6261

> <Gold.PLP.part.hbond>
-4.0000

> <Gold.PLP.part.metal>
0.0000

> <Gold.PLP.part.buried>
-5.2302

> <Gold.PLP.part.nonpolar>
-25.2582

> <Gold.PLP.part.repulsive>
1.0851

> <Gold.PLP.ligand.clash>
2.0385

> <Gold.PLP.ligand.torsion>
0.3992

> <Gold.PLP.Chemscore.Hbond>
4.1000

> <Gold.PLP.Chemscore.CHOScore>
0.0000

> <Gold.PLP.Chemscore.Metal>
0.0000

> <Gold.Chemscore.Hbonds>
donor molecule, donor type, donor heavy atom, donor atom, acceptor molecule, acceptor atom, score
      L1  H     5    27       P1 10175  1.00
      L1  H    19    39       P1 10175  2.00
      P1  H  7989  7998       L1    11  0.20
      P1  H  7997  8008       L1    14  0.50

> <Gold.PLP.Chemscore.Internal.Correction>
0.1549

> <Gold.Rescore>
     Score         DG    S(hbond)    S(metal)    S(lipo)     H(rot)  DE(clash)    DE(int)     intcor
     17.19     -17.94       2.00        0.00      77.74       1.30       0.31       0.43       ----

> <Gold.Chemscore.Fitness>
17.1901

> <Gold.Chemscore.DG>
-17.9356

> <Gold.Chemscore.ZeroCoef>
-5.4800

> <Gold.Chemscore.Hbond>
2.0033

> <Gold.Chemscore.Metal>
0.0000

> <Gold.Chemscore.Lipo>
77.7430

> <Gold.Chemscore.Internal_Hbond>
0.0000

> <Gold.Chemscore.DEClash>
0.3123

> <Gold.Chemscore.DEInternal>
0.4333

> <Gold.Chemscore.Rot>
1.3013

> <Gold.Chemscore.Internal.Correction>
   9.000000E+99

> <Gold.Chemscore.Hbonds>
donor molecule, donor type, donor heavy atom, donor atom, acceptor molecule, acceptor atom, score
      L1  H     5    27       P1 10175  0.96
      L1  H    19    39       P1 10175  0.96
      P1  H  7997  8008       L1    14  0.02

> <Gold.Chemscore.Hbond.Weighted>
-6.6910

> <Gold.Chemscore.Metal.Weighted>
-0.0000

> <Gold.Chemscore.Lipo.Weighted>
-9.0959

> <Gold.Chemscore.Internal_Hbond.Weighted>
0.0000

> <Gold.Chemscore.DEClash.Weighted>
0.3123

> <Gold.Chemscore.DEInternal.Weighted>
0.4333

> <Gold.Chemscore.Rot.Weighted>
3.3313

> <Gold.Chemscore.Internal.Correction.Weighted>
   9.000000E+99

> <Gold.Protein.RotatedTorsions>
[ 6907 6896 6895 6894 ] final  -72.68 input  -60.11 | X-H torsion
[ 7974 7965 7964 7962 ] final  116.17 input  175.53 | X-H torsion
[ 8008 7997 7996 7995 ] final  -42.70 input   59.86 | X-H torsion
[ 10167 10162 10161 10158 ] final   76.13 input  -65.29 | X-H torsion
[ 10718 10713 10712 10709 ] final  -73.64 input   66.30 | X-H torsion
[ 10763 10752 10751 10750 ] final   82.25 input  -60.55 | X-H torsion
[ 11005 11000 10999 10996 ] final  127.49 input  -57.11 | X-H torsion

> <Gold.Protein.ActiveResidues>
 VAL166  LYS551  ARG553  GLY616  TRP617  ASP618  TYR619  PRO620  LYS621  CYS622 
 ASP623  PHE694  ASN695  SER759  ASP760  ASP761  ALA762  ILE779  LEU786  VAL792 
 PHE793  MET794  SER795  GLU796  ALA797  LYS798  CYS799  TRP800  GLU811  SER814 

> <Gold.Protein.RotatedAtoms>
  150.7160  134.5128  159.5615 H   0  0  0  0  0  0  0  0  0  0  0  0  # atno 6907 bound_to 6896
  152.2700  134.7940  160.0425 H   0  0  0  0  0  0  0  0  0  0  0  0  # atno 6908 bound_to 6896
  151.8623  133.3424  159.3744 H   0  0  0  0  0  0  0  0  0  0  0  0  # atno 6909 bound_to 6896
  145.1829  139.3040  143.4408 H   0  0  0  0  0  0  0  0  0  0  0  0  # atno 7974 bound_to 7965
  154.3998  140.1466  156.3399 H   0  0  0  0  0  0  0  0  0  0  0  0  # atno 8008 bound_to 7997
  155.8366  140.3463  155.5584 H   0  0  0  0  0  0  0  0  0  0  0  0  # atno 8009 bound_to 7997
  155.8131  140.0887  157.1883 H   0  0  0  0  0  0  0  0  0  0  0  0  # atno 8010 bound_to 7997
  139.9955  144.5725  150.7781 H   0  0  0  0  0  0  0  0  0  0  0  0  # atno 10167 bound_to 10162
  156.0272  130.4399  150.2773 H   0  0  0  0  0  0  0  0  0  0  0  0  # atno 10718 bound_to 10713
  153.1186  135.4735  154.9158 H   0  0  0  0  0  0  0  0  0  0  0  0  # atno 10763 bound_to 10752
  154.7553  135.3117  154.8483 H   0  0  0  0  0  0  0  0  0  0  0  0  # atno 10764 bound_to 10752
  153.9053  135.6871  153.4807 H   0  0  0  0  0  0  0  0  0  0  0  0  # atno 10765 bound_to 10752
  139.9510  134.9622  156.8863 H   0  0  0  0  0  0  0  0  0  0  0  0  # atno 11005 bound_to 11000
  146.3450  140.2015  142.8589 LP  0  0  0  0  0  0  0  0  0  0  0  0  # atno 17320 bound_to 7965
  145.0118  140.8720  143.5220 LP  0  0  0  0  0  0  0  0  0  0  0  0  # atno 17321 bound_to 7965
  140.7439  143.2852  151.3483 LP  0  0  0  0  0  0  0  0  0  0  0  0  # atno 17342 bound_to 10162
  139.6309  144.0723  152.2475 LP  0  0  0  0  0  0  0  0  0  0  0  0  # atno 17343 bound_to 10162
  157.0876  131.0161  151.3133 LP  0  0  0  0  0  0  0  0  0  0  0  0  # atno 17370 bound_to 10713
  157.4879  130.7804  149.7478 LP  0  0  0  0  0  0  0  0  0  0  0  0  # atno 17371 bound_to 10713
  140.5718  134.0435  155.7433 LP  0  0  0  0  0  0  0  0  0  0  0  0  # atno 17394 bound_to 11000
  141.1173  133.9519  157.2798 LP  0  0  0  0  0  0  0  0  0  0  0  0  # atno 17395 bound_to 11000

$$$$
