AV-unprocessed.smi:1230|AV-procd|sdf|5154|dock2
  -GOLD-   22720 4223D 1   1.00000     0.00000
 Structure written by MMmdl.
 38 39  0  0  0  0  0  0  0  0  2 V2000
  153.3633  140.5822  160.4491 C   0  0  0  0  0  0  0  0  0  0  0  0
  153.3361  142.0855  160.1331 C   0  0  2  0  0  0  0  0  0  0  0  0
  152.3881  142.8470  161.0817 C   0  0  0  0  0  0  0  0  0  0  0  0
  152.4033  144.3575  160.7988 C   0  0  0  0  0  0  0  0  0  0  0  0
  152.0568  144.6522  159.3319 C   0  0  0  0  0  0  0  0  0  0  0  0
  152.9914  143.8940  158.3739 C   0  0  0  0  0  0  0  0  0  0  0  0
  152.9968  142.3795  158.6522 C   0  0  2  0  0  0  0  0  0  0  0  0
  151.7018  141.8773  158.3484 O   0  0  0  0  0  0  0  0  0  0  0  0
  151.2391  142.1771  157.0403 C   0  0  0  0  0  0  0  0  0  0  0  0
  150.0304  141.2806  156.7322 C   0  0  0  0  0  0  0  0  0  0  0  0
  150.4602  139.9107  156.4195 N   0  0  0  0  0  0  0  0  0  0  0  0
  150.8176  139.0832  157.4978 C   0  0  0  0  0  0  0  0  0  0  0  0
  151.2717  137.8307  157.3068 C   0  0  0  0  0  0  0  0  0  0  0  0
  151.6563  136.9780  158.3827 C   0  0  0  0  0  0  0  0  0  0  0  0
  151.9380  136.2800  159.2626 N   0  0  0  0  0  0  0  0  0  0  0  0
  151.3855  137.3286  155.9397 C   0  0  0  0  0  0  0  0  0  0  0  0
  151.7928  136.1856  155.7360 O   0  0  0  0  0  0  0  0  0  0  0  0
  151.0256  138.1751  154.9303 N   0  5  0  0  0  0  0  0  0  0  0  0
  150.5754  139.4520  155.1370 C   0  0  0  0  0  0  0  0  0  0  0  0
  150.2788  140.2031  154.2076 O   0  0  0  0  0  0  0  0  0  0  0  0
  152.3719  140.1390  160.3605 H   0  0  0  0  0  0  0  0  0  0  0  0
  153.7117  140.4020  161.4662 H   0  0  0  0  0  0  0  0  0  0  0  0
  154.0302  140.0479  159.7722 H   0  0  0  0  0  0  0  0  0  0  0  0
  154.3450  142.4603  160.3115 H   0  0  0  0  0  0  0  0  0  0  0  0
  151.3714  142.4656  160.9757 H   0  0  0  0  0  0  0  0  0  0  0  0
  152.6751  142.6683  162.1184 H   0  0  0  0  0  0  0  0  0  0  0  0
  151.6978  144.8656  161.4569 H   0  0  0  0  0  0  0  0  0  0  0  0
  153.3892  144.7629  161.0295 H   0  0  0  0  0  0  0  0  0  0  0  0
  151.0220  144.3677  159.1381 H   0  0  0  0  0  0  0  0  0  0  0  0
  152.1218  145.7239  159.1427 H   0  0  0  0  0  0  0  0  0  0  0  0
  152.6965  144.0811  157.3409 H   0  0  0  0  0  0  0  0  0  0  0  0
  154.0050  144.2830  158.4784 H   0  0  0  0  0  0  0  0  0  0  0  0
  153.7524  141.9217  158.0103 H   0  0  0  0  0  0  0  0  0  0  0  0
  150.9547  143.2287  156.9909 H   0  0  0  0  0  0  0  0  0  0  0  0
  152.0229  142.0171  156.2986 H   0  0  0  0  0  0  0  0  0  0  0  0
  149.3431  141.2804  157.5792 H   0  0  0  0  0  0  0  0  0  0  0  0
  149.4601  141.7009  155.9025 H   0  0  0  0  0  0  0  0  0  0  0  0
  150.7166  139.5327  158.4752 H   0  0  0  0  0  0  0  0  0  0  0  0
  1  2  1  0  0  0  0
  1 21  1  0  0  0  0
  1 22  1  0  0  0  0
  1 23  1  0  0  0  0
  2  7  1  0  0  0  0
  2  3  1  0  0  0  0
  2 24  1  0  0  0  0
  3  4  1  0  0  0  0
  3 25  1  0  0  0  0
  3 26  1  0  0  0  0
  4  5  1  0  0  0  0
  4 27  1  0  0  0  0
  4 28  1  0  0  0  0
  5  6  1  0  0  0  0
  5 29  1  0  0  0  0
  5 30  1  0  0  0  0
  6  7  1  0  0  0  0
  6 31  1  0  0  0  0
  6 32  1  0  0  0  0
  7  8  1  0  0  0  0
  7 33  1  0  0  0  0
  8  9  1  0  0  0  0
  9 10  1  0  0  0  0
  9 34  1  0  0  0  0
  9 35  1  0  0  0  0
 10 11  1  0  0  0  0
 10 36  1  0  0  0  0
 10 37  1  0  0  0  0
 11 19  1  0  0  0  0
 11 12  1  0  0  0  0
 12 13  2  0  0  0  0
 12 38  1  0  0  0  0
 13 14  1  0  0  0  0
 13 16  1  0  0  0  0
 14 15  3  0  0  0  0
 16 17  2  0  0  0  0
 16 18  1  0  0  0  0
 18 19  1  0  0  0  0
 19 20  2  0  0  0  0
M  CHG  1  18  -1
M  END
> <s_m_source_file>
AV-unprocessed.smi

> <i_m_source_file_index>
1230

> <i_lp_mmshare_version>
43012

> <i_f3d_flags>
0

> <s_epik_input>
W0NIM11bQ0BASF0xW0NIMl1bQ0gyXVtDSDJdW0NIMl1bQ0BIXTFPW0NIMl1bQ0gyXW4yW2NIXWMoQyNOKWMoPU8pW25IXWMyPU8=

> <s_epik_cmdline>
J2VwaWtfcHl0aG9uJywgJy1waCcsICc3LjAnLCAnLXRuJywgJzgnLCAnLW1hJywgJzIwMCcsICctbWV0YWxfYmluZGluZycsICctaW1hZScsICc8aW5maWxlLm1hZT4nLCAnLW9tYWUnLCAnPG91dGZpbGUubWFlPic=

> <r_epik_Ionization_Penalty>
0.400014

> <r_epik_Ionization_Penalty_Charging>
4.81474e-10

> <r_epik_Ionization_Penalty_Neutral>
0.400014

> <r_epik_State_Penalty>
0.399305

> <r_epik_Charging_Adjusted_Penalty>
0.399305

> <i_epik_Tot_Q>
-1

> <i_epik_Tot_abs_Q>
1

> <r_epik_Metal_State_Penalty>
0.00056968

> <b_epik_Metal_Only>
0

> <s_lp_Force_Field>
OPLS_2005

> <r_lp_Energy>
23.6977

> <b_lp_Chiralities_Consistent>
1

> <s_lp_Variant>
AV-unprocessed.smi:1230-3

> <Gold.Version>
5.8.1

> <Gold.Id.Protein>
6NUR|6NUR_protein|mol2

> <Gold.PLP.Fitness>
52.9356

> <Gold.PLP.PLP>
-44.7064

> <Gold.PLP.part.hbond>
-2.9660

> <Gold.PLP.part.metal>
0.0000

> <Gold.PLP.part.buried>
-6.5456

> <Gold.PLP.part.nonpolar>
-36.0442

> <Gold.PLP.part.repulsive>
0.1701

> <Gold.PLP.ligand.clash>
0.0000

> <Gold.PLP.ligand.torsion>
0.3998

> <Gold.PLP.Chemscore.Hbond>
3.0000

> <Gold.PLP.Chemscore.CHOScore>
0.0000

> <Gold.PLP.Chemscore.Metal>
0.0000

> <Gold.Chemscore.Hbonds>
donor molecule, donor type, donor heavy atom, donor atom, acceptor molecule, acceptor atom, score
      P1  H  6896  6909       L1    15  0.51
      P1  H  7989  7998       L1    20  1.00
      P1  H 10752 10764       L1    17  0.86

> <Gold.PLP.Chemscore.Internal.Correction>
0.0290

> <Gold.Rescore>
     Score         DG    S(hbond)    S(metal)    S(lipo)     H(rot)  DE(clash)    DE(int)     intcor
     22.53     -23.13       2.96        0.00     107.99       1.90       0.12       0.48       ----

> <Gold.Chemscore.Fitness>
22.5304

> <Gold.Chemscore.DG>
-23.1321

> <Gold.Chemscore.ZeroCoef>
-5.4800

> <Gold.Chemscore.Hbond>
2.9574

> <Gold.Chemscore.Metal>
0.0000

> <Gold.Chemscore.Lipo>
107.9856

> <Gold.Chemscore.Internal_Hbond>
0.0000

> <Gold.Chemscore.DEClash>
0.1205

> <Gold.Chemscore.DEInternal>
0.4813

> <Gold.Chemscore.Rot>
1.8984

> <Gold.Chemscore.Internal.Correction>
   9.000000E+99

> <Gold.Chemscore.Hbonds>
donor molecule, donor type, donor heavy atom, donor atom, acceptor molecule, acceptor atom, score
      P1  H  6896  6909       L1    15  0.52
      P1  H  7989  7998       L1    20  0.81
      P1  H 10752 10764       L1    17  0.87

> <Gold.Chemscore.Hbond.Weighted>
-9.8776

> <Gold.Chemscore.Metal.Weighted>
-0.0000

> <Gold.Chemscore.Lipo.Weighted>
-12.6343

> <Gold.Chemscore.Internal_Hbond.Weighted>
0.0000

> <Gold.Chemscore.DEClash.Weighted>
0.1205

> <Gold.Chemscore.DEInternal.Weighted>
0.4813

> <Gold.Chemscore.Rot.Weighted>
4.8598

> <Gold.Chemscore.Internal.Correction.Weighted>
   9.000000E+99

> <Gold.Protein.RotatedTorsions>
[ 6907 6896 6895 6894 ] final  134.50 input  -60.11 | X-H torsion
[ 7974 7965 7964 7962 ] final -162.75 input  175.53 | X-H torsion
[ 8008 7997 7996 7995 ] final  110.93 input   59.86 | X-H torsion
[ 10167 10162 10161 10158 ] final  -14.88 input  -65.29 | X-H torsion
[ 10718 10713 10712 10709 ] final -151.81 input   66.30 | X-H torsion
[ 10763 10752 10751 10750 ] final  -15.79 input  -60.55 | X-H torsion
[ 11005 11000 10999 10996 ] final -160.97 input  -57.11 | X-H torsion

> <Gold.Protein.ActiveResidues>
 VAL166  LYS551  ARG553  GLY616  TRP617  ASP618  TYR619  PRO620  LYS621  CYS622 
 ASP623  PHE694  ASN695  SER759  ASP760  ASP761  ALA762  ILE779  LEU786  VAL792 
 PHE793  MET794  SER795  GLU796  ALA797  LYS798  CYS799  TRP800  GLU811  SER814 

> <Gold.Protein.RotatedAtoms>
  152.3106  133.5749  159.5677 H   0  0  0  0  0  0  0  0  0  0  0  0  # atno 6907 bound_to 6896
  150.7321  134.0158  159.3693 H   0  0  0  0  0  0  0  0  0  0  0  0  # atno 6908 bound_to 6896
  151.8051  135.0698  160.0456 H   0  0  0  0  0  0  0  0  0  0  0  0  # atno 6909 bound_to 6896
  144.7347  140.3207  143.6171 H   0  0  0  0  0  0  0  0  0  0  0  0  # atno 7974 bound_to 7965
  156.2088  140.3029  155.9686 H   0  0  0  0  0  0  0  0  0  0  0  0  # atno 8008 bound_to 7997
  155.2775  140.0436  157.3029 H   0  0  0  0  0  0  0  0  0  0  0  0  # atno 8009 bound_to 7997
  154.5670  140.2337  155.8257 H   0  0  0  0  0  0  0  0  0  0  0  0  # atno 8010 bound_to 7997
  140.7209  143.5275  150.9559 H   0  0  0  0  0  0  0  0  0  0  0  0  # atno 10167 bound_to 10162
  156.4642  130.8227  151.2458 H   0  0  0  0  0  0  0  0  0  0  0  0  # atno 10718 bound_to 10713
  153.5486  135.7012  153.5602 H   0  0  0  0  0  0  0  0  0  0  0  0  # atno 10763 bound_to 10752
  153.3536  135.3988  155.1664 H   0  0  0  0  0  0  0  0  0  0  0  0  # atno 10764 bound_to 10752
  154.8664  135.3771  154.4996 H   0  0  0  0  0  0  0  0  0  0  0  0  # atno 10765 bound_to 10752
  140.6256  134.4705  157.5226 H   0  0  0  0  0  0  0  0  0  0  0  0  # atno 11005 bound_to 11000
  145.7572  139.1813  143.2288 LP  0  0  0  0  0  0  0  0  0  0  0  0  # atno 17320 bound_to 7965
  146.1015  140.7538  142.9547 LP  0  0  0  0  0  0  0  0  0  0  0  0  # atno 17321 bound_to 7965
  139.8994  143.6854  152.3133 LP  0  0  0  0  0  0  0  0  0  0  0  0  # atno 17342 bound_to 10162
  139.7198  144.7605  151.0974 LP  0  0  0  0  0  0  0  0  0  0  0  0  # atno 17343 bound_to 10162
  157.7496  131.0097  150.3279 LP  0  0  0  0  0  0  0  0  0  0  0  0  # atno 17370 bound_to 10713
  156.3685  130.3859  149.7194 LP  0  0  0  0  0  0  0  0  0  0  0  0  # atno 17371 bound_to 10713
  139.9136  134.8292  156.1442 LP  0  0  0  0  0  0  0  0  0  0  0  0  # atno 17394 bound_to 11000
  141.0712  133.6796  156.2144 LP  0  0  0  0  0  0  0  0  0  0  0  0  # atno 17395 bound_to 11000

$$$$
