AV-unprocessed.smi:1815|AV-procd|sdf|7363|dock4
  -GOLD-   22720 9 23D 1   1.00000     0.00000
 Structure written by MMmdl.
 39 40  0  0  0  0  0  0  0  0  3 V2000
  149.2164  133.4561  153.7468 C   0  0  0  0  0  0  0  0  0  0  0  0
  149.5273  134.0467  155.1337 C   0  0  1  0  0  0  0  0  0  0  0  0
  150.5626  135.1884  155.0994 C   0  0  0  0  0  0  0  0  0  0  0  0
  149.9728  136.4308  154.5468 N   0  3  2  0  0  0  0  0  0  0  0  0
  150.9645  137.5292  154.4396 C   0  0  0  0  0  0  0  0  0  0  0  0
  151.4344  138.0256  155.8155 C   0  0  0  0  0  0  0  0  0  0  0  0
  150.9970  139.3964  156.0367 N   0  0  0  0  0  0  0  0  0  0  0  0
  151.5826  140.2654  156.8706 C   0  0  0  0  0  0  0  0  0  0  0  0
  152.5741  139.9209  157.5180 O   0  0  0  0  0  0  0  0  0  0  0  0
  150.9832  141.4767  156.9013 N   0  5  0  0  0  0  0  0  0  0  0  0
  151.4058  142.4139  157.7654 C   0  0  0  0  0  0  0  0  0  0  0  0
  151.1258  143.7146  157.6244 N   0  0  0  0  0  0  0  0  0  0  0  0
  151.6698  144.5122  158.6328 C   0  0  0  0  0  0  0  0  0  0  0  0
  152.3881  143.8031  159.5586 C   0  0  0  0  0  0  0  0  0  0  0  0
  152.4024  142.1024  159.1895 S   0  0  0  0  0  0  0  0  0  0  0  0
  148.7544  136.8022  155.3059 C   0  0  0  0  0  0  0  0  0  0  0  0
  147.7388  135.6456  155.2909 C   0  0  2  0  0  0  0  0  0  0  0  0
  146.5015  135.9567  156.1404 C   0  0  0  0  0  0  0  0  0  0  0  0
  148.3483  134.4700  155.8184 O   0  0  0  0  0  0  0  0  0  0  0  0
  150.1120  133.0202  153.3039 H   0  0  0  0  0  0  0  0  0  0  0  0
  148.8439  134.2062  153.0497 H   0  0  0  0  0  0  0  0  0  0  0  0
  148.4688  132.6660  153.8200 H   0  0  0  0  0  0  0  0  0  0  0  0
  149.9474  133.2373  155.7316 H   0  0  0  0  0  0  0  0  0  0  0  0
  150.9243  135.3868  156.1099 H   0  0  0  0  0  0  0  0  0  0  0  0
  151.4283  134.8859  154.5084 H   0  0  0  0  0  0  0  0  0  0  0  0
  151.8115  137.2080  153.8310 H   0  0  0  0  0  0  0  0  0  0  0  0
  150.5084  138.3708  153.9154 H   0  0  0  0  0  0  0  0  0  0  0  0
  151.0312  137.3853  156.6021 H   0  0  0  0  0  0  0  0  0  0  0  0
  152.5211  137.9930  155.8951 H   0  0  0  0  0  0  0  0  0  0  0  0
  150.1877  139.7154  155.5240 H   0  0  0  0  0  0  0  0  0  0  0  0
  151.4964  145.5776  158.6118 H   0  0  0  0  0  0  0  0  0  0  0  0
  152.9074  144.1743  160.4292 H   0  0  0  0  0  0  0  0  0  0  0  0
  149.0269  137.0536  156.3323 H   0  0  0  0  0  0  0  0  0  0  0  0
  148.2923  137.6890  154.8734 H   0  0  0  0  0  0  0  0  0  0  0  0
  147.4077  135.4626  154.2683 H   0  0  0  0  0  0  0  0  0  0  0  0
  145.9875  136.8457  155.7744 H   0  0  0  0  0  0  0  0  0  0  0  0
  146.7702  136.1308  157.1828 H   0  0  0  0  0  0  0  0  0  0  0  0
  145.7923  135.1292  156.1134 H   0  0  0  0  0  0  0  0  0  0  0  0
  149.6836  136.2134  153.6037 H   0  0  0  0  0  0  0  0  0  0  0  0
  1  2  1  0  0  0  0
  1 20  1  0  0  0  0
  1 21  1  0  0  0  0
  1 22  1  0  0  0  0
  2 19  1  0  0  0  0
  2  3  1  0  0  0  0
  2 23  1  0  0  0  0
  3  4  1  0  0  0  0
  3 24  1  0  0  0  0
  3 25  1  0  0  0  0
  4  5  1  0  0  0  0
  4 16  1  0  0  0  0
  4 39  1  0  0  0  0
  5  6  1  0  0  0  0
  5 26  1  0  0  0  0
  5 27  1  0  0  0  0
  6  7  1  0  0  0  0
  6 28  1  0  0  0  0
  6 29  1  0  0  0  0
  7  8  1  0  0  0  0
  7 30  1  0  0  0  0
  8  9  2  0  0  0  0
  8 10  1  0  0  0  0
 10 11  1  0  0  0  0
 11 15  1  0  0  0  0
 11 12  2  0  0  0  0
 12 13  1  0  0  0  0
 13 14  2  0  0  0  0
 13 31  1  0  0  0  0
 14 15  1  0  0  0  0
 14 32  1  0  0  0  0
 16 17  1  0  0  0  0
 16 33  1  0  0  0  0
 16 34  1  0  0  0  0
 17 18  1  0  0  0  0
 17 19  1  0  0  0  0
 17 35  1  0  0  0  0
 18 36  1  0  0  0  0
 18 37  1  0  0  0  0
 18 38  1  0  0  0  0
M  CHG  1   4   1
M  CHG  1  10  -1
M  END
> <s_m_source_file>
AV-unprocessed.smi

> <i_m_source_file_index>
1815

> <i_lp_mmshare_version>
43012

> <i_f3d_flags>
0

> <s_epik_input>
W0NIM11bQ0BASF0xW0NIMl1OKFtDSDJdW0NASF0oTzEpW0NIM10pW0NIMl1bQ0gyXVtOSF1DKD1PKVtOSF1jMm5bY0hdW2NIXXMy

> <s_epik_cmdline>
J2VwaWtfcHl0aG9uJywgJy1waCcsICc3LjAnLCAnLXRuJywgJzgnLCAnLW1hJywgJzIwMCcsICctbWV0YWxfYmluZGluZycsICctaW1hZScsICc8aW5maWxlLm1hZT4nLCAnLW9tYWUnLCAnPG91dGZpbGUubWFlPic=

> <r_lp_tautomer_probability>
0.999

> <r_epik_Ionization_Penalty>
6.71699

> <r_epik_Ionization_Penalty_Charging>
5.88592

> <r_epik_Ionization_Penalty_Neutral>
0.831074

> <r_epik_State_Penalty>
6.08365

> <r_epik_Charging_Adjusted_Penalty>
11.9696

> <i_epik_Tot_Q>
0

> <i_epik_Tot_abs_Q>
2

> <r_epik_Metal_State_Penalty>
2.0947

> <b_epik_Metal_Only>
1

> <s_lp_Force_Field>
OPLS_2005

> <r_lp_Energy>
8.63778

> <b_lp_Chiralities_Consistent>
1

> <s_lp_Variant>
AV-unprocessed.smi:1815-14

> <Gold.Version>
5.8.1

> <Gold.Id.Protein>
6NUR|6NUR_protein|mol2

> <Gold.PLP.Fitness>
39.0380

> <Gold.PLP.PLP>
-31.2703

> <Gold.PLP.part.hbond>
-2.2089

> <Gold.PLP.part.metal>
0.0000

> <Gold.PLP.part.buried>
-4.7826

> <Gold.PLP.part.nonpolar>
-25.0610

> <Gold.PLP.part.repulsive>
0.3637

> <Gold.PLP.ligand.clash>
0.0000

> <Gold.PLP.ligand.torsion>
0.6264

> <Gold.PLP.Chemscore.Hbond>
2.9920

> <Gold.PLP.Chemscore.CHOScore>
0.0000

> <Gold.PLP.Chemscore.Metal>
0.0000

> <Gold.Chemscore.Hbonds>
donor molecule, donor type, donor heavy atom, donor atom, acceptor molecule, acceptor atom, score
      L1  H     4    39       P1  7948  2.00
      P1  H  7997  8010       L1     9  0.95

> <Gold.PLP.Chemscore.Internal.Correction>
0.0446

> <Gold.Rescore>
     Score         DG    S(hbond)    S(metal)    S(lipo)     H(rot)  DE(clash)    DE(int)     intcor
     13.65     -15.70       1.87        0.00      69.10       1.61       0.00       2.05       ----

> <Gold.Chemscore.Fitness>
13.6475

> <Gold.Chemscore.DG>
-15.7002

> <Gold.Chemscore.ZeroCoef>
-5.4800

> <Gold.Chemscore.Hbond>
1.8702

> <Gold.Chemscore.Metal>
0.0000

> <Gold.Chemscore.Lipo>
69.1015

> <Gold.Chemscore.Internal_Hbond>
0.0000

> <Gold.Chemscore.DEClash>
0.0009

> <Gold.Chemscore.DEInternal>
2.0518

> <Gold.Chemscore.Rot>
1.6060

> <Gold.Chemscore.Internal.Correction>
   9.000000E+99

> <Gold.Chemscore.Hbonds>
donor molecule, donor type, donor heavy atom, donor atom, acceptor molecule, acceptor atom, score
      L1  H     4    39       P1  7948  0.35
      P1  H  7997  8010       L1     9  0.86

> <Gold.Chemscore.Hbond.Weighted>
-6.2466

> <Gold.Chemscore.Metal.Weighted>
-0.0000

> <Gold.Chemscore.Lipo.Weighted>
-8.0849

> <Gold.Chemscore.Internal_Hbond.Weighted>
0.0000

> <Gold.Chemscore.DEClash.Weighted>
0.0009

> <Gold.Chemscore.DEInternal.Weighted>
2.0518

> <Gold.Chemscore.Rot.Weighted>
4.1112

> <Gold.Chemscore.Internal.Correction.Weighted>
   9.000000E+99

> <Gold.Protein.RotatedTorsions>
[ 6907 6896 6895 6894 ] final  142.42 input  -60.11 | X-H torsion
[ 7974 7965 7964 7962 ] final  -34.89 input  175.53 | X-H torsion
[ 8008 7997 7996 7995 ] final   38.15 input   59.86 | X-H torsion
[ 10167 10162 10161 10158 ] final  106.45 input  -65.29 | X-H torsion
[ 10718 10713 10712 10709 ] final  126.60 input   66.30 | X-H torsion
[ 10763 10752 10751 10750 ] final -125.75 input  -60.55 | X-H torsion
[ 11005 11000 10999 10996 ] final  -52.18 input  -57.11 | X-H torsion

> <Gold.Protein.ActiveResidues>
 VAL166  LYS551  ARG553  GLY616  TRP617  ASP618  TYR619  PRO620  LYS621  CYS622 
 ASP623  PHE694  ASN695  SER759  ASP760  ASP761  ALA762  ILE779  LEU786  VAL792 
 PHE793  MET794  SER795  GLU796  ALA797  LYS798  CYS799  TRP800  GLU811  SER814 

> <Gold.Protein.RotatedAtoms>
  152.2189  133.4968  159.5150 H   0  0  0  0  0  0  0  0  0  0  0  0  # atno 6907 bound_to 6896
  150.7008  134.1369  159.4099 H   0  0  0  0  0  0  0  0  0  0  0  0  # atno 6908 bound_to 6896
  151.9289  135.0265  160.0578 H   0  0  0  0  0  0  0  0  0  0  0  0  # atno 6909 bound_to 6896
  146.0792  140.6093  142.8916 H   0  0  0  0  0  0  0  0  0  0  0  0  # atno 7974 bound_to 7965
  155.2155  140.3327  155.4323 H   0  0  0  0  0  0  0  0  0  0  0  0  # atno 8008 bound_to 7997
  156.2354  140.1869  156.7182 H   0  0  0  0  0  0  0  0  0  0  0  0  # atno 8009 bound_to 7997
  154.6050  140.0617  156.9404 H   0  0  0  0  0  0  0  0  0  0  0  0  # atno 8010 bound_to 7997
  139.7008  144.7094  151.1189 H   0  0  0  0  0  0  0  0  0  0  0  0  # atno 10167 bound_to 10162
  157.5405  131.1097  150.8866 H   0  0  0  0  0  0  0  0  0  0  0  0  # atno 10718 bound_to 10713
  154.8739  135.4019  154.3319 H   0  0  0  0  0  0  0  0  0  0  0  0  # atno 10763 bound_to 10752
  153.4132  135.7021  153.6350 H   0  0  0  0  0  0  0  0  0  0  0  0  # atno 10764 bound_to 10752
  153.5044  135.3720  155.2526 H   0  0  0  0  0  0  0  0  0  0  0  0  # atno 10765 bound_to 10752
  141.0910  133.6632  156.3986 H   0  0  0  0  0  0  0  0  0  0  0  0  # atno 11005 bound_to 11000
  144.7282  140.4590  143.6957 LP  0  0  0  0  0  0  0  0  0  0  0  0  # atno 17320 bound_to 7965
  145.6249  139.1529  143.3001 LP  0  0  0  0  0  0  0  0  0  0  0  0  # atno 17321 bound_to 7965
  140.7709  143.5427  150.9294 LP  0  0  0  0  0  0  0  0  0  0  0  0  # atno 17342 bound_to 10162
  139.9108  143.6722  152.3115 LP  0  0  0  0  0  0  0  0  0  0  0  0  # atno 17343 bound_to 10162
  156.9420  130.5388  149.5280 LP  0  0  0  0  0  0  0  0  0  0  0  0  # atno 17370 bound_to 10713
  156.0493  130.5565  150.8953 LP  0  0  0  0  0  0  0  0  0  0  0  0  # atno 17371 bound_to 10713
  140.5251  134.6267  157.5331 LP  0  0  0  0  0  0  0  0  0  0  0  0  # atno 17394 bound_to 11000
  139.9737  134.7251  155.9992 LP  0  0  0  0  0  0  0  0  0  0  0  0  # atno 17395 bound_to 11000

$$$$
