AV-unprocessed.smi:3234|AV-procd|sdf|12349|dock10
  -GOLD-   2272018213D 1   1.00000     0.00000
 Structure written by MMmdl.
 37 39  0  0  0  0  0  0  0  0  2 V2000
  151.2730  140.9760  157.0048 O   0  0  0  0  0  0  0  0  0  0  0  0
  150.6520  141.9954  156.7068 C   0  0  0  0  0  0  0  0  0  0  0  0
  150.6235  143.1363  157.4180 N   0  0  0  0  0  0  0  0  0  0  0  0
  151.2543  143.4490  158.6545 C   0  0  0  0  0  0  0  0  0  0  0  0
  151.1106  144.7660  159.1382 C   0  0  0  0  0  0  0  0  0  0  0  0
  151.7121  145.1114  160.3647 C   0  0  0  0  0  0  0  0  0  0  0  0
  152.4225  144.2418  161.1125 N   0  0  0  0  0  0  0  0  0  0  0  0
  152.5536  142.9795  160.6534 C   0  0  0  0  0  0  0  0  0  0  0  0
  151.9921  142.5306  159.4410 C   0  0  0  0  0  0  0  0  0  0  0  0
  149.9121  142.1020  155.5936 N   0  0  0  0  0  0  0  0  0  0  0  0
  149.7166  141.0361  154.6158 C   0  0  1  0  0  0  0  0  0  0  0  0
  149.5439  139.6547  155.2474 C   0  0  0  0  0  0  0  0  0  0  0  0
  148.6654  138.8801  154.2496 C   0  0  0  0  0  0  0  0  0  0  0  0
  148.2011  139.8565  153.2364 N   0  3  1  0  0  0  0  0  0  0  0  0
  146.8210  139.6304  152.7578 C   0  0  0  0  0  0  0  0  0  0  0  0
  146.4714  138.1709  152.5916 C   0  0  0  0  0  0  0  0  0  0  0  0
  146.7538  139.0263  151.3755 C   0  0  0  0  0  0  0  0  0  0  0  0
  148.4293  141.1953  153.8064 C   0  0  0  0  0  0  0  0  0  0  0  0
  150.0967  143.8937  157.0088 H   0  0  0  0  0  0  0  0  0  0  0  0
  150.5512  145.5045  158.5825 H   0  0  0  0  0  0  0  0  0  0  0  0
  151.6182  146.1138  160.7556 H   0  0  0  0  0  0  0  0  0  0  0  0
  153.1214  142.3024  161.2743 H   0  0  0  0  0  0  0  0  0  0  0  0
  152.1351  141.5009  159.1555 H   0  0  0  0  0  0  0  0  0  0  0  0
  149.4360  142.9753  155.4201 H   0  0  0  0  0  0  0  0  0  0  0  0
  150.5695  141.0061  153.9343 H   0  0  0  0  0  0  0  0  0  0  0  0
  150.4992  139.1625  155.4329 H   0  0  0  0  0  0  0  0  0  0  0  0
  149.0223  139.7345  156.2026 H   0  0  0  0  0  0  0  0  0  0  0  0
  149.2247  138.0858  153.7548 H   0  0  0  0  0  0  0  0  0  0  0  0
  147.8246  138.4186  154.7698 H   0  0  0  0  0  0  0  0  0  0  0  0
  146.0683  140.3442  153.0879 H   0  0  0  0  0  0  0  0  0  0  0  0
  147.2167  137.4271  152.8679 H   0  0  0  0  0  0  0  0  0  0  0  0
  145.4376  137.8793  152.7659 H   0  0  0  0  0  0  0  0  0  0  0  0
  145.9061  139.2973  150.7494 H   0  0  0  0  0  0  0  0  0  0  0  0
  147.6873  138.8510  150.8435 H   0  0  0  0  0  0  0  0  0  0  0  0
  147.5974  141.4674  154.4590 H   0  0  0  0  0  0  0  0  0  0  0  0
  148.5117  141.9511  153.0245 H   0  0  0  0  0  0  0  0  0  0  0  0
  148.8228  139.7707  152.4448 H   0  0  0  0  0  0  0  0  0  0  0  0
  1  2  2  0  0  0  0
  2  3  1  0  0  0  0
  2 10  1  0  0  0  0
  3  4  1  0  0  0  0
  3 19  1  0  0  0  0
  4  9  1  0  0  0  0
  4  5  2  0  0  0  0
  5  6  1  0  0  0  0
  5 20  1  0  0  0  0
  6  7  2  0  0  0  0
  6 21  1  0  0  0  0
  7  8  1  0  0  0  0
  8  9  2  0  0  0  0
  8 22  1  0  0  0  0
  9 23  1  0  0  0  0
 10 11  1  0  0  0  0
 10 24  1  0  0  0  0
 11 18  1  0  0  0  0
 11 12  1  0  0  0  0
 11 25  1  0  0  0  0
 12 13  1  0  0  0  0
 12 26  1  0  0  0  0
 12 27  1  0  0  0  0
 13 14  1  0  0  0  0
 13 28  1  0  0  0  0
 13 29  1  0  0  0  0
 14 15  1  0  0  0  0
 14 18  1  0  0  0  0
 14 37  1  0  0  0  0
 15 17  1  0  0  0  0
 15 16  1  0  0  0  0
 15 30  1  0  0  0  0
 16 17  1  0  0  0  0
 16 31  1  0  0  0  0
 16 32  1  0  0  0  0
 17 33  1  0  0  0  0
 17 34  1  0  0  0  0
 18 35  1  0  0  0  0
 18 36  1  0  0  0  0
M  CHG  1  14   1
M  END
> <s_m_source_file>
AV-unprocessed.smi

> <i_m_source_file_index>
3234

> <i_lp_mmshare_version>
43012

> <i_f3d_flags>
0

> <s_epik_input>
W2NIXTFbY0hdbltjSF1bY0hdYzFbTkhdQyg9TylbTkhdW0NAQEhdMltDSDJdW0NIMl1OKFtDSDJdMilbQ0hdM1tDSDJdW0NIMl0z

> <s_epik_cmdline>
J2VwaWtfcHl0aG9uJywgJy1waCcsICc3LjAnLCAnLXRuJywgJzgnLCAnLW1hJywgJzIwMCcsICctbWV0YWxfYmluZGluZycsICctaW1hZScsICc8aW5maWxlLm1hZT4nLCAnLW9tYWUnLCAnPG91dGZpbGUubWFlPic=

> <r_epik_Ionization_Penalty>
0.0934328

> <r_epik_Ionization_Penalty_Charging>
0.000606352

> <r_epik_Ionization_Penalty_Neutral>
0.0928265

> <r_epik_State_Penalty>
0.0830811

> <r_epik_Charging_Adjusted_Penalty>
0.0836875

> <i_epik_Tot_Q>
1

> <i_epik_Tot_abs_Q>
1

> <r_epik_Metal_State_Penalty>
0.0724491

> <b_epik_Metal_Only>
0

> <s_lp_Force_Field>
OPLS_2005

> <r_lp_Energy>
41.3186

> <b_lp_Chiralities_Consistent>
1

> <s_lp_Variant>
AV-unprocessed.smi:3234-2

> <Gold.Version>
5.8.1

> <Gold.Id.Protein>
6NUR|6NUR_protein|mol2

> <Gold.PLP.Fitness>
46.9889

> <Gold.PLP.PLP>
-39.0500

> <Gold.PLP.part.hbond>
-3.0000

> <Gold.PLP.part.metal>
0.0000

> <Gold.PLP.part.buried>
2.2752

> <Gold.PLP.part.nonpolar>
-37.6023

> <Gold.PLP.part.repulsive>
0.4167

> <Gold.PLP.ligand.clash>
0.0000

> <Gold.PLP.ligand.torsion>
1.1621

> <Gold.PLP.Chemscore.Hbond>
3.0000

> <Gold.PLP.Chemscore.CHOScore>
0.0000

> <Gold.PLP.Chemscore.Metal>
0.0000

> <Gold.Chemscore.Hbonds>
donor molecule, donor type, donor heavy atom, donor atom, acceptor molecule, acceptor atom, score
      L1  H     3    19       P1  8028  1.00
      L1  H    10    24       P1  8028  1.00
      L1  H    14    37       P1  7957  0.99

> <Gold.PLP.Chemscore.Internal.Correction>
1.2632

> <Gold.Rescore>
     Score         DG    S(hbond)    S(metal)    S(lipo)     H(rot)  DE(clash)    DE(int)     intcor
     20.47     -24.81       2.94        0.00     107.68       1.21       0.65       3.68       ----

> <Gold.Chemscore.Fitness>
20.4724

> <Gold.Chemscore.DG>
-24.8081

> <Gold.Chemscore.ZeroCoef>
-5.4800

> <Gold.Chemscore.Hbond>
2.9428

> <Gold.Chemscore.Metal>
0.0000

> <Gold.Chemscore.Lipo>
107.6797

> <Gold.Chemscore.Internal_Hbond>
0.0000

> <Gold.Chemscore.DEClash>
0.6526

> <Gold.Chemscore.DEInternal>
3.6831

> <Gold.Chemscore.Rot>
1.2108

> <Gold.Chemscore.Internal.Correction>
   9.000000E+99

> <Gold.Chemscore.Hbonds>
donor molecule, donor type, donor heavy atom, donor atom, acceptor molecule, acceptor atom, score
      L1  H     3    19       P1  8028  0.93
      L1  H    10    24       P1  8028  1.00
      L1  H    14    37       P1  7957  0.92

> <Gold.Chemscore.Hbond.Weighted>
-9.8291

> <Gold.Chemscore.Metal.Weighted>
-0.0000

> <Gold.Chemscore.Lipo.Weighted>
-12.5985

> <Gold.Chemscore.Internal_Hbond.Weighted>
0.0000

> <Gold.Chemscore.DEClash.Weighted>
0.6526

> <Gold.Chemscore.DEInternal.Weighted>
3.6831

> <Gold.Chemscore.Rot.Weighted>
3.0996

> <Gold.Chemscore.Internal.Correction.Weighted>
   9.000000E+99

> <Gold.Protein.RotatedTorsions>
[ 6907 6896 6895 6894 ] final  110.16 input  -60.11 | X-H torsion
[ 7974 7965 7964 7962 ] final  157.70 input  175.53 | X-H torsion
[ 8008 7997 7996 7995 ] final -164.85 input   59.86 | X-H torsion
[ 10167 10162 10161 10158 ] final  134.67 input  -65.29 | X-H torsion
[ 10718 10713 10712 10709 ] final  122.49 input   66.30 | X-H torsion
[ 10763 10752 10751 10750 ] final  -65.18 input  -60.55 | X-H torsion
[ 11005 11000 10999 10996 ] final   59.28 input  -57.11 | X-H torsion

> <Gold.Protein.ActiveResidues>
 VAL166  LYS551  ARG553  GLY616  TRP617  ASP618  TYR619  PRO620  LYS621  CYS622 
 ASP623  PHE694  ASN695  SER759  ASP760  ASP761  ALA762  ILE779  LEU786  VAL792 
 PHE793  MET794  SER795  GLU796  ALA797  LYS798  CYS799  TRP800  GLU811  SER814 

> <Gold.Protein.RotatedAtoms>
  152.5033  133.8841  159.7360 H   0  0  0  0  0  0  0  0  0  0  0  0  # atno 6907 bound_to 6896
  150.9296  133.6774  159.2820 H   0  0  0  0  0  0  0  0  0  0  0  0  # atno 6908 bound_to 6896
  151.4123  135.0991  159.9641 H   0  0  0  0  0  0  0  0  0  0  0  0  # atno 6909 bound_to 6896
  144.7888  139.7377  143.6230 H   0  0  0  0  0  0  0  0  0  0  0  0  # atno 7974 bound_to 7965
  155.8415  140.0949  157.1731 H   0  0  0  0  0  0  0  0  0  0  0  0  # atno 8008 bound_to 7997
  154.3982  140.1400  156.3795 H   0  0  0  0  0  0  0  0  0  0  0  0  # atno 8009 bound_to 7997
  155.8059  140.3451  155.5432 H   0  0  0  0  0  0  0  0  0  0  0  0  # atno 8010 bound_to 7997
  139.5247  144.6555  151.5173 H   0  0  0  0  0  0  0  0  0  0  0  0  # atno 10167 bound_to 10162
  157.5738  131.1081  150.8317 H   0  0  0  0  0  0  0  0  0  0  0  0  # atno 10718 bound_to 10713
  154.3411  135.6156  153.5597 H   0  0  0  0  0  0  0  0  0  0  0  0  # atno 10763 bound_to 10752
  152.9804  135.5770  154.4851 H   0  0  0  0  0  0  0  0  0  0  0  0  # atno 10764 bound_to 10752
  154.4556  135.2854  155.1727 H   0  0  0  0  0  0  0  0  0  0  0  0  # atno 10765 bound_to 10752
  140.0316  134.6004  155.9500 H   0  0  0  0  0  0  0  0  0  0  0  0  # atno 11005 bound_to 11000
  146.2131  139.5502  142.9668 LP  0  0  0  0  0  0  0  0  0  0  0  0  # atno 17320 bound_to 7965
  145.5850  141.0377  143.2101 LP  0  0  0  0  0  0  0  0  0  0  0  0  # atno 17321 bound_to 7965
  140.6379  143.8947  150.6664 LP  0  0  0  0  0  0  0  0  0  0  0  0  # atno 17342 bound_to 10162
  140.2272  143.3763  152.1595 LP  0  0  0  0  0  0  0  0  0  0  0  0  # atno 17343 bound_to 10162
  156.8781  130.5170  149.5292 LP  0  0  0  0  0  0  0  0  0  0  0  0  # atno 17370 bound_to 10713
  156.0783  130.5800  150.9515 LP  0  0  0  0  0  0  0  0  0  0  0  0  # atno 17371 bound_to 10713
  141.1834  133.6551  156.5114 LP  0  0  0  0  0  0  0  0  0  0  0  0  # atno 17394 bound_to 11000
  140.4217  134.7181  157.4893 LP  0  0  0  0  0  0  0  0  0  0  0  0  # atno 17395 bound_to 11000

$$$$
