AV-unprocessed.smi:199|AV-procd|sdf|1563|dock4
  -GOLD-   2262019433D 1   1.00000     0.00000
 Structure written by MMmdl.
 51 55  0  0  0  0  0  0  0  0  1 V2000
  147.5087  132.6735  161.8222 C   0  0  0  0  0  0  0  0  0  0  0  0
  146.8704  134.0437  162.0984 C   0  0  1  0  0  0  0  0  0  0  0  0
  147.4106  134.5335  163.3234 O   0  0  0  0  0  0  0  0  0  0  0  0
  147.4505  135.9486  163.2740 C   0  0  0  0  0  0  0  0  0  0  0  0
  147.8935  136.2120  161.8435 C   0  0  0  0  0  0  0  0  0  0  0  0
  147.1261  135.1605  161.0466 C   0  0  2  0  0  0  0  0  0  0  0  0
  145.8687  135.7146  160.6955 O   0  0  0  0  0  0  0  0  0  0  0  0
  147.8396  134.7282  159.7380 C   0  0  0  0  0  0  0  0  0  0  0  0
  148.0198  135.8188  158.7912 N   0  0  0  0  0  0  0  0  0  0  0  0
  147.1344  136.2177  157.8171 C   0  0  0  0  0  0  0  0  0  0  0  0
  147.5262  137.2282  157.0919 N   0  0  0  0  0  0  0  0  0  0  0  0
  148.7782  137.5572  157.5997 C   0  0  0  0  0  0  0  0  0  0  0  0
  149.7585  138.5469  157.2905 C   0  0  0  0  0  0  0  0  0  0  0  0
  149.6337  139.4820  156.3079 N   0  0  0  0  0  0  0  0  0  0  0  0
  150.6191  140.5359  156.1270 C   0  0  1  0  0  0  0  0  0  0  0  0
  151.8230  139.8103  155.4935 C   0  0  0  0  0  0  0  0  0  0  0  0
  151.1172  138.7498  154.6318 C   0  0  0  0  0  0  0  0  0  0  0  0
  149.6327  139.0751  154.9077 C   0  0  2  0  0  0  0  0  0  0  0  0
  149.2682  140.3802  154.1668 C   0  0  1  0  0  0  0  0  0  0  0  0
  147.7568  140.5971  153.9374 C   0  0  0  0  0  0  0  0  0  0  0  0
  147.2340  139.7739  152.9141 O   0  0  0  0  0  0  0  0  0  0  0  0
  149.9464  141.4297  155.0695 C   0  0  0  0  0  0  0  0  0  0  0  0
  150.9077  138.5278  158.0172 N   0  0  0  0  0  0  0  0  0  0  0  0
  151.0860  137.6284  158.9875 C   0  0  0  0  0  0  0  0  0  0  0  0
  150.2590  136.6644  159.3912 N   0  0  0  0  0  0  0  0  0  0  0  0
  149.1070  136.6656  158.6625 C   0  0  0  0  0  0  0  0  0  0  0  0
  147.1266  132.2340  160.9008 H   0  0  0  0  0  0  0  0  0  0  0  0
  147.2864  131.9770  162.6309 H   0  0  0  0  0  0  0  0  0  0  0  0
  148.5936  132.7452  161.7435 H   0  0  0  0  0  0  0  0  0  0  0  0
  145.7986  133.8985  162.2463 H   0  0  0  0  0  0  0  0  0  0  0  0
  146.4557  136.3558  163.4606 H   0  0  0  0  0  0  0  0  0  0  0  0
  148.1396  136.3589  164.0124 H   0  0  0  0  0  0  0  0  0  0  0  0
  147.7115  137.2365  161.5158 H   0  0  0  0  0  0  0  0  0  0  0  0
  148.9658  136.0259  161.7751 H   0  0  0  0  0  0  0  0  0  0  0  0
  145.1930  135.0989  160.9345 H   0  0  0  0  0  0  0  0  0  0  0  0
  148.8238  134.3138  159.9572 H   0  0  0  0  0  0  0  0  0  0  0  0
  147.2761  133.9383  159.2398 H   0  0  0  0  0  0  0  0  0  0  0  0
  146.1800  135.7354  157.6638 H   0  0  0  0  0  0  0  0  0  0  0  0
  150.8761  141.1032  157.0191 H   0  0  0  0  0  0  0  0  0  0  0  0
  152.4561  140.4796  154.9101 H   0  0  0  0  0  0  0  0  0  0  0  0
  152.4420  139.3367  156.2567 H   0  0  0  0  0  0  0  0  0  0  0  0
  151.3800  138.8156  153.5755 H   0  0  0  0  0  0  0  0  0  0  0  0
  151.3696  137.7465  154.9772 H   0  0  0  0  0  0  0  0  0  0  0  0
  148.9602  138.2523  154.6625 H   0  0  0  0  0  0  0  0  0  0  0  0
  149.7407  140.3856  153.1835 H   0  0  0  0  0  0  0  0  0  0  0  0
  147.2070  140.3987  154.8578 H   0  0  0  0  0  0  0  0  0  0  0  0
  147.5667  141.6376  153.6732 H   0  0  0  0  0  0  0  0  0  0  0  0
  147.8498  139.7558  152.1975 H   0  0  0  0  0  0  0  0  0  0  0  0
  149.2148  142.0895  155.5374 H   0  0  0  0  0  0  0  0  0  0  0  0
  150.6604  142.0530  154.5301 H   0  0  0  0  0  0  0  0  0  0  0  0
  152.0256  137.6903  159.5161 H   0  0  0  0  0  0  0  0  0  0  0  0
  1  2  1  0  0  0  0
  1 27  1  0  0  0  0
  1 28  1  0  0  0  0
  1 29  1  0  0  0  0
  2  6  1  0  0  0  0
  2  3  1  0  0  0  0
  2 30  1  0  0  0  0
  3  4  1  0  0  0  0
  4  5  1  0  0  0  0
  4 31  1  0  0  0  0
  4 32  1  0  0  0  0
  5  6  1  0  0  0  0
  5 33  1  0  0  0  0
  5 34  1  0  0  0  0
  6  7  1  0  0  0  0
  6  8  1  0  0  0  0
  7 35  1  0  0  0  0
  8  9  1  0  0  0  0
  8 36  1  0  0  0  0
  8 37  1  0  0  0  0
  9 26  1  0  0  0  0
  9 10  1  0  0  0  0
 10 11  2  0  0  0  0
 10 38  1  0  0  0  0
 11 12  1  0  0  0  0
 12 26  2  0  0  0  0
 12 13  1  0  0  0  0
 13 14  1  0  0  0  0
 13 23  2  0  0  0  0
 14 18  1  0  0  0  0
 14 15  1  0  0  0  0
 15 22  1  0  0  0  0
 15 16  1  0  0  0  0
 15 39  1  0  0  0  0
 16 17  1  0  0  0  0
 16 40  1  0  0  0  0
 16 41  1  0  0  0  0
 17 18  1  0  0  0  0
 17 42  1  0  0  0  0
 17 43  1  0  0  0  0
 18 19  1  0  0  0  0
 18 44  1  0  0  0  0
 19 20  1  0  0  0  0
 19 22  1  0  0  0  0
 19 45  1  0  0  0  0
 20 21  1  0  0  0  0
 20 46  1  0  0  0  0
 20 47  1  0  0  0  0
 21 48  1  0  0  0  0
 22 49  1  0  0  0  0
 22 50  1  0  0  0  0
 23 24  1  0  0  0  0
 24 25  2  0  0  0  0
 24 51  1  0  0  0  0
 25 26  1  0  0  0  0
M  END
> <s_m_source_file>
AV-unprocessed.smi

> <i_m_source_file_index>
199

> <i_lp_mmshare_version>
43012

> <i_f3d_flags>
0

> <s_epik_input>
W0NIMl0xW0NIMl1PW0NAQEhdKFtDSDNdKVtDQEBdMShbT0hdKVtDSDJdbihbY0hdbjIpYyhjMjMpbltjSF1uYzNOKFtDQEBIXTQ1KVtDQEhdKFtDSDJdW0NIMl00KVtDQEhdKFtDSDJdNSlbQ0gyXVtPSF0=

> <s_epik_cmdline>
J2VwaWtfcHl0aG9uJywgJy1waCcsICc3LjAnLCAnLXRuJywgJzgnLCAnLW1hJywgJzIwMCcsICctbWV0YWxfYmluZGluZycsICctaW1hZScsICc8aW5maWxlLm1hZT4nLCAnLW9tYWUnLCAnPG91dGZpbGUubWFlPic=

> <r_lp_tautomer_probability>
1

> <r_epik_Ionization_Penalty>
0.00583903

> <r_epik_Ionization_Penalty_Charging>
0

> <r_epik_Ionization_Penalty_Neutral>
0.00583903

> <r_epik_State_Penalty>
-0

> <r_epik_Charging_Adjusted_Penalty>
0

> <i_epik_Tot_Q>
0

> <i_epik_Tot_abs_Q>
0

> <r_epik_Metal_State_Penalty>
-0

> <b_epik_Metal_Only>
0

> <s_lp_Force_Field>
OPLS_2005

> <r_lp_Energy>
85.2134

> <b_lp_Chiralities_Consistent>
1

> <s_lp_Variant>
AV-unprocessed.smi:199-4

> <Gold.Version>
5.8.1

> <Gold.Id.Protein>
6NUR|6NUR_protein|mol2

> <Gold.PLP.Fitness>
48.1185

> <Gold.PLP.PLP>
-43.2127

> <Gold.PLP.part.hbond>
-3.6096

> <Gold.PLP.part.metal>
0.0000

> <Gold.PLP.part.buried>
-3.5253

> <Gold.PLP.part.nonpolar>
-36.4056

> <Gold.PLP.part.repulsive>
0.0247

> <Gold.PLP.ligand.clash>
0.0000

> <Gold.PLP.ligand.torsion>
0.5692

> <Gold.PLP.Chemscore.Hbond>
2.0000

> <Gold.PLP.Chemscore.CHOScore>
0.0000

> <Gold.PLP.Chemscore.Metal>
0.0000

> <Gold.Chemscore.Hbonds>
donor molecule, donor type, donor heavy atom, donor atom, acceptor molecule, acceptor atom, score
      L1  H    21    48       P1  7957  0.98
      P1  H  6896  6909       L1    25  1.00

> <Gold.PLP.Chemscore.Internal.Correction>
0.0442

> <Gold.Rescore>
     Score         DG    S(hbond)    S(metal)    S(lipo)     H(rot)  DE(clash)    DE(int)     intcor
     13.40     -15.07       1.89        0.00      95.34       3.07       0.01       1.66       ----

> <Gold.Chemscore.Fitness>
13.4003

> <Gold.Chemscore.DG>
-15.0737

> <Gold.Chemscore.ZeroCoef>
-5.4800

> <Gold.Chemscore.Hbond>
1.8880

> <Gold.Chemscore.Metal>
0.0000

> <Gold.Chemscore.Lipo>
95.3369

> <Gold.Chemscore.Internal_Hbond>
0.0000

> <Gold.Chemscore.DEClash>
0.0127

> <Gold.Chemscore.DEInternal>
1.6608

> <Gold.Chemscore.Rot>
3.0729

> <Gold.Chemscore.Internal.Correction>
   9.000000E+99

> <Gold.Chemscore.Hbonds>
donor molecule, donor type, donor heavy atom, donor atom, acceptor molecule, acceptor atom, score
      L1  H    21    48       P1  7957  0.92
      P1  H  6896  6909       L1    25  0.77

> <Gold.Chemscore.Hbond.Weighted>
-6.3060

> <Gold.Chemscore.Metal.Weighted>
-0.0000

> <Gold.Chemscore.Lipo.Weighted>
-11.1544

> <Gold.Chemscore.Internal_Hbond.Weighted>
0.0000

> <Gold.Chemscore.DEClash.Weighted>
0.0127

> <Gold.Chemscore.DEInternal.Weighted>
1.6608

> <Gold.Chemscore.Rot.Weighted>
7.8667

> <Gold.Chemscore.Internal.Correction.Weighted>
   9.000000E+99

> <Gold.Protein.RotatedTorsions>
[ 6907 6896 6895 6894 ] final   70.77 input  -60.11 | X-H torsion
[ 7974 7965 7964 7962 ] final  142.10 input  175.53 | X-H torsion
[ 8008 7997 7996 7995 ] final -148.47 input   59.86 | X-H torsion
[ 10167 10162 10161 10158 ] final -128.62 input  -65.29 | X-H torsion
[ 10718 10713 10712 10709 ] final  160.54 input   66.30 | X-H torsion
[ 10763 10752 10751 10750 ] final  -97.43 input  -60.55 | X-H torsion
[ 11005 11000 10999 10996 ] final  164.91 input  -57.11 | X-H torsion

> <Gold.Protein.ActiveResidues>
 VAL166  LYS551  ARG553  GLY616  TRP617  ASP618  TYR619  PRO620  LYS621  CYS622 
 ASP623  PHE694  ASN695  SER759  ASP760  ASP761  ALA762  ILE779  LEU786  VAL792 
 PHE793  MET794  SER795  GLU796  ALA797  LYS798  CYS799  TRP800  GLU811  SER814 

> <Gold.Protein.RotatedAtoms>
  152.4769  134.4820  159.9668 H   0  0  0  0  0  0  0  0  0  0  0  0  # atno 6907 bound_to 6896
  151.4834  133.3535  159.2849 H   0  0  0  0  0  0  0  0  0  0  0  0  # atno 6908 bound_to 6896
  150.8814  134.8232  159.7289 H   0  0  0  0  0  0  0  0  0  0  0  0  # atno 6909 bound_to 6896
  144.9037  139.5387  143.5741 H   0  0  0  0  0  0  0  0  0  0  0  0  # atno 7974 bound_to 7965
  155.5921  140.0653  157.2756 H   0  0  0  0  0  0  0  0  0  0  0  0  # atno 8008 bound_to 7997
  154.4302  140.1833  156.1132 H   0  0  0  0  0  0  0  0  0  0  0  0  # atno 8009 bound_to 7997
  156.0225  140.3315  155.7057 H   0  0  0  0  0  0  0  0  0  0  0  0  # atno 8010 bound_to 7997
  139.9483  143.6084  152.2483 H   0  0  0  0  0  0  0  0  0  0  0  0  # atno 10167 bound_to 10162
  157.1490  131.0559  151.2289 H   0  0  0  0  0  0  0  0  0  0  0  0  # atno 10718 bound_to 10713
  154.7327  135.5047  153.8991 H   0  0  0  0  0  0  0  0  0  0  0  0  # atno 10763 bound_to 10752
  153.0965  135.6674  153.9761 H   0  0  0  0  0  0  0  0  0  0  0  0  # atno 10764 bound_to 10752
  153.9558  135.3053  155.3415 H   0  0  0  0  0  0  0  0  0  0  0  0  # atno 10765 bound_to 10752
  140.2507  134.7979  157.3499 H   0  0  0  0  0  0  0  0  0  0  0  0  # atno 11005 bound_to 11000
  146.3122  139.7789  142.9011 LP  0  0  0  0  0  0  0  0  0  0  0  0  # atno 17320 bound_to 7965
  145.3572  141.0319  143.3305 LP  0  0  0  0  0  0  0  0  0  0  0  0  # atno 17321 bound_to 7965
  139.6649  144.7662  151.1893 LP  0  0  0  0  0  0  0  0  0  0  0  0  # atno 17342 bound_to 10162
  140.7590  143.5954  150.8754 LP  0  0  0  0  0  0  0  0  0  0  0  0  # atno 17343 bound_to 10162
  157.4238  130.7452  149.6934 LP  0  0  0  0  0  0  0  0  0  0  0  0  # atno 17370 bound_to 10713
  155.9774  130.4063  150.3715 LP  0  0  0  0  0  0  0  0  0  0  0  0  # atno 17371 bound_to 10713
  140.1560  134.4788  155.7927 LP  0  0  0  0  0  0  0  0  0  0  0  0  # atno 17394 bound_to 11000
  141.2201  133.6882  156.7462 LP  0  0  0  0  0  0  0  0  0  0  0  0  # atno 17395 bound_to 11000

$$$$
