AV-unprocessed.smi:3215|AV-procd|sdf|12286|dock4
  -GOLD-   2272018123D 1   1.00000     0.00000
 Structure written by MMmdl.
 37 38  0  0  0  0  0  0  0  0  1 V2000
  146.5883  142.2496  153.8052 C   0  0  0  0  0  0  0  0  0  0  0  0
  147.9479  141.7481  154.1979 C   0  0  0  0  0  0  0  0  0  0  0  0
  148.7698  140.8166  153.5017 C   0  0  0  0  0  0  0  0  0  0  0  0
  149.9179  140.5832  154.1165 N   0  0  0  0  0  0  0  0  0  0  0  0
  149.8697  141.3540  155.2237 N   0  0  0  0  0  0  0  0  0  0  0  0
  150.9837  141.3528  156.1522 C   0  0  0  0  0  0  0  0  0  0  0  0
  151.8552  140.0989  155.9900 C   0  0  0  0  0  0  0  0  0  0  0  0
  152.8886  140.0899  157.0139 N   0  0  0  0  0  0  0  0  0  0  0  0
  152.2899  140.0379  158.3538 C   0  0  0  0  0  0  0  0  0  0  0  0
  153.3230  140.1738  159.4846 C   0  0  0  0  0  0  0  0  0  0  0  0
  154.2696  139.3873  159.5521 O   0  0  0  0  0  0  0  0  0  0  0  0
  153.1522  141.1648  160.3845 N   0  0  0  0  0  0  0  0  0  0  0  0
  154.0482  141.3913  161.5168 C   0  0  0  0  0  0  0  0  0  0  0  0
  153.3355  142.4058  162.4114 C   0  0  0  0  0  0  0  0  0  0  0  0
  152.4254  143.1673  161.4580 C   0  0  0  0  0  0  0  0  0  0  0  0
  152.0628  142.1412  160.3837 C   0  0  0  0  0  0  0  0  0  0  0  0
  148.6922  142.0671  155.2986 C   0  0  0  0  0  0  0  0  0  0  0  0
  146.5022  142.3787  152.7262 H   0  0  0  0  0  0  0  0  0  0  0  0
  146.3641  143.2141  154.2616 H   0  0  0  0  0  0  0  0  0  0  0  0
  145.8024  141.5585  154.1104 H   0  0  0  0  0  0  0  0  0  0  0  0
  148.5668  140.3057  152.5719 H   0  0  0  0  0  0  0  0  0  0  0  0
  151.5752  142.2534  155.9812 H   0  0  0  0  0  0  0  0  0  0  0  0
  150.5904  141.4199  157.1680 H   0  0  0  0  0  0  0  0  0  0  0  0
  151.2416  139.2005  156.0740 H   0  0  0  0  0  0  0  0  0  0  0  0
  152.3163  140.0916  155.0011 H   0  0  0  0  0  0  0  0  0  0  0  0
  153.5071  139.3067  156.8579 H   0  0  0  0  0  0  0  0  0  0  0  0
  151.5593  140.8423  158.4506 H   0  0  0  0  0  0  0  0  0  0  0  0
  151.7586  139.0925  158.4740 H   0  0  0  0  0  0  0  0  0  0  0  0
  154.2684  140.4708  162.0598 H   0  0  0  0  0  0  0  0  0  0  0  0
  154.9895  141.8005  161.1472 H   0  0  0  0  0  0  0  0  0  0  0  0
  152.7295  141.8800  163.1506 H   0  0  0  0  0  0  0  0  0  0  0  0
  154.0272  143.0558  162.9480 H   0  0  0  0  0  0  0  0  0  0  0  0
  151.5498  143.5875  161.9536 H   0  0  0  0  0  0  0  0  0  0  0  0
  152.9797  143.9906  161.0055 H   0  0  0  0  0  0  0  0  0  0  0  0
  151.9364  142.6226  159.4133 H   0  0  0  0  0  0  0  0  0  0  0  0
  151.1303  141.6361  160.6393 H   0  0  0  0  0  0  0  0  0  0  0  0
  148.4836  142.7367  156.1200 H   0  0  0  0  0  0  0  0  0  0  0  0
  1  2  1  0  0  0  0
  1 18  1  0  0  0  0
  1 19  1  0  0  0  0
  1 20  1  0  0  0  0
  2 17  2  0  0  0  0
  2  3  1  0  0  0  0
  3  4  2  0  0  0  0
  3 21  1  0  0  0  0
  4  5  1  0  0  0  0
  5  6  1  0  0  0  0
  5 17  1  0  0  0  0
  6  7  1  0  0  0  0
  6 22  1  0  0  0  0
  6 23  1  0  0  0  0
  7  8  1  0  0  0  0
  7 24  1  0  0  0  0
  7 25  1  0  0  0  0
  8  9  1  0  0  0  0
  8 26  1  0  0  0  0
  9 10  1  0  0  0  0
  9 27  1  0  0  0  0
  9 28  1  0  0  0  0
 10 11  2  0  0  0  0
 10 12  1  0  0  0  0
 12 16  1  0  0  0  0
 12 13  1  0  0  0  0
 13 14  1  0  0  0  0
 13 29  1  0  0  0  0
 13 30  1  0  0  0  0
 14 15  1  0  0  0  0
 14 31  1  0  0  0  0
 14 32  1  0  0  0  0
 15 16  1  0  0  0  0
 15 33  1  0  0  0  0
 15 34  1  0  0  0  0
 16 35  1  0  0  0  0
 16 36  1  0  0  0  0
 17 37  1  0  0  0  0
M  END
> <s_m_source_file>
AV-unprocessed.smi

> <i_m_source_file_index>
3215

> <i_lp_mmshare_version>
43012

> <i_f3d_flags>
0

> <s_epik_input>
W0NIM11jMVtjSF1ubihbY0hdMSlbQ0gyXVtDSDJdW05IXVtDSDJdQyg9TylOMltDSDJdW0NIMl1bQ0gyXVtDSDJdMg==

> <s_epik_cmdline>
J2VwaWtfcHl0aG9uJywgJy1waCcsICc3LjAnLCAnLXRuJywgJzgnLCAnLW1hJywgJzIwMCcsICctbWV0YWxfYmluZGluZycsICctaW1hZScsICc8aW5maWxlLm1hZT4nLCAnLW9tYWUnLCAnPG91dGZpbGUubWFlPic=

> <r_lp_tautomer_probability>
1

> <r_epik_Ionization_Penalty>
0.736363

> <r_epik_Ionization_Penalty_Charging>
0

> <r_epik_Ionization_Penalty_Neutral>
0.736363

> <r_epik_State_Penalty>
0.758951

> <r_epik_Charging_Adjusted_Penalty>
0.758951

> <i_epik_Tot_Q>
0

> <i_epik_Tot_abs_Q>
0

> <r_epik_Metal_State_Penalty>
0.755698

> <b_epik_Metal_Only>
0

> <s_lp_Force_Field>
OPLS_2005

> <r_lp_Energy>
29.5089

> <b_lp_Chiralities_Consistent>
1

> <s_lp_Variant>
AV-unprocessed.smi:3215-2

> <Gold.Version>
5.8.1

> <Gold.Id.Protein>
6NUR|6NUR_protein|mol2

> <Gold.PLP.Fitness>
44.7568

> <Gold.PLP.PLP>
-38.4934

> <Gold.PLP.part.hbond>
-2.0000

> <Gold.PLP.part.metal>
0.0000

> <Gold.PLP.part.buried>
2.6806

> <Gold.PLP.part.nonpolar>
-39.2915

> <Gold.PLP.part.repulsive>
0.2193

> <Gold.PLP.ligand.clash>
0.0000

> <Gold.PLP.ligand.torsion>
0.3120

> <Gold.PLP.Chemscore.Hbond>
0.7520

> <Gold.PLP.Chemscore.CHOScore>
1.5371

> <Gold.PLP.Chemscore.Metal>
0.0000

> <Gold.Chemscore.Hbonds>
donor molecule, donor type, donor heavy atom, donor atom, acceptor molecule, acceptor atom, score
      P1  H  7989  7998       L1     4  0.70
      L1  C     3    21       P1  7957  0.34
      L1  C    17    37       P1  8028  0.66

> <Gold.PLP.Chemscore.Internal.Correction>
0.0200

> <Gold.Rescore>
     Score         DG    S(hbond)    S(metal)    S(lipo)     H(rot)  DE(clash)    DE(int)     intcor
     12.40     -13.08       0.69        0.00      83.41       1.74       0.21       0.46       ----

> <Gold.Chemscore.Fitness>
12.4030

> <Gold.Chemscore.DG>
-13.0778

> <Gold.Chemscore.ZeroCoef>
-5.4800

> <Gold.Chemscore.Hbond>
0.6899

> <Gold.Chemscore.Metal>
0.0000

> <Gold.Chemscore.Lipo>
83.4124

> <Gold.Chemscore.Internal_Hbond>
0.0000

> <Gold.Chemscore.DEClash>
0.2147

> <Gold.Chemscore.DEInternal>
0.4602

> <Gold.Chemscore.Rot>
1.7444

> <Gold.Chemscore.Internal.Correction>
   9.000000E+99

> <Gold.Chemscore.Hbonds>
donor molecule, donor type, donor heavy atom, donor atom, acceptor molecule, acceptor atom, score
      P1  H  7989  7998       L1     4  0.28

> <Gold.Chemscore.Hbond.Weighted>
-2.3043

> <Gold.Chemscore.Metal.Weighted>
-0.0000

> <Gold.Chemscore.Lipo.Weighted>
-9.7593

> <Gold.Chemscore.Internal_Hbond.Weighted>
0.0000

> <Gold.Chemscore.DEClash.Weighted>
0.2147

> <Gold.Chemscore.DEInternal.Weighted>
0.4602

> <Gold.Chemscore.Rot.Weighted>
4.4657

> <Gold.Chemscore.Internal.Correction.Weighted>
   9.000000E+99

> <Gold.Protein.RotatedTorsions>
[ 6907 6896 6895 6894 ] final  -17.31 input  -60.11 | X-H torsion
[ 7974 7965 7964 7962 ] final  144.02 input  175.53 | X-H torsion
[ 8008 7997 7996 7995 ] final  -91.59 input   59.86 | X-H torsion
[ 10167 10162 10161 10158 ] final   -9.59 input  -65.29 | X-H torsion
[ 10718 10713 10712 10709 ] final -113.90 input   66.30 | X-H torsion
[ 10763 10752 10751 10750 ] final   73.70 input  -60.55 | X-H torsion
[ 11005 11000 10999 10996 ] final -145.82 input  -57.11 | X-H torsion

> <Gold.Protein.ActiveResidues>
 VAL166  LYS551  ARG553  GLY616  TRP617  ASP618  TYR619  PRO620  LYS621  CYS622 
 ASP623  PHE694  ASN695  SER759  ASP760  ASP761  ALA762  ILE779  LEU786  VAL792 
 PHE793  MET794  SER795  GLU796  ALA797  LYS798  CYS799  TRP800  GLU811  SER814 

> <Gold.Protein.RotatedAtoms>
  151.2953  135.0753  159.9218 H   0  0  0  0  0  0  0  0  0  0  0  0  # atno 6907 bound_to 6896
  152.5308  133.9890  159.7852 H   0  0  0  0  0  0  0  0  0  0  0  0  # atno 6908 bound_to 6896
  151.0167  133.5863  159.2706 H   0  0  0  0  0  0  0  0  0  0  0  0  # atno 6909 bound_to 6896
  144.8871  139.5613  143.5816 H   0  0  0  0  0  0  0  0  0  0  0  0  # atno 7974 bound_to 7965
  154.7127  140.0518  157.0565 H   0  0  0  0  0  0  0  0  0  0  0  0  # atno 8008 bound_to 7997
  155.0534  140.3181  155.4665 H   0  0  0  0  0  0  0  0  0  0  0  0  # atno 8009 bound_to 7997
  156.2794  140.2112  156.5660 H   0  0  0  0  0  0  0  0  0  0  0  0  # atno 8010 bound_to 7997
  140.7091  143.5841  150.8961 H   0  0  0  0  0  0  0  0  0  0  0  0  # atno 10167 bound_to 10162
  156.0795  130.5998  150.8703 H   0  0  0  0  0  0  0  0  0  0  0  0  # atno 10718 bound_to 10713
  153.0539  135.5053  154.7933 H   0  0  0  0  0  0  0  0  0  0  0  0  # atno 10763 bound_to 10752
  154.6774  135.2963  154.9662 H   0  0  0  0  0  0  0  0  0  0  0  0  # atno 10764 bound_to 10752
  154.0459  135.6710  153.4847 H   0  0  0  0  0  0  0  0  0  0  0  0  # atno 10765 bound_to 10752
  140.7883  134.2998  157.5022 H   0  0  0  0  0  0  0  0  0  0  0  0  # atno 11005 bound_to 11000
  146.3031  139.7491  142.9076 LP  0  0  0  0  0  0  0  0  0  0  0  0  # atno 17320 bound_to 7965
  145.3849  141.0364  143.3156 LP  0  0  0  0  0  0  0  0  0  0  0  0  # atno 17321 bound_to 7965
  139.9567  143.6210  152.3014 LP  0  0  0  0  0  0  0  0  0  0  0  0  # atno 17342 bound_to 10162
  139.6748  144.7659  151.1716 LP  0  0  0  0  0  0  0  0  0  0  0  0  # atno 17343 bound_to 10162
  157.5906  131.0944  150.9125 LP  0  0  0  0  0  0  0  0  0  0  0  0  # atno 17370 bound_to 10713
  156.9301  130.5346  149.5279 LP  0  0  0  0  0  0  0  0  0  0  0  0  # atno 17371 bound_to 10713
  139.8734  134.9359  156.3647 LP  0  0  0  0  0  0  0  0  0  0  0  0  # atno 17394 bound_to 11000
  140.9415  133.7511  156.0152 LP  0  0  0  0  0  0  0  0  0  0  0  0  # atno 17395 bound_to 11000

$$$$
