AV-unprocessed.smi:1983|AV-procd|sdf|8036|dock1
  -GOLD-   2272010233D 1   1.00000     0.00000
 Structure written by MMmdl.
 50 51  0  0  0  0  0  0  0  0  2 V2000
  146.3400  133.8158  151.7221 C   0  0  0  0  0  0  0  0  0  0  0  0
  145.5314  135.0902  152.0091 C   0  0  2  0  0  0  0  0  0  0  0  0
  144.5056  135.3935  150.8990 C   0  0  0  0  0  0  0  0  0  0  0  0
  145.1364  136.0234  149.8045 O   0  0  0  0  0  0  0  0  0  0  0  0
  146.4533  136.2111  152.1738 N   0  0  0  0  0  0  0  0  0  0  0  0
  146.1004  137.4696  152.4712 C   0  0  0  0  0  0  0  0  0  0  0  0
  144.9378  137.8467  152.6192 O   0  0  0  0  0  0  0  0  0  0  0  0
  147.1678  138.2725  152.5828 N   0  0  0  0  0  0  0  0  0  0  0  0
  147.1116  139.6908  152.9252 C   0  0  0  0  0  0  0  0  0  0  0  0
  148.0857  140.1350  154.0101 C   0  0  0  0  0  0  0  0  0  0  0  0
  149.0815  139.2773  154.5301 C   0  0  0  0  0  0  0  0  0  0  0  0
  149.9447  139.7430  155.5435 C   0  0  0  0  0  0  0  0  0  0  0  0
  149.8033  141.0632  156.0411 C   0  0  0  0  0  0  0  0  0  0  0  0
  150.6183  141.6169  157.0529 N   0  0  0  0  0  0  0  0  0  0  0  0
  151.4567  140.7135  157.8333 C   0  0  0  0  0  0  0  0  0  0  0  0
  152.5184  141.5035  158.6189 C   0  0  2  0  0  0  0  0  0  0  0  0
  153.3215  140.6007  159.5611 C   0  0  0  0  0  0  0  0  0  0  0  0
  151.8815  142.5079  159.4063 O   0  0  0  0  0  0  0  0  0  0  0  0
  151.0966  143.4415  158.6624 C   0  0  1  0  0  0  0  0  0  0  0  0
  151.9637  144.3979  157.8240 C   0  0  0  0  0  0  0  0  0  0  0  0
  150.0272  142.7001  157.8371 C   0  0  0  0  0  0  0  0  0  0  0  0
  148.8303  141.8433  155.5104 N   0  3  0  0  0  0  0  0  0  0  0  0
  147.9860  141.4380  154.5376 C   0  0  0  0  0  0  0  0  0  0  0  0
  145.6891  132.9448  151.6409 H   0  0  0  0  0  0  0  0  0  0  0  0
  147.0542  133.6154  152.5215 H   0  0  0  0  0  0  0  0  0  0  0  0
  146.8988  133.9004  150.7895 H   0  0  0  0  0  0  0  0  0  0  0  0
  145.0000  134.9468  152.9524 H   0  0  0  0  0  0  0  0  0  0  0  0
  144.0503  134.4739  150.5303 H   0  0  0  0  0  0  0  0  0  0  0  0
  143.6983  136.0253  151.2709 H   0  0  0  0  0  0  0  0  0  0  0  0
  145.3008  135.3747  149.1373 H   0  0  0  0  0  0  0  0  0  0  0  0
  147.4363  136.0048  152.0710 H   0  0  0  0  0  0  0  0  0  0  0  0
  148.0840  137.8706  152.4466 H   0  0  0  0  0  0  0  0  0  0  0  0
  147.2720  140.2885  152.0259 H   0  0  0  0  0  0  0  0  0  0  0  0
  146.1004  139.9151  153.2649 H   0  0  0  0  0  0  0  0  0  0  0  0
  149.1899  138.2666  154.1654 H   0  0  0  0  0  0  0  0  0  0  0  0
  150.6937  139.0682  155.9293 H   0  0  0  0  0  0  0  0  0  0  0  0
  150.8266  140.1415  158.5160 H   0  0  0  0  0  0  0  0  0  0  0  0
  151.9627  140.0044  157.1775 H   0  0  0  0  0  0  0  0  0  0  0  0
  153.2171  141.9691  157.9235 H   0  0  0  0  0  0  0  0  0  0  0  0
  153.8418  139.8184  159.0077 H   0  0  0  0  0  0  0  0  0  0  0  0
  152.6741  140.1186  160.2944 H   0  0  0  0  0  0  0  0  0  0  0  0
  154.0706  141.1757  160.1060 H   0  0  0  0  0  0  0  0  0  0  0  0
  150.5777  144.0549  159.3996 H   0  0  0  0  0  0  0  0  0  0  0  0
  151.3520  145.1850  157.3823 H   0  0  0  0  0  0  0  0  0  0  0  0
  152.4724  143.8886  157.0059 H   0  0  0  0  0  0  0  0  0  0  0  0
  152.7213  144.8789  158.4431 H   0  0  0  0  0  0  0  0  0  0  0  0
  149.5007  143.4186  157.2089 H   0  0  0  0  0  0  0  0  0  0  0  0
  149.2845  142.2662  158.5078 H   0  0  0  0  0  0  0  0  0  0  0  0
  147.2588  142.1677  154.2120 H   0  0  0  0  0  0  0  0  0  0  0  0
  148.7306  142.7949  155.8646 H   0  0  0  0  0  0  0  0  0  0  0  0
  1  2  1  0  0  0  0
  1 24  1  0  0  0  0
  1 25  1  0  0  0  0
  1 26  1  0  0  0  0
  2  3  1  0  0  0  0
  2  5  1  0  0  0  0
  2 27  1  0  0  0  0
  3  4  1  0  0  0  0
  3 28  1  0  0  0  0
  3 29  1  0  0  0  0
  4 30  1  0  0  0  0
  5  6  1  0  0  0  0
  5 31  1  0  0  0  0
  6  7  2  0  0  0  0
  6  8  1  0  0  0  0
  8  9  1  0  0  0  0
  8 32  1  0  0  0  0
  9 10  1  0  0  0  0
  9 33  1  0  0  0  0
  9 34  1  0  0  0  0
 10 23  1  0  0  0  0
 10 11  2  0  0  0  0
 11 12  1  0  0  0  0
 11 35  1  0  0  0  0
 12 13  2  0  0  0  0
 12 36  1  0  0  0  0
 13 14  1  0  0  0  0
 13 22  1  0  0  0  0
 14 21  1  0  0  0  0
 14 15  1  0  0  0  0
 15 16  1  0  0  0  0
 15 37  1  0  0  0  0
 15 38  1  0  0  0  0
 16 17  1  0  0  0  0
 16 18  1  0  0  0  0
 16 39  1  0  0  0  0
 17 40  1  0  0  0  0
 17 41  1  0  0  0  0
 17 42  1  0  0  0  0
 18 19  1  0  0  0  0
 19 20  1  0  0  0  0
 19 21  1  0  0  0  0
 19 43  1  0  0  0  0
 20 44  1  0  0  0  0
 20 45  1  0  0  0  0
 20 46  1  0  0  0  0
 21 47  1  0  0  0  0
 21 48  1  0  0  0  0
 22 23  2  0  0  0  0
 22 50  1  0  0  0  0
 23 49  1  0  0  0  0
M  CHG  1  22   1
M  END
> <s_m_source_file>
AV-unprocessed.smi

> <i_m_source_file_index>
1983

> <i_lp_mmshare_version>
43012

> <i_f3d_flags>
0

> <s_epik_input>
W09IXVtDSDJdW0NAQEhdKFtDSDNdKVtOSF1DKD1PKVtOSF1bQ0gyXWMxW2NIXVtjSF1jKG5bY0hdMSlOMltDSDJdW0NAQEhdKFtDSDNdKU9bQ0BASF0oW0NIM10pW0NIMl0y

> <s_epik_cmdline>
J2VwaWtfcHl0aG9uJywgJy1waCcsICc3LjAnLCAnLXRuJywgJzgnLCAnLW1hJywgJzIwMCcsICctbWV0YWxfYmluZGluZycsICctaW1hZScsICc8aW5maWxlLm1hZT4nLCAnLW9tYWUnLCAnPG91dGZpbGUubWFlPic=

> <r_lp_tautomer_probability>
0.999994

> <r_epik_Ionization_Penalty>
2.55677

> <r_epik_Ionization_Penalty_Charging>
2.55673

> <r_epik_Ionization_Penalty_Neutral>
3.71772e-05

> <r_epik_State_Penalty>
2.72571

> <r_epik_Charging_Adjusted_Penalty>
5.28244

> <i_epik_Tot_Q>
1

> <i_epik_Tot_abs_Q>
1

> <r_epik_Metal_State_Penalty>
2.73364

> <b_epik_Metal_Only>
0

> <s_lp_Force_Field>
OPLS_2005

> <r_lp_Energy>
21.0227

> <b_lp_Chiralities_Consistent>
1

> <s_lp_Variant>
AV-unprocessed.smi:1983-9

> <Gold.Version>
5.8.1

> <Gold.Id.Protein>
6NUR|6NUR_protein|mol2

> <Gold.PLP.Fitness>
53.0198

> <Gold.PLP.PLP>
-39.7160

> <Gold.PLP.part.hbond>
-5.0182

> <Gold.PLP.part.metal>
0.0000

> <Gold.PLP.part.buried>
-6.4687

> <Gold.PLP.part.nonpolar>
-31.5272

> <Gold.PLP.part.repulsive>
2.3518

> <Gold.PLP.ligand.clash>
0.0000

> <Gold.PLP.ligand.torsion>
0.8326

> <Gold.PLP.Chemscore.Hbond>
4.8393

> <Gold.PLP.Chemscore.CHOScore>
0.0000

> <Gold.PLP.Chemscore.Metal>
0.0000

> <Gold.Chemscore.Hbonds>
donor molecule, donor type, donor heavy atom, donor atom, acceptor molecule, acceptor atom, score
      L1  H     4    30       P1  7921  1.00
      L1  H     5    31       P1  7948  0.99
      L1  H     8    32       P1  7948  0.85
      L1  H    22    50       P1  8028  2.00

> <Gold.PLP.Chemscore.Internal.Correction>
0.4511

> <Gold.Rescore>
     Score         DG    S(hbond)    S(metal)    S(lipo)     H(rot)  DE(clash)    DE(int)     intcor
     21.53     -22.66       3.74        0.00      98.31       2.66       0.11       1.02       ----

> <Gold.Chemscore.Fitness>
21.5322

> <Gold.Chemscore.DG>
-22.6604

> <Gold.Chemscore.ZeroCoef>
-5.4800

> <Gold.Chemscore.Hbond>
3.7418

> <Gold.Chemscore.Metal>
0.0000

> <Gold.Chemscore.Lipo>
98.3054

> <Gold.Chemscore.Internal_Hbond>
0.0000

> <Gold.Chemscore.DEClash>
0.1090

> <Gold.Chemscore.DEInternal>
1.0191

> <Gold.Chemscore.Rot>
2.6637

> <Gold.Chemscore.Internal.Correction>
   9.000000E+99

> <Gold.Chemscore.Hbonds>
donor molecule, donor type, donor heavy atom, donor atom, acceptor molecule, acceptor atom, score
      L1  H     4    30       P1  7921  0.95
      L1  H     5    31       P1  7948  0.92
      L1  H     8    32       P1  7948  0.83
      L1  H    22    50       P1  8028  0.96

> <Gold.Chemscore.Hbond.Weighted>
-12.4977

> <Gold.Chemscore.Metal.Weighted>
-0.0000

> <Gold.Chemscore.Lipo.Weighted>
-11.5017

> <Gold.Chemscore.Internal_Hbond.Weighted>
0.0000

> <Gold.Chemscore.DEClash.Weighted>
0.1090

> <Gold.Chemscore.DEInternal.Weighted>
1.0191

> <Gold.Chemscore.Rot.Weighted>
6.8191

> <Gold.Chemscore.Internal.Correction.Weighted>
   9.000000E+99

> <Gold.Protein.RotatedTorsions>
[ 6907 6896 6895 6894 ] final   11.60 input  -60.11 | X-H torsion
[ 7974 7965 7964 7962 ] final   40.82 input  175.53 | X-H torsion
[ 8008 7997 7996 7995 ] final  -73.28 input   59.86 | X-H torsion
[ 10167 10162 10161 10158 ] final -140.46 input  -65.29 | X-H torsion
[ 10718 10713 10712 10709 ] final   -9.22 input   66.30 | X-H torsion
[ 10763 10752 10751 10750 ] final  -47.36 input  -60.55 | X-H torsion
[ 11005 11000 10999 10996 ] final  169.64 input  -57.11 | X-H torsion

> <Gold.Protein.ActiveResidues>
 VAL166  LYS551  ARG553  GLY616  TRP617  ASP618  TYR619  PRO620  LYS621  CYS622 
 ASP623  PHE694  ASN695  SER759  ASP760  ASP761  ALA762  ILE779  LEU786  VAL792 
 PHE793  MET794  SER795  GLU796  ALA797  LYS798  CYS799  TRP800  GLU811  SER814 

> <Gold.Protein.RotatedAtoms>
  151.7569  135.0819  160.0339 H   0  0  0  0  0  0  0  0  0  0  0  0  # atno 6907 bound_to 6896
  152.3379  133.6029  159.5864 H   0  0  0  0  0  0  0  0  0  0  0  0  # atno 6908 bound_to 6896
  150.7461  133.9683  159.3579 H   0  0  0  0  0  0  0  0  0  0  0  0  # atno 6909 bound_to 6896
  146.0874  139.5488  142.9498 H   0  0  0  0  0  0  0  0  0  0  0  0  # atno 7974 bound_to 7965
  154.5234  140.0782  156.8214 H   0  0  0  0  0  0  0  0  0  0  0  0  # atno 8008 bound_to 7997
  155.3527  140.3413  155.4221 H   0  0  0  0  0  0  0  0  0  0  0  0  # atno 8009 bound_to 7997
  156.1706  140.1618  156.8441 H   0  0  0  0  0  0  0  0  0  0  0  0  # atno 8010 bound_to 7997
  139.8280  143.7485  152.2666 H   0  0  0  0  0  0  0  0  0  0  0  0  # atno 10167 bound_to 10162
  156.6912  130.5065  149.5943 H   0  0  0  0  0  0  0  0  0  0  0  0  # atno 10718 bound_to 10713
  154.0601  135.6619  153.4811 H   0  0  0  0  0  0  0  0  0  0  0  0  # atno 10763 bound_to 10752
  153.0430  135.5133  154.7667 H   0  0  0  0  0  0  0  0  0  0  0  0  # atno 10764 bound_to 10752
  154.6701  135.3028  154.9721 H   0  0  0  0  0  0  0  0  0  0  0  0  # atno 10765 bound_to 10752
  140.2999  134.7604  157.3907 H   0  0  0  0  0  0  0  0  0  0  0  0  # atno 11005 bound_to 11000
  145.6104  141.0340  143.1970 LP  0  0  0  0  0  0  0  0  0  0  0  0  # atno 17320 bound_to 7965
  144.7335  139.7653  143.7338 LP  0  0  0  0  0  0  0  0  0  0  0  0  # atno 17321 bound_to 7965
  139.7684  144.7484  151.0260 LP  0  0  0  0  0  0  0  0  0  0  0  0  # atno 17342 bound_to 10162
  140.7809  143.4672  151.0195 LP  0  0  0  0  0  0  0  0  0  0  0  0  # atno 17343 bound_to 10162
  156.1796  130.6490  151.0936 LP  0  0  0  0  0  0  0  0  0  0  0  0  # atno 17370 bound_to 10713
  157.7008  131.0776  150.6826 LP  0  0  0  0  0  0  0  0  0  0  0  0  # atno 17371 bound_to 10713
  140.1119  134.5335  155.8259 LP  0  0  0  0  0  0  0  0  0  0  0  0  # atno 17394 bound_to 11000
  141.2130  133.6727  156.6704 LP  0  0  0  0  0  0  0  0  0  0  0  0  # atno 17395 bound_to 11000

$$$$
