AV-unprocessed.smi:12|AV-procd|sdf|64|dock10
  -GOLD-   2262015183D 1   1.00000     0.00000
 Structure written by MMmdl.
 41 44  0  0  0  0  0  0  0  0  1 V2000
  158.3122  136.7138  167.0309 C   0  0  0  0  0  0  0  0  0  0  0  0
  157.2661  136.2595  166.0288 C   0  0  0  0  0  0  0  0  0  0  0  0
  156.3428  137.1133  165.5271 C   0  0  0  0  0  0  0  0  0  0  0  0
  155.4263  136.6550  164.6228 N   0  0  0  0  0  0  0  0  0  0  0  0
  155.4388  135.2943  164.2404 C   0  0  0  0  0  0  0  0  0  0  0  0
  156.2878  134.4165  164.6766 N   0  0  0  0  0  0  0  0  0  0  0  0
  157.2676  134.8397  165.5951 C   0  0  0  0  0  0  0  0  0  0  0  0
  158.1018  134.0454  166.0273 O   0  0  0  0  0  0  0  0  0  0  0  0
  154.4189  135.0690  163.3654 O   0  0  0  0  0  0  0  0  0  0  0  0
  153.7166  136.2968  163.1240 C   0  0  2  0  0  0  0  0  0  0  0  0
  153.8736  136.8180  161.6926 C   0  0  2  0  0  0  0  0  0  0  0  0
  154.9484  136.1951  161.0102 O   0  0  0  0  0  0  0  0  0  0  0  0
  154.1603  138.3118  161.9064 C   0  0  2  0  0  0  0  0  0  0  0  0
  154.9101  139.0443  160.7827 C   0  0  0  0  0  0  0  0  0  0  0  0
  154.5153  140.4068  160.7573 O   0  0  0  0  0  0  0  0  0  0  0  0
  153.7641  140.8702  159.7386 C   0  0  0  0  0  0  0  0  0  0  0  0
  153.6113  140.2668  158.6747 O   0  0  0  0  0  0  0  0  0  0  0  0
  153.1386  142.1925  160.0306 C   0  0  0  0  0  0  0  0  0  0  0  0
  152.8647  143.0798  158.9634 C   0  0  0  0  0  0  0  0  0  0  0  0
  152.2806  144.3379  159.2078 C   0  0  0  0  0  0  0  0  0  0  0  0
  151.9621  144.7239  160.5227 C   0  0  0  0  0  0  0  0  0  0  0  0
  152.2274  143.8497  161.5929 C   0  0  0  0  0  0  0  0  0  0  0  0
  152.8116  142.5909  161.3505 C   0  0  0  0  0  0  0  0  0  0  0  0
  154.9015  138.3426  163.1171 O   0  0  0  0  0  0  0  0  0  0  0  0
  154.3463  137.4073  163.9846 C   0  0  2  0  0  0  0  0  0  0  0  0
  158.2006  137.7726  167.2674 H   0  0  0  0  0  0  0  0  0  0  0  0
  159.3152  136.5620  166.6308 H   0  0  0  0  0  0  0  0  0  0  0  0
  158.2221  136.1492  167.9594 H   0  0  0  0  0  0  0  0  0  0  0  0
  156.3229  138.1512  165.8262 H   0  0  0  0  0  0  0  0  0  0  0  0
  152.6655  136.1990  163.3979 H   0  0  0  0  0  0  0  0  0  0  0  0
  152.9664  136.6650  161.1073 H   0  0  0  0  0  0  0  0  0  0  0  0
  155.7345  136.3046  161.5226 H   0  0  0  0  0  0  0  0  0  0  0  0
  153.2169  138.8276  162.0971 H   0  0  0  0  0  0  0  0  0  0  0  0
  155.9841  138.9887  160.9658 H   0  0  0  0  0  0  0  0  0  0  0  0
  154.7241  138.5737  159.8164 H   0  0  0  0  0  0  0  0  0  0  0  0
  153.1014  142.8062  157.9453 H   0  0  0  0  0  0  0  0  0  0  0  0
  152.0778  145.0070  158.3845 H   0  0  0  0  0  0  0  0  0  0  0  0
  151.5151  145.6893  160.7099 H   0  0  0  0  0  0  0  0  0  0  0  0
  151.9833  144.1449  162.6028 H   0  0  0  0  0  0  0  0  0  0  0  0
  153.0026  141.9446  162.1946 H   0  0  0  0  0  0  0  0  0  0  0  0
  153.7221  137.8086  164.7836 H   0  0  0  0  0  0  0  0  0  0  0  0
  1  2  1  0  0  0  0
  1 26  1  0  0  0  0
  1 27  1  0  0  0  0
  1 28  1  0  0  0  0
  2  7  1  0  0  0  0
  2  3  2  0  0  0  0
  3  4  1  0  0  0  0
  3 29  1  0  0  0  0
  4 25  1  0  0  0  0
  4  5  1  0  0  0  0
  5  6  2  0  0  0  0
  5  9  1  0  0  0  0
  6  7  1  0  0  0  0
  7  8  2  0  0  0  0
  9 10  1  0  0  0  0
 10 25  1  0  0  0  0
 10 11  1  0  0  0  0
 10 30  1  0  0  0  0
 11 12  1  0  0  0  0
 11 13  1  0  0  0  0
 11 31  1  0  0  0  0
 12 32  1  0  0  0  0
 13 14  1  0  0  0  0
 13 24  1  0  0  0  0
 13 33  1  0  0  0  0
 14 15  1  0  0  0  0
 14 34  1  0  0  0  0
 14 35  1  0  0  0  0
 15 16  1  0  0  0  0
 16 17  2  0  0  0  0
 16 18  1  0  0  0  0
 18 23  1  0  0  0  0
 18 19  2  0  0  0  0
 19 20  1  0  0  0  0
 19 36  1  0  0  0  0
 20 21  2  0  0  0  0
 20 37  1  0  0  0  0
 21 22  1  0  0  0  0
 21 38  1  0  0  0  0
 22 23  2  0  0  0  0
 22 39  1  0  0  0  0
 23 40  1  0  0  0  0
 24 25  1  0  0  0  0
 25 41  1  0  0  0  0
M  END
> <s_m_source_file>
AV-unprocessed.smi

> <i_m_source_file_index>
12

> <i_lp_mmshare_version>
43012

> <i_f3d_flags>
0

> <s_epik_input>
W0NIM11jKFtjSF0xKWMoPU8pbmMobjEyKU9bQ0BIXTNbQ0BASF0yT1tDQEBIXShbQ0BASF0zW09IXSlbQ0gyXU9DKD1PKWM0W2NIXVtjSF1bY0hdW2NIXVtjSF00

> <s_epik_cmdline>
J2VwaWtfcHl0aG9uJywgJy1waCcsICc3LjAnLCAnLXRuJywgJzgnLCAnLW1hJywgJzIwMCcsICctbWV0YWxfYmluZGluZycsICctaW1hZScsICc8aW5maWxlLm1hZT4nLCAnLW9tYWUnLCAnPG91dGZpbGUubWFlPic=

> <r_lp_tautomer_probability>
0.933681

> <r_epik_Ionization_Penalty>
0.00399549

> <r_epik_Ionization_Penalty_Charging>
3.09373e-09

> <r_epik_Ionization_Penalty_Neutral>
0.00399549

> <r_epik_State_Penalty>
0.00284953

> <r_epik_Charging_Adjusted_Penalty>
0.00284953

> <i_epik_Tot_Q>
0

> <i_epik_Tot_abs_Q>
0

> <r_epik_Metal_State_Penalty>
-0

> <b_epik_Metal_Only>
0

> <s_epik_Chemistry_Notes>
This compound has an ester and may undergo hydrolysis at high or low pH. This compound contains an acetal/aminal-like group ( X-CH(R)-Y where X, Y are N, S, or O) that may be acid/base labile, releasing an aldehyde.

> <s_lp_Force_Field>
OPLS_2005

> <r_lp_Energy>
52.4355

> <b_lp_Chiralities_Consistent>
1

> <s_lp_Variant>
AV-unprocessed.smi:12-4

> <Gold.Version>
5.8.1

> <Gold.Id.Protein>
6NUR|6NUR_protein|mol2

> <Gold.PLP.Fitness>
46.1711

> <Gold.PLP.PLP>
-45.8959

> <Gold.PLP.part.hbond>
-1.0000

> <Gold.PLP.part.metal>
0.0000

> <Gold.PLP.part.buried>
-5.9308

> <Gold.PLP.part.nonpolar>
-38.6982

> <Gold.PLP.part.repulsive>
0.1091

> <Gold.PLP.ligand.clash>
0.0000

> <Gold.PLP.ligand.torsion>
1.2808

> <Gold.PLP.Chemscore.Hbond>
0.9440

> <Gold.PLP.Chemscore.CHOScore>
0.0000

> <Gold.PLP.Chemscore.Metal>
0.0000

> <Gold.Chemscore.Hbonds>
donor molecule, donor type, donor heavy atom, donor atom, acceptor molecule, acceptor atom, score
      P1  H  7997  8010       L1    17  0.90

> <Gold.PLP.Chemscore.Internal.Correction>
0.0048

> <Gold.Rescore>
     Score         DG    S(hbond)    S(metal)    S(lipo)     H(rot)  DE(clash)    DE(int)     intcor
     14.61     -15.87       0.95        0.00     109.25       2.18       0.05       1.21       ----

> <Gold.Chemscore.Fitness>
14.6064

> <Gold.Chemscore.DG>
-15.8663

> <Gold.Chemscore.ZeroCoef>
-5.4800

> <Gold.Chemscore.Hbond>
0.9534

> <Gold.Chemscore.Metal>
0.0000

> <Gold.Chemscore.Lipo>
109.2548

> <Gold.Chemscore.Internal_Hbond>
0.0000

> <Gold.Chemscore.DEClash>
0.0533

> <Gold.Chemscore.DEInternal>
1.2066

> <Gold.Chemscore.Rot>
2.1800

> <Gold.Chemscore.Internal.Correction>
   9.000000E+99

> <Gold.Chemscore.Hbonds>
donor molecule, donor type, donor heavy atom, donor atom, acceptor molecule, acceptor atom, score
      P1  H  7997  8010       L1    17  0.88

> <Gold.Chemscore.Hbond.Weighted>
-3.1842

> <Gold.Chemscore.Metal.Weighted>
-0.0000

> <Gold.Chemscore.Lipo.Weighted>
-12.7828

> <Gold.Chemscore.Internal_Hbond.Weighted>
0.0000

> <Gold.Chemscore.DEClash.Weighted>
0.0533

> <Gold.Chemscore.DEInternal.Weighted>
1.2066

> <Gold.Chemscore.Rot.Weighted>
5.5807

> <Gold.Chemscore.Internal.Correction.Weighted>
   9.000000E+99

> <Gold.Protein.RotatedTorsions>
[ 6907 6896 6895 6894 ] final  126.24 input  -60.11 | X-H torsion
[ 7974 7965 7964 7962 ] final  116.60 input  175.53 | X-H torsion
[ 8008 7997 7996 7995 ] final   20.61 input   59.86 | X-H torsion
[ 10167 10162 10161 10158 ] final   23.34 input  -65.29 | X-H torsion
[ 10718 10713 10712 10709 ] final -171.28 input   66.30 | X-H torsion
[ 10763 10752 10751 10750 ] final  162.83 input  -60.55 | X-H torsion
[ 11005 11000 10999 10996 ] final   54.80 input  -57.11 | X-H torsion

> <Gold.Protein.ActiveResidues>
 VAL166  LYS551  ARG553  GLY616  TRP617  ASP618  TYR619  PRO620  LYS621  CYS622 
 ASP623  PHE694  ASN695  SER759  ASP760  ASP761  ALA762  ILE779  LEU786  VAL792 
 PHE793  MET794  SER795  GLU796  ALA797  LYS798  CYS799  TRP800  GLU811  SER814 

> <Gold.Protein.RotatedAtoms>
  152.3921  133.6694  159.6245 H   0  0  0  0  0  0  0  0  0  0  0  0  # atno 6907 bound_to 6896
  150.7827  133.8937  159.3329 H   0  0  0  0  0  0  0  0  0  0  0  0  # atno 6908 bound_to 6896
  151.6721  135.0976  160.0251 H   0  0  0  0  0  0  0  0  0  0  0  0  # atno 6909 bound_to 6896
  145.1776  139.3067  143.4435 H   0  0  0  0  0  0  0  0  0  0  0  0  # atno 7974 bound_to 7965
  154.9383  140.3049  155.5133 H   0  0  0  0  0  0  0  0  0  0  0  0  # atno 8008 bound_to 7997
  156.2998  140.2341  156.4386 H   0  0  0  0  0  0  0  0  0  0  0  0  # atno 8009 bound_to 7997
  154.8170  140.0425  157.1372 H   0  0  0  0  0  0  0  0  0  0  0  0  # atno 8010 bound_to 7997
  140.5277  143.9895  150.6449 H   0  0  0  0  0  0  0  0  0  0  0  0  # atno 10167 bound_to 10162
  156.7386  130.9333  151.3109 H   0  0  0  0  0  0  0  0  0  0  0  0  # atno 10718 bound_to 10713
  154.2843  135.2762  155.2683 H   0  0  0  0  0  0  0  0  0  0  0  0  # atno 10763 bound_to 10752
  154.5190  135.5761  153.6669 H   0  0  0  0  0  0  0  0  0  0  0  0  # atno 10764 bound_to 10752
  152.9924  135.6199  154.3005 H   0  0  0  0  0  0  0  0  0  0  0  0  # atno 10765 bound_to 10752
  140.0657  134.5539  155.9101 H   0  0  0  0  0  0  0  0  0  0  0  0  # atno 11005 bound_to 11000
  146.3458  140.1944  142.8589 LP  0  0  0  0  0  0  0  0  0  0  0  0  # atno 17320 bound_to 7965
  145.0169  140.8761  143.5190 LP  0  0  0  0  0  0  0  0  0  0  0  0  # atno 17321 bound_to 7965
  140.3262  143.3106  152.0734 LP  0  0  0  0  0  0  0  0  0  0  0  0  # atno 17342 bound_to 10162
  139.4943  144.6540  151.6612 LP  0  0  0  0  0  0  0  0  0  0  0  0  # atno 17343 bound_to 10162
  157.6828  130.9156  150.0311 LP  0  0  0  0  0  0  0  0  0  0  0  0  # atno 17370 bound_to 10713
  156.1480  130.3642  149.9481 LP  0  0  0  0  0  0  0  0  0  0  0  0  # atno 17371 bound_to 10713
  141.1992  133.6605  156.5830 LP  0  0  0  0  0  0  0  0  0  0  0  0  # atno 17394 bound_to 11000
  140.3702  134.7612  157.4593 LP  0  0  0  0  0  0  0  0  0  0  0  0  # atno 17395 bound_to 11000

$$$$
