AV-unprocessed.smi:2797|AV-procd|sdf|10784|dock4
  -GOLD-   2272015223D 1   1.00000     0.00000
 Structure written by MMmdl.
 38 39  0  0  0  0  0  0  0  0  2 V2000
  149.6784  141.0247  154.4046 C   0  0  0  0  0  0  0  0  0  0  0  0
  148.7446  141.9769  153.9091 O   0  0  0  0  0  0  0  0  0  0  0  0
  147.4167  141.5134  153.6389 C   0  0  0  0  0  0  0  0  0  0  0  0
  147.3858  140.5717  152.4275 C   0  0  0  0  0  0  0  0  0  0  0  0
  146.2206  139.6935  152.4737 N   0  0  0  0  0  0  0  0  0  0  0  0
  146.1721  138.4368  152.0108 C   0  0  0  0  0  0  0  0  0  0  0  0
  147.1071  137.8861  151.4309 O   0  0  0  0  0  0  0  0  0  0  0  0
  144.9737  137.8785  152.2506 N   0  0  0  0  0  0  0  0  0  0  0  0
  144.5276  136.5635  151.9380 C   0  0  0  0  0  0  0  0  0  0  0  0
  145.1631  135.7390  150.9750 C   0  0  0  0  0  0  0  0  0  0  0  0
  144.6686  134.4417  150.7391 C   0  0  0  0  0  0  0  0  0  0  0  0
  143.6057  133.9896  151.4359 N   0  3  0  0  0  0  0  0  0  0  0  0
  142.9733  134.7271  152.3751 C   0  0  0  0  0  0  0  0  0  0  0  0
  141.7959  134.0954  153.0921 C   0  0  0  0  0  0  0  0  0  0  0  0
  143.4235  136.0390  152.6557 C   0  0  0  0  0  0  0  0  0  0  0  0
  142.6247  136.9910  153.8617 Cl  0  0  0  0  0  0  0  0  0  0  0  0
  146.8568  140.9861  154.9743 C   0  0  0  0  0  0  0  0  0  0  0  0
  146.2989  142.3816  155.2594 C   0  0  0  0  0  0  0  0  0  0  0  0
  146.3650  142.6394  153.7534 C   0  0  0  0  0  0  0  0  0  0  0  0
  150.6169  141.5346  154.6212 H   0  0  0  0  0  0  0  0  0  0  0  0
  149.8985  140.2451  153.6773 H   0  0  0  0  0  0  0  0  0  0  0  0
  149.3481  140.5536  155.3285 H   0  0  0  0  0  0  0  0  0  0  0  0
  147.3074  141.1551  151.5098 H   0  0  0  0  0  0  0  0  0  0  0  0
  148.3128  140.0073  152.3264 H   0  0  0  0  0  0  0  0  0  0  0  0
  145.3985  140.0641  152.9273 H   0  0  0  0  0  0  0  0  0  0  0  0
  144.2756  138.4867  152.6534 H   0  0  0  0  0  0  0  0  0  0  0  0
  146.0285  136.0700  150.4218 H   0  0  0  0  0  0  0  0  0  0  0  0
  145.0941  133.7540  150.0226 H   0  0  0  0  0  0  0  0  0  0  0  0
  140.8932  134.6855  152.9320 H   0  0  0  0  0  0  0  0  0  0  0  0
  141.9884  134.0432  154.1641 H   0  0  0  0  0  0  0  0  0  0  0  0
  141.6059  133.0831  152.7332 H   0  0  0  0  0  0  0  0  0  0  0  0
  146.0683  140.2438  154.8390 H   0  0  0  0  0  0  0  0  0  0  0  0
  147.6077  140.6404  155.6859 H   0  0  0  0  0  0  0  0  0  0  0  0
  145.2944  142.3964  155.6828 H   0  0  0  0  0  0  0  0  0  0  0  0
  146.9904  143.0064  155.8270 H   0  0  0  0  0  0  0  0  0  0  0  0
  146.6864  143.6440  153.4841 H   0  0  0  0  0  0  0  0  0  0  0  0
  145.4284  142.3875  153.2529 H   0  0  0  0  0  0  0  0  0  0  0  0
  143.2672  133.0453  151.2490 H   0  0  0  0  0  0  0  0  0  0  0  0
  1  2  1  0  0  0  0
  1 20  1  0  0  0  0
  1 21  1  0  0  0  0
  1 22  1  0  0  0  0
  2  3  1  0  0  0  0
  3 19  1  0  0  0  0
  3  4  1  0  0  0  0
  3 17  1  0  0  0  0
  4  5  1  0  0  0  0
  4 23  1  0  0  0  0
  4 24  1  0  0  0  0
  5  6  1  0  0  0  0
  5 25  1  0  0  0  0
  6  7  2  0  0  0  0
  6  8  1  0  0  0  0
  8  9  1  0  0  0  0
  8 26  1  0  0  0  0
  9 15  1  0  0  0  0
  9 10  2  0  0  0  0
 10 11  1  0  0  0  0
 10 27  1  0  0  0  0
 11 12  2  0  0  0  0
 11 28  1  0  0  0  0
 12 13  1  0  0  0  0
 12 38  1  0  0  0  0
 13 14  1  0  0  0  0
 13 15  2  0  0  0  0
 14 29  1  0  0  0  0
 14 30  1  0  0  0  0
 14 31  1  0  0  0  0
 15 16  1  0  0  0  0
 17 18  1  0  0  0  0
 17 32  1  0  0  0  0
 17 33  1  0  0  0  0
 18 19  1  0  0  0  0
 18 34  1  0  0  0  0
 18 35  1  0  0  0  0
 19 36  1  0  0  0  0
 19 37  1  0  0  0  0
M  CHG  1  12   1
M  END
> <s_m_source_file>
AV-unprocessed.smi

> <i_m_source_file_index>
2797

> <i_lp_mmshare_version>
43012

> <i_f3d_flags>
0

> <s_epik_input>
W0NIMl0xW0NIMl1bQ0gyXUMxKE9bQ0gzXSlbQ0gyXVtOSF1DKD1PKVtOSF1jMltjSF1bY0hdbmMoW0NIM10pYzJDbA==

> <s_epik_cmdline>
J2VwaWtfcHl0aG9uJywgJy1waCcsICc3LjAnLCAnLXRuJywgJzgnLCAnLW1hJywgJzIwMCcsICctbWV0YWxfYmluZGluZycsICctaW1hZScsICc8aW5maWxlLm1hZT4nLCAnLW9tYWUnLCAnPG91dGZpbGUubWFlPic=

> <r_epik_Ionization_Penalty>
2.42651

> <r_epik_Ionization_Penalty_Charging>
2.42649

> <r_epik_Ionization_Penalty_Neutral>
1.93283e-05

> <r_epik_State_Penalty>
2.58622

> <r_epik_Charging_Adjusted_Penalty>
5.01271

> <i_epik_Tot_Q>
1

> <i_epik_Tot_abs_Q>
1

> <r_epik_Metal_State_Penalty>
2.59605

> <b_epik_Metal_Only>
0

> <s_lp_Force_Field>
OPLS_2005

> <r_lp_Energy>
25.6694

> <b_lp_Chiralities_Consistent>
1

> <s_lp_Variant>
AV-unprocessed.smi:2797-2

> <Gold.Version>
5.8.1

> <Gold.Id.Protein>
6NUR|6NUR_protein|mol2

> <Gold.PLP.Fitness>
41.1059

> <Gold.PLP.PLP>
-33.2632

> <Gold.PLP.part.hbond>
-5.3530

> <Gold.PLP.part.metal>
0.0000

> <Gold.PLP.part.buried>
-1.2041

> <Gold.PLP.part.nonpolar>
-31.3503

> <Gold.PLP.part.repulsive>
5.2365

> <Gold.PLP.ligand.clash>
0.0000

> <Gold.PLP.ligand.torsion>
0.7519

> <Gold.PLP.Chemscore.Hbond>
3.0189

> <Gold.PLP.Chemscore.CHOScore>
0.0000

> <Gold.PLP.Chemscore.Metal>
0.0000

> <Gold.Chemscore.Hbonds>
donor molecule, donor type, donor heavy atom, donor atom, acceptor molecule, acceptor atom, score
      L1  H     5    25       P1 10175  0.75
      L1  H     8    26       P1 10175  0.70
      P1  H  7954  7966       L1     7  1.00
      P1  H  8011  8017       L1     2  0.34

> <Gold.PLP.Chemscore.Internal.Correction>
0.2897

> <Gold.Rescore>
     Score         DG    S(hbond)    S(metal)    S(lipo)     H(rot)  DE(clash)    DE(int)     intcor
     13.59     -20.26       2.73        0.00      79.83       1.44       4.65       2.03       ----

> <Gold.Chemscore.Fitness>
13.5888

> <Gold.Chemscore.DG>
-20.2637

> <Gold.Chemscore.ZeroCoef>
-5.4800

> <Gold.Chemscore.Hbond>
2.7317

> <Gold.Chemscore.Metal>
0.0000

> <Gold.Chemscore.Lipo>
79.8272

> <Gold.Chemscore.Internal_Hbond>
0.0000

> <Gold.Chemscore.DEClash>
4.6493

> <Gold.Chemscore.DEInternal>
2.0256

> <Gold.Chemscore.Rot>
1.4375

> <Gold.Chemscore.Internal.Correction>
   9.000000E+99

> <Gold.Chemscore.Hbonds>
donor molecule, donor type, donor heavy atom, donor atom, acceptor molecule, acceptor atom, score
      L1  H     5    25       P1 10175  0.74
      L1  H     8    26       P1 10175  0.67
      P1  H  7954  7966       L1     7  1.00
      P1  H  8011  8017       L1     2  0.04

> <Gold.Chemscore.Hbond.Weighted>
-9.1239

> <Gold.Chemscore.Metal.Weighted>
-0.0000

> <Gold.Chemscore.Lipo.Weighted>
-9.3398

> <Gold.Chemscore.Internal_Hbond.Weighted>
0.0000

> <Gold.Chemscore.DEClash.Weighted>
4.6493

> <Gold.Chemscore.DEInternal.Weighted>
2.0256

> <Gold.Chemscore.Rot.Weighted>
3.6800

> <Gold.Chemscore.Internal.Correction.Weighted>
   9.000000E+99

> <Gold.Protein.RotatedTorsions>
[ 6907 6896 6895 6894 ] final -108.78 input  -60.11 | X-H torsion
[ 7974 7965 7964 7962 ] final   -4.18 input  175.53 | X-H torsion
[ 8008 7997 7996 7995 ] final  141.67 input   59.86 | X-H torsion
[ 10167 10162 10161 10158 ] final -109.65 input  -65.29 | X-H torsion
[ 10718 10713 10712 10709 ] final   39.78 input   66.30 | X-H torsion
[ 10763 10752 10751 10750 ] final  175.33 input  -60.55 | X-H torsion
[ 11005 11000 10999 10996 ] final   42.67 input  -57.11 | X-H torsion

> <Gold.Protein.ActiveResidues>
 VAL166  LYS551  ARG553  GLY616  TRP617  ASP618  TYR619  PRO620  LYS621  CYS622 
 ASP623  PHE694  ASN695  SER759  ASP760  ASP761  ALA762  ILE779  LEU786  VAL792 
 PHE793  MET794  SER795  GLU796  ALA797  LYS798  CYS799  TRP800  GLU811  SER814 

> <Gold.Protein.RotatedAtoms>
  150.7522  133.9626  159.3520 H   0  0  0  0  0  0  0  0  0  0  0  0  # atno 6907 bound_to 6896
  151.7553  135.0821  160.0346 H   0  0  0  0  0  0  0  0  0  0  0  0  # atno 6908 bound_to 6896
  152.3439  133.6062  159.5932 H   0  0  0  0  0  0  0  0  0  0  0  0  # atno 6909 bound_to 6896
  146.2377  140.1833  142.8332 H   0  0  0  0  0  0  0  0  0  0  0  0  # atno 7974 bound_to 7965
  156.2962  140.2309  156.4602 H   0  0  0  0  0  0  0  0  0  0  0  0  # atno 8008 bound_to 7997
  154.8025  140.0447  157.1304 H   0  0  0  0  0  0  0  0  0  0  0  0  # atno 8009 bound_to 7997
  154.9517  140.3043  155.5075 H   0  0  0  0  0  0  0  0  0  0  0  0  # atno 8010 bound_to 7997
  140.1530  143.4183  152.1481 H   0  0  0  0  0  0  0  0  0  0  0  0  # atno 10167 bound_to 10162
  157.3746  130.7720  149.7145 H   0  0  0  0  0  0  0  0  0  0  0  0  # atno 10718 bound_to 10713
  154.4661  135.2769  155.1677 H   0  0  0  0  0  0  0  0  0  0  0  0  # atno 10763 bound_to 10752
  154.3445  135.6163  153.5616 H   0  0  0  0  0  0  0  0  0  0  0  0  # atno 10764 bound_to 10752
  152.9859  135.5796  154.5032 H   0  0  0  0  0  0  0  0  0  0  0  0  # atno 10765 bound_to 10752
  140.1717  134.4213  155.8253 H   0  0  0  0  0  0  0  0  0  0  0  0  # atno 11005 bound_to 11000
  144.9917  140.8553  143.5335 LP  0  0  0  0  0  0  0  0  0  0  0  0  # atno 17320 bound_to 7965
  145.1839  139.2337  143.5278 LP  0  0  0  0  0  0  0  0  0  0  0  0  # atno 17321 bound_to 7965
  139.5417  144.7262  151.4713 LP  0  0  0  0  0  0  0  0  0  0  0  0  # atno 17342 bound_to 10162
  140.6691  143.8334  150.6977 LP  0  0  0  0  0  0  0  0  0  0  0  0  # atno 17343 bound_to 10162
  155.9762  130.4078  150.3792 LP  0  0  0  0  0  0  0  0  0  0  0  0  # atno 17370 bound_to 10713
  157.1888  131.0410  151.2711 LP  0  0  0  0  0  0  0  0  0  0  0  0  # atno 17371 bound_to 10713
  141.2218  133.6959  156.7776 LP  0  0  0  0  0  0  0  0  0  0  0  0  # atno 17394 bound_to 11000
  140.2369  134.8643  157.3534 LP  0  0  0  0  0  0  0  0  0  0  0  0  # atno 17395 bound_to 11000

$$$$
