AV-unprocessed.smi:101|AV-procd|sdf|934|dock3
  -GOLD-   2262017453D 1   1.00000     0.00000
 Structure written by MMmdl.
 43 45  0  0  0  0  0  0  0  0  2 V2000
  143.8525  145.0380  154.2103 C   0  0  0  0  0  0  0  0  0  0  0  0
  144.6475  143.8646  154.7559 C   0  0  0  0  0  0  0  0  0  0  0  0
  145.7095  143.3467  154.1007 C   0  0  0  0  0  0  0  0  0  0  0  0
  146.4315  142.2775  154.6010 N   0  0  0  0  0  0  0  0  0  0  0  0
  147.6108  141.7324  153.8219 C   0  0  1  0  0  0  0  0  0  0  0  0
  148.7019  141.6703  154.6887 O   0  0  0  0  0  0  0  0  0  0  0  0
  149.3954  140.4459  154.5036 C   0  0  1  0  0  0  0  0  0  0  0  0
  150.1168  140.0634  155.8009 C   0  0  0  0  0  0  0  0  0  0  0  0
  150.4508  141.2417  156.5156 O   0  0  0  0  0  0  0  0  0  0  0  0
  151.1601  141.1586  157.6579 C   0  0  0  0  0  0  0  0  0  0  0  0
  151.5305  140.0929  158.1550 O   0  0  0  0  0  0  0  0  0  0  0  0
  151.4500  142.4919  158.2599 C   0  0  0  0  0  0  0  0  0  0  0  0
  152.0343  142.5590  159.5466 C   0  0  0  0  0  0  0  0  0  0  0  0
  152.3179  143.8036  160.1415 C   0  0  0  0  0  0  0  0  0  0  0  0
  152.0210  144.9967  159.4572 C   0  0  0  0  0  0  0  0  0  0  0  0
  151.4396  144.9437  158.1768 C   0  0  0  0  0  0  0  0  0  0  0  0
  151.1550  143.6999  157.5802 C   0  0  0  0  0  0  0  0  0  0  0  0
  148.2949  139.4598  154.1076 C   0  0  2  0  0  0  0  0  0  0  0  0
  148.8358  138.3971  153.3480 O   0  0  0  0  0  0  0  0  0  0  0  0
  147.3606  140.3139  153.2606 C   0  0  1  0  0  0  0  0  0  0  0  0
  146.0234  139.8611  153.3735 O   0  0  0  0  0  0  0  0  0  0  0  0
  146.0686  141.7061  155.8490 C   0  0  0  0  0  0  0  0  0  0  0  0
  146.7465  140.7753  156.2840 O   0  0  0  0  0  0  0  0  0  0  0  0
  144.9944  142.2190  156.5145 N   0  5  0  0  0  0  0  0  0  0  0  0
  144.2597  143.2657  156.0387 C   0  0  0  0  0  0  0  0  0  0  0  0
  143.2917  143.7168  156.6501 O   0  0  0  0  0  0  0  0  0  0  0  0
  144.2468  145.3717  153.2502 H   0  0  0  0  0  0  0  0  0  0  0  0
  143.8917  145.8793  154.9027 H   0  0  0  0  0  0  0  0  0  0  0  0
  142.8087  144.7574  154.0670 H   0  0  0  0  0  0  0  0  0  0  0  0
  146.0062  143.7838  153.1585 H   0  0  0  0  0  0  0  0  0  0  0  0
  147.8462  142.4573  153.0423 H   0  0  0  0  0  0  0  0  0  0  0  0
  150.1036  140.5694  153.6817 H   0  0  0  0  0  0  0  0  0  0  0  0
  149.4875  139.4087  156.4057 H   0  0  0  0  0  0  0  0  0  0  0  0
  151.0338  139.5196  155.5710 H   0  0  0  0  0  0  0  0  0  0  0  0
  152.2711  141.6565  160.0918 H   0  0  0  0  0  0  0  0  0  0  0  0
  152.7636  143.8423  161.1246 H   0  0  0  0  0  0  0  0  0  0  0  0
  152.2383  145.9511  159.9138 H   0  0  0  0  0  0  0  0  0  0  0  0
  151.2100  145.8587  157.6509 H   0  0  0  0  0  0  0  0  0  0  0  0
  150.7076  143.6950  156.5969 H   0  0  0  0  0  0  0  0  0  0  0  0
  147.7847  139.0826  154.9958 H   0  0  0  0  0  0  0  0  0  0  0  0
  149.1375  138.7426  152.5218 H   0  0  0  0  0  0  0  0  0  0  0  0
  147.6669  140.3117  152.2133 H   0  0  0  0  0  0  0  0  0  0  0  0
  145.4977  140.3211  152.7370 H   0  0  0  0  0  0  0  0  0  0  0  0
  1  2  1  0  0  0  0
  1 27  1  0  0  0  0
  1 28  1  0  0  0  0
  1 29  1  0  0  0  0
  2 25  1  0  0  0  0
  2  3  2  0  0  0  0
  3  4  1  0  0  0  0
  3 30  1  0  0  0  0
  4  5  1  0  0  0  0
  4 22  1  0  0  0  0
  5 20  1  0  0  0  0
  5  6  1  0  0  0  0
  5 31  1  0  0  0  0
  6  7  1  0  0  0  0
  7  8  1  0  0  0  0
  7 18  1  0  0  0  0
  7 32  1  0  0  0  0
  8  9  1  0  0  0  0
  8 33  1  0  0  0  0
  8 34  1  0  0  0  0
  9 10  1  0  0  0  0
 10 11  2  0  0  0  0
 10 12  1  0  0  0  0
 12 17  1  0  0  0  0
 12 13  2  0  0  0  0
 13 14  1  0  0  0  0
 13 35  1  0  0  0  0
 14 15  2  0  0  0  0
 14 36  1  0  0  0  0
 15 16  1  0  0  0  0
 15 37  1  0  0  0  0
 16 17  2  0  0  0  0
 16 38  1  0  0  0  0
 17 39  1  0  0  0  0
 18 19  1  0  0  0  0
 18 20  1  0  0  0  0
 18 40  1  0  0  0  0
 19 41  1  0  0  0  0
 20 21  1  0  0  0  0
 20 42  1  0  0  0  0
 21 43  1  0  0  0  0
 22 23  2  0  0  0  0
 22 24  1  0  0  0  0
 24 25  1  0  0  0  0
 25 26  2  0  0  0  0
M  CHG  1  24  -1
M  END
> <s_m_source_file>
AV-unprocessed.smi

> <i_m_source_file_index>
101

> <i_lp_mmshare_version>
43012

> <i_f3d_flags>
0

> <s_epik_input>
Tz1jMVtuSF1jKD1PKW4oW2NIXWMxW0NIM10pW0NAQEhdMk9bQ0BIXShbQ0BASF0oW09IXSlbQ0BIXTJbT0hdKVtDSDJdT0MoPU8pYzNbY0hdW2NIXVtjSF1bY0hdW2NIXTM=

> <s_epik_cmdline>
J2VwaWtfcHl0aG9uJywgJy1waCcsICc3LjAnLCAnLXRuJywgJzgnLCAnLW1hJywgJzIwMCcsICctbWV0YWxfYmluZGluZycsICctaW1hZScsICc8aW5maWxlLm1hZT4nLCAnLW9tYWUnLCAnPG91dGZpbGUubWFlPic=

> <r_lp_tautomer_probability>
0.999537

> <r_epik_Ionization_Penalty>
3.21006

> <r_epik_Ionization_Penalty_Charging>
5.75142e-08

> <r_epik_Ionization_Penalty_Neutral>
3.21006

> <r_epik_State_Penalty>
3.20925

> <r_epik_Charging_Adjusted_Penalty>
3.20925

> <i_epik_Tot_Q>
-1

> <i_epik_Tot_abs_Q>
1

> <r_epik_Metal_State_Penalty>
0.119957

> <b_epik_Metal_Only>
1

> <s_epik_Chemistry_Notes>
This compound has an ester and may undergo hydrolysis at high or low pH. This compound contains an acetal/aminal-like group ( X-CH(R)-Y where X, Y are N, S, or O) that may be acid/base labile, releasing an aldehyde.

> <s_lp_Force_Field>
OPLS_2005

> <r_lp_Energy>
44.7852

> <b_lp_Chiralities_Consistent>
1

> <s_lp_Variant>
AV-unprocessed.smi:101-22

> <Gold.Version>
5.8.1

> <Gold.Id.Protein>
6NUR|6NUR_protein|mol2

> <Gold.PLP.Fitness>
56.0395

> <Gold.PLP.PLP>
-52.1551

> <Gold.PLP.part.hbond>
-3.1325

> <Gold.PLP.part.metal>
0.0000

> <Gold.PLP.part.buried>
-6.3469

> <Gold.PLP.part.nonpolar>
-42.7824

> <Gold.PLP.part.repulsive>
0.3111

> <Gold.PLP.ligand.clash>
0.0000

> <Gold.PLP.ligand.torsion>
0.6156

> <Gold.PLP.Chemscore.Hbond>
1.6560

> <Gold.PLP.Chemscore.CHOScore>
0.0000

> <Gold.PLP.Chemscore.Metal>
0.0000

> <Gold.Chemscore.Hbonds>
donor molecule, donor type, donor heavy atom, donor atom, acceptor molecule, acceptor atom, score
      L1  H    19    41       P1  7957  1.00
      L1  H    21    43       P1 10175  0.69

> <Gold.PLP.Chemscore.Internal.Correction>
0.1475

> <Gold.Rescore>
     Score         DG    S(hbond)    S(metal)    S(lipo)     H(rot)  DE(clash)    DE(int)     intcor
     13.04     -16.54       1.80        0.00     114.52       3.27       0.21       3.29       ----

> <Gold.Chemscore.Fitness>
13.0409

> <Gold.Chemscore.DG>
-16.5368

> <Gold.Chemscore.ZeroCoef>
-5.4800

> <Gold.Chemscore.Hbond>
1.8019

> <Gold.Chemscore.Metal>
0.0000

> <Gold.Chemscore.Lipo>
114.5159

> <Gold.Chemscore.Internal_Hbond>
0.0000

> <Gold.Chemscore.DEClash>
0.2052

> <Gold.Chemscore.DEInternal>
3.2907

> <Gold.Chemscore.Rot>
3.2656

> <Gold.Chemscore.Internal.Correction>
   9.000000E+99

> <Gold.Chemscore.Hbonds>
donor molecule, donor type, donor heavy atom, donor atom, acceptor molecule, acceptor atom, score
      L1  H    19    41       P1  7957  0.90
      L1  H    21    43       P1 10175  0.60

> <Gold.Chemscore.Hbond.Weighted>
-6.0182

> <Gold.Chemscore.Metal.Weighted>
-0.0000

> <Gold.Chemscore.Lipo.Weighted>
-13.3984

> <Gold.Chemscore.Internal_Hbond.Weighted>
0.0000

> <Gold.Chemscore.DEClash.Weighted>
0.2052

> <Gold.Chemscore.DEInternal.Weighted>
3.2907

> <Gold.Chemscore.Rot.Weighted>
8.3598

> <Gold.Chemscore.Internal.Correction.Weighted>
   9.000000E+99

> <Gold.Protein.RotatedTorsions>
[ 6907 6896 6895 6894 ] final -175.44 input  -60.11 | X-H torsion
[ 7974 7965 7964 7962 ] final  -18.27 input  175.53 | X-H torsion
[ 8008 7997 7996 7995 ] final -178.50 input   59.86 | X-H torsion
[ 10167 10162 10161 10158 ] final   77.67 input  -65.29 | X-H torsion
[ 10718 10713 10712 10709 ] final  -74.91 input   66.30 | X-H torsion
[ 10763 10752 10751 10750 ] final  -74.05 input  -60.55 | X-H torsion
[ 11005 11000 10999 10996 ] final   96.49 input  -57.11 | X-H torsion

> <Gold.Protein.ActiveResidues>
 VAL166  LYS551  ARG553  GLY616  TRP617  ASP618  TYR619  PRO620  LYS621  CYS622 
 ASP623  PHE694  ASN695  SER759  ASP760  ASP761  ALA762  ILE779  LEU786  VAL792 
 PHE793  MET794  SER795  GLU796  ALA797  LYS798  CYS799  TRP800  GLU811  SER814 

> <Gold.Protein.RotatedAtoms>
  151.5886  133.3369  159.3022 H   0  0  0  0  0  0  0  0  0  0  0  0  # atno 6907 bound_to 6896
  150.8273  134.7513  159.6835 H   0  0  0  0  0  0  0  0  0  0  0  0  # atno 6908 bound_to 6896
  152.4361  134.5690  159.9967 H   0  0  0  0  0  0  0  0  0  0  0  0  # atno 6909 bound_to 6896
  146.1900  140.3897  142.8461 H   0  0  0  0  0  0  0  0  0  0  0  0  # atno 7974 bound_to 7965
  156.0196  140.1258  157.0371 H   0  0  0  0  0  0  0  0  0  0  0  0  # atno 8008 bound_to 7997
  154.4306  140.1071  156.6015 H   0  0  0  0  0  0  0  0  0  0  0  0  # atno 8009 bound_to 7997
  155.5964  140.3470  155.4583 H   0  0  0  0  0  0  0  0  0  0  0  0  # atno 8010 bound_to 7997
  139.9791  144.5839  150.7916 H   0  0  0  0  0  0  0  0  0  0  0  0  # atno 10167 bound_to 10162
  156.0226  130.4428  150.2963 H   0  0  0  0  0  0  0  0  0  0  0  0  # atno 10718 bound_to 10713
  154.4679  135.5877  153.6301 H   0  0  0  0  0  0  0  0  0  0  0  0  # atno 10763 bound_to 10752
  152.9831  135.6059  154.3404 H   0  0  0  0  0  0  0  0  0  0  0  0  # atno 10764 bound_to 10752
  154.3283  135.2843  155.2464 H   0  0  0  0  0  0  0  0  0  0  0  0  # atno 10765 bound_to 10752
  139.8781  134.8953  156.4167 H   0  0  0  0  0  0  0  0  0  0  0  0  # atno 11005 bound_to 11000
  144.8469  140.6943  143.6193 LP  0  0  0  0  0  0  0  0  0  0  0  0  # atno 17320 bound_to 7965
  145.3820  139.1635  143.4275 LP  0  0  0  0  0  0  0  0  0  0  0  0  # atno 17321 bound_to 7965
  140.7495  143.2940  151.3254 LP  0  0  0  0  0  0  0  0  0  0  0  0  # atno 17342 bound_to 10162
  139.6423  144.0516  152.2564 LP  0  0  0  0  0  0  0  0  0  0  0  0  # atno 17343 bound_to 10162
  157.1066  131.0210  151.3064 LP  0  0  0  0  0  0  0  0  0  0  0  0  # atno 17370 bound_to 10713
  157.4737  130.7724  149.7348 LP  0  0  0  0  0  0  0  0  0  0  0  0  # atno 17371 bound_to 10713
  140.9163  133.7676  155.9852 LP  0  0  0  0  0  0  0  0  0  0  0  0  # atno 17394 bound_to 11000
  140.8490  134.2976  157.5283 LP  0  0  0  0  0  0  0  0  0  0  0  0  # atno 17395 bound_to 11000

$$$$
