AV-unprocessed.smi:1239|AV-procd|sdf|5193|dock2
  -GOLD-   22720 4273D 1   1.00000     0.00000
 Structure written by MMmdl.
 48 49  0  0  0  0  0  0  0  0  4 V2000
  150.7896  134.1316  155.8455 C   0  0  0  0  0  0  0  0  0  0  0  0
  150.3388  135.0835  154.7087 C   0  0  2  0  0  0  0  0  0  0  0  0
  150.3989  136.5924  155.0774 C   0  0  0  0  0  0  0  0  0  0  0  0
  151.7746  137.0921  155.0498 N   0  5  0  0  0  0  0  0  0  0  0  0
  152.2313  138.1613  155.7557 C   0  0  0  0  0  0  0  0  0  0  0  0
  153.3574  138.3162  156.2414 O   0  0  0  0  0  0  0  0  0  0  0  0
  151.2794  139.0961  155.9253 N   0  0  0  0  0  0  0  0  0  0  0  0
  151.3628  140.3634  156.5624 C   0  0  0  0  0  0  0  0  0  0  0  0
  152.1206  140.4528  157.7477 C   0  0  0  0  0  0  0  0  0  0  0  0
  152.2134  141.6826  158.4307 C   0  0  0  0  0  0  0  0  0  0  0  0
  151.5354  142.8204  157.9280 C   0  0  0  0  0  0  0  0  0  0  0  0
  151.5768  144.0846  158.5552 N   0  0  0  0  0  0  0  0  0  0  0  0
  151.5776  145.2959  157.7426 C   0  0  0  0  0  0  0  0  0  0  0  0
  151.5262  144.1736  160.0086 C   0  0  0  0  0  0  0  0  0  0  0  0
  150.8085  142.6815  156.7924 N   0  3  0  0  0  0  0  0  0  0  0  0
  150.6935  141.5235  156.1070 C   0  0  0  0  0  0  0  0  0  0  0  0
  148.9930  134.7335  154.1566 N   0  3  0  0  0  0  0  0  0  0  0  0
  148.7980  133.2777  153.9432 C   0  0  0  0  0  0  0  0  0  0  0  0
  147.4754  133.0213  153.2007 C   0  0  0  0  0  0  0  0  0  0  0  0
  146.3937  133.5895  153.9291 O   0  0  0  0  0  0  0  0  0  0  0  0
  146.5289  134.9984  154.0735 C   0  0  0  0  0  0  0  0  0  0  0  0
  147.8127  135.3114  154.8582 C   0  0  0  0  0  0  0  0  0  0  0  0
  151.8310  134.2994  156.1263 H   0  0  0  0  0  0  0  0  0  0  0  0
  150.7204  133.0906  155.5298 H   0  0  0  0  0  0  0  0  0  0  0  0
  150.1898  134.2406  156.7507 H   0  0  0  0  0  0  0  0  0  0  0  0
  151.0493  134.9481  153.8918 H   0  0  0  0  0  0  0  0  0  0  0  0
  149.7589  137.1487  154.3904 H   0  0  0  0  0  0  0  0  0  0  0  0
  149.9490  136.7343  156.0599 H   0  0  0  0  0  0  0  0  0  0  0  0
  150.3645  138.8420  155.5822 H   0  0  0  0  0  0  0  0  0  0  0  0
  152.6340  139.5837  158.1332 H   0  0  0  0  0  0  0  0  0  0  0  0
  152.8040  141.7299  159.3332 H   0  0  0  0  0  0  0  0  0  0  0  0
  150.6744  145.3494  157.1335 H   0  0  0  0  0  0  0  0  0  0  0  0
  152.4442  145.3127  157.0809 H   0  0  0  0  0  0  0  0  0  0  0  0
  151.6158  146.1912  158.3638 H   0  0  0  0  0  0  0  0  0  0  0  0
  152.3811  143.6641  160.4541 H   0  0  0  0  0  0  0  0  0  0  0  0
  150.6111  143.7182  160.3886 H   0  0  0  0  0  0  0  0  0  0  0  0
  151.5466  145.2110  160.3434 H   0  0  0  0  0  0  0  0  0  0  0  0
  150.0595  141.5729  155.2346 H   0  0  0  0  0  0  0  0  0  0  0  0
  149.6223  132.8687  153.3577 H   0  0  0  0  0  0  0  0  0  0  0  0
  148.7973  132.7610  154.9039 H   0  0  0  0  0  0  0  0  0  0  0  0
  147.5082  133.4393  152.1934 H   0  0  0  0  0  0  0  0  0  0  0  0
  147.3060  131.9498  153.0946 H   0  0  0  0  0  0  0  0  0  0  0  0
  146.5420  135.4801  153.0944 H   0  0  0  0  0  0  0  0  0  0  0  0
  145.6594  135.3832  154.6067 H   0  0  0  0  0  0  0  0  0  0  0  0
  147.7279  134.8950  155.8627 H   0  0  0  0  0  0  0  0  0  0  0  0
  147.9178  136.3913  154.9657 H   0  0  0  0  0  0  0  0  0  0  0  0
  150.3131  143.4982  156.4349 H   0  0  0  0  0  0  0  0  0  0  0  0
  148.9899  135.1364  153.2301 H   0  0  0  0  0  0  0  0  0  0  0  0
  1  2  1  0  0  0  0
  1 23  1  0  0  0  0
  1 24  1  0  0  0  0
  1 25  1  0  0  0  0
  2  3  1  0  0  0  0
  2 17  1  0  0  0  0
  2 26  1  0  0  0  0
  3  4  1  0  0  0  0
  3 27  1  0  0  0  0
  3 28  1  0  0  0  0
  4  5  1  0  0  0  0
  5  6  2  0  0  0  0
  5  7  1  0  0  0  0
  7  8  1  0  0  0  0
  7 29  1  0  0  0  0
  8 16  1  0  0  0  0
  8  9  2  0  0  0  0
  9 10  1  0  0  0  0
  9 30  1  0  0  0  0
 10 11  2  0  0  0  0
 10 31  1  0  0  0  0
 11 12  1  0  0  0  0
 11 15  1  0  0  0  0
 12 13  1  0  0  0  0
 12 14  1  0  0  0  0
 13 32  1  0  0  0  0
 13 33  1  0  0  0  0
 13 34  1  0  0  0  0
 14 35  1  0  0  0  0
 14 36  1  0  0  0  0
 14 37  1  0  0  0  0
 15 16  2  0  0  0  0
 15 47  1  0  0  0  0
 16 38  1  0  0  0  0
 17 22  1  0  0  0  0
 17 18  1  0  0  0  0
 17 48  1  0  0  0  0
 18 19  1  0  0  0  0
 18 39  1  0  0  0  0
 18 40  1  0  0  0  0
 19 20  1  0  0  0  0
 19 41  1  0  0  0  0
 19 42  1  0  0  0  0
 20 21  1  0  0  0  0
 21 22  1  0  0  0  0
 21 43  1  0  0  0  0
 21 44  1  0  0  0  0
 22 45  1  0  0  0  0
 22 46  1  0  0  0  0
M  CHG  1   4  -1
M  CHG  1  15   1
M  CHG  1  17   1
M  END
> <s_m_source_file>
AV-unprocessed.smi

> <i_m_source_file_index>
1239

> <i_lp_mmshare_version>
43012

> <i_f3d_flags>
0

> <s_epik_input>
W0NIMl0xW0NIMl1PW0NIMl1bQ0gyXU4xW0NASF0oW0NIM10pW0NIMl1bTkhdQyg9TylbTkhdYzJbY0hdW2NIXWMoTihbQ0gzXSlbQ0gzXSluW2NIXTI=

> <s_epik_cmdline>
J2VwaWtfcHl0aG9uJywgJy1waCcsICc3LjAnLCAnLXRuJywgJzgnLCAnLW1hJywgJzIwMCcsICctbWV0YWxfYmluZGluZycsICctaW1hZScsICc8aW5maWxlLm1hZT4nLCAnLW9tYWUnLCAnPG91dGZpbGUubWFlPic=

> <r_lp_tautomer_probability>
0.999994

> <r_epik_Ionization_Penalty>
7.43905

> <r_epik_Ionization_Penalty_Charging>
7.43905

> <r_epik_Ionization_Penalty_Neutral>
3.43851e-06

> <r_epik_State_Penalty>
7.63789

> <r_epik_Charging_Adjusted_Penalty>
15.0769

> <i_epik_Tot_Q>
1

> <i_epik_Tot_abs_Q>
3

> <r_epik_Metal_State_Penalty>
3.83826

> <b_epik_Metal_Only>
1

> <s_lp_Force_Field>
OPLS_2005

> <r_lp_Energy>
24.2949

> <b_lp_Chiralities_Consistent>
1

> <s_lp_Variant>
AV-unprocessed.smi:1239-9

> <Gold.Version>
5.8.1

> <Gold.Id.Protein>
6NUR|6NUR_protein|mol2

> <Gold.PLP.Fitness>
53.6189

> <Gold.PLP.PLP>
-36.3269

> <Gold.PLP.part.hbond>
-4.0000

> <Gold.PLP.part.metal>
0.0000

> <Gold.PLP.part.buried>
-6.1498

> <Gold.PLP.part.nonpolar>
-27.1086

> <Gold.PLP.part.repulsive>
0.3251

> <Gold.PLP.ligand.clash>
0.0000

> <Gold.PLP.ligand.torsion>
1.7514

> <Gold.PLP.Chemscore.Hbond>
6.8480

> <Gold.PLP.Chemscore.CHOScore>
0.0000

> <Gold.PLP.Chemscore.Metal>
0.0000

> <Gold.Chemscore.Hbonds>
donor molecule, donor type, donor heavy atom, donor atom, acceptor molecule, acceptor atom, score
      L1  H    15    47       P1  8028  2.00
      L1  H    17    48       P1  7948  2.00
      P1  H  7997  8010       L1     6  0.84
      P1  H 10752 10764       L1     4  2.00

> <Gold.PLP.Chemscore.Internal.Correction>
0.2508

> <Gold.Rescore>
     Score         DG    S(hbond)    S(metal)    S(lipo)     H(rot)  DE(clash)    DE(int)     intcor
     17.89     -22.67       3.39        0.00      82.58       1.48       1.77       3.00       ----

> <Gold.Chemscore.Fitness>
17.8940

> <Gold.Chemscore.DG>
-22.6717

> <Gold.Chemscore.ZeroCoef>
-5.4800

> <Gold.Chemscore.Hbond>
3.3911

> <Gold.Chemscore.Metal>
0.0000

> <Gold.Chemscore.Lipo>
82.5796

> <Gold.Chemscore.Internal_Hbond>
0.0000

> <Gold.Chemscore.DEClash>
1.7747

> <Gold.Chemscore.DEInternal>
3.0031

> <Gold.Chemscore.Rot>
1.4830

> <Gold.Chemscore.Internal.Correction>
   9.000000E+99

> <Gold.Chemscore.Hbonds>
donor molecule, donor type, donor heavy atom, donor atom, acceptor molecule, acceptor atom, score
      L1  H    15    47       P1  8028  0.93
      L1  H    17    48       P1  7948  0.30
      P1  H  7997  8010       L1     6  0.78
      P1  H 10752 10764       L1     4  0.61

> <Gold.Chemscore.Hbond.Weighted>
-11.3263

> <Gold.Chemscore.Metal.Weighted>
-0.0000

> <Gold.Chemscore.Lipo.Weighted>
-9.6618

> <Gold.Chemscore.Internal_Hbond.Weighted>
0.0000

> <Gold.Chemscore.DEClash.Weighted>
1.7747

> <Gold.Chemscore.DEInternal.Weighted>
3.0031

> <Gold.Chemscore.Rot.Weighted>
3.7964

> <Gold.Chemscore.Internal.Correction.Weighted>
   9.000000E+99

> <Gold.Protein.RotatedTorsions>
[ 6907 6896 6895 6894 ] final   25.96 input  -60.11 | X-H torsion
[ 7974 7965 7964 7962 ] final -170.93 input  175.53 | X-H torsion
[ 8008 7997 7996 7995 ] final   72.01 input   59.86 | X-H torsion
[ 10167 10162 10161 10158 ] final  131.94 input  -65.29 | X-H torsion
[ 10718 10713 10712 10709 ] final  130.56 input   66.30 | X-H torsion
[ 10763 10752 10751 10750 ] final  -68.90 input  -60.55 | X-H torsion
[ 11005 11000 10999 10996 ] final -147.76 input  -57.11 | X-H torsion

> <Gold.Protein.ActiveResidues>
 VAL166  LYS551  ARG553  GLY616  TRP617  ASP618  TYR619  PRO620  LYS621  CYS622 
 ASP623  PHE694  ASN695  SER759  ASP760  ASP761  ALA762  ILE779  LEU786  VAL792 
 PHE793  MET794  SER795  GLU796  ALA797  LYS798  CYS799  TRP800  GLU811  SER814 

> <Gold.Protein.RotatedAtoms>
  151.9803  135.0032  160.0556 H   0  0  0  0  0  0  0  0  0  0  0  0  # atno 6907 bound_to 6896
  152.1702  133.4634  159.4913 H   0  0  0  0  0  0  0  0  0  0  0  0  # atno 6908 bound_to 6896
  150.6900  134.1880  159.4317 H   0  0  0  0  0  0  0  0  0  0  0  0  # atno 6909 bound_to 6896
  144.7163  140.1998  143.6339 H   0  0  0  0  0  0  0  0  0  0  0  0  # atno 7974 bound_to 7965
  155.7624  140.3486  155.5205 H   0  0  0  0  0  0  0  0  0  0  0  0  # atno 8008 bound_to 7997
  155.8901  140.1016  157.1445 H   0  0  0  0  0  0  0  0  0  0  0  0  # atno 8009 bound_to 7997
  154.4032  140.1306  156.4292 H   0  0  0  0  0  0  0  0  0  0  0  0  # atno 8010 bound_to 7997
  139.5362  144.6684  151.4779 H   0  0  0  0  0  0  0  0  0  0  0  0  # atno 10167 bound_to 10162
  157.5050  131.1095  150.9373 H   0  0  0  0  0  0  0  0  0  0  0  0  # atno 10718 bound_to 10713
  154.3957  135.6042  153.5868 H   0  0  0  0  0  0  0  0  0  0  0  0  # atno 10763 bound_to 10752
  152.9787  135.5894  154.4245 H   0  0  0  0  0  0  0  0  0  0  0  0  # atno 10764 bound_to 10752
  154.4035  135.2843  155.2059 H   0  0  0  0  0  0  0  0  0  0  0  0  # atno 10765 bound_to 10752
  140.7683  134.3218  157.5082 H   0  0  0  0  0  0  0  0  0  0  0  0  # atno 11005 bound_to 11000
  145.8690  139.2262  143.1672 LP  0  0  0  0  0  0  0  0  0  0  0  0  # atno 17320 bound_to 7965
  146.0102  140.8442  142.9974 LP  0  0  0  0  0  0  0  0  0  0  0  0  # atno 17321 bound_to 7965
  140.6569  143.8581  150.6845 LP  0  0  0  0  0  0  0  0  0  0  0  0  # atno 17342 bound_to 10162
  140.1963  143.3995  152.1825 LP  0  0  0  0  0  0  0  0  0  0  0  0  # atno 17343 bound_to 10162
  157.0032  130.5608  149.5313 LP  0  0  0  0  0  0  0  0  0  0  0  0  # atno 17370 bound_to 10713
  156.0253  130.5347  150.8388 LP  0  0  0  0  0  0  0  0  0  0  0  0  # atno 17371 bound_to 10713
  139.8759  134.9245  156.3352 LP  0  0  0  0  0  0  0  0  0  0  0  0  # atno 17394 bound_to 11000
  140.9598  133.7396  156.0385 LP  0  0  0  0  0  0  0  0  0  0  0  0  # atno 17395 bound_to 11000

$$$$
