AV-unprocessed.smi:2391|AV-procd|sdf|9481|dock4
  -GOLD-   2272013113D 1   1.00000     0.00000
 Structure written by MMmdl.
 35 36  0  0  0  0  0  0  0  0  1 V2000
  150.7681  138.7101  158.9940 O   0  0  0  0  0  0  0  0  0  0  0  0
  151.9317  138.5549  158.6232 C   0  0  0  0  0  0  0  0  0  0  0  0
  152.3702  137.5509  157.8436 N   0  0  0  0  0  0  0  0  0  0  0  0
  151.6197  136.4814  157.2876 C   0  0  0  0  0  0  0  0  0  0  0  0
  152.0240  136.0639  156.0014 C   0  0  0  0  0  0  0  0  0  0  0  0
  151.3228  135.0099  155.3911 C   0  0  0  0  0  0  0  0  0  0  0  0
  150.2593  134.4417  156.1130 C   0  0  0  0  0  0  0  0  0  0  0  0
  149.9067  134.8731  157.3433 N   0  0  0  0  0  0  0  0  0  0  0  0
  150.5786  135.8770  157.9178 N   0  0  0  0  0  0  0  0  0  0  0  0
  152.9344  139.3823  158.9528 N   0  0  0  0  0  0  0  0  0  0  0  0
  152.8297  140.5704  159.8031 C   0  0  2  0  0  0  0  0  0  0  0  0
  152.7410  141.8332  158.9078 C   0  0  0  0  0  0  0  0  0  0  0  0
  152.5904  143.1604  159.6601 C   0  0  0  0  0  0  0  0  0  0  0  0
  152.0629  144.1510  158.6187 C   0  0  0  0  0  0  0  0  0  0  0  0
  151.3190  143.3127  157.5705 C   0  0  0  0  0  0  0  0  0  0  0  0
  151.5302  141.8458  157.9629 C   0  0  0  0  0  0  0  0  0  0  0  0
  154.0188  140.5795  160.7908 C   0  0  0  0  0  0  0  0  0  0  0  0
  154.1749  139.3657  161.3209 F   0  0  0  0  0  0  0  0  0  0  0  0
  155.1460  140.9192  160.1641 F   0  0  0  0  0  0  0  0  0  0  0  0
  153.8049  141.4333  161.7910 F   0  0  0  0  0  0  0  0  0  0  0  0
  153.3545  137.5517  157.6214 H   0  0  0  0  0  0  0  0  0  0  0  0
  152.8507  136.5378  155.4921 H   0  0  0  0  0  0  0  0  0  0  0  0
  151.5893  134.6509  154.4082 H   0  0  0  0  0  0  0  0  0  0  0  0
  149.6813  133.6291  155.6984 H   0  0  0  0  0  0  0  0  0  0  0  0
  153.8556  139.1688  158.5996 H   0  0  0  0  0  0  0  0  0  0  0  0
  151.9155  140.5174  160.3971 H   0  0  0  0  0  0  0  0  0  0  0  0
  153.6418  141.8964  158.2949 H   0  0  0  0  0  0  0  0  0  0  0  0
  151.8607  143.0531  160.4641 H   0  0  0  0  0  0  0  0  0  0  0  0
  153.5259  143.5032  160.1026 H   0  0  0  0  0  0  0  0  0  0  0  0
  151.4230  144.9095  159.0706 H   0  0  0  0  0  0  0  0  0  0  0  0
  152.8980  144.6694  158.1456 H   0  0  0  0  0  0  0  0  0  0  0  0
  150.2571  143.5588  157.5376 H   0  0  0  0  0  0  0  0  0  0  0  0
  151.7287  143.5069  156.5787 H   0  0  0  0  0  0  0  0  0  0  0  0
  151.6728  141.2052  157.0920 H   0  0  0  0  0  0  0  0  0  0  0  0
  150.6464  141.4850  158.4913 H   0  0  0  0  0  0  0  0  0  0  0  0
  1  2  2  0  0  0  0
  2  3  1  0  0  0  0
  2 10  1  0  0  0  0
  3  4  1  0  0  0  0
  3 21  1  0  0  0  0
  4  9  1  0  0  0  0
  4  5  2  0  0  0  0
  5  6  1  0  0  0  0
  5 22  1  0  0  0  0
  6  7  2  0  0  0  0
  6 23  1  0  0  0  0
  7  8  1  0  0  0  0
  7 24  1  0  0  0  0
  8  9  2  0  0  0  0
 10 11  1  0  0  0  0
 10 25  1  0  0  0  0
 11 12  1  0  0  0  0
 11 17  1  0  0  0  0
 11 26  1  0  0  0  0
 12 16  1  0  0  0  0
 12 13  1  0  0  0  0
 12 27  1  0  0  0  0
 13 14  1  0  0  0  0
 13 28  1  0  0  0  0
 13 29  1  0  0  0  0
 14 15  1  0  0  0  0
 14 30  1  0  0  0  0
 14 31  1  0  0  0  0
 15 16  1  0  0  0  0
 15 32  1  0  0  0  0
 15 33  1  0  0  0  0
 16 34  1  0  0  0  0
 16 35  1  0  0  0  0
 17 18  1  0  0  0  0
 17 19  1  0  0  0  0
 17 20  1  0  0  0  0
M  END
> <s_m_source_file>
AV-unprocessed.smi

> <i_m_source_file_index>
2391

> <i_lp_mmshare_version>
43012

> <i_f3d_flags>
0

> <s_epik_input>
W0NIMl0xW0NIMl1bQ0gyXVtDSDJdW0NIXTFbQ0BIXShDKEYpKEYpRilbTkhdQyg9TylbTkhdYzJbY0hdW2NIXVtjSF1ubjI=

> <s_epik_cmdline>
J2VwaWtfcHl0aG9uJywgJy1waCcsICc3LjAnLCAnLXRuJywgJzgnLCAnLW1hJywgJzIwMCcsICctbWV0YWxfYmluZGluZycsICctaW1hZScsICc8aW5maWxlLm1hZT4nLCAnLW9tYWUnLCAnPG91dGZpbGUubWFlPic=

> <r_lp_tautomer_probability>
1

> <r_epik_Ionization_Penalty>
0.00359591

> <r_epik_Ionization_Penalty_Charging>
0

> <r_epik_Ionization_Penalty_Neutral>
0.00359591

> <r_epik_State_Penalty>
0.0123658

> <r_epik_Charging_Adjusted_Penalty>
0.0123658

> <i_epik_Tot_Q>
0

> <i_epik_Tot_abs_Q>
0

> <r_epik_Metal_State_Penalty>
0.0410426

> <b_epik_Metal_Only>
0

> <s_lp_Force_Field>
OPLS_2005

> <r_lp_Energy>
31.4517

> <b_lp_Chiralities_Consistent>
1

> <s_lp_Variant>
AV-unprocessed.smi:2391-1

> <Gold.Version>
5.8.1

> <Gold.Id.Protein>
6NUR|6NUR_protein|mol2

> <Gold.PLP.Fitness>
35.5948

> <Gold.PLP.PLP>
-34.6155

> <Gold.PLP.part.hbond>
-2.3596

> <Gold.PLP.part.metal>
0.0000

> <Gold.PLP.part.buried>
-3.0329

> <Gold.PLP.part.nonpolar>
-30.3701

> <Gold.PLP.part.repulsive>
0.1813

> <Gold.PLP.ligand.clash>
0.0093

> <Gold.PLP.ligand.torsion>
0.7804

> <Gold.PLP.Chemscore.Hbond>
0.7410

> <Gold.PLP.Chemscore.CHOScore>
0.0000

> <Gold.PLP.Chemscore.Metal>
0.0000

> <Gold.Chemscore.Hbonds>
donor molecule, donor type, donor heavy atom, donor atom, acceptor molecule, acceptor atom, score
      P1  H  6896  6908       L1     9  0.46

> <Gold.PLP.Chemscore.Internal.Correction>
0.3265

> <Gold.Rescore>
     Score         DG    S(hbond)    S(metal)    S(lipo)     H(rot)  DE(clash)    DE(int)     intcor
     10.90     -12.55       0.38        0.00      78.56       1.33       0.00       1.65       ----

> <Gold.Chemscore.Fitness>
10.8952

> <Gold.Chemscore.DG>
-12.5497

> <Gold.Chemscore.ZeroCoef>
-5.4800

> <Gold.Chemscore.Hbond>
0.3843

> <Gold.Chemscore.Metal>
0.0000

> <Gold.Chemscore.Lipo>
78.5618

> <Gold.Chemscore.Internal_Hbond>
0.0000

> <Gold.Chemscore.DEClash>
0.0000

> <Gold.Chemscore.DEInternal>
1.6545

> <Gold.Chemscore.Rot>
1.3304

> <Gold.Chemscore.Internal.Correction>
   9.000000E+99

> <Gold.Chemscore.Hbonds>
donor molecule, donor type, donor heavy atom, donor atom, acceptor molecule, acceptor atom, score
      P1  H  6896  6908       L1     9  0.09

> <Gold.Chemscore.Hbond.Weighted>
-1.2837

> <Gold.Chemscore.Metal.Weighted>
-0.0000

> <Gold.Chemscore.Lipo.Weighted>
-9.1917

> <Gold.Chemscore.Internal_Hbond.Weighted>
0.0000

> <Gold.Chemscore.DEClash.Weighted>
0.0000

> <Gold.Chemscore.DEInternal.Weighted>
1.6545

> <Gold.Chemscore.Rot.Weighted>
3.4057

> <Gold.Chemscore.Internal.Correction.Weighted>
   9.000000E+99

> <Gold.Protein.RotatedTorsions>
[ 6907 6896 6895 6894 ] final -160.00 input  -60.11 | X-H torsion
[ 7974 7965 7964 7962 ] final   58.31 input  175.53 | X-H torsion
[ 8008 7997 7996 7995 ] final  174.96 input   59.86 | X-H torsion
[ 10167 10162 10161 10158 ] final  -20.09 input  -65.29 | X-H torsion
[ 10718 10713 10712 10709 ] final  -91.39 input   66.30 | X-H torsion
[ 10763 10752 10751 10750 ] final  157.07 input  -60.55 | X-H torsion
[ 11005 11000 10999 10996 ] final  117.63 input  -57.11 | X-H torsion

> <Gold.Protein.ActiveResidues>
 VAL166  LYS551  ARG553  GLY616  TRP617  ASP618  TYR619  PRO620  LYS621  CYS622 
 ASP623  PHE694  ASN695  SER759  ASP760  ASP761  ALA762  ILE779  LEU786  VAL792 
 PHE793  MET794  SER795  GLU796  ALA797  LYS798  CYS799  TRP800  GLU811  SER814 

> <Gold.Protein.RotatedAtoms>
  151.3423  133.3957  159.2672 H   0  0  0  0  0  0  0  0  0  0  0  0  # atno 6907 bound_to 6896
  150.9868  134.9212  159.7886 H   0  0  0  0  0  0  0  0  0  0  0  0  # atno 6908 bound_to 6896
  152.5234  134.3388  159.9262 H   0  0  0  0  0  0  0  0  0  0  0  0  # atno 6909 bound_to 6896
  145.9195  139.3718  143.0487 H   0  0  0  0  0  0  0  0  0  0  0  0  # atno 7974 bound_to 7965
  156.0920  140.1421  156.9579 H   0  0  0  0  0  0  0  0  0  0  0  0  # atno 8008 bound_to 7997
  154.4648  140.0930  156.7037 H   0  0  0  0  0  0  0  0  0  0  0  0  # atno 8009 bound_to 7997
  155.4903  140.3448  155.4356 H   0  0  0  0  0  0  0  0  0  0  0  0  # atno 8010 bound_to 7997
  140.7273  143.4756  151.0188 H   0  0  0  0  0  0  0  0  0  0  0  0  # atno 10167 bound_to 10162
  155.9993  130.4946  150.5468 H   0  0  0  0  0  0  0  0  0  0  0  0  # atno 10718 bound_to 10713
  154.1944  135.2793  155.3011 H   0  0  0  0  0  0  0  0  0  0  0  0  # atno 10763 bound_to 10752
  154.5903  135.5562  153.7275 H   0  0  0  0  0  0  0  0  0  0  0  0  # atno 10764 bound_to 10752
  153.0104  135.6366  154.2083 H   0  0  0  0  0  0  0  0  0  0  0  0  # atno 10765 bound_to 10752
  139.9081  134.9612  156.7380 H   0  0  0  0  0  0  0  0  0  0  0  0  # atno 11005 bound_to 11000
  145.8568  140.9498  143.0721 LP  0  0  0  0  0  0  0  0  0  0  0  0  # atno 17320 bound_to 7965
  144.6751  140.0478  143.7479 LP  0  0  0  0  0  0  0  0  0  0  0  0  # atno 17321 bound_to 7965
  139.8451  143.7513  152.3179 LP  0  0  0  0  0  0  0  0  0  0  0  0  # atno 17342 bound_to 10162
  139.7675  144.7487  151.0273 LP  0  0  0  0  0  0  0  0  0  0  0  0  # atno 17343 bound_to 10162
  157.3396  131.0714  151.1798 LP  0  0  0  0  0  0  0  0  0  0  0  0  # atno 17370 bound_to 10713
  157.2651  130.6677  149.5993 LP  0  0  0  0  0  0  0  0  0  0  0  0  # atno 17371 bound_to 10713
  140.6872  133.9422  155.7945 LP  0  0  0  0  0  0  0  0  0  0  0  0  # atno 17394 bound_to 11000
  141.0468  134.0543  157.3834 LP  0  0  0  0  0  0  0  0  0  0  0  0  # atno 17395 bound_to 11000

$$$$
