AV-unprocessed.smi:1554|AV-procd|sdf|6248|dock5
  -GOLD-   22720 6433D 1   1.00000     0.00000
 Structure written by MMmdl.
 48 50  0  0  0  0  0  0  0  0  2 V2000
  153.5394  142.0465  161.8525 C   0  0  0  0  0  0  0  0  0  0  0  0
  152.8843  141.9081  160.4896 C   0  0  0  0  0  0  0  0  0  0  0  0
  153.1709  140.7704  159.7019 C   0  0  0  0  0  0  0  0  0  0  0  0
  152.5811  140.6024  158.4302 C   0  0  0  0  0  0  0  0  0  0  0  0
  152.7179  139.5837  157.5034 N   0  0  0  0  0  0  0  0  0  0  0  0
  151.9226  140.0033  156.5237 C   0  0  0  0  0  0  0  0  0  0  0  0
  151.2911  141.1798  156.7028 N   0  0  0  0  0  0  0  0  0  0  0  0
  150.3907  141.8416  155.7721 C   0  0  0  0  0  0  0  0  0  0  0  0
  149.4153  140.8756  155.0633 C   0  0  2  0  0  0  0  0  0  0  0  0
  149.3186  141.2460  153.7009 O   0  0  0  0  0  0  0  0  0  0  0  0
  148.0004  140.8772  155.6841 C   0  0  0  0  0  0  0  0  0  0  0  0
  147.4074  142.2382  155.7726 N   0  3  1  0  0  0  0  0  0  0  0  0
  146.4243  142.5556  154.7051 C   0  0  0  0  0  0  0  0  0  0  0  0
  145.0544  141.9049  154.9834 C   0  0  0  0  0  0  0  0  0  0  0  0
  144.5932  142.2785  156.2762 O   0  0  0  0  0  0  0  0  0  0  0  0
  145.4758  141.8605  157.3120 C   0  0  2  0  0  0  0  0  0  0  0  0
  144.8410  142.2264  158.6578 C   0  0  0  0  0  0  0  0  0  0  0  0
  146.8404  142.5502  157.1077 C   0  0  0  0  0  0  0  0  0  0  0  0
  151.6907  141.6128  157.9631 C   0  0  0  0  0  0  0  0  0  0  0  0
  151.3956  142.7480  158.7391 C   0  0  0  0  0  0  0  0  0  0  0  0
  151.9943  142.9006  160.0069 C   0  0  0  0  0  0  0  0  0  0  0  0
  151.6707  144.1312  160.8357 C   0  0  0  0  0  0  0  0  0  0  0  0
  154.1642  141.1832  162.0832 H   0  0  0  0  0  0  0  0  0  0  0  0
  152.7832  142.1286  162.6334 H   0  0  0  0  0  0  0  0  0  0  0  0
  154.1704  142.9350  161.8853 H   0  0  0  0  0  0  0  0  0  0  0  0
  153.8481  140.0137  160.0698 H   0  0  0  0  0  0  0  0  0  0  0  0
  151.7974  139.4266  155.6187 H   0  0  0  0  0  0  0  0  0  0  0  0
  149.8377  142.6110  156.3126 H   0  0  0  0  0  0  0  0  0  0  0  0
  150.9938  142.3666  155.0306 H   0  0  0  0  0  0  0  0  0  0  0  0
  149.8505  139.8777  155.1041 H   0  0  0  0  0  0  0  0  0  0  0  0
  149.1334  140.4766  153.1850 H   0  0  0  0  0  0  0  0  0  0  0  0
  147.3401  140.2282  155.1097 H   0  0  0  0  0  0  0  0  0  0  0  0
  148.0557  140.4397  156.6820 H   0  0  0  0  0  0  0  0  0  0  0  0
  146.3029  143.6389  154.6700 H   0  0  0  0  0  0  0  0  0  0  0  0
  146.7951  142.2596  153.7246 H   0  0  0  0  0  0  0  0  0  0  0  0
  144.3273  142.2398  154.2434 H   0  0  0  0  0  0  0  0  0  0  0  0
  145.1023  140.8185  154.9024 H   0  0  0  0  0  0  0  0  0  0  0  0
  145.5921  140.7760  157.2712 H   0  0  0  0  0  0  0  0  0  0  0  0
  145.4780  141.9200  159.4879 H   0  0  0  0  0  0  0  0  0  0  0  0
  143.8763  141.7336  158.7809 H   0  0  0  0  0  0  0  0  0  0  0  0
  144.6788  143.3017  158.7398 H   0  0  0  0  0  0  0  0  0  0  0  0
  147.5411  142.2707  157.8955 H   0  0  0  0  0  0  0  0  0  0  0  0
  146.7165  143.6317  157.1813 H   0  0  0  0  0  0  0  0  0  0  0  0
  150.7134  143.4954  158.3628 H   0  0  0  0  0  0  0  0  0  0  0  0
  151.0025  144.8071  160.3013 H   0  0  0  0  0  0  0  0  0  0  0  0
  152.5806  144.6817  161.0755 H   0  0  0  0  0  0  0  0  0  0  0  0
  151.1823  143.8453  161.7675 H   0  0  0  0  0  0  0  0  0  0  0  0
  148.1847  142.8714  155.6515 H   0  0  0  0  0  0  0  0  0  0  0  0
  1  2  1  0  0  0  0
  1 23  1  0  0  0  0
  1 24  1  0  0  0  0
  1 25  1  0  0  0  0
  2 21  1  0  0  0  0
  2  3  2  0  0  0  0
  3  4  1  0  0  0  0
  3 26  1  0  0  0  0
  4 19  2  0  0  0  0
  4  5  1  0  0  0  0
  5  6  2  0  0  0  0
  6  7  1  0  0  0  0
  6 27  1  0  0  0  0
  7  8  1  0  0  0  0
  7 19  1  0  0  0  0
  8  9  1  0  0  0  0
  8 28  1  0  0  0  0
  8 29  1  0  0  0  0
  9 10  1  0  0  0  0
  9 11  1  0  0  0  0
  9 30  1  0  0  0  0
 10 31  1  0  0  0  0
 11 12  1  0  0  0  0
 11 32  1  0  0  0  0
 11 33  1  0  0  0  0
 12 18  1  0  0  0  0
 12 13  1  0  0  0  0
 12 48  1  0  0  0  0
 13 14  1  0  0  0  0
 13 34  1  0  0  0  0
 13 35  1  0  0  0  0
 14 15  1  0  0  0  0
 14 36  1  0  0  0  0
 14 37  1  0  0  0  0
 15 16  1  0  0  0  0
 16 17  1  0  0  0  0
 16 18  1  0  0  0  0
 16 38  1  0  0  0  0
 17 39  1  0  0  0  0
 17 40  1  0  0  0  0
 17 41  1  0  0  0  0
 18 42  1  0  0  0  0
 18 43  1  0  0  0  0
 19 20  1  0  0  0  0
 20 21  2  0  0  0  0
 20 44  1  0  0  0  0
 21 22  1  0  0  0  0
 22 45  1  0  0  0  0
 22 46  1  0  0  0  0
 22 47  1  0  0  0  0
M  CHG  1  12   1
M  END
> <s_m_source_file>
AV-unprocessed.smi

> <i_m_source_file_index>
1554

> <i_lp_mmshare_version>
43012

> <i_f3d_flags>
0

> <s_epik_input>
W0NIM11jKFtjSF0xKWMoW0NIM10pW2NIXWMoYzEyKW4oW2NIXW4yKVtDSDJdW0NASF0oW09IXSlbQ0gyXU4zW0NIMl1bQ0gyXU9bQ0BASF0oW0NIM10pW0NIMl0z

> <s_epik_cmdline>
J2VwaWtfcHl0aG9uJywgJy1waCcsICc3LjAnLCAnLXRuJywgJzgnLCAnLW1hJywgJzIwMCcsICctbWV0YWxfYmluZGluZycsICctaW1hZScsICc8aW5maWxlLm1hZT4nLCAnLW9tYWUnLCAnPG91dGZpbGUubWFlPic=

> <r_epik_Ionization_Penalty>
0.695251

> <r_epik_Ionization_Penalty_Charging>
0.608065

> <r_epik_Ionization_Penalty_Neutral>
0.0871863

> <r_epik_State_Penalty>
0.731955

> <r_epik_Charging_Adjusted_Penalty>
1.34002

> <i_epik_Tot_Q>
1

> <i_epik_Tot_abs_Q>
1

> <r_epik_Metal_State_Penalty>
0.652186

> <b_epik_Metal_Only>
0

> <s_lp_Force_Field>
OPLS_2005

> <r_lp_Energy>
22.8588

> <b_lp_Chiralities_Consistent>
1

> <s_lp_Variant>
AV-unprocessed.smi:1554-9

> <Gold.Version>
5.8.1

> <Gold.Id.Protein>
6NUR|6NUR_protein|mol2

> <Gold.PLP.Fitness>
52.1349

> <Gold.PLP.PLP>
-42.6724

> <Gold.PLP.part.hbond>
-5.0000

> <Gold.PLP.part.metal>
0.0000

> <Gold.PLP.part.buried>
-4.7144

> <Gold.PLP.part.nonpolar>
-33.2943

> <Gold.PLP.part.repulsive>
0.1027

> <Gold.PLP.ligand.clash>
0.0000

> <Gold.PLP.ligand.torsion>
1.4966

> <Gold.PLP.Chemscore.Hbond>
4.1411

> <Gold.PLP.Chemscore.CHOScore>
0.0000

> <Gold.PLP.Chemscore.Metal>
0.0000

> <Gold.Chemscore.Hbonds>
donor molecule, donor type, donor heavy atom, donor atom, acceptor molecule, acceptor atom, score
      L1  H    10    31       P1  7957  0.45
      L1  H    12    48       P1  8028  1.92
      P1  H  7989  7998       L1    10  0.02
      P1  H  7997  8008       L1     5  0.95
      P1  H  8011  8017       L1    10  0.87

> <Gold.PLP.Chemscore.Internal.Correction>
0.0324

> <Gold.Rescore>
     Score         DG    S(hbond)    S(metal)    S(lipo)     H(rot)  DE(clash)    DE(int)     intcor
     16.96     -18.80       1.72        0.00     109.85       2.05       0.38       1.46       ----

> <Gold.Chemscore.Fitness>
16.9572

> <Gold.Chemscore.DG>
-18.8030

> <Gold.Chemscore.ZeroCoef>
-5.4800

> <Gold.Chemscore.Hbond>
1.7156

> <Gold.Chemscore.Metal>
0.0000

> <Gold.Chemscore.Lipo>
109.8503

> <Gold.Chemscore.Internal_Hbond>
0.0000

> <Gold.Chemscore.DEClash>
0.3844

> <Gold.Chemscore.DEInternal>
1.4615

> <Gold.Chemscore.Rot>
2.0546

> <Gold.Chemscore.Internal.Correction>
   9.000000E+99

> <Gold.Chemscore.Hbonds>
donor molecule, donor type, donor heavy atom, donor atom, acceptor molecule, acceptor atom, score
      L1  H    10    31       P1  7957  0.46
      L1  H    12    48       P1  8028  0.84
      P1  H  7997  8008       L1     5  0.06
      P1  H  8011  8017       L1    10  0.19

> <Gold.Chemscore.Hbond.Weighted>
-5.7302

> <Gold.Chemscore.Metal.Weighted>
-0.0000

> <Gold.Chemscore.Lipo.Weighted>
-12.8525

> <Gold.Chemscore.Internal_Hbond.Weighted>
0.0000

> <Gold.Chemscore.DEClash.Weighted>
0.3844

> <Gold.Chemscore.DEInternal.Weighted>
1.4615

> <Gold.Chemscore.Rot.Weighted>
5.2597

> <Gold.Chemscore.Internal.Correction.Weighted>
   9.000000E+99

> <Gold.Protein.RotatedTorsions>
[ 6907 6896 6895 6894 ] final -168.56 input  -60.11 | X-H torsion
[ 7974 7965 7964 7962 ] final   10.89 input  175.53 | X-H torsion
[ 8008 7997 7996 7995 ] final  -70.17 input   59.86 | X-H torsion
[ 10167 10162 10161 10158 ] final  126.13 input  -65.29 | X-H torsion
[ 10718 10713 10712 10709 ] final -116.82 input   66.30 | X-H torsion
[ 10763 10752 10751 10750 ] final   42.72 input  -60.55 | X-H torsion
[ 11005 11000 10999 10996 ] final -165.19 input  -57.11 | X-H torsion

> <Gold.Protein.ActiveResidues>
 VAL166  LYS551  ARG553  GLY616  TRP617  ASP618  TYR619  PRO620  LYS621  CYS622 
 ASP623  PHE694  ASN695  SER759  ASP760  ASP761  ALA762  ILE779  LEU786  VAL792 
 PHE793  MET794  SER795  GLU796  ALA797  LYS798  CYS799  TRP800  GLU811  SER814 

> <Gold.Protein.RotatedAtoms>
  151.4775  133.3554  159.2832 H   0  0  0  0  0  0  0  0  0  0  0  0  # atno 6907 bound_to 6896
  150.8919  134.8326  159.7310 H   0  0  0  0  0  0  0  0  0  0  0  0  # atno 6908 bound_to 6896
  152.4828  134.4686  159.9680 H   0  0  0  0  0  0  0  0  0  0  0  0  # atno 6909 bound_to 6896
  146.2381  139.9567  142.8463 H   0  0  0  0  0  0  0  0  0  0  0  0  # atno 7974 bound_to 7965
  154.4992  140.0839  156.7762 H   0  0  0  0  0  0  0  0  0  0  0  0  # atno 8008 bound_to 7997
  155.4042  140.3438  155.4241 H   0  0  0  0  0  0  0  0  0  0  0  0  # atno 8009 bound_to 7997
  156.1435  140.1536  156.8872 H   0  0  0  0  0  0  0  0  0  0  0  0  # atno 8010 bound_to 7997
  139.5648  144.6904  151.3941 H   0  0  0  0  0  0  0  0  0  0  0  0  # atno 10167 bound_to 10162
  156.0990  130.6156  150.9085 H   0  0  0  0  0  0  0  0  0  0  0  0  # atno 10718 bound_to 10713
  152.9876  135.6123  154.2995 H   0  0  0  0  0  0  0  0  0  0  0  0  # atno 10763 bound_to 10752
  154.2716  135.2779  155.2737 H   0  0  0  0  0  0  0  0  0  0  0  0  # atno 10764 bound_to 10752
  154.5117  135.5839  153.6667 H   0  0  0  0  0  0  0  0  0  0  0  0  # atno 10765 bound_to 10752
  140.5784  134.5166  157.5174 H   0  0  0  0  0  0  0  0  0  0  0  0  # atno 11005 bound_to 11000
  145.1809  140.9767  143.4266 LP  0  0  0  0  0  0  0  0  0  0  0  0  # atno 17320 bound_to 7965
  144.9943  139.3659  143.6199 LP  0  0  0  0  0  0  0  0  0  0  0  0  # atno 17321 bound_to 7965
  140.6931  143.7815  150.7284 LP  0  0  0  0  0  0  0  0  0  0  0  0  # atno 17342 bound_to 10162
  140.1303  143.4532  152.2258 LP  0  0  0  0  0  0  0  0  0  0  0  0  # atno 17343 bound_to 10162
  157.6157  131.0933  150.8715 LP  0  0  0  0  0  0  0  0  0  0  0  0  # atno 17370 bound_to 10713
  156.8847  130.5191  149.5289 LP  0  0  0  0  0  0  0  0  0  0  0  0  # atno 17371 bound_to 10713
  139.9328  134.7930  156.0883 LP  0  0  0  0  0  0  0  0  0  0  0  0  # atno 17394 bound_to 11000
  141.1012  133.6677  156.2758 LP  0  0  0  0  0  0  0  0  0  0  0  0  # atno 17395 bound_to 11000

$$$$
