AV-unprocessed.smi:496|AV-procd|sdf|2717|dock4
  -GOLD-   2262023163D 1   1.00000     0.00000
 Structure written by MMmdl.
 42 44  0  0  0  0  0  0  0  0  1 V2000
  150.3756  139.0648  154.3637 C   0  0  0  0  0  0  0  0  0  0  0  0
  151.0579  140.2024  154.8619 O   0  0  0  0  0  0  0  0  0  0  0  0
  150.1736  141.2460  155.2317 C   0  0  0  0  0  0  0  0  0  0  0  0
  149.4182  140.8284  156.4995 C   0  0  0  0  0  0  0  0  0  0  0  0
  150.3221  140.6020  157.6181 N   0  0  0  0  0  0  0  0  0  0  0  0
  150.5945  139.4408  158.2709 C   0  0  0  0  0  0  0  0  0  0  0  0
  149.9627  138.1241  157.8991 C   0  0  1  0  0  0  0  0  0  0  0  0
  151.0070  137.0474  157.5694 C   0  0  0  0  0  0  0  0  0  0  0  0
  149.1308  137.7054  159.0244 N   0  0  0  0  0  0  0  0  0  0  0  0
  148.6189  136.4791  159.2123 C   0  0  0  0  0  0  0  0  0  0  0  0
  148.8152  135.5337  158.4487 O   0  0  0  0  0  0  0  0  0  0  0  0
  147.7783  136.3153  160.4133 C   0  0  0  0  0  0  0  0  0  0  0  0
  147.2037  135.2040  160.9727 C   0  0  0  0  0  0  0  0  0  0  0  0
  146.5003  135.6464  162.1270 C   0  0  0  0  0  0  0  0  0  0  0  0
  146.6929  136.9965  162.1895 C   0  0  0  0  0  0  0  0  0  0  0  0
  147.4672  137.4192  161.1533 O   0  0  0  0  0  0  0  0  0  0  0  0
  151.4656  139.5407  159.2790 N   0  0  0  0  0  0  0  0  0  0  0  0
  151.7976  140.8801  159.2699 C   0  0  0  0  0  0  0  0  0  0  0  0
  152.6831  141.6114  160.0936 C   0  0  0  0  0  0  0  0  0  0  0  0
  152.8672  142.9948  159.8915 C   0  0  0  0  0  0  0  0  0  0  0  0
  152.1704  143.6647  158.8653 C   0  0  0  0  0  0  0  0  0  0  0  0
  151.2830  142.9543  158.0342 C   0  0  0  0  0  0  0  0  0  0  0  0
  151.1015  141.5731  158.2404 C   0  0  0  0  0  0  0  0  0  0  0  0
  151.0975  138.2965  154.0871 H   0  0  0  0  0  0  0  0  0  0  0  0
  149.7905  139.3122  153.4768 H   0  0  0  0  0  0  0  0  0  0  0  0
  149.7088  138.6437  155.1174 H   0  0  0  0  0  0  0  0  0  0  0  0
  150.7360  142.1640  155.4068 H   0  0  0  0  0  0  0  0  0  0  0  0
  149.4669  141.4408  154.4232 H   0  0  0  0  0  0  0  0  0  0  0  0
  148.7075  141.6074  156.7762 H   0  0  0  0  0  0  0  0  0  0  0  0
  148.8213  139.9332  156.3270 H   0  0  0  0  0  0  0  0  0  0  0  0
  149.3392  138.2527  157.0164 H   0  0  0  0  0  0  0  0  0  0  0  0
  151.6366  137.3562  156.7349 H   0  0  0  0  0  0  0  0  0  0  0  0
  150.5270  136.1088  157.2911 H   0  0  0  0  0  0  0  0  0  0  0  0
  151.6585  136.8475  158.4209 H   0  0  0  0  0  0  0  0  0  0  0  0
  148.9091  138.4170  159.7055 H   0  0  0  0  0  0  0  0  0  0  0  0
  147.2800  134.1932  160.5993 H   0  0  0  0  0  0  0  0  0  0  0  0
  145.9262  135.0525  162.8230 H   0  0  0  0  0  0  0  0  0  0  0  0
  146.3690  137.7706  162.8693 H   0  0  0  0  0  0  0  0  0  0  0  0
  153.2226  141.1068  160.8815 H   0  0  0  0  0  0  0  0  0  0  0  0
  153.5469  143.5444  160.5262 H   0  0  0  0  0  0  0  0  0  0  0  0
  152.3177  144.7246  158.7164 H   0  0  0  0  0  0  0  0  0  0  0  0
  150.7502  143.4668  157.2470 H   0  0  0  0  0  0  0  0  0  0  0  0
  1  2  1  0  0  0  0
  1 24  1  0  0  0  0
  1 25  1  0  0  0  0
  1 26  1  0  0  0  0
  2  3  1  0  0  0  0
  3  4  1  0  0  0  0
  3 27  1  0  0  0  0
  3 28  1  0  0  0  0
  4  5  1  0  0  0  0
  4 29  1  0  0  0  0
  4 30  1  0  0  0  0
  5 23  1  0  0  0  0
  5  6  1  0  0  0  0
  6  7  1  0  0  0  0
  6 17  2  0  0  0  0
  7  8  1  0  0  0  0
  7  9  1  0  0  0  0
  7 31  1  0  0  0  0
  8 32  1  0  0  0  0
  8 33  1  0  0  0  0
  8 34  1  0  0  0  0
  9 10  1  0  0  0  0
  9 35  1  0  0  0  0
 10 11  2  0  0  0  0
 10 12  1  0  0  0  0
 12 16  1  0  0  0  0
 12 13  2  0  0  0  0
 13 14  1  0  0  0  0
 13 36  1  0  0  0  0
 14 15  2  0  0  0  0
 14 37  1  0  0  0  0
 15 16  1  0  0  0  0
 15 38  1  0  0  0  0
 17 18  1  0  0  0  0
 18 23  2  0  0  0  0
 18 19  1  0  0  0  0
 19 20  2  0  0  0  0
 19 39  1  0  0  0  0
 20 21  1  0  0  0  0
 20 40  1  0  0  0  0
 21 22  2  0  0  0  0
 21 41  1  0  0  0  0
 22 23  1  0  0  0  0
 22 42  1  0  0  0  0
M  END
> <s_m_source_file>
AV-unprocessed.smi

> <i_m_source_file_index>
496

> <i_lp_mmshare_version>
43012

> <i_f3d_flags>
0

> <s_epik_input>
W2NIXTFbY0hdW2NIXVtjSF1jKGMxMiluKFtDSDJdW0NIMl1PW0NIM10pYyhuMilbQ0BIXShbQ0gzXSlbTkhdQyg9TyljM1tjSF1bY0hdW2NIXW8z

> <s_epik_cmdline>
J2VwaWtfcHl0aG9uJywgJy1waCcsICc3LjAnLCAnLXRuJywgJzgnLCAnLW1hJywgJzIwMCcsICctbWV0YWxfYmluZGluZycsICctaW1hZScsICc8aW5maWxlLm1hZT4nLCAnLW9tYWUnLCAnPG91dGZpbGUubWFlPic=

> <r_epik_Ionization_Penalty>
0.116528

> <r_epik_Ionization_Penalty_Charging>
0

> <r_epik_Ionization_Penalty_Neutral>
0.116528

> <r_epik_State_Penalty>
0.106132

> <r_epik_Charging_Adjusted_Penalty>
0.106132

> <i_epik_Tot_Q>
0

> <i_epik_Tot_abs_Q>
0

> <r_epik_Metal_State_Penalty>
0.0963468

> <b_epik_Metal_Only>
0

> <s_lp_Force_Field>
OPLS_2005

> <r_lp_Energy>
8.49443

> <b_lp_Chiralities_Consistent>
1

> <s_lp_Variant>
AV-unprocessed.smi:496-2

> <Gold.Version>
5.8.1

> <Gold.Id.Protein>
6NUR|6NUR_protein|mol2

> <Gold.PLP.Fitness>
57.1335

> <Gold.PLP.PLP>
-46.5471

> <Gold.PLP.part.hbond>
-4.0000

> <Gold.PLP.part.metal>
0.0000

> <Gold.PLP.part.buried>
-5.3084

> <Gold.PLP.part.nonpolar>
-37.2089

> <Gold.PLP.part.repulsive>
0.2862

> <Gold.PLP.ligand.clash>
0.0000

> <Gold.PLP.ligand.torsion>
0.3195

> <Gold.PLP.Chemscore.Hbond>
3.7200

> <Gold.PLP.Chemscore.CHOScore>
0.0000

> <Gold.PLP.Chemscore.Metal>
0.0000

> <Gold.Chemscore.Hbonds>
donor molecule, donor type, donor heavy atom, donor atom, acceptor molecule, acceptor atom, score
      P1  H  6896  6908       L1    11  0.10
      P1  H  6931  6943       L1    16  0.77
      P1  H  6934  6947       L1    16  0.96
      P1  H  7989  7998       L1     2  0.90

> <Gold.PLP.Chemscore.Internal.Correction>
0.0653

> <Gold.Rescore>
     Score         DG    S(hbond)    S(metal)    S(lipo)     H(rot)  DE(clash)    DE(int)     intcor
     21.45     -23.28       2.89        0.00     110.15       1.85       0.20       1.63       ----

> <Gold.Chemscore.Fitness>
21.4536

> <Gold.Chemscore.DG>
-23.2804

> <Gold.Chemscore.ZeroCoef>
-5.4800

> <Gold.Chemscore.Hbond>
2.8872

> <Gold.Chemscore.Metal>
0.0000

> <Gold.Chemscore.Lipo>
110.1536

> <Gold.Chemscore.Internal_Hbond>
0.0000

> <Gold.Chemscore.DEClash>
0.1982

> <Gold.Chemscore.DEInternal>
1.6286

> <Gold.Chemscore.Rot>
1.8480

> <Gold.Chemscore.Internal.Correction>
   9.000000E+99

> <Gold.Chemscore.Hbonds>
donor molecule, donor type, donor heavy atom, donor atom, acceptor molecule, acceptor atom, score
      P1  H  6896  6908       L1    11  0.06
      P1  H  6931  6943       L1    16  0.39
      P1  H  6934  6947       L1    16  0.60
      P1  H  7989  7998       L1     2  0.06

> <Gold.Chemscore.Hbond.Weighted>
-9.6432

> <Gold.Chemscore.Metal.Weighted>
-0.0000

> <Gold.Chemscore.Lipo.Weighted>
-12.8880

> <Gold.Chemscore.Internal_Hbond.Weighted>
0.0000

> <Gold.Chemscore.DEClash.Weighted>
0.1982

> <Gold.Chemscore.DEInternal.Weighted>
1.6286

> <Gold.Chemscore.Rot.Weighted>
4.7308

> <Gold.Chemscore.Internal.Correction.Weighted>
   9.000000E+99

> <Gold.Protein.RotatedTorsions>
[ 6907 6896 6895 6894 ] final  152.93 input  -60.11 | X-H torsion
[ 7974 7965 7964 7962 ] final  -35.74 input  175.53 | X-H torsion
[ 8008 7997 7996 7995 ] final  -44.30 input   59.86 | X-H torsion
[ 10167 10162 10161 10158 ] final  148.25 input  -65.29 | X-H torsion
[ 10718 10713 10712 10709 ] final  107.24 input   66.30 | X-H torsion
[ 10763 10752 10751 10750 ] final  -80.46 input  -60.55 | X-H torsion
[ 11005 11000 10999 10996 ] final  -26.31 input  -57.11 | X-H torsion

> <Gold.Protein.ActiveResidues>
 VAL166  LYS551  ARG553  GLY616  TRP617  ASP618  TYR619  PRO620  LYS621  CYS622 
 ASP623  PHE694  ASN695  SER759  ASP760  ASP761  ALA762  ILE779  LEU786  VAL792 
 PHE793  MET794  SER795  GLU796  ALA797  LYS798  CYS799  TRP800  GLU811  SER814 

> <Gold.Protein.RotatedAtoms>
  152.0799  133.4147  159.4496 H   0  0  0  0  0  0  0  0  0  0  0  0  # atno 6907 bound_to 6896
  150.6862  134.2994  159.4709 H   0  0  0  0  0  0  0  0  0  0  0  0  # atno 6908 bound_to 6896
  152.0835  134.9455  160.0624 H   0  0  0  0  0  0  0  0  0  0  0  0  # atno 6909 bound_to 6896
  146.0721  140.6195  142.8948 H   0  0  0  0  0  0  0  0  0  0  0  0  # atno 7974 bound_to 7965
  154.3997  140.1426  156.3660 H   0  0  0  0  0  0  0  0  0  0  0  0  # atno 8008 bound_to 7997
  155.8137  140.3472  155.5452 H   0  0  0  0  0  0  0  0  0  0  0  0  # atno 8009 bound_to 7997
  155.8360  140.0919  157.1754 H   0  0  0  0  0  0  0  0  0  0  0  0  # atno 8010 bound_to 7997
  139.4877  144.5694  151.7084 H   0  0  0  0  0  0  0  0  0  0  0  0  # atno 10167 bound_to 10162
  157.6636  131.0868  150.6127 H   0  0  0  0  0  0  0  0  0  0  0  0  # atno 10718 bound_to 10713
  154.5515  135.5660  153.6926 H   0  0  0  0  0  0  0  0  0  0  0  0  # atno 10763 bound_to 10752
  152.9991  135.6252  154.2368 H   0  0  0  0  0  0  0  0  0  0  0  0  # atno 10764 bound_to 10752
  154.2302  135.2866  155.2872 H   0  0  0  0  0  0  0  0  0  0  0  0  # atno 10765 bound_to 10752
  140.9018  133.7519  156.0553 H   0  0  0  0  0  0  0  0  0  0  0  0  # atno 11005 bound_to 11000
  144.7238  140.4460  143.6988 LP  0  0  0  0  0  0  0  0  0  0  0  0  # atno 17320 bound_to 7965
  145.6373  139.1545  143.2935 LP  0  0  0  0  0  0  0  0  0  0  0  0  # atno 17321 bound_to 7965
  140.5278  144.0778  150.6043 LP  0  0  0  0  0  0  0  0  0  0  0  0  # atno 17342 bound_to 10162
  140.3758  143.2829  152.0226 LP  0  0  0  0  0  0  0  0  0  0  0  0  # atno 17343 bound_to 10162
  156.6428  130.4463  149.5746 LP  0  0  0  0  0  0  0  0  0  0  0  0  # atno 17370 bound_to 10713
  156.2196  130.6729  151.1354 LP  0  0  0  0  0  0  0  0  0  0  0  0  # atno 17371 bound_to 10713
  140.8221  134.3277  157.5378 LP  0  0  0  0  0  0  0  0  0  0  0  0  # atno 17394 bound_to 11000
  139.8743  134.9315  156.3530 LP  0  0  0  0  0  0  0  0  0  0  0  0  # atno 17395 bound_to 11000

$$$$
