AV-unprocessed.smi:3132|AV-procd|sdf|11931|dock6
  -GOLD-   2272017323D 1   1.00000     0.00000
 Structure written by MMmdl.
 34 35  0  0  0  0  0  0  0  0  2 V2000
  151.3098  139.6261  155.1443 C   0  0  0  0  0  0  0  0  0  0  0  0
  150.3483  140.6524  155.7583 C   0  0  2  0  0  0  0  0  0  0  0  0
  149.6157  141.4568  154.6629 C   0  0  0  0  0  0  0  0  0  0  0  0
  148.6157  140.6647  153.9392 N   0  0  0  0  0  0  0  0  0  0  0  0
  148.8107  139.4759  153.2837 C   0  0  0  0  0  0  0  0  0  0  0  0
  147.5982  139.1202  152.7516 C   0  0  0  0  0  0  0  0  0  0  0  0
  146.7142  140.1026  153.1095 N   0  3  0  0  0  0  0  0  0  0  0  0
  147.3338  141.0386  153.8356 C   0  0  0  0  0  0  0  0  0  0  0  0
  151.1047  141.5363  156.6440 N   0  0  0  0  0  0  0  0  0  0  0  0
  150.8515  141.7569  157.9448 C   0  0  0  0  0  0  0  0  0  0  0  0
  149.9047  141.2422  158.5407 O   0  0  0  0  0  0  0  0  0  0  0  0
  151.7856  142.7251  158.6850 C   0  0  1  0  0  0  0  0  0  0  0  0
  151.7422  144.1730  158.1597 C   0  0  0  0  0  0  0  0  0  0  0  0
  151.3953  145.0020  159.3853 C   0  0  0  0  0  0  0  0  0  0  0  0
  151.7996  144.0909  160.5360 C   0  0  0  0  0  0  0  0  0  0  0  0
  151.4175  142.8120  160.0608 O   0  0  0  0  0  0  0  0  0  0  0  0
  150.7770  138.9251  154.5012 H   0  0  0  0  0  0  0  0  0  0  0  0
  151.8113  139.0444  155.9186 H   0  0  0  0  0  0  0  0  0  0  0  0
  152.0786  140.1113  154.5417 H   0  0  0  0  0  0  0  0  0  0  0  0
  149.6123  140.0931  156.3389 H   0  0  0  0  0  0  0  0  0  0  0  0
  149.1161  142.3279  155.0895 H   0  0  0  0  0  0  0  0  0  0  0  0
  150.3275  141.8314  153.9258 H   0  0  0  0  0  0  0  0  0  0  0  0
  149.7737  138.9883  153.2393 H   0  0  0  0  0  0  0  0  0  0  0  0
  147.3063  138.2646  152.1600 H   0  0  0  0  0  0  0  0  0  0  0  0
  146.8886  141.9267  154.2478 H   0  0  0  0  0  0  0  0  0  0  0  0
  151.9042  142.0057  156.2423 H   0  0  0  0  0  0  0  0  0  0  0  0
  152.8056  142.3429  158.6252 H   0  0  0  0  0  0  0  0  0  0  0  0
  152.7215  144.4558  157.7724 H   0  0  0  0  0  0  0  0  0  0  0  0
  151.0154  144.3340  157.3622 H   0  0  0  0  0  0  0  0  0  0  0  0
  151.9026  145.9669  159.4070 H   0  0  0  0  0  0  0  0  0  0  0  0
  150.3201  145.1819  159.4188 H   0  0  0  0  0  0  0  0  0  0  0  0
  152.8780  144.1178  160.7008 H   0  0  0  0  0  0  0  0  0  0  0  0
  151.2976  144.3416  161.4705 H   0  0  0  0  0  0  0  0  0  0  0  0
  145.7333  140.1217  152.8600 H   0  0  0  0  0  0  0  0  0  0  0  0
  1  2  1  0  0  0  0
  1 17  1  0  0  0  0
  1 18  1  0  0  0  0
  1 19  1  0  0  0  0
  2  3  1  0  0  0  0
  2  9  1  0  0  0  0
  2 20  1  0  0  0  0
  3  4  1  0  0  0  0
  3 21  1  0  0  0  0
  3 22  1  0  0  0  0
  4  8  1  0  0  0  0
  4  5  1  0  0  0  0
  5  6  2  0  0  0  0
  5 23  1  0  0  0  0
  6  7  1  0  0  0  0
  6 24  1  0  0  0  0
  7  8  2  0  0  0  0
  7 34  1  0  0  0  0
  8 25  1  0  0  0  0
  9 10  1  0  0  0  0
  9 26  1  0  0  0  0
 10 11  2  0  0  0  0
 10 12  1  0  0  0  0
 12 16  1  0  0  0  0
 12 13  1  0  0  0  0
 12 27  1  0  0  0  0
 13 14  1  0  0  0  0
 13 28  1  0  0  0  0
 13 29  1  0  0  0  0
 14 15  1  0  0  0  0
 14 30  1  0  0  0  0
 14 31  1  0  0  0  0
 15 16  1  0  0  0  0
 15 32  1  0  0  0  0
 15 33  1  0  0  0  0
M  CHG  1   7   1
M  END
> <s_m_source_file>
AV-unprocessed.smi

> <i_m_source_file_index>
3132

> <i_lp_mmshare_version>
43012

> <i_f3d_flags>
0

> <s_epik_input>
W2NIXTFuW2NIXVtjSF1uMVtDSDJdW0NAQEhdKFtDSDNdKVtOSF1DKD1PKVtDQEBIXTJbQ0gyXVtDSDJdW0NIMl1PMg==

> <s_epik_cmdline>
J2VwaWtfcHl0aG9uJywgJy1waCcsICc3LjAnLCAnLXRuJywgJzgnLCAnLW1hJywgJzIwMCcsICctbWV0YWxfYmluZGluZycsICctaW1hZScsICc8aW5maWxlLm1hZT4nLCAnLW9tYWUnLCAnPG91dGZpbGUubWFlPic=

> <r_lp_tautomer_probability>
1

> <r_epik_Ionization_Penalty>
0.250802

> <r_epik_Ionization_Penalty_Charging>
0

> <r_epik_Ionization_Penalty_Neutral>
0.250802

> <r_epik_State_Penalty>
0.242139

> <r_epik_Charging_Adjusted_Penalty>
0.242139

> <i_epik_Tot_Q>
1

> <i_epik_Tot_abs_Q>
1

> <r_epik_Metal_State_Penalty>
0.533361

> <b_epik_Metal_Only>
0

> <s_lp_Force_Field>
OPLS_2005

> <r_lp_Energy>
20.312

> <b_lp_Chiralities_Consistent>
1

> <s_lp_Variant>
AV-unprocessed.smi:3132-3

> <Gold.Version>
5.8.1

> <Gold.Id.Protein>
6NUR|6NUR_protein|mol2

> <Gold.PLP.Fitness>
42.9873

> <Gold.PLP.PLP>
-36.7176

> <Gold.PLP.part.hbond>
-1.4104

> <Gold.PLP.part.metal>
0.0000

> <Gold.PLP.part.buried>
-0.4039

> <Gold.PLP.part.nonpolar>
-34.8642

> <Gold.PLP.part.repulsive>
0.1473

> <Gold.PLP.ligand.clash>
0.0000

> <Gold.PLP.ligand.torsion>
0.1526

> <Gold.PLP.Chemscore.Hbond>
2.0000

> <Gold.PLP.Chemscore.CHOScore>
0.1863

> <Gold.PLP.Chemscore.Metal>
0.0000

> <Gold.Chemscore.Hbonds>
donor molecule, donor type, donor heavy atom, donor atom, acceptor molecule, acceptor atom, score
      L1  H     7    34       P1 10175  1.59

> <Gold.PLP.Chemscore.Internal.Correction>
0.0158

> <Gold.Rescore>
     Score         DG    S(hbond)    S(metal)    S(lipo)     H(rot)  DE(clash)    DE(int)     intcor
     11.84     -13.62       0.99        0.00      83.65       1.93       1.26       0.53       ----

> <Gold.Chemscore.Fitness>
11.8399

> <Gold.Chemscore.DG>
-13.6248

> <Gold.Chemscore.ZeroCoef>
-5.4800

> <Gold.Chemscore.Hbond>
0.9883

> <Gold.Chemscore.Metal>
0.0000

> <Gold.Chemscore.Lipo>
83.6479

> <Gold.Chemscore.Internal_Hbond>
0.0000

> <Gold.Chemscore.DEClash>
1.2594

> <Gold.Chemscore.DEInternal>
0.5254

> <Gold.Chemscore.Rot>
1.9308

> <Gold.Chemscore.Internal.Correction>
   9.000000E+99

> <Gold.Chemscore.Hbonds>
donor molecule, donor type, donor heavy atom, donor atom, acceptor molecule, acceptor atom, score
      L1  H     7    34       P1 10175  0.76

> <Gold.Chemscore.Hbond.Weighted>
-3.3009

> <Gold.Chemscore.Metal.Weighted>
-0.0000

> <Gold.Chemscore.Lipo.Weighted>
-9.7868

> <Gold.Chemscore.Internal_Hbond.Weighted>
0.0000

> <Gold.Chemscore.DEClash.Weighted>
1.2594

> <Gold.Chemscore.DEInternal.Weighted>
0.5254

> <Gold.Chemscore.Rot.Weighted>
4.9429

> <Gold.Chemscore.Internal.Correction.Weighted>
   9.000000E+99

> <Gold.Protein.RotatedTorsions>
[ 6907 6896 6895 6894 ] final -114.46 input  -60.11 | X-H torsion
[ 7974 7965 7964 7962 ] final   -0.72 input  175.53 | X-H torsion
[ 8008 7997 7996 7995 ] final  145.32 input   59.86 | X-H torsion
[ 10167 10162 10161 10158 ] final   88.75 input  -65.29 | X-H torsion
[ 10718 10713 10712 10709 ] final -162.41 input   66.30 | X-H torsion
[ 10763 10752 10751 10750 ] final  -71.93 input  -60.55 | X-H torsion
[ 11005 11000 10999 10996 ] final  134.18 input  -57.11 | X-H torsion

> <Gold.Protein.ActiveResidues>
 VAL166  LYS551  ARG553  GLY616  TRP617  ASP618  TYR619  PRO620  LYS621  CYS622 
 ASP623  PHE694  ASN695  SER759  ASP760  ASP761  ALA762  ILE779  LEU786  VAL792 
 PHE793  MET794  SER795  GLU796  ALA797  LYS798  CYS799  TRP800  GLU811  SER814 

> <Gold.Protein.RotatedAtoms>
  150.7904  133.8797  159.3282 H   0  0  0  0  0  0  0  0  0  0  0  0  # atno 6907 bound_to 6896
  151.6637  135.0984  160.0194 H   0  0  0  0  0  0  0  0  0  0  0  0  # atno 6908 bound_to 6896
  152.3977  133.6732  159.6325 H   0  0  0  0  0  0  0  0  0  0  0  0  # atno 6909 bound_to 6896
  146.2424  140.1312  142.8338 H   0  0  0  0  0  0  0  0  0  0  0  0  # atno 7974 bound_to 7965
  156.2886  140.2212  156.5196 H   0  0  0  0  0  0  0  0  0  0  0  0  # atno 8008 bound_to 7997
  154.7540  140.0478  157.0939 H   0  0  0  0  0  0  0  0  0  0  0  0  # atno 8009 bound_to 7997
  155.0074  140.3109  155.4846 H   0  0  0  0  0  0  0  0  0  0  0  0  # atno 8010 bound_to 7997
  139.8641  144.6528  150.9024 H   0  0  0  0  0  0  0  0  0  0  0  0  # atno 10167 bound_to 10162
  156.6100  130.8846  151.2934 H   0  0  0  0  0  0  0  0  0  0  0  0  # atno 10718 bound_to 10713
  154.4386  135.5946  153.6114 H   0  0  0  0  0  0  0  0  0  0  0  0  # atno 10763 bound_to 10752
  152.9804  135.5992  154.3751 H   0  0  0  0  0  0  0  0  0  0  0  0  # atno 10764 bound_to 10752
  154.3598  135.2841  155.2305 H   0  0  0  0  0  0  0  0  0  0  0  0  # atno 10765 bound_to 10752
  139.9898  134.9519  156.9830 H   0  0  0  0  0  0  0  0  0  0  0  0  # atno 11005 bound_to 11000
  145.0325  140.8882  143.5101 LP  0  0  0  0  0  0  0  0  0  0  0  0  # atno 17320 bound_to 7965
  145.1378  139.2591  143.5506 LP  0  0  0  0  0  0  0  0  0  0  0  0  # atno 17321 bound_to 7965
  140.7770  143.3719  151.1634 LP  0  0  0  0  0  0  0  0  0  0  0  0  # atno 17342 bound_to 10162
  139.7345  143.9020  152.3030 LP  0  0  0  0  0  0  0  0  0  0  0  0  # atno 17343 bound_to 10162
  157.7257  130.9619  150.1624 LP  0  0  0  0  0  0  0  0  0  0  0  0  # atno 17370 bound_to 10713
  156.2398  130.3690  149.8350 LP  0  0  0  0  0  0  0  0  0  0  0  0  # atno 17371 bound_to 10713
  140.4930  134.1174  155.7236 LP  0  0  0  0  0  0  0  0  0  0  0  0  # atno 17394 bound_to 11000
  141.1556  133.8888  157.1985 LP  0  0  0  0  0  0  0  0  0  0  0  0  # atno 17395 bound_to 11000

$$$$
