AV-unprocessed.smi:1637|AV-procd|sdf|6545|dock8
  -GOLD-   22720 7233D 1   1.00000     0.00000
 Structure written by MMmdl.
 38 39  0  0  0  0  0  0  0  0  1 V2000
  153.6558  131.4985  157.7614 C   0  0  0  0  0  0  0  0  0  0  0  0
  153.0662  132.7932  157.7115 O   0  0  0  0  0  0  0  0  0  0  0  0
  152.1189  133.0444  156.7403 C   0  0  0  0  0  0  0  0  0  0  0  0
  151.5383  131.9523  156.0662 C   0  0  0  0  0  0  0  0  0  0  0  0
  150.5677  132.1985  155.0761 C   0  0  0  0  0  0  0  0  0  0  0  0
  150.2100  133.5376  154.7859 C   0  0  0  0  0  0  0  0  0  0  0  0
  149.2398  133.9328  153.8237 N   0  0  0  0  0  0  0  0  0  0  0  0
  148.1380  133.2869  153.4044 C   0  0  0  0  0  0  0  0  0  0  0  0
  147.7747  132.1714  153.7753 O   0  0  0  0  0  0  0  0  0  0  0  0
  147.4671  134.0191  152.5035 N   0  0  0  0  0  0  0  0  0  0  0  0
  146.2343  133.6201  151.8219 C   0  0  1  0  0  0  0  0  0  0  0  0
  146.5362  132.5209  150.7786 C   0  0  0  0  0  0  0  0  0  0  0  0
  145.4855  132.4117  149.6620 C   0  0  0  0  0  0  0  0  0  0  0  0
  144.0778  132.0202  150.1354 C   0  0  0  0  0  0  0  0  0  0  0  0
  143.4137  133.0757  151.0361 C   0  0  0  0  0  0  0  0  0  0  0  0
  143.8941  133.0200  152.4113 N   0  0  0  0  0  0  0  0  0  0  0  0
  145.1450  133.2410  152.8429 C   0  0  0  0  0  0  0  0  0  0  0  0
  145.4210  133.1350  154.0378 O   0  0  0  0  0  0  0  0  0  0  0  0
  150.8488  134.5580  155.5209 C   0  0  0  0  0  0  0  0  0  0  0  0
  151.7788  134.3290  156.4717 N   0  0  0  0  0  0  0  0  0  0  0  0
  154.3754  131.4616  158.5789 H   0  0  0  0  0  0  0  0  0  0  0  0
  154.1909  131.2688  156.8389 H   0  0  0  0  0  0  0  0  0  0  0  0
  152.9081  130.7255  157.9443 H   0  0  0  0  0  0  0  0  0  0  0  0
  151.8296  130.9406  156.3075 H   0  0  0  0  0  0  0  0  0  0  0  0
  150.1210  131.3547  154.5755 H   0  0  0  0  0  0  0  0  0  0  0  0
  149.4153  134.8251  153.3852 H   0  0  0  0  0  0  0  0  0  0  0  0
  147.8440  134.9209  152.2500 H   0  0  0  0  0  0  0  0  0  0  0  0
  145.8637  134.5020  151.2957 H   0  0  0  0  0  0  0  0  0  0  0  0
  147.4946  132.7263  150.2999 H   0  0  0  0  0  0  0  0  0  0  0  0
  146.6570  131.5565  151.2744 H   0  0  0  0  0  0  0  0  0  0  0  0
  145.4369  133.3547  149.1159 H   0  0  0  0  0  0  0  0  0  0  0  0
  145.8262  131.6690  148.9399 H   0  0  0  0  0  0  0  0  0  0  0  0
  143.4534  131.8830  149.2518 H   0  0  0  0  0  0  0  0  0  0  0  0
  144.1004  131.0520  150.6375 H   0  0  0  0  0  0  0  0  0  0  0  0
  143.5400  134.0796  150.6282 H   0  0  0  0  0  0  0  0  0  0  0  0
  142.3396  132.8922  151.0675 H   0  0  0  0  0  0  0  0  0  0  0  0
  143.2074  132.7754  153.1101 H   0  0  0  0  0  0  0  0  0  0  0  0
  150.6065  135.5955  155.3420 H   0  0  0  0  0  0  0  0  0  0  0  0
  1  2  1  0  0  0  0
  1 21  1  0  0  0  0
  1 22  1  0  0  0  0
  1 23  1  0  0  0  0
  2  3  1  0  0  0  0
  3 20  1  0  0  0  0
  3  4  2  0  0  0  0
  4  5  1  0  0  0  0
  4 24  1  0  0  0  0
  5  6  2  0  0  0  0
  5 25  1  0  0  0  0
  6  7  1  0  0  0  0
  6 19  1  0  0  0  0
  7  8  1  0  0  0  0
  7 26  1  0  0  0  0
  8  9  2  0  0  0  0
  8 10  1  0  0  0  0
 10 11  1  0  0  0  0
 10 27  1  0  0  0  0
 11 17  1  0  0  0  0
 11 12  1  0  0  0  0
 11 28  1  0  0  0  0
 12 13  1  0  0  0  0
 12 29  1  0  0  0  0
 12 30  1  0  0  0  0
 13 14  1  0  0  0  0
 13 31  1  0  0  0  0
 13 32  1  0  0  0  0
 14 15  1  0  0  0  0
 14 33  1  0  0  0  0
 14 34  1  0  0  0  0
 15 16  1  0  0  0  0
 15 35  1  0  0  0  0
 15 36  1  0  0  0  0
 16 17  1  0  0  0  0
 16 37  1  0  0  0  0
 17 18  2  0  0  0  0
 19 20  2  0  0  0  0
 19 38  1  0  0  0  0
M  END
> <s_m_source_file>
AV-unprocessed.smi

> <i_m_source_file_index>
1637

> <i_lp_mmshare_version>
43012

> <i_f3d_flags>
0

> <s_epik_input>
W0NIM11PYzFbY0hdW2NIXWMoW2NIXW4xKVtOSF1DKD1PKVtOSF1bQ0BASF0yW0NIMl1bQ0gyXVtDSDJdW0NIMl1bTkhdQzI9Tw==

> <s_epik_cmdline>
J2VwaWtfcHl0aG9uJywgJy1waCcsICc3LjAnLCAnLXRuJywgJzgnLCAnLW1hJywgJzIwMCcsICctbWV0YWxfYmluZGluZycsICctaW1hZScsICc8aW5maWxlLm1hZT4nLCAnLW9tYWUnLCAnPG91dGZpbGUubWFlPic=

> <r_lp_tautomer_probability>
1

> <r_epik_Ionization_Penalty>
8.30847e-05

> <r_epik_Ionization_Penalty_Charging>
0

> <r_epik_Ionization_Penalty_Neutral>
8.30847e-05

> <r_epik_State_Penalty>
-0

> <r_epik_Charging_Adjusted_Penalty>
0

> <i_epik_Tot_Q>
0

> <i_epik_Tot_abs_Q>
0

> <r_epik_Metal_State_Penalty>
-0

> <b_epik_Metal_Only>
0

> <s_lp_Force_Field>
OPLS_2005

> <r_lp_Energy>
13.0177

> <b_lp_Chiralities_Consistent>
1

> <s_lp_Variant>
AV-unprocessed.smi:1637-2

> <Gold.Version>
5.8.1

> <Gold.Id.Protein>
6NUR|6NUR_protein|mol2

> <Gold.PLP.Fitness>
37.5455

> <Gold.PLP.PLP>
-27.7383

> <Gold.PLP.part.hbond>
-4.7414

> <Gold.PLP.part.metal>
0.0000

> <Gold.PLP.part.buried>
-0.3586

> <Gold.PLP.part.nonpolar>
-22.9994

> <Gold.PLP.part.repulsive>
0.2300

> <Gold.PLP.ligand.clash>
0.0000

> <Gold.PLP.ligand.torsion>
0.4640

> <Gold.PLP.Chemscore.Hbond>
3.5692

> <Gold.PLP.Chemscore.CHOScore>
0.0000

> <Gold.PLP.Chemscore.Metal>
0.0000

> <Gold.Chemscore.Hbonds>
donor molecule, donor type, donor heavy atom, donor atom, acceptor molecule, acceptor atom, score
      L1  H     7    26       P1  7948  0.44
      L1  H    10    27       P1  7948  1.00
      L1  H    16    37       P1 10957  1.00
      P1  H  6896  6908       L1     2  1.00
      P1  H 10752 10764       L1    20  0.17

> <Gold.PLP.Chemscore.Internal.Correction>
0.0275

> <Gold.Rescore>
     Score         DG    S(hbond)    S(metal)    S(lipo)     H(rot)  DE(clash)    DE(int)     intcor
     12.46     -16.93       2.14        0.00      65.31       1.31       0.72       3.74       ----

> <Gold.Chemscore.Fitness>
12.4643

> <Gold.Chemscore.DG>
-16.9271

> <Gold.Chemscore.ZeroCoef>
-5.4800

> <Gold.Chemscore.Hbond>
2.1429

> <Gold.Chemscore.Metal>
0.0000

> <Gold.Chemscore.Lipo>
65.3067

> <Gold.Chemscore.Internal_Hbond>
0.0000

> <Gold.Chemscore.DEClash>
0.7208

> <Gold.Chemscore.DEInternal>
3.7420

> <Gold.Chemscore.Rot>
1.3090

> <Gold.Chemscore.Internal.Correction>
   9.000000E+99

> <Gold.Chemscore.Hbonds>
donor molecule, donor type, donor heavy atom, donor atom, acceptor molecule, acceptor atom, score
      L1  H     7    26       P1  7948  0.02
      L1  H    10    27       P1  7948  0.78
      L1  H    16    37       P1 10957  0.32
      P1  H  6896  6908       L1     2  0.37
      P1  H 10752 10764       L1    20  0.01

> <Gold.Chemscore.Hbond.Weighted>
-7.1571

> <Gold.Chemscore.Metal.Weighted>
-0.0000

> <Gold.Chemscore.Lipo.Weighted>
-7.6409

> <Gold.Chemscore.Internal_Hbond.Weighted>
0.0000

> <Gold.Chemscore.DEClash.Weighted>
0.7208

> <Gold.Chemscore.DEInternal.Weighted>
3.7420

> <Gold.Chemscore.Rot.Weighted>
3.3509

> <Gold.Chemscore.Internal.Correction.Weighted>
   9.000000E+99

> <Gold.Protein.RotatedTorsions>
[ 6907 6896 6895 6894 ] final   27.99 input  -60.11 | X-H torsion
[ 7974 7965 7964 7962 ] final  -10.52 input  175.53 | X-H torsion
[ 8008 7997 7996 7995 ] final  -43.72 input   59.86 | X-H torsion
[ 10167 10162 10161 10158 ] final   36.15 input  -65.29 | X-H torsion
[ 10718 10713 10712 10709 ] final   51.89 input   66.30 | X-H torsion
[ 10763 10752 10751 10750 ] final  -11.57 input  -60.55 | X-H torsion
[ 11005 11000 10999 10996 ] final   47.05 input  -57.11 | X-H torsion

> <Gold.Protein.ActiveResidues>
 VAL166  LYS551  ARG553  GLY616  TRP617  ASP618  TYR619  PRO620  LYS621  CYS622 
 ASP623  PHE694  ASN695  SER759  ASP760  ASP761  ALA762  ILE779  LEU786  VAL792 
 PHE793  MET794  SER795  GLU796  ALA797  LYS798  CYS799  TRP800  GLU811  SER814 

> <Gold.Protein.RotatedAtoms>
  152.0104  134.9879  160.0567 H   0  0  0  0  0  0  0  0  0  0  0  0  # atno 6907 bound_to 6896
  152.1434  133.4473  159.4786 H   0  0  0  0  0  0  0  0  0  0  0  0  # atno 6908 bound_to 6896
  150.6867  134.2196  159.4434 H   0  0  0  0  0  0  0  0  0  0  0  0  # atno 6909 bound_to 6896
  146.2218  140.2776  142.8360 H   0  0  0  0  0  0  0  0  0  0  0  0  # atno 7974 bound_to 7965
  154.3997  140.1440  156.3565 H   0  0  0  0  0  0  0  0  0  0  0  0  # atno 8008 bound_to 7997
  155.8220  140.3469  155.5499 H   0  0  0  0  0  0  0  0  0  0  0  0  # atno 8009 bound_to 7997
  155.8277  140.0907  157.1801 H   0  0  0  0  0  0  0  0  0  0  0  0  # atno 8010 bound_to 7997
  140.4155  144.1533  150.6143 H   0  0  0  0  0  0  0  0  0  0  0  0  # atno 10167 bound_to 10162
  157.5024  130.8446  149.8332 H   0  0  0  0  0  0  0  0  0  0  0  0  # atno 10718 bound_to 10713
  153.4858  135.7017  153.5912 H   0  0  0  0  0  0  0  0  0  0  0  0  # atno 10763 bound_to 10752
  153.4106  135.3849  155.2048 H   0  0  0  0  0  0  0  0  0  0  0  0  # atno 10764 bound_to 10752
  154.8719  135.3903  154.4312 H   0  0  0  0  0  0  0  0  0  0  0  0  # atno 10765 bound_to 10752
  140.1314  134.4701  155.8519 H   0  0  0  0  0  0  0  0  0  0  0  0  # atno 11005 bound_to 11000
  144.9221  140.7880  143.5742 LP  0  0  0  0  0  0  0  0  0  0  0  0  # atno 17320 bound_to 7965
  145.2713  139.1953  143.4840 LP  0  0  0  0  0  0  0  0  0  0  0  0  # atno 17321 bound_to 7965
  140.4591  143.2456  151.9244 LP  0  0  0  0  0  0  0  0  0  0  0  0  # atno 17342 bound_to 10162
  139.4782  144.5485  151.8421 LP  0  0  0  0  0  0  0  0  0  0  0  0  # atno 17343 bound_to 10162
  156.0237  130.3787  150.1886 LP  0  0  0  0  0  0  0  0  0  0  0  0  # atno 17370 bound_to 10713
  157.0076  130.9941  151.3374 LP  0  0  0  0  0  0  0  0  0  0  0  0  # atno 17371 bound_to 10713
  141.2171  133.6797  156.7075 LP  0  0  0  0  0  0  0  0  0  0  0  0  # atno 17394 bound_to 11000
  140.2838  134.8295  157.3957 LP  0  0  0  0  0  0  0  0  0  0  0  0  # atno 17395 bound_to 11000

$$$$
