AV-unprocessed.smi:39|AV-procd|sdf|358|dock4
  -GOLD-   2262016193D 1   1.00000     0.00000
 Structure written by MMmdl.
 32 33  0  0  0  0  0  0  0  0  3 V2000
  153.0254  143.4626  160.0614 C   0  0  0  0  0  0  0  0  0  0  0  0
  152.2784  142.7764  158.9296 C   0  0  0  0  0  0  0  0  0  0  0  0
  152.4135  141.4514  158.6664 C   0  0  0  0  0  0  0  0  0  0  0  0
  151.7414  140.7967  157.6428 N   0  0  0  0  0  0  0  0  0  0  0  0
  151.9176  139.3135  157.4085 C   0  0  2  0  0  0  0  0  0  0  0  0
  150.6027  138.5693  157.6703 C   0  0  0  0  0  0  0  0  0  0  0  0
  150.8713  137.9246  159.0210 C   0  0  1  0  0  0  0  0  0  0  0  0
  150.0385  136.7441  159.3054 N   0  0  0  0  0  0  0  0  0  0  0  0
  149.1490  136.8427  160.1633 N   0  3  0  0  0  0  0  0  0  0  0  0
  148.4232  136.9197  161.0363 N   0  5  0  0  0  0  0  0  0  0  0  0
  152.3811  137.6548  158.9482 C   0  0  2  0  0  0  0  0  0  0  0  0
  153.0447  137.4974  160.3249 C   0  0  0  0  0  0  0  0  0  0  0  0
  153.8273  136.3233  160.3522 O   0  0  0  0  0  0  0  0  0  0  0  0
  152.8744  138.8248  158.3030 O   0  0  0  0  0  0  0  0  0  0  0  0
  150.8428  141.5212  156.8323 C   0  0  0  0  0  0  0  0  0  0  0  0
  150.1860  141.0029  155.9303 O   0  0  0  0  0  0  0  0  0  0  0  0
  150.7092  142.8828  157.0976 N   0  0  0  0  0  0  0  0  0  0  0  0
  151.3764  143.5848  158.1044 C   0  0  0  0  0  0  0  0  0  0  0  0
  151.1756  144.7908  158.2393 O   0  0  0  0  0  0  0  0  0  0  0  0
  152.2932  139.1874  156.3917 H   0  0  0  0  0  0  0  0  0  0  0  0
  150.6925  138.6761  159.7911 H   0  0  0  0  0  0  0  0  0  0  0  0
  152.5856  136.7926  158.3105 H   0  0  0  0  0  0  0  0  0  0  0  0
  150.0716  143.4059  156.5155 H   0  0  0  0  0  0  0  0  0  0  0  0
  153.6689  142.7676  160.6016 H   0  0  0  0  0  0  0  0  0  0  0  0
  152.3222  143.8912  160.7766 H   0  0  0  0  0  0  0  0  0  0  0  0
  153.6523  144.2661  159.6733 H   0  0  0  0  0  0  0  0  0  0  0  0
  153.0788  140.8789  159.2956 H   0  0  0  0  0  0  0  0  0  0  0  0
  149.7415  139.2390  157.6696 H   0  0  0  0  0  0  0  0  0  0  0  0
  150.4692  137.8285  156.8811 H   0  0  0  0  0  0  0  0  0  0  0  0
  153.6524  138.3674  160.5754 H   0  0  0  0  0  0  0  0  0  0  0  0
  152.2840  137.3992  161.0997 H   0  0  0  0  0  0  0  0  0  0  0  0
  154.5516  136.4303  159.7544 H   0  0  0  0  0  0  0  0  0  0  0  0
  1  2  1  0  0  0  0
  1 24  1  0  0  0  0
  1 25  1  0  0  0  0
  1 26  1  0  0  0  0
  2 18  1  0  0  0  0
  2  3  2  0  0  0  0
  3  4  1  0  0  0  0
  3 27  1  0  0  0  0
  4  5  1  0  0  0  0
  4 15  1  0  0  0  0
  5 20  1  0  0  0  0
  5 14  1  0  0  0  0
  5  6  1  0  0  0  0
  6  7  1  0  0  0  0
  6 28  1  0  0  0  0
  6 29  1  0  0  0  0
  7 21  1  0  0  0  0
  7  8  1  0  0  0  0
  7 11  1  0  0  0  0
  8  9  2  0  0  0  0
  9 10  2  0  0  0  0
 11 22  1  0  0  0  0
 11 12  1  0  0  0  0
 11 14  1  0  0  0  0
 12 13  1  0  0  0  0
 12 30  1  0  0  0  0
 12 31  1  0  0  0  0
 13 32  1  0  0  0  0
 15 16  2  0  0  0  0
 15 17  1  0  0  0  0
 17 23  1  0  0  0  0
 17 18  1  0  0  0  0
 18 19  2  0  0  0  0
M  CHG  1   9   1
M  CHG  1  10  -1
M  END
> <s_m_source_file>
AV-unprocessed.smi

> <i_m_source_file_index>
39

> <i_lp_mmshare_version>
43012

> <i_f3d_flags>
0

> <s_epik_input>
Tz1jMVtuSF1jKD1PKW4oW2NIXWMxW0NIM10pW0NASF0yW0NIMl1bQ0BIXShOPVtOK109W04tXSlbQ0BIXShPMilbQ0gyXVtPSF0=

> <s_epik_cmdline>
J2VwaWtfcHl0aG9uJywgJy1waCcsICc3LjAnLCAnLXRuJywgJzgnLCAnLW1hJywgJzIwMCcsICctbWV0YWxfYmluZGluZycsICctaW1hZScsICc8aW5maWxlLm1hZT4nLCAnLW9tYWUnLCAnPG91dGZpbGUubWFlPic=

> <r_lp_tautomer_probability>
0.999537

> <r_epik_Ionization_Penalty>
0.00127512

> <r_epik_Ionization_Penalty_Charging>
0.00127507

> <r_epik_Ionization_Penalty_Neutral>
5.43433e-08

> <r_epik_State_Penalty>
0.000844892

> <r_epik_Charging_Adjusted_Penalty>
0.00211996

> <i_epik_Tot_Q>
0

> <i_epik_Tot_abs_Q>
2

> <r_epik_Metal_State_Penalty>
0.680636

> <b_epik_Metal_Only>
0

> <s_epik_Chemistry_Notes>
This compound contains an acetal/aminal-like group ( X-CH(R)-Y where X, Y are N, S, or O) that may be acid/base labile, releasing an aldehyde.

> <s_lp_Force_Field>
OPLS_2005

> <r_lp_Energy>
25.9236

> <b_lp_Chiralities_Consistent>
1

> <s_lp_Variant>
AV-unprocessed.smi:39-8

> <Gold.Version>
5.8.1

> <Gold.Id.Protein>
6NUR|6NUR_protein|mol2

> <Gold.PLP.Fitness>
40.2041

> <Gold.PLP.PLP>
-30.9798

> <Gold.PLP.part.hbond>
-5.3451

> <Gold.PLP.part.metal>
0.0000

> <Gold.PLP.part.buried>
-6.7292

> <Gold.PLP.part.nonpolar>
-20.3280

> <Gold.PLP.part.repulsive>
0.2405

> <Gold.PLP.ligand.clash>
0.0000

> <Gold.PLP.ligand.torsion>
0.8825

> <Gold.PLP.Chemscore.Hbond>
3.6563

> <Gold.PLP.Chemscore.CHOScore>
0.0000

> <Gold.PLP.Chemscore.Metal>
0.0000

> <Gold.Chemscore.Hbonds>
donor molecule, donor type, donor heavy atom, donor atom, acceptor molecule, acceptor atom, score
      L1  H    17    23       P1  8028  1.00
      P1  H  6896  6907       L1     8  0.63
      P1  H  6896  6908       L1    13  0.67
      P1  H  6931  6943       L1    10  1.00

> <Gold.PLP.Chemscore.Internal.Correction>
0.0204

> <Gold.Rescore>
     Score         DG    S(hbond)    S(metal)    S(lipo)     H(rot)  DE(clash)    DE(int)     intcor
     12.65     -14.60       3.12        0.00      49.01       2.75       0.16       1.79       ----

> <Gold.Chemscore.Fitness>
12.6514

> <Gold.Chemscore.DG>
-14.6031

> <Gold.Chemscore.ZeroCoef>
-5.4800

> <Gold.Chemscore.Hbond>
3.1244

> <Gold.Chemscore.Metal>
0.0000

> <Gold.Chemscore.Lipo>
49.0077

> <Gold.Chemscore.Internal_Hbond>
0.0000

> <Gold.Chemscore.DEClash>
0.1597

> <Gold.Chemscore.DEInternal>
1.7921

> <Gold.Chemscore.Rot>
2.7524

> <Gold.Chemscore.Internal.Correction>
   9.000000E+99

> <Gold.Chemscore.Hbonds>
donor molecule, donor type, donor heavy atom, donor atom, acceptor molecule, acceptor atom, score
      L1  H    17    23       P1  8028  0.99
      P1  H  6896  6907       L1     8  0.21
      P1  H  6896  6908       L1    13  0.32
      P1  H  6931  6943       L1    10  0.34
      P1  H  6934  6947       L1    10  0.03

> <Gold.Chemscore.Hbond.Weighted>
-10.4354

> <Gold.Chemscore.Metal.Weighted>
-0.0000

> <Gold.Chemscore.Lipo.Weighted>
-5.7339

> <Gold.Chemscore.Internal_Hbond.Weighted>
0.0000

> <Gold.Chemscore.DEClash.Weighted>
0.1597

> <Gold.Chemscore.DEInternal.Weighted>
1.7921

> <Gold.Chemscore.Rot.Weighted>
7.0461

> <Gold.Chemscore.Internal.Correction.Weighted>
   9.000000E+99

> <Gold.Protein.RotatedTorsions>
[ 6907 6896 6895 6894 ] final  -61.37 input  -60.11 | X-H torsion
[ 7974 7965 7964 7962 ] final  -81.19 input  175.53 | X-H torsion
[ 8008 7997 7996 7995 ] final  -71.84 input   59.86 | X-H torsion
[ 10167 10162 10161 10158 ] final -100.18 input  -65.29 | X-H torsion
[ 10718 10713 10712 10709 ] final  124.39 input   66.30 | X-H torsion
[ 10763 10752 10751 10750 ] final  132.06 input  -60.55 | X-H torsion
[ 11005 11000 10999 10996 ] final  -80.72 input  -57.11 | X-H torsion

> <Gold.Protein.ActiveResidues>
 VAL166  LYS551  ARG553  GLY616  TRP617  ASP618  TYR619  PRO620  LYS621  CYS622 
 ASP623  PHE694  ASN695  SER759  ASP760  ASP761  ALA762  ILE779  LEU786  VAL792 
 PHE793  MET794  SER795  GLU796  ALA797  LYS798  CYS799  TRP800  GLU811  SER814 

> <Gold.Protein.RotatedAtoms>
  150.7789  134.6713  159.6392 H   0  0  0  0  0  0  0  0  0  0  0  0  # atno 6907 bound_to 6896
  152.3868  134.6501  160.0131 H   0  0  0  0  0  0  0  0  0  0  0  0  # atno 6908 bound_to 6896
  151.6814  133.3275  159.3256 H   0  0  0  0  0  0  0  0  0  0  0  0  # atno 6909 bound_to 6896
  145.5499  140.9498  143.1505 H   0  0  0  0  0  0  0  0  0  0  0  0  # atno 7974 bound_to 7965
  154.5119  140.0808  156.8006 H   0  0  0  0  0  0  0  0  0  0  0  0  # atno 8008 bound_to 7997
  155.3767  140.3425  155.4227 H   0  0  0  0  0  0  0  0  0  0  0  0  # atno 8009 bound_to 7997
  156.1583  140.1580  156.8643 H   0  0  0  0  0  0  0  0  0  0  0  0  # atno 8010 bound_to 7997
  140.2546  143.3449  152.0683 H   0  0  0  0  0  0  0  0  0  0  0  0  # atno 10167 bound_to 10162
  157.5589  131.1090  150.8574 H   0  0  0  0  0  0  0  0  0  0  0  0  # atno 10718 bound_to 10713
  153.7845  135.3164  155.3370 H   0  0  0  0  0  0  0  0  0  0  0  0  # atno 10763 bound_to 10752
  154.8149  135.4643  154.0619 H   0  0  0  0  0  0  0  0  0  0  0  0  # atno 10764 bound_to 10752
  153.1918  135.6909  153.8429 H   0  0  0  0  0  0  0  0  0  0  0  0  # atno 10765 bound_to 10752
  141.1667  133.7163  156.8315 H   0  0  0  0  0  0  0  0  0  0  0  0  # atno 11005 bound_to 11000
  144.7535  139.7134  143.7263 LP  0  0  0  0  0  0  0  0  0  0  0  0  # atno 17320 bound_to 7965
  146.1924  139.5171  142.9796 LP  0  0  0  0  0  0  0  0  0  0  0  0  # atno 17321 bound_to 7965
  139.5035  144.6757  151.6133 LP  0  0  0  0  0  0  0  0  0  0  0  0  # atno 17342 bound_to 10162
  140.6014  143.9603  150.6388 LP  0  0  0  0  0  0  0  0  0  0  0  0  # atno 17343 bound_to 10162
  156.9077  130.5269  149.5281 LP  0  0  0  0  0  0  0  0  0  0  0  0  # atno 17370 bound_to 10713
  156.0644  130.5690  150.9258 LP  0  0  0  0  0  0  0  0  0  0  0  0  # atno 17371 bound_to 10713
  140.2047  134.8871  157.3208 LP  0  0  0  0  0  0  0  0  0  0  0  0  # atno 17394 bound_to 11000
  140.2150  134.4093  155.7594 LP  0  0  0  0  0  0  0  0  0  0  0  0  # atno 17395 bound_to 11000

$$$$
