AV-unprocessed.smi:132|AV-procd|sdf|1164|dock9
  -GOLD-   2262018303D 1   1.00000     0.00000
 Structure written by MMmdl.
 41 44  0  0  0  0  0  0  0  0  1 V2000
  149.7942  135.3122  155.8052 O   0  0  0  0  0  0  0  0  0  0  0  0
  149.1464  135.5330  156.8298 C   0  0  0  0  0  0  0  0  0  0  0  0
  148.7209  134.4863  157.7527 C   0  0  0  0  0  0  0  0  0  0  0  0
  149.0116  133.2027  157.4819 F   0  0  0  0  0  0  0  0  0  0  0  0
  148.0356  134.7854  158.8774 C   0  0  0  0  0  0  0  0  0  0  0  0
  147.6965  136.0788  159.2345 N   0  0  0  0  0  0  0  0  0  0  0  0
  146.9318  136.3530  160.5083 C   0  0  1  0  0  0  0  0  0  0  0  0
  146.4671  135.0435  161.1561 C   0  0  0  0  0  0  0  0  0  0  0  0
  146.7174  135.3207  162.6227 C   0  0  0  0  0  0  0  0  0  0  0  0
  147.9698  136.1860  162.5627 C   0  0  0  0  0  0  0  0  0  0  0  0
  147.7716  137.0075  161.4163 O   0  0  0  0  0  0  0  0  0  0  0  0
  148.0501  137.1553  158.3916 C   0  0  0  0  0  0  0  0  0  0  0  0
  147.7510  138.3150  158.6845 O   0  0  0  0  0  0  0  0  0  0  0  0
  148.7612  136.8429  157.2077 N   0  0  0  0  0  0  0  0  0  0  0  0
  149.1688  137.9370  156.3397 C   0  0  0  0  0  0  0  0  0  0  0  0
  150.3047  138.7129  156.9357 C   0  0  0  0  0  0  0  0  0  0  0  0
  151.5668  138.3054  157.0753 N   0  0  0  0  0  0  0  0  0  0  0  0
  152.2355  139.3533  157.6657 N   0  0  0  0  0  0  0  0  0  0  0  0
  151.3305  140.3218  157.8434 C   0  0  0  0  0  0  0  0  0  0  0  0
  151.5193  141.6438  158.4376 C   0  0  0  0  0  0  0  0  0  0  0  0
  152.7019  141.9583  159.1459 C   0  0  0  0  0  0  0  0  0  0  0  0
  152.8730  143.2358  159.7140 C   0  0  0  0  0  0  0  0  0  0  0  0
  151.8631  144.2081  159.5825 C   0  0  0  0  0  0  0  0  0  0  0  0
  152.0733  145.7730  160.2785 Cl  0  0  0  0  0  0  0  0  0  0  0  0
  150.6809  143.9012  158.8824 C   0  0  0  0  0  0  0  0  0  0  0  0
  150.5100  142.6247  158.3124 C   0  0  0  0  0  0  0  0  0  0  0  0
  150.0944  139.9750  157.3943 O   0  0  0  0  0  0  0  0  0  0  0  0
  147.7434  133.9696  159.5201 H   0  0  0  0  0  0  0  0  0  0  0  0
  146.1145  137.0334  160.2669 H   0  0  0  0  0  0  0  0  0  0  0  0
  145.4246  134.8319  160.9169 H   0  0  0  0  0  0  0  0  0  0  0  0
  147.0884  134.2136  160.8157 H   0  0  0  0  0  0  0  0  0  0  0  0
  145.8877  135.8884  163.0455 H   0  0  0  0  0  0  0  0  0  0  0  0
  146.8517  134.4143  163.2136 H   0  0  0  0  0  0  0  0  0  0  0  0
  148.1099  136.7850  163.4627 H   0  0  0  0  0  0  0  0  0  0  0  0
  148.8568  135.5672  162.4244 H   0  0  0  0  0  0  0  0  0  0  0  0
  149.4485  137.5128  155.3737 H   0  0  0  0  0  0  0  0  0  0  0  0
  148.3151  138.5879  156.1487 H   0  0  0  0  0  0  0  0  0  0  0  0
  153.4896  141.2274  159.2567 H   0  0  0  0  0  0  0  0  0  0  0  0
  153.7811  143.4687  160.2505 H   0  0  0  0  0  0  0  0  0  0  0  0
  149.9033  144.6441  158.7811 H   0  0  0  0  0  0  0  0  0  0  0  0
  149.5967  142.4050  157.7790 H   0  0  0  0  0  0  0  0  0  0  0  0
  1  2  2  0  0  0  0
  2 14  1  0  0  0  0
  2  3  1  0  0  0  0
  3  4  1  0  0  0  0
  3  5  2  0  0  0  0
  5  6  1  0  0  0  0
  5 28  1  0  0  0  0
  6  7  1  0  0  0  0
  6 12  1  0  0  0  0
  7 11  1  0  0  0  0
  7  8  1  0  0  0  0
  7 29  1  0  0  0  0
  8  9  1  0  0  0  0
  8 30  1  0  0  0  0
  8 31  1  0  0  0  0
  9 10  1  0  0  0  0
  9 32  1  0  0  0  0
  9 33  1  0  0  0  0
 10 11  1  0  0  0  0
 10 34  1  0  0  0  0
 10 35  1  0  0  0  0
 12 13  2  0  0  0  0
 12 14  1  0  0  0  0
 14 15  1  0  0  0  0
 15 16  1  0  0  0  0
 15 36  1  0  0  0  0
 15 37  1  0  0  0  0
 16 27  1  0  0  0  0
 16 17  2  0  0  0  0
 17 18  1  0  0  0  0
 18 19  2  0  0  0  0
 19 20  1  0  0  0  0
 19 27  1  0  0  0  0
 20 26  1  0  0  0  0
 20 21  2  0  0  0  0
 21 22  1  0  0  0  0
 21 38  1  0  0  0  0
 22 23  2  0  0  0  0
 22 39  1  0  0  0  0
 23 24  1  0  0  0  0
 23 25  1  0  0  0  0
 25 26  2  0  0  0  0
 25 40  1  0  0  0  0
 26 41  1  0  0  0  0
M  END
> <s_m_source_file>
AV-unprocessed.smi

> <i_m_source_file_index>
132

> <i_lp_mmshare_version>
43012

> <i_f3d_flags>
0

> <s_epik_input>
TzFbQ0gyXVtDSDJdW0NIMl1bQ0BIXTFuKFtjSF1jKEYpYzI9TyljKD1PKW4yW0NIMl1jM25uYyhvMyktYzRbY0hdW2NIXWMoQ2wpW2NIXVtjSF00

> <s_epik_cmdline>
J2VwaWtfcHl0aG9uJywgJy1waCcsICc3LjAnLCAnLXRuJywgJzgnLCAnLW1hJywgJzIwMCcsICctbWV0YWxfYmluZGluZycsICctaW1hZScsICc8aW5maWxlLm1hZT4nLCAnLW9tYWUnLCAnPG91dGZpbGUubWFlPic=

> <r_lp_tautomer_probability>
1

> <r_epik_Ionization_Penalty>
2.5553e-09

> <r_epik_Ionization_Penalty_Charging>
2.54231e-09

> <r_epik_Ionization_Penalty_Neutral>
1.29923e-11

> <r_epik_State_Penalty>
-0

> <r_epik_Charging_Adjusted_Penalty>
2.54231e-09

> <i_epik_Tot_Q>
0

> <i_epik_Tot_abs_Q>
0

> <r_epik_Metal_State_Penalty>
-0

> <b_epik_Metal_Only>
0

> <s_epik_Chemistry_Notes>
This compound contains an acetal/aminal-like group ( X-CH(R)-Y where X, Y are N, S, or O) that may be acid/base labile, releasing an aldehyde.

> <s_lp_Force_Field>
OPLS_2005

> <r_lp_Energy>
32.8563

> <b_lp_Chiralities_Consistent>
1

> <s_lp_Variant>
AV-unprocessed.smi:132-2

> <Gold.Version>
5.8.1

> <Gold.Id.Protein>
6NUR|6NUR_protein|mol2

> <Gold.PLP.Fitness>
45.0577

> <Gold.PLP.PLP>
-41.9648

> <Gold.PLP.part.hbond>
-3.0000

> <Gold.PLP.part.metal>
0.0000

> <Gold.PLP.part.buried>
-5.2142

> <Gold.PLP.part.nonpolar>
-33.5399

> <Gold.PLP.part.repulsive>
0.0483

> <Gold.PLP.ligand.clash>
0.0000

> <Gold.PLP.ligand.torsion>
0.4922

> <Gold.PLP.Chemscore.Hbond>
1.3507

> <Gold.PLP.Chemscore.CHOScore>
0.0000

> <Gold.PLP.Chemscore.Metal>
0.0000

> <Gold.Chemscore.Hbonds>
donor molecule, donor type, donor heavy atom, donor atom, acceptor molecule, acceptor atom, score
      P1  H  6931  6943       L1    11  0.75
      P1  H  6934  6947       L1    11  0.50

> <Gold.PLP.Chemscore.Internal.Correction>
0.0253

> <Gold.Rescore>
     Score         DG    S(hbond)    S(metal)    S(lipo)     H(rot)  DE(clash)    DE(int)     intcor
     14.70     -15.93       0.94        0.00      99.66       1.70       0.05       1.18       ----

> <Gold.Chemscore.Fitness>
14.6987

> <Gold.Chemscore.DG>
-15.9257

> <Gold.Chemscore.ZeroCoef>
-5.4800

> <Gold.Chemscore.Hbond>
0.9377

> <Gold.Chemscore.Metal>
0.0000

> <Gold.Chemscore.Lipo>
99.6649

> <Gold.Chemscore.Internal_Hbond>
0.0000

> <Gold.Chemscore.DEClash>
0.0512

> <Gold.Chemscore.DEInternal>
1.1757

> <Gold.Chemscore.Rot>
1.6980

> <Gold.Chemscore.Internal.Correction>
   9.000000E+99

> <Gold.Chemscore.Hbonds>
donor molecule, donor type, donor heavy atom, donor atom, acceptor molecule, acceptor atom, score
      P1  H  6931  6943       L1    11  0.09
      P1  H  6934  6947       L1    11  0.10

> <Gold.Chemscore.Hbond.Weighted>
-3.1318

> <Gold.Chemscore.Metal.Weighted>
-0.0000

> <Gold.Chemscore.Lipo.Weighted>
-11.6608

> <Gold.Chemscore.Internal_Hbond.Weighted>
0.0000

> <Gold.Chemscore.DEClash.Weighted>
0.0512

> <Gold.Chemscore.DEInternal.Weighted>
1.1757

> <Gold.Chemscore.Rot.Weighted>
4.3469

> <Gold.Chemscore.Internal.Correction.Weighted>
   9.000000E+99

> <Gold.Protein.RotatedTorsions>
[ 6907 6896 6895 6894 ] final  131.12 input  -60.11 | X-H torsion
[ 7974 7965 7964 7962 ] final   98.60 input  175.53 | X-H torsion
[ 8008 7997 7996 7995 ] final  126.26 input   59.86 | X-H torsion
[ 10167 10162 10161 10158 ] final  105.18 input  -65.29 | X-H torsion
[ 10718 10713 10712 10709 ] final   25.60 input   66.30 | X-H torsion
[ 10763 10752 10751 10750 ] final -177.36 input  -60.55 | X-H torsion
[ 11005 11000 10999 10996 ] final  108.03 input  -57.11 | X-H torsion

> <Gold.Protein.ActiveResidues>
 VAL166  LYS551  ARG553  GLY616  TRP617  ASP618  TYR619  PRO620  LYS621  CYS622 
 ASP623  PHE694  ASN695  SER759  ASP760  ASP761  ALA762  ILE779  LEU786  VAL792 
 PHE793  MET794  SER795  GLU796  ALA797  LYS798  CYS799  TRP800  GLU811  SER814 

> <Gold.Protein.RotatedAtoms>
  152.3458  133.6120  159.5908 H   0  0  0  0  0  0  0  0  0  0  0  0  # atno 6907 bound_to 6896
  150.7506  133.9651  159.3537 H   0  0  0  0  0  0  0  0  0  0  0  0  # atno 6908 bound_to 6896
  151.7510  135.0833  160.0382 H   0  0  0  0  0  0  0  0  0  0  0  0  # atno 6909 bound_to 6896
  145.4100  139.2335  143.3253 H   0  0  0  0  0  0  0  0  0  0  0  0  # atno 7974 bound_to 7965
  156.2859  140.2697  156.2083 H   0  0  0  0  0  0  0  0  0  0  0  0  # atno 8008 bound_to 7997
  155.0290  140.0386  157.2485 H   0  0  0  0  0  0  0  0  0  0  0  0  # atno 8009 bound_to 7997
  154.7370  140.2717  155.6411 H   0  0  0  0  0  0  0  0  0  0  0  0  # atno 8010 bound_to 7997
  139.7114  144.7077  151.1021 H   0  0  0  0  0  0  0  0  0  0  0  0  # atno 10167 bound_to 10162
  157.1956  130.6866  149.6167 H   0  0  0  0  0  0  0  0  0  0  0  0  # atno 10718 bound_to 10713
  154.5611  135.2820  155.0918 H   0  0  0  0  0  0  0  0  0  0  0  0  # atno 10763 bound_to 10752
  154.2327  135.6371  153.5184 H   0  0  0  0  0  0  0  0  0  0  0  0  # atno 10764 bound_to 10752
  153.0029  135.5541  154.6205 H   0  0  0  0  0  0  0  0  0  0  0  0  # atno 10765 bound_to 10752
  139.8837  134.9418  156.5909 H   0  0  0  0  0  0  0  0  0  0  0  0  # atno 11005 bound_to 11000
  146.2709  140.4810  142.8814 LP  0  0  0  0  0  0  0  0  0  0  0  0  # atno 17320 bound_to 7965
  144.8315  140.6715  143.6287 LP  0  0  0  0  0  0  0  0  0  0  0  0  # atno 17321 bound_to 7965
  140.7734  143.5288  150.9448 LP  0  0  0  0  0  0  0  0  0  0  0  0  # atno 17342 bound_to 10162
  139.8973  143.6879  152.3136 LP  0  0  0  0  0  0  0  0  0  0  0  0  # atno 17343 bound_to 10162
  155.9706  130.4600  150.6057 LP  0  0  0  0  0  0  0  0  0  0  0  0  # atno 17370 bound_to 10713
  157.3818  131.0782  151.1470 LP  0  0  0  0  0  0  0  0  0  0  0  0  # atno 17371 bound_to 10713
  140.7956  133.8547  155.8683 LP  0  0  0  0  0  0  0  0  0  0  0  0  # atno 17394 bound_to 11000
  140.9638  134.1620  157.4632 LP  0  0  0  0  0  0  0  0  0  0  0  0  # atno 17395 bound_to 11000

$$$$
