AV-unprocessed.smi:1103|AV-procd|sdf|4773|dock2
  -GOLD-   22720 3313D 1   1.00000     0.00000
 Structure written by MMmdl.
 44 45  0  0  0  0  0  0  0  0  2 V2000
  145.9475  134.8185  151.7749 C   0  0  0  0  0  0  0  0  0  0  0  0
  146.0381  135.4328  153.1790 C   0  0  0  0  0  0  0  0  0  0  0  0
  146.6475  136.7866  153.1699 N   0  3  1  0  0  0  0  0  0  0  0  0
  146.0622  137.6565  152.1170 C   0  0  0  0  0  0  0  0  0  0  0  0
  146.8030  139.0003  152.0286 C   0  0  0  0  0  0  0  0  0  0  0  0
  146.8164  139.7102  153.3893 C   0  0  0  0  0  0  0  0  0  0  0  0
  147.3844  138.7916  154.4913 C   0  0  2  0  0  0  0  0  0  0  0  0
  148.9155  138.5820  154.4069 C   0  0  0  0  0  0  0  0  0  0  0  0
  149.5902  138.8626  155.6701 N   0  0  0  0  0  0  0  0  0  0  0  0
  150.7088  139.5923  155.7974 C   0  0  0  0  0  0  0  0  0  0  0  0
  151.2817  140.1141  154.8397 O   0  0  0  0  0  0  0  0  0  0  0  0
  151.2504  139.7497  157.2231 C   0  0  0  0  0  0  0  0  0  0  0  0
  151.3907  141.1430  157.6136 N   0  0  0  0  0  0  0  0  0  0  0  0
  151.9621  141.6600  158.7579 C   0  0  0  0  0  0  0  0  0  0  0  0
  151.8679  143.0209  158.6863 C   0  0  0  0  0  0  0  0  0  0  0  0
  152.3422  144.0471  159.6746 C   0  0  0  0  0  0  0  0  0  0  0  0
  151.2097  143.2417  157.4428 C   0  0  0  0  0  0  0  0  0  0  0  0
  150.9236  142.1183  156.8053 N   0  0  0  0  0  0  0  0  0  0  0  0
  146.6236  137.4492  154.5025 C   0  0  0  0  0  0  0  0  0  0  0  0
  145.4076  133.8718  151.8068 H   0  0  0  0  0  0  0  0  0  0  0  0
  146.9304  134.6133  151.3517 H   0  0  0  0  0  0  0  0  0  0  0  0
  145.4149  135.4783  151.0896 H   0  0  0  0  0  0  0  0  0  0  0  0
  145.0245  135.4983  153.5761 H   0  0  0  0  0  0  0  0  0  0  0  0
  146.5909  134.7764  153.8526 H   0  0  0  0  0  0  0  0  0  0  0  0
  146.1174  137.1560  151.1494 H   0  0  0  0  0  0  0  0  0  0  0  0
  145.0046  137.8228  152.3281 H   0  0  0  0  0  0  0  0  0  0  0  0
  147.8236  138.8386  151.6805 H   0  0  0  0  0  0  0  0  0  0  0  0
  146.3249  139.6376  151.2843 H   0  0  0  0  0  0  0  0  0  0  0  0
  147.3753  140.6441  153.3253 H   0  0  0  0  0  0  0  0  0  0  0  0
  145.7952  139.9903  153.6511 H   0  0  0  0  0  0  0  0  0  0  0  0
  147.1834  139.2744  155.4488 H   0  0  0  0  0  0  0  0  0  0  0  0
  149.1395  137.5597  154.0971 H   0  0  0  0  0  0  0  0  0  0  0  0
  149.3510  139.2270  153.6439 H   0  0  0  0  0  0  0  0  0  0  0  0
  149.1793  138.4736  156.5067 H   0  0  0  0  0  0  0  0  0  0  0  0
  150.5819  139.2416  157.9199 H   0  0  0  0  0  0  0  0  0  0  0  0
  152.2275  139.2720  157.3067 H   0  0  0  0  0  0  0  0  0  0  0  0
  152.3877  141.0221  159.5186 H   0  0  0  0  0  0  0  0  0  0  0  0
  152.2059  145.0625  159.3019 H   0  0  0  0  0  0  0  0  0  0  0  0
  153.4021  143.9278  159.9001 H   0  0  0  0  0  0  0  0  0  0  0  0
  151.8016  143.9759  160.6184 H   0  0  0  0  0  0  0  0  0  0  0  0
  150.9328  144.1807  156.9868 H   0  0  0  0  0  0  0  0  0  0  0  0
  145.5859  137.6170  154.7957 H   0  0  0  0  0  0  0  0  0  0  0  0
  147.0558  136.7995  155.2630 H   0  0  0  0  0  0  0  0  0  0  0  0
  147.6183  136.6595  152.9219 H   0  0  0  0  0  0  0  0  0  0  0  0
  1  2  1  0  0  0  0
  1 20  1  0  0  0  0
  1 21  1  0  0  0  0
  1 22  1  0  0  0  0
  2  3  1  0  0  0  0
  2 23  1  0  0  0  0
  2 24  1  0  0  0  0
  3 19  1  0  0  0  0
  3  4  1  0  0  0  0
  3 44  1  0  0  0  0
  4  5  1  0  0  0  0
  4 25  1  0  0  0  0
  4 26  1  0  0  0  0
  5  6  1  0  0  0  0
  5 27  1  0  0  0  0
  5 28  1  0  0  0  0
  6  7  1  0  0  0  0
  6 29  1  0  0  0  0
  6 30  1  0  0  0  0
  7  8  1  0  0  0  0
  7 19  1  0  0  0  0
  7 31  1  0  0  0  0
  8  9  1  0  0  0  0
  8 32  1  0  0  0  0
  8 33  1  0  0  0  0
  9 10  1  0  0  0  0
  9 34  1  0  0  0  0
 10 11  2  0  0  0  0
 10 12  1  0  0  0  0
 12 13  1  0  0  0  0
 12 35  1  0  0  0  0
 12 36  1  0  0  0  0
 13 18  1  0  0  0  0
 13 14  1  0  0  0  0
 14 15  2  0  0  0  0
 14 37  1  0  0  0  0
 15 16  1  0  0  0  0
 15 17  1  0  0  0  0
 16 38  1  0  0  0  0
 16 39  1  0  0  0  0
 16 40  1  0  0  0  0
 17 18  2  0  0  0  0
 17 41  1  0  0  0  0
 19 42  1  0  0  0  0
 19 43  1  0  0  0  0
M  CHG  1   3   1
M  END
> <s_m_source_file>
AV-unprocessed.smi

> <i_m_source_file_index>
1103

> <i_lp_mmshare_version>
43012

> <i_f3d_flags>
0

> <s_epik_input>
W0NIM11bQ0gyXU4xW0NIMl1bQ0gyXVtDSDJdW0NASF0oW0NIMl0xKVtDSDJdW05IXUMoPU8pW0NIMl1uMltjSF1jKFtDSDNdKVtjSF1uMg==

> <s_epik_cmdline>
J2VwaWtfcHl0aG9uJywgJy1waCcsICc3LjAnLCAnLXRuJywgJzgnLCAnLW1hJywgJzIwMCcsICctbWV0YWxfYmluZGluZycsICctaW1hZScsICc8aW5maWxlLm1hZT4nLCAnLW9tYWUnLCAnPG91dGZpbGUubWFlPic=

> <r_lp_tautomer_probability>
1

> <r_epik_Ionization_Penalty>
0.000672456

> <r_epik_Ionization_Penalty_Charging>
0.000647327

> <r_epik_Ionization_Penalty_Neutral>
2.51297e-05

> <r_epik_State_Penalty>
0.000409793

> <r_epik_Charging_Adjusted_Penalty>
0.00105712

> <i_epik_Tot_Q>
1

> <i_epik_Tot_abs_Q>
1

> <r_epik_Metal_State_Penalty>
-0

> <b_epik_Metal_Only>
0

> <s_lp_Force_Field>
OPLS_2005

> <r_lp_Energy>
22.1898

> <b_lp_Chiralities_Consistent>
1

> <s_lp_Variant>
AV-unprocessed.smi:1103-3

> <Gold.Version>
5.8.1

> <Gold.Id.Protein>
6NUR|6NUR_protein|mol2

> <Gold.PLP.Fitness>
42.3091

> <Gold.PLP.PLP>
-32.0375

> <Gold.PLP.part.hbond>
-1.9744

> <Gold.PLP.part.metal>
0.0000

> <Gold.PLP.part.buried>
-3.2031

> <Gold.PLP.part.nonpolar>
-28.4229

> <Gold.PLP.part.repulsive>
0.1752

> <Gold.PLP.ligand.clash>
0.0000

> <Gold.PLP.ligand.torsion>
0.8837

> <Gold.PLP.Chemscore.Hbond>
3.0000

> <Gold.PLP.Chemscore.CHOScore>
0.9786

> <Gold.PLP.Chemscore.Metal>
0.0000

> <Gold.Chemscore.Hbonds>
donor molecule, donor type, donor heavy atom, donor atom, acceptor molecule, acceptor atom, score
      L1  H     3    44       P1  7948  2.00
      P1  H  7989  7998       L1    11  1.00
      L1  C    17    41       P1  8028  0.99

> <Gold.PLP.Chemscore.Internal.Correction>
0.1032

> <Gold.Rescore>
     Score         DG    S(hbond)    S(metal)    S(lipo)     H(rot)  DE(clash)    DE(int)     intcor
     15.68     -18.21       1.96        0.00      89.67       1.68       0.30       2.23       ----

> <Gold.Chemscore.Fitness>
15.6776

> <Gold.Chemscore.DG>
-18.2066

> <Gold.Chemscore.ZeroCoef>
-5.4800

> <Gold.Chemscore.Hbond>
1.9587

> <Gold.Chemscore.Metal>
0.0000

> <Gold.Chemscore.Lipo>
89.6685

> <Gold.Chemscore.Internal_Hbond>
0.0000

> <Gold.Chemscore.DEClash>
0.2969

> <Gold.Chemscore.DEInternal>
2.2321

> <Gold.Chemscore.Rot>
1.6823

> <Gold.Chemscore.Internal.Correction>
   9.000000E+99

> <Gold.Chemscore.Hbonds>
donor molecule, donor type, donor heavy atom, donor atom, acceptor molecule, acceptor atom, score
      L1  H     3    44       P1  7948  0.98
      P1  H  7989  7998       L1    11  0.97

> <Gold.Chemscore.Hbond.Weighted>
-6.5419

> <Gold.Chemscore.Metal.Weighted>
-0.0000

> <Gold.Chemscore.Lipo.Weighted>
-10.4912

> <Gold.Chemscore.Internal_Hbond.Weighted>
0.0000

> <Gold.Chemscore.DEClash.Weighted>
0.2969

> <Gold.Chemscore.DEInternal.Weighted>
2.2321

> <Gold.Chemscore.Rot.Weighted>
4.3066

> <Gold.Chemscore.Internal.Correction.Weighted>
   9.000000E+99

> <Gold.Protein.RotatedTorsions>
[ 6907 6896 6895 6894 ] final -164.74 input  -60.11 | X-H torsion
[ 7974 7965 7964 7962 ] final  165.03 input  175.53 | X-H torsion
[ 8008 7997 7996 7995 ] final -116.69 input   59.86 | X-H torsion
[ 10167 10162 10161 10158 ] final  154.77 input  -65.29 | X-H torsion
[ 10718 10713 10712 10709 ] final   83.58 input   66.30 | X-H torsion
[ 10763 10752 10751 10750 ] final   79.32 input  -60.55 | X-H torsion
[ 11005 11000 10999 10996 ] final  135.77 input  -57.11 | X-H torsion

> <Gold.Protein.ActiveResidues>
 VAL166  LYS551  ARG553  GLY616  TRP617  ASP618  TYR619  PRO620  LYS621  CYS622 
 ASP623  PHE694  ASN695  SER759  ASP760  ASP761  ALA762  ILE779  LEU786  VAL792 
 PHE793  MET794  SER795  GLU796  ALA797  LYS798  CYS799  TRP800  GLU811  SER814 

> <Gold.Protein.RotatedAtoms>
  151.4166  133.3711  159.2750 H   0  0  0  0  0  0  0  0  0  0  0  0  # atno 6907 bound_to 6896
  150.9324  134.8739  159.7570 H   0  0  0  0  0  0  0  0  0  0  0  0  # atno 6908 bound_to 6896
  152.5034  134.4112  159.9501 H   0  0  0  0  0  0  0  0  0  0  0  0  # atno 6909 bound_to 6896
  144.7520  139.8411  143.6363 H   0  0  0  0  0  0  0  0  0  0  0  0  # atno 7974 bound_to 7965
  155.0718  140.0393  157.2611 H   0  0  0  0  0  0  0  0  0  0  0  0  # atno 8008 bound_to 7997
  154.6976  140.2666  155.6726 H   0  0  0  0  0  0  0  0  0  0  0  0  # atno 8009 bound_to 7997
  156.2750  140.2747  156.1576 H   0  0  0  0  0  0  0  0  0  0  0  0  # atno 8010 bound_to 7997
  139.4822  144.5157  151.7955 H   0  0  0  0  0  0  0  0  0  0  0  0  # atno 10167 bound_to 10162
  157.6882  131.0097  150.2545 H   0  0  0  0  0  0  0  0  0  0  0  0  # atno 10718 bound_to 10713
  153.0943  135.4844  154.8749 H   0  0  0  0  0  0  0  0  0  0  0  0  # atno 10763 bound_to 10752
  154.7306  135.3059  154.8900 H   0  0  0  0  0  0  0  0  0  0  0  0  # atno 10764 bound_to 10752
  153.9537  135.6820  153.4797 H   0  0  0  0  0  0  0  0  0  0  0  0  # atno 10765 bound_to 10752
  140.0002  134.9481  157.0054 H   0  0  0  0  0  0  0  0  0  0  0  0  # atno 11005 bound_to 11000
  146.1482  139.4557  143.0065 LP  0  0  0  0  0  0  0  0  0  0  0  0  # atno 17320 bound_to 7965
  145.6912  141.0164  143.1554 LP  0  0  0  0  0  0  0  0  0  0  0  0  # atno 17321 bound_to 7965
  140.4665  144.1647  150.5912 LP  0  0  0  0  0  0  0  0  0  0  0  0  # atno 17342 bound_to 10162
  140.4428  143.2519  151.9450 LP  0  0  0  0  0  0  0  0  0  0  0  0  # atno 17343 bound_to 10162
  156.3135  130.3775  149.7639 LP  0  0  0  0  0  0  0  0  0  0  0  0  # atno 17370 bound_to 10713
  156.5232  130.8224  151.3211 LP  0  0  0  0  0  0  0  0  0  0  0  0  # atno 17371 bound_to 10713
  140.4743  134.1355  155.7207 LP  0  0  0  0  0  0  0  0  0  0  0  0  # atno 17394 bound_to 11000
  141.1636  133.8746  157.1779 LP  0  0  0  0  0  0  0  0  0  0  0  0  # atno 17395 bound_to 11000

$$$$
