AV-unprocessed.smi:3287|AV-procd|sdf|12601|dock4
  -GOLD-   2272018523D 1   1.00000     0.00000
 Structure written by MMmdl.
 43 44  0  0  0  0  0  0  0  0  2 V2000
  152.8279  143.9139  162.2647 C   0  0  0  0  0  0  0  0  0  0  0  0
  152.1108  143.4654  160.9788 C   0  0  1  0  0  0  0  0  0  0  0  0
  151.4915  144.6882  160.2722 C   0  0  0  0  0  0  0  0  0  0  0  0
  150.7503  144.3006  158.9850 C   0  0  0  0  0  0  0  0  0  0  0  0
  151.6803  143.5486  158.0153 C   0  0  2  0  0  0  0  0  0  0  0  0
  150.9638  143.1286  156.7908 N   0  3  0  0  0  0  0  0  0  0  0  0
  150.2163  141.8574  156.9019 C   0  0  0  0  0  0  0  0  0  0  0  0
  149.9229  141.2539  155.5174 C   0  0  2  0  0  0  0  0  0  0  0  0
  148.5272  141.0632  155.3887 O   0  0  0  0  0  0  0  0  0  0  0  0
  150.6901  139.9570  155.3123 C   0  0  0  0  0  0  0  0  0  0  0  0
  150.3039  139.0483  154.3049 C   0  0  0  0  0  0  0  0  0  0  0  0
  151.0496  137.8630  154.1446 C   0  0  0  0  0  0  0  0  0  0  0  0
  152.1203  137.5519  154.9059 N   0  0  0  0  0  0  0  0  0  0  0  0
  152.4870  138.4254  155.8676 C   0  0  0  0  0  0  0  0  0  0  0  0
  151.8101  139.6372  156.1103 C   0  0  0  0  0  0  0  0  0  0  0  0
  152.2820  142.3175  158.7144 C   0  0  0  0  0  0  0  0  0  0  0  0
  153.0375  142.6867  160.0080 C   0  0  2  0  0  0  0  0  0  0  0  0
  153.6397  141.4193  160.6406 C   0  0  0  0  0  0  0  0  0  0  0  0
  153.6994  144.5290  162.0392 H   0  0  0  0  0  0  0  0  0  0  0  0
  153.1608  143.0649  162.8612 H   0  0  0  0  0  0  0  0  0  0  0  0
  152.1630  144.5022  162.8976 H   0  0  0  0  0  0  0  0  0  0  0  0
  151.2942  142.8040  161.2727 H   0  0  0  0  0  0  0  0  0  0  0  0
  150.8005  145.1963  160.9461 H   0  0  0  0  0  0  0  0  0  0  0  0
  152.2737  145.4108  160.0347 H   0  0  0  0  0  0  0  0  0  0  0  0
  149.8894  143.6783  159.2340 H   0  0  0  0  0  0  0  0  0  0  0  0
  150.3552  145.2034  158.5193 H   0  0  0  0  0  0  0  0  0  0  0  0
  152.5018  144.2048  157.7230 H   0  0  0  0  0  0  0  0  0  0  0  0
  150.2879  143.8463  156.5700 H   0  0  0  0  0  0  0  0  0  0  0  0
  150.8032  141.1487  157.4864 H   0  0  0  0  0  0  0  0  0  0  0  0
  149.2849  142.0265  157.4448 H   0  0  0  0  0  0  0  0  0  0  0  0
  150.2275  141.9610  154.7442 H   0  0  0  0  0  0  0  0  0  0  0  0
  148.1147  141.3091  156.2033 H   0  0  0  0  0  0  0  0  0  0  0  0
  149.4568  139.2490  153.6656 H   0  0  0  0  0  0  0  0  0  0  0  0
  150.7794  137.1469  153.3827 H   0  0  0  0  0  0  0  0  0  0  0  0
  153.3471  138.1519  156.4607 H   0  0  0  0  0  0  0  0  0  0  0  0
  152.1485  140.3028  156.8907 H   0  0  0  0  0  0  0  0  0  0  0  0
  151.4902  141.6033  158.9471 H   0  0  0  0  0  0  0  0  0  0  0  0
  152.9610  141.8085  158.0286 H   0  0  0  0  0  0  0  0  0  0  0  0
  153.8667  143.3402  159.7320 H   0  0  0  0  0  0  0  0  0  0  0  0
  152.8612  140.7535  161.0143 H   0  0  0  0  0  0  0  0  0  0  0  0
  154.3047  141.6575  161.4700 H   0  0  0  0  0  0  0  0  0  0  0  0
  154.2310  140.8617  159.9136 H   0  0  0  0  0  0  0  0  0  0  0  0
  151.6227  143.0658  156.0280 H   0  0  0  0  0  0  0  0  0  0  0  0
  1  2  1  0  0  0  0
  1 19  1  0  0  0  0
  1 20  1  0  0  0  0
  1 21  1  0  0  0  0
  2 17  1  0  0  0  0
  2  3  1  0  0  0  0
  2 22  1  0  0  0  0
  3  4  1  0  0  0  0
  3 23  1  0  0  0  0
  3 24  1  0  0  0  0
  4  5  1  0  0  0  0
  4 25  1  0  0  0  0
  4 26  1  0  0  0  0
  5  6  1  0  0  0  0
  5 16  1  0  0  0  0
  5 27  1  0  0  0  0
  6  7  1  0  0  0  0
  6 28  1  0  0  0  0
  6 43  1  0  0  0  0
  7  8  1  0  0  0  0
  7 29  1  0  0  0  0
  7 30  1  0  0  0  0
  8  9  1  0  0  0  0
  8 10  1  0  0  0  0
  8 31  1  0  0  0  0
  9 32  1  0  0  0  0
 10 15  1  0  0  0  0
 10 11  2  0  0  0  0
 11 12  1  0  0  0  0
 11 33  1  0  0  0  0
 12 13  2  0  0  0  0
 12 34  1  0  0  0  0
 13 14  1  0  0  0  0
 14 15  2  0  0  0  0
 14 35  1  0  0  0  0
 15 36  1  0  0  0  0
 16 17  1  0  0  0  0
 16 37  1  0  0  0  0
 16 38  1  0  0  0  0
 17 18  1  0  0  0  0
 17 39  1  0  0  0  0
 18 40  1  0  0  0  0
 18 41  1  0  0  0  0
 18 42  1  0  0  0  0
M  CHG  1   6   1
M  END
> <s_m_source_file>
AV-unprocessed.smi

> <i_m_source_file_index>
3287

> <i_lp_mmshare_version>
43012

> <i_f3d_flags>
0

> <s_epik_input>
W0NIM11bQ0BASF0xW0NIMl1bQ0gyXVtDQEhdKFtDSDJdW0NASF0xW0NIM10pW05IXVtDSDJdW0NASF0oW09IXSljMltjSF1bY0hdbltjSF1bY0hdMg==

> <s_epik_cmdline>
J2VwaWtfcHl0aG9uJywgJy1waCcsICc3LjAnLCAnLXRuJywgJzgnLCAnLW1hJywgJzIwMCcsICctbWV0YWxfYmluZGluZycsICctaW1hZScsICc8aW5maWxlLm1hZT4nLCAnLW9tYWUnLCAnPG91dGZpbGUubWFlPic=

> <r_lp_tautomer_probability>
1

> <r_epik_Ionization_Penalty>
0.00537262

> <r_epik_Ionization_Penalty_Charging>
0.00321624

> <r_epik_Ionization_Penalty_Neutral>
0.00215638

> <r_epik_State_Penalty>
-0

> <r_epik_Charging_Adjusted_Penalty>
0.00321624

> <i_epik_Tot_Q>
1

> <i_epik_Tot_abs_Q>
1

> <r_epik_Metal_State_Penalty>
-0

> <b_epik_Metal_Only>
0

> <s_lp_Force_Field>
OPLS_2005

> <r_lp_Energy>
15.7848

> <b_lp_Chiralities_Consistent>
1

> <s_lp_Variant>
AV-unprocessed.smi:3287-12

> <Gold.Version>
5.8.1

> <Gold.Id.Protein>
6NUR|6NUR_protein|mol2

> <Gold.PLP.Fitness>
55.0705

> <Gold.PLP.PLP>
-47.0196

> <Gold.PLP.part.hbond>
-2.0000

> <Gold.PLP.part.metal>
0.0000

> <Gold.PLP.part.buried>
-5.3162

> <Gold.PLP.part.nonpolar>
-40.2475

> <Gold.PLP.part.repulsive>
0.1164

> <Gold.PLP.ligand.clash>
0.0000

> <Gold.PLP.ligand.torsion>
1.5942

> <Gold.PLP.Chemscore.Hbond>
2.6635

> <Gold.PLP.Chemscore.CHOScore>
1.0766

> <Gold.PLP.Chemscore.Metal>
0.0000

> <Gold.Chemscore.Hbonds>
donor molecule, donor type, donor heavy atom, donor atom, acceptor molecule, acceptor atom, score
      L1  H     6    28       P1  8028  2.00
      P1  H 10752 10764       L1    13  0.59
      L1  C    12    34       P1  7948  0.25
      L1  C    12    34       P1  7949  0.78

> <Gold.PLP.Chemscore.Internal.Correction>
0.0187

> <Gold.Rescore>
     Score         DG    S(hbond)    S(metal)    S(lipo)     H(rot)  DE(clash)    DE(int)     intcor
     21.18     -22.53       1.85        0.00     134.58       1.90       0.19       1.16       ----

> <Gold.Chemscore.Fitness>
21.1815

> <Gold.Chemscore.DG>
-22.5331

> <Gold.Chemscore.ZeroCoef>
-5.4800

> <Gold.Chemscore.Hbond>
1.8503

> <Gold.Chemscore.Metal>
0.0000

> <Gold.Chemscore.Lipo>
134.5817

> <Gold.Chemscore.Internal_Hbond>
0.0000

> <Gold.Chemscore.DEClash>
0.1869

> <Gold.Chemscore.DEInternal>
1.1646

> <Gold.Chemscore.Rot>
1.9035

> <Gold.Chemscore.Internal.Correction>
   9.000000E+99

> <Gold.Chemscore.Hbonds>
donor molecule, donor type, donor heavy atom, donor atom, acceptor molecule, acceptor atom, score
      L1  H     6    28       P1  8028  1.00
      P1  H 10752 10764       L1    13  0.50

> <Gold.Chemscore.Hbond.Weighted>
-6.1799

> <Gold.Chemscore.Metal.Weighted>
-0.0000

> <Gold.Chemscore.Lipo.Weighted>
-15.7461

> <Gold.Chemscore.Internal_Hbond.Weighted>
0.0000

> <Gold.Chemscore.DEClash.Weighted>
0.1869

> <Gold.Chemscore.DEInternal.Weighted>
1.1646

> <Gold.Chemscore.Rot.Weighted>
4.8729

> <Gold.Chemscore.Internal.Correction.Weighted>
   9.000000E+99

> <Gold.Protein.RotatedTorsions>
[ 6907 6896 6895 6894 ] final  149.04 input  -60.11 | X-H torsion
[ 7974 7965 7964 7962 ] final -153.08 input  175.53 | X-H torsion
[ 8008 7997 7996 7995 ] final -161.30 input   59.86 | X-H torsion
[ 10167 10162 10161 10158 ] final  -91.67 input  -65.29 | X-H torsion
[ 10718 10713 10712 10709 ] final   68.47 input   66.30 | X-H torsion
[ 10763 10752 10751 10750 ] final  -64.55 input  -60.55 | X-H torsion
[ 11005 11000 10999 10996 ] final  -81.64 input  -57.11 | X-H torsion

> <Gold.Protein.ActiveResidues>
 VAL166  LYS551  ARG553  GLY616  TRP617  ASP618  TYR619  PRO620  LYS621  CYS622 
 ASP623  PHE694  ASN695  SER759  ASP760  ASP761  ALA762  ILE779  LEU786  VAL792 
 PHE793  MET794  SER795  GLU796  ALA797  LYS798  CYS799  TRP800  GLU811  SER814 

> <Gold.Protein.RotatedAtoms>
  152.1334  133.4421  159.4731 H   0  0  0  0  0  0  0  0  0  0  0  0  # atno 6907 bound_to 6896
  150.6880  134.2393  159.4475 H   0  0  0  0  0  0  0  0  0  0  0  0  # atno 6908 bound_to 6896
  152.0278  134.9785  160.0622 H   0  0  0  0  0  0  0  0  0  0  0  0  # atno 6909 bound_to 6896
  144.7759  140.4574  143.5873 H   0  0  0  0  0  0  0  0  0  0  0  0  # atno 7974 bound_to 7965
  155.7901  140.0877  157.2013 H   0  0  0  0  0  0  0  0  0  0  0  0  # atno 8008 bound_to 7997
  154.3986  140.1491  156.3211 H   0  0  0  0  0  0  0  0  0  0  0  0  # atno 8009 bound_to 7997
  155.8567  140.3432  155.5731 H   0  0  0  0  0  0  0  0  0  0  0  0  # atno 8010 bound_to 7997
  140.3426  143.2934  151.9818 H   0  0  0  0  0  0  0  0  0  0  0  0  # atno 10167 bound_to 10162
  157.6291  130.9375  150.0382 H   0  0  0  0  0  0  0  0  0  0  0  0  # atno 10718 bound_to 10713
  154.3318  135.6175  153.5555 H   0  0  0  0  0  0  0  0  0  0  0  0  # atno 10763 bound_to 10752
  152.9811  135.5748  154.4953 H   0  0  0  0  0  0  0  0  0  0  0  0  # atno 10764 bound_to 10752
  154.4641  135.2857  155.1668 H   0  0  0  0  0  0  0  0  0  0  0  0  # atno 10765 bound_to 10752
  141.1666  133.7206  156.8452 H   0  0  0  0  0  0  0  0  0  0  0  0  # atno 11005 bound_to 11000
  145.6187  139.1521  143.3035 LP  0  0  0  0  0  0  0  0  0  0  0  0  # atno 17320 bound_to 7965
  146.1938  140.6298  142.9133 LP  0  0  0  0  0  0  0  0  0  0  0  0  # atno 17321 bound_to 7965
  139.4838  144.6144  151.7373 LP  0  0  0  0  0  0  0  0  0  0  0  0  # atno 17342 bound_to 10162
  140.5295  144.0753  150.6049 LP  0  0  0  0  0  0  0  0  0  0  0  0  # atno 17343 bound_to 10162
  156.1482  130.3642  149.9478 LP  0  0  0  0  0  0  0  0  0  0  0  0  # atno 17370 bound_to 10713
  156.7503  130.9113  151.3637 LP  0  0  0  0  0  0  0  0  0  0  0  0  # atno 17371 bound_to 10713
  140.1955  134.8935  157.3109 LP  0  0  0  0  0  0  0  0  0  0  0  0  # atno 17394 bound_to 11000
  140.2244  134.3984  155.7550 LP  0  0  0  0  0  0  0  0  0  0  0  0  # atno 17395 bound_to 11000

$$$$
