AV-unprocessed.smi:1748|AV-procd|sdf|7038|dock1
  -GOLD-   22720 8253D 1   1.00000     0.00000
 Structure written by MMmdl.
 40 41  0  0  0  0  0  0  0  0  2 V2000
  146.9919  141.5238  154.4876 C   0  0  0  0  0  0  0  0  0  0  0  0
  146.4115  140.3229  153.8498 N   0  3  1  0  0  0  0  0  0  0  0  0
  147.2212  139.8441  152.7015 C   0  0  0  0  0  0  0  0  0  0  0  0
  146.5260  138.6759  151.9813 C   0  0  0  0  0  0  0  0  0  0  0  0
  146.1900  137.5364  152.9587 C   0  0  0  0  0  0  0  0  0  0  0  0
  145.3897  138.0605  154.1652 C   0  0  2  0  0  0  0  0  0  0  0  0
  144.0448  138.4498  153.7399 N   0  0  0  0  0  0  0  0  0  0  0  0
  142.9014  138.0140  154.2877 C   0  0  0  0  0  0  0  0  0  0  0  0
  142.8649  137.2315  155.2368 O   0  0  0  0  0  0  0  0  0  0  0  0
  141.8360  138.5677  153.6808 N   0  0  0  0  0  0  0  0  0  0  0  0
  140.4693  138.3787  153.9451 C   0  0  0  0  0  0  0  0  0  0  0  0
  139.5509  139.3764  154.0310 C   0  0  0  0  0  0  0  0  0  0  0  0
  138.1506  139.1122  154.3193 C   0  0  0  0  0  0  0  0  0  0  0  0
  137.1113  140.2224  154.3311 C   0  0  0  0  0  0  0  0  0  0  0  0
  136.1183  139.9591  153.4807 F   0  0  0  0  0  0  0  0  0  0  0  0
  136.5907  140.3418  155.5517 F   0  0  0  0  0  0  0  0  0  0  0  0
  137.6526  141.3930  153.9934 F   0  0  0  0  0  0  0  0  0  0  0  0
  137.8067  137.8227  154.4924 C   0  0  0  0  0  0  0  0  0  0  0  0
  138.7493  136.7940  154.4298 N   0  0  0  0  0  0  0  0  0  0  0  0
  140.0623  136.9817  154.1686 C   0  0  0  0  0  0  0  0  0  0  0  0
  140.8319  136.0223  154.1273 O   0  0  0  0  0  0  0  0  0  0  0  0
  146.1442  139.2364  154.8256 C   0  0  0  0  0  0  0  0  0  0  0  0
  138.4146  135.8545  154.5892 H   0  0  0  0  0  0  0  0  0  0  0  0
  147.9688  141.3042  154.9206 H   0  0  0  0  0  0  0  0  0  0  0  0
  146.3400  141.8908  155.2812 H   0  0  0  0  0  0  0  0  0  0  0  0
  147.1121  142.3264  153.7593 H   0  0  0  0  0  0  0  0  0  0  0  0
  147.3793  140.6624  151.9979 H   0  0  0  0  0  0  0  0  0  0  0  0
  148.2063  139.5343  153.0544 H   0  0  0  0  0  0  0  0  0  0  0  0
  145.6137  139.0335  151.5022 H   0  0  0  0  0  0  0  0  0  0  0  0
  147.1642  138.3016  151.1802 H   0  0  0  0  0  0  0  0  0  0  0  0
  145.6382  136.7472  152.4461 H   0  0  0  0  0  0  0  0  0  0  0  0
  147.1168  137.0816  153.3115 H   0  0  0  0  0  0  0  0  0  0  0  0
  145.2937  137.2492  154.8889 H   0  0  0  0  0  0  0  0  0  0  0  0
  143.9815  139.0882  152.9601 H   0  0  0  0  0  0  0  0  0  0  0  0
  142.0312  139.2497  152.9621 H   0  0  0  0  0  0  0  0  0  0  0  0
  139.8410  140.4072  153.9087 H   0  0  0  0  0  0  0  0  0  0  0  0
  136.7992  137.4836  154.6837 H   0  0  0  0  0  0  0  0  0  0  0  0
  147.0897  138.8843  155.2412 H   0  0  0  0  0  0  0  0  0  0  0  0
  145.5686  139.6304  155.6642 H   0  0  0  0  0  0  0  0  0  0  0  0
  145.5150  140.6019  153.4774 H   0  0  0  0  0  0  0  0  0  0  0  0
  1  2  1  0  0  0  0
  1 24  1  0  0  0  0
  1 25  1  0  0  0  0
  1 26  1  0  0  0  0
  2 22  1  0  0  0  0
  2  3  1  0  0  0  0
  2 40  1  0  0  0  0
  3  4  1  0  0  0  0
  3 27  1  0  0  0  0
  3 28  1  0  0  0  0
  4  5  1  0  0  0  0
  4 29  1  0  0  0  0
  4 30  1  0  0  0  0
  5  6  1  0  0  0  0
  5 31  1  0  0  0  0
  5 32  1  0  0  0  0
  6  7  1  0  0  0  0
  6 22  1  0  0  0  0
  6 33  1  0  0  0  0
  7  8  1  0  0  0  0
  7 34  1  0  0  0  0
  8  9  2  0  0  0  0
  8 10  1  0  0  0  0
 10 11  1  0  0  0  0
 10 35  1  0  0  0  0
 11 20  1  0  0  0  0
 11 12  2  0  0  0  0
 12 13  1  0  0  0  0
 12 36  1  0  0  0  0
 13 14  1  0  0  0  0
 13 18  2  0  0  0  0
 14 15  1  0  0  0  0
 14 16  1  0  0  0  0
 14 17  1  0  0  0  0
 18 19  1  0  0  0  0
 18 37  1  0  0  0  0
 19 23  1  0  0  0  0
 19 20  1  0  0  0  0
 20 21  2  0  0  0  0
 22 38  1  0  0  0  0
 22 39  1  0  0  0  0
M  CHG  1   2   1
M  END
> <s_m_source_file>
AV-unprocessed.smi

> <i_m_source_file_index>
1748

> <i_lp_mmshare_version>
43012

> <i_f3d_flags>
0

> <s_epik_input>
W0NIM11OMVtDSDJdW0NIMl1bQ0gyXVtDQEhdKFtDSDJdMSlbTkhdQyg9TylbTkhdYzJbY0hdYyhDKEYpKEYpRilbY0hdW25IXWMyPU8=

> <s_epik_cmdline>
J2VwaWtfcHl0aG9uJywgJy1waCcsICc3LjAnLCAnLXRuJywgJzgnLCAnLW1hJywgJzIwMCcsICctbWV0YWxfYmluZGluZycsICctaW1hZScsICc8aW5maWxlLm1hZT4nLCAnLW9tYWUnLCAnPG91dGZpbGUubWFlPic=

> <r_lp_tautomer_probability>
1

> <r_epik_Ionization_Penalty>
0.00746315

> <r_epik_Ionization_Penalty_Charging>
0.00744398

> <r_epik_Ionization_Penalty_Neutral>
1.91704e-05

> <r_epik_State_Penalty>
-0

> <r_epik_Charging_Adjusted_Penalty>
0.00744398

> <i_epik_Tot_Q>
1

> <i_epik_Tot_abs_Q>
1

> <r_epik_Metal_State_Penalty>
0.379332

> <b_epik_Metal_Only>
0

> <s_lp_Force_Field>
OPLS_2005

> <r_lp_Energy>
33.9877

> <b_lp_Chiralities_Consistent>
1

> <s_lp_Variant>
AV-unprocessed.smi:1748-3

> <Gold.Version>
5.8.1

> <Gold.Id.Protein>
6NUR|6NUR_protein|mol2

> <Gold.PLP.Fitness>
38.5768

> <Gold.PLP.PLP>
-27.9101

> <Gold.PLP.part.hbond>
-3.6421

> <Gold.PLP.part.metal>
0.0000

> <Gold.PLP.part.buried>
-0.5515

> <Gold.PLP.part.nonpolar>
-24.0760

> <Gold.PLP.part.repulsive>
0.1761

> <Gold.PLP.ligand.clash>
0.0000

> <Gold.PLP.ligand.torsion>
0.5187

> <Gold.PLP.Chemscore.Hbond>
3.8887

> <Gold.PLP.Chemscore.CHOScore>
0.0000

> <Gold.PLP.Chemscore.Metal>
0.0000

> <Gold.Chemscore.Hbonds>
donor molecule, donor type, donor heavy atom, donor atom, acceptor molecule, acceptor atom, score
      L1  H     2    40       P1 10175  1.72
      L1  H     7    34       P1 10175  0.83
      L1  H    10    35       P1 10175  0.74
      P1  H 11000 11005       L1    21  0.18

> <Gold.PLP.Chemscore.Internal.Correction>
0.0379

> <Gold.Rescore>
     Score         DG    S(hbond)    S(metal)    S(lipo)     H(rot)  DE(clash)    DE(int)     intcor
     14.86     -19.04       2.86        0.00      56.05       1.00       0.28       3.90       ----

> <Gold.Chemscore.Fitness>
14.8636

> <Gold.Chemscore.DG>
-19.0398

> <Gold.Chemscore.ZeroCoef>
-5.4800

> <Gold.Chemscore.Hbond>
2.8627

> <Gold.Chemscore.Metal>
0.0000

> <Gold.Chemscore.Lipo>
56.0549

> <Gold.Chemscore.Internal_Hbond>
0.0000

> <Gold.Chemscore.DEClash>
0.2753

> <Gold.Chemscore.DEInternal>
3.9009

> <Gold.Chemscore.Rot>
1.0000

> <Gold.Chemscore.Internal.Correction>
   9.000000E+99

> <Gold.Chemscore.Hbonds>
donor molecule, donor type, donor heavy atom, donor atom, acceptor molecule, acceptor atom, score
      L1  H     2    40       P1 10175  0.79
      L1  H     7    34       P1 10175  0.77
      L1  H    10    35       P1 10175  0.63
      P1  H 11000 11005       L1    21  0.12

> <Gold.Chemscore.Hbond.Weighted>
-9.5613

> <Gold.Chemscore.Metal.Weighted>
-0.0000

> <Gold.Chemscore.Lipo.Weighted>
-6.5584

> <Gold.Chemscore.Internal_Hbond.Weighted>
0.0000

> <Gold.Chemscore.DEClash.Weighted>
0.2753

> <Gold.Chemscore.DEInternal.Weighted>
3.9009

> <Gold.Chemscore.Rot.Weighted>
2.5600

> <Gold.Chemscore.Internal.Correction.Weighted>
   9.000000E+99

> <Gold.Protein.RotatedTorsions>
[ 6907 6896 6895 6894 ] final -146.61 input  -60.11 | X-H torsion
[ 7974 7965 7964 7962 ] final  -44.41 input  175.53 | X-H torsion
[ 8008 7997 7996 7995 ] final  135.97 input   59.86 | X-H torsion
[ 10167 10162 10161 10158 ] final  -96.10 input  -65.29 | X-H torsion
[ 10718 10713 10712 10709 ] final -110.28 input   66.30 | X-H torsion
[ 10763 10752 10751 10750 ] final  118.57 input  -60.55 | X-H torsion
[ 11005 11000 10999 10996 ] final   46.53 input  -57.11 | X-H torsion

> <Gold.Protein.ActiveResidues>
 VAL166  LYS551  ARG553  GLY616  TRP617  ASP618  TYR619  PRO620  LYS621  CYS622 
 ASP623  PHE694  ASN695  SER759  ASP760  ASP761  ALA762  ILE779  LEU786  VAL792 
 PHE793  MET794  SER795  GLU796  ALA797  LYS798  CYS799  TRP800  GLU811  SER814 

> <Gold.Protein.RotatedAtoms>
  151.1440  133.4952  159.2596 H   0  0  0  0  0  0  0  0  0  0  0  0  # atno 6907 bound_to 6896
  151.1624  135.0279  159.8726 H   0  0  0  0  0  0  0  0  0  0  0  0  # atno 6908 bound_to 6896
  152.5463  134.1312  159.8493 H   0  0  0  0  0  0  0  0  0  0  0  0  # atno 6909 bound_to 6896
  145.9923  140.7167  142.9311 H   0  0  0  0  0  0  0  0  0  0  0  0  # atno 7974 bound_to 7965
  156.3004  140.2457  156.3669 H   0  0  0  0  0  0  0  0  0  0  0  0  # atno 8008 bound_to 7997
  154.8825  140.0412  157.1810 H   0  0  0  0  0  0  0  0  0  0  0  0  # atno 8009 bound_to 7997
  154.8681  140.2931  155.5502 H   0  0  0  0  0  0  0  0  0  0  0  0  # atno 8010 bound_to 7997
  140.2973  143.3184  152.0285 H   0  0  0  0  0  0  0  0  0  0  0  0  # atno 10167 bound_to 10162
  156.0582  130.5807  150.8215 H   0  0  0  0  0  0  0  0  0  0  0  0  # atno 10718 bound_to 10713
  153.5696  135.3505  155.2832 H   0  0  0  0  0  0  0  0  0  0  0  0  # atno 10763 bound_to 10752
  154.8684  135.4156  154.2739 H   0  0  0  0  0  0  0  0  0  0  0  0  # atno 10764 bound_to 10752
  153.3502  135.7054  153.6864 H   0  0  0  0  0  0  0  0  0  0  0  0  # atno 10765 bound_to 10752
  140.1360  134.4644  155.8485 H   0  0  0  0  0  0  0  0  0  0  0  0  # atno 11005 bound_to 11000
  144.6893  140.3091  143.7251 LP  0  0  0  0  0  0  0  0  0  0  0  0  # atno 17320 bound_to 7965
  145.7612  139.1825  143.2266 LP  0  0  0  0  0  0  0  0  0  0  0  0  # atno 17321 bound_to 7965
  139.4923  144.6482  151.6733 LP  0  0  0  0  0  0  0  0  0  0  0  0  # atno 17342 bound_to 10162
  140.5681  144.0155  150.6203 LP  0  0  0  0  0  0  0  0  0  0  0  0  # atno 17343 bound_to 10162
  157.5570  131.0945  150.9615 LP  0  0  0  0  0  0  0  0  0  0  0  0  # atno 17370 bound_to 10713
  156.9861  130.5545  149.5300 LP  0  0  0  0  0  0  0  0  0  0  0  0  # atno 17371 bound_to 10713
  141.2178  133.6814  156.7159 LP  0  0  0  0  0  0  0  0  0  0  0  0  # atno 17394 bound_to 11000
  140.2781  134.8338  157.3909 LP  0  0  0  0  0  0  0  0  0  0  0  0  # atno 17395 bound_to 11000

$$$$
