AV-unprocessed.smi:3326|AV-procd|sdf|12785|dock9
  -GOLD-   2272019133D 1   1.00000     0.00000
 Structure written by MMmdl.
 30 31  0  0  0  0  0  0  0  0  1 V2000
  152.0222  145.4566  159.9850 F   0  0  0  0  0  0  0  0  0  0  0  0
  151.9407  144.4087  159.1642 C   0  0  0  0  0  0  0  0  0  0  0  0
  150.6539  144.2069  158.8791 F   0  0  0  0  0  0  0  0  0  0  0  0
  152.5911  144.7122  158.0408 F   0  0  0  0  0  0  0  0  0  0  0  0
  152.5391  143.1515  159.7911 C   0  0  0  0  0  0  0  0  0  0  0  0
  153.0974  143.1965  161.0891 C   0  0  0  0  0  0  0  0  0  0  0  0
  153.6392  142.0252  161.6489 C   0  0  0  0  0  0  0  0  0  0  0  0
  153.6036  140.8446  160.8865 C   0  0  0  0  0  0  0  0  0  0  0  0
  153.0753  140.7840  159.6473 N   0  0  0  0  0  0  0  0  0  0  0  0
  152.5502  141.9092  159.1039 C   0  0  0  0  0  0  0  0  0  0  0  0
  152.0095  141.8225  157.8100 N   0  0  0  0  0  0  0  0  0  0  0  0
  151.9510  140.5512  157.0985 C   0  0  0  0  0  0  0  0  0  0  0  0
  150.5980  140.3383  156.4009 C   0  0  2  0  0  0  0  0  0  0  0  0
  150.6814  139.4394  155.1709 C   0  0  0  0  0  0  0  0  0  0  0  0
  149.4399  139.8513  154.4125 C   0  0  0  0  0  0  0  0  0  0  0  0
  149.3812  141.3540  154.6809 C   0  0  0  0  0  0  0  0  0  0  0  0
  150.0990  141.5725  155.8937 O   0  0  0  0  0  0  0  0  0  0  0  0
  153.1148  144.1132  161.6592 H   0  0  0  0  0  0  0  0  0  0  0  0
  154.0714  142.0326  162.6386 H   0  0  0  0  0  0  0  0  0  0  0  0
  154.0101  139.9252  161.2808 H   0  0  0  0  0  0  0  0  0  0  0  0
  151.3774  142.5498  157.5077 H   0  0  0  0  0  0  0  0  0  0  0  0
  152.7539  140.5327  156.3611 H   0  0  0  0  0  0  0  0  0  0  0  0
  152.1559  139.7320  157.7883 H   0  0  0  0  0  0  0  0  0  0  0  0
  149.8609  139.9246  157.0912 H   0  0  0  0  0  0  0  0  0  0  0  0
  151.5723  139.6696  154.5845 H   0  0  0  0  0  0  0  0  0  0  0  0
  150.6988  138.3782  155.4202 H   0  0  0  0  0  0  0  0  0  0  0  0
  149.4838  139.6087  153.3504 H   0  0  0  0  0  0  0  0  0  0  0  0
  148.5640  139.3604  154.8390 H   0  0  0  0  0  0  0  0  0  0  0  0
  149.8749  141.9085  153.8824 H   0  0  0  0  0  0  0  0  0  0  0  0
  148.3551  141.7150  154.7590 H   0  0  0  0  0  0  0  0  0  0  0  0
  1  2  1  0  0  0  0
  2  3  1  0  0  0  0
  2  4  1  0  0  0  0
  2  5  1  0  0  0  0
  5 10  1  0  0  0  0
  5  6  2  0  0  0  0
  6  7  1  0  0  0  0
  6 18  1  0  0  0  0
  7  8  2  0  0  0  0
  7 19  1  0  0  0  0
  8  9  1  0  0  0  0
  8 20  1  0  0  0  0
  9 10  2  0  0  0  0
 10 11  1  0  0  0  0
 11 12  1  0  0  0  0
 11 21  1  0  0  0  0
 12 13  1  0  0  0  0
 12 22  1  0  0  0  0
 12 23  1  0  0  0  0
 13 17  1  0  0  0  0
 13 14  1  0  0  0  0
 13 24  1  0  0  0  0
 14 15  1  0  0  0  0
 14 25  1  0  0  0  0
 14 26  1  0  0  0  0
 15 16  1  0  0  0  0
 15 27  1  0  0  0  0
 15 28  1  0  0  0  0
 16 17  1  0  0  0  0
 16 29  1  0  0  0  0
 16 30  1  0  0  0  0
M  END
> <s_m_source_file>
AV-unprocessed.smi

> <i_m_source_file_index>
3326

> <i_lp_mmshare_version>
43012

> <i_f3d_flags>
0

> <s_epik_input>
RkMoRikoRiljMVtjSF1bY0hdW2NIXW5jMVtOSF1bQ0gyXVtDQEBIXTJbQ0gyXVtDSDJdW0NIMl1PMg==

> <s_epik_cmdline>
J2VwaWtfcHl0aG9uJywgJy1waCcsICc3LjAnLCAnLXRuJywgJzgnLCAnLW1hJywgJzIwMCcsICctbWV0YWxfYmluZGluZycsICctaW1hZScsICc8aW5maWxlLm1hZT4nLCAnLW9tYWUnLCAnPG91dGZpbGUubWFlPic=

> <r_lp_tautomer_probability>
1

> <r_epik_Ionization_Penalty>
0.000820218

> <r_epik_Ionization_Penalty_Charging>
0

> <r_epik_Ionization_Penalty_Neutral>
0.000820218

> <r_epik_State_Penalty>
0.000527207

> <r_epik_Charging_Adjusted_Penalty>
0.000527207

> <i_epik_Tot_Q>
0

> <i_epik_Tot_abs_Q>
0

> <r_epik_Metal_State_Penalty>
-0

> <b_epik_Metal_Only>
0

> <s_lp_Force_Field>
OPLS_2005

> <r_lp_Energy>
21.819

> <b_lp_Chiralities_Consistent>
1

> <s_lp_Variant>
AV-unprocessed.smi:3326-1

> <Gold.Version>
5.8.1

> <Gold.Id.Protein>
6NUR|6NUR_protein|mol2

> <Gold.PLP.Fitness>
43.9341

> <Gold.PLP.PLP>
-44.7052

> <Gold.PLP.part.hbond>
0.0000

> <Gold.PLP.part.metal>
0.0000

> <Gold.PLP.part.buried>
-4.2784

> <Gold.PLP.part.nonpolar>
-39.8928

> <Gold.PLP.part.repulsive>
0.1563

> <Gold.PLP.ligand.clash>
0.5214

> <Gold.PLP.ligand.torsion>
0.3964

> <Gold.PLP.Chemscore.Hbond>
0.0000

> <Gold.PLP.Chemscore.CHOScore>
0.0000

> <Gold.PLP.Chemscore.Metal>
0.0000

> <Gold.PLP.Chemscore.Internal.Correction>
0.5431

> <Gold.Rescore>
     Score         DG    S(hbond)    S(metal)    S(lipo)     H(rot)  DE(clash)    DE(int)     intcor
      9.72     -12.49       0.00        0.00      87.28       1.25       0.07       2.70       ----

> <Gold.Chemscore.Fitness>
9.7161

> <Gold.Chemscore.DG>
-12.4877

> <Gold.Chemscore.ZeroCoef>
-5.4800

> <Gold.Chemscore.Hbond>
0.0000

> <Gold.Chemscore.Metal>
0.0000

> <Gold.Chemscore.Lipo>
87.2757

> <Gold.Chemscore.Internal_Hbond>
0.0000

> <Gold.Chemscore.DEClash>
0.0727

> <Gold.Chemscore.DEInternal>
2.6988

> <Gold.Chemscore.Rot>
1.2514

> <Gold.Chemscore.Internal.Correction>
   9.000000E+99

> <Gold.Chemscore.Hbond.Weighted>
-0.0000

> <Gold.Chemscore.Metal.Weighted>
-0.0000

> <Gold.Chemscore.Lipo.Weighted>
-10.2113

> <Gold.Chemscore.Internal_Hbond.Weighted>
0.0000

> <Gold.Chemscore.DEClash.Weighted>
0.0727

> <Gold.Chemscore.DEInternal.Weighted>
2.6988

> <Gold.Chemscore.Rot.Weighted>
3.2036

> <Gold.Chemscore.Internal.Correction.Weighted>
   9.000000E+99

> <Gold.Protein.RotatedTorsions>
[ 6907 6896 6895 6894 ] final -131.65 input  -60.11 | X-H torsion
[ 7974 7965 7964 7962 ] final  135.92 input  175.53 | X-H torsion
[ 8008 7997 7996 7995 ] final   36.79 input   59.86 | X-H torsion
[ 10167 10162 10161 10158 ] final  -38.57 input  -65.29 | X-H torsion
[ 10718 10713 10712 10709 ] final  -53.71 input   66.30 | X-H torsion
[ 10763 10752 10751 10750 ] final    3.82 input  -60.55 | X-H torsion
[ 11005 11000 10999 10996 ] final -143.52 input  -57.11 | X-H torsion

> <Gold.Protein.ActiveResidues>
 VAL166  LYS551  ARG553  GLY616  TRP617  ASP618  TYR619  PRO620  LYS621  CYS622 
 ASP623  PHE694  ASN695  SER759  ASP760  ASP761  ALA762  ILE779  LEU786  VAL792 
 PHE793  MET794  SER795  GLU796  ALA797  LYS798  CYS799  TRP800  GLU811  SER814 

> <Gold.Protein.RotatedAtoms>
  150.9534  133.6524  159.2767 H   0  0  0  0  0  0  0  0  0  0  0  0  # atno 6907 bound_to 6896
  151.3872  135.0949  159.9524 H   0  0  0  0  0  0  0  0  0  0  0  0  # atno 6908 bound_to 6896
  152.5119  133.9056  159.7517 H   0  0  0  0  0  0  0  0  0  0  0  0  # atno 6909 bound_to 6896
  144.9616  139.4704  143.5477 H   0  0  0  0  0  0  0  0  0  0  0  0  # atno 7974 bound_to 7965
  155.1932  140.3309  155.4355 H   0  0  0  0  0  0  0  0  0  0  0  0  # atno 8008 bound_to 7997
  156.2435  140.1906  156.6973 H   0  0  0  0  0  0  0  0  0  0  0  0  # atno 8009 bound_to 7997
  154.6192  140.0598  156.9579 H   0  0  0  0  0  0  0  0  0  0  0  0  # atno 8010 bound_to 7997
  140.7088  143.3269  151.2660 H   0  0  0  0  0  0  0  0  0  0  0  0  # atno 10167 bound_to 10162
  156.1512  130.4151  149.9943 H   0  0  0  0  0  0  0  0  0  0  0  0  # atno 10718 bound_to 10713
  153.2787  135.6938  153.7407 H   0  0  0  0  0  0  0  0  0  0  0  0  # atno 10763 bound_to 10752
  153.6403  135.3394  155.3070 H   0  0  0  0  0  0  0  0  0  0  0  0  # atno 10764 bound_to 10752
  154.8488  135.4430  154.1833 H   0  0  0  0  0  0  0  0  0  0  0  0  # atno 10765 bound_to 10752
  140.8117  134.2736  157.4938 H   0  0  0  0  0  0  0  0  0  0  0  0  # atno 11005 bound_to 11000
  146.3355  139.8769  142.8830 LP  0  0  0  0  0  0  0  0  0  0  0  0  # atno 17320 bound_to 7965
  145.2692  141.0103  143.3782 LP  0  0  0  0  0  0  0  0  0  0  0  0  # atno 17321 bound_to 7965
  139.6739  143.9971  152.2770 LP  0  0  0  0  0  0  0  0  0  0  0  0  # atno 17342 bound_to 10162
  139.9579  144.6577  150.8108 LP  0  0  0  0  0  0  0  0  0  0  0  0  # atno 17343 bound_to 10162
  156.7800  130.9218  151.3646 LP  0  0  0  0  0  0  0  0  0  0  0  0  # atno 17370 bound_to 10713
  157.6658  130.9006  149.9929 LP  0  0  0  0  0  0  0  0  0  0  0  0  # atno 17371 bound_to 10713
  139.8713  134.9487  156.4003 LP  0  0  0  0  0  0  0  0  0  0  0  0  # atno 17394 bound_to 11000
  140.9190  133.7658  155.9884 LP  0  0  0  0  0  0  0  0  0  0  0  0  # atno 17395 bound_to 11000

$$$$
