AV-unprocessed.smi:1644|AV-procd|sdf|6597|dock7
  -GOLD-   22720 7303D 1   1.00000     0.00000
 Structure written by MMmdl.
 49 51  0  0  0  0  0  0  0  0  3 V2000
  149.2324  133.6473  154.1430 C   0  0  0  0  0  0  0  0  0  0  0  0
  149.1022  133.0302  155.5399 C   0  0  0  0  0  0  0  0  0  0  0  0
  148.2405  133.8856  156.4829 C   0  0  0  0  0  0  0  0  0  0  0  0
  148.9636  135.1514  156.9906 C   0  0  1  0  0  0  0  0  0  0  0  0
  150.2823  134.8403  157.5038 N   0  5  0  0  0  0  0  0  0  0  0  0
  151.1997  135.5385  156.7953 C   0  0  0  0  0  0  0  0  0  0  0  0
  152.4201  135.5173  156.9504 O   0  0  0  0  0  0  0  0  0  0  0  0
  150.6093  136.2870  155.8447 N   0  0  0  0  0  0  0  0  0  0  0  0
  151.3152  137.1274  154.8712 C   0  0  0  0  0  0  0  0  0  0  0  0
  150.9200  138.6120  155.0127 C   0  0  2  0  0  0  0  0  0  0  0  0
  151.4914  139.3345  153.9396 O   0  0  0  0  0  0  0  0  0  0  0  0
  151.4244  139.2149  156.3383 C   0  0  0  0  0  0  0  0  0  0  0  0
  151.0090  140.6131  156.5219 N   0  0  0  0  0  0  0  0  0  0  0  0
  150.2053  141.3864  155.7434 C   0  0  0  0  0  0  0  0  0  0  0  0
  150.1196  142.6120  156.3309 N   0  3  0  0  0  0  0  0  0  0  0  0
  150.8842  142.6225  157.4994 C   0  0  0  0  0  0  0  0  0  0  0  0
  151.1109  143.6307  158.4287 C   0  0  0  0  0  0  0  0  0  0  0  0
  151.9528  143.3239  159.5214 C   0  0  0  0  0  0  0  0  0  0  0  0
  152.2227  144.4045  160.5544 C   0  0  0  0  0  0  0  0  0  0  0  0
  152.5364  142.0374  159.6543 C   0  0  0  0  0  0  0  0  0  0  0  0
  153.4439  141.7197  160.8305 C   0  0  0  0  0  0  0  0  0  0  0  0
  152.2913  141.0247  158.6993 C   0  0  0  0  0  0  0  0  0  0  0  0
  151.4588  141.3432  157.6286 C   0  0  0  0  0  0  0  0  0  0  0  0
  149.2838  136.1152  155.8662 C   0  0  0  0  0  0  0  0  0  0  0  0
  148.4473  136.6205  155.1162 O   0  0  0  0  0  0  0  0  0  0  0  0
  149.8443  133.0184  153.4960 H   0  0  0  0  0  0  0  0  0  0  0  0
  149.6996  134.6313  154.1896 H   0  0  0  0  0  0  0  0  0  0  0  0
  148.2562  133.7608  153.6708 H   0  0  0  0  0  0  0  0  0  0  0  0
  148.6690  132.0332  155.4527 H   0  0  0  0  0  0  0  0  0  0  0  0
  150.0971  132.8978  155.9665 H   0  0  0  0  0  0  0  0  0  0  0  0
  147.3096  134.1589  155.9828 H   0  0  0  0  0  0  0  0  0  0  0  0
  147.9527  133.2694  157.3360 H   0  0  0  0  0  0  0  0  0  0  0  0
  148.3418  135.6717  157.7205 H   0  0  0  0  0  0  0  0  0  0  0  0
  152.3866  137.0161  155.0475 H   0  0  0  0  0  0  0  0  0  0  0  0
  151.1587  136.7737  153.8504 H   0  0  0  0  0  0  0  0  0  0  0  0
  149.8351  138.7190  154.9696 H   0  0  0  0  0  0  0  0  0  0  0  0
  151.2373  138.9161  153.1303 H   0  0  0  0  0  0  0  0  0  0  0  0
  151.0150  138.6524  157.1783 H   0  0  0  0  0  0  0  0  0  0  0  0
  152.5091  139.1430  156.4233 H   0  0  0  0  0  0  0  0  0  0  0  0
  149.7234  141.0820  154.8254 H   0  0  0  0  0  0  0  0  0  0  0  0
  150.6643  144.6083  158.3200 H   0  0  0  0  0  0  0  0  0  0  0  0
  151.8578  144.0963  161.5344 H   0  0  0  0  0  0  0  0  0  0  0  0
  151.7266  145.3396  160.2923 H   0  0  0  0  0  0  0  0  0  0  0  0
  153.2916  144.6053  160.6295 H   0  0  0  0  0  0  0  0  0  0  0  0
  153.7932  140.6872  160.7980 H   0  0  0  0  0  0  0  0  0  0  0  0
  152.9151  141.8623  161.7732 H   0  0  0  0  0  0  0  0  0  0  0  0
  154.3206  142.3677  160.8231 H   0  0  0  0  0  0  0  0  0  0  0  0
  152.7420  140.0480  158.7958 H   0  0  0  0  0  0  0  0  0  0  0  0
  149.5806  143.3835  155.9587 H   0  0  0  0  0  0  0  0  0  0  0  0
  1  2  1  0  0  0  0
  1 26  1  0  0  0  0
  1 27  1  0  0  0  0
  1 28  1  0  0  0  0
  2  3  1  0  0  0  0
  2 29  1  0  0  0  0
  2 30  1  0  0  0  0
  3  4  1  0  0  0  0
  3 31  1  0  0  0  0
  3 32  1  0  0  0  0
  4 24  1  0  0  0  0
  4  5  1  0  0  0  0
  4 33  1  0  0  0  0
  5  6  1  0  0  0  0
  6  7  2  0  0  0  0
  6  8  1  0  0  0  0
  8  9  1  0  0  0  0
  8 24  1  0  0  0  0
  9 10  1  0  0  0  0
  9 34  1  0  0  0  0
  9 35  1  0  0  0  0
 10 11  1  0  0  0  0
 10 12  1  0  0  0  0
 10 36  1  0  0  0  0
 11 37  1  0  0  0  0
 12 13  1  0  0  0  0
 12 38  1  0  0  0  0
 12 39  1  0  0  0  0
 13 23  1  0  0  0  0
 13 14  1  0  0  0  0
 14 15  2  0  0  0  0
 14 40  1  0  0  0  0
 15 16  1  0  0  0  0
 15 49  1  0  0  0  0
 16 23  2  0  0  0  0
 16 17  1  0  0  0  0
 17 18  2  0  0  0  0
 17 41  1  0  0  0  0
 18 19  1  0  0  0  0
 18 20  1  0  0  0  0
 19 42  1  0  0  0  0
 19 43  1  0  0  0  0
 19 44  1  0  0  0  0
 20 21  1  0  0  0  0
 20 22  2  0  0  0  0
 21 45  1  0  0  0  0
 21 46  1  0  0  0  0
 21 47  1  0  0  0  0
 22 23  1  0  0  0  0
 22 48  1  0  0  0  0
 24 25  2  0  0  0  0
M  CHG  1   5  -1
M  CHG  1  15   1
M  END
> <s_m_source_file>
AV-unprocessed.smi

> <i_m_source_file_index>
1644

> <i_lp_mmshare_version>
43012

> <i_f3d_flags>
0

> <s_epik_input>
W0NIM11bQ0gyXVtDSDJdW0NAQEhdMVtOSF1DKD1PKU4oQzE9TylbQ0gyXVtDQEhdKFtPSF0pW0NIMl1uKFtjSF1uMiljKGMyMylbY0hdYyhbQ0gzXSljKFtjSF0zKVtDSDNd

> <s_epik_cmdline>
J2VwaWtfcHl0aG9uJywgJy1waCcsICc3LjAnLCAnLXRuJywgJzgnLCAnLW1hJywgJzIwMCcsICctbWV0YWxfYmluZGluZycsICctaW1hZScsICc8aW5maWxlLm1hZT4nLCAnLW9tYWUnLCAnPG91dGZpbGUubWFlPic=

> <r_lp_tautomer_probability>
1

> <r_epik_Ionization_Penalty>
6.86868

> <r_epik_Ionization_Penalty_Charging>
6.86868

> <r_epik_Ionization_Penalty_Neutral>
5.84798e-07

> <r_epik_State_Penalty>
6.92818

> <r_epik_Charging_Adjusted_Penalty>
13.7969

> <i_epik_Tot_Q>
0

> <i_epik_Tot_abs_Q>
2

> <r_epik_Metal_State_Penalty>
2.98017

> <b_epik_Metal_Only>
1

> <s_lp_Force_Field>
OPLS_2005

> <r_lp_Energy>
23.8384

> <b_lp_Chiralities_Consistent>
1

> <s_lp_Variant>
AV-unprocessed.smi:1644-14

> <Gold.Version>
5.8.1

> <Gold.Id.Protein>
6NUR|6NUR_protein|mol2

> <Gold.PLP.Fitness>
57.6395

> <Gold.PLP.PLP>
-41.6979

> <Gold.PLP.part.hbond>
-3.9128

> <Gold.PLP.part.metal>
0.0000

> <Gold.PLP.part.buried>
-1.2906

> <Gold.PLP.part.nonpolar>
-37.5297

> <Gold.PLP.part.repulsive>
0.2064

> <Gold.PLP.ligand.clash>
0.0000

> <Gold.PLP.ligand.torsion>
0.1492

> <Gold.PLP.Chemscore.Hbond>
5.3840

> <Gold.PLP.Chemscore.CHOScore>
0.0000

> <Gold.PLP.Chemscore.Metal>
0.0000

> <Gold.Chemscore.Hbonds>
donor molecule, donor type, donor heavy atom, donor atom, acceptor molecule, acceptor atom, score
      L1  H    15    49       P1  8028  2.00
      P1  H  6896  6907       L1     5  1.34
      P1  H  7989  7998       L1    11  0.98
      P1  H 10752 10763       L1     7  1.00

> <Gold.PLP.Chemscore.Internal.Correction>
0.0879

> <Gold.Rescore>
     Score         DG    S(hbond)    S(metal)    S(lipo)     H(rot)  DE(clash)    DE(int)     intcor
     20.45     -22.78       3.41        0.00     110.02       2.72       1.50       0.83       ----

> <Gold.Chemscore.Fitness>
20.4522

> <Gold.Chemscore.DG>
-22.7817

> <Gold.Chemscore.ZeroCoef>
-5.4800

> <Gold.Chemscore.Hbond>
3.4143

> <Gold.Chemscore.Metal>
0.0000

> <Gold.Chemscore.Lipo>
110.0248

> <Gold.Chemscore.Internal_Hbond>
0.0000

> <Gold.Chemscore.DEClash>
1.4988

> <Gold.Chemscore.DEInternal>
0.8307

> <Gold.Chemscore.Rot>
2.7245

> <Gold.Chemscore.Internal.Correction>
   9.000000E+99

> <Gold.Chemscore.Hbonds>
donor molecule, donor type, donor heavy atom, donor atom, acceptor molecule, acceptor atom, score
      L1  H    15    49       P1  8028  0.93
      P1  H  6896  6907       L1     5  0.64
      P1  H  7989  7998       L1    11  0.27
      P1  H 10752 10763       L1     7  0.90

> <Gold.Chemscore.Hbond.Weighted>
-11.4036

> <Gold.Chemscore.Metal.Weighted>
-0.0000

> <Gold.Chemscore.Lipo.Weighted>
-12.8729

> <Gold.Chemscore.Internal_Hbond.Weighted>
0.0000

> <Gold.Chemscore.DEClash.Weighted>
1.4988

> <Gold.Chemscore.DEInternal.Weighted>
0.8307

> <Gold.Chemscore.Rot.Weighted>
6.9748

> <Gold.Chemscore.Internal.Correction.Weighted>
   9.000000E+99

> <Gold.Protein.RotatedTorsions>
[ 6907 6896 6895 6894 ] final  -95.56 input  -60.11 | X-H torsion
[ 7974 7965 7964 7962 ] final   30.09 input  175.53 | X-H torsion
[ 8008 7997 7996 7995 ] final -150.98 input   59.86 | X-H torsion
[ 10167 10162 10161 10158 ] final  -68.13 input  -65.29 | X-H torsion
[ 10718 10713 10712 10709 ] final -167.50 input   66.30 | X-H torsion
[ 10763 10752 10751 10750 ] final  113.34 input  -60.55 | X-H torsion
[ 11005 11000 10999 10996 ] final   86.97 input  -57.11 | X-H torsion

> <Gold.Protein.ActiveResidues>
 VAL166  LYS551  ARG553  GLY616  TRP617  ASP618  TYR619  PRO620  LYS621  CYS622 
 ASP623  PHE694  ASN695  SER759  ASP760  ASP761  ALA762  ILE779  LEU786  VAL792 
 PHE793  MET794  SER795  GLU796  ALA797  LYS798  CYS799  TRP800  GLU811  SER814 

> <Gold.Protein.RotatedAtoms>
  150.6967  134.1638  159.4186 H   0  0  0  0  0  0  0  0  0  0  0  0  # atno 6907 bound_to 6896
  151.9618  135.0117  160.0557 H   0  0  0  0  0  0  0  0  0  0  0  0  # atno 6908 bound_to 6896
  152.1920  133.4745  159.5050 H   0  0  0  0  0  0  0  0  0  0  0  0  # atno 6909 bound_to 6896
  146.1632  139.6834  142.9019 H   0  0  0  0  0  0  0  0  0  0  0  0  # atno 7974 bound_to 7965
  155.6322  140.0692  157.2645 H   0  0  0  0  0  0  0  0  0  0  0  0  # atno 8008 bound_to 7997
  154.4203  140.1765  156.1533 H   0  0  0  0  0  0  0  0  0  0  0  0  # atno 8009 bound_to 7997
  155.9924  140.3344  155.6769 H   0  0  0  0  0  0  0  0  0  0  0  0  # atno 8010 bound_to 7997
  140.5530  143.2312  151.6874 H   0  0  0  0  0  0  0  0  0  0  0  0  # atno 10167 bound_to 10162
  156.6832  130.9130  151.3060 H   0  0  0  0  0  0  0  0  0  0  0  0  # atno 10718 bound_to 10713
  153.4910  135.3658  155.2492 H   0  0  0  0  0  0  0  0  0  0  0  0  # atno 10763 bound_to 10752
  154.8752  135.3977  154.3589 H   0  0  0  0  0  0  0  0  0  0  0  0  # atno 10764 bound_to 10752
  153.4208  135.7080  153.6361 H   0  0  0  0  0  0  0  0  0  0  0  0  # atno 10765 bound_to 10752
  139.8931  134.8391  156.2795 H   0  0  0  0  0  0  0  0  0  0  0  0  # atno 11005 bound_to 11000
  145.4534  141.0429  143.2792 LP  0  0  0  0  0  0  0  0  0  0  0  0  # atno 17320 bound_to 7965
  144.8056  139.6057  143.7052 LP  0  0  0  0  0  0  0  0  0  0  0  0  # atno 17321 bound_to 7965
  139.5036  144.3787  152.0398 LP  0  0  0  0  0  0  0  0  0  0  0  0  # atno 17342 bound_to 10162
  140.2905  144.3759  150.6090 LP  0  0  0  0  0  0  0  0  0  0  0  0  # atno 17343 bound_to 10162
  157.7036  130.9360  150.0860 LP  0  0  0  0  0  0  0  0  0  0  0  0  # atno 17370 bound_to 10713
  156.1852  130.3652  149.8982 LP  0  0  0  0  0  0  0  0  0  0  0  0  # atno 17371 bound_to 10713
  141.0048  133.7130  156.1017 LP  0  0  0  0  0  0  0  0  0  0  0  0  # atno 17394 bound_to 11000
  140.7449  134.4109  157.5550 LP  0  0  0  0  0  0  0  0  0  0  0  0  # atno 17395 bound_to 11000

$$$$
