AV-unprocessed.smi:36|AV-procd|sdf|292|dock2
  -GOLD-   2262016 83D 1   1.00000     0.00000
 Structure written by MMmdl.
 64 67  0  0  0  0  0  0  0  0  1 V2000
  150.0014  130.3262  161.3952 C   0  0  0  0  0  0  0  0  0  0  0  0
  150.9338  129.1186  161.2048 C   0  0  0  0  0  0  0  0  0  0  0  0
  150.8575  128.2017  162.4366 C   0  0  0  0  0  0  0  0  0  0  0  0
  150.5224  128.3338  159.9480 C   0  0  0  0  0  0  0  0  0  0  0  0
  152.7316  129.7295  160.9928 Si  0  0  0  0  0  0  0  0  0  0  0  0
  153.9366  128.2647  160.8658 C   0  0  0  0  0  0  0  0  0  0  0  0
  152.9078  130.8411  159.4623 C   0  0  0  0  0  0  0  0  0  0  0  0
  153.1367  130.6456  162.3560 O   0  0  0  0  0  0  0  0  0  0  0  0
  154.1622  131.6165  162.3643 C   0  0  0  0  0  0  0  0  0  0  0  0
  154.5159  131.9628  163.8160 C   0  0  1  0  0  0  0  0  0  0  0  0
  155.5479  132.9536  163.8721 O   0  0  0  0  0  0  0  0  0  0  0  0
  155.2202  133.9664  164.7800 C   0  0  1  0  0  0  0  0  0  0  0  0
  154.7811  135.1745  164.0050 N   0  0  0  0  0  0  0  0  0  0  0  0
  154.0126  136.1986  164.4268 C   0  0  0  0  0  0  0  0  0  0  0  0
  153.7574  137.1362  163.5187 N   0  0  0  0  0  0  0  0  0  0  0  0
  154.4127  136.6529  162.3922 C   0  0  0  0  0  0  0  0  0  0  0  0
  154.5094  137.2155  161.0281 C   0  0  0  0  0  0  0  0  0  0  0  0
  153.9162  138.3480  160.8011 N   0  0  0  0  0  0  0  0  0  0  0  0
  153.9681  138.9222  159.5378 C   0  0  0  0  0  0  0  0  0  0  0  0
  154.3931  138.4385  158.4849 O   0  0  0  0  0  0  0  0  0  0  0  0
  153.4655  140.3289  159.5095 C   0  0  0  0  0  0  0  0  0  0  0  0
  152.5186  140.7237  158.5405 C   0  0  0  0  0  0  0  0  0  0  0  0
  152.0386  142.0478  158.5206 C   0  0  0  0  0  0  0  0  0  0  0  0
  152.5021  142.9799  159.4692 C   0  0  0  0  0  0  0  0  0  0  0  0
  153.4453  142.5879  160.4391 C   0  0  0  0  0  0  0  0  0  0  0  0
  153.9260  141.2640  160.4605 C   0  0  0  0  0  0  0  0  0  0  0  0
  155.2612  136.3596  160.2128 N   0  0  0  0  0  0  0  0  0  0  0  0
  155.8422  135.1452  160.6096 C   0  0  0  0  0  0  0  0  0  0  0  0
  155.7638  134.6367  161.8105 N   0  0  0  0  0  0  0  0  0  0  0  0
  155.0311  135.4513  162.6630 C   0  0  0  0  0  0  0  0  0  0  0  0
  154.0637  133.4209  165.6182 C   0  0  0  0  0  0  0  0  0  0  0  0
  153.3444  132.5547  164.6065 C   0  0  2  0  0  0  0  0  0  0  0  0
  152.5705  131.5635  165.2494 O   0  0  0  0  0  0  0  0  0  0  0  0
  148.9653  130.0097  161.5218 H   0  0  0  0  0  0  0  0  0  0  0  0
  150.0367  130.9953  160.5353 H   0  0  0  0  0  0  0  0  0  0  0  0
  150.2771  130.9064  162.2762 H   0  0  0  0  0  0  0  0  0  0  0  0
  151.1394  128.7331  163.3457 H   0  0  0  0  0  0  0  0  0  0  0  0
  151.5253  127.3458  162.3353 H   0  0  0  0  0  0  0  0  0  0  0  0
  149.8478  127.8163  162.5822 H   0  0  0  0  0  0  0  0  0  0  0  0
  149.5067  127.9468  160.0366 H   0  0  0  0  0  0  0  0  0  0  0  0
  151.1853  127.4849  159.7771 H   0  0  0  0  0  0  0  0  0  0  0  0
  150.5578  128.9621  159.0578 H   0  0  0  0  0  0  0  0  0  0  0  0
  153.6731  127.5988  160.0447 H   0  0  0  0  0  0  0  0  0  0  0  0
  153.9417  127.6698  161.7789 H   0  0  0  0  0  0  0  0  0  0  0  0
  154.9584  128.6001  160.6906 H   0  0  0  0  0  0  0  0  0  0  0  0
  152.6551  130.3066  158.5470 H   0  0  0  0  0  0  0  0  0  0  0  0
  153.9278  131.2084  159.3525 H   0  0  0  0  0  0  0  0  0  0  0  0
  152.2557  131.7124  159.5219 H   0  0  0  0  0  0  0  0  0  0  0  0
  155.0371  131.2666  161.8175 H   0  0  0  0  0  0  0  0  0  0  0  0
  153.7964  132.5030  161.8457 H   0  0  0  0  0  0  0  0  0  0  0  0
  154.8931  131.0767  164.3299 H   0  0  0  0  0  0  0  0  0  0  0  0
  156.0805  134.3073  165.3570 H   0  0  0  0  0  0  0  0  0  0  0  0
  153.6171  136.2609  165.4282 H   0  0  0  0  0  0  0  0  0  0  0  0
  152.1562  140.0135  157.8112 H   0  0  0  0  0  0  0  0  0  0  0  0
  151.3137  142.3479  157.7785 H   0  0  0  0  0  0  0  0  0  0  0  0
  152.1328  143.9947  159.4542 H   0  0  0  0  0  0  0  0  0  0  0  0
  153.7991  143.3025  161.1676 H   0  0  0  0  0  0  0  0  0  0  0  0
  154.6482  140.9700  161.2086 H   0  0  0  0  0  0  0  0  0  0  0  0
  156.3858  134.6330  159.8145 H   0  0  0  0  0  0  0  0  0  0  0  0
  154.4822  132.8195  166.4267 H   0  0  0  0  0  0  0  0  0  0  0  0
  153.4432  134.2067  166.0484 H   0  0  0  0  0  0  0  0  0  0  0  0
  152.7100  133.1707  163.9672 H   0  0  0  0  0  0  0  0  0  0  0  0
  153.0748  130.7651  165.2840 H   0  0  0  0  0  0  0  0  0  0  0  0
  155.3939  136.6416  159.2521 H   0  0  0  0  0  0  0  0  0  0  0  0
  1  2  1  0  0  0  0
  1 34  1  0  0  0  0
  1 35  1  0  0  0  0
  1 36  1  0  0  0  0
  2  3  1  0  0  0  0
  2  4  1  0  0  0  0
  2  5  1  0  0  0  0
  3 37  1  0  0  0  0
  3 38  1  0  0  0  0
  3 39  1  0  0  0  0
  4 40  1  0  0  0  0
  4 41  1  0  0  0  0
  4 42  1  0  0  0  0
  5  6  1  0  0  0  0
  5  7  1  0  0  0  0
  5  8  1  0  0  0  0
  6 43  1  0  0  0  0
  6 44  1  0  0  0  0
  6 45  1  0  0  0  0
  7 46  1  0  0  0  0
  7 47  1  0  0  0  0
  7 48  1  0  0  0  0
  8  9  1  0  0  0  0
  9 10  1  0  0  0  0
  9 49  1  0  0  0  0
  9 50  1  0  0  0  0
 10 32  1  0  0  0  0
 10 11  1  0  0  0  0
 10 51  1  0  0  0  0
 11 12  1  0  0  0  0
 12 13  1  0  0  0  0
 12 31  1  0  0  0  0
 12 52  1  0  0  0  0
 13 30  1  0  0  0  0
 13 14  1  0  0  0  0
 14 15  2  0  0  0  0
 14 53  1  0  0  0  0
 15 16  1  0  0  0  0
 16 30  2  0  0  0  0
 16 17  1  0  0  0  0
 17 18  2  0  0  0  0
 17 27  1  0  0  0  0
 18 19  1  0  0  0  0
 19 20  2  0  0  0  0
 19 21  1  0  0  0  0
 21 26  1  0  0  0  0
 21 22  2  0  0  0  0
 22 23  1  0  0  0  0
 22 54  1  0  0  0  0
 23 24  2  0  0  0  0
 23 55  1  0  0  0  0
 24 25  1  0  0  0  0
 24 56  1  0  0  0  0
 25 26  2  0  0  0  0
 25 57  1  0  0  0  0
 26 58  1  0  0  0  0
 27 28  1  0  0  0  0
 27 64  1  0  0  0  0
 28 29  2  0  0  0  0
 28 59  1  0  0  0  0
 29 30  1  0  0  0  0
 31 32  1  0  0  0  0
 31 60  1  0  0  0  0
 31 61  1  0  0  0  0
 32 33  1  0  0  0  0
 32 62  1  0  0  0  0
 33 63  1  0  0  0  0
M  END
> <s_m_source_file>
AV-unprocessed.smi

> <i_m_source_file_index>
36

> <i_lp_mmshare_version>
43012

> <i_f3d_flags>
0

> <s_epik_input>
W0NIM11DKFtDSDNdKShbQ0gzXSlbU2ldKFtDSDNdKShbQ0gzXSlPW0NIMl1bQ0BASF0xT1tDQEhdKFtDSDJdW0NASF0xW09IXSluKFtjSF1uMiljKGMyMyluW2NIXW5jM1tOSF1DKD1PKWM0W2NIXVtjSF1bY0hdW2NIXVtjSF00

> <s_epik_cmdline>
J2VwaWtfcHl0aG9uJywgJy1waCcsICc3LjAnLCAnLXRuJywgJzgnLCAnLW1hJywgJzIwMCcsICctbWV0YWxfYmluZGluZycsICctaW1hZScsICc8aW5maWxlLm1hZT4nLCAnLW9tYWUnLCAnPG91dGZpbGUubWFlPic=

> <r_epik_Ionization_Penalty>
0.0850405

> <r_epik_Ionization_Penalty_Charging>
0.0850403

> <r_epik_Ionization_Penalty_Neutral>
1.47497e-07

> <r_epik_State_Penalty>
2.6133

> <r_epik_Charging_Adjusted_Penalty>
2.69834

> <i_epik_Tot_Q>
0

> <i_epik_Tot_abs_Q>
0

> <r_epik_Metal_State_Penalty>
2.92945

> <b_epik_Metal_Only>
0

> <s_epik_Chemistry_Notes>
This compound contains an acetal/aminal-like group ( X-CH(R)-Y where X, Y are N, S, or O) that may be acid/base labile, releasing an aldehyde.

> <s_lp_Force_Field>
OPLS_2005

> <r_lp_Energy>
45.4031

> <b_lp_Chiralities_Consistent>
1

> <s_lp_Variant>
AV-unprocessed.smi:36-14

> <Gold.Version>
5.8.1

> <Gold.Id.Protein>
6NUR|6NUR_protein|mol2

> <Gold.PLP.Fitness>
46.3688

> <Gold.PLP.PLP>
-46.5859

> <Gold.PLP.part.hbond>
-1.0628

> <Gold.PLP.part.metal>
0.0000

> <Gold.PLP.part.buried>
-5.9922

> <Gold.PLP.part.nonpolar>
-38.6577

> <Gold.PLP.part.repulsive>
0.0651

> <Gold.PLP.ligand.clash>
0.0000

> <Gold.PLP.ligand.torsion>
1.8324

> <Gold.PLP.Chemscore.Hbond>
1.0000

> <Gold.PLP.Chemscore.CHOScore>
0.0000

> <Gold.PLP.Chemscore.Metal>
0.0000

> <Gold.Chemscore.Hbonds>
donor molecule, donor type, donor heavy atom, donor atom, acceptor molecule, acceptor atom, score
      P1  H  7997  8008       L1    20  0.94

> <Gold.PLP.Chemscore.Internal.Correction>
0.4476

> <Gold.Rescore>
     Score         DG    S(hbond)    S(metal)    S(lipo)     H(rot)  DE(clash)    DE(int)     intcor
     10.64     -14.16       0.98        0.00     105.53       2.70       0.12       3.40       ----

> <Gold.Chemscore.Fitness>
10.6409

> <Gold.Chemscore.DG>
-14.1638

> <Gold.Chemscore.ZeroCoef>
-5.4800

> <Gold.Chemscore.Hbond>
0.9757

> <Gold.Chemscore.Metal>
0.0000

> <Gold.Chemscore.Lipo>
105.5346

> <Gold.Chemscore.Internal_Hbond>
0.0000

> <Gold.Chemscore.DEClash>
0.1196

> <Gold.Chemscore.DEInternal>
3.4034

> <Gold.Chemscore.Rot>
2.7041

> <Gold.Chemscore.Internal.Correction>
   9.000000E+99

> <Gold.Chemscore.Hbonds>
donor molecule, donor type, donor heavy atom, donor atom, acceptor molecule, acceptor atom, score
      P1  H  7997  8008       L1    20  0.58

> <Gold.Chemscore.Hbond.Weighted>
-3.2588

> <Gold.Chemscore.Metal.Weighted>
-0.0000

> <Gold.Chemscore.Lipo.Weighted>
-12.3475

> <Gold.Chemscore.Internal_Hbond.Weighted>
0.0000

> <Gold.Chemscore.DEClash.Weighted>
0.1196

> <Gold.Chemscore.DEInternal.Weighted>
3.4034

> <Gold.Chemscore.Rot.Weighted>
6.9225

> <Gold.Chemscore.Internal.Correction.Weighted>
   9.000000E+99

> <Gold.Protein.RotatedTorsions>
[ 6907 6896 6895 6894 ] final  -82.63 input  -60.11 | X-H torsion
[ 7974 7965 7964 7962 ] final -123.77 input  175.53 | X-H torsion
[ 8008 7997 7996 7995 ] final -107.06 input   59.86 | X-H torsion
[ 10167 10162 10161 10158 ] final -131.25 input  -65.29 | X-H torsion
[ 10718 10713 10712 10709 ] final  -34.08 input   66.30 | X-H torsion
[ 10763 10752 10751 10750 ] final   -4.50 input  -60.55 | X-H torsion
[ 11005 11000 10999 10996 ] final  107.01 input  -57.11 | X-H torsion

> <Gold.Protein.ActiveResidues>
 VAL166  LYS551  ARG553  GLY616  TRP617  ASP618  TYR619  PRO620  LYS621  CYS622 
 ASP623  PHE694  ASN695  SER759  ASP760  ASP761  ALA762  ILE779  LEU786  VAL792 
 PHE793  MET794  SER795  GLU796  ALA797  LYS798  CYS799  TRP800  GLU811  SER814 

> <Gold.Protein.RotatedAtoms>
  150.6895  134.3635  159.4960 H   0  0  0  0  0  0  0  0  0  0  0  0  # atno 6907 bound_to 6896
  152.1460  134.9022  160.0560 H   0  0  0  0  0  0  0  0  0  0  0  0  # atno 6908 bound_to 6896
  152.0138  133.3837  159.4267 H   0  0  0  0  0  0  0  0  0  0  0  0  # atno 6909 bound_to 6896
  145.0152  140.7940  143.4414 H   0  0  0  0  0  0  0  0  0  0  0  0  # atno 7974 bound_to 7965
  154.9237  140.0406  157.2011 H   0  0  0  0  0  0  0  0  0  0  0  0  # atno 8008 bound_to 7997
  154.8229  140.2886  155.5753 H   0  0  0  0  0  0  0  0  0  0  0  0  # atno 8009 bound_to 7997
  156.2981  140.2515  156.3139 H   0  0  0  0  0  0  0  0  0  0  0  0  # atno 8010 bound_to 7997
  139.9209  143.6383  152.2554 H   0  0  0  0  0  0  0  0  0  0  0  0  # atno 10167 bound_to 10162
  156.3549  130.4314  149.7673 H   0  0  0  0  0  0  0  0  0  0  0  0  # atno 10718 bound_to 10713
  153.3857  135.7000  153.6532 H   0  0  0  0  0  0  0  0  0  0  0  0  # atno 10763 bound_to 10752
  153.5125  135.3629  155.2594 H   0  0  0  0  0  0  0  0  0  0  0  0  # atno 10764 bound_to 10752
  154.8697  135.4138  154.3164 H   0  0  0  0  0  0  0  0  0  0  0  0  # atno 10765 bound_to 10752
  139.8822  134.9387  156.5753 H   0  0  0  0  0  0  0  0  0  0  0  0  # atno 11005 bound_to 11000
  145.1969  139.2272  143.5213 LP  0  0  0  0  0  0  0  0  0  0  0  0  # atno 17320 bound_to 7965
  146.3476  140.1778  142.8589 LP  0  0  0  0  0  0  0  0  0  0  0  0  # atno 17321 bound_to 7965
  139.6862  144.7651  151.1519 LP  0  0  0  0  0  0  0  0  0  0  0  0  # atno 17342 bound_to 10162
  140.7662  143.5653  150.9054 LP  0  0  0  0  0  0  0  0  0  0  0  0  # atno 17343 bound_to 10162
  156.4859  130.8063  151.3075 LP  0  0  0  0  0  0  0  0  0  0  0  0  # atno 17370 bound_to 10713
  157.7466  130.9991  150.2876 LP  0  0  0  0  0  0  0  0  0  0  0  0  # atno 17371 bound_to 10713
  140.8067  133.8461  155.8774 LP  0  0  0  0  0  0  0  0  0  0  0  0  # atno 17394 bound_to 11000
  140.9543  134.1738  157.4704 LP  0  0  0  0  0  0  0  0  0  0  0  0  # atno 17395 bound_to 11000

$$$$
