AV-unprocessed.smi:1047|AV-procd|sdf|4588|dock7
  -GOLD-   22720 3 63D 1   1.00000     0.00000
 Structure written by MMmdl.
 57 59  0  0  0  0  0  0  0  0  3 V2000
  145.7116  132.3901  152.1979 C   0  0  0  0  0  0  0  0  0  0  0  0
  146.6097  131.1610  152.3985 C   0  0  0  0  0  0  0  0  0  0  0  0
  147.4346  131.1890  153.6055 N   0  0  0  0  0  0  0  0  0  0  0  0
  148.1247  129.9235  153.8423 C   0  0  0  0  0  0  0  0  0  0  0  0
  149.0135  129.9822  155.0959 C   0  0  0  0  0  0  0  0  0  0  0  0
  149.9347  131.0619  154.9806 O   0  0  0  0  0  0  0  0  0  0  0  0
  149.2963  132.3248  154.8063 C   0  0  1  0  0  0  0  0  0  0  0  0
  150.3880  133.3977  154.6960 C   0  0  0  0  0  0  0  0  0  0  0  0
  149.8267  134.7502  154.8830 N   0  3  0  0  0  0  0  0  0  0  0  0
  150.7991  135.7349  155.3979 C   0  0  0  0  0  0  0  0  0  0  0  0
  150.1990  137.1534  155.4566 C   0  0  2  0  0  0  0  0  0  0  0  0
  149.2874  137.3160  154.3887 O   0  0  0  0  0  0  0  0  0  0  0  0
  151.2463  138.2796  155.3366 C   0  0  0  0  0  0  0  0  0  0  0  0
  150.7366  139.5923  155.7595 N   0  0  0  0  0  0  0  0  0  0  0  0
  149.6206  140.2578  155.3542 C   0  0  0  0  0  0  0  0  0  0  0  0
  149.5812  141.4421  156.0249 N   0  3  0  0  0  0  0  0  0  0  0  0
  150.6908  141.5384  156.8669 C   0  0  0  0  0  0  0  0  0  0  0  0
  151.0845  142.5460  157.7396 C   0  0  0  0  0  0  0  0  0  0  0  0
  152.2783  142.3393  158.4670 C   0  0  0  0  0  0  0  0  0  0  0  0
  152.7356  143.4198  159.4324 C   0  0  0  0  0  0  0  0  0  0  0  0
  153.0359  141.1510  158.3033 C   0  0  0  0  0  0  0  0  0  0  0  0
  154.3177  140.9388  159.0908 C   0  0  0  0  0  0  0  0  0  0  0  0
  152.6187  140.1381  157.4101 C   0  0  0  0  0  0  0  0  0  0  0  0
  151.4393  140.3563  156.7007 C   0  0  0  0  0  0  0  0  0  0  0  0
  148.4211  132.2614  153.5386 C   0  0  0  0  0  0  0  0  0  0  0  0
  145.2190  132.3486  151.2263 H   0  0  0  0  0  0  0  0  0  0  0  0
  146.2916  133.3125  152.2353 H   0  0  0  0  0  0  0  0  0  0  0  0
  144.9284  132.4504  152.9535 H   0  0  0  0  0  0  0  0  0  0  0  0
  145.9972  130.2582  152.3869 H   0  0  0  0  0  0  0  0  0  0  0  0
  147.2637  131.0903  151.5285 H   0  0  0  0  0  0  0  0  0  0  0  0
  147.4034  129.1160  153.9651 H   0  0  0  0  0  0  0  0  0  0  0  0
  148.7372  129.6677  152.9763 H   0  0  0  0  0  0  0  0  0  0  0  0
  148.4065  130.1070  155.9939 H   0  0  0  0  0  0  0  0  0  0  0  0
  149.5680  129.0509  155.2106 H   0  0  0  0  0  0  0  0  0  0  0  0
  148.6652  132.5363  155.6717 H   0  0  0  0  0  0  0  0  0  0  0  0
  151.1690  133.2154  155.4357 H   0  0  0  0  0  0  0  0  0  0  0  0
  150.8583  133.3499  153.7129 H   0  0  0  0  0  0  0  0  0  0  0  0
  149.4727  135.0776  153.9955 H   0  0  0  0  0  0  0  0  0  0  0  0
  151.0921  135.4114  156.3967 H   0  0  0  0  0  0  0  0  0  0  0  0
  151.6999  135.7249  154.7822 H   0  0  0  0  0  0  0  0  0  0  0  0
  149.6531  137.2810  156.3925 H   0  0  0  0  0  0  0  0  0  0  0  0
  149.1068  136.4719  154.0042 H   0  0  0  0  0  0  0  0  0  0  0  0
  152.1492  138.0419  155.8992 H   0  0  0  0  0  0  0  0  0  0  0  0
  151.5590  138.3840  154.2964 H   0  0  0  0  0  0  0  0  0  0  0  0
  148.8975  139.9108  154.6297 H   0  0  0  0  0  0  0  0  0  0  0  0
  150.5032  143.4488  157.8584 H   0  0  0  0  0  0  0  0  0  0  0  0
  152.8333  143.0169  160.4409 H   0  0  0  0  0  0  0  0  0  0  0  0
  152.0251  144.2464  159.4730 H   0  0  0  0  0  0  0  0  0  0  0  0
  153.7004  143.8241  159.1250 H   0  0  0  0  0  0  0  0  0  0  0  0
  154.8053  140.0030  158.8159 H   0  0  0  0  0  0  0  0  0  0  0  0
  154.1072  140.9040  160.1601 H   0  0  0  0  0  0  0  0  0  0  0  0
  155.0238  141.7480  158.9024 H   0  0  0  0  0  0  0  0  0  0  0  0
  153.1977  139.2344  157.2920 H   0  0  0  0  0  0  0  0  0  0  0  0
  149.0585  132.1211  152.6636 H   0  0  0  0  0  0  0  0  0  0  0  0
  147.9145  133.2177  153.4031 H   0  0  0  0  0  0  0  0  0  0  0  0
  149.0571  134.6865  155.5343 H   0  0  0  0  0  0  0  0  0  0  0  0
  148.8519  142.1348  155.9111 H   0  0  0  0  0  0  0  0  0  0  0  0
  1  2  1  0  0  0  0
  1 26  1  0  0  0  0
  1 27  1  0  0  0  0
  1 28  1  0  0  0  0
  2  3  1  0  0  0  0
  2 29  1  0  0  0  0
  2 30  1  0  0  0  0
  3 25  1  0  0  0  0
  3  4  1  0  0  0  0
  4  5  1  0  0  0  0
  4 31  1  0  0  0  0
  4 32  1  0  0  0  0
  5  6  1  0  0  0  0
  5 33  1  0  0  0  0
  5 34  1  0  0  0  0
  6  7  1  0  0  0  0
  7  8  1  0  0  0  0
  7 25  1  0  0  0  0
  7 35  1  0  0  0  0
  8  9  1  0  0  0  0
  8 36  1  0  0  0  0
  8 37  1  0  0  0  0
  9 10  1  0  0  0  0
  9 38  1  0  0  0  0
  9 56  1  0  0  0  0
 10 11  1  0  0  0  0
 10 39  1  0  0  0  0
 10 40  1  0  0  0  0
 11 12  1  0  0  0  0
 11 13  1  0  0  0  0
 11 41  1  0  0  0  0
 12 42  1  0  0  0  0
 13 14  1  0  0  0  0
 13 43  1  0  0  0  0
 13 44  1  0  0  0  0
 14 24  1  0  0  0  0
 14 15  1  0  0  0  0
 15 16  2  0  0  0  0
 15 45  1  0  0  0  0
 16 17  1  0  0  0  0
 16 57  1  0  0  0  0
 17 24  2  0  0  0  0
 17 18  1  0  0  0  0
 18 19  2  0  0  0  0
 18 46  1  0  0  0  0
 19 20  1  0  0  0  0
 19 21  1  0  0  0  0
 20 47  1  0  0  0  0
 20 48  1  0  0  0  0
 20 49  1  0  0  0  0
 21 22  1  0  0  0  0
 21 23  2  0  0  0  0
 22 50  1  0  0  0  0
 22 51  1  0  0  0  0
 22 52  1  0  0  0  0
 23 24  1  0  0  0  0
 23 53  1  0  0  0  0
 25 54  1  0  0  0  0
 25 55  1  0  0  0  0
M  CHG  1   9   1
M  CHG  1  16   1
M  END
> <s_m_source_file>
AV-unprocessed.smi

> <i_m_source_file_index>
1047

> <i_lp_mmshare_version>
43012

> <i_f3d_flags>
0

> <s_epik_input>
W0NIM11bQ0gyXU4xW0NIMl1bQ0gyXU9bQ0BIXShbQ0gyXTEpW0NIMl1bTkhdW0NIMl1bQ0BIXShbT0hdKVtDSDJdbihbY0hdbjIpYyhjMjMpW2NIXWMoW0NIM10pYyhbY0hdMylbQ0gzXQ==

> <s_epik_cmdline>
J2VwaWtfcHl0aG9uJywgJy1waCcsICc3LjAnLCAnLXRuJywgJzgnLCAnLW1hJywgJzIwMCcsICctbWV0YWxfYmluZGluZycsICctaW1hZScsICc8aW5maWxlLm1hZT4nLCAnLW9tYWUnLCAnPG91dGZpbGUubWFlPic=

> <r_epik_Ionization_Penalty>
1.75732

> <r_epik_Ionization_Penalty_Charging>
1.18089

> <r_epik_Ionization_Penalty_Neutral>
0.576429

> <r_epik_State_Penalty>
1.69377

> <r_epik_Charging_Adjusted_Penalty>
2.87466

> <i_epik_Tot_Q>
2

> <i_epik_Tot_abs_Q>
2

> <r_epik_Metal_State_Penalty>
5.70174

> <b_epik_Metal_Only>
0

> <s_lp_Force_Field>
OPLS_2005

> <r_lp_Energy>
42.0789

> <b_lp_Chiralities_Consistent>
1

> <s_lp_Variant>
AV-unprocessed.smi:1047-29

> <Gold.Version>
5.8.1

> <Gold.Id.Protein>
6NUR|6NUR_protein|mol2

> <Gold.PLP.Fitness>
61.3529

> <Gold.PLP.PLP>
-47.9043

> <Gold.PLP.part.hbond>
-3.0000

> <Gold.PLP.part.metal>
0.0000

> <Gold.PLP.part.buried>
-5.2663

> <Gold.PLP.part.nonpolar>
-40.5746

> <Gold.PLP.part.repulsive>
0.3312

> <Gold.PLP.ligand.clash>
0.0000

> <Gold.PLP.ligand.torsion>
0.7858

> <Gold.PLP.Chemscore.Hbond>
4.9760

> <Gold.PLP.Chemscore.CHOScore>
0.0000

> <Gold.PLP.Chemscore.Metal>
0.0000

> <Gold.Chemscore.Hbonds>
donor molecule, donor type, donor heavy atom, donor atom, acceptor molecule, acceptor atom, score
      L1  H    12    42       P1  7948  0.30

> <Gold.PLP.Chemscore.Internal.Correction>
0.0922

> <Gold.Rescore>
     Score         DG    S(hbond)    S(metal)    S(lipo)     H(rot)  DE(clash)    DE(int)     intcor
     20.00     -22.26       2.91        0.00     119.19       2.69       0.02       2.24       ----

> <Gold.Chemscore.Fitness>
19.9982

> <Gold.Chemscore.DG>
-22.2603

> <Gold.Chemscore.ZeroCoef>
-5.4800

> <Gold.Chemscore.Hbond>
2.9118

> <Gold.Chemscore.Metal>
0.0000

> <Gold.Chemscore.Lipo>
119.1936

> <Gold.Chemscore.Internal_Hbond>
0.0000

> <Gold.Chemscore.DEClash>
0.0199

> <Gold.Chemscore.DEInternal>
2.2422

> <Gold.Chemscore.Rot>
2.6917

> <Gold.Chemscore.Internal.Correction>
   9.000000E+99

> <Gold.Chemscore.Hbonds>
donor molecule, donor type, donor heavy atom, donor atom, acceptor molecule, acceptor atom, score
      L1  H     9    38       P1  7948  0.01
      L1  H    12    42       P1  7948  0.29

> <Gold.Chemscore.Hbond.Weighted>
-9.7254

> <Gold.Chemscore.Metal.Weighted>
-0.0000

> <Gold.Chemscore.Lipo.Weighted>
-13.9457

> <Gold.Chemscore.Internal_Hbond.Weighted>
0.0000

> <Gold.Chemscore.DEClash.Weighted>
0.0199

> <Gold.Chemscore.DEInternal.Weighted>
2.2422

> <Gold.Chemscore.Rot.Weighted>
6.8907

> <Gold.Chemscore.Internal.Correction.Weighted>
   9.000000E+99

> <Gold.Protein.RotatedTorsions>
[ 6907 6896 6895 6894 ] final   54.24 input  -60.11 | X-H torsion
[ 7974 7965 7964 7962 ] final  117.54 input  175.53 | X-H torsion
[ 8008 7997 7996 7995 ] final -130.08 input   59.86 | X-H torsion
[ 10167 10162 10161 10158 ] final -149.78 input  -65.29 | X-H torsion
[ 10718 10713 10712 10709 ] final -106.68 input   66.30 | X-H torsion
[ 10763 10752 10751 10750 ] final   26.34 input  -60.55 | X-H torsion
[ 11005 11000 10999 10996 ] final  132.41 input  -57.11 | X-H torsion

> <Gold.Protein.ActiveResidues>
 VAL166  LYS551  ARG553  GLY616  TRP617  ASP618  TYR619  PRO620  LYS621  CYS622 
 ASP623  PHE694  ASN695  SER759  ASP760  ASP761  ALA762  ILE779  LEU786  VAL792 
 PHE793  MET794  SER795  GLU796  ALA797  LYS798  CYS799  TRP800  GLU811  SER814 

> <Gold.Protein.RotatedAtoms>
  152.3419  134.7123  160.0261 H   0  0  0  0  0  0  0  0  0  0  0  0  # atno 6907 bound_to 6896
  151.7505  133.3321  159.3398 H   0  0  0  0  0  0  0  0  0  0  0  0  # atno 6908 bound_to 6896
  150.7485  134.6129  159.6140 H   0  0  0  0  0  0  0  0  0  0  0  0  # atno 6909 bound_to 6896
  145.1661  139.3127  143.4492 H   0  0  0  0  0  0  0  0  0  0  0  0  # atno 7974 bound_to 7965
  155.2898  140.0448  157.3022 H   0  0  0  0  0  0  0  0  0  0  0  0  # atno 8008 bound_to 7997
  154.5548  140.2328  155.8395 H   0  0  0  0  0  0  0  0  0  0  0  0  # atno 8009 bound_to 7997
  156.1998  140.3029  155.9509 H   0  0  0  0  0  0  0  0  0  0  0  0  # atno 8010 bound_to 7997
  139.7412  143.8660  152.2562 H   0  0  0  0  0  0  0  0  0  0  0  0  # atno 10167 bound_to 10162
  156.0401  130.5625  150.7715 H   0  0  0  0  0  0  0  0  0  0  0  0  # atno 10718 bound_to 10713
  153.0629  135.6562  154.0421 H   0  0  0  0  0  0  0  0  0  0  0  0  # atno 10763 bound_to 10752
  154.0084  135.2930  155.3396 H   0  0  0  0  0  0  0  0  0  0  0  0  # atno 10764 bound_to 10752
  154.6975  135.5258  153.8548 H   0  0  0  0  0  0  0  0  0  0  0  0  # atno 10765 bound_to 10752
  139.9788  134.9555  156.9578 H   0  0  0  0  0  0  0  0  0  0  0  0  # atno 11005 bound_to 11000
  146.3475  140.1790  142.8589 LP  0  0  0  0  0  0  0  0  0  0  0  0  # atno 17320 bound_to 7965
  145.0280  140.8848  143.5126 LP  0  0  0  0  0  0  0  0  0  0  0  0  # atno 17321 bound_to 7965
  139.8611  144.7117  150.9099 LP  0  0  0  0  0  0  0  0  0  0  0  0  # atno 17342 bound_to 10162
  140.7786  143.3817  151.1465 LP  0  0  0  0  0  0  0  0  0  0  0  0  # atno 17343 bound_to 10162
  157.5208  131.0931  151.0081 LP  0  0  0  0  0  0  0  0  0  0  0  0  # atno 17370 bound_to 10713
  157.0412  130.5750  149.5356 LP  0  0  0  0  0  0  0  0  0  0  0  0  # atno 17371 bound_to 10713
  140.5138  134.0975  155.7276 LP  0  0  0  0  0  0  0  0  0  0  0  0  # atno 17394 bound_to 11000
  141.1463  133.9049  157.2208 LP  0  0  0  0  0  0  0  0  0  0  0  0  # atno 17395 bound_to 11000

$$$$
