AV-unprocessed.smi:2270|AV-procd|sdf|9156|dock8
  -GOLD-   2272012363D 1   1.00000     0.00000
 Structure written by MMmdl.
 53 54  0  0  0  0  0  0  0  0  2 V2000
  153.5101  140.9288  159.5271 C   0  0  0  0  0  0  0  0  0  0  0  0
  152.8144  142.1452  158.9530 C   0  0  0  0  0  0  0  0  0  0  0  0
  153.1939  143.4458  159.3385 C   0  0  0  0  0  0  0  0  0  0  0  0
  152.5112  144.5331  158.7645 C   0  0  0  0  0  0  0  0  0  0  0  0
  151.4857  144.2771  157.8338 C   0  0  0  0  0  0  0  0  0  0  0  0
  151.1679  142.9412  157.5004 C   0  0  0  0  0  0  0  0  0  0  0  0
  150.1214  142.7898  156.5525 N   0  0  0  0  0  0  0  0  0  0  0  0
  149.9619  141.8140  155.6414 C   0  0  0  0  0  0  0  0  0  0  0  0
  150.7228  140.8610  155.4730 O   0  0  0  0  0  0  0  0  0  0  0  0
  148.8403  141.9935  154.9290 N   0  0  0  0  0  0  0  0  0  0  0  0
  148.3878  141.1195  153.8507 C   0  0  0  0  0  0  0  0  0  0  0  0
  146.9794  140.4910  154.0777 C   0  0  2  0  0  0  0  0  0  0  0  0
  146.5804  139.4961  152.9493 C   0  0  0  0  0  0  0  0  0  0  0  0
  147.2800  138.1313  153.1104 C   0  0  0  0  0  0  0  0  0  0  0  0
  146.8733  140.0392  151.5373 C   0  0  0  0  0  0  0  0  0  0  0  0
  145.8866  141.4952  154.2733 N   0  3  0  0  0  0  0  0  0  0  0  0
  146.1851  142.8888  153.8571 C   0  0  0  0  0  0  0  0  0  0  0  0
  144.8920  143.7304  153.8618 C   0  0  0  0  0  0  0  0  0  0  0  0
  144.2254  143.7130  155.1663 N   0  0  0  0  0  0  0  0  0  0  0  0
  144.9380  144.4755  156.1860 C   0  0  0  0  0  0  0  0  0  0  0  0
  143.9471  142.3330  155.5704 C   0  0  0  0  0  0  0  0  0  0  0  0
  145.2239  141.4677  155.6008 C   0  0  0  0  0  0  0  0  0  0  0  0
  151.8306  141.8992  158.0610 N   0  0  0  0  0  0  0  0  0  0  0  0
  154.1262  141.1959  160.3860 H   0  0  0  0  0  0  0  0  0  0  0  0
  154.1528  140.4726  158.7740 H   0  0  0  0  0  0  0  0  0  0  0  0
  152.7804  140.1865  159.8523 H   0  0  0  0  0  0  0  0  0  0  0  0
  153.9870  143.6087  160.0535 H   0  0  0  0  0  0  0  0  0  0  0  0
  152.7697  145.5470  159.0321 H   0  0  0  0  0  0  0  0  0  0  0  0
  150.9531  145.1018  157.3829 H   0  0  0  0  0  0  0  0  0  0  0  0
  149.4127  143.5079  156.5732 H   0  0  0  0  0  0  0  0  0  0  0  0
  148.2732  142.8048  155.1287 H   0  0  0  0  0  0  0  0  0  0  0  0
  148.4041  141.6909  152.9224 H   0  0  0  0  0  0  0  0  0  0  0  0
  149.1405  140.3406  153.7295 H   0  0  0  0  0  0  0  0  0  0  0  0
  147.0354  139.8955  154.9902 H   0  0  0  0  0  0  0  0  0  0  0  0
  145.5059  139.3197  153.0074 H   0  0  0  0  0  0  0  0  0  0  0  0
  148.3652  138.2393  153.1021 H   0  0  0  0  0  0  0  0  0  0  0  0
  147.0100  137.4537  152.2998 H   0  0  0  0  0  0  0  0  0  0  0  0
  147.0011  137.6341  154.0395 H   0  0  0  0  0  0  0  0  0  0  0  0
  147.9174  140.3369  151.4346 H   0  0  0  0  0  0  0  0  0  0  0  0
  146.2507  140.8986  151.2915 H   0  0  0  0  0  0  0  0  0  0  0  0
  146.6704  139.2851  150.7761 H   0  0  0  0  0  0  0  0  0  0  0  0
  146.9325  143.3398  154.5091 H   0  0  0  0  0  0  0  0  0  0  0  0
  146.6062  142.8889  152.8517 H   0  0  0  0  0  0  0  0  0  0  0  0
  145.1066  144.7598  153.5730 H   0  0  0  0  0  0  0  0  0  0  0  0
  144.2005  143.3382  153.1147 H   0  0  0  0  0  0  0  0  0  0  0  0
  144.3671  144.4870  157.1149 H   0  0  0  0  0  0  0  0  0  0  0  0
  145.0642  145.5096  155.8640 H   0  0  0  0  0  0  0  0  0  0  0  0
  145.9246  144.0679  156.4032 H   0  0  0  0  0  0  0  0  0  0  0  0
  143.4587  142.3265  156.5456 H   0  0  0  0  0  0  0  0  0  0  0  0
  143.2340  141.9036  154.8653 H   0  0  0  0  0  0  0  0  0  0  0  0
  144.9496  140.4429  155.8526 H   0  0  0  0  0  0  0  0  0  0  0  0
  145.8963  141.8123  156.3838 H   0  0  0  0  0  0  0  0  0  0  0  0
  145.1630  141.1853  153.6406 H   0  0  0  0  0  0  0  0  0  0  0  0
  1  2  1  0  0  0  0
  1 24  1  0  0  0  0
  1 25  1  0  0  0  0
  1 26  1  0  0  0  0
  2 23  1  0  0  0  0
  2  3  2  0  0  0  0
  3  4  1  0  0  0  0
  3 27  1  0  0  0  0
  4  5  2  0  0  0  0
  4 28  1  0  0  0  0
  5  6  1  0  0  0  0
  5 29  1  0  0  0  0
  6  7  1  0  0  0  0
  6 23  2  0  0  0  0
  7  8  1  0  0  0  0
  7 30  1  0  0  0  0
  8  9  2  0  0  0  0
  8 10  1  0  0  0  0
 10 11  1  0  0  0  0
 10 31  1  0  0  0  0
 11 12  1  0  0  0  0
 11 32  1  0  0  0  0
 11 33  1  0  0  0  0
 12 13  1  0  0  0  0
 12 16  1  0  0  0  0
 12 34  1  0  0  0  0
 13 14  1  0  0  0  0
 13 15  1  0  0  0  0
 13 35  1  0  0  0  0
 14 36  1  0  0  0  0
 14 37  1  0  0  0  0
 14 38  1  0  0  0  0
 15 39  1  0  0  0  0
 15 40  1  0  0  0  0
 15 41  1  0  0  0  0
 16 22  1  0  0  0  0
 16 17  1  0  0  0  0
 16 53  1  0  0  0  0
 17 18  1  0  0  0  0
 17 42  1  0  0  0  0
 17 43  1  0  0  0  0
 18 19  1  0  0  0  0
 18 44  1  0  0  0  0
 18 45  1  0  0  0  0
 19 20  1  0  0  0  0
 19 21  1  0  0  0  0
 20 46  1  0  0  0  0
 20 47  1  0  0  0  0
 20 48  1  0  0  0  0
 21 22  1  0  0  0  0
 21 49  1  0  0  0  0
 21 50  1  0  0  0  0
 22 51  1  0  0  0  0
 22 52  1  0  0  0  0
M  CHG  1  16   1
M  END
> <s_m_source_file>
AV-unprocessed.smi

> <i_m_source_file_index>
2270

> <i_lp_mmshare_version>
43012

> <i_f3d_flags>
0

> <s_epik_input>
W0NIM11jMVtjSF1bY0hdW2NIXWMobjEpW05IXUMoPU8pW05IXVtDSDJdW0NASF0oW0NIXShbQ0gzXSlbQ0gzXSlOMltDSDJdW0NIMl1OKFtDSDNdKVtDSDJdW0NIMl0y

> <s_epik_cmdline>
J2VwaWtfcHl0aG9uJywgJy1waCcsICc3LjAnLCAnLXRuJywgJzgnLCAnLW1hJywgJzIwMCcsICctbWV0YWxfYmluZGluZycsICctaW1hZScsICc8aW5maWxlLm1hZT4nLCAnLW9tYWUnLCAnPG91dGZpbGUubWFlPic=

> <r_epik_Ionization_Penalty>
0.201855

> <r_epik_Ionization_Penalty_Charging>
0.20006

> <r_epik_Ionization_Penalty_Neutral>
0.00179462

> <r_epik_State_Penalty>
1.43207

> <r_epik_Charging_Adjusted_Penalty>
1.63213

> <i_epik_Tot_Q>
1

> <i_epik_Tot_abs_Q>
1

> <r_epik_Metal_State_Penalty>
1.43208

> <b_epik_Metal_Only>
0

> <s_lp_Force_Field>
OPLS_2005

> <r_lp_Energy>
33.4642

> <b_lp_Chiralities_Consistent>
1

> <s_lp_Variant>
AV-unprocessed.smi:2270-3

> <Gold.Version>
5.8.1

> <Gold.Id.Protein>
6NUR|6NUR_protein|mol2

> <Gold.PLP.Fitness>
48.5380

> <Gold.PLP.PLP>
-40.6405

> <Gold.PLP.part.hbond>
-3.9863

> <Gold.PLP.part.metal>
0.0000

> <Gold.PLP.part.buried>
2.4696

> <Gold.PLP.part.nonpolar>
-39.7106

> <Gold.PLP.part.repulsive>
0.4589

> <Gold.PLP.ligand.clash>
0.0000

> <Gold.PLP.ligand.torsion>
2.0030

> <Gold.PLP.Chemscore.Hbond>
3.9023

> <Gold.PLP.Chemscore.CHOScore>
0.0000

> <Gold.PLP.Chemscore.Metal>
0.0000

> <Gold.Chemscore.Hbonds>
donor molecule, donor type, donor heavy atom, donor atom, acceptor molecule, acceptor atom, score
      L1  H     7    30       P1  8028  0.80
      L1  H    10    31       P1  8028  0.55
      L1  H    16    53       P1 10175  2.00
      P1  H  7989  7998       L1     9  0.52

> <Gold.PLP.Chemscore.Internal.Correction>
0.1966

> <Gold.Rescore>
     Score         DG    S(hbond)    S(metal)    S(lipo)     H(rot)  DE(clash)    DE(int)     intcor
     16.83     -22.46       2.32        0.00     113.99       1.61       2.87       2.76       ----

> <Gold.Chemscore.Fitness>
16.8339

> <Gold.Chemscore.DG>
-22.4625

> <Gold.Chemscore.ZeroCoef>
-5.4800

> <Gold.Chemscore.Hbond>
2.3233

> <Gold.Chemscore.Metal>
0.0000

> <Gold.Chemscore.Lipo>
113.9882

> <Gold.Chemscore.Internal_Hbond>
0.0000

> <Gold.Chemscore.DEClash>
2.8696

> <Gold.Chemscore.DEInternal>
2.7590

> <Gold.Chemscore.Rot>
1.6070

> <Gold.Chemscore.Internal.Correction>
   9.000000E+99

> <Gold.Chemscore.Hbonds>
donor molecule, donor type, donor heavy atom, donor atom, acceptor molecule, acceptor atom, score
      L1  H     7    30       P1  8028  0.78
      L1  H    10    31       P1  8028  0.53
      L1  H    16    53       P1 10175  0.48
      P1  H  7989  7998       L1     9  0.43

> <Gold.Chemscore.Hbond.Weighted>
-7.7598

> <Gold.Chemscore.Metal.Weighted>
-0.0000

> <Gold.Chemscore.Lipo.Weighted>
-13.3366

> <Gold.Chemscore.Internal_Hbond.Weighted>
0.0000

> <Gold.Chemscore.DEClash.Weighted>
2.8696

> <Gold.Chemscore.DEInternal.Weighted>
2.7590

> <Gold.Chemscore.Rot.Weighted>
4.1140

> <Gold.Chemscore.Internal.Correction.Weighted>
   9.000000E+99

> <Gold.Protein.RotatedTorsions>
[ 6907 6896 6895 6894 ] final   66.98 input  -60.11 | X-H torsion
[ 7974 7965 7964 7962 ] final   12.16 input  175.53 | X-H torsion
[ 8008 7997 7996 7995 ] final -107.09 input   59.86 | X-H torsion
[ 10167 10162 10161 10158 ] final   39.18 input  -65.29 | X-H torsion
[ 10718 10713 10712 10709 ] final -128.82 input   66.30 | X-H torsion
[ 10763 10752 10751 10750 ] final  -76.93 input  -60.55 | X-H torsion
[ 11005 11000 10999 10996 ] final    8.53 input  -57.11 | X-H torsion

> <Gold.Protein.ActiveResidues>
 VAL166  LYS551  ARG553  GLY616  TRP617  ASP618  TYR619  PRO620  LYS621  CYS622 
 ASP623  PHE694  ASN695  SER759  ASP760  ASP761  ALA762  ILE779  LEU786  VAL792 
 PHE793  MET794  SER795  GLU796  ALA797  LYS798  CYS799  TRP800  GLU811  SER814 

> <Gold.Protein.RotatedAtoms>
  152.4519  134.5374  159.9828 H   0  0  0  0  0  0  0  0  0  0  0  0  # atno 6907 bound_to 6896
  151.5445  133.3421  159.2949 H   0  0  0  0  0  0  0  0  0  0  0  0  # atno 6908 bound_to 6896
  150.8451  134.7789  159.7027 H   0  0  0  0  0  0  0  0  0  0  0  0  # atno 6909 bound_to 6896
  146.2357  139.9378  142.8487 H   0  0  0  0  0  0  0  0  0  0  0  0  # atno 7974 bound_to 7965
  154.9242  140.0406  157.2014 H   0  0  0  0  0  0  0  0  0  0  0  0  # atno 8008 bound_to 7997
  154.8224  140.2886  155.5756 H   0  0  0  0  0  0  0  0  0  0  0  0  # atno 8009 bound_to 7997
  156.2981  140.2516  156.3133 H   0  0  0  0  0  0  0  0  0  0  0  0  # atno 8010 bound_to 7997
  140.3864  144.1911  150.6130 H   0  0  0  0  0  0  0  0  0  0  0  0  # atno 10167 bound_to 10162
  156.1987  130.6843  151.0513 H   0  0  0  0  0  0  0  0  0  0  0  0  # atno 10718 bound_to 10713
  154.5064  135.5781  153.6570 H   0  0  0  0  0  0  0  0  0  0  0  0  # atno 10763 bound_to 10752
  152.9888  135.6148  154.2936 H   0  0  0  0  0  0  0  0  0  0  0  0  # atno 10764 bound_to 10752
  154.2848  135.2850  155.2661 H   0  0  0  0  0  0  0  0  0  0  0  0  # atno 10765 bound_to 10752
  140.5360  134.0421  155.7888 H   0  0  0  0  0  0  0  0  0  0  0  0  # atno 11005 bound_to 11000
  145.1981  140.9842  143.4171 LP  0  0  0  0  0  0  0  0  0  0  0  0  # atno 17320 bound_to 7965
  144.9797  139.3795  143.6268 LP  0  0  0  0  0  0  0  0  0  0  0  0  # atno 17321 bound_to 7965
  140.4885  143.2355  151.8853 LP  0  0  0  0  0  0  0  0  0  0  0  0  # atno 17342 bound_to 10162
  139.4792  144.5192  151.8825 LP  0  0  0  0  0  0  0  0  0  0  0  0  # atno 17343 bound_to 10162
  157.6973  131.0789  150.6929 LP  0  0  0  0  0  0  0  0  0  0  0  0  # atno 17370 bound_to 10713
  156.6987  130.4616  149.5579 LP  0  0  0  0  0  0  0  0  0  0  0  0  # atno 17371 bound_to 10713
  141.1254  133.9391  157.2645 LP  0  0  0  0  0  0  0  0  0  0  0  0  # atno 17394 bound_to 11000
  139.9529  135.0172  156.9045 LP  0  0  0  0  0  0  0  0  0  0  0  0  # atno 17395 bound_to 11000

$$$$
