AV-unprocessed.smi:1958|AV-procd|sdf|7907|dock5
  -GOLD-   2272010 63D 1   1.00000     0.00000
 Structure written by MMmdl.
 47 48  0  0  0  0  0  0  0  0  1 V2000
  151.7086  137.5672  158.6127 C   0  0  0  0  0  0  0  0  0  0  0  0
  151.8741  138.9244  158.9829 O   0  0  0  0  0  0  0  0  0  0  0  0
  153.2269  139.3457  158.9155 C   0  0  0  0  0  0  0  0  0  0  0  0
  153.3421  140.7826  159.4502 C   0  0  0  0  0  0  0  0  0  0  0  0
  152.5189  141.7199  158.6776 N   0  0  0  0  0  0  0  0  0  0  0  0
  151.7978  141.1255  157.6555 N   0  0  0  0  0  0  0  0  0  0  0  0
  151.0462  141.8444  156.8856 C   0  0  0  0  0  0  0  0  0  0  0  0
  150.2616  141.2442  155.7714 C   0  0  0  0  0  0  0  0  0  0  0  0
  150.7050  140.3183  155.0901 O   0  0  0  0  0  0  0  0  0  0  0  0
  149.0486  141.7897  155.5659 N   0  0  0  0  0  0  0  0  0  0  0  0
  148.0892  141.3872  154.5402 C   0  0  0  0  0  0  0  0  0  0  0  0
  146.7270  142.1279  154.6612 C   0  0  1  0  0  0  0  0  0  0  0  0
  146.0171  142.1086  153.2834 C   0  0  0  0  0  0  0  0  0  0  0  0
  145.8709  141.6040  155.7520 N   0  0  0  0  0  0  0  0  0  0  0  0
  144.5314  142.2049  155.7555 C   0  0  0  0  0  0  0  0  0  0  0  0
  143.6449  141.6877  156.9017 C   0  0  0  0  0  0  0  0  0  0  0  0
  144.2878  141.9212  158.1470 O   0  0  0  0  0  0  0  0  0  0  0  0
  145.5572  141.2870  158.2173 C   0  0  0  0  0  0  0  0  0  0  0  0
  146.4583  141.8034  157.0824 C   0  0  0  0  0  0  0  0  0  0  0  0
  150.9382  143.2803  157.0822 C   0  0  0  0  0  0  0  0  0  0  0  0
  151.6466  143.8460  158.0839 C   0  0  0  0  0  0  0  0  0  0  0  0
  152.5106  143.0568  158.9633 C   0  0  0  0  0  0  0  0  0  0  0  0
  153.1738  143.5505  159.8750 O   0  0  0  0  0  0  0  0  0  0  0  0
  150.6556  137.2948  158.6832 H   0  0  0  0  0  0  0  0  0  0  0  0
  152.2725  136.9062  159.2720 H   0  0  0  0  0  0  0  0  0  0  0  0
  152.0324  137.3970  157.5850 H   0  0  0  0  0  0  0  0  0  0  0  0
  153.8443  138.6813  159.5215 H   0  0  0  0  0  0  0  0  0  0  0  0
  153.5966  139.2847  157.8907 H   0  0  0  0  0  0  0  0  0  0  0  0
  153.0564  140.8048  160.5035 H   0  0  0  0  0  0  0  0  0  0  0  0
  154.3860  141.1000  159.4290 H   0  0  0  0  0  0  0  0  0  0  0  0
  148.7689  142.5466  156.1736 H   0  0  0  0  0  0  0  0  0  0  0  0
  148.4967  141.5140  153.5358 H   0  0  0  0  0  0  0  0  0  0  0  0
  147.9711  140.3156  154.6890 H   0  0  0  0  0  0  0  0  0  0  0  0
  146.9533  143.1714  154.8859 H   0  0  0  0  0  0  0  0  0  0  0  0
  146.6581  142.4694  152.4805 H   0  0  0  0  0  0  0  0  0  0  0  0
  145.1435  142.7581  153.2560 H   0  0  0  0  0  0  0  0  0  0  0  0
  145.6978  141.0998  153.0195 H   0  0  0  0  0  0  0  0  0  0  0  0
  144.6132  143.2910  155.8236 H   0  0  0  0  0  0  0  0  0  0  0  0
  144.0080  141.9841  154.8272 H   0  0  0  0  0  0  0  0  0  0  0  0
  142.6831  142.2006  156.8970 H   0  0  0  0  0  0  0  0  0  0  0  0
  143.4399  140.6228  156.7820 H   0  0  0  0  0  0  0  0  0  0  0  0
  146.0087  141.5012  159.1860 H   0  0  0  0  0  0  0  0  0  0  0  0
  145.4368  140.2043  158.1526 H   0  0  0  0  0  0  0  0  0  0  0  0
  147.4054  141.2748  157.1696 H   0  0  0  0  0  0  0  0  0  0  0  0
  146.6681  142.8626  157.2397 H   0  0  0  0  0  0  0  0  0  0  0  0
  150.3093  143.8876  156.4476 H   0  0  0  0  0  0  0  0  0  0  0  0
  151.5756  144.9122  158.2413 H   0  0  0  0  0  0  0  0  0  0  0  0
  1  2  1  0  0  0  0
  1 24  1  0  0  0  0
  1 25  1  0  0  0  0
  1 26  1  0  0  0  0
  2  3  1  0  0  0  0
  3  4  1  0  0  0  0
  3 27  1  0  0  0  0
  3 28  1  0  0  0  0
  4  5  1  0  0  0  0
  4 29  1  0  0  0  0
  4 30  1  0  0  0  0
  5 22  1  0  0  0  0
  5  6  1  0  0  0  0
  6  7  2  0  0  0  0
  7  8  1  0  0  0  0
  7 20  1  0  0  0  0
  8  9  2  0  0  0  0
  8 10  1  0  0  0  0
 10 11  1  0  0  0  0
 10 31  1  0  0  0  0
 11 12  1  0  0  0  0
 11 32  1  0  0  0  0
 11 33  1  0  0  0  0
 12 13  1  0  0  0  0
 12 14  1  0  0  0  0
 12 34  1  0  0  0  0
 13 35  1  0  0  0  0
 13 36  1  0  0  0  0
 13 37  1  0  0  0  0
 14 19  1  0  0  0  0
 14 15  1  0  0  0  0
 15 16  1  0  0  0  0
 15 38  1  0  0  0  0
 15 39  1  0  0  0  0
 16 17  1  0  0  0  0
 16 40  1  0  0  0  0
 16 41  1  0  0  0  0
 17 18  1  0  0  0  0
 18 19  1  0  0  0  0
 18 42  1  0  0  0  0
 18 43  1  0  0  0  0
 19 44  1  0  0  0  0
 19 45  1  0  0  0  0
 20 21  2  0  0  0  0
 20 46  1  0  0  0  0
 21 22  1  0  0  0  0
 21 47  1  0  0  0  0
 22 23  2  0  0  0  0
M  END
> <s_m_source_file>
AV-unprocessed.smi

> <i_m_source_file_index>
1958

> <i_lp_mmshare_version>
43012

> <i_f3d_flags>
0

> <s_epik_input>
W0NIM11PW0NIMl1bQ0gyXW4xbmMoW2NIXVtjSF1jMT1PKUMoPU8pW05IXVtDSDJdW0NASF0oW0NIM10pTjJbQ0gyXVtDSDJdT1tDSDJdW0NIMl0y

> <s_epik_cmdline>
J2VwaWtfcHl0aG9uJywgJy1waCcsICc3LjAnLCAnLXRuJywgJzgnLCAnLW1hJywgJzIwMCcsICctbWV0YWxfYmluZGluZycsICctaW1hZScsICc8aW5maWxlLm1hZT4nLCAnLW9tYWUnLCAnPG91dGZpbGUubWFlPic=

> <r_lp_tautomer_probability>
1

> <r_epik_Ionization_Penalty>
0.206669

> <r_epik_Ionization_Penalty_Charging>
5.75808e-09

> <r_epik_Ionization_Penalty_Neutral>
0.206669

> <r_epik_State_Penalty>
0.196651

> <r_epik_Charging_Adjusted_Penalty>
0.196651

> <i_epik_Tot_Q>
0

> <i_epik_Tot_abs_Q>
0

> <r_epik_Metal_State_Penalty>
0.198415

> <b_epik_Metal_Only>
0

> <s_lp_Force_Field>
OPLS_2005

> <r_lp_Energy>
50.1951

> <b_lp_Chiralities_Consistent>
1

> <s_lp_Variant>
AV-unprocessed.smi:1958-2

> <Gold.Version>
5.8.1

> <Gold.Id.Protein>
6NUR|6NUR_protein|mol2

> <Gold.PLP.Fitness>
39.0007

> <Gold.PLP.PLP>
-35.0931

> <Gold.PLP.part.hbond>
-2.1480

> <Gold.PLP.part.metal>
0.0000

> <Gold.PLP.part.buried>
-4.4893

> <Gold.PLP.part.nonpolar>
-28.2112

> <Gold.PLP.part.repulsive>
0.4056

> <Gold.PLP.ligand.clash>
0.0000

> <Gold.PLP.ligand.torsion>
0.8199

> <Gold.PLP.Chemscore.Hbond>
1.8000

> <Gold.PLP.Chemscore.CHOScore>
0.0000

> <Gold.PLP.Chemscore.Metal>
0.0000

> <Gold.Chemscore.Hbonds>
donor molecule, donor type, donor heavy atom, donor atom, acceptor molecule, acceptor atom, score
      L1  H    10    31       P1  8028  0.26
      P1  H  7989  7998       L1     9  1.00

> <Gold.PLP.Chemscore.Internal.Correction>
0.1473

> <Gold.Rescore>
     Score         DG    S(hbond)    S(metal)    S(lipo)     H(rot)  DE(clash)    DE(int)     intcor
     10.22     -14.61       1.49        0.00      80.33       2.04       2.34       2.05       ----

> <Gold.Chemscore.Fitness>
10.2202

> <Gold.Chemscore.DG>
-14.6139

> <Gold.Chemscore.ZeroCoef>
-5.4800

> <Gold.Chemscore.Hbond>
1.4853

> <Gold.Chemscore.Metal>
0.0000

> <Gold.Chemscore.Lipo>
80.3300

> <Gold.Chemscore.Internal_Hbond>
0.0000

> <Gold.Chemscore.DEClash>
2.3434

> <Gold.Chemscore.DEInternal>
2.0503

> <Gold.Chemscore.Rot>
2.0413

> <Gold.Chemscore.Internal.Correction>
   9.000000E+99

> <Gold.Chemscore.Hbonds>
donor molecule, donor type, donor heavy atom, donor atom, acceptor molecule, acceptor atom, score
      L1  H    10    31       P1  8028  0.25
      P1  H  7989  7998       L1     9  0.86

> <Gold.Chemscore.Hbond.Weighted>
-4.9610

> <Gold.Chemscore.Metal.Weighted>
-0.0000

> <Gold.Chemscore.Lipo.Weighted>
-9.3986

> <Gold.Chemscore.Internal_Hbond.Weighted>
0.0000

> <Gold.Chemscore.DEClash.Weighted>
2.3434

> <Gold.Chemscore.DEInternal.Weighted>
2.0503

> <Gold.Chemscore.Rot.Weighted>
5.2257

> <Gold.Chemscore.Internal.Correction.Weighted>
   9.000000E+99

> <Gold.Protein.RotatedTorsions>
[ 6907 6896 6895 6894 ] final   42.42 input  -60.11 | X-H torsion
[ 7974 7965 7964 7962 ] final  -89.38 input  175.53 | X-H torsion
[ 8008 7997 7996 7995 ] final  -24.97 input   59.86 | X-H torsion
[ 10167 10162 10161 10158 ] final  118.30 input  -65.29 | X-H torsion
[ 10718 10713 10712 10709 ] final  -16.94 input   66.30 | X-H torsion
[ 10763 10752 10751 10750 ] final  -22.85 input  -60.55 | X-H torsion
[ 11005 11000 10999 10996 ] final -161.79 input  -57.11 | X-H torsion

> <Gold.Protein.ActiveResidues>
 VAL166  LYS551  ARG553  GLY616  TRP617  ASP618  TYR619  PRO620  LYS621  CYS622 
 ASP623  PHE694  ASN695  SER759  ASP760  ASP761  ALA762  ILE779  LEU786  VAL792 
 PHE793  MET794  SER795  GLU796  ALA797  LYS798  CYS799  TRP800  GLU811  SER814 

> <Gold.Protein.RotatedAtoms>
  152.2076  134.8531  160.0500 H   0  0  0  0  0  0  0  0  0  0  0  0  # atno 6907 bound_to 6896
  151.9361  133.3619  159.3956 H   0  0  0  0  0  0  0  0  0  0  0  0  # atno 6908 bound_to 6896
  150.6969  134.4412  159.5337 H   0  0  0  0  0  0  0  0  0  0  0  0  # atno 6909 bound_to 6896
  145.4405  140.9559  143.2078 H   0  0  0  0  0  0  0  0  0  0  0  0  # atno 7974 bound_to 7965
  154.4500  140.1939  156.0546 H   0  0  0  0  0  0  0  0  0  0  0  0  # atno 8008 bound_to 7997
  156.0628  140.3294  155.7455 H   0  0  0  0  0  0  0  0  0  0  0  0  # atno 8009 bound_to 7997
  155.5385  140.0584  157.2865 H   0  0  0  0  0  0  0  0  0  0  0  0  # atno 8010 bound_to 7997
  139.6120  144.7084  151.2822 H   0  0  0  0  0  0  0  0  0  0  0  0  # atno 10167 bound_to 10162
  156.5806  130.4773  149.6322 H   0  0  0  0  0  0  0  0  0  0  0  0  # atno 10718 bound_to 10713
  153.6585  135.6977  153.5185 H   0  0  0  0  0  0  0  0  0  0  0  0  # atno 10763 bound_to 10752
  153.2650  135.4233  155.0931 H   0  0  0  0  0  0  0  0  0  0  0  0  # atno 10764 bound_to 10752
  154.8458  135.3564  154.6130 H   0  0  0  0  0  0  0  0  0  0  0  0  # atno 10765 bound_to 10752
  140.6165  134.4795  157.5220 H   0  0  0  0  0  0  0  0  0  0  0  0  # atno 11005 bound_to 11000
  144.8124  139.5937  143.7023 LP  0  0  0  0  0  0  0  0  0  0  0  0  # atno 17320 bound_to 7965
  146.2559  139.6301  142.9395 LP  0  0  0  0  0  0  0  0  0  0  0  0  # atno 17321 bound_to 7965
  140.7326  143.6819  150.7994 LP  0  0  0  0  0  0  0  0  0  0  0  0  # atno 17342 bound_to 10162
  140.0416  143.5341  152.2715 LP  0  0  0  0  0  0  0  0  0  0  0  0  # atno 17343 bound_to 10162
  156.2635  130.6976  151.1752 LP  0  0  0  0  0  0  0  0  0  0  0  0  # atno 17370 bound_to 10713
  157.7327  131.0597  150.5613 LP  0  0  0  0  0  0  0  0  0  0  0  0  # atno 17371 bound_to 10713
  139.9171  134.8225  156.1332 LP  0  0  0  0  0  0  0  0  0  0  0  0  # atno 17394 bound_to 11000
  141.0772  133.6770  156.2261 LP  0  0  0  0  0  0  0  0  0  0  0  0  # atno 17395 bound_to 11000

$$$$
