AV-unprocessed.smi:3162|AV-procd|sdf|12066|dock9
  -GOLD-   2272017493D 1   1.00000     0.00000
 Structure written by MMmdl.
 37 37  0  0  0  0  0  0  0  0  2 V2000
  146.8688  142.3557  154.1180 C   0  0  0  0  0  0  0  0  0  0  0  0
  148.3300  141.9901  153.8144 C   0  0  0  0  0  0  0  0  0  0  0  0
  148.9939  141.0733  154.8655 C   0  0  1  0  0  0  0  0  0  0  0  0
  148.8764  141.6891  156.2081 N   0  3  0  0  0  0  0  0  0  0  0  0
  149.9685  141.3903  157.1617 C   0  0  1  0  0  0  0  0  0  0  0  0
  150.4827  139.9482  156.9842 C   0  0  0  0  0  0  0  0  0  0  0  0
  151.0869  142.4398  156.9965 C   0  0  0  0  0  0  0  0  0  0  0  0
  151.8867  142.6138  158.1956 N   0  0  0  0  0  0  0  0  0  0  0  0
  152.4671  141.6472  158.9894 C   0  0  0  0  0  0  0  0  0  0  0  0
  153.1279  142.2872  159.9994 C   0  0  0  0  0  0  0  0  0  0  0  0
  153.9150  141.6913  161.1308 C   0  0  0  0  0  0  0  0  0  0  0  0
  152.8948  143.6651  159.7263 C   0  0  0  0  0  0  0  0  0  0  0  0
  152.1553  143.8574  158.6460 N   0  0  0  0  0  0  0  0  0  0  0  0
  148.3576  139.6759  154.8841 C   0  0  0  0  0  0  0  0  0  0  0  0
  148.4102  138.9633  153.7555 N   0  0  0  0  0  0  0  0  0  0  0  0
  147.8179  139.2460  155.9021 O   0  0  0  0  0  0  0  0  0  0  0  0
  146.4422  142.9418  153.3040 H   0  0  0  0  0  0  0  0  0  0  0  0
  146.7802  142.9508  155.0270 H   0  0  0  0  0  0  0  0  0  0  0  0
  146.2564  141.4617  154.2387 H   0  0  0  0  0  0  0  0  0  0  0  0
  148.3564  141.4947  152.8430 H   0  0  0  0  0  0  0  0  0  0  0  0
  148.9125  142.9052  153.6958 H   0  0  0  0  0  0  0  0  0  0  0  0
  150.0496  140.9589  154.6119 H   0  0  0  0  0  0  0  0  0  0  0  0
  148.7866  142.6897  156.1067 H   0  0  0  0  0  0  0  0  0  0  0  0
  149.5638  141.4939  158.1698 H   0  0  0  0  0  0  0  0  0  0  0  0
  151.2606  139.7099  157.7099 H   0  0  0  0  0  0  0  0  0  0  0  0
  150.9018  139.7973  155.9889 H   0  0  0  0  0  0  0  0  0  0  0  0
  149.6873  139.2165  157.1247 H   0  0  0  0  0  0  0  0  0  0  0  0
  151.7511  142.1584  156.1779 H   0  0  0  0  0  0  0  0  0  0  0  0
  150.6603  143.4087  156.7316 H   0  0  0  0  0  0  0  0  0  0  0  0
  152.3614  140.5938  158.7745 H   0  0  0  0  0  0  0  0  0  0  0  0
  154.6027  142.4139  161.5708 H   0  0  0  0  0  0  0  0  0  0  0  0
  154.5118  140.8399  160.8030 H   0  0  0  0  0  0  0  0  0  0  0  0
  153.2638  141.3390  161.9309 H   0  0  0  0  0  0  0  0  0  0  0  0
  153.2402  144.5268  160.2783 H   0  0  0  0  0  0  0  0  0  0  0  0
  148.0113  138.0361  153.7202 H   0  0  0  0  0  0  0  0  0  0  0  0
  148.8570  139.3535  152.9377 H   0  0  0  0  0  0  0  0  0  0  0  0
  148.0192  141.3367  156.6106 H   0  0  0  0  0  0  0  0  0  0  0  0
  1  2  1  0  0  0  0
  1 17  1  0  0  0  0
  1 18  1  0  0  0  0
  1 19  1  0  0  0  0
  2  3  1  0  0  0  0
  2 20  1  0  0  0  0
  2 21  1  0  0  0  0
  3  4  1  0  0  0  0
  3 14  1  0  0  0  0
  3 22  1  0  0  0  0
  4  5  1  0  0  0  0
  4 23  1  0  0  0  0
  4 37  1  0  0  0  0
  5  6  1  0  0  0  0
  5  7  1  0  0  0  0
  5 24  1  0  0  0  0
  6 25  1  0  0  0  0
  6 26  1  0  0  0  0
  6 27  1  0  0  0  0
  7  8  1  0  0  0  0
  7 28  1  0  0  0  0
  7 29  1  0  0  0  0
  8 13  1  0  0  0  0
  8  9  1  0  0  0  0
  9 10  2  0  0  0  0
  9 30  1  0  0  0  0
 10 11  1  0  0  0  0
 10 12  1  0  0  0  0
 11 31  1  0  0  0  0
 11 32  1  0  0  0  0
 11 33  1  0  0  0  0
 12 13  2  0  0  0  0
 12 34  1  0  0  0  0
 14 15  1  0  0  0  0
 14 16  2  0  0  0  0
 15 35  1  0  0  0  0
 15 36  1  0  0  0  0
M  CHG  1   4   1
M  END
> <s_m_source_file>
AV-unprocessed.smi

> <i_m_source_file_index>
3162

> <i_lp_mmshare_version>
43012

> <i_f3d_flags>
0

> <s_epik_input>
W0NIM11bQ0gyXVtDQEBIXShDKD1PKVtOSDJdKVtOSF1bQ0BIXShbQ0gzXSlbQ0gyXW4xW2NIXWMoW0NIM10pW2NIXW4x

> <s_epik_cmdline>
J2VwaWtfcHl0aG9uJywgJy1waCcsICc3LjAnLCAnLXRuJywgJzgnLCAnLW1hJywgJzIwMCcsICctbWV0YWxfYmluZGluZycsICctaW1hZScsICc8aW5maWxlLm1hZT4nLCAnLW9tYWUnLCAnPG91dGZpbGUubWFlPic=

> <r_lp_tautomer_probability>
1

> <r_epik_Ionization_Penalty>
0.112112

> <r_epik_Ionization_Penalty_Charging>
0.112102

> <r_epik_Ionization_Penalty_Neutral>
9.73799e-06

> <r_epik_State_Penalty>
0.101811

> <r_epik_Charging_Adjusted_Penalty>
0.213914

> <i_epik_Tot_Q>
1

> <i_epik_Tot_abs_Q>
1

> <r_epik_Metal_State_Penalty>
0.101821

> <b_epik_Metal_Only>
0

> <s_lp_Force_Field>
OPLS_2005

> <r_lp_Energy>
5.38077

> <b_lp_Chiralities_Consistent>
1

> <s_lp_Variant>
AV-unprocessed.smi:3162-4

> <Gold.Version>
5.8.1

> <Gold.Id.Protein>
6NUR|6NUR_protein|mol2

> <Gold.PLP.Fitness>
38.3862

> <Gold.PLP.PLP>
-31.5420

> <Gold.PLP.part.hbond>
-2.0000

> <Gold.PLP.part.metal>
0.0000

> <Gold.PLP.part.buried>
-1.8872

> <Gold.PLP.part.nonpolar>
-27.3789

> <Gold.PLP.part.repulsive>
0.1418

> <Gold.PLP.ligand.clash>
0.0000

> <Gold.PLP.ligand.torsion>
1.0737

> <Gold.PLP.Chemscore.Hbond>
2.9825

> <Gold.PLP.Chemscore.CHOScore>
0.0000

> <Gold.PLP.Chemscore.Metal>
0.0000

> <Gold.Chemscore.Hbonds>
donor molecule, donor type, donor heavy atom, donor atom, acceptor molecule, acceptor atom, score
      L1  H     4    23       P1  8028  1.76
      L1  H    15    36       P1  7957  0.96

> <Gold.PLP.Chemscore.Internal.Correction>
0.0441

> <Gold.Rescore>
     Score         DG    S(hbond)    S(metal)    S(lipo)     H(rot)  DE(clash)    DE(int)     intcor
     12.84     -15.51       1.94        0.00      85.21       2.51       1.64       1.03       ----

> <Gold.Chemscore.Fitness>
12.8368

> <Gold.Chemscore.DG>
-15.5118

> <Gold.Chemscore.ZeroCoef>
-5.4800

> <Gold.Chemscore.Hbond>
1.9394

> <Gold.Chemscore.Metal>
0.0000

> <Gold.Chemscore.Lipo>
85.2137

> <Gold.Chemscore.Internal_Hbond>
0.0000

> <Gold.Chemscore.DEClash>
1.6421

> <Gold.Chemscore.DEInternal>
1.0330

> <Gold.Chemscore.Rot>
2.5062

> <Gold.Chemscore.Internal.Correction>
   9.000000E+99

> <Gold.Chemscore.Hbonds>
donor molecule, donor type, donor heavy atom, donor atom, acceptor molecule, acceptor atom, score
      L1  H     4    23       P1  8028  0.85
      L1  H    15    36       P1  7957  0.91

> <Gold.Chemscore.Hbond.Weighted>
-6.4777

> <Gold.Chemscore.Metal.Weighted>
-0.0000

> <Gold.Chemscore.Lipo.Weighted>
-9.9700

> <Gold.Chemscore.Internal_Hbond.Weighted>
0.0000

> <Gold.Chemscore.DEClash.Weighted>
1.6421

> <Gold.Chemscore.DEInternal.Weighted>
1.0330

> <Gold.Chemscore.Rot.Weighted>
6.4159

> <Gold.Chemscore.Internal.Correction.Weighted>
   9.000000E+99

> <Gold.Protein.RotatedTorsions>
[ 6907 6896 6895 6894 ] final -163.55 input  -60.11 | X-H torsion
[ 7974 7965 7964 7962 ] final  -62.83 input  175.53 | X-H torsion
[ 8008 7997 7996 7995 ] final  159.15 input   59.86 | X-H torsion
[ 10167 10162 10161 10158 ] final   86.64 input  -65.29 | X-H torsion
[ 10718 10713 10712 10709 ] final  135.91 input   66.30 | X-H torsion
[ 10763 10752 10751 10750 ] final -168.53 input  -60.55 | X-H torsion
[ 11005 11000 10999 10996 ] final   22.21 input  -57.11 | X-H torsion

> <Gold.Protein.ActiveResidues>
 VAL166  LYS551  ARG553  GLY616  TRP617  ASP618  TYR619  PRO620  LYS621  CYS622 
 ASP623  PHE694  ASN695  SER759  ASP760  ASP761  ALA762  ILE779  LEU786  VAL792 
 PHE793  MET794  SER795  GLU796  ALA797  LYS798  CYS799  TRP800  GLU811  SER814 

> <Gold.Protein.RotatedAtoms>
  151.3978  133.3767  159.2728 H   0  0  0  0  0  0  0  0  0  0  0  0  # atno 6907 bound_to 6896
  150.9456  134.8862  159.7650 H   0  0  0  0  0  0  0  0  0  0  0  0  # atno 6908 bound_to 6896
  152.5090  134.3931  159.9443 H   0  0  0  0  0  0  0  0  0  0  0  0  # atno 6909 bound_to 6896
  145.7865  140.8733  143.0303 H   0  0  0  0  0  0  0  0  0  0  0  0  # atno 7974 bound_to 7965
  156.2257  140.1839  156.7369 H   0  0  0  0  0  0  0  0  0  0  0  0  # atno 8008 bound_to 7997
  154.5937  140.0646  156.9302 H   0  0  0  0  0  0  0  0  0  0  0  0  # atno 8009 bound_to 7997
  155.2292  140.3313  155.4308 H   0  0  0  0  0  0  0  0  0  0  0  0  # atno 8010 bound_to 7997
  139.8854  144.6416  150.8797 H   0  0  0  0  0  0  0  0  0  0  0  0  # atno 10167 bound_to 10162
  157.4522  131.1067  151.0020 H   0  0  0  0  0  0  0  0  0  0  0  0  # atno 10718 bound_to 10713
  154.6619  135.2926  154.9856 H   0  0  0  0  0  0  0  0  0  0  0  0  # atno 10763 bound_to 10752
  154.0912  135.6590  153.4857 H   0  0  0  0  0  0  0  0  0  0  0  0  # atno 10764 bound_to 10752
  153.0435  135.5220  154.7574 H   0  0  0  0  0  0  0  0  0  0  0  0  # atno 10765 bound_to 10752
  140.3831  134.1899  155.7663 H   0  0  0  0  0  0  0  0  0  0  0  0  # atno 11005 bound_to 11000
  144.6788  140.0062  143.7484 LP  0  0  0  0  0  0  0  0  0  0  0  0  # atno 17320 bound_to 7965
  146.0021  139.3100  143.0921 LP  0  0  0  0  0  0  0  0  0  0  0  0  # atno 17321 bound_to 7965
  140.7737  143.3552  151.1935 LP  0  0  0  0  0  0  0  0  0  0  0  0  # atno 17342 bound_to 10162
  139.7157  143.9304  152.2966 LP  0  0  0  0  0  0  0  0  0  0  0  0  # atno 17343 bound_to 10162
  157.0846  130.5917  149.5427 LP  0  0  0  0  0  0  0  0  0  0  0  0  # atno 17370 bound_to 10713
  155.9992  130.5067  150.7598 LP  0  0  0  0  0  0  0  0  0  0  0  0  # atno 17371 bound_to 10713
  141.1917  133.8190  157.0870 LP  0  0  0  0  0  0  0  0  0  0  0  0  # atno 17394 bound_to 11000
  140.0463  134.9828  157.1055 LP  0  0  0  0  0  0  0  0  0  0  0  0  # atno 17395 bound_to 11000

$$$$
