AV-unprocessed.smi:3146|AV-procd|sdf|11985|dock10
  -GOLD-   2272017393D 1   1.00000     0.00000
 Structure written by MMmdl.
 35 36  0  0  0  0  0  0  0  0  2 V2000
  146.7548  137.9611  150.5074 O   0  0  0  0  0  0  0  0  0  0  0  0
  146.3252  137.7010  151.6325 C   0  0  0  0  0  0  0  0  0  0  0  0
  146.7381  138.5758  152.8248 C   0  0  0  0  0  0  0  0  0  0  0  0
  148.2049  138.6933  152.9549 N   0  3  0  0  0  0  0  0  0  0  0  0
  148.6661  139.0520  154.3112 C   0  0  0  0  0  0  0  0  0  0  0  0
  150.1998  139.1185  154.3912 C   0  0  0  0  0  0  0  0  0  0  0  0
  150.6584  140.0455  155.4100 N   0  0  0  0  0  0  0  0  0  0  0  0
  151.5283  139.8100  156.4540 C   0  0  0  0  0  0  0  0  0  0  0  0
  151.6625  140.9817  157.1424 C   0  0  0  0  0  0  0  0  0  0  0  0
  150.8236  141.8883  156.4357 C   0  0  0  0  0  0  0  0  0  0  0  0
  150.2256  141.3252  155.3979 N   0  0  0  0  0  0  0  0  0  0  0  0
  145.4922  136.6648  151.8608 N   0  0  0  0  0  0  0  0  0  0  0  0
  144.9319  136.2896  153.1588 C   0  0  0  0  0  0  0  0  0  0  0  0
  143.8864  135.2138  152.8622 C   0  0  0  0  0  0  0  0  0  0  0  0
  144.3447  134.5989  151.5470 C   0  0  0  0  0  0  0  0  0  0  0  0
  145.0332  135.7515  150.8159 C   0  0  0  0  0  0  0  0  0  0  0  0
  146.3112  139.5721  152.7031 H   0  0  0  0  0  0  0  0  0  0  0  0
  146.3347  138.1493  153.7442 H   0  0  0  0  0  0  0  0  0  0  0  0
  148.6199  137.8082  152.6993 H   0  0  0  0  0  0  0  0  0  0  0  0
  148.2448  140.0219  154.5780 H   0  0  0  0  0  0  0  0  0  0  0  0
  148.2845  138.3289  155.0334 H   0  0  0  0  0  0  0  0  0  0  0  0
  150.6219  138.1316  154.5879 H   0  0  0  0  0  0  0  0  0  0  0  0
  150.6042  139.4438  153.4319 H   0  0  0  0  0  0  0  0  0  0  0  0
  151.9749  138.8403  156.6189 H   0  0  0  0  0  0  0  0  0  0  0  0
  152.2667  141.1636  158.0189 H   0  0  0  0  0  0  0  0  0  0  0  0
  150.6339  142.9311  156.6439 H   0  0  0  0  0  0  0  0  0  0  0  0
  145.7264  135.8844  153.7870 H   0  0  0  0  0  0  0  0  0  0  0  0
  144.4825  137.1367  153.6788 H   0  0  0  0  0  0  0  0  0  0  0  0
  143.7948  134.4802  153.6638 H   0  0  0  0  0  0  0  0  0  0  0  0
  142.9101  135.6807  152.7244 H   0  0  0  0  0  0  0  0  0  0  0  0
  145.0689  133.8079  151.7467 H   0  0  0  0  0  0  0  0  0  0  0  0
  143.5247  134.1640  150.9746 H   0  0  0  0  0  0  0  0  0  0  0  0
  144.3241  136.2753  150.1733 H   0  0  0  0  0  0  0  0  0  0  0  0
  145.8539  135.3917  150.1932 H   0  0  0  0  0  0  0  0  0  0  0  0
  148.5294  139.3948  152.3045 H   0  0  0  0  0  0  0  0  0  0  0  0
  1  2  2  0  0  0  0
  2  3  1  0  0  0  0
  2 12  1  0  0  0  0
  3  4  1  0  0  0  0
  3 17  1  0  0  0  0
  3 18  1  0  0  0  0
  4  5  1  0  0  0  0
  4 19  1  0  0  0  0
  4 35  1  0  0  0  0
  5  6  1  0  0  0  0
  5 20  1  0  0  0  0
  5 21  1  0  0  0  0
  6  7  1  0  0  0  0
  6 22  1  0  0  0  0
  6 23  1  0  0  0  0
  7 11  1  0  0  0  0
  7  8  1  0  0  0  0
  8  9  2  0  0  0  0
  8 24  1  0  0  0  0
  9 10  1  0  0  0  0
  9 25  1  0  0  0  0
 10 11  2  0  0  0  0
 10 26  1  0  0  0  0
 12 16  1  0  0  0  0
 12 13  1  0  0  0  0
 13 14  1  0  0  0  0
 13 27  1  0  0  0  0
 13 28  1  0  0  0  0
 14 15  1  0  0  0  0
 14 29  1  0  0  0  0
 14 30  1  0  0  0  0
 15 16  1  0  0  0  0
 15 31  1  0  0  0  0
 15 32  1  0  0  0  0
 16 33  1  0  0  0  0
 16 34  1  0  0  0  0
M  CHG  1   4   1
M  END
> <s_m_source_file>
AV-unprocessed.smi

> <i_m_source_file_index>
3146

> <i_lp_mmshare_version>
43012

> <i_f3d_flags>
0

> <s_epik_input>
W0NIMl0xW0NIMl1bQ0gyXVtDSDJdTjFDKD1PKVtDSDJdW05IXVtDSDJdW0NIMl1uMltjSF1bY0hdW2NIXW4y

> <s_epik_cmdline>
J2VwaWtfcHl0aG9uJywgJy1waCcsICc3LjAnLCAnLXRuJywgJzgnLCAnLW1hJywgJzIwMCcsICctbWV0YWxfYmluZGluZycsICctaW1hZScsICc8aW5maWxlLm1hZT4nLCAnLW9tYWUnLCAnPG91dGZpbGUubWFlPic=

> <r_lp_tautomer_probability>
1

> <r_epik_Ionization_Penalty>
0.203171

> <r_epik_Ionization_Penalty_Charging>
0.203168

> <r_epik_Ionization_Penalty_Neutral>
2.33614e-06

> <r_epik_State_Penalty>
0.193072

> <r_epik_Charging_Adjusted_Penalty>
0.39624

> <i_epik_Tot_Q>
1

> <i_epik_Tot_abs_Q>
1

> <r_epik_Metal_State_Penalty>
0.193553

> <b_epik_Metal_Only>
0

> <s_lp_Force_Field>
OPLS_2005

> <r_lp_Energy>
25.7734

> <b_lp_Chiralities_Consistent>
1

> <s_lp_Variant>
AV-unprocessed.smi:3146-1

> <Gold.Version>
5.8.1

> <Gold.Id.Protein>
6NUR|6NUR_protein|mol2

> <Gold.PLP.Fitness>
44.1774

> <Gold.PLP.PLP>
-29.8870

> <Gold.PLP.part.hbond>
-3.4632

> <Gold.PLP.part.metal>
0.0000

> <Gold.PLP.part.buried>
-2.2502

> <Gold.PLP.part.nonpolar>
-27.0286

> <Gold.PLP.part.repulsive>
1.7929

> <Gold.PLP.ligand.clash>
0.0000

> <Gold.PLP.ligand.torsion>
0.3553

> <Gold.PLP.Chemscore.Hbond>
3.9920

> <Gold.PLP.Chemscore.CHOScore>
1.0000

> <Gold.PLP.Chemscore.Metal>
0.0000

> <Gold.Chemscore.Hbonds>
donor molecule, donor type, donor heavy atom, donor atom, acceptor molecule, acceptor atom, score
      L1  H     4    19       P1  7948  2.00
      L1  H     4    35       P1  7957  1.00
      P1  H  7954  7966       L1     1  0.99
      L1  C    10    26       P1  8028  0.62

> <Gold.PLP.Chemscore.Internal.Correction>
0.0249

> <Gold.Rescore>
     Score         DG    S(hbond)    S(metal)    S(lipo)     H(rot)  DE(clash)    DE(int)     intcor
     15.70     -17.08       2.93        0.00      57.01       1.90       1.02       0.36       ----

> <Gold.Chemscore.Fitness>
15.7020

> <Gold.Chemscore.DG>
-17.0822

> <Gold.Chemscore.ZeroCoef>
-5.4800

> <Gold.Chemscore.Hbond>
2.9310

> <Gold.Chemscore.Metal>
0.0000

> <Gold.Chemscore.Lipo>
57.0077

> <Gold.Chemscore.Internal_Hbond>
0.0000

> <Gold.Chemscore.DEClash>
1.0206

> <Gold.Chemscore.DEInternal>
0.3596

> <Gold.Chemscore.Rot>
1.8974

> <Gold.Chemscore.Internal.Correction>
   9.000000E+99

> <Gold.Chemscore.Hbonds>
donor molecule, donor type, donor heavy atom, donor atom, acceptor molecule, acceptor atom, score
      L1  H     4    19       P1  7948  1.00
      L1  H     4    35       P1  7957  0.98
      P1  H  7954  7966       L1     1  0.88

> <Gold.Chemscore.Hbond.Weighted>
-9.7895

> <Gold.Chemscore.Metal.Weighted>
-0.0000

> <Gold.Chemscore.Lipo.Weighted>
-6.6699

> <Gold.Chemscore.Internal_Hbond.Weighted>
0.0000

> <Gold.Chemscore.DEClash.Weighted>
1.0206

> <Gold.Chemscore.DEInternal.Weighted>
0.3596

> <Gold.Chemscore.Rot.Weighted>
4.8572

> <Gold.Chemscore.Internal.Correction.Weighted>
   9.000000E+99

> <Gold.Protein.RotatedTorsions>
[ 6907 6896 6895 6894 ] final   16.00 input  -60.11 | X-H torsion
[ 7974 7965 7964 7962 ] final  -39.58 input  175.53 | X-H torsion
[ 8008 7997 7996 7995 ] final -135.33 input   59.86 | X-H torsion
[ 10167 10162 10161 10158 ] final   92.06 input  -65.29 | X-H torsion
[ 10718 10713 10712 10709 ] final  -47.03 input   66.30 | X-H torsion
[ 10763 10752 10751 10750 ] final   74.80 input  -60.55 | X-H torsion
[ 11005 11000 10999 10996 ] final -166.80 input  -57.11 | X-H torsion

> <Gold.Protein.ActiveResidues>
 VAL166  LYS551  ARG553  GLY616  TRP617  ASP618  TYR619  PRO620  LYS621  CYS622 
 ASP623  PHE694  ASN695  SER759  ASP760  ASP761  ALA762  ILE779  LEU786  VAL792 
 PHE793  MET794  SER795  GLU796  ALA797  LYS798  CYS799  TRP800  GLU811  SER814 

> <Gold.Protein.RotatedAtoms>
  151.8270  135.0633  160.0431 H   0  0  0  0  0  0  0  0  0  0  0  0  # atno 6907 bound_to 6896
  152.2908  133.5555  159.5565 H   0  0  0  0  0  0  0  0  0  0  0  0  # atno 6908 bound_to 6896
  150.7229  134.0347  159.3787 H   0  0  0  0  0  0  0  0  0  0  0  0  # atno 6909 bound_to 6896
  146.0384  140.6641  142.9099 H   0  0  0  0  0  0  0  0  0  0  0  0  # atno 7974 bound_to 7965
  155.3769  140.0491  157.3044 H   0  0  0  0  0  0  0  0  0  0  0  0  # atno 8008 bound_to 7997
  154.5102  140.2189  155.9134 H   0  0  0  0  0  0  0  0  0  0  0  0  # atno 8009 bound_to 7997
  156.1573  140.3123  155.8754 H   0  0  0  0  0  0  0  0  0  0  0  0  # atno 8010 bound_to 7997
  139.8314  144.6685  150.9395 H   0  0  0  0  0  0  0  0  0  0  0  0  # atno 10167 bound_to 10162
  156.2124  130.4161  149.9097 H   0  0  0  0  0  0  0  0  0  0  0  0  # atno 10718 bound_to 10713
  153.0611  135.5012  154.8096 H   0  0  0  0  0  0  0  0  0  0  0  0  # atno 10763 bound_to 10752
  154.6884  135.2980  154.9517 H   0  0  0  0  0  0  0  0  0  0  0  0  # atno 10764 bound_to 10752
  154.0280  135.6733  153.4831 H   0  0  0  0  0  0  0  0  0  0  0  0  # atno 10765 bound_to 10752
  140.5604  134.5339  157.5142 H   0  0  0  0  0  0  0  0  0  0  0  0  # atno 11005 bound_to 11000
  144.7062  140.3862  143.7116 LP  0  0  0  0  0  0  0  0  0  0  0  0  # atno 17320 bound_to 7965
  145.6926  139.1642  143.2638 LP  0  0  0  0  0  0  0  0  0  0  0  0  # atno 17321 bound_to 7965
  140.7806  143.3997  151.1169 LP  0  0  0  0  0  0  0  0  0  0  0  0  # atno 17342 bound_to 10162
  139.7651  143.8578  152.3109 LP  0  0  0  0  0  0  0  0  0  0  0  0  # atno 17343 bound_to 10162
  156.6771  130.8843  151.3570 LP  0  0  0  0  0  0  0  0  0  0  0  0  # atno 17370 bound_to 10713
  157.7046  130.9370  150.0889 LP  0  0  0  0  0  0  0  0  0  0  0  0  # atno 17371 bound_to 10713
  139.9411  134.7786  156.0677 LP  0  0  0  0  0  0  0  0  0  0  0  0  # atno 17394 bound_to 11000
  141.1118  133.6641  156.2997 LP  0  0  0  0  0  0  0  0  0  0  0  0  # atno 17395 bound_to 11000

$$$$
