AV-unprocessed.smi:3031|AV-procd|sdf|11547|dock1
  -GOLD-   2272016503D 1   1.00000     0.00000
 Structure written by MMmdl.
 47 48  0  0  0  0  0  0  0  0  2 V2000
  152.2371  143.4049  159.2473 C   0  0  0  0  0  0  0  0  0  0  0  0
  151.7186  142.3917  158.2679 C   0  0  0  0  0  0  0  0  0  0  0  0
  151.8320  140.9737  158.3341 C   0  0  0  0  0  0  0  0  0  0  0  0
  151.2706  140.3641  157.3030 N   0  0  0  0  0  0  0  0  0  0  0  0
  150.7812  141.3680  156.5435 N   0  0  0  0  0  0  0  0  0  0  0  0
  150.0925  141.0655  155.3019 C   0  0  0  0  0  0  0  0  0  0  0  0
  150.0469  139.5563  154.9643 C   0  0  2  0  0  0  0  0  0  0  0  0
  151.4738  139.0235  154.7756 C   0  0  0  0  0  0  0  0  0  0  0  0
  149.2751  139.2911  153.7464 N   0  0  0  0  0  0  0  0  0  0  0  0
  147.8619  139.6705  153.8171 C   0  0  0  0  0  0  0  0  0  0  0  0
  146.9624  138.7335  152.9915 C   0  0  1  0  0  0  0  0  0  0  0  0
  147.5950  138.4742  151.7535 O   0  0  0  0  0  0  0  0  0  0  0  0
  146.6069  137.4089  153.7009 C   0  0  0  0  0  0  0  0  0  0  0  0
  146.4617  136.2791  152.7480 N   0  3  0  0  0  0  0  0  0  0  0  0
  146.3913  134.9638  153.4279 C   0  0  0  0  0  0  0  0  0  0  0  0
  146.3107  133.8282  152.3937 C   0  0  0  0  0  0  0  0  0  0  0  0
  145.1868  134.0323  151.5466 O   0  0  0  0  0  0  0  0  0  0  0  0
  145.2812  135.2524  150.8221 C   0  0  0  0  0  0  0  0  0  0  0  0
  145.3263  136.4347  151.8048 C   0  0  0  0  0  0  0  0  0  0  0  0
  151.0309  142.6016  157.1060 C   0  0  0  0  0  0  0  0  0  0  0  0
  152.4515  142.9573  160.2180 H   0  0  0  0  0  0  0  0  0  0  0  0
  151.5189  144.2075  159.4164 H   0  0  0  0  0  0  0  0  0  0  0  0
  153.1597  143.8670  158.8955 H   0  0  0  0  0  0  0  0  0  0  0  0
  152.3066  140.3731  159.0960 H   0  0  0  0  0  0  0  0  0  0  0  0
  149.0825  141.4775  155.3432 H   0  0  0  0  0  0  0  0  0  0  0  0
  150.6076  141.6057  154.5065 H   0  0  0  0  0  0  0  0  0  0  0  0
  149.6088  139.0135  155.8032 H   0  0  0  0  0  0  0  0  0  0  0  0
  152.0696  139.1690  155.6771 H   0  0  0  0  0  0  0  0  0  0  0  0
  151.9841  139.5291  153.9550 H   0  0  0  0  0  0  0  0  0  0  0  0
  151.4686  137.9550  154.5572 H   0  0  0  0  0  0  0  0  0  0  0  0
  149.7080  139.7824  152.9700 H   0  0  0  0  0  0  0  0  0  0  0  0
  147.5393  139.6525  154.8587 H   0  0  0  0  0  0  0  0  0  0  0  0
  147.7076  140.6924  153.4774 H   0  0  0  0  0  0  0  0  0  0  0  0
  146.0519  139.2885  152.7694 H   0  0  0  0  0  0  0  0  0  0  0  0
  148.2715  137.8279  151.8910 H   0  0  0  0  0  0  0  0  0  0  0  0
  147.3927  137.1740  154.4206 H   0  0  0  0  0  0  0  0  0  0  0  0
  145.6876  137.5166  154.2787 H   0  0  0  0  0  0  0  0  0  0  0  0
  147.2718  134.8225  154.0559 H   0  0  0  0  0  0  0  0  0  0  0  0
  145.5199  134.9365  154.0841 H   0  0  0  0  0  0  0  0  0  0  0  0
  147.2248  133.7757  151.8000 H   0  0  0  0  0  0  0  0  0  0  0  0
  146.2036  132.8675  152.8976 H   0  0  0  0  0  0  0  0  0  0  0  0
  146.1654  135.2434  150.1826 H   0  0  0  0  0  0  0  0  0  0  0  0
  144.4146  135.3415  150.1666 H   0  0  0  0  0  0  0  0  0  0  0  0
  144.3902  136.4886  152.3630 H   0  0  0  0  0  0  0  0  0  0  0  0
  145.4167  137.3638  151.2437 H   0  0  0  0  0  0  0  0  0  0  0  0
  150.7080  143.5176  156.6334 H   0  0  0  0  0  0  0  0  0  0  0  0
  147.3086  136.2659  152.1972 H   0  0  0  0  0  0  0  0  0  0  0  0
  1  2  1  0  0  0  0
  1 21  1  0  0  0  0
  1 22  1  0  0  0  0
  1 23  1  0  0  0  0
  2 20  2  0  0  0  0
  2  3  1  0  0  0  0
  3  4  2  0  0  0  0
  3 24  1  0  0  0  0
  4  5  1  0  0  0  0
  5  6  1  0  0  0  0
  5 20  1  0  0  0  0
  6  7  1  0  0  0  0
  6 25  1  0  0  0  0
  6 26  1  0  0  0  0
  7  8  1  0  0  0  0
  7  9  1  0  0  0  0
  7 27  1  0  0  0  0
  8 28  1  0  0  0  0
  8 29  1  0  0  0  0
  8 30  1  0  0  0  0
  9 10  1  0  0  0  0
  9 31  1  0  0  0  0
 10 11  1  0  0  0  0
 10 32  1  0  0  0  0
 10 33  1  0  0  0  0
 11 12  1  0  0  0  0
 11 13  1  0  0  0  0
 11 34  1  0  0  0  0
 12 35  1  0  0  0  0
 13 14  1  0  0  0  0
 13 36  1  0  0  0  0
 13 37  1  0  0  0  0
 14 19  1  0  0  0  0
 14 15  1  0  0  0  0
 14 47  1  0  0  0  0
 15 16  1  0  0  0  0
 15 38  1  0  0  0  0
 15 39  1  0  0  0  0
 16 17  1  0  0  0  0
 16 40  1  0  0  0  0
 16 41  1  0  0  0  0
 17 18  1  0  0  0  0
 18 19  1  0  0  0  0
 18 42  1  0  0  0  0
 18 43  1  0  0  0  0
 19 44  1  0  0  0  0
 19 45  1  0  0  0  0
 20 46  1  0  0  0  0
M  CHG  1  14   1
M  END
> <s_m_source_file>
AV-unprocessed.smi

> <i_m_source_file_index>
3031

> <i_lp_mmshare_version>
43012

> <i_f3d_flags>
0

> <s_epik_input>
W0NIM11jMVtjSF1ubihbY0hdMSlbQ0gyXVtDQEhdKFtDSDNdKVtOSF1bQ0gyXVtDQEhdKFtPSF0pW0NIMl1OMltDSDJdW0NIMl1PW0NIMl1bQ0gyXTI=

> <s_epik_cmdline>
J2VwaWtfcHl0aG9uJywgJy1waCcsICc3LjAnLCAnLXRuJywgJzgnLCAnLW1hJywgJzIwMCcsICctbWV0YWxfYmluZGluZycsICctaW1hZScsICc8aW5maWxlLm1hZT4nLCAnLW9tYWUnLCAnPG91dGZpbGUubWFlPic=

> <r_epik_Ionization_Penalty>
0.467051

> <r_epik_Ionization_Penalty_Charging>
0.202493

> <r_epik_Ionization_Penalty_Neutral>
0.264558

> <r_epik_State_Penalty>
1.34287

> <r_epik_Charging_Adjusted_Penalty>
1.54537

> <i_epik_Tot_Q>
1

> <i_epik_Tot_abs_Q>
1

> <r_epik_Metal_State_Penalty>
1.34281

> <b_epik_Metal_Only>
0

> <s_lp_Force_Field>
OPLS_2005

> <r_lp_Energy>
30.3871

> <b_lp_Chiralities_Consistent>
1

> <s_lp_Variant>
AV-unprocessed.smi:3031-7

> <Gold.Version>
5.8.1

> <Gold.Id.Protein>
6NUR|6NUR_protein|mol2

> <Gold.PLP.Fitness>
52.7215

> <Gold.PLP.PLP>
-39.3298

> <Gold.PLP.part.hbond>
-5.0000

> <Gold.PLP.part.metal>
0.0000

> <Gold.PLP.part.buried>
-2.6541

> <Gold.PLP.part.nonpolar>
-30.8629

> <Gold.PLP.part.repulsive>
0.1287

> <Gold.PLP.ligand.clash>
0.0000

> <Gold.PLP.ligand.torsion>
0.8969

> <Gold.PLP.Chemscore.Hbond>
3.8800

> <Gold.PLP.Chemscore.CHOScore>
1.0000

> <Gold.PLP.Chemscore.Metal>
0.0000

> <Gold.Chemscore.Hbonds>
donor molecule, donor type, donor heavy atom, donor atom, acceptor molecule, acceptor atom, score
      L1  H     9    31       P1  7957  0.86
      L1  H    12    35       P1  7948  1.00
      L1  H    14    47       P1  7948  2.00
      L1  C    20    46       P1  8028  1.00

> <Gold.PLP.Chemscore.Internal.Correction>
0.5455

> <Gold.Rescore>
     Score         DG    S(hbond)    S(metal)    S(lipo)     H(rot)  DE(clash)    DE(int)     intcor
     17.32     -19.36       2.87        0.00      94.77       2.65       0.23       1.81       ----

> <Gold.Chemscore.Fitness>
17.3157

> <Gold.Chemscore.DG>
-19.3580

> <Gold.Chemscore.ZeroCoef>
-5.4800

> <Gold.Chemscore.Hbond>
2.8679

> <Gold.Chemscore.Metal>
0.0000

> <Gold.Chemscore.Lipo>
94.7743

> <Gold.Chemscore.Internal_Hbond>
0.0000

> <Gold.Chemscore.DEClash>
0.2312

> <Gold.Chemscore.DEInternal>
1.8111

> <Gold.Chemscore.Rot>
2.6521

> <Gold.Chemscore.Internal.Correction>
   9.000000E+99

> <Gold.Chemscore.Hbonds>
donor molecule, donor type, donor heavy atom, donor atom, acceptor molecule, acceptor atom, score
      L1  H     9    31       P1  7957  0.85
      L1  H    12    35       P1  7948  0.98
      L1  H    14    47       P1  7948  0.99

> <Gold.Chemscore.Hbond.Weighted>
-9.5788

> <Gold.Chemscore.Metal.Weighted>
-0.0000

> <Gold.Chemscore.Lipo.Weighted>
-11.0886

> <Gold.Chemscore.Internal_Hbond.Weighted>
0.0000

> <Gold.Chemscore.DEClash.Weighted>
0.2312

> <Gold.Chemscore.DEInternal.Weighted>
1.8111

> <Gold.Chemscore.Rot.Weighted>
6.7894

> <Gold.Chemscore.Internal.Correction.Weighted>
   9.000000E+99

> <Gold.Protein.RotatedTorsions>
[ 6907 6896 6895 6894 ] final  124.52 input  -60.11 | X-H torsion
[ 7974 7965 7964 7962 ] final   -5.13 input  175.53 | X-H torsion
[ 8008 7997 7996 7995 ] final   -0.07 input   59.86 | X-H torsion
[ 10167 10162 10161 10158 ] final  -62.55 input  -65.29 | X-H torsion
[ 10718 10713 10712 10709 ] final  156.25 input   66.30 | X-H torsion
[ 10763 10752 10751 10750 ] final  176.52 input  -60.55 | X-H torsion
[ 11005 11000 10999 10996 ] final  107.74 input  -57.11 | X-H torsion

> <Gold.Protein.ActiveResidues>
 VAL166  LYS551  ARG553  GLY616  TRP617  ASP618  TYR619  PRO620  LYS621  CYS622 
 ASP623  PHE694  ASN695  SER759  ASP760  ASP761  ALA762  ILE779  LEU786  VAL792 
 PHE793  MET794  SER795  GLU796  ALA797  LYS798  CYS799  TRP800  GLU811  SER814 

> <Gold.Protein.RotatedAtoms>
  152.4071  133.6905  159.6365 H   0  0  0  0  0  0  0  0  0  0  0  0  # atno 6907 bound_to 6896
  150.7954  133.8690  159.3262 H   0  0  0  0  0  0  0  0  0  0  0  0  # atno 6908 bound_to 6896
  151.6442  135.1011  160.0199 H   0  0  0  0  0  0  0  0  0  0  0  0  # atno 6909 bound_to 6896
  146.2359  140.1974  142.8333 H   0  0  0  0  0  0  0  0  0  0  0  0  # atno 7974 bound_to 7965
  154.6623  140.2593  155.7095 H   0  0  0  0  0  0  0  0  0  0  0  0  # atno 8008 bound_to 7997
  156.2624  140.2846  156.1021 H   0  0  0  0  0  0  0  0  0  0  0  0  # atno 8009 bound_to 7997
  155.1290  140.0378  157.2760 H   0  0  0  0  0  0  0  0  0  0  0  0  # atno 8010 bound_to 7997
  140.5931  143.2345  151.6096 H   0  0  0  0  0  0  0  0  0  0  0  0  # atno 10167 bound_to 10162
  157.2075  131.0690  151.1989 H   0  0  0  0  0  0  0  0  0  0  0  0  # atno 10718 bound_to 10713
  154.4822  135.2775  155.1562 H   0  0  0  0  0  0  0  0  0  0  0  0  # atno 10763 bound_to 10752
  154.3267  135.6198  153.5536 H   0  0  0  0  0  0  0  0  0  0  0  0  # atno 10764 bound_to 10752
  152.9877  135.5755  154.5225 H   0  0  0  0  0  0  0  0  0  0  0  0  # atno 10765 bound_to 10752
  139.8833  134.9410  156.5866 H   0  0  0  0  0  0  0  0  0  0  0  0  # atno 11005 bound_to 11000
  144.9809  140.8458  143.5398 LP  0  0  0  0  0  0  0  0  0  0  0  0  # atno 17320 bound_to 7965
  145.1967  139.2273  143.5214 LP  0  0  0  0  0  0  0  0  0  0  0  0  # atno 17321 bound_to 7965
  139.5240  144.3116  152.0988 LP  0  0  0  0  0  0  0  0  0  0  0  0  # atno 17342 bound_to 10162
  140.2283  144.4394  150.6311 LP  0  0  0  0  0  0  0  0  0  0  0  0  # atno 17343 bound_to 10162
  157.3705  130.7178  149.6562 LP  0  0  0  0  0  0  0  0  0  0  0  0  # atno 17370 bound_to 10713
  155.9694  130.4200  150.4402 LP  0  0  0  0  0  0  0  0  0  0  0  0  # atno 17371 bound_to 10713
  140.7987  133.8523  155.8708 LP  0  0  0  0  0  0  0  0  0  0  0  0  # atno 17394 bound_to 11000
  140.9612  134.1653  157.4652 LP  0  0  0  0  0  0  0  0  0  0  0  0  # atno 17395 bound_to 11000

$$$$
