AV-unprocessed.smi:1467|AV-procd|sdf|5956|dock6
  -GOLD-   22720 6 43D 1   1.00000     0.00000
 Structure written by MMmdl.
 41 42  0  0  0  0  0  0  0  0  2 V2000
  151.7196  140.3792  159.3825 C   0  0  0  0  0  0  0  0  0  0  0  0
  151.8256  140.5929  157.8710 C   0  0  0  0  0  0  0  0  0  0  0  0
  152.6648  139.9391  157.2518 O   0  0  0  0  0  0  0  0  0  0  0  0
  151.0029  141.4837  157.2670 N   0  0  0  0  0  0  0  0  0  0  0  0
  149.9243  142.2291  157.9226 C   0  0  0  0  0  0  0  0  0  0  0  0
  148.5714  141.7368  157.3774 C   0  0  0  0  0  0  0  0  0  0  0  0
  148.5070  141.8410  155.8941 N   0  3  0  0  0  0  0  0  0  0  0  0
  147.2012  141.3780  155.3605 C   0  0  0  0  0  0  0  0  0  0  0  0
  147.1885  141.2830  153.8226 C   0  0  0  0  0  0  0  0  0  0  0  0
  146.2043  140.3130  153.3563 N   0  0  0  0  0  0  0  0  0  0  0  0
  146.4160  138.9924  153.2653 C   0  0  0  0  0  0  0  0  0  0  0  0
  147.4836  138.4562  153.5626 O   0  0  0  0  0  0  0  0  0  0  0  0
  145.3290  138.3508  152.8062 N   0  0  0  0  0  0  0  0  0  0  0  0
  145.1749  136.9554  152.6049 C   0  0  0  0  0  0  0  0  0  0  0  0
  144.0565  136.3468  151.9728 C   0  0  0  0  0  0  0  0  0  0  0  0
  144.1830  135.0282  151.9310 N   0  0  0  0  0  0  0  0  0  0  0  0
  145.3702  134.7889  152.5326 N   0  0  0  0  0  0  0  0  0  0  0  0
  146.0088  135.9322  152.9596 C   0  0  0  0  0  0  0  0  0  0  0  0
  149.6796  141.2133  155.2233 C   0  0  0  0  0  0  0  0  0  0  0  0
  151.0072  141.7151  155.8200 C   0  0  0  0  0  0  0  0  0  0  0  0
  145.7267  133.8503  152.6448 H   0  0  0  0  0  0  0  0  0  0  0  0
  150.7289  140.0146  159.6544 H   0  0  0  0  0  0  0  0  0  0  0  0
  151.9176  141.3070  159.9196 H   0  0  0  0  0  0  0  0  0  0  0  0
  152.4488  139.6407  159.7173 H   0  0  0  0  0  0  0  0  0  0  0  0
  149.9315  142.1483  159.0085 H   0  0  0  0  0  0  0  0  0  0  0  0
  150.0470  143.2919  157.7084 H   0  0  0  0  0  0  0  0  0  0  0  0
  148.4092  140.6989  157.6738 H   0  0  0  0  0  0  0  0  0  0  0  0
  147.7661  142.3234  157.8216 H   0  0  0  0  0  0  0  0  0  0  0  0
  146.9377  140.4188  155.8089 H   0  0  0  0  0  0  0  0  0  0  0  0
  146.4289  142.0843  155.6689 H   0  0  0  0  0  0  0  0  0  0  0  0
  146.9896  142.2606  153.3796 H   0  0  0  0  0  0  0  0  0  0  0  0
  148.1585  140.9618  153.4452 H   0  0  0  0  0  0  0  0  0  0  0  0
  145.2972  140.6703  153.0931 H   0  0  0  0  0  0  0  0  0  0  0  0
  144.5254  138.9180  152.5793 H   0  0  0  0  0  0  0  0  0  0  0  0
  143.1756  136.8083  151.5512 H   0  0  0  0  0  0  0  0  0  0  0  0
  146.9647  135.9070  153.4616 H   0  0  0  0  0  0  0  0  0  0  0  0
  149.6177  140.1286  155.3257 H   0  0  0  0  0  0  0  0  0  0  0  0
  149.6681  141.4322  154.1564 H   0  0  0  0  0  0  0  0  0  0  0  0
  151.1246  142.7828  155.6292 H   0  0  0  0  0  0  0  0  0  0  0  0
  151.8442  141.2309  155.3148 H   0  0  0  0  0  0  0  0  0  0  0  0
  148.5606  142.8292  155.6918 H   0  0  0  0  0  0  0  0  0  0  0  0
  1  2  1  0  0  0  0
  1 22  1  0  0  0  0
  1 23  1  0  0  0  0
  1 24  1  0  0  0  0
  2  3  2  0  0  0  0
  2  4  1  0  0  0  0
  4 20  1  0  0  0  0
  4  5  1  0  0  0  0
  5  6  1  0  0  0  0
  5 25  1  0  0  0  0
  5 26  1  0  0  0  0
  6  7  1  0  0  0  0
  6 27  1  0  0  0  0
  6 28  1  0  0  0  0
  7  8  1  0  0  0  0
  7 19  1  0  0  0  0
  7 41  1  0  0  0  0
  8  9  1  0  0  0  0
  8 29  1  0  0  0  0
  8 30  1  0  0  0  0
  9 10  1  0  0  0  0
  9 31  1  0  0  0  0
  9 32  1  0  0  0  0
 10 11  1  0  0  0  0
 10 33  1  0  0  0  0
 11 12  2  0  0  0  0
 11 13  1  0  0  0  0
 13 14  1  0  0  0  0
 13 34  1  0  0  0  0
 14 18  2  0  0  0  0
 14 15  1  0  0  0  0
 15 16  2  0  0  0  0
 15 35  1  0  0  0  0
 16 17  1  0  0  0  0
 17 21  1  0  0  0  0
 17 18  1  0  0  0  0
 18 36  1  0  0  0  0
 19 20  1  0  0  0  0
 19 37  1  0  0  0  0
 19 38  1  0  0  0  0
 20 39  1  0  0  0  0
 20 40  1  0  0  0  0
M  CHG  1   7   1
M  END
> <s_m_source_file>
AV-unprocessed.smi

> <i_m_source_file_index>
1467

> <i_lp_mmshare_version>
43012

> <i_f3d_flags>
0

> <s_epik_input>
W0NIM11DKD1PKU4xW0NIMl1bQ0gyXU4oW0NIMl1bQ0gyXTEpW0NIMl1bQ0gyXVtOSF1DKD1PKVtOSF1jMltjSF1uW25IXVtjSF0y

> <s_epik_cmdline>
J2VwaWtfcHl0aG9uJywgJy1waCcsICc3LjAnLCAnLXRuJywgJzgnLCAnLW1hJywgJzIwMCcsICctbWV0YWxfYmluZGluZycsICctaW1hZScsICc8aW5maWxlLm1hZT4nLCAnLW9tYWUnLCAnPG91dGZpbGUubWFlPic=

> <r_lp_tautomer_probability>
0.5

> <r_epik_Ionization_Penalty>
0.630073

> <r_epik_Ionization_Penalty_Charging>
0.630034

> <r_epik_Ionization_Penalty_Neutral>
3.91951e-05

> <r_epik_State_Penalty>
0.646805

> <r_epik_Charging_Adjusted_Penalty>
1.27684

> <i_epik_Tot_Q>
1

> <i_epik_Tot_abs_Q>
1

> <r_epik_Metal_State_Penalty>
0.646807

> <b_epik_Metal_Only>
0

> <s_lp_Force_Field>
OPLS_2005

> <r_lp_Energy>
42.6294

> <b_lp_Chiralities_Consistent>
1

> <s_lp_Variant>
AV-unprocessed.smi:1467-2

> <Gold.Version>
5.8.1

> <Gold.Id.Protein>
6NUR|6NUR_protein|mol2

> <Gold.PLP.Fitness>
42.7932

> <Gold.PLP.PLP>
-24.7424

> <Gold.PLP.part.hbond>
-4.0623

> <Gold.PLP.part.metal>
0.0000

> <Gold.PLP.part.buried>
-2.1624

> <Gold.PLP.part.nonpolar>
-18.6591

> <Gold.PLP.part.repulsive>
0.4023

> <Gold.PLP.ligand.clash>
0.0000

> <Gold.PLP.ligand.torsion>
0.4222

> <Gold.PLP.Chemscore.Hbond>
5.0000

> <Gold.PLP.Chemscore.CHOScore>
1.2828

> <Gold.PLP.Chemscore.Metal>
0.0000

> <Gold.Chemscore.Hbonds>
donor molecule, donor type, donor heavy atom, donor atom, acceptor molecule, acceptor atom, score
      L1  H     7    41       P1  8028  2.00
      L1  H    10    33       P1 10175  1.00
      L1  H    13    34       P1 10175  1.00
      P1  H  7997  8008       L1     3  1.00
      L1  C    15    35       P1 10171  0.56
      L1  C    18    36       P1  7948  0.60

> <Gold.PLP.Chemscore.Internal.Correction>
0.0469

> <Gold.Rescore>
     Score         DG    S(hbond)    S(metal)    S(lipo)     H(rot)  DE(clash)    DE(int)     intcor
     18.03     -19.54       3.86        0.00      48.14       1.75       0.01       1.50       ----

> <Gold.Chemscore.Fitness>
18.0285

> <Gold.Chemscore.DG>
-19.5370

> <Gold.Chemscore.ZeroCoef>
-5.4800

> <Gold.Chemscore.Hbond>
3.8645

> <Gold.Chemscore.Metal>
0.0000

> <Gold.Chemscore.Lipo>
48.1444

> <Gold.Chemscore.Internal_Hbond>
0.0000

> <Gold.Chemscore.DEClash>
0.0064

> <Gold.Chemscore.DEInternal>
1.5021

> <Gold.Chemscore.Rot>
1.7513

> <Gold.Chemscore.Internal.Correction>
   9.000000E+99

> <Gold.Chemscore.Hbonds>
donor molecule, donor type, donor heavy atom, donor atom, acceptor molecule, acceptor atom, score
      L1  H     7    41       P1  8028  1.00
      L1  H    10    33       P1 10175  0.76
      L1  H    13    34       P1 10175  0.98
      P1  H  7997  8008       L1     3  0.99

> <Gold.Chemscore.Hbond.Weighted>
-12.9074

> <Gold.Chemscore.Metal.Weighted>
-0.0000

> <Gold.Chemscore.Lipo.Weighted>
-5.6329

> <Gold.Chemscore.Internal_Hbond.Weighted>
0.0000

> <Gold.Chemscore.DEClash.Weighted>
0.0064

> <Gold.Chemscore.DEInternal.Weighted>
1.5021

> <Gold.Chemscore.Rot.Weighted>
4.4833

> <Gold.Chemscore.Internal.Correction.Weighted>
   9.000000E+99

> <Gold.Protein.RotatedTorsions>
[ 6907 6896 6895 6894 ] final -176.93 input  -60.11 | X-H torsion
[ 7974 7965 7964 7962 ] final  176.30 input  175.53 | X-H torsion
[ 8008 7997 7996 7995 ] final  -69.41 input   59.86 | X-H torsion
[ 10167 10162 10161 10158 ] final -165.11 input  -65.29 | X-H torsion
[ 10718 10713 10712 10709 ] final    3.49 input   66.30 | X-H torsion
[ 10763 10752 10751 10750 ] final  -33.60 input  -60.55 | X-H torsion
[ 11005 11000 10999 10996 ] final  -88.43 input  -57.11 | X-H torsion

> <Gold.Protein.ActiveResidues>
 VAL166  LYS551  ARG553  GLY616  TRP617  ASP618  TYR619  PRO620  LYS621  CYS622 
 ASP623  PHE694  ASN695  SER759  ASP760  ASP761  ALA762  ILE779  LEU786  VAL792 
 PHE793  MET794  SER795  GLU796  ALA797  LYS798  CYS799  TRP800  GLU811  SER814 

> <Gold.Protein.RotatedAtoms>
  151.6127  133.3346  159.3070 H   0  0  0  0  0  0  0  0  0  0  0  0  # atno 6907 bound_to 6896
  150.8148  134.7327  159.6731 H   0  0  0  0  0  0  0  0  0  0  0  0  # atno 6908 bound_to 6896
  152.4244  134.5901  160.0023 H   0  0  0  0  0  0  0  0  0  0  0  0  # atno 6909 bound_to 6896
  144.7186  140.0075  143.6440 H   0  0  0  0  0  0  0  0  0  0  0  0  # atno 7974 bound_to 7965
  154.4937  140.0854  156.7649 H   0  0  0  0  0  0  0  0  0  0  0  0  # atno 8008 bound_to 7997
  155.4169  140.3444  155.4250 H   0  0  0  0  0  0  0  0  0  0  0  0  # atno 8009 bound_to 7997
  156.1364  140.1516  156.8975 H   0  0  0  0  0  0  0  0  0  0  0  0  # atno 8010 bound_to 7997
  139.6204  144.0636  152.1927 H   0  0  0  0  0  0  0  0  0  0  0  0  # atno 10167 bound_to 10162
  156.8786  130.5645  149.5654 H   0  0  0  0  0  0  0  0  0  0  0  0  # atno 10718 bound_to 10713
  153.8328  135.6864  153.4812 H   0  0  0  0  0  0  0  0  0  0  0  0  # atno 10763 bound_to 10752
  153.1500  135.4622  154.9621 H   0  0  0  0  0  0  0  0  0  0  0  0  # atno 10764 bound_to 10752
  154.7879  135.3291  154.7790 H   0  0  0  0  0  0  0  0  0  0  0  0  # atno 10765 bound_to 10752
  141.1602  133.7570  156.9451 H   0  0  0  0  0  0  0  0  0  0  0  0  # atno 11005 bound_to 11000
  146.0285  139.3314  143.0770 LP  0  0  0  0  0  0  0  0  0  0  0  0  # atno 17320 bound_to 7965
  145.8482  140.9543  143.0763 LP  0  0  0  0  0  0  0  0  0  0  0  0  # atno 17321 bound_to 7965
  140.0276  144.6105  150.7514 LP  0  0  0  0  0  0  0  0  0  0  0  0  # atno 17342 bound_to 10162
  140.7378  143.2770  151.3711 LP  0  0  0  0  0  0  0  0  0  0  0  0  # atno 17343 bound_to 10162
  156.0689  130.5726  150.9344 LP  0  0  0  0  0  0  0  0  0  0  0  0  # atno 17370 bound_to 10713
  157.6153  131.0933  150.8721 LP  0  0  0  0  0  0  0  0  0  0  0  0  # atno 17371 bound_to 10713
  140.1295  134.9365  157.2317 LP  0  0  0  0  0  0  0  0  0  0  0  0  # atno 17394 bound_to 11000
  140.2970  134.3175  155.7299 LP  0  0  0  0  0  0  0  0  0  0  0  0  # atno 17395 bound_to 11000

$$$$
