AV-unprocessed.smi:54|AV-procd|sdf|554|dock5
  -GOLD-   2262016453D 1   1.00000     0.00000
 Structure written by MMmdl.
 43 45  0  0  0  0  0  0  0  0  2 V2000
  152.6752  144.4025  158.3588 C   0  0  0  0  0  0  0  0  0  0  0  0
  151.3405  143.7794  157.9179 C   0  0  0  0  0  0  0  0  0  0  0  0
  150.2224  144.0819  158.9293 C   0  0  0  0  0  0  0  0  0  0  0  0
  151.4923  142.2660  157.7073 C   0  0  0  0  0  0  0  0  0  0  0  0
  151.7372  141.5473  158.6787 O   0  0  0  0  0  0  0  0  0  0  0  0
  151.3517  141.8448  156.4308 N   0  0  0  0  0  0  0  0  0  0  0  0
  151.4446  140.5485  155.9104 C   0  0  0  0  0  0  0  0  0  0  0  0
  150.2745  140.0003  155.6879 N   0  0  0  0  0  0  0  0  0  0  0  0
  150.3747  138.7123  155.1970 C   0  0  0  0  0  0  0  0  0  0  0  0
  151.5142  138.0031  154.9352 C   0  0  0  0  0  0  0  0  0  0  0  0
  151.2222  136.7438  154.4265 N   0  0  0  0  0  0  0  0  0  0  0  0
  149.8903  136.7536  154.4068 C   0  0  0  0  0  0  0  0  0  0  0  0
  149.3083  137.8799  154.8718 N   0  0  0  0  0  0  0  0  0  0  0  0
  147.8453  138.2129  154.9521 C   0  0  1  0  0  0  0  0  0  0  0  0
  147.7003  139.5637  155.2650 O   0  0  0  0  0  0  0  0  0  0  0  0
  147.6894  140.3248  154.0639 C   0  0  2  0  0  0  0  0  0  0  0  0
  147.0491  141.6979  154.3183 C   0  0  0  0  0  0  0  0  0  0  0  0
  147.5788  142.2695  155.4951 O   0  0  0  0  0  0  0  0  0  0  0  0
  146.8759  139.4368  153.1146 C   0  0  1  0  0  0  0  0  0  0  0  0
  147.3215  139.6205  151.7857 O   0  0  0  0  0  0  0  0  0  0  0  0
  147.1660  138.0099  153.5854 C   0  0  2  0  0  0  0  0  0  0  0  0
  145.9668  137.2739  153.7155 O   0  0  0  0  0  0  0  0  0  0  0  0
  152.8029  138.6785  155.2156 C   0  0  0  0  0  0  0  0  0  0  0  0
  153.8536  138.0782  154.9977 O   0  0  0  0  0  0  0  0  0  0  0  0
  152.7043  139.9491  155.7089 N   0  5  0  0  0  0  0  0  0  0  0  0
  147.4729  137.5682  155.7491 H   0  0  0  0  0  0  0  0  0  0  0  0
  148.7086  140.4351  153.6881 H   0  0  0  0  0  0  0  0  0  0  0  0
  145.8123  139.6686  153.1919 H   0  0  0  0  0  0  0  0  0  0  0  0
  147.8333  137.4815  152.9025 H   0  0  0  0  0  0  0  0  0  0  0  0
  153.4689  144.1862  157.6426 H   0  0  0  0  0  0  0  0  0  0  0  0
  152.9927  144.0255  159.3319 H   0  0  0  0  0  0  0  0  0  0  0  0
  152.5916  145.4868  158.4367 H   0  0  0  0  0  0  0  0  0  0  0  0
  151.0586  144.2330  156.9661 H   0  0  0  0  0  0  0  0  0  0  0  0
  149.2785  143.6280  158.6246 H   0  0  0  0  0  0  0  0  0  0  0  0
  150.0554  145.1560  159.0150 H   0  0  0  0  0  0  0  0  0  0  0  0
  150.4673  143.7061  159.9237 H   0  0  0  0  0  0  0  0  0  0  0  0
  151.2161  142.5831  155.7562 H   0  0  0  0  0  0  0  0  0  0  0  0
  149.3243  135.9108  154.0387 H   0  0  0  0  0  0  0  0  0  0  0  0
  147.2773  142.3759  153.4952 H   0  0  0  0  0  0  0  0  0  0  0  0
  145.9634  141.6244  154.3859 H   0  0  0  0  0  0  0  0  0  0  0  0
  147.6961  143.1964  155.3524 H   0  0  0  0  0  0  0  0  0  0  0  0
  148.2654  139.6697  151.7911 H   0  0  0  0  0  0  0  0  0  0  0  0
  145.3793  137.7567  154.2760 H   0  0  0  0  0  0  0  0  0  0  0  0
  1  2  1  0  0  0  0
  1 30  1  0  0  0  0
  1 31  1  0  0  0  0
  1 32  1  0  0  0  0
  2  3  1  0  0  0  0
  2  4  1  0  0  0  0
  2 33  1  0  0  0  0
  3 34  1  0  0  0  0
  3 35  1  0  0  0  0
  3 36  1  0  0  0  0
  4  5  2  0  0  0  0
  4  6  1  0  0  0  0
  6 37  1  0  0  0  0
  6  7  1  0  0  0  0
  7 25  1  0  0  0  0
  7  8  2  0  0  0  0
  8  9  1  0  0  0  0
  9 13  1  0  0  0  0
  9 10  2  0  0  0  0
 10 11  1  0  0  0  0
 10 23  1  0  0  0  0
 11 12  2  0  0  0  0
 12 13  1  0  0  0  0
 12 38  1  0  0  0  0
 13 14  1  0  0  0  0
 14 26  1  0  0  0  0
 14 21  1  0  0  0  0
 14 15  1  0  0  0  0
 15 16  1  0  0  0  0
 16 27  1  0  0  0  0
 16 17  1  0  0  0  0
 16 19  1  0  0  0  0
 17 18  1  0  0  0  0
 17 39  1  0  0  0  0
 17 40  1  0  0  0  0
 18 41  1  0  0  0  0
 19 28  1  0  0  0  0
 19 20  1  0  0  0  0
 19 21  1  0  0  0  0
 20 42  1  0  0  0  0
 21 29  1  0  0  0  0
 21 22  1  0  0  0  0
 22 43  1  0  0  0  0
 23 24  2  0  0  0  0
 23 25  1  0  0  0  0
M  CHG  1  25  -1
M  END
> <s_m_source_file>
AV-unprocessed.smi

> <i_m_source_file_index>
54

> <i_lp_mmshare_version>
43012

> <i_f3d_flags>
0

> <s_epik_input>
W0NIM11bQ0hdKFtDSDNdKUMoPU8pW05IXWMobjEpW25IXWMoPU8pYyhjMTIpbltjSF1uMltDQEBIXTNPW0NASF0oW0NIMl1bT0hdKVtDQEBIXShbT0hdKVtDQEhdM1tPSF0=

> <s_epik_cmdline>
J2VwaWtfcHl0aG9uJywgJy1waCcsICc3LjAnLCAnLXRuJywgJzgnLCAnLW1hJywgJzIwMCcsICctbWV0YWxfYmluZGluZycsICctaW1hZScsICc8aW5maWxlLm1hZT4nLCAnLW9tYWUnLCAnPG91dGZpbGUubWFlPic=

> <r_lp_tautomer_probability>
0.85571

> <r_epik_Ionization_Penalty>
1.75936

> <r_epik_Ionization_Penalty_Charging>
4.55893e-11

> <r_epik_Ionization_Penalty_Neutral>
1.75936

> <r_epik_State_Penalty>
1.72072

> <r_epik_Charging_Adjusted_Penalty>
1.72072

> <i_epik_Tot_Q>
-1

> <i_epik_Tot_abs_Q>
1

> <r_epik_Metal_State_Penalty>
0.400338

> <b_epik_Metal_Only>
1

> <s_epik_Chemistry_Notes>
This compound contains an acetal/aminal-like group ( X-CH(R)-Y where X, Y are N, S, or O) that may be acid/base labile, releasing an aldehyde.

> <s_lp_Force_Field>
OPLS_2005

> <r_lp_Energy>
54.6298

> <b_lp_Chiralities_Consistent>
1

> <s_lp_Variant>
AV-unprocessed.smi:54-26

> <Gold.Version>
5.8.1

> <Gold.Id.Protein>
6NUR|6NUR_protein|mol2

> <Gold.PLP.Fitness>
49.2307

> <Gold.PLP.PLP>
-34.8510

> <Gold.PLP.part.hbond>
-5.1416

> <Gold.PLP.part.metal>
0.0000

> <Gold.PLP.part.buried>
-1.0491

> <Gold.PLP.part.nonpolar>
-29.1629

> <Gold.PLP.part.repulsive>
0.3762

> <Gold.PLP.ligand.clash>
0.0000

> <Gold.PLP.ligand.torsion>
1.0044

> <Gold.PLP.Chemscore.Hbond>
4.9200

> <Gold.PLP.Chemscore.CHOScore>
0.5223

> <Gold.PLP.Chemscore.Metal>
0.0000

> <Gold.Chemscore.Hbonds>
donor molecule, donor type, donor heavy atom, donor atom, acceptor molecule, acceptor atom, score
      L1  H    18    41       P1  8028  0.93
      L1  H    20    42       P1  7957  0.93
      P1  H  7997  8010       L1    25  1.90
      P1  H 10752 10763       L1    11  0.99
      L1  C    12    38       P1  7948  0.56

> <Gold.PLP.Chemscore.Internal.Correction>
0.0618

> <Gold.Rescore>
     Score         DG    S(hbond)    S(metal)    S(lipo)     H(rot)  DE(clash)    DE(int)     intcor
      8.15     -12.57       2.93        0.00      64.89       4.02       1.74       2.68       ----

> <Gold.Chemscore.Fitness>
8.1518

> <Gold.Chemscore.DG>
-12.5720

> <Gold.Chemscore.ZeroCoef>
-5.4800

> <Gold.Chemscore.Hbond>
2.9308

> <Gold.Chemscore.Metal>
0.0000

> <Gold.Chemscore.Lipo>
64.8927

> <Gold.Chemscore.Internal_Hbond>
0.0000

> <Gold.Chemscore.DEClash>
1.7380

> <Gold.Chemscore.DEInternal>
2.6822

> <Gold.Chemscore.Rot>
4.0192

> <Gold.Chemscore.Internal.Correction>
   9.000000E+99

> <Gold.Chemscore.Hbonds>
donor molecule, donor type, donor heavy atom, donor atom, acceptor molecule, acceptor atom, score
      L1  H    18    41       P1  8028  0.35
      L1  H    20    42       P1  7957  0.84
      P1  H  7997  8010       L1    25  0.21
      P1  H 10752 10763       L1    11  0.65

> <Gold.Chemscore.Hbond.Weighted>
-9.7888

> <Gold.Chemscore.Metal.Weighted>
-0.0000

> <Gold.Chemscore.Lipo.Weighted>
-7.5924

> <Gold.Chemscore.Internal_Hbond.Weighted>
0.0000

> <Gold.Chemscore.DEClash.Weighted>
1.7380

> <Gold.Chemscore.DEInternal.Weighted>
2.6822

> <Gold.Chemscore.Rot.Weighted>
10.2893

> <Gold.Chemscore.Internal.Correction.Weighted>
   9.000000E+99

> <Gold.Protein.RotatedTorsions>
[ 6907 6896 6895 6894 ] final  -79.06 input  -60.11 | X-H torsion
[ 7974 7965 7964 7962 ] final  -64.00 input  175.53 | X-H torsion
[ 8008 7997 7996 7995 ] final   72.59 input   59.86 | X-H torsion
[ 10167 10162 10161 10158 ] final   61.54 input  -65.29 | X-H torsion
[ 10718 10713 10712 10709 ] final  -46.54 input   66.30 | X-H torsion
[ 10763 10752 10751 10750 ] final   49.32 input  -60.55 | X-H torsion
[ 11005 11000 10999 10996 ] final   41.07 input  -57.11 | X-H torsion

> <Gold.Protein.ActiveResidues>
 VAL166  LYS551  ARG553  GLY616  TRP617  ASP618  TYR619  PRO620  LYS621  CYS622 
 ASP623  PHE694  ASN695  SER759  ASP760  ASP761  ALA762  ILE779  LEU786  VAL792 
 PHE793  MET794  SER795  GLU796  ALA797  LYS798  CYS799  TRP800  GLU811  SER814 

> <Gold.Protein.RotatedAtoms>
  150.6958  134.4178  159.5190 H   0  0  0  0  0  0  0  0  0  0  0  0  # atno 6907 bound_to 6896
  152.1926  134.8656  160.0525 H   0  0  0  0  0  0  0  0  0  0  0  0  # atno 6908 bound_to 6896
  151.9606  133.3659  159.4071 H   0  0  0  0  0  0  0  0  0  0  0  0  # atno 6909 bound_to 6896
  145.7722  140.8807  143.0374 H   0  0  0  0  0  0  0  0  0  0  0  0  # atno 7974 bound_to 7965
  155.7712  140.3484  155.5248 H   0  0  0  0  0  0  0  0  0  0  0  0  # atno 8008 bound_to 7997
  155.8820  140.1003  157.1499 H   0  0  0  0  0  0  0  0  0  0  0  0  # atno 8009 bound_to 7997
  154.4025  140.1320  156.4196 H   0  0  0  0  0  0  0  0  0  0  0  0  # atno 8010 bound_to 7997
  140.1536  144.4438  150.6746 H   0  0  0  0  0  0  0  0  0  0  0  0  # atno 10167 bound_to 10162
  156.2173  130.4164  149.9038 H   0  0  0  0  0  0  0  0  0  0  0  0  # atno 10718 bound_to 10713
  152.9787  135.5915  154.4070 H   0  0  0  0  0  0  0  0  0  0  0  0  # atno 10763 bound_to 10752
  154.3709  135.2767  155.2268 H   0  0  0  0  0  0  0  0  0  0  0  0  # atno 10764 bound_to 10752
  154.4224  135.6056  153.6073 H   0  0  0  0  0  0  0  0  0  0  0  0  # atno 10765 bound_to 10752
  140.1869  134.4034  155.8168 H   0  0  0  0  0  0  0  0  0  0  0  0  # atno 11005 bound_to 11000
  144.6811  139.9871  143.7484 LP  0  0  0  0  0  0  0  0  0  0  0  0  # atno 17320 bound_to 7965
  146.0159  139.3209  143.0842 LP  0  0  0  0  0  0  0  0  0  0  0  0  # atno 17321 bound_to 7965
  140.6687  143.2277  151.5680 LP  0  0  0  0  0  0  0  0  0  0  0  0  # atno 17342 bound_to 10162
  139.5414  144.2638  152.1357 LP  0  0  0  0  0  0  0  0  0  0  0  0  # atno 17343 bound_to 10162
  156.6696  130.8815  151.3560 LP  0  0  0  0  0  0  0  0  0  0  0  0  # atno 17370 bound_to 10713
  157.7069  130.9396  150.0962 LP  0  0  0  0  0  0  0  0  0  0  0  0  # atno 17371 bound_to 10713
  141.2225  133.7027  156.8028 LP  0  0  0  0  0  0  0  0  0  0  0  0  # atno 17394 bound_to 11000
  140.2203  134.8762  157.3370 LP  0  0  0  0  0  0  0  0  0  0  0  0  # atno 17395 bound_to 11000

$$$$
