AV-unprocessed.smi:45|AV-procd|sdf|416|dock2
  -GOLD-   2262016283D 1   1.00000     0.00000
 Structure written by MMmdl.
 60 63  0  0  0  0  0  0  0  0  3 V2000
  153.3328  139.6864  159.2353 C   0  0  0  0  0  0  0  0  0  0  0  0
  153.2347  139.3756  157.8531 O   0  0  0  0  0  0  0  0  0  0  0  0
  152.4051  138.3407  157.4736 C   0  0  0  0  0  0  0  0  0  0  0  0
  151.6572  137.5543  158.3865 C   0  0  0  0  0  0  0  0  0  0  0  0
  150.8297  136.5133  157.9238 C   0  0  0  0  0  0  0  0  0  0  0  0
  150.7350  136.2395  156.5451 C   0  0  0  0  0  0  0  0  0  0  0  0
  149.8430  135.1193  156.0484 C   0  0  0  0  0  0  0  0  0  0  0  0
  148.6666  135.5985  155.3379 N   0  0  0  0  0  0  0  0  0  0  0  0
  147.4746  134.8546  155.2988 C   0  0  0  0  0  0  0  0  0  0  0  0
  146.8694  134.6932  154.0997 N   0  0  0  0  0  0  0  0  0  0  0  0
  145.7374  133.9832  153.9993 C   0  0  0  0  0  0  0  0  0  0  0  0
  145.1524  133.8381  152.7425 N   0  0  0  0  0  0  0  0  0  0  0  0
  144.0189  134.6577  152.3269 C   0  0  0  0  0  0  0  0  0  0  0  0
  144.1693  134.8539  150.8174 C   0  0  0  0  0  0  0  0  0  0  0  0
  144.8910  133.5869  150.3742 C   0  0  0  0  0  0  0  0  0  0  0  0
  145.8172  133.2854  151.5619 C   0  0  2  0  0  0  0  0  0  0  0  0
  146.2230  131.7997  151.6952 C   0  0  0  0  0  0  0  0  0  0  0  0
  146.5339  131.2271  150.4413 O   0  0  0  0  0  0  0  0  0  0  0  0
  145.1672  133.4024  155.0660 N   0  3  0  0  0  0  0  0  0  0  0  0
  145.7327  133.5324  156.2901 C   0  0  0  0  0  0  0  0  0  0  0  0
  146.9252  134.2684  156.4660 C   0  0  0  0  0  0  0  0  0  0  0  0
  147.5314  134.4320  157.8371 C   0  0  0  0  0  0  0  0  0  0  0  0
  148.0904  133.4591  158.3561 O   0  0  0  0  0  0  0  0  0  0  0  0
  147.3367  135.6872  158.3255 N   0  5  0  0  0  0  0  0  0  0  0  0
  148.1891  136.3099  159.3373 C   0  0  0  0  0  0  0  0  0  0  0  0
  147.8170  135.8536  160.7409 C   0  0  0  0  0  0  0  0  0  0  0  0
  147.5636  136.8116  161.6414 N   0  0  0  0  0  0  0  0  0  0  0  0
  147.2112  136.4094  162.8818 C   0  0  0  0  0  0  0  0  0  0  0  0
  147.1136  135.0448  163.2198 C   0  0  0  0  0  0  0  0  0  0  0  0
  147.4049  134.1260  162.1919 C   0  0  0  0  0  0  0  0  0  0  0  0
  147.7569  134.5330  160.9530 N   0  0  0  0  0  0  0  0  0  0  0  0
  151.4743  137.0162  155.6320 C   0  0  0  0  0  0  0  0  0  0  0  0
  152.3033  138.0579  156.0929 C   0  0  0  0  0  0  0  0  0  0  0  0
  153.1978  138.9902  154.9462 Cl  0  0  0  0  0  0  0  0  0  0  0  0
  146.7274  133.8711  151.4257 H   0  0  0  0  0  0  0  0  0  0  0  0
  154.0172  140.5242  159.3678 H   0  0  0  0  0  0  0  0  0  0  0  0
  153.7279  138.8451  159.8062 H   0  0  0  0  0  0  0  0  0  0  0  0
  152.3670  139.9818  159.6470 H   0  0  0  0  0  0  0  0  0  0  0  0
  151.7008  137.7294  159.4506 H   0  0  0  0  0  0  0  0  0  0  0  0
  150.2667  135.9235  158.6325 H   0  0  0  0  0  0  0  0  0  0  0  0
  150.4293  134.4811  155.3861 H   0  0  0  0  0  0  0  0  0  0  0  0
  149.5262  134.5031  156.8911 H   0  0  0  0  0  0  0  0  0  0  0  0
  148.7090  136.4922  154.8680 H   0  0  0  0  0  0  0  0  0  0  0  0
  143.0982  134.1202  152.5558 H   0  0  0  0  0  0  0  0  0  0  0  0
  143.9877  135.6179  152.8432 H   0  0  0  0  0  0  0  0  0  0  0  0
  143.2154  135.0041  150.3111 H   0  0  0  0  0  0  0  0  0  0  0  0
  144.7982  135.7228  150.6182 H   0  0  0  0  0  0  0  0  0  0  0  0
  144.1576  132.7926  150.2304 H   0  0  0  0  0  0  0  0  0  0  0  0
  145.4340  133.7125  149.4371 H   0  0  0  0  0  0  0  0  0  0  0  0
  147.1060  131.7198  152.3297 H   0  0  0  0  0  0  0  0  0  0  0  0
  145.4471  131.2035  152.1730 H   0  0  0  0  0  0  0  0  0  0  0  0
  147.4649  131.3056  150.2970 H   0  0  0  0  0  0  0  0  0  0  0  0
  145.2056  133.0419  157.0958 H   0  0  0  0  0  0  0  0  0  0  0  0
  149.2438  136.0847  159.1695 H   0  0  0  0  0  0  0  0  0  0  0  0
  148.1209  137.3984  159.3024 H   0  0  0  0  0  0  0  0  0  0  0  0
  147.0057  137.1810  163.6087 H   0  0  0  0  0  0  0  0  0  0  0  0
  146.8319  134.7215  164.2107 H   0  0  0  0  0  0  0  0  0  0  0  0
  147.3556  133.0611  162.3639 H   0  0  0  0  0  0  0  0  0  0  0  0
  151.4099  136.8138  154.5728 H   0  0  0  0  0  0  0  0  0  0  0  0
  144.3082  132.8617  154.9693 H   0  0  0  0  0  0  0  0  0  0  0  0
  1  2  1  0  0  0  0
  1 36  1  0  0  0  0
  1 37  1  0  0  0  0
  1 38  1  0  0  0  0
  2  3  1  0  0  0  0
  3 33  1  0  0  0  0
  3  4  2  0  0  0  0
  4  5  1  0  0  0  0
  4 39  1  0  0  0  0
  5  6  2  0  0  0  0
  5 40  1  0  0  0  0
  6  7  1  0  0  0  0
  6 32  1  0  0  0  0
  7  8  1  0  0  0  0
  7 41  1  0  0  0  0
  7 42  1  0  0  0  0
  8  9  1  0  0  0  0
  8 43  1  0  0  0  0
  9 21  1  0  0  0  0
  9 10  2  0  0  0  0
 10 11  1  0  0  0  0
 11 12  1  0  0  0  0
 11 19  2  0  0  0  0
 12 16  1  0  0  0  0
 12 13  1  0  0  0  0
 13 14  1  0  0  0  0
 13 44  1  0  0  0  0
 13 45  1  0  0  0  0
 14 15  1  0  0  0  0
 14 46  1  0  0  0  0
 14 47  1  0  0  0  0
 15 16  1  0  0  0  0
 15 48  1  0  0  0  0
 15 49  1  0  0  0  0
 16 35  1  0  0  0  0
 16 17  1  0  0  0  0
 17 18  1  0  0  0  0
 17 50  1  0  0  0  0
 17 51  1  0  0  0  0
 18 52  1  0  0  0  0
 19 20  1  0  0  0  0
 19 60  1  0  0  0  0
 20 21  2  0  0  0  0
 20 53  1  0  0  0  0
 21 22  1  0  0  0  0
 22 23  2  0  0  0  0
 22 24  1  0  0  0  0
 24 25  1  0  0  0  0
 25 26  1  0  0  0  0
 25 54  1  0  0  0  0
 25 55  1  0  0  0  0
 26 31  1  0  0  0  0
 26 27  2  0  0  0  0
 27 28  1  0  0  0  0
 28 29  2  0  0  0  0
 28 56  1  0  0  0  0
 29 30  1  0  0  0  0
 29 57  1  0  0  0  0
 30 31  2  0  0  0  0
 30 58  1  0  0  0  0
 32 33  2  0  0  0  0
 32 59  1  0  0  0  0
 33 34  1  0  0  0  0
M  CHG  1  19   1
M  CHG  1  24  -1
M  END
> <s_m_source_file>
AV-unprocessed.smi

> <i_m_source_file_index>
45

> <i_lp_mmshare_version>
43012

> <i_f3d_flags>
0

> <s_epik_input>
W0NIM11PYzFbY0hdW2NIXWMoW2NIXWMxQ2wpW0NIMl1bTkhdYzJuYyhOM1tDSDJdW0NIMl1bQ0gyXVtDQEhdM1tDSDJdW09IXSluW2NIXWMyQyg9TylbTkhdW0NIMl1jNG5bY0hdW2NIXVtjSF1uNA==

> <s_epik_cmdline>
J2VwaWtfcHl0aG9uJywgJy1waCcsICc3LjAnLCAnLXRuJywgJzgnLCAnLW1hJywgJzIwMCcsICctbWV0YWxfYmluZGluZycsICctaW1hZScsICc8aW5maWxlLm1hZT4nLCAnLW9tYWUnLCAnPG91dGZpbGUubWFlPic=

> <r_lp_tautomer_probability>
0.575011

> <r_epik_Ionization_Penalty>
6.73124

> <r_epik_Ionization_Penalty_Charging>
6.73106

> <r_epik_Ionization_Penalty_Neutral>
0.000179426

> <r_epik_State_Penalty>
8.26145

> <r_epik_Charging_Adjusted_Penalty>
14.9925

> <i_epik_Tot_Q>
0

> <i_epik_Tot_abs_Q>
2

> <r_epik_Metal_State_Penalty>
4.22532

> <b_epik_Metal_Only>
1

> <s_epik_Chemistry_Notes>
This compound contains an electron-poor aromatic ring that is susceptible to covalent hydrolysis at low pH, typically resulting in measured values for nitrogen ring protonation that are around two units higher than predicted values.

> <s_lp_Force_Field>
OPLS_2005

> <r_lp_Energy>
47.4245

> <b_lp_Chiralities_Consistent>
1

> <s_lp_Variant>
AV-unprocessed.smi:45-10

> <Gold.Version>
5.8.1

> <Gold.Id.Protein>
6NUR|6NUR_protein|mol2

> <Gold.PLP.Fitness>
56.7087

> <Gold.PLP.PLP>
-45.4578

> <Gold.PLP.part.hbond>
-4.9183

> <Gold.PLP.part.metal>
0.0000

> <Gold.PLP.part.buried>
-5.5884

> <Gold.PLP.part.nonpolar>
-35.8252

> <Gold.PLP.part.repulsive>
0.0864

> <Gold.PLP.ligand.clash>
0.0000

> <Gold.PLP.ligand.torsion>
3.7648

> <Gold.PLP.Chemscore.Hbond>
5.8224

> <Gold.PLP.Chemscore.CHOScore>
0.0000

> <Gold.PLP.Chemscore.Metal>
0.0000

> <Gold.Chemscore.Hbonds>
donor molecule, donor type, donor heavy atom, donor atom, acceptor molecule, acceptor atom, score
      L1  H    18    52       P1 10747  1.00
      L1  H    19    60       P1 10957  2.00
      P1  H  6931  6943       L1    27  0.89
      P1  H  6934  6947       L1    27  0.18
      P1  H  7997  8010       L1     2  1.00

> <Gold.PLP.Chemscore.Internal.Correction>
1.3133

> <Gold.Rescore>
     Score         DG    S(hbond)    S(metal)    S(lipo)     H(rot)  DE(clash)    DE(int)     intcor
     17.07     -23.29       3.73        0.00     109.32       2.90       0.40       5.82       ----

> <Gold.Chemscore.Fitness>
17.0733

> <Gold.Chemscore.DG>
-23.2944

> <Gold.Chemscore.ZeroCoef>
-5.4800

> <Gold.Chemscore.Hbond>
3.7261

> <Gold.Chemscore.Metal>
0.0000

> <Gold.Chemscore.Lipo>
109.3167

> <Gold.Chemscore.Internal_Hbond>
0.0000

> <Gold.Chemscore.DEClash>
0.3982

> <Gold.Chemscore.DEInternal>
5.8229

> <Gold.Chemscore.Rot>
2.8988

> <Gold.Chemscore.Internal.Correction>
   9.000000E+99

> <Gold.Chemscore.Hbonds>
donor molecule, donor type, donor heavy atom, donor atom, acceptor molecule, acceptor atom, score
      L1  H    18    52       P1 10747  0.96
      L1  H    19    60       P1 10957  0.98
      P1  H  6931  6943       L1    27  0.45
      P1  H  6934  6947       L1    27  0.17
      P1  H  7997  8010       L1     2  0.70

> <Gold.Chemscore.Hbond.Weighted>
-12.4452

> <Gold.Chemscore.Metal.Weighted>
-0.0000

> <Gold.Chemscore.Lipo.Weighted>
-12.7901

> <Gold.Chemscore.Internal_Hbond.Weighted>
0.0000

> <Gold.Chemscore.DEClash.Weighted>
0.3982

> <Gold.Chemscore.DEInternal.Weighted>
5.8229

> <Gold.Chemscore.Rot.Weighted>
7.4209

> <Gold.Chemscore.Internal.Correction.Weighted>
   9.000000E+99

> <Gold.Protein.RotatedTorsions>
[ 6907 6896 6895 6894 ] final   15.05 input  -60.11 | X-H torsion
[ 7974 7965 7964 7962 ] final   97.71 input  175.53 | X-H torsion
[ 8008 7997 7996 7995 ] final   33.25 input   59.86 | X-H torsion
[ 10167 10162 10161 10158 ] final   37.94 input  -65.29 | X-H torsion
[ 10718 10713 10712 10709 ] final  -99.23 input   66.30 | X-H torsion
[ 10763 10752 10751 10750 ] final  102.52 input  -60.55 | X-H torsion
[ 11005 11000 10999 10996 ] final -104.53 input  -57.11 | X-H torsion

> <Gold.Protein.ActiveResidues>
 VAL166  LYS551  ARG553  GLY616  TRP617  ASP618  TYR619  PRO620  LYS621  CYS622 
 ASP623  PHE694  ASN695  SER759  ASP760  ASP761  ALA762  ILE779  LEU786  VAL792 
 PHE793  MET794  SER795  GLU796  ALA797  LYS798  CYS799  TRP800  GLU811  SER814 

> <Gold.Protein.RotatedAtoms>
  151.8119  135.0678  160.0413 H   0  0  0  0  0  0  0  0  0  0  0  0  # atno 6907 bound_to 6896
  152.3014  133.5655  159.5629 H   0  0  0  0  0  0  0  0  0  0  0  0  # atno 6908 bound_to 6896
  150.7275  134.0202  159.3741 H   0  0  0  0  0  0  0  0  0  0  0  0  # atno 6909 bound_to 6896
  145.4218  139.2320  143.3192 H   0  0  0  0  0  0  0  0  0  0  0  0  # atno 7974 bound_to 7965
  155.1355  140.3261  155.4464 H   0  0  0  0  0  0  0  0  0  0  0  0  # atno 8008 bound_to 7997
  156.2621  140.2003  156.6422 H   0  0  0  0  0  0  0  0  0  0  0  0  # atno 8009 bound_to 7997
  154.6581  140.0550  157.0018 H   0  0  0  0  0  0  0  0  0  0  0  0  # atno 8010 bound_to 7997
  140.3985  144.1756  150.6133 H   0  0  0  0  0  0  0  0  0  0  0  0  # atno 10167 bound_to 10162
  156.0128  130.5273  150.6639 H   0  0  0  0  0  0  0  0  0  0  0  0  # atno 10718 bound_to 10713
  153.3407  135.4007  155.1569 H   0  0  0  0  0  0  0  0  0  0  0  0  # atno 10763 bound_to 10752
  154.8643  135.3633  154.5350 H   0  0  0  0  0  0  0  0  0  0  0  0  # atno 10764 bound_to 10752
  153.5794  135.7077  153.5529 H   0  0  0  0  0  0  0  0  0  0  0  0  # atno 10765 bound_to 10752
  141.1096  133.8731  157.1622 H   0  0  0  0  0  0  0  0  0  0  0  0  # atno 11005 bound_to 11000
  146.2652  140.4944  142.8837 LP  0  0  0  0  0  0  0  0  0  0  0  0  # atno 17320 bound_to 7965
  144.8240  140.6597  143.6334 LP  0  0  0  0  0  0  0  0  0  0  0  0  # atno 17321 bound_to 7965
  140.4765  143.2394  151.9015 LP  0  0  0  0  0  0  0  0  0  0  0  0  # atno 17342 bound_to 10162
  139.4785  144.5314  151.8660 LP  0  0  0  0  0  0  0  0  0  0  0  0  # atno 17343 bound_to 10162
  157.4375  131.0857  151.0977 LP  0  0  0  0  0  0  0  0  0  0  0  0  # atno 17370 bound_to 10713
  157.1531  130.6192  149.5588 LP  0  0  0  0  0  0  0  0  0  0  0  0  # atno 17371 bound_to 10713
  139.9983  135.0038  157.0133 LP  0  0  0  0  0  0  0  0  0  0  0  0  # atno 17394 bound_to 11000
  140.4810  134.1289  155.7217 LP  0  0  0  0  0  0  0  0  0  0  0  0  # atno 17395 bound_to 11000

$$$$
