AV-unprocessed.smi:2178|AV-procd|sdf|8855|dock2
  -GOLD-   2272012 53D 1   1.00000     0.00000
 Structure written by MMmdl.
 47 49  0  0  0  0  0  0  0  0  2 V2000
  151.1623  143.5480  158.5412 C   0  0  0  0  0  0  0  0  0  0  0  0
  152.0294  143.0867  159.6978 C   0  0  0  0  0  0  0  0  0  0  0  0
  152.0268  143.8202  160.9020 C   0  0  0  0  0  0  0  0  0  0  0  0
  152.8342  143.4150  161.9809 C   0  0  0  0  0  0  0  0  0  0  0  0
  153.6530  142.2773  161.8588 C   0  0  0  0  0  0  0  0  0  0  0  0
  153.6639  141.5359  160.6592 C   0  0  0  0  0  0  0  0  0  0  0  0
  154.5612  140.3179  160.5387 C   0  0  0  0  0  0  0  0  0  0  0  0
  152.8393  141.9323  159.5800 C   0  0  0  0  0  0  0  0  0  0  0  0
  152.8497  141.2128  158.4135 O   0  0  0  0  0  0  0  0  0  0  0  0
  151.6506  140.4874  158.1787 C   0  0  0  0  0  0  0  0  0  0  0  0
  151.9378  139.2794  157.2740 C   0  0  1  0  0  0  0  0  0  0  0  0
  153.0652  138.5846  157.7683 O   0  0  0  0  0  0  0  0  0  0  0  0
  150.7226  138.3475  157.0897 C   0  0  0  0  0  0  0  0  0  0  0  0
  150.9241  137.3503  156.0258 N   0  0  0  0  0  0  0  0  0  0  0  0
  151.3348  137.5115  154.7345 C   0  0  0  0  0  0  0  0  0  0  0  0
  151.7025  138.7921  154.0604 C   0  0  0  0  0  0  0  0  0  0  0  0
  150.5917  139.6430  153.8847 O   0  0  0  0  0  0  0  0  0  0  0  0
  151.3629  136.2749  154.1625 N   0  3  0  0  0  0  0  0  0  0  0  0
  150.9657  135.3139  155.0927 C   0  0  0  0  0  0  0  0  0  0  0  0
  150.8382  133.9331  154.9776 C   0  0  0  0  0  0  0  0  0  0  0  0
  150.4099  133.2388  156.1280 C   0  0  0  0  0  0  0  0  0  0  0  0
  150.1291  133.9166  157.3320 C   0  0  0  0  0  0  0  0  0  0  0  0
  150.2628  135.3167  157.4369 C   0  0  0  0  0  0  0  0  0  0  0  0
  150.6832  135.9968  156.2936 C   0  0  0  0  0  0  0  0  0  0  0  0
  150.9154  144.6061  158.6346 H   0  0  0  0  0  0  0  0  0  0  0  0
  150.2310  142.9821  158.5182 H   0  0  0  0  0  0  0  0  0  0  0  0
  151.6747  143.4087  157.5889 H   0  0  0  0  0  0  0  0  0  0  0  0
  151.4063  144.6989  161.0015 H   0  0  0  0  0  0  0  0  0  0  0  0
  152.8294  143.9810  162.9008 H   0  0  0  0  0  0  0  0  0  0  0  0
  154.2743  141.9770  162.6897 H   0  0  0  0  0  0  0  0  0  0  0  0
  155.0367  140.2828  159.5580 H   0  0  0  0  0  0  0  0  0  0  0  0
  153.9805  139.4052  160.6727 H   0  0  0  0  0  0  0  0  0  0  0  0
  155.3499  140.3338  161.2914 H   0  0  0  0  0  0  0  0  0  0  0  0
  151.2552  140.1306  159.1308 H   0  0  0  0  0  0  0  0  0  0  0  0
  150.8830  141.1260  157.7392 H   0  0  0  0  0  0  0  0  0  0  0  0
  152.2304  139.6637  156.2965 H   0  0  0  0  0  0  0  0  0  0  0  0
  153.3476  137.9680  157.1104 H   0  0  0  0  0  0  0  0  0  0  0  0
  150.4690  137.8322  158.0160 H   0  0  0  0  0  0  0  0  0  0  0  0
  149.8427  138.9355  156.8280 H   0  0  0  0  0  0  0  0  0  0  0  0
  152.4560  139.3106  154.6541 H   0  0  0  0  0  0  0  0  0  0  0  0
  152.1514  138.5822  153.0897 H   0  0  0  0  0  0  0  0  0  0  0  0
  150.1818  139.4370  153.0582 H   0  0  0  0  0  0  0  0  0  0  0  0
  151.0551  133.4111  154.0571 H   0  0  0  0  0  0  0  0  0  0  0  0
  150.2959  132.1653  156.0866 H   0  0  0  0  0  0  0  0  0  0  0  0
  149.8057  133.3516  158.1943 H   0  0  0  0  0  0  0  0  0  0  0  0
  150.0507  135.8228  158.3673 H   0  0  0  0  0  0  0  0  0  0  0  0
  151.6392  136.1039  153.2041 H   0  0  0  0  0  0  0  0  0  0  0  0
  1  2  1  0  0  0  0
  1 25  1  0  0  0  0
  1 26  1  0  0  0  0
  1 27  1  0  0  0  0
  2  8  1  0  0  0  0
  2  3  2  0  0  0  0
  3  4  1  0  0  0  0
  3 28  1  0  0  0  0
  4  5  2  0  0  0  0
  4 29  1  0  0  0  0
  5  6  1  0  0  0  0
  5 30  1  0  0  0  0
  6  7  1  0  0  0  0
  6  8  2  0  0  0  0
  7 31  1  0  0  0  0
  7 32  1  0  0  0  0
  7 33  1  0  0  0  0
  8  9  1  0  0  0  0
  9 10  1  0  0  0  0
 10 11  1  0  0  0  0
 10 34  1  0  0  0  0
 10 35  1  0  0  0  0
 11 12  1  0  0  0  0
 11 13  1  0  0  0  0
 11 36  1  0  0  0  0
 12 37  1  0  0  0  0
 13 14  1  0  0  0  0
 13 38  1  0  0  0  0
 13 39  1  0  0  0  0
 14 24  1  0  0  0  0
 14 15  1  0  0  0  0
 15 16  1  0  0  0  0
 15 18  2  0  0  0  0
 16 17  1  0  0  0  0
 16 40  1  0  0  0  0
 16 41  1  0  0  0  0
 17 42  1  0  0  0  0
 18 19  1  0  0  0  0
 18 47  1  0  0  0  0
 19 24  2  0  0  0  0
 19 20  1  0  0  0  0
 20 21  2  0  0  0  0
 20 43  1  0  0  0  0
 21 22  1  0  0  0  0
 21 44  1  0  0  0  0
 22 23  2  0  0  0  0
 22 45  1  0  0  0  0
 23 24  1  0  0  0  0
 23 46  1  0  0  0  0
M  CHG  1  18   1
M  END
> <s_m_source_file>
AV-unprocessed.smi

> <i_m_source_file_index>
2178

> <i_lp_mmshare_version>
43012

> <i_f3d_flags>
0

> <s_epik_input>
W0NIM11jMVtjSF1bY0hdW2NIXWMoW0NIM10pYzFPW0NIMl1bQ0BIXShbT0hdKVtDSDJdbihjKG4yKVtDSDJdW09IXSljKGMyMylbY0hdW2NIXVtjSF1bY0hdMw==

> <s_epik_cmdline>
J2VwaWtfcHl0aG9uJywgJy1waCcsICc3LjAnLCAnLXRuJywgJzgnLCAnLW1hJywgJzIwMCcsICctbWV0YWxfYmluZGluZycsICctaW1hZScsICc8aW5maWxlLm1hZT4nLCAnLW9tYWUnLCAnPG91dGZpbGUubWFlPic=

> <r_lp_tautomer_probability>
1

> <r_epik_Ionization_Penalty>
1.43125

> <r_epik_Ionization_Penalty_Charging>
1.43039

> <r_epik_Ionization_Penalty_Neutral>
0.000858184

> <r_epik_State_Penalty>
1.51493

> <r_epik_Charging_Adjusted_Penalty>
2.94531

> <i_epik_Tot_Q>
1

> <i_epik_Tot_abs_Q>
1

> <r_epik_Metal_State_Penalty>
5.5599

> <b_epik_Metal_Only>
0

> <s_lp_Force_Field>
OPLS_2005

> <r_lp_Energy>
23.7174

> <b_lp_Chiralities_Consistent>
1

> <s_lp_Variant>
AV-unprocessed.smi:2178-4

> <Gold.Version>
5.8.1

> <Gold.Id.Protein>
6NUR|6NUR_protein|mol2

> <Gold.PLP.Fitness>
55.6301

> <Gold.PLP.PLP>
-44.6072

> <Gold.PLP.part.hbond>
-3.8843

> <Gold.PLP.part.metal>
0.0000

> <Gold.PLP.part.buried>
-3.8959

> <Gold.PLP.part.nonpolar>
-35.3453

> <Gold.PLP.part.repulsive>
0.0945

> <Gold.PLP.ligand.clash>
0.0000

> <Gold.PLP.ligand.torsion>
0.4688

> <Gold.PLP.Chemscore.Hbond>
3.9088

> <Gold.PLP.Chemscore.CHOScore>
0.0000

> <Gold.PLP.Chemscore.Metal>
0.0000

> <Gold.Chemscore.Hbonds>
donor molecule, donor type, donor heavy atom, donor atom, acceptor molecule, acceptor atom, score
      L1  H    17    42       P1  7957  0.90
      L1  H    18    47       P1  7949  1.95
      P1  H  7989  7998       L1    17  0.45
      P1  H  7997  8009       L1    12  0.04

> <Gold.PLP.Chemscore.Internal.Correction>
0.2343

> <Gold.Rescore>
     Score         DG    S(hbond)    S(metal)    S(lipo)     H(rot)  DE(clash)    DE(int)     intcor
     16.74     -17.74       1.38        0.00     132.17       3.05       0.60       0.40       ----

> <Gold.Chemscore.Fitness>
16.7406

> <Gold.Chemscore.DG>
-17.7403

> <Gold.Chemscore.ZeroCoef>
-5.4800

> <Gold.Chemscore.Hbond>
1.3768

> <Gold.Chemscore.Metal>
0.0000

> <Gold.Chemscore.Lipo>
132.1683

> <Gold.Chemscore.Internal_Hbond>
0.0000

> <Gold.Chemscore.DEClash>
0.6010

> <Gold.Chemscore.DEInternal>
0.3986

> <Gold.Chemscore.Rot>
3.0476

> <Gold.Chemscore.Internal.Correction>
   9.000000E+99

> <Gold.Chemscore.Hbonds>
donor molecule, donor type, donor heavy atom, donor atom, acceptor molecule, acceptor atom, score
      L1  H    17    42       P1  7957  0.79
      L1  H    18    47       P1  7949  0.89
      P1  H  7989  7998       L1    17  0.01

> <Gold.Chemscore.Hbond.Weighted>
-4.5984

> <Gold.Chemscore.Metal.Weighted>
-0.0000

> <Gold.Chemscore.Lipo.Weighted>
-15.4637

> <Gold.Chemscore.Internal_Hbond.Weighted>
0.0000

> <Gold.Chemscore.DEClash.Weighted>
0.6010

> <Gold.Chemscore.DEInternal.Weighted>
0.3986

> <Gold.Chemscore.Rot.Weighted>
7.8018

> <Gold.Chemscore.Internal.Correction.Weighted>
   9.000000E+99

> <Gold.Protein.RotatedTorsions>
[ 6907 6896 6895 6894 ] final  127.63 input  -60.11 | X-H torsion
[ 7974 7965 7964 7962 ] final   57.08 input  175.53 | X-H torsion
[ 8008 7997 7996 7995 ] final  179.55 input   59.86 | X-H torsion
[ 10167 10162 10161 10158 ] final   37.88 input  -65.29 | X-H torsion
[ 10718 10713 10712 10709 ] final -137.20 input   66.30 | X-H torsion
[ 10763 10752 10751 10750 ] final   84.61 input  -60.55 | X-H torsion
[ 11005 11000 10999 10996 ] final   82.90 input  -57.11 | X-H torsion

> <Gold.Protein.ActiveResidues>
 VAL166  LYS551  ARG553  GLY616  TRP617  ASP618  TYR619  PRO620  LYS621  CYS622 
 ASP623  PHE694  ASN695  SER759  ASP760  ASP761  ALA762  ILE779  LEU786  VAL792 
 PHE793  MET794  SER795  GLU796  ALA797  LYS798  CYS799  TRP800  GLU811  SER814 

> <Gold.Protein.RotatedAtoms>
  152.3795  133.6526  159.6149 H   0  0  0  0  0  0  0  0  0  0  0  0  # atno 6907 bound_to 6896
  150.7730  133.9138  159.3386 H   0  0  0  0  0  0  0  0  0  0  0  0  # atno 6908 bound_to 6896
  151.6946  135.0942  160.0291 H   0  0  0  0  0  0  0  0  0  0  0  0  # atno 6909 bound_to 6896
  145.9329  139.3823  143.0410 H   0  0  0  0  0  0  0  0  0  0  0  0  # atno 7974 bound_to 7965
  156.0421  140.1306  157.0144 H   0  0  0  0  0  0  0  0  0  0  0  0  # atno 8008 bound_to 7997
  154.4396  140.1028  156.6323 H   0  0  0  0  0  0  0  0  0  0  0  0  # atno 8009 bound_to 7997
  155.5650  140.3465  155.4503 H   0  0  0  0  0  0  0  0  0  0  0  0  # atno 8010 bound_to 7997
  140.3990  144.1749  150.6133 H   0  0  0  0  0  0  0  0  0  0  0  0  # atno 10167 bound_to 10162
  156.2855  130.7345  151.1355 H   0  0  0  0  0  0  0  0  0  0  0  0  # atno 10718 bound_to 10713
  153.1398  135.4648  154.9477 H   0  0  0  0  0  0  0  0  0  0  0  0  # atno 10763 bound_to 10752
  154.7737  135.3166  154.8139 H   0  0  0  0  0  0  0  0  0  0  0  0  # atno 10764 bound_to 10752
  153.8664  135.6907  153.4832 H   0  0  0  0  0  0  0  0  0  0  0  0  # atno 10765 bound_to 10752
  139.9048  134.8105  156.2236 H   0  0  0  0  0  0  0  0  0  0  0  0  # atno 11005 bound_to 11000
  145.8402  140.9584  143.0803 LP  0  0  0  0  0  0  0  0  0  0  0  0  # atno 17320 bound_to 7965
  144.6767  140.0275  143.7483 LP  0  0  0  0  0  0  0  0  0  0  0  0  # atno 17321 bound_to 7965
  140.4760  143.2396  151.9023 LP  0  0  0  0  0  0  0  0  0  0  0  0  # atno 17342 bound_to 10162
  139.4785  144.5320  151.8653 LP  0  0  0  0  0  0  0  0  0  0  0  0  # atno 17343 bound_to 10162
  157.7327  131.0597  150.5613 LP  0  0  0  0  0  0  0  0  0  0  0  0  # atno 17370 bound_to 10713
  156.5724  130.4283  149.6013 LP  0  0  0  0  0  0  0  0  0  0  0  0  # atno 17371 bound_to 10713
  141.0390  133.6948  156.1563 LP  0  0  0  0  0  0  0  0  0  0  0  0  # atno 17394 bound_to 11000
  140.6984  134.4590  157.5587 LP  0  0  0  0  0  0  0  0  0  0  0  0  # atno 17395 bound_to 11000

$$$$
