AV-unprocessed.smi:1766|AV-procd|sdf|7136|dock10
  -GOLD-   22720 8373D 1   1.00000     0.00000
 Structure written by MMmdl.
 39 41  0  0  0  0  0  0  0  0  1 V2000
  151.7475  138.2122  154.4924 N   0  0  0  0  0  0  0  0  0  0  0  0
  152.6719  139.0486  154.9720 C   0  0  0  0  0  0  0  0  0  0  0  0
  153.8444  139.0067  154.6059 O   0  0  0  0  0  0  0  0  0  0  0  0
  152.2122  140.0819  156.0071 C   0  0  0  0  0  0  0  0  0  0  0  0
  150.8288  140.5559  155.6445 C   0  0  0  0  0  0  0  0  0  0  0  0
  150.3315  140.3873  154.4164 N   0  0  0  0  0  0  0  0  0  0  0  0
  149.0715  140.9419  154.5134 C   0  0  0  0  0  0  0  0  0  0  0  0
  148.0432  141.0571  153.5510 C   0  0  0  0  0  0  0  0  0  0  0  0
  146.8180  141.6699  153.8854 C   0  0  0  0  0  0  0  0  0  0  0  0
  146.6050  142.1764  155.1837 C   0  0  0  0  0  0  0  0  0  0  0  0
  147.6183  142.0746  156.1558 C   0  0  0  0  0  0  0  0  0  0  0  0
  148.8394  141.4595  155.8180 C   0  0  0  0  0  0  0  0  0  0  0  0
  150.0116  141.1966  156.5228 N   0  0  0  0  0  0  0  0  0  0  0  0
  150.2622  141.5508  157.9151 C   0  0  0  0  0  0  0  0  0  0  0  0
  151.2014  142.7646  158.0609 C   0  0  1  0  0  0  0  0  0  0  0  0
  150.4820  143.9260  157.7007 O   0  0  0  0  0  0  0  0  0  0  0  0
  151.8006  142.8659  159.4573 C   0  0  0  0  0  0  0  0  0  0  0  0
  152.5866  141.8082  159.9636 C   0  0  0  0  0  0  0  0  0  0  0  0
  153.1175  141.8780  161.2659 C   0  0  0  0  0  0  0  0  0  0  0  0
  152.8668  143.0064  162.0697 C   0  0  0  0  0  0  0  0  0  0  0  0
  153.3758  143.0725  163.3226 F   0  0  0  0  0  0  0  0  0  0  0  0
  152.0848  144.0653  161.5704 C   0  0  0  0  0  0  0  0  0  0  0  0
  151.5521  143.9953  160.2686 C   0  0  0  0  0  0  0  0  0  0  0  0
  152.0099  137.5106  153.8151 H   0  0  0  0  0  0  0  0  0  0  0  0
  150.7923  138.2770  154.8132 H   0  0  0  0  0  0  0  0  0  0  0  0
  152.2428  139.6328  156.9979 H   0  0  0  0  0  0  0  0  0  0  0  0
  152.8895  140.9369  156.0246 H   0  0  0  0  0  0  0  0  0  0  0  0
  148.1966  140.6707  152.5543 H   0  0  0  0  0  0  0  0  0  0  0  0
  146.0379  141.7511  153.1428 H   0  0  0  0  0  0  0  0  0  0  0  0
  145.6630  142.6423  155.4332 H   0  0  0  0  0  0  0  0  0  0  0  0
  147.4546  142.4595  157.1512 H   0  0  0  0  0  0  0  0  0  0  0  0
  149.3075  141.7362  158.4071 H   0  0  0  0  0  0  0  0  0  0  0  0
  150.6875  140.6852  158.4241 H   0  0  0  0  0  0  0  0  0  0  0  0
  152.0134  142.6793  157.3405 H   0  0  0  0  0  0  0  0  0  0  0  0
  149.8337  143.6868  157.0559 H   0  0  0  0  0  0  0  0  0  0  0  0
  152.7757  140.9335  159.3588 H   0  0  0  0  0  0  0  0  0  0  0  0
  153.7144  141.0636  161.6491 H   0  0  0  0  0  0  0  0  0  0  0  0
  151.8898  144.9299  162.1876 H   0  0  0  0  0  0  0  0  0  0  0  0
  150.9438  144.8077  159.8985 H   0  0  0  0  0  0  0  0  0  0  0  0
  1  2  1  0  0  0  0
  1 24  1  0  0  0  0
  1 25  1  0  0  0  0
  2  3  2  0  0  0  0
  2  4  1  0  0  0  0
  4  5  1  0  0  0  0
  4 26  1  0  0  0  0
  4 27  1  0  0  0  0
  5 13  1  0  0  0  0
  5  6  2  0  0  0  0
  6  7  1  0  0  0  0
  7 12  2  0  0  0  0
  7  8  1  0  0  0  0
  8  9  2  0  0  0  0
  8 28  1  0  0  0  0
  9 10  1  0  0  0  0
  9 29  1  0  0  0  0
 10 11  2  0  0  0  0
 10 30  1  0  0  0  0
 11 12  1  0  0  0  0
 11 31  1  0  0  0  0
 12 13  1  0  0  0  0
 13 14  1  0  0  0  0
 14 15  1  0  0  0  0
 14 32  1  0  0  0  0
 14 33  1  0  0  0  0
 15 16  1  0  0  0  0
 15 17  1  0  0  0  0
 15 34  1  0  0  0  0
 16 35  1  0  0  0  0
 17 23  1  0  0  0  0
 17 18  2  0  0  0  0
 18 19  1  0  0  0  0
 18 36  1  0  0  0  0
 19 20  2  0  0  0  0
 19 37  1  0  0  0  0
 20 21  1  0  0  0  0
 20 22  1  0  0  0  0
 22 23  2  0  0  0  0
 22 38  1  0  0  0  0
 23 39  1  0  0  0  0
M  END
> <s_m_source_file>
AV-unprocessed.smi

> <i_m_source_file_index>
1766

> <i_lp_mmshare_version>
43012

> <i_f3d_flags>
0

> <s_epik_input>
W2NIXTFbY0hdW2NIXVtjSF1jKGMxMiluKGMobjIpW0NIMl1DKD1PKVtOSDJdKVtDSDJdW0NASF0oW09IXSljM1tjSF1bY0hdYyhGKVtjSF1bY0hdMw==

> <s_epik_cmdline>
J2VwaWtfcHl0aG9uJywgJy1waCcsICc3LjAnLCAnLXRuJywgJzgnLCAnLW1hJywgJzIwMCcsICctbWV0YWxfYmluZGluZycsICctaW1hZScsICc8aW5maWxlLm1hZT4nLCAnLW9tYWUnLCAnPG91dGZpbGUubWFlPic=

> <r_epik_Ionization_Penalty>
0.0366901

> <r_epik_Ionization_Penalty_Charging>
0

> <r_epik_Ionization_Penalty_Neutral>
0.0366901

> <r_epik_State_Penalty>
0.0306642

> <r_epik_Charging_Adjusted_Penalty>
0.0306642

> <i_epik_Tot_Q>
0

> <i_epik_Tot_abs_Q>
0

> <r_epik_Metal_State_Penalty>
0.028853

> <b_epik_Metal_Only>
0

> <s_lp_Force_Field>
OPLS_2005

> <r_lp_Energy>
12.7053

> <b_lp_Chiralities_Consistent>
1

> <s_lp_Variant>
AV-unprocessed.smi:1766-2

> <Gold.Version>
5.8.1

> <Gold.Id.Protein>
6NUR|6NUR_protein|mol2

> <Gold.PLP.Fitness>
62.4541

> <Gold.PLP.PLP>
-56.2759

> <Gold.PLP.part.hbond>
-3.0000

> <Gold.PLP.part.metal>
0.0000

> <Gold.PLP.part.buried>
-3.6355

> <Gold.PLP.part.nonpolar>
-49.3269

> <Gold.PLP.part.repulsive>
0.2682

> <Gold.PLP.ligand.clash>
0.0000

> <Gold.PLP.ligand.torsion>
0.8983

> <Gold.PLP.Chemscore.Hbond>
2.6480

> <Gold.PLP.Chemscore.CHOScore>
0.0000

> <Gold.PLP.Chemscore.Metal>
0.0000

> <Gold.Chemscore.Hbonds>
donor molecule, donor type, donor heavy atom, donor atom, acceptor molecule, acceptor atom, score
      L1  H    16    35       P1  8028  0.64
      P1  H  7989  7998       L1     6  1.00
      P1  H  7997  8008       L1     3  1.00

> <Gold.PLP.Chemscore.Internal.Correction>
0.0309

> <Gold.Rescore>
     Score         DG    S(hbond)    S(metal)    S(lipo)     H(rot)  DE(clash)    DE(int)     intcor
     14.88     -17.27       1.66        0.00     118.70       2.99       0.35       2.04       ----

> <Gold.Chemscore.Fitness>
14.8797

> <Gold.Chemscore.DG>
-17.2700

> <Gold.Chemscore.ZeroCoef>
-5.4800

> <Gold.Chemscore.Hbond>
1.6607

> <Gold.Chemscore.Metal>
0.0000

> <Gold.Chemscore.Lipo>
118.7046

> <Gold.Chemscore.Internal_Hbond>
0.0000

> <Gold.Chemscore.DEClash>
0.3513

> <Gold.Chemscore.DEInternal>
2.0391

> <Gold.Chemscore.Rot>
2.9864

> <Gold.Chemscore.Internal.Correction>
   9.000000E+99

> <Gold.Chemscore.Hbonds>
donor molecule, donor type, donor heavy atom, donor atom, acceptor molecule, acceptor atom, score
      L1  H    16    35       P1  8028  0.60
      P1  H  7989  7998       L1     6  0.28
      P1  H  7997  8008       L1     3  0.58

> <Gold.Chemscore.Hbond.Weighted>
-5.5467

> <Gold.Chemscore.Metal.Weighted>
-0.0000

> <Gold.Chemscore.Lipo.Weighted>
-13.8884

> <Gold.Chemscore.Internal_Hbond.Weighted>
0.0000

> <Gold.Chemscore.DEClash.Weighted>
0.3513

> <Gold.Chemscore.DEInternal.Weighted>
2.0391

> <Gold.Chemscore.Rot.Weighted>
7.6451

> <Gold.Chemscore.Internal.Correction.Weighted>
   9.000000E+99

> <Gold.Protein.RotatedTorsions>
[ 6907 6896 6895 6894 ] final -148.02 input  -60.11 | X-H torsion
[ 7974 7965 7964 7962 ] final -166.85 input  175.53 | X-H torsion
[ 8008 7997 7996 7995 ] final    8.54 input   59.86 | X-H torsion
[ 10167 10162 10161 10158 ] final   15.59 input  -65.29 | X-H torsion
[ 10718 10713 10712 10709 ] final  -68.69 input   66.30 | X-H torsion
[ 10763 10752 10751 10750 ] final  175.84 input  -60.55 | X-H torsion
[ 11005 11000 10999 10996 ] final  138.22 input  -57.11 | X-H torsion

> <Gold.Protein.ActiveResidues>
 VAL166  LYS551  ARG553  GLY616  TRP617  ASP618  TYR619  PRO620  LYS621  CYS622 
 ASP623  PHE694  ASN695  SER759  ASP760  ASP761  ALA762  ILE779  LEU786  VAL792 
 PHE793  MET794  SER795  GLU796  ALA797  LYS798  CYS799  TRP800  GLU811  SER814 

> <Gold.Protein.RotatedAtoms>
  151.1638  133.4828  159.2593 H   0  0  0  0  0  0  0  0  0  0  0  0  # atno 6907 bound_to 6896
  151.1426  135.0187  159.8642 H   0  0  0  0  0  0  0  0  0  0  0  0  # atno 6908 bound_to 6896
  152.5462  134.1530  159.8579 H   0  0  0  0  0  0  0  0  0  0  0  0  # atno 6909 bound_to 6896
  144.7236  140.2605  143.6265 H   0  0  0  0  0  0  0  0  0  0  0  0  # atno 7974 bound_to 7965
  154.7682  140.2797  155.6159 H   0  0  0  0  0  0  0  0  0  0  0  0  # atno 8008 bound_to 7997
  156.2929  140.2646  156.2405 H   0  0  0  0  0  0  0  0  0  0  0  0  # atno 8009 bound_to 7997
  154.9933  140.0373  157.2318 H   0  0  0  0  0  0  0  0  0  0  0  0  # atno 8010 bound_to 7997
  140.5856  143.8896  150.6827 H   0  0  0  0  0  0  0  0  0  0  0  0  # atno 10167 bound_to 10162
  156.0493  130.4299  150.2037 H   0  0  0  0  0  0  0  0  0  0  0  0  # atno 10718 bound_to 10713
  154.4730  135.2772  155.1628 H   0  0  0  0  0  0  0  0  0  0  0  0  # atno 10763 bound_to 10752
  154.3369  135.6178  153.5581 H   0  0  0  0  0  0  0  0  0  0  0  0  # atno 10764 bound_to 10752
  152.9866  135.5779  154.5115 H   0  0  0  0  0  0  0  0  0  0  0  0  # atno 10765 bound_to 10752
  140.0168  134.9414  157.0392 H   0  0  0  0  0  0  0  0  0  0  0  0  # atno 11005 bound_to 11000
  145.8140  139.2015  143.1976 LP  0  0  0  0  0  0  0  0  0  0  0  0  # atno 17320 bound_to 7965
  146.0571  140.8009  142.9753 LP  0  0  0  0  0  0  0  0  0  0  0  0  # atno 17321 bound_to 7965
  140.2406  143.3667  152.1490 LP  0  0  0  0  0  0  0  0  0  0  0  0  # atno 17342 bound_to 10162
  139.5196  144.7021  151.5462 LP  0  0  0  0  0  0  0  0  0  0  0  0  # atno 17343 bound_to 10162
  157.0123  130.9954  151.3362 LP  0  0  0  0  0  0  0  0  0  0  0  0  # atno 17370 bound_to 10713
  157.5402  130.8115  149.8019 LP  0  0  0  0  0  0  0  0  0  0  0  0  # atno 17371 bound_to 10713
  140.4457  134.1635  155.7177 LP  0  0  0  0  0  0  0  0  0  0  0  0  # atno 17394 bound_to 11000
  141.1748  133.8536  157.1456 LP  0  0  0  0  0  0  0  0  0  0  0  0  # atno 17395 bound_to 11000

$$$$
