AV-unprocessed.smi:1428|AV-procd|sdf|5813|dock5
  -GOLD-   22720 5463D 1   1.00000     0.00000
 Structure written by MMmdl.
 43 44  0  0  0  0  0  0  0  0  1 V2000
  151.8987  138.3181  155.1767 C   0  0  0  0  0  0  0  0  0  0  0  0
  150.5490  138.2275  154.7341 O   0  0  0  0  0  0  0  0  0  0  0  0
  149.7040  139.2950  154.9710 C   0  0  0  0  0  0  0  0  0  0  0  0
  150.1869  140.3596  155.6596 N   0  0  0  0  0  0  0  0  0  0  0  0
  149.3649  141.4045  155.8874 C   0  0  0  0  0  0  0  0  0  0  0  0
  148.0317  141.4474  155.4404 C   0  0  0  0  0  0  0  0  0  0  0  0
  147.5283  140.3446  154.7257 C   0  0  0  0  0  0  0  0  0  0  0  0
  148.3748  139.2338  154.4911 C   0  0  0  0  0  0  0  0  0  0  0  0
  147.9763  138.0792  153.7623 N   0  0  0  0  0  0  0  0  0  0  0  0
  146.7334  137.6440  153.4957 C   0  0  0  0  0  0  0  0  0  0  0  0
  145.6935  138.1714  153.8906 O   0  0  0  0  0  0  0  0  0  0  0  0
  146.7610  136.5329  152.7464 N   0  0  0  0  0  0  0  0  0  0  0  0
  145.5857  135.8018  152.2825 C   0  0  0  0  0  0  0  0  0  0  0  0
  145.7057  134.3213  152.6700 C   0  0  0  0  0  0  0  0  0  0  0  0
  144.5438  133.4988  152.0867 C   0  0  0  0  0  0  0  0  0  0  0  0
  144.5071  133.6207  150.6254 N   0  0  0  0  0  0  0  0  0  0  0  0
  143.4636  132.7178  150.0862 C   0  0  0  0  0  0  0  0  0  0  0  0
  143.4261  132.6213  148.5563 C   0  0  0  0  0  0  0  0  0  0  0  0
  142.2533  132.8526  147.9605 N   0  0  0  0  0  0  0  0  0  0  0  0
  144.4434  132.3495  147.9228 O   0  0  0  0  0  0  0  0  0  0  0  0
  144.2901  135.0232  150.2400 C   0  0  0  0  0  0  0  0  0  0  0  0
  145.4384  135.9081  150.7553 C   0  0  0  0  0  0  0  0  0  0  0  0
  152.4281  137.4041  154.9086 H   0  0  0  0  0  0  0  0  0  0  0  0
  151.9558  138.4278  156.2607 H   0  0  0  0  0  0  0  0  0  0  0  0
  152.4196  139.1518  154.7034 H   0  0  0  0  0  0  0  0  0  0  0  0
  149.7849  142.2340  156.4368 H   0  0  0  0  0  0  0  0  0  0  0  0
  147.4111  142.3091  155.6365 H   0  0  0  0  0  0  0  0  0  0  0  0
  146.5137  140.3804  154.3608 H   0  0  0  0  0  0  0  0  0  0  0  0
  148.7316  137.4857  153.4514 H   0  0  0  0  0  0  0  0  0  0  0  0
  147.6612  136.1675  152.4715 H   0  0  0  0  0  0  0  0  0  0  0  0
  144.6936  136.2125  152.7594 H   0  0  0  0  0  0  0  0  0  0  0  0
  146.6526  133.9152  152.3100 H   0  0  0  0  0  0  0  0  0  0  0  0
  145.7193  134.2204  153.7558 H   0  0  0  0  0  0  0  0  0  0  0  0
  144.6793  132.4532  152.3667 H   0  0  0  0  0  0  0  0  0  0  0  0
  143.5959  133.8230  152.5205 H   0  0  0  0  0  0  0  0  0  0  0  0
  143.6228  131.7083  150.4682 H   0  0  0  0  0  0  0  0  0  0  0  0
  142.4824  133.0331  150.4465 H   0  0  0  0  0  0  0  0  0  0  0  0
  142.1843  132.8067  146.9541 H   0  0  0  0  0  0  0  0  0  0  0  0
  141.4426  133.0791  148.5181 H   0  0  0  0  0  0  0  0  0  0  0  0
  144.2456  135.1281  149.1562 H   0  0  0  0  0  0  0  0  0  0  0  0
  143.3342  135.3779  150.6296 H   0  0  0  0  0  0  0  0  0  0  0  0
  145.2578  136.9439  150.4654 H   0  0  0  0  0  0  0  0  0  0  0  0
  146.3689  135.6100  150.2695 H   0  0  0  0  0  0  0  0  0  0  0  0
  1  2  1  0  0  0  0
  1 23  1  0  0  0  0
  1 24  1  0  0  0  0
  1 25  1  0  0  0  0
  2  3  1  0  0  0  0
  3  8  1  0  0  0  0
  3  4  2  0  0  0  0
  4  5  1  0  0  0  0
  5  6  2  0  0  0  0
  5 26  1  0  0  0  0
  6  7  1  0  0  0  0
  6 27  1  0  0  0  0
  7  8  2  0  0  0  0
  7 28  1  0  0  0  0
  8  9  1  0  0  0  0
  9 10  1  0  0  0  0
  9 29  1  0  0  0  0
 10 11  2  0  0  0  0
 10 12  1  0  0  0  0
 12 13  1  0  0  0  0
 12 30  1  0  0  0  0
 13 22  1  0  0  0  0
 13 14  1  0  0  0  0
 13 31  1  0  0  0  0
 14 15  1  0  0  0  0
 14 32  1  0  0  0  0
 14 33  1  0  0  0  0
 15 16  1  0  0  0  0
 15 34  1  0  0  0  0
 15 35  1  0  0  0  0
 16 17  1  0  0  0  0
 16 21  1  0  0  0  0
 17 18  1  0  0  0  0
 17 36  1  0  0  0  0
 17 37  1  0  0  0  0
 18 19  1  0  0  0  0
 18 20  2  0  0  0  0
 19 38  1  0  0  0  0
 19 39  1  0  0  0  0
 21 22  1  0  0  0  0
 21 40  1  0  0  0  0
 21 41  1  0  0  0  0
 22 42  1  0  0  0  0
 22 43  1  0  0  0  0
M  END
> <s_m_source_file>
AV-unprocessed.smi

> <i_m_source_file_index>
1428

> <i_lp_mmshare_version>
43012

> <i_f3d_flags>
0

> <s_epik_input>
W0NIM11PYzFuW2NIXVtjSF1bY0hdYzFbTkhdQyg9TylbTkhdW0NIXTJbQ0gyXVtDSDJdTihbQ0gyXVtDSDJdMilbQ0gyXUMoPU8pW05IMl0=

> <s_epik_cmdline>
J2VwaWtfcHl0aG9uJywgJy1waCcsICc3LjAnLCAnLXRuJywgJzgnLCAnLW1hJywgJzIwMCcsICctbWV0YWxfYmluZGluZycsICctaW1hZScsICc8aW5maWxlLm1hZT4nLCAnLW9tYWUnLCAnPG91dGZpbGUubWFlPic=

> <r_lp_tautomer_probability>
1

> <r_epik_Ionization_Penalty>
0.16483

> <r_epik_Ionization_Penalty_Charging>
0

> <r_epik_Ionization_Penalty_Neutral>
0.16483

> <r_epik_State_Penalty>
0.154069

> <r_epik_Charging_Adjusted_Penalty>
0.154069

> <i_epik_Tot_Q>
0

> <i_epik_Tot_abs_Q>
0

> <r_epik_Metal_State_Penalty>
0.171364

> <b_epik_Metal_Only>
0

> <s_lp_Force_Field>
OPLS_2005

> <r_lp_Energy>
13.8311

> <b_lp_Chiralities_Consistent>
1

> <s_lp_Variant>
AV-unprocessed.smi:1428-1

> <Gold.Version>
5.8.1

> <Gold.Id.Protein>
6NUR|6NUR_protein|mol2

> <Gold.PLP.Fitness>
48.9460

> <Gold.PLP.PLP>
-37.2238

> <Gold.PLP.part.hbond>
-7.3851

> <Gold.PLP.part.metal>
0.0000

> <Gold.PLP.part.buried>
1.9824

> <Gold.PLP.part.nonpolar>
-33.4571

> <Gold.PLP.part.repulsive>
1.1853

> <Gold.PLP.ligand.clash>
0.0000

> <Gold.PLP.ligand.torsion>
0.2036

> <Gold.PLP.Chemscore.Hbond>
3.2199

> <Gold.PLP.Chemscore.CHOScore>
0.8202

> <Gold.PLP.Chemscore.Metal>
0.0000

> <Gold.Chemscore.Hbonds>
donor molecule, donor type, donor heavy atom, donor atom, acceptor molecule, acceptor atom, score
      L1  H     9    29       P1  7948  0.67
      L1  H    12    30       P1  7948  0.73
      L1  H    19    38       P1 10195  0.96
      L1  H    19    39       P1 10186  0.70
      P1  H  7918  7932       L1    20  0.07
      L1  C     5    26       P1  8028  0.31

> <Gold.PLP.Chemscore.Internal.Correction>
0.0091

> <Gold.Rescore>
     Score         DG    S(hbond)    S(metal)    S(lipo)     H(rot)  DE(clash)    DE(int)     intcor
     13.35     -17.06       2.82        0.00      68.80       2.29       2.44       1.26       ----

> <Gold.Chemscore.Fitness>
13.3537

> <Gold.Chemscore.DG>
-17.0573

> <Gold.Chemscore.ZeroCoef>
-5.4800

> <Gold.Chemscore.Hbond>
2.8153

> <Gold.Chemscore.Metal>
0.0000

> <Gold.Chemscore.Lipo>
68.7980

> <Gold.Chemscore.Internal_Hbond>
0.0000

> <Gold.Chemscore.DEClash>
2.4421

> <Gold.Chemscore.DEInternal>
1.2615

> <Gold.Chemscore.Rot>
2.2949

> <Gold.Chemscore.Internal.Correction>
   9.000000E+99

> <Gold.Chemscore.Hbonds>
donor molecule, donor type, donor heavy atom, donor atom, acceptor molecule, acceptor atom, score
      L1  H     9    29       P1  7948  0.64
      L1  H    12    30       P1  7948  0.71
      L1  H    19    38       P1 10195  0.89
      L1  H    19    39       P1 10186  0.70
      P1  H  7918  7932       L1    20  0.08

> <Gold.Chemscore.Hbond.Weighted>
-9.4030

> <Gold.Chemscore.Metal.Weighted>
-0.0000

> <Gold.Chemscore.Lipo.Weighted>
-8.0494

> <Gold.Chemscore.Internal_Hbond.Weighted>
0.0000

> <Gold.Chemscore.DEClash.Weighted>
2.4421

> <Gold.Chemscore.DEInternal.Weighted>
1.2615

> <Gold.Chemscore.Rot.Weighted>
5.8750

> <Gold.Chemscore.Internal.Correction.Weighted>
   9.000000E+99

> <Gold.Protein.RotatedTorsions>
[ 6907 6896 6895 6894 ] final   -2.10 input  -60.11 | X-H torsion
[ 7974 7965 7964 7962 ] final   20.66 input  175.53 | X-H torsion
[ 8008 7997 7996 7995 ] final  123.06 input   59.86 | X-H torsion
[ 10167 10162 10161 10158 ] final   35.74 input  -65.29 | X-H torsion
[ 10718 10713 10712 10709 ] final   -8.52 input   66.30 | X-H torsion
[ 10763 10752 10751 10750 ] final  165.09 input  -60.55 | X-H torsion
[ 11005 11000 10999 10996 ] final   76.74 input  -57.11 | X-H torsion

> <Gold.Protein.ActiveResidues>
 VAL166  LYS551  ARG553  GLY616  TRP617  ASP618  TYR619  PRO620  LYS621  CYS622 
 ASP623  PHE694  ASN695  SER759  ASP760  ASP761  ALA762  ILE779  LEU786  VAL792 
 PHE793  MET794  SER795  GLU796  ALA797  LYS798  CYS799  TRP800  GLU811  SER814 

> <Gold.Protein.RotatedAtoms>
  151.5354  135.1068  159.9912 H   0  0  0  0  0  0  0  0  0  0  0  0  # atno 6907 bound_to 6896
  152.4559  133.7719  159.6814 H   0  0  0  0  0  0  0  0  0  0  0  0  # atno 6908 bound_to 6896
  150.8503  133.7731  159.3052 H   0  0  0  0  0  0  0  0  0  0  0  0  # atno 6909 bound_to 6896
  146.2102  139.8137  142.8694 H   0  0  0  0  0  0  0  0  0  0  0  0  # atno 7974 bound_to 7965
  156.2751  140.2771  156.1567 H   0  0  0  0  0  0  0  0  0  0  0  0  # atno 8008 bound_to 7997
  155.0797  140.0387  157.2653 H   0  0  0  0  0  0  0  0  0  0  0  0  # atno 8009 bound_to 7997
  154.6974  140.2642  155.6758 H   0  0  0  0  0  0  0  0  0  0  0  0  # atno 8010 bound_to 7997
  140.4193  144.1482  150.6146 H   0  0  0  0  0  0  0  0  0  0  0  0  # atno 10167 bound_to 10162
  156.7013  130.5094  149.5916 H   0  0  0  0  0  0  0  0  0  0  0  0  # atno 10718 bound_to 10713
  154.3187  135.2756  155.2530 H   0  0  0  0  0  0  0  0  0  0  0  0  # atno 10763 bound_to 10752
  154.4893  135.5838  153.6450 H   0  0  0  0  0  0  0  0  0  0  0  0  # atno 10764 bound_to 10752
  152.9879  135.6130  154.3370 H   0  0  0  0  0  0  0  0  0  0  0  0  # atno 10765 bound_to 10752
  139.9285  134.7625  156.1433 H   0  0  0  0  0  0  0  0  0  0  0  0  # atno 11005 bound_to 11000
  145.3169  141.0234  143.3523 LP  0  0  0  0  0  0  0  0  0  0  0  0  # atno 17320 bound_to 7965
  144.8895  139.4794  143.6684 LP  0  0  0  0  0  0  0  0  0  0  0  0  # atno 17321 bound_to 7965
  140.4551  143.2471  151.9295 LP  0  0  0  0  0  0  0  0  0  0  0  0  # atno 17342 bound_to 10162
  139.4782  144.5523  151.8366 LP  0  0  0  0  0  0  0  0  0  0  0  0  # atno 17343 bound_to 10162
  156.1726  130.6447  151.0856 LP  0  0  0  0  0  0  0  0  0  0  0  0  # atno 17370 bound_to 10713
  157.6972  131.0790  150.6933 LP  0  0  0  0  0  0  0  0  0  0  0  0  # atno 17371 bound_to 10713
  141.0859  133.6734  156.2434 LP  0  0  0  0  0  0  0  0  0  0  0  0  # atno 17394 bound_to 11000
  140.6268  134.5305  157.5554 LP  0  0  0  0  0  0  0  0  0  0  0  0  # atno 17395 bound_to 11000

$$$$
