AV-unprocessed.smi:1169|AV-procd|sdf|4940|dock2
  -GOLD-   22720 3523D 1   1.00000     0.00000
 Structure written by MMmdl.
 29 30  0  0  0  0  0  0  0  0  1 V2000
  151.1782  140.9545  157.8700 O   0  0  0  0  0  0  0  0  0  0  0  0
  150.5593  141.6235  157.0431 C   0  0  0  0  0  0  0  0  0  0  0  0
  150.4067  141.1044  155.6083 C   0  0  0  0  0  0  0  0  0  0  0  0
  149.0650  141.3003  155.0828 N   0  0  0  0  0  0  0  0  0  0  0  0
  148.5796  140.9795  153.8331 C   0  0  0  0  0  0  0  0  0  0  0  0
  147.2694  141.3608  153.7969 C   0  0  0  0  0  0  0  0  0  0  0  0
  147.0320  141.9112  155.0901 C   0  0  0  0  0  0  0  0  0  0  0  0
  145.7573  142.4984  155.6361 C   0  0  0  0  0  0  0  0  0  0  0  0
  144.7954  141.5760  155.6579 F   0  0  0  0  0  0  0  0  0  0  0  0
  145.9554  142.9407  156.8777 F   0  0  0  0  0  0  0  0  0  0  0  0
  145.3592  143.5139  154.8701 F   0  0  0  0  0  0  0  0  0  0  0  0
  148.1143  141.8685  155.8555 N   0  0  0  0  0  0  0  0  0  0  0  0
  150.0171  142.8196  157.3246 N   0  0  0  0  0  0  0  0  0  0  0  0
  150.0786  143.4867  158.6177 C   0  0  0  0  0  0  0  0  0  0  0  0
  150.9139  144.7521  158.6387 C   0  0  0  0  0  0  0  0  0  0  0  0
  152.3954  144.6982  158.3492 C   0  0  0  0  0  0  0  0  0  0  0  0
  151.9098  145.0075  159.7453 C   0  0  0  0  0  0  0  0  0  0  0  0
  151.1177  141.6205  154.9623 H   0  0  0  0  0  0  0  0  0  0  0  0
  150.6503  140.0414  155.5676 H   0  0  0  0  0  0  0  0  0  0  0  0
  149.2009  140.5161  153.0810 H   0  0  0  0  0  0  0  0  0  0  0  0
  146.5821  141.2620  152.9699 H   0  0  0  0  0  0  0  0  0  0  0  0
  149.5255  143.3022  156.5865 H   0  0  0  0  0  0  0  0  0  0  0  0
  149.0588  143.7258  158.9213 H   0  0  0  0  0  0  0  0  0  0  0  0
  150.4662  142.7985  159.3706 H   0  0  0  0  0  0  0  0  0  0  0  0
  150.3949  145.6264  158.2501 H   0  0  0  0  0  0  0  0  0  0  0  0
  152.8447  143.7217  158.1794 H   0  0  0  0  0  0  0  0  0  0  0  0
  152.8248  145.5156  157.7734 H   0  0  0  0  0  0  0  0  0  0  0  0
  152.0127  146.0312  160.0997 H   0  0  0  0  0  0  0  0  0  0  0  0
  152.0349  144.2371  160.5037 H   0  0  0  0  0  0  0  0  0  0  0  0
  1  2  2  0  0  0  0
  2  3  1  0  0  0  0
  2 13  1  0  0  0  0
  3  4  1  0  0  0  0
  3 18  1  0  0  0  0
  3 19  1  0  0  0  0
  4 12  1  0  0  0  0
  4  5  1  0  0  0  0
  5  6  2  0  0  0  0
  5 20  1  0  0  0  0
  6  7  1  0  0  0  0
  6 21  1  0  0  0  0
  7  8  1  0  0  0  0
  7 12  2  0  0  0  0
  8  9  1  0  0  0  0
  8 10  1  0  0  0  0
  8 11  1  0  0  0  0
 13 14  1  0  0  0  0
 13 22  1  0  0  0  0
 14 15  1  0  0  0  0
 14 23  1  0  0  0  0
 14 24  1  0  0  0  0
 15 17  1  0  0  0  0
 15 16  1  0  0  0  0
 15 25  1  0  0  0  0
 16 17  1  0  0  0  0
 16 26  1  0  0  0  0
 16 27  1  0  0  0  0
 17 28  1  0  0  0  0
 17 29  1  0  0  0  0
M  END
> <s_m_source_file>
AV-unprocessed.smi

> <i_m_source_file_index>
1169

> <i_lp_mmshare_version>
43012

> <i_f3d_flags>
0

> <s_epik_input>
W0NIMl0xW0NIMl1bQ0hdMVtDSDJdW05IXUMoPU8pW0NIMl1uMltjSF1bY0hdYyhuMilDKEYpKEYpRg==

> <s_epik_cmdline>
J2VwaWtfcHl0aG9uJywgJy1waCcsICc3LjAnLCAnLXRuJywgJzgnLCAnLW1hJywgJzIwMCcsICctbWV0YWxfYmluZGluZycsICctaW1hZScsICc8aW5maWxlLm1hZT4nLCAnLW9tYWUnLCAnPG91dGZpbGUubWFlPic=

> <r_lp_tautomer_probability>
1

> <r_epik_Ionization_Penalty>
8.05593e-08

> <r_epik_Ionization_Penalty_Charging>
0

> <r_epik_Ionization_Penalty_Neutral>
8.05593e-08

> <r_epik_State_Penalty>
-0

> <r_epik_Charging_Adjusted_Penalty>
0

> <i_epik_Tot_Q>
0

> <i_epik_Tot_abs_Q>
0

> <r_epik_Metal_State_Penalty>
-0

> <b_epik_Metal_Only>
0

> <s_lp_Force_Field>
OPLS_2005

> <r_lp_Energy>
14.9907

> <b_lp_Chiralities_Consistent>
1

> <s_lp_Variant>
AV-unprocessed.smi:1169-1

> <Gold.Version>
5.8.1

> <Gold.Id.Protein>
6NUR|6NUR_protein|mol2

> <Gold.PLP.Fitness>
42.1478

> <Gold.PLP.PLP>
-36.7946

> <Gold.PLP.part.hbond>
-1.0000

> <Gold.PLP.part.metal>
0.0000

> <Gold.PLP.part.buried>
-4.4854

> <Gold.PLP.part.nonpolar>
-32.8924

> <Gold.PLP.part.repulsive>
1.2591

> <Gold.PLP.ligand.clash>
0.0000

> <Gold.PLP.ligand.torsion>
0.5888

> <Gold.PLP.Chemscore.Hbond>
1.0000

> <Gold.PLP.Chemscore.CHOScore>
0.9779

> <Gold.PLP.Chemscore.Metal>
0.0000

> <Gold.Chemscore.Hbonds>
donor molecule, donor type, donor heavy atom, donor atom, acceptor molecule, acceptor atom, score
      L1  H    13    22       P1  8028  1.00
      L1  C     5    20       P1  7957  0.97

> <Gold.PLP.Chemscore.Internal.Correction>
0.5970

> <Gold.Rescore>
     Score         DG    S(hbond)    S(metal)    S(lipo)     H(rot)  DE(clash)    DE(int)     intcor
     12.50     -12.94       0.99        0.00      75.67       1.84       0.05       0.40       ----

> <Gold.Chemscore.Fitness>
12.5018

> <Gold.Chemscore.DG>
-12.9444

> <Gold.Chemscore.ZeroCoef>
-5.4800

> <Gold.Chemscore.Hbond>
0.9915

> <Gold.Chemscore.Metal>
0.0000

> <Gold.Chemscore.Lipo>
75.6658

> <Gold.Chemscore.Internal_Hbond>
0.0000

> <Gold.Chemscore.DEClash>
0.0467

> <Gold.Chemscore.DEInternal>
0.3959

> <Gold.Chemscore.Rot>
1.8359

> <Gold.Chemscore.Internal.Correction>
   9.000000E+99

> <Gold.Chemscore.Hbonds>
donor molecule, donor type, donor heavy atom, donor atom, acceptor molecule, acceptor atom, score
      L1  H    13    22       P1  8028  0.98

> <Gold.Chemscore.Hbond.Weighted>
-3.3115

> <Gold.Chemscore.Metal.Weighted>
-0.0000

> <Gold.Chemscore.Lipo.Weighted>
-8.8529

> <Gold.Chemscore.Internal_Hbond.Weighted>
0.0000

> <Gold.Chemscore.DEClash.Weighted>
0.0467

> <Gold.Chemscore.DEInternal.Weighted>
0.3959

> <Gold.Chemscore.Rot.Weighted>
4.7000

> <Gold.Chemscore.Internal.Correction.Weighted>
   9.000000E+99

> <Gold.Protein.RotatedTorsions>
[ 6907 6896 6895 6894 ] final    1.72 input  -60.11 | X-H torsion
[ 7974 7965 7964 7962 ] final   76.20 input  175.53 | X-H torsion
[ 8008 7997 7996 7995 ] final -135.62 input   59.86 | X-H torsion
[ 10167 10162 10161 10158 ] final  146.40 input  -65.29 | X-H torsion
[ 10718 10713 10712 10709 ] final   17.16 input   66.30 | X-H torsion
[ 10763 10752 10751 10750 ] final  -27.66 input  -60.55 | X-H torsion
[ 11005 11000 10999 10996 ] final  120.16 input  -57.11 | X-H torsion

> <Gold.Protein.ActiveResidues>
 VAL166  LYS551  ARG553  GLY616  TRP617  ASP618  TYR619  PRO620  LYS621  CYS622 
 ASP623  PHE694  ASN695  SER759  ASP760  ASP761  ALA762  ILE779  LEU786  VAL792 
 PHE793  MET794  SER795  GLU796  ALA797  LYS798  CYS799  TRP800  GLU811  SER814 

> <Gold.Protein.RotatedAtoms>
  151.5972  135.1049  160.0051 H   0  0  0  0  0  0  0  0  0  0  0  0  # atno 6907 bound_to 6896
  152.4276  133.7218  159.6548 H   0  0  0  0  0  0  0  0  0  0  0  0  # atno 6908 bound_to 6896
  150.8166  133.8254  159.3180 H   0  0  0  0  0  0  0  0  0  0  0  0  # atno 6909 bound_to 6896
  145.7059  139.2598  143.1678 H   0  0  0  0  0  0  0  0  0  0  0  0  # atno 7974 bound_to 7965
  155.3817  140.0494  157.3043 H   0  0  0  0  0  0  0  0  0  0  0  0  # atno 8008 bound_to 7997
  154.5079  140.2181  155.9176 H   0  0  0  0  0  0  0  0  0  0  0  0  # atno 8009 bound_to 7997
  156.1548  140.3128  155.8713 H   0  0  0  0  0  0  0  0  0  0  0  0  # atno 8010 bound_to 7997
  139.4908  144.5832  151.6830 H   0  0  0  0  0  0  0  0  0  0  0  0  # atno 10167 bound_to 10162
  157.0782  130.6376  149.5820 H   0  0  0  0  0  0  0  0  0  0  0  0  # atno 10718 bound_to 10713
  153.7358  135.6936  153.4978 H   0  0  0  0  0  0  0  0  0  0  0  0  # atno 10763 bound_to 10752
  153.2104  135.4405  155.0371 H   0  0  0  0  0  0  0  0  0  0  0  0  # atno 10764 bound_to 10752
  154.8238  135.3435  154.6885 H   0  0  0  0  0  0  0  0  0  0  0  0  # atno 10765 bound_to 10752
  139.9174  134.9633  156.7765 H   0  0  0  0  0  0  0  0  0  0  0  0  # atno 11005 bound_to 11000
  146.0756  140.7821  142.9666 LP  0  0  0  0  0  0  0  0  0  0  0  0  # atno 17320 bound_to 7965
  144.6955  140.3409  143.7199 LP  0  0  0  0  0  0  0  0  0  0  0  0  # atno 17321 bound_to 7965
  140.5443  144.0529  150.6100 LP  0  0  0  0  0  0  0  0  0  0  0  0  # atno 17342 bound_to 10162
  140.3561  143.2934  152.0434 LP  0  0  0  0  0  0  0  0  0  0  0  0  # atno 17343 bound_to 10162
  155.9931  130.4991  150.7367 LP  0  0  0  0  0  0  0  0  0  0  0  0  # atno 17370 bound_to 10713
  157.4822  131.0903  151.0523 LP  0  0  0  0  0  0  0  0  0  0  0  0  # atno 17371 bound_to 10713
  140.6578  133.9672  155.7789 LP  0  0  0  0  0  0  0  0  0  0  0  0  # atno 17394 bound_to 11000
  141.0664  134.0271  157.3588 LP  0  0  0  0  0  0  0  0  0  0  0  0  # atno 17395 bound_to 11000

$$$$
