AV-unprocessed.smi:3336|AV-procd|sdf|12859|dock3
  -GOLD-   2272019253D 1   1.00000     0.00000
 Structure written by MMmdl.
 41 42  0  0  0  0  0  0  0  0  1 V2000
  148.7600  142.7123  158.3477 C   0  0  0  0  0  0  0  0  0  0  0  0
  150.2248  142.3378  158.0692 C   0  0  2  0  0  0  0  0  0  0  0  0
  151.1912  143.3689  158.6850 C   0  0  0  0  0  0  0  0  0  0  0  0
  152.1069  142.7649  159.6370 N   0  0  0  0  0  0  0  0  0  0  0  0
  152.2829  143.0696  160.9707 C   0  0  0  0  0  0  0  0  0  0  0  0
  153.2634  142.2483  161.4487 C   0  0  0  0  0  0  0  0  0  0  0  0
  153.6304  141.4665  160.3177 C   0  0  0  0  0  0  0  0  0  0  0  0
  152.9345  141.7757  159.2354 N   0  0  0  0  0  0  0  0  0  0  0  0
  150.4408  142.2957  156.6221 N   0  0  0  0  0  0  0  0  0  0  0  0
  149.7521  141.1937  155.9217 C   0  0  1  0  0  0  0  0  0  0  0  0
  148.9025  141.7770  154.7807 C   0  0  0  0  0  0  0  0  0  0  0  0
  150.7224  140.1243  155.3638 C   0  0  0  0  0  0  0  0  0  0  0  0
  150.6810  139.8770  154.1569 O   0  0  0  0  0  0  0  0  0  0  0  0
  151.5869  139.4842  156.1913 N   0  0  0  0  0  0  0  0  0  0  0  0
  152.5577  138.4950  155.7095 C   0  0  0  0  0  0  0  0  0  0  0  0
  152.2146  137.1268  156.3235 C   0  0  0  0  0  0  0  0  0  0  0  0
  152.2396  137.2254  157.7446 O   0  0  0  0  0  0  0  0  0  0  0  0
  151.3233  138.1927  158.2485 C   0  0  0  0  0  0  0  0  0  0  0  0
  151.6419  139.5779  157.6555 C   0  0  0  0  0  0  0  0  0  0  0  0
  148.5735  142.7767  159.4202 H   0  0  0  0  0  0  0  0  0  0  0  0
  148.0694  141.9712  157.9457 H   0  0  0  0  0  0  0  0  0  0  0  0
  148.5054  143.6783  157.9103 H   0  0  0  0  0  0  0  0  0  0  0  0
  150.4270  141.3693  158.5277 H   0  0  0  0  0  0  0  0  0  0  0  0
  151.7703  143.8734  157.9102 H   0  0  0  0  0  0  0  0  0  0  0  0
  150.6292  144.1458  159.2056 H   0  0  0  0  0  0  0  0  0  0  0  0
  151.7067  143.8410  161.4601 H   0  0  0  0  0  0  0  0  0  0  0  0
  153.6607  142.2141  162.4522 H   0  0  0  0  0  0  0  0  0  0  0  0
  154.3767  140.6887  160.2516 H   0  0  0  0  0  0  0  0  0  0  0  0
  150.2253  143.1961  156.2193 H   0  0  0  0  0  0  0  0  0  0  0  0
  149.0830  140.7380  156.6484 H   0  0  0  0  0  0  0  0  0  0  0  0
  148.3393  141.0025  154.2596 H   0  0  0  0  0  0  0  0  0  0  0  0
  149.5230  142.2869  154.0422 H   0  0  0  0  0  0  0  0  0  0  0  0
  148.1808  142.5003  155.1614 H   0  0  0  0  0  0  0  0  0  0  0  0
  152.5845  138.4126  154.6222 H   0  0  0  0  0  0  0  0  0  0  0  0
  153.5612  138.8000  156.0103 H   0  0  0  0  0  0  0  0  0  0  0  0
  151.2345  136.7831  155.9887 H   0  0  0  0  0  0  0  0  0  0  0  0
  152.9418  136.3784  156.0085 H   0  0  0  0  0  0  0  0  0  0  0  0
  150.3007  137.8951  158.0116 H   0  0  0  0  0  0  0  0  0  0  0  0
  151.4037  138.2201  159.3354 H   0  0  0  0  0  0  0  0  0  0  0  0
  152.6409  139.8955  157.9572 H   0  0  0  0  0  0  0  0  0  0  0  0
  150.9547  140.3010  158.0869 H   0  0  0  0  0  0  0  0  0  0  0  0
  1  2  1  0  0  0  0
  1 20  1  0  0  0  0
  1 21  1  0  0  0  0
  1 22  1  0  0  0  0
  2  3  1  0  0  0  0
  2  9  1  0  0  0  0
  2 23  1  0  0  0  0
  3  4  1  0  0  0  0
  3 24  1  0  0  0  0
  3 25  1  0  0  0  0
  4  8  1  0  0  0  0
  4  5  1  0  0  0  0
  5  6  2  0  0  0  0
  5 26  1  0  0  0  0
  6  7  1  0  0  0  0
  6 27  1  0  0  0  0
  7  8  2  0  0  0  0
  7 28  1  0  0  0  0
  9 10  1  0  0  0  0
  9 29  1  0  0  0  0
 10 11  1  0  0  0  0
 10 12  1  0  0  0  0
 10 30  1  0  0  0  0
 11 31  1  0  0  0  0
 11 32  1  0  0  0  0
 11 33  1  0  0  0  0
 12 13  2  0  0  0  0
 12 14  1  0  0  0  0
 14 19  1  0  0  0  0
 14 15  1  0  0  0  0
 15 16  1  0  0  0  0
 15 34  1  0  0  0  0
 15 35  1  0  0  0  0
 16 17  1  0  0  0  0
 16 36  1  0  0  0  0
 16 37  1  0  0  0  0
 17 18  1  0  0  0  0
 18 19  1  0  0  0  0
 18 38  1  0  0  0  0
 18 39  1  0  0  0  0
 19 40  1  0  0  0  0
 19 41  1  0  0  0  0
M  END
> <s_m_source_file>
AV-unprocessed.smi

> <i_m_source_file_index>
3336

> <i_lp_mmshare_version>
43012

> <i_f3d_flags>
0

> <s_epik_input>
bjFbY0hdW2NIXVtjSF1uMVtDSDJdW0NAQEhdKFtDSDNdKVtOSF1bQ0BIXShbQ0gzXSlDKD1PKU4yW0NIMl1bQ0gyXU9bQ0gyXVtDSDJdMg==

> <s_epik_cmdline>
J2VwaWtfcHl0aG9uJywgJy1waCcsICc3LjAnLCAnLXRuJywgJzgnLCAnLW1hJywgJzIwMCcsICctbWV0YWxfYmluZGluZycsICctaW1hZScsICc8aW5maWxlLm1hZT4nLCAnLW9tYWUnLCAnPG91dGZpbGUubWFlPic=

> <r_lp_tautomer_probability>
1

> <r_epik_Ionization_Penalty>
0.739958

> <r_epik_Ionization_Penalty_Charging>
0

> <r_epik_Ionization_Penalty_Neutral>
0.739958

> <r_epik_State_Penalty>
0.765967

> <r_epik_Charging_Adjusted_Penalty>
0.765967

> <i_epik_Tot_Q>
0

> <i_epik_Tot_abs_Q>
0

> <r_epik_Metal_State_Penalty>
0.765947

> <b_epik_Metal_Only>
0

> <s_lp_Force_Field>
OPLS_2005

> <r_lp_Energy>
28.023

> <b_lp_Chiralities_Consistent>
1

> <s_lp_Variant>
AV-unprocessed.smi:3336-7

> <Gold.Version>
5.8.1

> <Gold.Id.Protein>
6NUR|6NUR_protein|mol2

> <Gold.PLP.Fitness>
40.5764

> <Gold.PLP.PLP>
-37.5013

> <Gold.PLP.part.hbond>
-2.0000

> <Gold.PLP.part.metal>
0.0000

> <Gold.PLP.part.buried>
-4.0572

> <Gold.PLP.part.nonpolar>
-32.0247

> <Gold.PLP.part.repulsive>
0.1359

> <Gold.PLP.ligand.clash>
0.0000

> <Gold.PLP.ligand.torsion>
1.5390

> <Gold.PLP.Chemscore.Hbond>
2.0000

> <Gold.PLP.Chemscore.CHOScore>
0.0000

> <Gold.PLP.Chemscore.Metal>
0.0000

> <Gold.Chemscore.Hbonds>
donor molecule, donor type, donor heavy atom, donor atom, acceptor molecule, acceptor atom, score
      L1  H     9    29       P1  8028  0.83
      P1  H  7989  7998       L1    13  0.98

> <Gold.PLP.Chemscore.Internal.Correction>
0.1531

> <Gold.Rescore>
     Score         DG    S(hbond)    S(metal)    S(lipo)     H(rot)  DE(clash)    DE(int)     intcor
     15.64     -17.29       1.93        0.00      84.99       1.79       0.00       1.65       ----

> <Gold.Chemscore.Fitness>
15.6372

> <Gold.Chemscore.DG>
-17.2900

> <Gold.Chemscore.ZeroCoef>
-5.4800

> <Gold.Chemscore.Hbond>
1.9332

> <Gold.Chemscore.Metal>
0.0000

> <Gold.Chemscore.Lipo>
84.9935

> <Gold.Chemscore.Internal_Hbond>
0.0000

> <Gold.Chemscore.DEClash>
0.0039

> <Gold.Chemscore.DEInternal>
1.6490

> <Gold.Chemscore.Rot>
1.7935

> <Gold.Chemscore.Internal.Correction>
   9.000000E+99

> <Gold.Chemscore.Hbonds>
donor molecule, donor type, donor heavy atom, donor atom, acceptor molecule, acceptor atom, score
      L1  H     9    29       P1  8028  0.78
      P1  H  7989  7998       L1    13  0.55

> <Gold.Chemscore.Hbond.Weighted>
-6.4570

> <Gold.Chemscore.Metal.Weighted>
-0.0000

> <Gold.Chemscore.Lipo.Weighted>
-9.9442

> <Gold.Chemscore.Internal_Hbond.Weighted>
0.0000

> <Gold.Chemscore.DEClash.Weighted>
0.0039

> <Gold.Chemscore.DEInternal.Weighted>
1.6490

> <Gold.Chemscore.Rot.Weighted>
4.5912

> <Gold.Chemscore.Internal.Correction.Weighted>
   9.000000E+99

> <Gold.Protein.RotatedTorsions>
[ 6907 6896 6895 6894 ] final   29.83 input  -60.11 | X-H torsion
[ 7974 7965 7964 7962 ] final -110.41 input  175.53 | X-H torsion
[ 8008 7997 7996 7995 ] final  -76.34 input   59.86 | X-H torsion
[ 10167 10162 10161 10158 ] final -140.60 input  -65.29 | X-H torsion
[ 10718 10713 10712 10709 ] final  -42.44 input   66.30 | X-H torsion
[ 10763 10752 10751 10750 ] final -157.60 input  -60.55 | X-H torsion
[ 11005 11000 10999 10996 ] final  -16.45 input  -57.11 | X-H torsion

> <Gold.Protein.ActiveResidues>
 VAL166  LYS551  ARG553  GLY616  TRP617  ASP618  TYR619  PRO620  LYS621  CYS622 
 ASP623  PHE694  ASN695  SER759  ASP760  ASP761  ALA762  ILE779  LEU786  VAL792 
 PHE793  MET794  SER795  GLU796  ALA797  LYS798  CYS799  TRP800  GLU811  SER814 

> <Gold.Protein.RotatedAtoms>
  152.0372  134.9733  160.0573 H   0  0  0  0  0  0  0  0  0  0  0  0  # atno 6907 bound_to 6896
  152.1186  133.4336  159.4673 H   0  0  0  0  0  0  0  0  0  0  0  0  # atno 6908 bound_to 6896
  150.6847  134.2481  159.4543 H   0  0  0  0  0  0  0  0  0  0  0  0  # atno 6909 bound_to 6896
  145.1686  140.8914  143.3549 H   0  0  0  0  0  0  0  0  0  0  0  0  # atno 7974 bound_to 7965
  154.5496  140.0729  156.8646 H   0  0  0  0  0  0  0  0  0  0  0  0  # atno 8008 bound_to 7997
  155.3019  140.3384  155.4229 H   0  0  0  0  0  0  0  0  0  0  0  0  # atno 8009 bound_to 7997
  156.1949  140.1700  156.8003 H   0  0  0  0  0  0  0  0  0  0  0  0  # atno 8010 bound_to 7997
  139.8266  143.7503  152.2666 H   0  0  0  0  0  0  0  0  0  0  0  0  # atno 10167 bound_to 10162
  156.2595  130.4195  149.8558 H   0  0  0  0  0  0  0  0  0  0  0  0  # atno 10718 bound_to 10713
  154.7623  135.3121  154.8353 H   0  0  0  0  0  0  0  0  0  0  0  0  # atno 10763 bound_to 10752
  153.9111  135.6805  153.4755 H   0  0  0  0  0  0  0  0  0  0  0  0  # atno 10764 bound_to 10752
  153.1225  135.4816  154.9151 H   0  0  0  0  0  0  0  0  0  0  0  0  # atno 10765 bound_to 10752
  140.8069  133.8171  155.9524 H   0  0  0  0  0  0  0  0  0  0  0  0  # atno 11005 bound_to 11000
  145.0256  139.3385  143.6050 LP  0  0  0  0  0  0  0  0  0  0  0  0  # atno 17320 bound_to 7965
  146.3472  139.9574  142.8721 LP  0  0  0  0  0  0  0  0  0  0  0  0  # atno 17321 bound_to 7965
  139.7697  144.7480  151.0242 LP  0  0  0  0  0  0  0  0  0  0  0  0  # atno 17342 bound_to 10162
  140.7810  143.4658  151.0214 LP  0  0  0  0  0  0  0  0  0  0  0  0  # atno 17343 bound_to 10162
  156.6078  130.8574  151.3447 LP  0  0  0  0  0  0  0  0  0  0  0  0  # atno 17370 bound_to 10713
  157.7245  130.9604  150.1577 LP  0  0  0  0  0  0  0  0  0  0  0  0  # atno 17371 bound_to 10713
  140.9238  134.2108  157.4909 LP  0  0  0  0  0  0  0  0  0  0  0  0  # atno 17394 bound_to 11000
  139.8717  134.9804  156.5073 LP  0  0  0  0  0  0  0  0  0  0  0  0  # atno 17395 bound_to 11000

$$$$
