AV-unprocessed.smi:3141|AV-procd|sdf|11967|dock6
  -GOLD-   2272017363D 1   1.00000     0.00000
 Structure written by MMmdl.
 35 37  0  0  0  0  0  0  0  0  1 V2000
  146.8351  142.0548  159.3170 O   0  0  0  0  0  0  0  0  0  0  0  0
  147.4109  142.9452  158.6910 C   0  0  0  0  0  0  0  0  0  0  0  0
  147.2653  144.2538  158.9356 N   0  0  0  0  0  0  0  0  0  0  0  0
  146.4499  144.8165  159.9622 C   0  0  0  0  0  0  0  0  0  0  0  0
  147.1118  145.7418  160.9600 C   0  0  0  0  0  0  0  0  0  0  0  0
  146.6993  144.3591  161.3830 C   0  0  0  0  0  0  0  0  0  0  0  0
  148.2801  142.7223  157.6945 N   0  0  0  0  0  0  0  0  0  0  0  0
  148.7046  141.4043  157.2167 C   0  0  1  0  0  0  0  0  0  0  0  0
  148.0826  141.1206  155.8323 C   0  0  0  0  0  0  0  0  0  0  0  0
  149.2466  140.9350  154.8490 C   0  0  0  0  0  0  0  0  0  0  0  0
  150.4442  141.6084  155.5143 C   0  0  0  0  0  0  0  0  0  0  0  0
  150.2335  141.2995  156.9994 C   0  0  1  0  0  0  0  0  0  0  0  0
  151.0587  142.0781  157.9178 N   0  0  0  0  0  0  0  0  0  0  0  0
  151.2049  143.4607  157.9959 C   0  0  0  0  0  0  0  0  0  0  0  0
  152.0547  143.7101  159.0493 C   0  0  0  0  0  0  0  0  0  0  0  0
  152.4319  142.5086  159.6420 N   0  0  0  0  0  0  0  0  0  0  0  0
  151.7985  141.5904  158.9240 C   0  0  0  0  0  0  0  0  0  0  0  0
  147.7865  144.9033  158.3650 H   0  0  0  0  0  0  0  0  0  0  0  0
  145.4153  145.0453  159.7101 H   0  0  0  0  0  0  0  0  0  0  0  0
  148.1768  145.9357  160.8468 H   0  0  0  0  0  0  0  0  0  0  0  0
  146.5242  146.5776  161.3346 H   0  0  0  0  0  0  0  0  0  0  0  0
  145.8365  144.2716  162.0401 H   0  0  0  0  0  0  0  0  0  0  0  0
  147.4885  143.6289  161.5522 H   0  0  0  0  0  0  0  0  0  0  0  0
  148.7015  143.5226  157.2463 H   0  0  0  0  0  0  0  0  0  0  0  0
  148.3837  140.6363  157.9230 H   0  0  0  0  0  0  0  0  0  0  0  0
  147.4488  140.2334  155.8539 H   0  0  0  0  0  0  0  0  0  0  0  0
  147.4525  141.9493  155.5051 H   0  0  0  0  0  0  0  0  0  0  0  0
  149.4523  139.8708  154.7243 H   0  0  0  0  0  0  0  0  0  0  0  0
  149.0314  141.3463  153.8624 H   0  0  0  0  0  0  0  0  0  0  0  0
  151.3977  141.2369  155.1379 H   0  0  0  0  0  0  0  0  0  0  0  0
  150.3992  142.6805  155.3226 H   0  0  0  0  0  0  0  0  0  0  0  0
  150.5092  140.2529  157.1426 H   0  0  0  0  0  0  0  0  0  0  0  0
  150.7057  144.1414  157.3233 H   0  0  0  0  0  0  0  0  0  0  0  0
  152.4130  144.6555  159.4290 H   0  0  0  0  0  0  0  0  0  0  0  0
  151.8692  140.5343  159.1398 H   0  0  0  0  0  0  0  0  0  0  0  0
  1  2  2  0  0  0  0
  2  3  1  0  0  0  0
  2  7  1  0  0  0  0
  3  4  1  0  0  0  0
  3 18  1  0  0  0  0
  4  6  1  0  0  0  0
  4  5  1  0  0  0  0
  4 19  1  0  0  0  0
  5  6  1  0  0  0  0
  5 20  1  0  0  0  0
  5 21  1  0  0  0  0
  6 22  1  0  0  0  0
  6 23  1  0  0  0  0
  7  8  1  0  0  0  0
  7 24  1  0  0  0  0
  8 12  1  0  0  0  0
  8  9  1  0  0  0  0
  8 25  1  0  0  0  0
  9 10  1  0  0  0  0
  9 26  1  0  0  0  0
  9 27  1  0  0  0  0
 10 11  1  0  0  0  0
 10 28  1  0  0  0  0
 10 29  1  0  0  0  0
 11 12  1  0  0  0  0
 11 30  1  0  0  0  0
 11 31  1  0  0  0  0
 12 13  1  0  0  0  0
 12 32  1  0  0  0  0
 13 17  1  0  0  0  0
 13 14  1  0  0  0  0
 14 15  2  0  0  0  0
 14 33  1  0  0  0  0
 15 16  1  0  0  0  0
 15 34  1  0  0  0  0
 16 17  2  0  0  0  0
 17 35  1  0  0  0  0
M  END
> <s_m_source_file>
AV-unprocessed.smi

> <i_m_source_file_index>
3141

> <i_lp_mmshare_version>
43012

> <i_f3d_flags>
0

> <s_epik_input>
W0NIMl0xW0NIMl1bQ0hdMVtOSF1DKD1PKVtOSF1bQ0BASF0yW0NIMl1bQ0gyXVtDSDJdW0NASF0ybjNbY0hdW2NIXW5bY0hdMw==

> <s_epik_cmdline>
J2VwaWtfcHl0aG9uJywgJy1waCcsICc3LjAnLCAnLXRuJywgJzgnLCAnLW1hJywgJzIwMCcsICctbWV0YWxfYmluZGluZycsICctaW1hZScsICc8aW5maWxlLm1hZT4nLCAnLW9tYWUnLCAnPG91dGZpbGUubWFlPic=

> <r_lp_tautomer_probability>
1

> <r_epik_Ionization_Penalty>
0.728419

> <r_epik_Ionization_Penalty_Charging>
0.728357

> <r_epik_Ionization_Penalty_Neutral>
6.27871e-05

> <r_epik_State_Penalty>
0.753408

> <r_epik_Charging_Adjusted_Penalty>
1.48176

> <i_epik_Tot_Q>
0

> <i_epik_Tot_abs_Q>
0

> <r_epik_Metal_State_Penalty>
0.332413

> <b_epik_Metal_Only>
0

> <s_lp_Force_Field>
OPLS_2005

> <r_lp_Energy>
36.0261

> <b_lp_Chiralities_Consistent>
1

> <s_lp_Variant>
AV-unprocessed.smi:3141-6

> <Gold.Version>
5.8.1

> <Gold.Id.Protein>
6NUR|6NUR_protein|mol2

> <Gold.PLP.Fitness>
41.8829

> <Gold.PLP.PLP>
-31.4143

> <Gold.PLP.part.hbond>
-3.2119

> <Gold.PLP.part.metal>
0.0000

> <Gold.PLP.part.buried>
-4.8511

> <Gold.PLP.part.nonpolar>
-24.0737

> <Gold.PLP.part.repulsive>
0.1626

> <Gold.PLP.ligand.clash>
0.0000

> <Gold.PLP.ligand.torsion>
0.3719

> <Gold.PLP.Chemscore.Hbond>
2.7160

> <Gold.PLP.Chemscore.CHOScore>
1.0000

> <Gold.PLP.Chemscore.Metal>
0.0000

> <Gold.Chemscore.Hbonds>
donor molecule, donor type, donor heavy atom, donor atom, acceptor molecule, acceptor atom, score
      L1  H     3    18       P1  8029  0.94
      L1  H     7    24       P1  8028  0.90
      P1  H  6934  6946       L1     1  0.82
      L1  C    14    33       P1  8028  1.00

> <Gold.PLP.Chemscore.Internal.Correction>
0.0645

> <Gold.Rescore>
     Score         DG    S(hbond)    S(metal)    S(lipo)     H(rot)  DE(clash)    DE(int)     intcor
     14.04     -15.57       1.88        0.00      66.93       1.57       0.18       1.34       ----

> <Gold.Chemscore.Fitness>
14.0387

> <Gold.Chemscore.DG>
-15.5672

> <Gold.Chemscore.ZeroCoef>
-5.4800

> <Gold.Chemscore.Hbond>
1.8795

> <Gold.Chemscore.Metal>
0.0000

> <Gold.Chemscore.Lipo>
66.9262

> <Gold.Chemscore.Internal_Hbond>
0.0000

> <Gold.Chemscore.DEClash>
0.1839

> <Gold.Chemscore.DEInternal>
1.3446

> <Gold.Chemscore.Rot>
1.5705

> <Gold.Chemscore.Internal.Correction>
   9.000000E+99

> <Gold.Chemscore.Hbonds>
donor molecule, donor type, donor heavy atom, donor atom, acceptor molecule, acceptor atom, score
      L1  H     3    18       P1  8029  0.85
      L1  H     7    24       P1  8028  0.17
      P1  H  6934  6946       L1     1  0.81

> <Gold.Chemscore.Hbond.Weighted>
-6.2774

> <Gold.Chemscore.Metal.Weighted>
-0.0000

> <Gold.Chemscore.Lipo.Weighted>
-7.8304

> <Gold.Chemscore.Internal_Hbond.Weighted>
0.0000

> <Gold.Chemscore.DEClash.Weighted>
0.1839

> <Gold.Chemscore.DEInternal.Weighted>
1.3446

> <Gold.Chemscore.Rot.Weighted>
4.0206

> <Gold.Chemscore.Internal.Correction.Weighted>
   9.000000E+99

> <Gold.Protein.RotatedTorsions>
[ 6907 6896 6895 6894 ] final  106.45 input  -60.11 | X-H torsion
[ 7974 7965 7964 7962 ] final  177.78 input  175.53 | X-H torsion
[ 8008 7997 7996 7995 ] final  -89.22 input   59.86 | X-H torsion
[ 10167 10162 10161 10158 ] final -165.68 input  -65.29 | X-H torsion
[ 10718 10713 10712 10709 ] final  -38.62 input   66.30 | X-H torsion
[ 10763 10752 10751 10750 ] final  151.40 input  -60.55 | X-H torsion
[ 11005 11000 10999 10996 ] final  172.32 input  -57.11 | X-H torsion

> <Gold.Protein.ActiveResidues>
 VAL166  LYS551  ARG553  GLY616  TRP617  ASP618  TYR619  PRO620  LYS621  CYS622 
 ASP623  PHE694  ASN695  SER759  ASP760  ASP761  ALA762  ILE779  LEU786  VAL792 
 PHE793  MET794  SER795  GLU796  ALA797  LYS798  CYS799  TRP800  GLU811  SER814 

> <Gold.Protein.RotatedAtoms>
  152.5193  133.9379  159.7611 H   0  0  0  0  0  0  0  0  0  0  0  0  # atno 6907 bound_to 6896
  150.9715  133.6331  159.2744 H   0  0  0  0  0  0  0  0  0  0  0  0  # atno 6908 bound_to 6896
  151.3540  135.0896  159.9465 H   0  0  0  0  0  0  0  0  0  0  0  0  # atno 6909 bound_to 6896
  144.7164  140.0299  143.6439 H   0  0  0  0  0  0  0  0  0  0  0  0  # atno 7974 bound_to 7965
  154.6840  140.0544  157.0295 H   0  0  0  0  0  0  0  0  0  0  0  0  # atno 8008 bound_to 7997
  155.0911  140.3219  155.4554 H   0  0  0  0  0  0  0  0  0  0  0  0  # atno 8009 bound_to 7997
  156.2704  140.2048  156.6038 H   0  0  0  0  0  0  0  0  0  0  0  0  # atno 8010 bound_to 7997
  139.6165  144.0709  152.1893 H   0  0  0  0  0  0  0  0  0  0  0  0  # atno 10167 bound_to 10162
  156.3017  130.4241  149.8137 H   0  0  0  0  0  0  0  0  0  0  0  0  # atno 10718 bound_to 10713
  154.1032  135.2844  155.3247 H   0  0  0  0  0  0  0  0  0  0  0  0  # atno 10763 bound_to 10752
  154.6541  135.5358  153.7941 H   0  0  0  0  0  0  0  0  0  0  0  0  # atno 10764 bound_to 10752
  153.0371  135.6517  154.1194 H   0  0  0  0  0  0  0  0  0  0  0  0  # atno 10765 bound_to 10752
  140.3284  134.7378  157.4116 H   0  0  0  0  0  0  0  0  0  0  0  0  # atno 11005 bound_to 11000
  146.0111  139.3171  143.0870 LP  0  0  0  0  0  0  0  0  0  0  0  0  # atno 17320 bound_to 7965
  145.8680  140.9436  143.0665 LP  0  0  0  0  0  0  0  0  0  0  0  0  # atno 17321 bound_to 7965
  140.0340  144.6059  150.7464 LP  0  0  0  0  0  0  0  0  0  0  0  0  # atno 17342 bound_to 10162
  140.7354  143.2741  151.3797 LP  0  0  0  0  0  0  0  0  0  0  0  0  # atno 17343 bound_to 10162
  156.5512  130.8343  151.3300 LP  0  0  0  0  0  0  0  0  0  0  0  0  # atno 17370 bound_to 10713
  157.7369  130.9787  150.2165 LP  0  0  0  0  0  0  0  0  0  0  0  0  # atno 17371 bound_to 10713
  140.0881  134.5638  155.8471 LP  0  0  0  0  0  0  0  0  0  0  0  0  # atno 17394 bound_to 11000
  141.2069  133.6660  156.6274 LP  0  0  0  0  0  0  0  0  0  0  0  0  # atno 17395 bound_to 11000

$$$$
