AV-unprocessed.smi:2061|AV-procd|sdf|8361|dock10
  -GOLD-   2272011 33D 1   1.00000     0.00000
 Structure written by MMmdl.
 45 46  0  0  0  0  0  0  0  0  1 V2000
  149.5502  141.7854  155.1911 C   0  0  0  0  0  0  0  0  0  0  0  0
  149.9286  140.3762  154.8881 C   0  0  0  0  0  0  0  0  0  0  0  0
  149.1954  139.2473  154.6516 C   0  0  0  0  0  0  0  0  0  0  0  0
  150.1915  138.2600  154.4286 C   0  0  0  0  0  0  0  0  0  0  0  0
  149.8347  136.9188  154.1362 N   0  0  0  0  0  0  0  0  0  0  0  0
  149.9325  135.8505  154.9457 C   0  0  0  0  0  0  0  0  0  0  0  0
  150.3341  135.8785  156.1092 O   0  0  0  0  0  0  0  0  0  0  0  0
  149.5393  134.7307  154.3206 N   0  0  0  0  0  0  0  0  0  0  0  0
  149.5294  133.3903  154.9028 C   0  0  0  0  0  0  0  0  0  0  0  0
  149.4182  132.2646  153.8353 C   0  0  1  0  0  0  0  0  0  0  0  0
  150.2161  131.0258  154.3177 C   0  0  0  0  0  0  0  0  0  0  0  0
  148.0179  131.9374  153.4760 N   0  0  0  0  0  0  0  0  0  0  0  0
  147.4437  132.8768  152.5063 C   0  0  0  0  0  0  0  0  0  0  0  0
  145.9955  132.5264  152.1140 C   0  0  1  0  0  0  0  0  0  0  0  0
  145.4420  133.4690  151.0401 C   0  0  0  0  0  0  0  0  0  0  0  0
  145.9576  131.2004  151.6029 O   0  0  0  0  0  0  0  0  0  0  0  0
  146.4282  130.2396  152.5390 C   0  0  1  0  0  0  0  0  0  0  0  0
  146.3130  128.8514  151.9010 C   0  0  0  0  0  0  0  0  0  0  0  0
  147.8782  130.5834  152.9285 C   0  0  0  0  0  0  0  0  0  0  0  0
  151.4214  138.7419  154.5223 N   0  0  0  0  0  0  0  0  0  0  0  0
  151.2591  140.1006  154.8168 O   0  0  0  0  0  0  0  0  0  0  0  0
  148.6160  141.8249  155.7513 H   0  0  0  0  0  0  0  0  0  0  0  0
  149.4185  142.3545  154.2708 H   0  0  0  0  0  0  0  0  0  0  0  0
  150.3202  142.2772  155.7860 H   0  0  0  0  0  0  0  0  0  0  0  0
  148.1201  139.1482  154.6384 H   0  0  0  0  0  0  0  0  0  0  0  0
  149.4815  136.7524  153.2057 H   0  0  0  0  0  0  0  0  0  0  0  0
  149.2276  134.8076  153.3638 H   0  0  0  0  0  0  0  0  0  0  0  0
  150.4020  133.2201  155.5358 H   0  0  0  0  0  0  0  0  0  0  0  0
  148.6668  133.3909  155.5661 H   0  0  0  0  0  0  0  0  0  0  0  0
  149.9169  132.6309  152.9365 H   0  0  0  0  0  0  0  0  0  0  0  0
  151.2370  131.2745  154.6033 H   0  0  0  0  0  0  0  0  0  0  0  0
  150.3224  130.2701  153.5413 H   0  0  0  0  0  0  0  0  0  0  0  0
  149.7384  130.5604  155.1805 H   0  0  0  0  0  0  0  0  0  0  0  0
  147.4223  133.8848  152.9158 H   0  0  0  0  0  0  0  0  0  0  0  0
  148.0675  132.9093  151.6117 H   0  0  0  0  0  0  0  0  0  0  0  0
  145.3538  132.5856  152.9949 H   0  0  0  0  0  0  0  0  0  0  0  0
  145.4375  134.5021  151.3886 H   0  0  0  0  0  0  0  0  0  0  0  0
  144.4178  133.2019  150.7784 H   0  0  0  0  0  0  0  0  0  0  0  0
  146.0406  133.4243  150.1299 H   0  0  0  0  0  0  0  0  0  0  0  0
  145.7951  130.2690  153.4276 H   0  0  0  0  0  0  0  0  0  0  0  0
  146.6502  128.0748  152.5878 H   0  0  0  0  0  0  0  0  0  0  0  0
  146.9146  128.7819  150.9943 H   0  0  0  0  0  0  0  0  0  0  0  0
  145.2796  128.6315  151.6326 H   0  0  0  0  0  0  0  0  0  0  0  0
  148.5274  130.4694  152.0587 H   0  0  0  0  0  0  0  0  0  0  0  0
  148.1939  129.8408  153.6588 H   0  0  0  0  0  0  0  0  0  0  0  0
  1  2  1  0  0  0  0
  1 22  1  0  0  0  0
  1 23  1  0  0  0  0
  1 24  1  0  0  0  0
  2 21  1  0  0  0  0
  2  3  2  0  0  0  0
  3  4  1  0  0  0  0
  3 25  1  0  0  0  0
  4  5  1  0  0  0  0
  4 20  2  0  0  0  0
  5  6  1  0  0  0  0
  5 26  1  0  0  0  0
  6  7  2  0  0  0  0
  6  8  1  0  0  0  0
  8  9  1  0  0  0  0
  8 27  1  0  0  0  0
  9 10  1  0  0  0  0
  9 28  1  0  0  0  0
  9 29  1  0  0  0  0
 10 11  1  0  0  0  0
 10 12  1  0  0  0  0
 10 30  1  0  0  0  0
 11 31  1  0  0  0  0
 11 32  1  0  0  0  0
 11 33  1  0  0  0  0
 12 19  1  0  0  0  0
 12 13  1  0  0  0  0
 13 14  1  0  0  0  0
 13 34  1  0  0  0  0
 13 35  1  0  0  0  0
 14 15  1  0  0  0  0
 14 16  1  0  0  0  0
 14 36  1  0  0  0  0
 15 37  1  0  0  0  0
 15 38  1  0  0  0  0
 15 39  1  0  0  0  0
 16 17  1  0  0  0  0
 17 18  1  0  0  0  0
 17 19  1  0  0  0  0
 17 40  1  0  0  0  0
 18 41  1  0  0  0  0
 18 42  1  0  0  0  0
 18 43  1  0  0  0  0
 19 44  1  0  0  0  0
 19 45  1  0  0  0  0
 20 21  1  0  0  0  0
M  END
> <s_m_source_file>
AV-unprocessed.smi

> <i_m_source_file_index>
2061

> <i_lp_mmshare_version>
43012

> <i_f3d_flags>
0

> <s_epik_input>
W0NIM11jMVtjSF1jKG5vMSlbTkhdQyg9TylbTkhdW0NIMl1bQ0BIXShbQ0gzXSlOMltDSDJdW0NAQEhdKFtDSDNdKU9bQ0BASF0oW0NIM10pW0NIMl0y

> <s_epik_cmdline>
J2VwaWtfcHl0aG9uJywgJy1waCcsICc3LjAnLCAnLXRuJywgJzgnLCAnLW1hJywgJzIwMCcsICctbWV0YWxfYmluZGluZycsICctaW1hZScsICc8aW5maWxlLm1hZT4nLCAnLW9tYWUnLCAnPG91dGZpbGUubWFlPic=

> <r_epik_Ionization_Penalty>
0.214073

> <r_epik_Ionization_Penalty_Charging>
0

> <r_epik_Ionization_Penalty_Neutral>
0.214073

> <r_epik_State_Penalty>
0.204211

> <r_epik_Charging_Adjusted_Penalty>
0.204211

> <i_epik_Tot_Q>
0

> <i_epik_Tot_abs_Q>
0

> <r_epik_Metal_State_Penalty>
0.217067

> <b_epik_Metal_Only>
0

> <s_lp_Force_Field>
OPLS_2005

> <r_lp_Energy>
26.0702

> <b_lp_Chiralities_Consistent>
1

> <s_lp_Variant>
AV-unprocessed.smi:2061-2

> <Gold.Version>
5.8.1

> <Gold.Id.Protein>
6NUR|6NUR_protein|mol2

> <Gold.PLP.Fitness>
38.8782

> <Gold.PLP.PLP>
-34.9586

> <Gold.PLP.part.hbond>
-3.5403

> <Gold.PLP.part.metal>
0.0000

> <Gold.PLP.part.buried>
-1.5484

> <Gold.PLP.part.nonpolar>
-29.7749

> <Gold.PLP.part.repulsive>
0.5131

> <Gold.PLP.ligand.clash>
0.0000

> <Gold.PLP.ligand.torsion>
1.7052

> <Gold.PLP.Chemscore.Hbond>
2.4334

> <Gold.PLP.Chemscore.CHOScore>
0.0000

> <Gold.PLP.Chemscore.Metal>
0.0000

> <Gold.Chemscore.Hbonds>
donor molecule, donor type, donor heavy atom, donor atom, acceptor molecule, acceptor atom, score
      L1  H     5    26       P1  7948  0.93
      L1  H     8    27       P1  7948  0.53
      P1  H  7989  7998       L1    21  1.00

> <Gold.PLP.Chemscore.Internal.Correction>
0.0296

> <Gold.Rescore>
     Score         DG    S(hbond)    S(metal)    S(lipo)     H(rot)  DE(clash)    DE(int)     intcor
     14.03     -15.66       1.59        0.00      75.38       1.55       0.06       1.56       ----

> <Gold.Chemscore.Fitness>
14.0337

> <Gold.Chemscore.DG>
-15.6602

> <Gold.Chemscore.ZeroCoef>
-5.4800

> <Gold.Chemscore.Hbond>
1.5935

> <Gold.Chemscore.Metal>
0.0000

> <Gold.Chemscore.Lipo>
75.3769

> <Gold.Chemscore.Internal_Hbond>
0.0000

> <Gold.Chemscore.DEClash>
0.0631

> <Gold.Chemscore.DEInternal>
1.5634

> <Gold.Chemscore.Rot>
1.5474

> <Gold.Chemscore.Internal.Correction>
   9.000000E+99

> <Gold.Chemscore.Hbonds>
donor molecule, donor type, donor heavy atom, donor atom, acceptor molecule, acceptor atom, score
      L1  H     5    26       P1  7948  0.66
      L1  H     8    27       P1  7948  0.04
      P1  H  7989  7998       L1    21  0.16

> <Gold.Chemscore.Hbond.Weighted>
-5.3223

> <Gold.Chemscore.Metal.Weighted>
-0.0000

> <Gold.Chemscore.Lipo.Weighted>
-8.8191

> <Gold.Chemscore.Internal_Hbond.Weighted>
0.0000

> <Gold.Chemscore.DEClash.Weighted>
0.0631

> <Gold.Chemscore.DEInternal.Weighted>
1.5634

> <Gold.Chemscore.Rot.Weighted>
3.9612

> <Gold.Chemscore.Internal.Correction.Weighted>
   9.000000E+99

> <Gold.Protein.RotatedTorsions>
[ 6907 6896 6895 6894 ] final  139.31 input  -60.11 | X-H torsion
[ 7974 7965 7964 7962 ] final  -63.51 input  175.53 | X-H torsion
[ 8008 7997 7996 7995 ] final  152.13 input   59.86 | X-H torsion
[ 10167 10162 10161 10158 ] final   60.16 input  -65.29 | X-H torsion
[ 10718 10713 10712 10709 ] final -118.47 input   66.30 | X-H torsion
[ 10763 10752 10751 10750 ] final   52.54 input  -60.55 | X-H torsion
[ 11005 11000 10999 10996 ] final   76.95 input  -57.11 | X-H torsion

> <Gold.Protein.ActiveResidues>
 VAL166  LYS551  ARG553  GLY616  TRP617  ASP618  TYR619  PRO620  LYS621  CYS622 
 ASP623  PHE694  ASN695  SER759  ASP760  ASP761  ALA762  ILE779  LEU786  VAL792 
 PHE793  MET794  SER795  GLU796  ALA797  LYS798  CYS799  TRP800  GLU811  SER814 

> <Gold.Protein.RotatedAtoms>
  152.2564  133.5259  159.5355 H   0  0  0  0  0  0  0  0  0  0  0  0  # atno 6907 bound_to 6896
  150.7110  134.0890  159.3934 H   0  0  0  0  0  0  0  0  0  0  0  0  # atno 6908 bound_to 6896
  151.8808  135.0454  160.0539 H   0  0  0  0  0  0  0  0  0  0  0  0  # atno 6909 bound_to 6896
  145.7782  140.8776  143.0344 H   0  0  0  0  0  0  0  0  0  0  0  0  # atno 7974 bound_to 7965
  156.2643  140.2029  156.6285 H   0  0  0  0  0  0  0  0  0  0  0  0  # atno 8008 bound_to 7997
  154.6701  140.0551  157.0181 H   0  0  0  0  0  0  0  0  0  0  0  0  # atno 8009 bound_to 7997
  155.1149  140.3219  155.4515 H   0  0  0  0  0  0  0  0  0  0  0  0  # atno 8010 bound_to 7997
  140.1686  144.4299  150.6672 H   0  0  0  0  0  0  0  0  0  0  0  0  # atno 10167 bound_to 10162
  156.1109  130.6248  150.9295 H   0  0  0  0  0  0  0  0  0  0  0  0  # atno 10718 bound_to 10713
  152.9789  135.5809  154.4596 H   0  0  0  0  0  0  0  0  0  0  0  0  # atno 10763 bound_to 10752
  154.4173  135.2771  155.2000 H   0  0  0  0  0  0  0  0  0  0  0  0  # atno 10764 bound_to 10752
  154.3764  135.6156  153.5821 H   0  0  0  0  0  0  0  0  0  0  0  0  # atno 10765 bound_to 10752
  139.9276  134.7643  156.1460 H   0  0  0  0  0  0  0  0  0  0  0  0  # atno 11005 bound_to 11000
  144.6801  139.9951  143.7484 LP  0  0  0  0  0  0  0  0  0  0  0  0  # atno 17320 bound_to 7965
  146.0101  139.3162  143.0875 LP  0  0  0  0  0  0  0  0  0  0  0  0  # atno 17321 bound_to 7965
  140.6596  143.2248  151.5886 LP  0  0  0  0  0  0  0  0  0  0  0  0  # atno 17342 bound_to 10162
  139.5348  144.2812  152.1227 LP  0  0  0  0  0  0  0  0  0  0  0  0  # atno 17343 bound_to 10162
  157.6290  131.0923  150.8478 LP  0  0  0  0  0  0  0  0  0  0  0  0  # atno 17370 bound_to 10713
  156.8589  130.5106  149.5305 LP  0  0  0  0  0  0  0  0  0  0  0  0  # atno 17371 bound_to 10713
  141.0843  133.6741  156.2403 LP  0  0  0  0  0  0  0  0  0  0  0  0  # atno 17394 bound_to 11000
  140.6293  134.5280  157.5557 LP  0  0  0  0  0  0  0  0  0  0  0  0  # atno 17395 bound_to 11000

$$$$
