AV-unprocessed.smi:243|AV-procd|sdf|1862|dock1
  -GOLD-   2262020493D 1   1.00000     0.00000
 Structure written by MMmdl.
 58 61  0  0  0  0  0  0  0  0  2 V2000
  147.6246  127.8140  150.8354 C   0  0  0  0  0  0  0  0  0  0  0  0
  146.6809  128.7257  151.6335 C   0  0  0  0  0  0  0  0  0  0  0  0
  147.3497  129.9609  152.1158 N   0  3  2  0  0  0  0  0  0  0  0  0
  148.1894  129.7363  153.3192 C   0  0  0  0  0  0  0  0  0  0  0  0
  148.9534  131.0127  153.7218 C   0  0  0  0  0  0  0  0  0  0  0  0
  148.0549  132.2567  153.9022 C   0  0  2  0  0  0  0  0  0  0  0  0
  147.4522  132.3867  155.2429 N   0  0  0  0  0  0  0  0  0  0  0  0
  146.5816  131.3314  155.7513 C   0  0  0  0  0  0  0  0  0  0  0  0
  148.0597  133.1060  156.2133 C   0  0  0  0  0  0  0  0  0  0  0  0
  149.2681  133.6731  155.9648 N   0  0  0  0  0  0  0  0  0  0  0  0
  149.8796  134.3880  156.9140 C   0  0  0  0  0  0  0  0  0  0  0  0
  149.4702  134.6461  158.1578 N   0  0  0  0  0  0  0  0  0  0  0  0
  148.2727  134.0485  158.4205 C   0  0  0  0  0  0  0  0  0  0  0  0
  147.5089  133.2616  157.5138 C   0  0  0  0  0  0  0  0  0  0  0  0
  146.3475  132.8166  158.1315 N   0  0  0  0  0  0  0  0  0  0  0  0
  146.4145  133.3213  159.3332 C   0  0  0  0  0  0  0  0  0  0  0  0
  147.5396  134.0710  159.5940 N   0  0  0  0  0  0  0  0  0  0  0  0
  147.8693  134.7447  160.8405 C   0  0  0  0  0  0  0  0  0  0  0  0
  147.1408  136.0966  161.0221 C   0  0  2  0  0  0  0  0  0  0  0  0
  147.9634  137.1367  160.5231 O   0  0  0  0  0  0  0  0  0  0  0  0
  146.7754  136.4201  162.4685 C   0  0  0  0  0  0  0  0  0  0  0  0
  145.4785  137.2043  162.3250 C   0  0  0  0  0  0  0  0  0  0  0  0
  144.8171  136.5129  161.2800 O   0  0  0  0  0  0  0  0  0  0  0  0
  145.7821  136.1571  160.2955 C   0  0  0  0  0  0  0  0  0  0  0  0
  147.0988  132.3904  152.6818 C   0  0  2  0  0  0  0  0  0  0  0  0
  146.1208  133.5743  152.7454 C   0  0  0  0  0  0  0  0  0  0  0  0
  146.3847  131.0702  152.3220 C   0  0  0  0  0  0  0  0  0  0  0  0
  147.0761  126.9700  150.4164 H   0  0  0  0  0  0  0  0  0  0  0  0
  148.4211  127.4027  151.4547 H   0  0  0  0  0  0  0  0  0  0  0  0
  148.0844  128.3521  150.0059 H   0  0  0  0  0  0  0  0  0  0  0  0
  145.8537  128.9989  150.9770 H   0  0  0  0  0  0  0  0  0  0  0  0
  146.2409  128.1855  152.4732 H   0  0  0  0  0  0  0  0  0  0  0  0
  147.5610  129.3724  154.1295 H   0  0  0  0  0  0  0  0  0  0  0  0
  148.9185  128.9506  153.1261 H   0  0  0  0  0  0  0  0  0  0  0  0
  149.5544  130.8388  154.6139 H   0  0  0  0  0  0  0  0  0  0  0  0
  149.6728  131.2292  152.9309 H   0  0  0  0  0  0  0  0  0  0  0  0
  148.7332  133.1090  153.8457 H   0  0  0  0  0  0  0  0  0  0  0  0
  147.1226  130.6245  156.3801 H   0  0  0  0  0  0  0  0  0  0  0  0
  146.1222  130.7742  154.9349 H   0  0  0  0  0  0  0  0  0  0  0  0
  145.7786  131.7654  156.3482 H   0  0  0  0  0  0  0  0  0  0  0  0
  150.8328  134.8142  156.6377 H   0  0  0  0  0  0  0  0  0  0  0  0
  145.6397  133.1568  160.0679 H   0  0  0  0  0  0  0  0  0  0  0  0
  147.6350  134.0741  161.6685 H   0  0  0  0  0  0  0  0  0  0  0  0
  148.9494  134.8951  160.8668 H   0  0  0  0  0  0  0  0  0  0  0  0
  148.5595  136.7696  159.8885 H   0  0  0  0  0  0  0  0  0  0  0  0
  146.5672  135.5021  163.0198 H   0  0  0  0  0  0  0  0  0  0  0  0
  147.5511  136.9639  163.0096 H   0  0  0  0  0  0  0  0  0  0  0  0
  144.8866  137.2147  163.2404 H   0  0  0  0  0  0  0  0  0  0  0  0
  145.6716  138.2349  162.0235 H   0  0  0  0  0  0  0  0  0  0  0  0
  145.7765  136.8998  159.4960 H   0  0  0  0  0  0  0  0  0  0  0  0
  145.5042  135.2005  159.8519 H   0  0  0  0  0  0  0  0  0  0  0  0
  147.7500  132.6063  151.8331 H   0  0  0  0  0  0  0  0  0  0  0  0
  145.3441  133.4157  153.4929 H   0  0  0  0  0  0  0  0  0  0  0  0
  145.6205  133.7164  151.7872 H   0  0  0  0  0  0  0  0  0  0  0  0
  146.6391  134.5038  152.9818 H   0  0  0  0  0  0  0  0  0  0  0  0
  145.8189  131.2197  151.4014 H   0  0  0  0  0  0  0  0  0  0  0  0
  145.6582  130.7867  153.0803 H   0  0  0  0  0  0  0  0  0  0  0  0
  147.9681  130.2606  151.3754 H   0  0  0  0  0  0  0  0  0  0  0  0
  1  2  1  0  0  0  0
  1 28  1  0  0  0  0
  1 29  1  0  0  0  0
  1 30  1  0  0  0  0
  2  3  1  0  0  0  0
  2 31  1  0  0  0  0
  2 32  1  0  0  0  0
  3 27  1  0  0  0  0
  3  4  1  0  0  0  0
  3 58  1  0  0  0  0
  4  5  1  0  0  0  0
  4 33  1  0  0  0  0
  4 34  1  0  0  0  0
  5  6  1  0  0  0  0
  5 35  1  0  0  0  0
  5 36  1  0  0  0  0
  6  7  1  0  0  0  0
  6 25  1  0  0  0  0
  6 37  1  0  0  0  0
  7  8  1  0  0  0  0
  7  9  1  0  0  0  0
  8 38  1  0  0  0  0
  8 39  1  0  0  0  0
  8 40  1  0  0  0  0
  9 14  1  0  0  0  0
  9 10  2  0  0  0  0
 10 11  1  0  0  0  0
 11 12  2  0  0  0  0
 11 41  1  0  0  0  0
 12 13  1  0  0  0  0
 13 17  1  0  0  0  0
 13 14  2  0  0  0  0
 14 15  1  0  0  0  0
 15 16  2  0  0  0  0
 16 17  1  0  0  0  0
 16 42  1  0  0  0  0
 17 18  1  0  0  0  0
 18 19  1  0  0  0  0
 18 43  1  0  0  0  0
 18 44  1  0  0  0  0
 19 24  1  0  0  0  0
 19 20  1  0  0  0  0
 19 21  1  0  0  0  0
 20 45  1  0  0  0  0
 21 22  1  0  0  0  0
 21 46  1  0  0  0  0
 21 47  1  0  0  0  0
 22 23  1  0  0  0  0
 22 48  1  0  0  0  0
 22 49  1  0  0  0  0
 23 24  1  0  0  0  0
 24 50  1  0  0  0  0
 24 51  1  0  0  0  0
 25 26  1  0  0  0  0
 25 27  1  0  0  0  0
 25 52  1  0  0  0  0
 26 53  1  0  0  0  0
 26 54  1  0  0  0  0
 26 55  1  0  0  0  0
 27 56  1  0  0  0  0
 27 57  1  0  0  0  0
M  CHG  1   3   1
M  END
> <s_m_source_file>
AV-unprocessed.smi

> <i_m_source_file_index>
243

> <i_lp_mmshare_version>
43012

> <i_f3d_flags>
0

> <s_epik_input>
W0NIM11bQ0gyXU4xW0NIMl1bQ0gyXVtDQEhdKFtDQEBIXShbQ0gzXSlbQ0gyXTEpTihbQ0gzXSljKG5bY0hdbjIpYyhjMjMpbltjSF1uM1tDSDJdW0NAQF00KFtPSF0pW0NIMl1bQ0gyXU9bQ0gyXTQ=

> <s_epik_cmdline>
J2VwaWtfcHl0aG9uJywgJy1waCcsICc3LjAnLCAnLXRuJywgJzgnLCAnLW1hJywgJzIwMCcsICctbWV0YWxfYmluZGluZycsICctaW1hZScsICc8aW5maWxlLm1hZT4nLCAnLW9tYWUnLCAnPG91dGZpbGUubWFlPic=

> <r_lp_tautomer_probability>
1

> <r_epik_Ionization_Penalty>
0.00253099

> <r_epik_Ionization_Penalty_Charging>
0.00137877

> <r_epik_Ionization_Penalty_Neutral>
0.00115221

> <r_epik_State_Penalty>
-0

> <r_epik_Charging_Adjusted_Penalty>
0.00137877

> <i_epik_Tot_Q>
1

> <i_epik_Tot_abs_Q>
1

> <r_epik_Metal_State_Penalty>
-0

> <b_epik_Metal_Only>
0

> <s_lp_Force_Field>
OPLS_2005

> <r_lp_Energy>
52.4668

> <b_lp_Chiralities_Consistent>
1

> <s_lp_Variant>
AV-unprocessed.smi:243-15

> <Gold.Version>
5.8.1

> <Gold.Id.Protein>
6NUR|6NUR_protein|mol2

> <Gold.PLP.Fitness>
45.2372

> <Gold.PLP.PLP>
-37.0242

> <Gold.PLP.part.hbond>
-4.0000

> <Gold.PLP.part.metal>
0.0000

> <Gold.PLP.part.buried>
-5.3587

> <Gold.PLP.part.nonpolar>
-28.4207

> <Gold.PLP.part.repulsive>
0.0358

> <Gold.PLP.ligand.clash>
0.0000

> <Gold.PLP.ligand.torsion>
1.6733

> <Gold.PLP.Chemscore.Hbond>
3.5067

> <Gold.PLP.Chemscore.CHOScore>
0.0000

> <Gold.PLP.Chemscore.Metal>
0.0000

> <Gold.Chemscore.Hbonds>
donor molecule, donor type, donor heavy atom, donor atom, acceptor molecule, acceptor atom, score
      L1  H     3    58       P1 10747  1.00
      P1  H  6896  6907       L1    12  1.00
      P1  H  6931  6943       L1    20  0.71
      P1  H  6934  6947       L1    20  0.72

> <Gold.PLP.Chemscore.Internal.Correction>
1.0394

> <Gold.Rescore>
     Score         DG    S(hbond)    S(metal)    S(lipo)     H(rot)  DE(clash)    DE(int)     intcor
     17.43     -20.63       3.11        0.00      89.59       2.24       0.25       2.95       ----

> <Gold.Chemscore.Fitness>
17.4327

> <Gold.Chemscore.DG>
-20.6301

> <Gold.Chemscore.ZeroCoef>
-5.4800

> <Gold.Chemscore.Hbond>
3.1129

> <Gold.Chemscore.Metal>
0.0000

> <Gold.Chemscore.Lipo>
89.5904

> <Gold.Chemscore.Internal_Hbond>
0.0000

> <Gold.Chemscore.DEClash>
0.2470

> <Gold.Chemscore.DEInternal>
2.9503

> <Gold.Chemscore.Rot>
2.2379

> <Gold.Chemscore.Internal.Correction>
   9.000000E+99

> <Gold.Chemscore.Hbonds>
donor molecule, donor type, donor heavy atom, donor atom, acceptor molecule, acceptor atom, score
      L1  H     3    58       P1 10747  0.98
      P1  H  6896  6907       L1    12  0.80
      P1  H  6931  6943       L1    20  0.45
      P1  H  6934  6947       L1    20  0.58

> <Gold.Chemscore.Hbond.Weighted>
-10.3971

> <Gold.Chemscore.Metal.Weighted>
-0.0000

> <Gold.Chemscore.Lipo.Weighted>
-10.4821

> <Gold.Chemscore.Internal_Hbond.Weighted>
0.0000

> <Gold.Chemscore.DEClash.Weighted>
0.2470

> <Gold.Chemscore.DEInternal.Weighted>
2.9503

> <Gold.Chemscore.Rot.Weighted>
5.7291

> <Gold.Chemscore.Internal.Correction.Weighted>
   9.000000E+99

> <Gold.Protein.RotatedTorsions>
[ 6907 6896 6895 6894 ] final  -79.25 input  -60.11 | X-H torsion
[ 7974 7965 7964 7962 ] final   -9.74 input  175.53 | X-H torsion
[ 8008 7997 7996 7995 ] final  -43.86 input   59.86 | X-H torsion
[ 10167 10162 10161 10158 ] final  102.17 input  -65.29 | X-H torsion
[ 10718 10713 10712 10709 ] final   17.39 input   66.30 | X-H torsion
[ 10763 10752 10751 10750 ] final -149.42 input  -60.55 | X-H torsion
[ 11005 11000 10999 10996 ] final   19.88 input  -57.11 | X-H torsion

> <Gold.Protein.ActiveResidues>
 VAL166  LYS551  ARG553  GLY616  TRP617  ASP618  TYR619  PRO620  LYS621  CYS622 
 ASP623  PHE694  ASN695  SER759  ASP760  ASP761  ALA762  ILE779  LEU786  VAL792 
 PHE793  MET794  SER795  GLU796  ALA797  LYS798  CYS799  TRP800  GLU811  SER814 

> <Gold.Protein.RotatedAtoms>
  150.6954  134.4150  159.5178 H   0  0  0  0  0  0  0  0  0  0  0  0  # atno 6907 bound_to 6896
  152.1902  134.8676  160.0527 H   0  0  0  0  0  0  0  0  0  0  0  0  # atno 6908 bound_to 6896
  151.9634  133.3667  159.4080 H   0  0  0  0  0  0  0  0  0  0  0  0  # atno 6909 bound_to 6896
  146.2242  140.2661  142.8354 H   0  0  0  0  0  0  0  0  0  0  0  0  # atno 7974 bound_to 7965
  154.3997  140.1437  156.3589 H   0  0  0  0  0  0  0  0  0  0  0  0  # atno 8008 bound_to 7997
  155.8199  140.3470  155.5487 H   0  0  0  0  0  0  0  0  0  0  0  0  # atno 8009 bound_to 7997
  155.8298  140.0910  157.1789 H   0  0  0  0  0  0  0  0  0  0  0  0  # atno 8010 bound_to 7997
  139.7373  144.7020  151.0629 H   0  0  0  0  0  0  0  0  0  0  0  0  # atno 10167 bound_to 10162
  157.0814  130.6389  149.5827 H   0  0  0  0  0  0  0  0  0  0  0  0  # atno 10718 bound_to 10713
  154.8178  135.3309  154.7126 H   0  0  0  0  0  0  0  0  0  0  0  0  # atno 10763 bound_to 10752
  153.7764  135.6922  153.4901 H   0  0  0  0  0  0  0  0  0  0  0  0  # atno 10764 bound_to 10752
  153.2009  135.4516  155.0214 H   0  0  0  0  0  0  0  0  0  0  0  0  # atno 10765 bound_to 10752
  140.4088  134.1640  155.7666 H   0  0  0  0  0  0  0  0  0  0  0  0  # atno 11005 bound_to 11000
  144.9303  140.7967  143.5693 LP  0  0  0  0  0  0  0  0  0  0  0  0  # atno 17320 bound_to 7965
  145.2604  139.1995  143.4895 LP  0  0  0  0  0  0  0  0  0  0  0  0  # atno 17321 bound_to 7965
  140.7781  143.4968  150.9822 LP  0  0  0  0  0  0  0  0  0  0  0  0  # atno 17342 bound_to 10162
  139.8656  143.7258  152.3170 LP  0  0  0  0  0  0  0  0  0  0  0  0  # atno 17343 bound_to 10162
  155.9922  130.4980  150.7332 LP  0  0  0  0  0  0  0  0  0  0  0  0  # atno 17370 bound_to 10713
  157.4797  131.0901  151.0550 LP  0  0  0  0  0  0  0  0  0  0  0  0  # atno 17371 bound_to 10713
  141.1829  133.8375  157.1193 LP  0  0  0  0  0  0  0  0  0  0  0  0  # atno 17394 bound_to 11000
  140.0282  134.9913  157.0729 LP  0  0  0  0  0  0  0  0  0  0  0  0  # atno 17395 bound_to 11000

$$$$
