AV-unprocessed.smi:1987|AV-procd|sdf|8055|dock2
  -GOLD-   2272010263D 1   1.00000     0.00000
 Structure written by MMmdl.
 37 39  0  0  0  0  0  0  0  0  2 V2000
  150.1488  140.2547  153.9248 O   0  0  0  0  0  0  0  0  0  0  0  0
  149.9870  139.0623  154.1816 C   0  0  0  0  0  0  0  0  0  0  0  0
  151.1673  138.0947  154.1061 C   0  0  0  0  0  0  0  0  0  0  0  0
  152.1619  138.4336  155.1066 N   0  0  0  0  0  0  0  0  0  0  0  0
  152.3461  139.5483  155.8174 C   0  0  0  0  0  0  0  0  0  0  0  0
  153.4065  139.4551  156.6054 N   0  0  0  0  0  0  0  0  0  0  0  0
  153.8856  138.1828  156.3404 N   0  0  0  0  0  0  0  0  0  0  0  0
  153.1519  137.5721  155.4511 N   0  0  0  0  0  0  0  0  0  0  0  0
  148.7989  138.5281  154.5040 N   0  0  0  0  0  0  0  0  0  0  0  0
  147.5288  139.2435  154.5011 C   0  0  0  0  0  0  0  0  0  0  0  0
  146.5568  138.6704  153.4510 C   0  0  1  0  0  0  0  0  0  0  0  0
  146.8728  139.0507  152.0054 C   0  0  0  0  0  0  0  0  0  0  0  0
  146.1003  138.0001  151.2130 C   0  0  0  0  0  0  0  0  0  0  0  0
  146.1837  136.7585  152.0131 N   0  3  2  0  0  0  0  0  0  0  0  0
  144.9951  135.8877  151.8897 C   0  0  0  0  0  0  0  0  0  0  0  0
  145.3279  134.4613  151.5220 C   0  0  0  0  0  0  0  0  0  0  0  0
  144.7485  135.3969  150.4831 C   0  0  0  0  0  0  0  0  0  0  0  0
  146.5133  137.1374  153.4078 C   0  0  0  0  0  0  0  0  0  0  0  0
  150.8283  137.0724  154.2784 H   0  0  0  0  0  0  0  0  0  0  0  0
  151.6213  138.1247  153.1142 H   0  0  0  0  0  0  0  0  0  0  0  0
  151.7163  140.4230  155.7499 H   0  0  0  0  0  0  0  0  0  0  0  0
  148.7650  137.5391  154.7072 H   0  0  0  0  0  0  0  0  0  0  0  0
  147.0957  139.1616  155.4984 H   0  0  0  0  0  0  0  0  0  0  0  0
  147.6991  140.3067  154.3233 H   0  0  0  0  0  0  0  0  0  0  0  0
  145.5476  139.0219  153.6724 H   0  0  0  0  0  0  0  0  0  0  0  0
  146.5723  140.0695  151.7572 H   0  0  0  0  0  0  0  0  0  0  0  0
  147.9421  138.9552  151.8111 H   0  0  0  0  0  0  0  0  0  0  0  0
  145.0586  138.3125  151.1197 H   0  0  0  0  0  0  0  0  0  0  0  0
  146.4973  137.8562  150.2079 H   0  0  0  0  0  0  0  0  0  0  0  0
  144.1609  136.1067  152.5542 H   0  0  0  0  0  0  0  0  0  0  0  0
  146.3765  134.1861  151.4227 H   0  0  0  0  0  0  0  0  0  0  0  0
  144.6765  133.6789  151.9062 H   0  0  0  0  0  0  0  0  0  0  0  0
  143.7157  135.2303  150.1834 H   0  0  0  0  0  0  0  0  0  0  0  0
  145.4118  135.7432  149.6924 H   0  0  0  0  0  0  0  0  0  0  0  0
  147.4898  136.7137  153.6451 H   0  0  0  0  0  0  0  0  0  0  0  0
  145.8003  136.7393  154.1315 H   0  0  0  0  0  0  0  0  0  0  0  0
  146.9764  136.2379  151.6655 H   0  0  0  0  0  0  0  0  0  0  0  0
  1  2  2  0  0  0  0
  2  3  1  0  0  0  0
  2  9  1  0  0  0  0
  3  4  1  0  0  0  0
  3 19  1  0  0  0  0
  3 20  1  0  0  0  0
  4  8  1  0  0  0  0
  4  5  1  0  0  0  0
  5  6  2  0  0  0  0
  5 21  1  0  0  0  0
  6  7  1  0  0  0  0
  7  8  2  0  0  0  0
  9 10  1  0  0  0  0
  9 22  1  0  0  0  0
 10 11  1  0  0  0  0
 10 23  1  0  0  0  0
 10 24  1  0  0  0  0
 11 18  1  0  0  0  0
 11 12  1  0  0  0  0
 11 25  1  0  0  0  0
 12 13  1  0  0  0  0
 12 26  1  0  0  0  0
 12 27  1  0  0  0  0
 13 14  1  0  0  0  0
 13 28  1  0  0  0  0
 13 29  1  0  0  0  0
 14 15  1  0  0  0  0
 14 18  1  0  0  0  0
 14 37  1  0  0  0  0
 15 17  1  0  0  0  0
 15 16  1  0  0  0  0
 15 30  1  0  0  0  0
 16 17  1  0  0  0  0
 16 31  1  0  0  0  0
 16 32  1  0  0  0  0
 17 33  1  0  0  0  0
 17 34  1  0  0  0  0
 18 35  1  0  0  0  0
 18 36  1  0  0  0  0
M  CHG  1  14   1
M  END
> <s_m_source_file>
AV-unprocessed.smi

> <i_m_source_file_index>
1987

> <i_lp_mmshare_version>
43012

> <i_f3d_flags>
0

> <s_epik_input>
bjFubltjSF1uMVtDSDJdQyg9TylbTkhdW0NIMl1bQ0BASF0yW0NIMl1bQ0gyXU4oW0NIMl0yKVtDSF0zW0NIMl1bQ0gyXTM=

> <s_epik_cmdline>
J2VwaWtfcHl0aG9uJywgJy1waCcsICc3LjAnLCAnLXRuJywgJzgnLCAnLW1hJywgJzIwMCcsICctbWV0YWxfYmluZGluZycsICctaW1hZScsICc8aW5maWxlLm1hZT4nLCAnLW9tYWUnLCAnPG91dGZpbGUubWFlPic=

> <r_lp_tautomer_probability>
1

> <r_epik_Ionization_Penalty>
0.000242849

> <r_epik_Ionization_Penalty_Charging>
0.000241326

> <r_epik_Ionization_Penalty_Neutral>
1.52322e-06

> <r_epik_State_Penalty>
-0

> <r_epik_Charging_Adjusted_Penalty>
0.000241326

> <i_epik_Tot_Q>
1

> <i_epik_Tot_abs_Q>
1

> <r_epik_Metal_State_Penalty>
-0

> <b_epik_Metal_Only>
0

> <s_lp_Force_Field>
OPLS_2005

> <r_lp_Energy>
38.094

> <b_lp_Chiralities_Consistent>
1

> <s_lp_Variant>
AV-unprocessed.smi:1987-2

> <Gold.Version>
5.8.1

> <Gold.Id.Protein>
6NUR|6NUR_protein|mol2

> <Gold.PLP.Fitness>
40.6597

> <Gold.PLP.PLP>
-29.2196

> <Gold.PLP.part.hbond>
-4.8999

> <Gold.PLP.part.metal>
0.0000

> <Gold.PLP.part.buried>
0.6826

> <Gold.PLP.part.nonpolar>
-27.3217

> <Gold.PLP.part.repulsive>
1.0845

> <Gold.PLP.ligand.clash>
0.0000

> <Gold.PLP.ligand.torsion>
1.0645

> <Gold.PLP.Chemscore.Hbond>
4.0991

> <Gold.PLP.Chemscore.CHOScore>
0.0000

> <Gold.PLP.Chemscore.Metal>
0.0000

> <Gold.Chemscore.Hbonds>
donor molecule, donor type, donor heavy atom, donor atom, acceptor molecule, acceptor atom, score
      L1  H    14    37       P1  7948  1.60
      P1  H  7989  7998       L1     1  0.83
      P1  H  7997  8009       L1     6  0.16
      P1  H 10752 10763       L1     8  0.25

> <Gold.PLP.Chemscore.Internal.Correction>
1.2719

> <Gold.Rescore>
     Score         DG    S(hbond)    S(metal)    S(lipo)     H(rot)  DE(clash)    DE(int)     intcor
     12.02     -16.34       3.23        0.00      57.87       2.62       1.92       2.39       ----

> <Gold.Chemscore.Fitness>
12.0231

> <Gold.Chemscore.DG>
-16.3363

> <Gold.Chemscore.ZeroCoef>
-5.4800

> <Gold.Chemscore.Hbond>
3.2346

> <Gold.Chemscore.Metal>
0.0000

> <Gold.Chemscore.Lipo>
57.8740

> <Gold.Chemscore.Internal_Hbond>
0.0000

> <Gold.Chemscore.DEClash>
1.9211

> <Gold.Chemscore.DEInternal>
2.3921

> <Gold.Chemscore.Rot>
2.6244

> <Gold.Chemscore.Internal.Correction>
   9.000000E+99

> <Gold.Chemscore.Hbonds>
donor molecule, donor type, donor heavy atom, donor atom, acceptor molecule, acceptor atom, score
      L1  H    14    37       P1  7948  0.78
      P1  H  7989  7998       L1     1  0.82
      P1  H  7997  8009       L1     6  0.05
      P1  H 10752 10763       L1     8  0.24

> <Gold.Chemscore.Hbond.Weighted>
-10.8036

> <Gold.Chemscore.Metal.Weighted>
-0.0000

> <Gold.Chemscore.Lipo.Weighted>
-6.7713

> <Gold.Chemscore.Internal_Hbond.Weighted>
0.0000

> <Gold.Chemscore.DEClash.Weighted>
1.9211

> <Gold.Chemscore.DEInternal.Weighted>
2.3921

> <Gold.Chemscore.Rot.Weighted>
6.7186

> <Gold.Chemscore.Internal.Correction.Weighted>
   9.000000E+99

> <Gold.Protein.RotatedTorsions>
[ 6907 6896 6895 6894 ] final -148.84 input  -60.11 | X-H torsion
[ 7974 7965 7964 7962 ] final  -81.54 input  175.53 | X-H torsion
[ 8008 7997 7996 7995 ] final  171.11 input   59.86 | X-H torsion
[ 10167 10162 10161 10158 ] final   40.46 input  -65.29 | X-H torsion
[ 10718 10713 10712 10709 ] final   -7.41 input   66.30 | X-H torsion
[ 10763 10752 10751 10750 ] final   88.66 input  -60.55 | X-H torsion
[ 11005 11000 10999 10996 ] final  131.75 input  -57.11 | X-H torsion

> <Gold.Protein.ActiveResidues>
 VAL166  LYS551  ARG553  GLY616  TRP617  ASP618  TYR619  PRO620  LYS621  CYS622 
 ASP623  PHE694  ASN695  SER759  ASP760  ASP761  ALA762  ILE779  LEU786  VAL792 
 PHE793  MET794  SER795  GLU796  ALA797  LYS798  CYS799  TRP800  GLU811  SER814 

> <Gold.Protein.RotatedAtoms>
  151.1756  133.4757  159.2593 H   0  0  0  0  0  0  0  0  0  0  0  0  # atno 6907 bound_to 6896
  151.1311  135.0130  159.8593 H   0  0  0  0  0  0  0  0  0  0  0  0  # atno 6908 bound_to 6896
  152.5460  134.1658  159.8630 H   0  0  0  0  0  0  0  0  0  0  0  0  # atno 6909 bound_to 6896
  145.5453  140.9504  143.1528 H   0  0  0  0  0  0  0  0  0  0  0  0  # atno 7974 bound_to 7965
  156.1302  140.1520  156.9077 H   0  0  0  0  0  0  0  0  0  0  0  0  # atno 8008 bound_to 7997
  154.4903  140.0853  156.7619 H   0  0  0  0  0  0  0  0  0  0  0  0  # atno 8009 bound_to 7997
  155.4270  140.3425  155.4279 H   0  0  0  0  0  0  0  0  0  0  0  0  # atno 8010 bound_to 7997
  140.3740  144.2068  150.6132 H   0  0  0  0  0  0  0  0  0  0  0  0  # atno 10167 bound_to 10162
  156.7176  130.5141  149.5876 H   0  0  0  0  0  0  0  0  0  0  0  0  # atno 10718 bound_to 10713
  153.1791  135.4498  155.0005 H   0  0  0  0  0  0  0  0  0  0  0  0  # atno 10763 bound_to 10752
  154.8018  135.3259  154.7533 H   0  0  0  0  0  0  0  0  0  0  0  0  # atno 10764 bound_to 10752
  153.7999  135.6963  153.4912 H   0  0  0  0  0  0  0  0  0  0  0  0  # atno 10765 bound_to 10752
  139.9749  134.9566  156.9483 H   0  0  0  0  0  0  0  0  0  0  0  0  # atno 11005 bound_to 11000
  144.7556  139.7083  143.7255 LP  0  0  0  0  0  0  0  0  0  0  0  0  # atno 17320 bound_to 7965
  146.1953  139.5216  142.9778 LP  0  0  0  0  0  0  0  0  0  0  0  0  # atno 17321 bound_to 7965
  140.5005  143.2319  151.8685 LP  0  0  0  0  0  0  0  0  0  0  0  0  # atno 17342 bound_to 10162
  139.4801  144.5065  151.8991 LP  0  0  0  0  0  0  0  0  0  0  0  0  # atno 17343 bound_to 10162
  156.1617  130.6378  151.0727 LP  0  0  0  0  0  0  0  0  0  0  0  0  # atno 17370 bound_to 10713
  157.6911  131.0809  150.7105 LP  0  0  0  0  0  0  0  0  0  0  0  0  # atno 17371 bound_to 10713
  140.5216  134.0902  155.7293 LP  0  0  0  0  0  0  0  0  0  0  0  0  # atno 17394 bound_to 11000
  141.1426  133.9111  157.2289 LP  0  0  0  0  0  0  0  0  0  0  0  0  # atno 17395 bound_to 11000

$$$$
