AV-unprocessed.smi:2412|AV-procd|sdf|9533|dock1
  -GOLD-   2272013163D 1   1.00000     0.00000
 Structure written by MMmdl.
 38 39  0  0  0  0  0  0  0  0  2 V2000
  146.8055  133.3150  150.7420 C   0  0  0  0  0  0  0  0  0  0  0  0
  145.5442  133.9288  151.3242 C   0  0  0  0  0  0  0  0  0  0  0  0
  144.2958  133.6500  150.7261 C   0  0  0  0  0  0  0  0  0  0  0  0
  143.1657  134.1844  151.2344 N   0  3  0  0  0  0  0  0  0  0  0  0
  143.1622  134.9894  152.3170 C   0  0  0  0  0  0  0  0  0  0  0  0
  144.3745  135.3056  152.9614 C   0  0  0  0  0  0  0  0  0  0  0  0
  145.5926  134.7822  152.4567 C   0  0  0  0  0  0  0  0  0  0  0  0
  146.8543  135.0374  153.0652 N   0  0  0  0  0  0  0  0  0  0  0  0
  147.1545  135.1076  154.3734 C   0  0  0  0  0  0  0  0  0  0  0  0
  146.3451  135.0044  155.2950 O   0  0  0  0  0  0  0  0  0  0  0  0
  148.4652  135.3222  154.5613 N   0  0  0  0  0  0  0  0  0  0  0  0
  149.1246  135.4073  155.8635 C   0  0  0  0  0  0  0  0  0  0  0  0
  150.5755  135.9182  155.7804 C   0  0  0  0  0  0  0  0  0  0  0  0
  151.5121  135.1529  156.0185 O   0  0  0  0  0  0  0  0  0  0  0  0
  150.7770  137.2066  155.4345 N   0  0  0  0  0  0  0  0  0  0  0  0
  152.0768  137.8652  155.3050 C   0  0  0  0  0  0  0  0  0  0  0  0
  151.7870  139.2386  154.6978 C   0  0  0  0  0  0  0  0  0  0  0  0
  150.3453  139.5262  155.0924 C   0  0  0  0  0  0  0  0  0  0  0  0
  149.6923  138.1454  155.1538 C   0  0  0  0  0  0  0  0  0  0  0  0
  146.5832  132.7172  149.8575 H   0  0  0  0  0  0  0  0  0  0  0  0
  147.2868  132.6666  151.4749 H   0  0  0  0  0  0  0  0  0  0  0  0
  147.5112  134.0941  150.4522 H   0  0  0  0  0  0  0  0  0  0  0  0
  144.1661  133.0161  149.8610 H   0  0  0  0  0  0  0  0  0  0  0  0
  142.1954  135.3486  152.6387 H   0  0  0  0  0  0  0  0  0  0  0  0
  144.3436  135.9321  153.8398 H   0  0  0  0  0  0  0  0  0  0  0  0
  147.6099  135.2380  152.4263 H   0  0  0  0  0  0  0  0  0  0  0  0
  149.0589  135.3981  153.7486 H   0  0  0  0  0  0  0  0  0  0  0  0
  148.5466  136.0873  156.4895 H   0  0  0  0  0  0  0  0  0  0  0  0
  149.1005  134.4312  156.3506 H   0  0  0  0  0  0  0  0  0  0  0  0
  152.5228  137.9721  156.2948 H   0  0  0  0  0  0  0  0  0  0  0  0
  152.7685  137.3029  154.6766 H   0  0  0  0  0  0  0  0  0  0  0  0
  152.4807  140.0074  155.0390 H   0  0  0  0  0  0  0  0  0  0  0  0
  151.8617  139.1805  153.6109 H   0  0  0  0  0  0  0  0  0  0  0  0
  150.3237  139.9855  156.0817 H   0  0  0  0  0  0  0  0  0  0  0  0
  149.8426  140.2014  154.3995 H   0  0  0  0  0  0  0  0  0  0  0  0
  149.2432  137.8899  154.1929 H   0  0  0  0  0  0  0  0  0  0  0  0
  148.9099  138.1114  155.9138 H   0  0  0  0  0  0  0  0  0  0  0  0
  142.2760  133.9664  150.7847 H   0  0  0  0  0  0  0  0  0  0  0  0
  1  2  1  0  0  0  0
  1 20  1  0  0  0  0
  1 21  1  0  0  0  0
  1 22  1  0  0  0  0
  2  7  1  0  0  0  0
  2  3  2  0  0  0  0
  3  4  1  0  0  0  0
  3 23  1  0  0  0  0
  4  5  2  0  0  0  0
  4 38  1  0  0  0  0
  5  6  1  0  0  0  0
  5 24  1  0  0  0  0
  6  7  2  0  0  0  0
  6 25  1  0  0  0  0
  7  8  1  0  0  0  0
  8  9  1  0  0  0  0
  8 26  1  0  0  0  0
  9 10  2  0  0  0  0
  9 11  1  0  0  0  0
 11 12  1  0  0  0  0
 11 27  1  0  0  0  0
 12 13  1  0  0  0  0
 12 28  1  0  0  0  0
 12 29  1  0  0  0  0
 13 14  2  0  0  0  0
 13 15  1  0  0  0  0
 15 19  1  0  0  0  0
 15 16  1  0  0  0  0
 16 17  1  0  0  0  0
 16 30  1  0  0  0  0
 16 31  1  0  0  0  0
 17 18  1  0  0  0  0
 17 32  1  0  0  0  0
 17 33  1  0  0  0  0
 18 19  1  0  0  0  0
 18 34  1  0  0  0  0
 18 35  1  0  0  0  0
 19 36  1  0  0  0  0
 19 37  1  0  0  0  0
M  CHG  1   4   1
M  END
> <s_m_source_file>
AV-unprocessed.smi

> <i_m_source_file_index>
2412

> <i_lp_mmshare_version>
43012

> <i_f3d_flags>
0

> <s_epik_input>
W0NIM11jMVtjSF1uW2NIXVtjSF1jMVtOSF1DKD1PKVtOSF1bQ0gyXUMoPU8pTjJbQ0gyXVtDSDJdW0NIMl1bQ0gyXTI=

> <s_epik_cmdline>
J2VwaWtfcHl0aG9uJywgJy1waCcsICc3LjAnLCAnLXRuJywgJzgnLCAnLW1hJywgJzIwMCcsICctbWV0YWxfYmluZGluZycsICctaW1hZScsICc8aW5maWxlLm1hZT4nLCAnLW9tYWUnLCAnPG91dGZpbGUubWFlPic=

> <r_epik_Ionization_Penalty>
0.861722

> <r_epik_Ionization_Penalty_Charging>
0.861704

> <r_epik_Ionization_Penalty_Neutral>
1.84974e-05

> <r_epik_State_Penalty>
0.898238

> <r_epik_Charging_Adjusted_Penalty>
1.75994

> <i_epik_Tot_Q>
1

> <i_epik_Tot_abs_Q>
1

> <r_epik_Metal_State_Penalty>
1.0245

> <b_epik_Metal_Only>
0

> <s_lp_Force_Field>
OPLS_2005

> <r_lp_Energy>
33.6381

> <b_lp_Chiralities_Consistent>
1

> <s_lp_Variant>
AV-unprocessed.smi:2412-2

> <Gold.Version>
5.8.1

> <Gold.Id.Protein>
6NUR|6NUR_protein|mol2

> <Gold.PLP.Fitness>
39.5396

> <Gold.PLP.PLP>
-26.3063

> <Gold.PLP.part.hbond>
-4.0000

> <Gold.PLP.part.metal>
0.0000

> <Gold.PLP.part.buried>
-2.1455

> <Gold.PLP.part.nonpolar>
-19.8729

> <Gold.PLP.part.repulsive>
0.0443

> <Gold.PLP.ligand.clash>
0.0000

> <Gold.PLP.ligand.torsion>
0.4409

> <Gold.PLP.Chemscore.Hbond>
4.7040

> <Gold.PLP.Chemscore.CHOScore>
0.0000

> <Gold.PLP.Chemscore.Metal>
0.0000

> <Gold.Chemscore.Hbonds>
donor molecule, donor type, donor heavy atom, donor atom, acceptor molecule, acceptor atom, score
      L1  H     4    38       P1 10186  1.92
      L1  H     8    26       P1  7948  1.00
      L1  H    11    27       P1  7948  0.78
      P1  H 10752 10763       L1    14  1.00

> <Gold.PLP.Chemscore.Internal.Correction>
0.0032

> <Gold.Rescore>
     Score         DG    S(hbond)    S(metal)    S(lipo)     H(rot)  DE(clash)    DE(int)     intcor
     19.19     -20.51       3.51        0.00      56.16       1.28       0.10       1.23       ----

> <Gold.Chemscore.Fitness>
19.1889

> <Gold.Chemscore.DG>
-20.5136

> <Gold.Chemscore.ZeroCoef>
-5.4800

> <Gold.Chemscore.Hbond>
3.5137

> <Gold.Chemscore.Metal>
0.0000

> <Gold.Chemscore.Lipo>
56.1643

> <Gold.Chemscore.Internal_Hbond>
0.0000

> <Gold.Chemscore.DEClash>
0.0978

> <Gold.Chemscore.DEInternal>
1.2270

> <Gold.Chemscore.Rot>
1.2786

> <Gold.Chemscore.Internal.Correction>
   9.000000E+99

> <Gold.Chemscore.Hbonds>
donor molecule, donor type, donor heavy atom, donor atom, acceptor molecule, acceptor atom, score
      L1  H     4    38       P1 10186  0.51
      L1  H     8    26       P1  7948  0.97
      L1  H    11    27       P1  7948  0.47
      P1  H 10752 10763       L1    14  0.90

> <Gold.Chemscore.Hbond.Weighted>
-11.7357

> <Gold.Chemscore.Metal.Weighted>
-0.0000

> <Gold.Chemscore.Lipo.Weighted>
-6.5712

> <Gold.Chemscore.Internal_Hbond.Weighted>
0.0000

> <Gold.Chemscore.DEClash.Weighted>
0.0978

> <Gold.Chemscore.DEInternal.Weighted>
1.2270

> <Gold.Chemscore.Rot.Weighted>
3.2733

> <Gold.Chemscore.Internal.Correction.Weighted>
   9.000000E+99

> <Gold.Protein.RotatedTorsions>
[ 6907 6896 6895 6894 ] final   57.33 input  -60.11 | X-H torsion
[ 7974 7965 7964 7962 ] final  -21.58 input  175.53 | X-H torsion
[ 8008 7997 7996 7995 ] final   47.74 input   59.86 | X-H torsion
[ 10167 10162 10161 10158 ] final  135.72 input  -65.29 | X-H torsion
[ 10718 10713 10712 10709 ] final  168.68 input   66.30 | X-H torsion
[ 10763 10752 10751 10750 ] final   85.90 input  -60.55 | X-H torsion
[ 11005 11000 10999 10996 ] final  -80.58 input  -57.11 | X-H torsion

> <Gold.Protein.ActiveResidues>
 VAL166  LYS551  ARG553  GLY616  TRP617  ASP618  TYR619  PRO620  LYS621  CYS622 
 ASP623  PHE694  ASN695  SER759  ASP760  ASP761  ALA762  ILE779  LEU786  VAL792 
 PHE793  MET794  SER795  GLU796  ALA797  LYS798  CYS799  TRP800  GLU811  SER814 

> <Gold.Protein.RotatedAtoms>
  152.3721  134.6718  160.0172 H   0  0  0  0  0  0  0  0  0  0  0  0  # atno 6907 bound_to 6896
  151.7008  133.3305  159.3274 H   0  0  0  0  0  0  0  0  0  0  0  0  # atno 6908 bound_to 6896
  150.7681  134.6552  159.6354 H   0  0  0  0  0  0  0  0  0  0  0  0  # atno 6909 bound_to 6896
  146.1724  140.4361  142.8527 H   0  0  0  0  0  0  0  0  0  0  0  0  # atno 7974 bound_to 7965
  155.3741  140.3425  155.4244 H   0  0  0  0  0  0  0  0  0  0  0  0  # atno 8008 bound_to 7997
  156.1646  140.1612  156.8587 H   0  0  0  0  0  0  0  0  0  0  0  0  # atno 8009 bound_to 7997
  154.5173  140.0775  156.8087 H   0  0  0  0  0  0  0  0  0  0  0  0  # atno 8010 bound_to 7997
  139.5206  144.6502  151.5324 H   0  0  0  0  0  0  0  0  0  0  0  0  # atno 10167 bound_to 10162
  157.0337  131.0266  151.2736 H   0  0  0  0  0  0  0  0  0  0  0  0  # atno 10718 bound_to 10713
  153.1519  135.4600  154.9649 H   0  0  0  0  0  0  0  0  0  0  0  0  # atno 10763 bound_to 10752
  154.7831  135.3195  154.7948 H   0  0  0  0  0  0  0  0  0  0  0  0  # atno 10764 bound_to 10752
  153.8452  135.6926  153.4853 H   0  0  0  0  0  0  0  0  0  0  0  0  # atno 10765 bound_to 10752
  141.1668  133.7157  156.8294 H   0  0  0  0  0  0  0  0  0  0  0  0  # atno 11005 bound_to 11000
  144.8184  140.6508  143.6369 LP  0  0  0  0  0  0  0  0  0  0  0  0  # atno 17320 bound_to 7965
  145.4303  139.1550  143.4026 LP  0  0  0  0  0  0  0  0  0  0  0  0  # atno 17321 bound_to 7965
  140.6304  143.9087  150.6600 LP  0  0  0  0  0  0  0  0  0  0  0  0  # atno 17342 bound_to 10162
  140.2389  143.3678  152.1503 LP  0  0  0  0  0  0  0  0  0  0  0  0  # atno 17343 bound_to 10162
  157.5158  130.7967  149.7755 LP  0  0  0  0  0  0  0  0  0  0  0  0  # atno 17370 bound_to 10713
  156.0061  130.3855  150.2427 LP  0  0  0  0  0  0  0  0  0  0  0  0  # atno 17371 bound_to 10713
  140.2062  134.8861  157.3224 LP  0  0  0  0  0  0  0  0  0  0  0  0  # atno 17394 bound_to 11000
  140.2135  134.4110  155.7601 LP  0  0  0  0  0  0  0  0  0  0  0  0  # atno 17395 bound_to 11000

$$$$
