AV-unprocessed.smi:408|AV-procd|sdf|2504|dock9
  -GOLD-   2262022453D 1   1.00000     0.00000
 Structure written by MMmdl.
 40 41  0  0  0  0  0  0  0  0  2 V2000
  152.6717  144.4539  158.4045 C   0  0  0  0  0  0  0  0  0  0  0  0
  151.9422  143.6828  159.5169 C   0  0  0  0  0  0  0  0  0  0  0  0
  152.0783  144.4205  160.8570 C   0  0  0  0  0  0  0  0  0  0  0  0
  152.4447  142.2266  159.6385 C   0  0  0  0  0  0  0  0  0  0  0  0
  152.3439  141.3814  158.3533 C   0  0  0  0  0  0  0  0  0  0  0  0
  152.3956  139.9550  158.6521 N   0  0  0  0  0  0  0  0  0  0  0  0
  152.4998  138.9645  157.7518 C   0  0  0  0  0  0  0  0  0  0  0  0
  152.6679  139.1521  156.5471 O   0  0  0  0  0  0  0  0  0  0  0  0
  152.3643  137.5415  158.2973 C   0  0  0  0  0  0  0  0  0  0  0  0
  150.9243  137.2685  158.6219 C   0  0  0  0  0  0  0  0  0  0  0  0
  149.9103  137.0165  157.7335 C   0  0  0  0  0  0  0  0  0  0  0  0
  148.4153  136.6599  158.5479 S   0  0  0  0  0  0  0  0  0  0  0  0
  149.2209  136.8809  160.1010 C   0  0  0  0  0  0  0  0  0  0  0  0
  148.6231  136.7321  161.2969 N   0  5  0  0  0  0  0  0  0  0  0  0
  147.2710  136.6741  161.4527 C   0  0  0  0  0  0  0  0  0  0  0  0
  146.4517  137.2651  160.7511 O   0  0  0  0  0  0  0  0  0  0  0  0
  146.7992  135.8140  162.5925 C   0  0  0  0  0  0  0  0  0  0  0  0
  147.2533  134.3675  162.6468 C   0  0  0  0  0  0  0  0  0  0  0  0
  145.8383  134.6944  162.2455 C   0  0  0  0  0  0  0  0  0  0  0  0
  150.5055  137.2257  159.9537 N   0  0  0  0  0  0  0  0  0  0  0  0
  153.7502  144.4566  158.5649 H   0  0  0  0  0  0  0  0  0  0  0  0
  152.3424  145.4924  158.3661 H   0  0  0  0  0  0  0  0  0  0  0  0
  152.4790  144.0201  157.4237 H   0  0  0  0  0  0  0  0  0  0  0  0
  150.8789  143.6697  159.2762 H   0  0  0  0  0  0  0  0  0  0  0  0
  153.1176  144.4632  161.1832 H   0  0  0  0  0  0  0  0  0  0  0  0
  151.5020  143.9244  161.6384 H   0  0  0  0  0  0  0  0  0  0  0  0
  151.7102  145.4442  160.7815 H   0  0  0  0  0  0  0  0  0  0  0  0
  153.4812  142.2331  159.9782 H   0  0  0  0  0  0  0  0  0  0  0  0
  151.8819  141.7194  160.4236 H   0  0  0  0  0  0  0  0  0  0  0  0
  151.4542  141.6446  157.7802 H   0  0  0  0  0  0  0  0  0  0  0  0
  153.1918  141.6104  157.7078 H   0  0  0  0  0  0  0  0  0  0  0  0
  152.2642  139.6934  159.6184 H   0  0  0  0  0  0  0  0  0  0  0  0
  152.7398  136.8310  157.5597 H   0  0  0  0  0  0  0  0  0  0  0  0
  152.9903  137.4305  159.1834 H   0  0  0  0  0  0  0  0  0  0  0  0
  149.9569  136.9928  156.6552 H   0  0  0  0  0  0  0  0  0  0  0  0
  146.6736  136.3095  163.5538 H   0  0  0  0  0  0  0  0  0  0  0  0
  147.9142  133.9930  161.8673 H   0  0  0  0  0  0  0  0  0  0  0  0
  147.4181  133.9402  163.6336 H   0  0  0  0  0  0  0  0  0  0  0  0
  145.0352  134.5015  162.9520 H   0  0  0  0  0  0  0  0  0  0  0  0
  145.5697  134.5591  161.1992 H   0  0  0  0  0  0  0  0  0  0  0  0
  1  2  1  0  0  0  0
  1 21  1  0  0  0  0
  1 22  1  0  0  0  0
  1 23  1  0  0  0  0
  2  3  1  0  0  0  0
  2  4  1  0  0  0  0
  2 24  1  0  0  0  0
  3 25  1  0  0  0  0
  3 26  1  0  0  0  0
  3 27  1  0  0  0  0
  4  5  1  0  0  0  0
  4 28  1  0  0  0  0
  4 29  1  0  0  0  0
  5  6  1  0  0  0  0
  5 30  1  0  0  0  0
  5 31  1  0  0  0  0
  6  7  1  0  0  0  0
  6 32  1  0  0  0  0
  7  8  2  0  0  0  0
  7  9  1  0  0  0  0
  9 10  1  0  0  0  0
  9 33  1  0  0  0  0
  9 34  1  0  0  0  0
 10 20  1  0  0  0  0
 10 11  2  0  0  0  0
 11 12  1  0  0  0  0
 11 35  1  0  0  0  0
 12 13  1  0  0  0  0
 13 14  1  0  0  0  0
 13 20  2  0  0  0  0
 14 15  1  0  0  0  0
 15 16  2  0  0  0  0
 15 17  1  0  0  0  0
 17 19  1  0  0  0  0
 17 18  1  0  0  0  0
 17 36  1  0  0  0  0
 18 19  1  0  0  0  0
 18 37  1  0  0  0  0
 18 38  1  0  0  0  0
 19 39  1  0  0  0  0
 19 40  1  0  0  0  0
M  CHG  1  14  -1
M  END
> <s_m_source_file>
AV-unprocessed.smi

> <i_m_source_file_index>
408

> <i_lp_mmshare_version>
43012

> <i_f3d_flags>
0

> <s_epik_input>
W0NIM11bQ0hdKFtDSDNdKVtDSDJdW0NIMl1bTkhdQyg9TylbQ0gyXWMxW2NIXXNjKG4xKVtOSF1DKD1PKVtDSF0yW0NIMl1bQ0gyXTI=

> <s_epik_cmdline>
J2VwaWtfcHl0aG9uJywgJy1waCcsICc3LjAnLCAnLXRuJywgJzgnLCAnLW1hJywgJzIwMCcsICctbWV0YWxfYmluZGluZycsICctaW1hZScsICc8aW5maWxlLm1hZT4nLCAnLW9tYWUnLCAnPG91dGZpbGUubWFlPic=

> <r_lp_tautomer_probability>
1

> <r_epik_Ionization_Penalty>
5.55111

> <r_epik_Ionization_Penalty_Charging>
5.01898

> <r_epik_Ionization_Penalty_Neutral>
0.532133

> <r_epik_State_Penalty>
5.01885

> <r_epik_Charging_Adjusted_Penalty>
10.0378

> <i_epik_Tot_Q>
-1

> <i_epik_Tot_abs_Q>
1

> <r_epik_Metal_State_Penalty>
1.13336

> <b_epik_Metal_Only>
1

> <s_lp_Force_Field>
OPLS_2005

> <r_lp_Energy>
8.36317

> <b_lp_Chiralities_Consistent>
1

> <s_lp_Variant>
AV-unprocessed.smi:408-2

> <Gold.Version>
5.8.1

> <Gold.Id.Protein>
6NUR|6NUR_protein|mol2

> <Gold.PLP.Fitness>
51.7825

> <Gold.PLP.PLP>
-40.5786

> <Gold.PLP.part.hbond>
-4.2209

> <Gold.PLP.part.metal>
0.0000

> <Gold.PLP.part.buried>
-3.1247

> <Gold.PLP.part.nonpolar>
-32.0196

> <Gold.PLP.part.repulsive>
0.0998

> <Gold.PLP.ligand.clash>
0.0000

> <Gold.PLP.ligand.torsion>
0.7836

> <Gold.PLP.Chemscore.Hbond>
4.2175

> <Gold.PLP.Chemscore.CHOScore>
0.0000

> <Gold.PLP.Chemscore.Metal>
0.0000

> <Gold.Chemscore.Hbonds>
donor molecule, donor type, donor heavy atom, donor atom, acceptor molecule, acceptor atom, score
      P1  H  6896  6908       L1    20  0.09
      P1  H  6931  6943       L1    14  1.60
      P1  H  6934  6947       L1    16  0.90
      P1  H  7997  8010       L1     8  1.00

> <Gold.PLP.Chemscore.Internal.Correction>
0.1184

> <Gold.Rescore>
     Score         DG    S(hbond)    S(metal)    S(lipo)     H(rot)  DE(clash)    DE(int)     intcor
     14.11     -16.35       1.27        0.00      98.55       1.92       0.20       2.04       ----

> <Gold.Chemscore.Fitness>
14.1093

> <Gold.Chemscore.DG>
-16.3520

> <Gold.Chemscore.ZeroCoef>
-5.4800

> <Gold.Chemscore.Hbond>
1.2746

> <Gold.Chemscore.Metal>
0.0000

> <Gold.Chemscore.Lipo>
98.5450

> <Gold.Chemscore.Internal_Hbond>
0.0000

> <Gold.Chemscore.DEClash>
0.2021

> <Gold.Chemscore.DEInternal>
2.0406

> <Gold.Chemscore.Rot>
1.9198

> <Gold.Chemscore.Internal.Correction>
   9.000000E+99

> <Gold.Chemscore.Hbonds>
donor molecule, donor type, donor heavy atom, donor atom, acceptor molecule, acceptor atom, score
      P1  H  6931  6943       L1    14  0.06
      P1  H  6934  6947       L1    16  0.18
      P1  H  7997  8010       L1     8  0.30

> <Gold.Chemscore.Hbond.Weighted>
-4.2570

> <Gold.Chemscore.Metal.Weighted>
-0.0000

> <Gold.Chemscore.Lipo.Weighted>
-11.5298

> <Gold.Chemscore.Internal_Hbond.Weighted>
0.0000

> <Gold.Chemscore.DEClash.Weighted>
0.2021

> <Gold.Chemscore.DEInternal.Weighted>
2.0406

> <Gold.Chemscore.Rot.Weighted>
4.9148

> <Gold.Chemscore.Internal.Correction.Weighted>
   9.000000E+99

> <Gold.Protein.RotatedTorsions>
[ 6907 6896 6895 6894 ] final -122.39 input  -60.11 | X-H torsion
[ 7974 7965 7964 7962 ] final  -39.34 input  175.53 | X-H torsion
[ 8008 7997 7996 7995 ] final   65.26 input   59.86 | X-H torsion
[ 10167 10162 10161 10158 ] final   33.45 input  -65.29 | X-H torsion
[ 10718 10713 10712 10709 ] final -172.79 input   66.30 | X-H torsion
[ 10763 10752 10751 10750 ] final  -31.57 input  -60.55 | X-H torsion
[ 11005 11000 10999 10996 ] final -124.58 input  -57.11 | X-H torsion

> <Gold.Protein.ActiveResidues>
 VAL166  LYS551  ARG553  GLY616  TRP617  ASP618  TYR619  PRO620  LYS621  CYS622 
 ASP623  PHE694  ASN695  SER759  ASP760  ASP761  ALA762  ILE779  LEU786  VAL792 
 PHE793  MET794  SER795  GLU796  ALA797  LYS798  CYS799  TRP800  GLU811  SER814 

> <Gold.Protein.RotatedAtoms>
  150.8571  133.7699  159.3004 H   0  0  0  0  0  0  0  0  0  0  0  0  # atno 6907 bound_to 6896
  151.5353  135.1067  159.9922 H   0  0  0  0  0  0  0  0  0  0  0  0  # atno 6908 bound_to 6896
  152.4598  133.7755  159.6878 H   0  0  0  0  0  0  0  0  0  0  0  0  # atno 6909 bound_to 6896
  146.0405  140.6614  142.9089 H   0  0  0  0  0  0  0  0  0  0  0  0  # atno 7974 bound_to 7965
  155.6589  140.3497  155.4775 H   0  0  0  0  0  0  0  0  0  0  0  0  # atno 8008 bound_to 7997
  155.9785  140.1170  157.0771 H   0  0  0  0  0  0  0  0  0  0  0  0  # atno 8009 bound_to 7997
  154.4185  140.1143  156.5389 H   0  0  0  0  0  0  0  0  0  0  0  0  # atno 8010 bound_to 7997
  140.4406  144.1193  150.6173 H   0  0  0  0  0  0  0  0  0  0  0  0  # atno 10167 bound_to 10162
  156.7608  130.9413  151.3118 H   0  0  0  0  0  0  0  0  0  0  0  0  # atno 10718 bound_to 10713
  153.7995  135.6891  153.4858 H   0  0  0  0  0  0  0  0  0  0  0  0  # atno 10763 bound_to 10752
  153.1697  135.4547  154.9885 H   0  0  0  0  0  0  0  0  0  0  0  0  # atno 10764 bound_to 10752
  154.8012  135.3338  154.7485 H   0  0  0  0  0  0  0  0  0  0  0  0  # atno 10765 bound_to 10752
  140.9829  134.0647  157.3744 H   0  0  0  0  0  0  0  0  0  0  0  0  # atno 11005 bound_to 11000
  144.7072  140.3900  143.7108 LP  0  0  0  0  0  0  0  0  0  0  0  0  # atno 17320 bound_to 7965
  145.6892  139.1635  143.2657 LP  0  0  0  0  0  0  0  0  0  0  0  0  # atno 17321 bound_to 7965
  140.4323  143.2563  151.9580 LP  0  0  0  0  0  0  0  0  0  0  0  0  # atno 17342 bound_to 10162
  139.4789  144.5733  151.8053 LP  0  0  0  0  0  0  0  0  0  0  0  0  # atno 17343 bound_to 10162
  157.6735  130.9073  150.0096 LP  0  0  0  0  0  0  0  0  0  0  0  0  # atno 17370 bound_to 10713
  156.1340  130.3643  149.9686 LP  0  0  0  0  0  0  0  0  0  0  0  0  # atno 17371 bound_to 10713
  139.8958  135.0143  156.7020 LP  0  0  0  0  0  0  0  0  0  0  0  0  # atno 17394 bound_to 11000
  140.7158  133.9183  155.8114 LP  0  0  0  0  0  0  0  0  0  0  0  0  # atno 17395 bound_to 11000

$$$$
