AV-unprocessed.smi:2203|AV-procd|sdf|8936|dock9
  -GOLD-   2272012153D 1   1.00000     0.00000
 Structure written by MMmdl.
 48 49  0  0  0  0  0  0  0  0  1 V2000
  147.5333  140.8034  154.1560 C   0  0  0  0  0  0  0  0  0  0  0  0
  148.8555  140.8140  154.8686 C   0  0  0  0  0  0  0  0  0  0  0  0
  149.1688  141.8474  155.6305 N   0  0  0  0  0  0  0  0  0  0  0  0
  150.3951  141.5635  156.1159 N   0  0  0  0  0  0  0  0  0  0  0  0
  151.0471  142.5233  156.9946 C   0  0  0  0  0  0  0  0  0  0  0  0
  150.9123  142.1677  158.4914 C   0  0  0  0  0  0  0  0  0  0  0  0
  151.6673  143.1835  159.3611 C   0  0  0  0  0  0  0  0  0  0  0  0
  151.3637  140.7317  158.8119 C   0  0  0  0  0  0  0  0  0  0  0  0
  150.8499  140.3358  155.6690 C   0  0  0  0  0  0  0  0  0  0  0  0
  152.1787  139.7738  156.0628 C   0  0  0  0  0  0  0  0  0  0  0  0
  149.8783  139.8205  154.8528 C   0  0  0  0  0  0  0  0  0  0  0  0
  149.8789  138.5116  154.1028 C   0  0  0  0  0  0  0  0  0  0  0  0
  149.9022  137.3382  155.0833 C   0  0  0  0  0  0  0  0  0  0  0  0
  150.0282  137.5465  156.2897 O   0  0  0  0  0  0  0  0  0  0  0  0
  149.7947  136.1103  154.5523 N   0  0  0  0  0  0  0  0  0  0  0  0
  149.8332  134.8617  155.3034 C   0  0  0  0  0  0  0  0  0  0  0  0
  149.7699  133.6433  154.3681 C   0  0  1  0  0  0  0  0  0  0  0  0
  149.9453  132.3046  155.0799 C   0  0  0  0  0  0  0  0  0  0  0  0
  149.2588  131.3197  154.1465 C   0  0  0  0  0  0  0  0  0  0  0  0
  148.3833  132.2016  153.2503 C   0  0  0  0  0  0  0  0  0  0  0  0
  148.4768  133.5091  153.8000 O   0  0  0  0  0  0  0  0  0  0  0  0
  146.8067  140.1935  154.6928 H   0  0  0  0  0  0  0  0  0  0  0  0
  147.6317  140.3959  153.1502 H   0  0  0  0  0  0  0  0  0  0  0  0
  147.1189  141.8079  154.0627 H   0  0  0  0  0  0  0  0  0  0  0  0
  152.1017  142.5879  156.7214 H   0  0  0  0  0  0  0  0  0  0  0  0
  150.6251  143.5094  156.7998 H   0  0  0  0  0  0  0  0  0  0  0  0
  149.8576  142.2401  158.7578 H   0  0  0  0  0  0  0  0  0  0  0  0
  152.7381  143.1619  159.1558 H   0  0  0  0  0  0  0  0  0  0  0  0
  151.5273  142.9745  160.4220 H   0  0  0  0  0  0  0  0  0  0  0  0
  151.3134  144.1984  159.1777 H   0  0  0  0  0  0  0  0  0  0  0  0
  152.4042  140.5720  158.5274 H   0  0  0  0  0  0  0  0  0  0  0  0
  150.7573  139.9929  158.2877 H   0  0  0  0  0  0  0  0  0  0  0  0
  151.2743  140.5208  159.8778 H   0  0  0  0  0  0  0  0  0  0  0  0
  152.2486  138.7160  155.8096 H   0  0  0  0  0  0  0  0  0  0  0  0
  152.3436  139.8645  157.1362 H   0  0  0  0  0  0  0  0  0  0  0  0
  152.9864  140.2943  155.5482 H   0  0  0  0  0  0  0  0  0  0  0  0
  149.0011  138.4158  153.4630 H   0  0  0  0  0  0  0  0  0  0  0  0
  150.7399  138.4377  153.4375 H   0  0  0  0  0  0  0  0  0  0  0  0
  149.6935  136.0351  153.5507 H   0  0  0  0  0  0  0  0  0  0  0  0
  150.7362  134.8239  155.9149 H   0  0  0  0  0  0  0  0  0  0  0  0
  148.9900  134.8498  155.9947 H   0  0  0  0  0  0  0  0  0  0  0  0
  150.5058  133.7315  153.5663 H   0  0  0  0  0  0  0  0  0  0  0  0
  150.9915  132.0586  155.2639 H   0  0  0  0  0  0  0  0  0  0  0  0
  149.4279  132.3178  156.0402 H   0  0  0  0  0  0  0  0  0  0  0  0
  149.9859  130.7712  153.5468 H   0  0  0  0  0  0  0  0  0  0  0  0
  148.6682  130.5934  154.7057 H   0  0  0  0  0  0  0  0  0  0  0  0
  148.7684  132.2124  152.2297 H   0  0  0  0  0  0  0  0  0  0  0  0
  147.3462  131.8666  153.2185 H   0  0  0  0  0  0  0  0  0  0  0  0
  1  2  1  0  0  0  0
  1 22  1  0  0  0  0
  1 23  1  0  0  0  0
  1 24  1  0  0  0  0
  2 11  1  0  0  0  0
  2  3  2  0  0  0  0
  3  4  1  0  0  0  0
  4  5  1  0  0  0  0
  4  9  1  0  0  0  0
  5  6  1  0  0  0  0
  5 25  1  0  0  0  0
  5 26  1  0  0  0  0
  6  7  1  0  0  0  0
  6  8  1  0  0  0  0
  6 27  1  0  0  0  0
  7 28  1  0  0  0  0
  7 29  1  0  0  0  0
  7 30  1  0  0  0  0
  8 31  1  0  0  0  0
  8 32  1  0  0  0  0
  8 33  1  0  0  0  0
  9 10  1  0  0  0  0
  9 11  2  0  0  0  0
 10 34  1  0  0  0  0
 10 35  1  0  0  0  0
 10 36  1  0  0  0  0
 11 12  1  0  0  0  0
 12 13  1  0  0  0  0
 12 37  1  0  0  0  0
 12 38  1  0  0  0  0
 13 14  2  0  0  0  0
 13 15  1  0  0  0  0
 15 16  1  0  0  0  0
 15 39  1  0  0  0  0
 16 17  1  0  0  0  0
 16 40  1  0  0  0  0
 16 41  1  0  0  0  0
 17 21  1  0  0  0  0
 17 18  1  0  0  0  0
 17 42  1  0  0  0  0
 18 19  1  0  0  0  0
 18 43  1  0  0  0  0
 18 44  1  0  0  0  0
 19 20  1  0  0  0  0
 19 45  1  0  0  0  0
 19 46  1  0  0  0  0
 20 21  1  0  0  0  0
 20 47  1  0  0  0  0
 20 48  1  0  0  0  0
M  END
> <s_m_source_file>
AV-unprocessed.smi

> <i_m_source_file_index>
2203

> <i_lp_mmshare_version>
43012

> <i_f3d_flags>
0

> <s_epik_input>
W0NIM11jMW5uKFtDSDJdW0NIXShbQ0gzXSlbQ0gzXSljKFtDSDNdKWMxW0NIMl1DKD1PKVtOSF1bQ0gyXVtDQEBIXTJbQ0gyXVtDSDJdW0NIMl1PMg==

> <s_epik_cmdline>
J2VwaWtfcHl0aG9uJywgJy1waCcsICc3LjAnLCAnLXRuJywgJzgnLCAnLW1hJywgJzIwMCcsICctbWV0YWxfYmluZGluZycsICctaW1hZScsICc8aW5maWxlLm1hZT4nLCAnLW9tYWUnLCAnPG91dGZpbGUubWFlPic=

> <r_lp_tautomer_probability>
1

> <r_epik_Ionization_Penalty>
0.00306713

> <r_epik_Ionization_Penalty_Charging>
0

> <r_epik_Ionization_Penalty_Neutral>
0.00306713

> <r_epik_State_Penalty>
0.00215672

> <r_epik_Charging_Adjusted_Penalty>
0.00215672

> <i_epik_Tot_Q>
0

> <i_epik_Tot_abs_Q>
0

> <r_epik_Metal_State_Penalty>
-0

> <b_epik_Metal_Only>
0

> <s_lp_Force_Field>
OPLS_2005

> <r_lp_Energy>
15.0648

> <b_lp_Chiralities_Consistent>
1

> <s_lp_Variant>
AV-unprocessed.smi:2203-2

> <Gold.Version>
5.8.1

> <Gold.Id.Protein>
6NUR|6NUR_protein|mol2

> <Gold.PLP.Fitness>
40.9991

> <Gold.PLP.PLP>
-38.7742

> <Gold.PLP.part.hbond>
-1.0708

> <Gold.PLP.part.metal>
0.0000

> <Gold.PLP.part.buried>
-3.9071

> <Gold.PLP.part.nonpolar>
-36.1715

> <Gold.PLP.part.repulsive>
1.4422

> <Gold.PLP.ligand.clash>
0.0000

> <Gold.PLP.ligand.torsion>
0.4077

> <Gold.PLP.Chemscore.Hbond>
1.0000

> <Gold.PLP.Chemscore.CHOScore>
0.0000

> <Gold.PLP.Chemscore.Metal>
0.0000

> <Gold.Chemscore.Hbonds>
donor molecule, donor type, donor heavy atom, donor atom, acceptor molecule, acceptor atom, score
      L1  H    15    39       P1  7948  0.95

> <Gold.PLP.Chemscore.Internal.Correction>
0.0404

> <Gold.Rescore>
     Score         DG    S(hbond)    S(metal)    S(lipo)     H(rot)  DE(clash)    DE(int)     intcor
     14.96     -15.69       0.90        0.00      97.17       1.63       0.05       0.69       ----

> <Gold.Chemscore.Fitness>
14.9553

> <Gold.Chemscore.DG>
-15.6897

> <Gold.Chemscore.ZeroCoef>
-5.4800

> <Gold.Chemscore.Hbond>
0.9044

> <Gold.Chemscore.Metal>
0.0000

> <Gold.Chemscore.Lipo>
97.1745

> <Gold.Chemscore.Internal_Hbond>
0.0000

> <Gold.Chemscore.DEClash>
0.0463

> <Gold.Chemscore.DEInternal>
0.6881

> <Gold.Chemscore.Rot>
1.6329

> <Gold.Chemscore.Internal.Correction>
   9.000000E+99

> <Gold.Chemscore.Hbonds>
donor molecule, donor type, donor heavy atom, donor atom, acceptor molecule, acceptor atom, score
      L1  H    15    39       P1  7948  0.21

> <Gold.Chemscore.Hbond.Weighted>
-3.0206

> <Gold.Chemscore.Metal.Weighted>
-0.0000

> <Gold.Chemscore.Lipo.Weighted>
-11.3694

> <Gold.Chemscore.Internal_Hbond.Weighted>
0.0000

> <Gold.Chemscore.DEClash.Weighted>
0.0463

> <Gold.Chemscore.DEInternal.Weighted>
0.6881

> <Gold.Chemscore.Rot.Weighted>
4.1803

> <Gold.Chemscore.Internal.Correction.Weighted>
   9.000000E+99

> <Gold.Protein.RotatedTorsions>
[ 6907 6896 6895 6894 ] final    7.67 input  -60.11 | X-H torsion
[ 7974 7965 7964 7962 ] final  -70.30 input  175.53 | X-H torsion
[ 8008 7997 7996 7995 ] final  -13.82 input   59.86 | X-H torsion
[ 10167 10162 10161 10158 ] final   44.62 input  -65.29 | X-H torsion
[ 10718 10713 10712 10709 ] final  161.23 input   66.30 | X-H torsion
[ 10763 10752 10751 10750 ] final   -2.83 input  -60.55 | X-H torsion
[ 11005 11000 10999 10996 ] final  -27.69 input  -57.11 | X-H torsion

> <Gold.Protein.ActiveResidues>
 VAL166  LYS551  ARG553  GLY616  TRP617  ASP618  TYR619  PRO620  LYS621  CYS622 
 ASP623  PHE694  ASN695  SER759  ASP760  ASP761  ALA762  ILE779  LEU786  VAL792 
 PHE793  MET794  SER795  GLU796  ALA797  LYS798  CYS799  TRP800  GLU811  SER814 

> <Gold.Protein.RotatedAtoms>
  151.6936  135.0942  160.0237 H   0  0  0  0  0  0  0  0  0  0  0  0  # atno 6907 bound_to 6896
  152.3763  133.6482  159.6135 H   0  0  0  0  0  0  0  0  0  0  0  0  # atno 6908 bound_to 6896
  150.7712  133.9104  159.3409 H   0  0  0  0  0  0  0  0  0  0  0  0  # atno 6909 bound_to 6896
  145.6927  140.9147  143.0773 H   0  0  0  0  0  0  0  0  0  0  0  0  # atno 7974 bound_to 7965
  154.5260  140.2239  155.8888 H   0  0  0  0  0  0  0  0  0  0  0  0  # atno 8008 bound_to 7997
  156.1714  140.3121  155.8945 H   0  0  0  0  0  0  0  0  0  0  0  0  # atno 8009 bound_to 7997
  155.3550  140.0458  157.3037 H   0  0  0  0  0  0  0  0  0  0  0  0  # atno 8010 bound_to 7997
  140.3325  144.2571  150.6166 H   0  0  0  0  0  0  0  0  0  0  0  0  # atno 10167 bound_to 10162
  157.1394  131.0537  151.2334 H   0  0  0  0  0  0  0  0  0  0  0  0  # atno 10718 bound_to 10713
  153.3632  135.6991  153.6696 H   0  0  0  0  0  0  0  0  0  0  0  0  # atno 10763 bound_to 10752
  153.5376  135.3579  155.2704 H   0  0  0  0  0  0  0  0  0  0  0  0  # atno 10764 bound_to 10752
  154.8671  135.4195  154.2894 H   0  0  0  0  0  0  0  0  0  0  0  0  # atno 10765 bound_to 10752
  140.9142  133.7441  156.0711 H   0  0  0  0  0  0  0  0  0  0  0  0  # atno 11005 bound_to 11000
  144.6992  139.8842  143.7449 LP  0  0  0  0  0  0  0  0  0  0  0  0  # atno 17320 bound_to 7965
  146.0868  139.3856  143.0430 LP  0  0  0  0  0  0  0  0  0  0  0  0  # atno 17321 bound_to 7965
  140.5384  143.2228  151.8125 LP  0  0  0  0  0  0  0  0  0  0  0  0  # atno 17342 bound_to 10162
  139.4854  144.4631  151.9516 LP  0  0  0  0  0  0  0  0  0  0  0  0  # atno 17343 bound_to 10162
  157.4321  130.7496  149.6998 LP  0  0  0  0  0  0  0  0  0  0  0  0  # atno 17370 bound_to 10713
  155.9791  130.4043  150.3605 LP  0  0  0  0  0  0  0  0  0  0  0  0  # atno 17371 bound_to 10713
  140.8072  134.3441  157.5422 LP  0  0  0  0  0  0  0  0  0  0  0  0  # atno 17394 bound_to 11000
  139.8763  134.9232  156.3320 LP  0  0  0  0  0  0  0  0  0  0  0  0  # atno 17395 bound_to 11000

$$$$
