AV-unprocessed.smi:35|AV-procd|sdf|247|dock3
  -GOLD-   2262016 03D 1   1.00000     0.00000
 Structure written by MMmdl.
 29 30  0  0  0  0  0  0  0  0  1 V2000
  140.6485  135.0401  153.8173 O   0  0  0  0  0  0  0  0  0  0  0  0
  141.7885  135.4232  153.5636 C   0  0  0  0  0  0  0  0  0  0  0  0
  142.8608  134.5285  153.6107 N   0  0  0  0  0  0  0  0  0  0  0  0
  144.1927  134.8448  153.3380 C   0  0  0  0  0  0  0  0  0  0  0  0
  145.0604  133.9769  153.4264 O   0  0  0  0  0  0  0  0  0  0  0  0
  144.4825  136.1773  152.9649 N   0  0  0  0  0  0  0  0  0  0  0  0
  145.9301  136.5411  152.6800 C   0  0  2  0  0  0  0  0  0  0  0  0
  146.6565  136.5382  153.8738 O   0  0  0  0  0  0  0  0  0  0  0  0
  146.7480  137.8655  154.3821 C   0  0  1  0  0  0  0  0  0  0  0  0
  147.8493  137.9822  155.4497 C   0  0  0  0  0  0  0  0  0  0  0  0
  149.0795  137.5329  154.9225 O   0  0  0  0  0  0  0  0  0  0  0  0
  146.9716  138.6734  153.1006 C   0  0  1  0  0  0  0  0  0  0  0  0
  148.3335  138.6131  152.7067 O   0  0  0  0  0  0  0  0  0  0  0  0
  146.0387  137.9753  152.1110 C   0  0  1  0  0  0  0  0  0  0  0  0
  146.5229  138.0221  150.7811 O   0  0  0  0  0  0  0  0  0  0  0  0
  143.4490  137.1086  152.9322 C   0  0  0  0  0  0  0  0  0  0  0  0
  142.1625  136.7861  153.2043 C   0  0  0  0  0  0  0  0  0  0  0  0
  140.8393  138.2568  153.0966 Br  0  0  0  0  0  0  0  0  0  0  0  0
  142.6547  133.5743  153.8684 H   0  0  0  0  0  0  0  0  0  0  0  0
  146.3038  135.7548  152.0211 H   0  0  0  0  0  0  0  0  0  0  0  0
  145.7865  138.1618  154.8058 H   0  0  0  0  0  0  0  0  0  0  0  0
  147.9458  139.0053  155.8145 H   0  0  0  0  0  0  0  0  0  0  0  0
  147.6109  137.3509  156.3062 H   0  0  0  0  0  0  0  0  0  0  0  0
  149.4509  136.9041  155.5224 H   0  0  0  0  0  0  0  0  0  0  0  0
  146.7033  139.7222  153.2328 H   0  0  0  0  0  0  0  0  0  0  0  0
  148.5541  137.7089  152.5410 H   0  0  0  0  0  0  0  0  0  0  0  0
  145.0598  138.4559  152.1496 H   0  0  0  0  0  0  0  0  0  0  0  0
  145.8245  138.3258  150.2209 H   0  0  0  0  0  0  0  0  0  0  0  0
  143.6499  138.1402  152.6865 H   0  0  0  0  0  0  0  0  0  0  0  0
  1  2  2  0  0  0  0
  2 17  1  0  0  0  0
  2  3  1  0  0  0  0
  3 19  1  0  0  0  0
  3  4  1  0  0  0  0
  4  5  2  0  0  0  0
  4  6  1  0  0  0  0
  6  7  1  0  0  0  0
  6 16  1  0  0  0  0
  7 14  1  0  0  0  0
  7  8  1  0  0  0  0
  7 20  1  0  0  0  0
  8  9  1  0  0  0  0
  9 10  1  0  0  0  0
  9 12  1  0  0  0  0
  9 21  1  0  0  0  0
 10 11  1  0  0  0  0
 10 22  1  0  0  0  0
 10 23  1  0  0  0  0
 11 24  1  0  0  0  0
 12 13  1  0  0  0  0
 12 14  1  0  0  0  0
 12 25  1  0  0  0  0
 13 26  1  0  0  0  0
 14 15  1  0  0  0  0
 14 27  1  0  0  0  0
 15 28  1  0  0  0  0
 16 17  2  0  0  0  0
 16 29  1  0  0  0  0
 17 18  1  0  0  0  0
M  END
> <s_m_source_file>
AV-unprocessed.smi

> <i_m_source_file_index>
35

> <i_lp_mmshare_version>
43012

> <i_f3d_flags>
0

> <s_epik_input>
Tz1jMVtuSF1jKD1PKW4oW2NIXWMxQnIpW0NAQEhdMk9bQ0BASF0oW0NIMl1bT0hdKVtDQEBIXShbT0hdKVtDQEhdMltPSF0=

> <s_epik_cmdline>
J2VwaWtfcHl0aG9uJywgJy1waCcsICc3LjAnLCAnLXRuJywgJzgnLCAnLW1hJywgJzIwMCcsICctbWV0YWxfYmluZGluZycsICctaW1hZScsICc8aW5maWxlLm1hZT4nLCAnLW9tYWUnLCAnPG91dGZpbGUubWFlPic=

> <r_lp_tautomer_probability>
0.999537

> <r_epik_Ionization_Penalty>
0.10812

> <r_epik_Ionization_Penalty_Charging>
0.108119

> <r_epik_Ionization_Penalty_Neutral>
4.93006e-07

> <r_epik_State_Penalty>
0.0979238

> <r_epik_Charging_Adjusted_Penalty>
0.206043

> <i_epik_Tot_Q>
0

> <i_epik_Tot_abs_Q>
0

> <r_epik_Metal_State_Penalty>
3.07911

> <b_epik_Metal_Only>
0

> <s_epik_Chemistry_Notes>
This compound contains an acetal/aminal-like group ( X-CH(R)-Y where X, Y are N, S, or O) that may be acid/base labile, releasing an aldehyde.

> <s_lp_Force_Field>
OPLS_2005

> <r_lp_Energy>
33.4515

> <b_lp_Chiralities_Consistent>
1

> <s_lp_Variant>
AV-unprocessed.smi:35-1

> <Gold.Version>
5.8.1

> <Gold.Id.Protein>
6NUR|6NUR_protein|mol2

> <Gold.PLP.Fitness>
45.1506

> <Gold.PLP.PLP>
-26.9472

> <Gold.PLP.part.hbond>
-6.6679

> <Gold.PLP.part.metal>
0.0000

> <Gold.PLP.part.buried>
-3.6495

> <Gold.PLP.part.nonpolar>
-15.8329

> <Gold.PLP.part.repulsive>
0.6074

> <Gold.PLP.ligand.clash>
0.0000

> <Gold.PLP.ligand.torsion>
0.2111

> <Gold.PLP.Chemscore.Hbond>
5.0000

> <Gold.PLP.Chemscore.CHOScore>
1.2007

> <Gold.PLP.Chemscore.Metal>
0.0000

> <Gold.Chemscore.Hbonds>
donor molecule, donor type, donor heavy atom, donor atom, acceptor molecule, acceptor atom, score
      L1  H     3    19       P1 10957  1.00
      L1  H    13    26       P1  7948  1.00
      L1  H    15    28       P1 10171  1.00
      P1  H  7954  7966       L1    15  1.00
      P1  H 11000 11005       L1     1  0.84
      L1  C    16    29       P1 10171  0.05
      L1  C    16    29       P1 10175  1.00

> <Gold.PLP.Chemscore.Internal.Correction>
0.0234

> <Gold.Rescore>
     Score         DG    S(hbond)    S(metal)    S(lipo)     H(rot)  DE(clash)    DE(int)     intcor
     15.47     -15.95       4.85        0.00      31.25       3.67       0.14       0.34       ----

> <Gold.Chemscore.Fitness>
15.4669

> <Gold.Chemscore.DG>
-15.9471

> <Gold.Chemscore.ZeroCoef>
-5.4800

> <Gold.Chemscore.Hbond>
4.8522

> <Gold.Chemscore.Metal>
0.0000

> <Gold.Chemscore.Lipo>
31.2488

> <Gold.Chemscore.Internal_Hbond>
0.0000

> <Gold.Chemscore.DEClash>
0.1355

> <Gold.Chemscore.DEInternal>
0.3447

> <Gold.Chemscore.Rot>
3.6701

> <Gold.Chemscore.Internal.Correction>
   9.000000E+99

> <Gold.Chemscore.Hbonds>
donor molecule, donor type, donor heavy atom, donor atom, acceptor molecule, acceptor atom, score
      L1  H     3    19       P1 10957  0.94
      L1  H    13    26       P1  7948  1.00
      L1  H    15    28       P1 10171  0.94
      P1  H  7954  7966       L1    15  0.83
      P1  H 11000 11005       L1     1  0.80

> <Gold.Chemscore.Hbond.Weighted>
-16.2065

> <Gold.Chemscore.Metal.Weighted>
-0.0000

> <Gold.Chemscore.Lipo.Weighted>
-3.6561

> <Gold.Chemscore.Internal_Hbond.Weighted>
0.0000

> <Gold.Chemscore.DEClash.Weighted>
0.1355

> <Gold.Chemscore.DEInternal.Weighted>
0.3447

> <Gold.Chemscore.Rot.Weighted>
9.3955

> <Gold.Chemscore.Internal.Correction.Weighted>
   9.000000E+99

> <Gold.Protein.RotatedTorsions>
[ 6907 6896 6895 6894 ] final  -52.87 input  -60.11 | X-H torsion
[ 7974 7965 7964 7962 ] final   77.77 input  175.53 | X-H torsion
[ 8008 7997 7996 7995 ] final -173.27 input   59.86 | X-H torsion
[ 10167 10162 10161 10158 ] final   10.38 input  -65.29 | X-H torsion
[ 10718 10713 10712 10709 ] final  -61.69 input   66.30 | X-H torsion
[ 10763 10752 10751 10750 ] final  -58.99 input  -60.55 | X-H torsion
[ 11005 11000 10999 10996 ] final   43.88 input  -57.11 | X-H torsion

> <Gold.Protein.ActiveResidues>
 VAL166  LYS551  ARG553  GLY616  TRP617  ASP618  TYR619  PRO620  LYS621  CYS622 
 ASP623  PHE694  ASN695  SER759  ASP760  ASP761  ALA762  ILE779  LEU786  VAL792 
 PHE793  MET794  SER795  GLU796  ALA797  LYS798  CYS799  TRP800  GLU811  SER814 

> <Gold.Protein.RotatedAtoms>
  150.8479  134.7793  159.6984 H   0  0  0  0  0  0  0  0  0  0  0  0  # atno 6907 bound_to 6896
  152.4551  134.5306  159.9819 H   0  0  0  0  0  0  0  0  0  0  0  0  # atno 6908 bound_to 6896
  151.5433  133.3391  159.2975 H   0  0  0  0  0  0  0  0  0  0  0  0  # atno 6909 bound_to 6896
  145.6858  139.2537  143.1788 H   0  0  0  0  0  0  0  0  0  0  0  0  # atno 7974 bound_to 7965
  155.9553  140.1134  157.0942 H   0  0  0  0  0  0  0  0  0  0  0  0  # atno 8008 bound_to 7997
  154.4119  140.1192  156.5173 H   0  0  0  0  0  0  0  0  0  0  0  0  # atno 8009 bound_to 7997
  155.6790  140.3473  155.4850 H   0  0  0  0  0  0  0  0  0  0  0  0  # atno 8010 bound_to 7997
  140.6198  143.8229  150.7161 H   0  0  0  0  0  0  0  0  0  0  0  0  # atno 10167 bound_to 10162
  156.0905  130.4201  150.1030 H   0  0  0  0  0  0  0  0  0  0  0  0  # atno 10718 bound_to 10713
  154.2468  135.6333  153.5226 H   0  0  0  0  0  0  0  0  0  0  0  0  # atno 10763 bound_to 10752
  152.9920  135.5555  154.5851 H   0  0  0  0  0  0  0  0  0  0  0  0  # atno 10764 bound_to 10752
  154.5369  135.2892  155.1105 H   0  0  0  0  0  0  0  0  0  0  0  0  # atno 10765 bound_to 10752
  140.1603  134.4349  155.8322 H   0  0  0  0  0  0  0  0  0  0  0  0  # atno 11005 bound_to 11000
  146.0925  140.7639  142.9588 LP  0  0  0  0  0  0  0  0  0  0  0  0  # atno 17320 bound_to 7965
  144.7012  140.3659  143.7155 LP  0  0  0  0  0  0  0  0  0  0  0  0  # atno 17321 bound_to 7965
  140.1817  143.4109  152.1928 LP  0  0  0  0  0  0  0  0  0  0  0  0  # atno 17342 bound_to 10162
  139.5429  144.7272  151.4676 LP  0  0  0  0  0  0  0  0  0  0  0  0  # atno 17343 bound_to 10162
  156.9041  130.9630  151.3572 LP  0  0  0  0  0  0  0  0  0  0  0  0  # atno 17370 bound_to 10713
  157.6052  130.8542  149.8864 LP  0  0  0  0  0  0  0  0  0  0  0  0  # atno 17371 bound_to 10713
  141.2209  133.6910  156.7583 LP  0  0  0  0  0  0  0  0  0  0  0  0  # atno 17394 bound_to 11000
  140.2497  134.8550  157.3655 LP  0  0  0  0  0  0  0  0  0  0  0  0  # atno 17395 bound_to 11000

$$$$
