AV-unprocessed.smi:787|AV-procd|sdf|3726|dock4
  -GOLD-   22720 1153D 1   1.00000     0.00000
 Structure written by MMmdl.
 47 49  0  0  0  0  0  0  0  0  2 V2000
  146.4456  136.7421  154.9751 C   0  0  0  0  0  0  0  0  0  0  0  0
  147.7796  136.5071  154.4460 N   0  0  0  0  0  0  0  0  0  0  0  0
  148.7958  135.9984  155.2676 C   0  0  0  0  0  0  0  0  0  0  0  0
  148.5863  134.8718  155.9862 N   0  0  0  0  0  0  0  0  0  0  0  0
  149.5895  134.4225  156.7526 C   0  0  0  0  0  0  0  0  0  0  0  0
  150.8173  134.9369  156.9255 N   0  0  0  0  0  0  0  0  0  0  0  0
  151.0337  136.0548  156.2193 C   0  0  0  0  0  0  0  0  0  0  0  0
  152.2023  136.7972  156.2050 N   0  0  0  0  0  0  0  0  0  0  0  0
  151.8901  137.7802  155.3640 C   0  0  0  0  0  0  0  0  0  0  0  0
  150.6522  137.7712  154.8310 N   0  0  0  0  0  0  0  0  0  0  0  0
  150.0945  138.7383  153.9034 C   0  0  0  0  0  0  0  0  0  0  0  0
  150.0250  140.1561  154.5092 C   0  0  1  0  0  0  0  0  0  0  0  0
  149.5306  141.0534  153.5361 O   0  0  0  0  0  0  0  0  0  0  0  0
  149.1077  140.2269  155.7437 C   0  0  0  0  0  0  0  0  0  0  0  0
  149.6110  141.1997  156.7496 N   0  3  1  0  0  0  0  0  0  0  0  0
  148.7924  141.2227  157.9837 C   0  0  0  0  0  0  0  0  0  0  0  0
  151.0579  141.0564  157.0439 C   0  0  0  0  0  0  0  0  0  0  0  0
  151.5556  142.1656  157.9546 C   0  0  0  0  0  0  0  0  0  0  0  0
  151.5005  143.5080  157.5234 C   0  0  0  0  0  0  0  0  0  0  0  0
  151.9747  144.5393  158.3571 C   0  0  0  0  0  0  0  0  0  0  0  0
  152.5017  144.2331  159.6264 C   0  0  0  0  0  0  0  0  0  0  0  0
  152.5546  142.8950  160.0622 C   0  0  0  0  0  0  0  0  0  0  0  0
  152.0817  141.8630  159.2288 C   0  0  0  0  0  0  0  0  0  0  0  0
  150.0478  136.6368  155.3673 C   0  0  0  0  0  0  0  0  0  0  0  0
  145.7988  137.1383  154.1923 H   0  0  0  0  0  0  0  0  0  0  0  0
  146.4758  137.4646  155.7915 H   0  0  0  0  0  0  0  0  0  0  0  0
  146.0065  135.8146  155.3437 H   0  0  0  0  0  0  0  0  0  0  0  0
  147.9706  136.7140  153.4777 H   0  0  0  0  0  0  0  0  0  0  0  0
  149.3812  133.5206  157.3088 H   0  0  0  0  0  0  0  0  0  0  0  0
  152.6028  138.5564  155.1252 H   0  0  0  0  0  0  0  0  0  0  0  0
  150.6932  138.7402  152.9910 H   0  0  0  0  0  0  0  0  0  0  0  0
  149.1027  138.3905  153.6142 H   0  0  0  0  0  0  0  0  0  0  0  0
  151.0255  140.4967  154.7746 H   0  0  0  0  0  0  0  0  0  0  0  0
  149.6247  140.6568  152.6830 H   0  0  0  0  0  0  0  0  0  0  0  0
  148.0914  140.5026  155.4563 H   0  0  0  0  0  0  0  0  0  0  0  0
  149.0326  139.2267  156.1704 H   0  0  0  0  0  0  0  0  0  0  0  0
  148.8810  140.2821  158.5289 H   0  0  0  0  0  0  0  0  0  0  0  0
  147.7389  141.3872  157.7584 H   0  0  0  0  0  0  0  0  0  0  0  0
  149.1131  142.0305  158.6425 H   0  0  0  0  0  0  0  0  0  0  0  0
  151.2417  140.1082  157.5517 H   0  0  0  0  0  0  0  0  0  0  0  0
  151.6293  141.0292  156.1144 H   0  0  0  0  0  0  0  0  0  0  0  0
  151.0993  143.7504  156.5501 H   0  0  0  0  0  0  0  0  0  0  0  0
  151.9339  145.5660  158.0235 H   0  0  0  0  0  0  0  0  0  0  0  0
  152.8639  145.0242  160.2667 H   0  0  0  0  0  0  0  0  0  0  0  0
  152.9579  142.6606  161.0364 H   0  0  0  0  0  0  0  0  0  0  0  0
  152.1278  140.8392  159.5710 H   0  0  0  0  0  0  0  0  0  0  0  0
  149.5170  142.1130  156.3297 H   0  0  0  0  0  0  0  0  0  0  0  0
  1  2  1  0  0  0  0
  1 25  1  0  0  0  0
  1 26  1  0  0  0  0
  1 27  1  0  0  0  0
  2  3  1  0  0  0  0
  2 28  1  0  0  0  0
  3 24  1  0  0  0  0
  3  4  2  0  0  0  0
  4  5  1  0  0  0  0
  5  6  2  0  0  0  0
  5 29  1  0  0  0  0
  6  7  1  0  0  0  0
  7 24  2  0  0  0  0
  7  8  1  0  0  0  0
  8  9  2  0  0  0  0
  9 10  1  0  0  0  0
  9 30  1  0  0  0  0
 10 11  1  0  0  0  0
 10 24  1  0  0  0  0
 11 12  1  0  0  0  0
 11 31  1  0  0  0  0
 11 32  1  0  0  0  0
 12 13  1  0  0  0  0
 12 14  1  0  0  0  0
 12 33  1  0  0  0  0
 13 34  1  0  0  0  0
 14 15  1  0  0  0  0
 14 35  1  0  0  0  0
 14 36  1  0  0  0  0
 15 16  1  0  0  0  0
 15 17  1  0  0  0  0
 15 47  1  0  0  0  0
 16 37  1  0  0  0  0
 16 38  1  0  0  0  0
 16 39  1  0  0  0  0
 17 18  1  0  0  0  0
 17 40  1  0  0  0  0
 17 41  1  0  0  0  0
 18 23  1  0  0  0  0
 18 19  2  0  0  0  0
 19 20  1  0  0  0  0
 19 42  1  0  0  0  0
 20 21  2  0  0  0  0
 20 43  1  0  0  0  0
 21 22  1  0  0  0  0
 21 44  1  0  0  0  0
 22 23  2  0  0  0  0
 22 45  1  0  0  0  0
 23 46  1  0  0  0  0
M  CHG  1  15   1
M  END
> <s_m_source_file>
AV-unprocessed.smi

> <i_m_source_file_index>
787

> <i_lp_mmshare_version>
43012

> <i_f3d_flags>
0

> <s_epik_input>
bjFbY0hdbmMoW05IXVtDSDNdKWMoYzEyKW4oW2NIXW4yKVtDSDJdW0NASF0oW09IXSlbQ0gyXU4oW0NIM10pW0NIMl1jM1tjSF1bY0hdW2NIXVtjSF1bY0hdMw==

> <s_epik_cmdline>
J2VwaWtfcHl0aG9uJywgJy1waCcsICc3LjAnLCAnLXRuJywgJzgnLCAnLW1hJywgJzIwMCcsICctbWV0YWxfYmluZGluZycsICctaW1hZScsICc8aW5maWxlLm1hZT4nLCAnLW9tYWUnLCAnPG91dGZpbGUubWFlPic=

> <r_lp_tautomer_probability>
0.999987

> <r_epik_Ionization_Penalty>
0.0526284

> <r_epik_Ionization_Penalty_Charging>
0.0475377

> <r_epik_Ionization_Penalty_Neutral>
0.00509065

> <r_epik_State_Penalty>
0.0404888

> <r_epik_Charging_Adjusted_Penalty>
0.0880265

> <i_epik_Tot_Q>
1

> <i_epik_Tot_abs_Q>
1

> <r_epik_Metal_State_Penalty>
0.040507

> <b_epik_Metal_Only>
0

> <s_lp_Force_Field>
OPLS_2005

> <r_lp_Energy>
14.3877

> <b_lp_Chiralities_Consistent>
1

> <s_lp_Variant>
AV-unprocessed.smi:787-2

> <Gold.Version>
5.8.1

> <Gold.Id.Protein>
6NUR|6NUR_protein|mol2

> <Gold.PLP.Fitness>
48.6390

> <Gold.PLP.PLP>
-42.3865

> <Gold.PLP.part.hbond>
-5.6942

> <Gold.PLP.part.metal>
0.0000

> <Gold.PLP.part.buried>
-2.8907

> <Gold.PLP.part.nonpolar>
-34.1259

> <Gold.PLP.part.repulsive>
0.0521

> <Gold.PLP.ligand.clash>
0.0000

> <Gold.PLP.ligand.torsion>
0.9849

> <Gold.PLP.Chemscore.Hbond>
2.6704

> <Gold.PLP.Chemscore.CHOScore>
0.0000

> <Gold.PLP.Chemscore.Metal>
0.0000

> <Gold.Chemscore.Hbonds>
donor molecule, donor type, donor heavy atom, donor atom, acceptor molecule, acceptor atom, score
      L1  H     2    28       P1  7948  0.94
      L1  H    13    34       P1  7957  1.00
      P1  H 10752 10763       L1     8  0.80

> <Gold.PLP.Chemscore.Internal.Correction>
0.2111

> <Gold.Rescore>
     Score         DG    S(hbond)    S(metal)    S(lipo)     H(rot)  DE(clash)    DE(int)     intcor
     14.29     -15.36       1.95        0.00      98.61       3.19       0.01       1.06       ----

> <Gold.Chemscore.Fitness>
14.2888

> <Gold.Chemscore.DG>
-15.3581

> <Gold.Chemscore.ZeroCoef>
-5.4800

> <Gold.Chemscore.Hbond>
1.9503

> <Gold.Chemscore.Metal>
0.0000

> <Gold.Chemscore.Lipo>
98.6134

> <Gold.Chemscore.Internal_Hbond>
0.0000

> <Gold.Chemscore.DEClash>
0.0112

> <Gold.Chemscore.DEInternal>
1.0581

> <Gold.Chemscore.Rot>
3.1928

> <Gold.Chemscore.Internal.Correction>
   9.000000E+99

> <Gold.Chemscore.Hbonds>
donor molecule, donor type, donor heavy atom, donor atom, acceptor molecule, acceptor atom, score
      L1  H     2    28       P1  7948  0.90
      L1  H    13    34       P1  7957  1.00
      P1  H 10752 10763       L1     8  0.06

> <Gold.Chemscore.Hbond.Weighted>
-6.5139

> <Gold.Chemscore.Metal.Weighted>
-0.0000

> <Gold.Chemscore.Lipo.Weighted>
-11.5378

> <Gold.Chemscore.Internal_Hbond.Weighted>
0.0000

> <Gold.Chemscore.DEClash.Weighted>
0.0112

> <Gold.Chemscore.DEInternal.Weighted>
1.0581

> <Gold.Chemscore.Rot.Weighted>
8.1736

> <Gold.Chemscore.Internal.Correction.Weighted>
   9.000000E+99

> <Gold.Protein.RotatedTorsions>
[ 6907 6896 6895 6894 ] final  118.83 input  -60.11 | X-H torsion
[ 7974 7965 7964 7962 ] final  -61.25 input  175.53 | X-H torsion
[ 8008 7997 7996 7995 ] final -169.29 input   59.86 | X-H torsion
[ 10167 10162 10161 10158 ] final  -41.25 input  -65.29 | X-H torsion
[ 10718 10713 10712 10709 ] final  -39.91 input   66.30 | X-H torsion
[ 10763 10752 10751 10750 ] final  100.30 input  -60.55 | X-H torsion
[ 11005 11000 10999 10996 ] final  111.37 input  -57.11 | X-H torsion

> <Gold.Protein.ActiveResidues>
 VAL166  LYS551  ARG553  GLY616  TRP617  ASP618  TYR619  PRO620  LYS621  CYS622 
 ASP623  PHE694  ASN695  SER759  ASP760  ASP761  ALA762  ILE779  LEU786  VAL792 
 PHE793  MET794  SER795  GLU796  ALA797  LYS798  CYS799  TRP800  GLU811  SER814 

> <Gold.Protein.RotatedAtoms>
  152.4515  133.7639  159.6761 H   0  0  0  0  0  0  0  0  0  0  0  0  # atno 6907 bound_to 6896
  150.8429  133.7898  159.3060 H   0  0  0  0  0  0  0  0  0  0  0  0  # atno 6908 bound_to 6896
  151.5517  135.1070  160.0003 H   0  0  0  0  0  0  0  0  0  0  0  0  # atno 6909 bound_to 6896
  145.8058  140.8628  143.0208 H   0  0  0  0  0  0  0  0  0  0  0  0  # atno 7974 bound_to 7965
  155.9030  140.1044  157.1336 H   0  0  0  0  0  0  0  0  0  0  0  0  # atno 8008 bound_to 7997
  154.4029  140.1289  156.4524 H   0  0  0  0  0  0  0  0  0  0  0  0  # atno 8009 bound_to 7997
  155.7400  140.3467  155.5102 H   0  0  0  0  0  0  0  0  0  0  0  0  # atno 8010 bound_to 7997
  140.7008  143.3105  151.3040 H   0  0  0  0  0  0  0  0  0  0  0  0  # atno 10167 bound_to 10162
  156.2872  130.4224  149.8276 H   0  0  0  0  0  0  0  0  0  0  0  0  # atno 10718 bound_to 10713
  153.3123  135.4083  155.1346 H   0  0  0  0  0  0  0  0  0  0  0  0  # atno 10763 bound_to 10752
  154.8579  135.3567  154.5707 H   0  0  0  0  0  0  0  0  0  0  0  0  # atno 10764 bound_to 10752
  153.6137  135.7067  153.5396 H   0  0  0  0  0  0  0  0  0  0  0  0  # atno 10765 bound_to 10752
  139.8902  134.9506  156.6421 H   0  0  0  0  0  0  0  0  0  0  0  0  # atno 11005 bound_to 11000
  144.6763  140.0324  143.7482 LP  0  0  0  0  0  0  0  0  0  0  0  0  # atno 17320 bound_to 7965
  145.9830  139.2956  143.1030 LP  0  0  0  0  0  0  0  0  0  0  0  0  # atno 17321 bound_to 7965
  139.6526  144.0334  152.2637 LP  0  0  0  0  0  0  0  0  0  0  0  0  # atno 17342 bound_to 10162
  139.9875  144.6385  150.7844 LP  0  0  0  0  0  0  0  0  0  0  0  0  # atno 17343 bound_to 10162
  156.5702  130.8421  151.3354 LP  0  0  0  0  0  0  0  0  0  0  0  0  # atno 17370 bound_to 10713
  157.7332  130.9727  150.1966 LP  0  0  0  0  0  0  0  0  0  0  0  0  # atno 17371 bound_to 10713
  140.7585  133.8837  155.8400 LP  0  0  0  0  0  0  0  0  0  0  0  0  # atno 17394 bound_to 11000
  140.9941  134.1238  157.4380 LP  0  0  0  0  0  0  0  0  0  0  0  0  # atno 17395 bound_to 11000

$$$$
