AV-unprocessed.smi:1498|AV-procd|sdf|6059|dock5
  -GOLD-   22720 6173D 1   1.00000     0.00000
 Structure written by MMmdl.
 38 39  0  0  0  0  0  0  0  0  2 V2000
  143.4477  132.9607  148.9206 C   0  0  0  0  0  0  0  0  0  0  0  0
  144.7849  133.3613  149.4077 N   0  3  0  0  0  0  0  0  0  0  0  0
  145.6917  132.1994  149.6004 C   0  0  0  0  0  0  0  0  0  0  0  0
  147.0747  132.6450  150.1129 C   0  0  0  0  0  0  0  0  0  0  0  0
  146.8990  133.4323  151.3434 N   0  0  0  0  0  0  0  0  0  0  0  0
  147.1602  133.0089  152.6062 C   0  0  0  0  0  0  0  0  0  0  0  0
  146.7618  133.6122  153.6029 O   0  0  0  0  0  0  0  0  0  0  0  0
  147.9474  131.9180  152.6705 N   0  0  0  0  0  0  0  0  0  0  0  0
  148.3937  131.2352  153.8305 C   0  0  0  0  0  0  0  0  0  0  0  0
  148.0360  131.5823  155.1591 C   0  0  0  0  0  0  0  0  0  0  0  0
  148.6001  130.7667  156.0364 N   0  0  0  0  0  0  0  0  0  0  0  0
  149.3211  129.8918  155.2910 N   0  0  0  0  0  0  0  0  0  0  0  0
  150.0765  128.8391  155.9472 C   0  0  0  0  0  0  0  0  0  0  0  0
  150.7381  127.9113  154.9265 C   0  0  0  0  0  0  0  0  0  0  0  0
  151.7102  128.4292  154.1709 N   0  0  0  0  0  0  0  0  0  0  0  0
  150.3737  126.7426  154.8190 O   0  0  0  0  0  0  0  0  0  0  0  0
  149.2191  130.1517  153.9380 C   0  0  0  0  0  0  0  0  0  0  0  0
  146.1213  134.6473  151.0782 C   0  0  0  0  0  0  0  0  0  0  0  0
  144.7140  134.2515  150.5955 C   0  0  0  0  0  0  0  0  0  0  0  0
  142.9288  132.3491  149.6600 H   0  0  0  0  0  0  0  0  0  0  0  0
  143.5309  132.3856  147.9979 H   0  0  0  0  0  0  0  0  0  0  0  0
  142.8354  133.8384  148.7117 H   0  0  0  0  0  0  0  0  0  0  0  0
  145.2423  131.5035  150.3110 H   0  0  0  0  0  0  0  0  0  0  0  0
  145.8019  131.6636  148.6570 H   0  0  0  0  0  0  0  0  0  0  0  0
  147.7163  131.7721  150.2315 H   0  0  0  0  0  0  0  0  0  0  0  0
  147.5669  133.2659  149.3628 H   0  0  0  0  0  0  0  0  0  0  0  0
  148.2504  131.5279  151.7901 H   0  0  0  0  0  0  0  0  0  0  0  0
  147.3991  132.3812  155.5093 H   0  0  0  0  0  0  0  0  0  0  0  0
  150.8367  129.2987  156.5802 H   0  0  0  0  0  0  0  0  0  0  0  0
  149.4181  128.2655  156.6019 H   0  0  0  0  0  0  0  0  0  0  0  0
  152.1692  127.8552  153.4783 H   0  0  0  0  0  0  0  0  0  0  0  0
  151.9767  129.3958  154.2900 H   0  0  0  0  0  0  0  0  0  0  0  0
  149.7304  129.5504  153.2010 H   0  0  0  0  0  0  0  0  0  0  0  0
  146.0491  135.3010  151.9489 H   0  0  0  0  0  0  0  0  0  0  0  0
  146.6278  135.2360  150.3119 H   0  0  0  0  0  0  0  0  0  0  0  0
  144.1426  135.1466  150.3467 H   0  0  0  0  0  0  0  0  0  0  0  0
  144.1771  133.7436  151.3985 H   0  0  0  0  0  0  0  0  0  0  0  0
  145.1996  133.9162  148.6725 H   0  0  0  0  0  0  0  0  0  0  0  0
  1  2  1  0  0  0  0
  1 20  1  0  0  0  0
  1 21  1  0  0  0  0
  1 22  1  0  0  0  0
  2 19  1  0  0  0  0
  2  3  1  0  0  0  0
  2 38  1  0  0  0  0
  3  4  1  0  0  0  0
  3 23  1  0  0  0  0
  3 24  1  0  0  0  0
  4  5  1  0  0  0  0
  4 25  1  0  0  0  0
  4 26  1  0  0  0  0
  5  6  1  0  0  0  0
  5 18  1  0  0  0  0
  6  7  2  0  0  0  0
  6  8  1  0  0  0  0
  8  9  1  0  0  0  0
  8 27  1  0  0  0  0
  9 17  2  0  0  0  0
  9 10  1  0  0  0  0
 10 11  2  0  0  0  0
 10 28  1  0  0  0  0
 11 12  1  0  0  0  0
 12 13  1  0  0  0  0
 12 17  1  0  0  0  0
 13 14  1  0  0  0  0
 13 29  1  0  0  0  0
 13 30  1  0  0  0  0
 14 15  1  0  0  0  0
 14 16  2  0  0  0  0
 15 31  1  0  0  0  0
 15 32  1  0  0  0  0
 17 33  1  0  0  0  0
 18 19  1  0  0  0  0
 18 34  1  0  0  0  0
 18 35  1  0  0  0  0
 19 36  1  0  0  0  0
 19 37  1  0  0  0  0
M  CHG  1   2   1
M  END
> <s_m_source_file>
AV-unprocessed.smi

> <i_m_source_file_index>
1498

> <i_lp_mmshare_version>
43012

> <i_f3d_flags>
0

> <s_epik_input>
W0NIM11OMVtDSDJdW0NIMl1OKFtDSDJdW0NIMl0xKUMoPU8pW05IXWMyW2NIXW5uKFtjSF0yKVtDSDJdQyg9TylbTkgyXQ==

> <s_epik_cmdline>
J2VwaWtfcHl0aG9uJywgJy1waCcsICc3LjAnLCAnLXRuJywgJzgnLCAnLW1hJywgJzIwMCcsICctbWV0YWxfYmluZGluZycsICctaW1hZScsICc8aW5maWxlLm1hZT4nLCAnLW9tYWUnLCAnPG91dGZpbGUubWFlPic=

> <r_lp_tautomer_probability>
1

> <r_epik_Ionization_Penalty>
0.25453

> <r_epik_Ionization_Penalty_Charging>
0.254506

> <r_epik_Ionization_Penalty_Neutral>
2.46477e-05

> <r_epik_State_Penalty>
0.245983

> <r_epik_Charging_Adjusted_Penalty>
0.500488

> <i_epik_Tot_Q>
1

> <i_epik_Tot_abs_Q>
1

> <r_epik_Metal_State_Penalty>
0.245984

> <b_epik_Metal_Only>
0

> <s_lp_Force_Field>
OPLS_2005

> <r_lp_Energy>
51.0402

> <b_lp_Chiralities_Consistent>
1

> <s_lp_Variant>
AV-unprocessed.smi:1498-1

> <Gold.Version>
5.8.1

> <Gold.Id.Protein>
6NUR|6NUR_protein|mol2

> <Gold.PLP.Fitness>
34.6074

> <Gold.PLP.PLP>
-26.8815

> <Gold.PLP.part.hbond>
-3.0000

> <Gold.PLP.part.metal>
0.0000

> <Gold.PLP.part.buried>
0.4234

> <Gold.PLP.part.nonpolar>
-24.4634

> <Gold.PLP.part.repulsive>
0.3889

> <Gold.PLP.ligand.clash>
0.0000

> <Gold.PLP.ligand.torsion>
0.1225

> <Gold.PLP.Chemscore.Hbond>
2.6400

> <Gold.PLP.Chemscore.CHOScore>
0.0000

> <Gold.PLP.Chemscore.Metal>
0.0000

> <Gold.Chemscore.Hbonds>
donor molecule, donor type, donor heavy atom, donor atom, acceptor molecule, acceptor atom, score
      L1  H     2    38       P1  7921  1.00
      L1  H     8    27       P1 10747  1.00
      L1  H    15    31       P1 10737  0.70

> <Gold.PLP.Chemscore.Internal.Correction>
0.0509

> <Gold.Rescore>
     Score         DG    S(hbond)    S(metal)    S(lipo)     H(rot)  DE(clash)    DE(int)     intcor
     15.29     -18.25       2.74        0.00      64.77       1.55       1.39       1.57       ----

> <Gold.Chemscore.Fitness>
15.2928

> <Gold.Chemscore.DG>
-18.2453

> <Gold.Chemscore.ZeroCoef>
-5.4800

> <Gold.Chemscore.Hbond>
2.7408

> <Gold.Chemscore.Metal>
0.0000

> <Gold.Chemscore.Lipo>
64.7657

> <Gold.Chemscore.Internal_Hbond>
0.0000

> <Gold.Chemscore.DEClash>
1.3867

> <Gold.Chemscore.DEInternal>
1.5658

> <Gold.Chemscore.Rot>
1.5494

> <Gold.Chemscore.Internal.Correction>
   9.000000E+99

> <Gold.Chemscore.Hbonds>
donor molecule, donor type, donor heavy atom, donor atom, acceptor molecule, acceptor atom, score
      L1  H     2    38       P1  7921  0.92
      L1  H     8    27       P1 10747  1.00
      L1  H    15    31       P1 10737  0.69

> <Gold.Chemscore.Hbond.Weighted>
-9.1543

> <Gold.Chemscore.Metal.Weighted>
-0.0000

> <Gold.Chemscore.Lipo.Weighted>
-7.5776

> <Gold.Chemscore.Internal_Hbond.Weighted>
0.0000

> <Gold.Chemscore.DEClash.Weighted>
1.3867

> <Gold.Chemscore.DEInternal.Weighted>
1.5658

> <Gold.Chemscore.Rot.Weighted>
3.9665

> <Gold.Chemscore.Internal.Correction.Weighted>
   9.000000E+99

> <Gold.Protein.RotatedTorsions>
[ 6907 6896 6895 6894 ] final   75.25 input  -60.11 | X-H torsion
[ 7974 7965 7964 7962 ] final  103.54 input  175.53 | X-H torsion
[ 8008 7997 7996 7995 ] final  136.88 input   59.86 | X-H torsion
[ 10167 10162 10161 10158 ] final -130.81 input  -65.29 | X-H torsion
[ 10718 10713 10712 10709 ] final  -71.91 input   66.30 | X-H torsion
[ 10763 10752 10751 10750 ] final  162.94 input  -60.55 | X-H torsion
[ 11005 11000 10999 10996 ] final   41.96 input  -57.11 | X-H torsion

> <Gold.Protein.ActiveResidues>
 VAL166  LYS551  ARG553  GLY616  TRP617  ASP618  TYR619  PRO620  LYS621  CYS622 
 ASP623  PHE694  ASN695  SER759  ASP760  ASP761  ALA762  ILE779  LEU786  VAL792 
 PHE793  MET794  SER795  GLU796  ALA797  LYS798  CYS799  TRP800  GLU811  SER814 

> <Gold.Protein.RotatedAtoms>
  152.5016  134.4149  159.9460 H   0  0  0  0  0  0  0  0  0  0  0  0  # atno 6907 bound_to 6896
  151.4119  133.3719  159.2753 H   0  0  0  0  0  0  0  0  0  0  0  0  # atno 6908 bound_to 6896
  150.9286  134.8723  159.7595 H   0  0  0  0  0  0  0  0  0  0  0  0  # atno 6909 bound_to 6896
  145.3446  139.2454  143.3591 H   0  0  0  0  0  0  0  0  0  0  0  0  # atno 7974 bound_to 7965
  156.3003  140.2433  156.3818 H   0  0  0  0  0  0  0  0  0  0  0  0  # atno 8008 bound_to 7997
  154.8694  140.0417  157.1734 H   0  0  0  0  0  0  0  0  0  0  0  0  # atno 8009 bound_to 7997
  154.8812  140.2949  155.5428 H   0  0  0  0  0  0  0  0  0  0  0  0  # atno 8010 bound_to 7997
  139.9254  143.6333  152.2543 H   0  0  0  0  0  0  0  0  0  0  0  0  # atno 10167 bound_to 10162
  156.0342  130.4361  150.2514 H   0  0  0  0  0  0  0  0  0  0  0  0  # atno 10718 bound_to 10713
  154.2861  135.2762  155.2675 H   0  0  0  0  0  0  0  0  0  0  0  0  # atno 10763 bound_to 10752
  154.5175  135.5765  153.6657 H   0  0  0  0  0  0  0  0  0  0  0  0  # atno 10764 bound_to 10752
  152.9921  135.6196  154.3023 H   0  0  0  0  0  0  0  0  0  0  0  0  # atno 10765 bound_to 10752
  140.1785  134.4134  155.8214 H   0  0  0  0  0  0  0  0  0  0  0  0  # atno 11005 bound_to 11000
  146.2993  140.4050  142.8710 LP  0  0  0  0  0  0  0  0  0  0  0  0  # atno 17320 bound_to 7965
  144.8764  140.7342  143.6014 LP  0  0  0  0  0  0  0  0  0  0  0  0  # atno 17321 bound_to 7965
  139.6826  144.7654  151.1580 LP  0  0  0  0  0  0  0  0  0  0  0  0  # atno 17342 bound_to 10162
  140.7651  143.5702  150.9004 LP  0  0  0  0  0  0  0  0  0  0  0  0  # atno 17343 bound_to 10162
  157.0614  131.0091  151.3221 LP  0  0  0  0  0  0  0  0  0  0  0  0  # atno 17370 bound_to 10713
  157.5067  130.7913  149.7662 LP  0  0  0  0  0  0  0  0  0  0  0  0  # atno 17371 bound_to 10713
  141.2222  133.6989  156.7888 LP  0  0  0  0  0  0  0  0  0  0  0  0  # atno 17394 bound_to 11000
  140.2295  134.8696  157.3462 LP  0  0  0  0  0  0  0  0  0  0  0  0  # atno 17395 bound_to 11000

$$$$
