AV-unprocessed.smi:175|AV-procd|sdf|1431|dock3
  -GOLD-   2262019213D 1   1.00000     0.00000
 Structure written by MMmdl.
 47 50  0  0  0  0  0  0  0  0  1 V2000
  145.9723  134.0390  150.8557 C   0  0  0  0  0  0  0  0  0  0  0  0
  145.1728  134.9699  151.7820 C   0  0  2  0  0  0  0  0  0  0  0  0
  144.9743  136.2333  151.1630 O   0  0  0  0  0  0  0  0  0  0  0  0
  144.6374  137.1525  152.1860 C   0  0  0  0  0  0  0  0  0  0  0  0
  145.6354  136.8064  153.2833 C   0  0  0  0  0  0  0  0  0  0  0  0
  145.7940  135.2875  153.1694 C   0  0  2  0  0  0  0  0  0  0  0  0
  147.1783  134.9830  153.2117 O   0  0  0  0  0  0  0  0  0  0  0  0
  145.0934  134.5442  154.3342 C   0  0  0  0  0  0  0  0  0  0  0  0
  145.7463  134.7301  155.6215 N   0  0  0  0  0  0  0  0  0  0  0  0
  145.3418  135.5620  156.6425 C   0  0  0  0  0  0  0  0  0  0  0  0
  146.0968  135.5471  157.7073 N   0  0  0  0  0  0  0  0  0  0  0  0
  147.1039  134.6454  157.3905 C   0  0  0  0  0  0  0  0  0  0  0  0
  148.2434  134.1584  158.0807 C   0  0  0  0  0  0  0  0  0  0  0  0
  148.5514  134.5697  159.3306 N   0  0  0  0  0  0  0  0  0  0  0  0
  148.5631  136.0184  159.5358 C   0  0  0  0  0  0  0  0  0  0  0  0
  147.7603  136.1851  160.8105 C   0  0  0  0  0  0  0  0  0  0  0  0
  147.5496  137.2760  161.3379 O   0  0  0  0  0  0  0  0  0  0  0  0
  147.3440  134.9957  161.2485 N   0  0  0  0  0  0  0  0  0  0  0  0
  146.5564  134.7313  162.4506 C   0  0  0  0  0  0  0  0  0  0  0  0
  145.2307  134.0149  162.1373 C   0  0  0  0  0  0  0  0  0  0  0  0
  144.6888  134.5626  161.0502 F   0  0  0  0  0  0  0  0  0  0  0  0
  145.4266  132.7176  161.9036 F   0  0  0  0  0  0  0  0  0  0  0  0
  144.3780  134.1538  163.1525 F   0  0  0  0  0  0  0  0  0  0  0  0
  147.8009  133.9090  160.3989 C   0  0  0  0  0  0  0  0  0  0  0  0
  149.0413  133.2612  157.4434 N   0  0  0  0  0  0  0  0  0  0  0  0
  148.7362  132.8619  156.2047 C   0  0  0  0  0  0  0  0  0  0  0  0
  147.7048  133.2273  155.4393 N   0  0  0  0  0  0  0  0  0  0  0  0
  146.9050  134.1280  156.0805 C   0  0  0  0  0  0  0  0  0  0  0  0
  146.1420  133.0690  151.3238 H   0  0  0  0  0  0  0  0  0  0  0  0
  146.9424  134.4656  150.5998 H   0  0  0  0  0  0  0  0  0  0  0  0
  145.4339  133.8670  149.9235 H   0  0  0  0  0  0  0  0  0  0  0  0
  144.1767  134.5474  151.9202 H   0  0  0  0  0  0  0  0  0  0  0  0
  144.7238  138.1850  151.8468 H   0  0  0  0  0  0  0  0  0  0  0  0
  143.6121  136.9802  152.5175 H   0  0  0  0  0  0  0  0  0  0  0  0
  146.5771  137.3155  153.0696 H   0  0  0  0  0  0  0  0  0  0  0  0
  145.3027  137.1387  154.2673 H   0  0  0  0  0  0  0  0  0  0  0  0
  147.6555  135.6937  152.8116 H   0  0  0  0  0  0  0  0  0  0  0  0
  144.0579  134.8749  154.4261 H   0  0  0  0  0  0  0  0  0  0  0  0
  145.0520  133.4742  154.1258 H   0  0  0  0  0  0  0  0  0  0  0  0
  144.4594  136.1815  156.5759 H   0  0  0  0  0  0  0  0  0  0  0  0
  149.5846  136.3706  159.6811 H   0  0  0  0  0  0  0  0  0  0  0  0
  148.1099  136.5860  158.7214 H   0  0  0  0  0  0  0  0  0  0  0  0
  147.1487  134.1228  163.1353 H   0  0  0  0  0  0  0  0  0  0  0  0
  146.3603  135.6701  162.9712 H   0  0  0  0  0  0  0  0  0  0  0  0
  146.9513  133.3273  160.0357 H   0  0  0  0  0  0  0  0  0  0  0  0
  148.4599  133.2421  160.9560 H   0  0  0  0  0  0  0  0  0  0  0  0
  149.4158  132.1475  155.7638 H   0  0  0  0  0  0  0  0  0  0  0  0
  1  2  1  0  0  0  0
  1 29  1  0  0  0  0
  1 30  1  0  0  0  0
  1 31  1  0  0  0  0
  2  6  1  0  0  0  0
  2  3  1  0  0  0  0
  2 32  1  0  0  0  0
  3  4  1  0  0  0  0
  4  5  1  0  0  0  0
  4 33  1  0  0  0  0
  4 34  1  0  0  0  0
  5  6  1  0  0  0  0
  5 35  1  0  0  0  0
  5 36  1  0  0  0  0
  6  7  1  0  0  0  0
  6  8  1  0  0  0  0
  7 37  1  0  0  0  0
  8  9  1  0  0  0  0
  8 38  1  0  0  0  0
  8 39  1  0  0  0  0
  9 28  1  0  0  0  0
  9 10  1  0  0  0  0
 10 11  2  0  0  0  0
 10 40  1  0  0  0  0
 11 12  1  0  0  0  0
 12 28  2  0  0  0  0
 12 13  1  0  0  0  0
 13 14  1  0  0  0  0
 13 25  2  0  0  0  0
 14 24  1  0  0  0  0
 14 15  1  0  0  0  0
 15 16  1  0  0  0  0
 15 41  1  0  0  0  0
 15 42  1  0  0  0  0
 16 17  2  0  0  0  0
 16 18  1  0  0  0  0
 18 19  1  0  0  0  0
 18 24  1  0  0  0  0
 19 20  1  0  0  0  0
 19 43  1  0  0  0  0
 19 44  1  0  0  0  0
 20 21  1  0  0  0  0
 20 22  1  0  0  0  0
 20 23  1  0  0  0  0
 24 45  1  0  0  0  0
 24 46  1  0  0  0  0
 25 26  1  0  0  0  0
 26 27  2  0  0  0  0
 26 47  1  0  0  0  0
 27 28  1  0  0  0  0
M  END
> <s_m_source_file>
AV-unprocessed.smi

> <i_m_source_file_index>
175

> <i_lp_mmshare_version>
43012

> <i_f3d_flags>
0

> <s_epik_input>
W0NIMl0xW0NIMl1PW0NAQEhdKFtDSDNdKVtDQEBdMShbT0hdKVtDSDJdbihbY0hdbjIpYyhjMjMpbltjSF1uYzNONFtDSDJdQyg9TylOKFtDSDJdNClbQ0gyXUMoRikoRilG

> <s_epik_cmdline>
J2VwaWtfcHl0aG9uJywgJy1waCcsICc3LjAnLCAnLXRuJywgJzgnLCAnLW1hJywgJzIwMCcsICctbWV0YWxfYmluZGluZycsICctaW1hZScsICc8aW5maWxlLm1hZT4nLCAnLW9tYWUnLCAnPG91dGZpbGUubWFlPic=

> <r_lp_tautomer_probability>
1

> <r_epik_Ionization_Penalty>
0.000307802

> <r_epik_Ionization_Penalty_Charging>
0

> <r_epik_Ionization_Penalty_Neutral>
0.000307802

> <r_epik_State_Penalty>
-0

> <r_epik_Charging_Adjusted_Penalty>
0

> <i_epik_Tot_Q>
0

> <i_epik_Tot_abs_Q>
0

> <r_epik_Metal_State_Penalty>
-0

> <b_epik_Metal_Only>
0

> <s_epik_Chemistry_Notes>
This compound contains an acetal/aminal-like group ( X-CH(R)-Y where X, Y are N, S, or O) that may be acid/base labile, releasing an aldehyde.

> <s_lp_Force_Field>
OPLS_2005

> <r_lp_Energy>
38.2687

> <b_lp_Chiralities_Consistent>
1

> <s_lp_Variant>
AV-unprocessed.smi:175-3

> <Gold.Version>
5.8.1

> <Gold.Id.Protein>
6NUR|6NUR_protein|mol2

> <Gold.PLP.Fitness>
43.3432

> <Gold.PLP.PLP>
-33.6352

> <Gold.PLP.part.hbond>
-4.0428

> <Gold.PLP.part.metal>
0.0000

> <Gold.PLP.part.buried>
-4.3623

> <Gold.PLP.part.nonpolar>
-25.6452

> <Gold.PLP.part.repulsive>
0.2280

> <Gold.PLP.ligand.clash>
0.0000

> <Gold.PLP.ligand.torsion>
0.8993

> <Gold.PLP.Chemscore.Hbond>
3.7488

> <Gold.PLP.Chemscore.CHOScore>
0.0000

> <Gold.PLP.Chemscore.Metal>
0.0000

> <Gold.Chemscore.Hbonds>
donor molecule, donor type, donor heavy atom, donor atom, acceptor molecule, acceptor atom, score
      L1  H     7    37       P1  7948  0.98
      P1  H  6896  6908       L1    14  0.75
      P1  H  6931  6943       L1    17  0.90
      P1  H  6934  6947       L1    17  0.88

> <Gold.PLP.Chemscore.Internal.Correction>
0.2603

> <Gold.Rescore>
     Score         DG    S(hbond)    S(metal)    S(lipo)     H(rot)  DE(clash)    DE(int)     intcor
     10.75     -11.85       2.78        0.00      41.73       3.05       0.00       1.10       ----

> <Gold.Chemscore.Fitness>
10.7528

> <Gold.Chemscore.DG>
-11.8487

> <Gold.Chemscore.ZeroCoef>
-5.4800

> <Gold.Chemscore.Hbond>
2.7817

> <Gold.Chemscore.Metal>
0.0000

> <Gold.Chemscore.Lipo>
41.7294

> <Gold.Chemscore.Internal_Hbond>
0.0000

> <Gold.Chemscore.DEClash>
0.0009

> <Gold.Chemscore.DEInternal>
1.0951

> <Gold.Chemscore.Rot>
3.0487

> <Gold.Chemscore.Internal.Correction>
   9.000000E+99

> <Gold.Chemscore.Hbonds>
donor molecule, donor type, donor heavy atom, donor atom, acceptor molecule, acceptor atom, score
      L1  H     7    37       P1  7948  0.92
      P1  H  6896  6908       L1    14  0.05
      P1  H  6931  6943       L1    17  0.84
      P1  H  6934  6947       L1    17  0.87

> <Gold.Chemscore.Hbond.Weighted>
-9.2909

> <Gold.Chemscore.Metal.Weighted>
-0.0000

> <Gold.Chemscore.Lipo.Weighted>
-4.8823

> <Gold.Chemscore.Internal_Hbond.Weighted>
0.0000

> <Gold.Chemscore.DEClash.Weighted>
0.0009

> <Gold.Chemscore.DEInternal.Weighted>
1.0951

> <Gold.Chemscore.Rot.Weighted>
7.8046

> <Gold.Chemscore.Internal.Correction.Weighted>
   9.000000E+99

> <Gold.Protein.RotatedTorsions>
[ 6907 6896 6895 6894 ] final  148.33 input  -60.11 | X-H torsion
[ 7974 7965 7964 7962 ] final  -88.65 input  175.53 | X-H torsion
[ 8008 7997 7996 7995 ] final  100.25 input   59.86 | X-H torsion
[ 10167 10162 10161 10158 ] final -140.85 input  -65.29 | X-H torsion
[ 10718 10713 10712 10709 ] final  -22.47 input   66.30 | X-H torsion
[ 10763 10752 10751 10750 ] final   78.14 input  -60.55 | X-H torsion
[ 11005 11000 10999 10996 ] final   76.79 input  -57.11 | X-H torsion

> <Gold.Protein.ActiveResidues>
 VAL166  LYS551  ARG553  GLY616  TRP617  ASP618  TYR619  PRO620  LYS621  CYS622 
 ASP623  PHE694  ASN695  SER759  ASP760  ASP761  ALA762  ILE779  LEU786  VAL792 
 PHE793  MET794  SER795  GLU796  ALA797  LYS798  CYS799  TRP800  GLU811  SER814 

> <Gold.Protein.RotatedAtoms>
  152.1428  133.4474  159.4775 H   0  0  0  0  0  0  0  0  0  0  0  0  # atno 6907 bound_to 6896
  150.6888  134.2284  159.4433 H   0  0  0  0  0  0  0  0  0  0  0  0  # atno 6908 bound_to 6896
  152.0176  134.9841  160.0620 H   0  0  0  0  0  0  0  0  0  0  0  0  # atno 6909 bound_to 6896
  145.4503  140.9560  143.2026 H   0  0  0  0  0  0  0  0  0  0  0  0  # atno 7974 bound_to 7965
  156.1185  140.3216  155.8174 H   0  0  0  0  0  0  0  0  0  0  0  0  # atno 8008 bound_to 7997
  155.4547  140.0535  157.3014 H   0  0  0  0  0  0  0  0  0  0  0  0  # atno 8009 bound_to 7997
  154.4810  140.2053  155.9777 H   0  0  0  0  0  0  0  0  0  0  0  0  # atno 8010 bound_to 7997
  139.8242  143.7534  152.2666 H   0  0  0  0  0  0  0  0  0  0  0  0  # atno 10167 bound_to 10162
  156.5040  130.4594  149.6685 H   0  0  0  0  0  0  0  0  0  0  0  0  # atno 10718 bound_to 10713
  153.0851  135.4888  154.8581 H   0  0  0  0  0  0  0  0  0  0  0  0  # atno 10763 bound_to 10752
  154.7201  135.3037  154.9064 H   0  0  0  0  0  0  0  0  0  0  0  0  # atno 10764 bound_to 10752
  153.9731  135.6799  153.4801 H   0  0  0  0  0  0  0  0  0  0  0  0  # atno 10765 bound_to 10752
  139.9282  134.7630  156.1440 H   0  0  0  0  0  0  0  0  0  0  0  0  # atno 11005 bound_to 11000
  144.8066  139.6040  143.7048 LP  0  0  0  0  0  0  0  0  0  0  0  0  # atno 17320 bound_to 7965
  146.2508  139.6196  142.9428 LP  0  0  0  0  0  0  0  0  0  0  0  0  # atno 17321 bound_to 7965
  139.7721  144.7473  151.0209 LP  0  0  0  0  0  0  0  0  0  0  0  0  # atno 17342 bound_to 10162
  140.7811  143.4633  151.0247 LP  0  0  0  0  0  0  0  0  0  0  0  0  # atno 17343 bound_to 10162
  156.3304  130.7328  151.2257 LP  0  0  0  0  0  0  0  0  0  0  0  0  # atno 17370 bound_to 10713
  157.7459  131.0431  150.4728 LP  0  0  0  0  0  0  0  0  0  0  0  0  # atno 17371 bound_to 10713
  141.0854  133.6736  156.2426 LP  0  0  0  0  0  0  0  0  0  0  0  0  # atno 17394 bound_to 11000
  140.6275  134.5298  157.5555 LP  0  0  0  0  0  0  0  0  0  0  0  0  # atno 17395 bound_to 11000

$$$$
