AV-unprocessed.smi:2807|AV-procd|sdf|10819|dock4
  -GOLD-   2272015253D 1   1.00000     0.00000
 Structure written by MMmdl.
 32 33  0  0  0  0  0  0  0  0  1 V2000
  148.6767  140.8821  158.1500 O   0  0  0  0  0  0  0  0  0  0  0  0
  149.6225  140.5507  157.4328 C   0  0  0  0  0  0  0  0  0  0  0  0
  149.4578  140.0714  156.1891 N   0  0  0  0  0  0  0  0  0  0  0  0
  148.1728  139.8626  155.5259 C   0  0  1  0  0  0  0  0  0  0  0  0
  147.3399  141.1587  155.5380 C   0  0  0  0  0  0  0  0  0  0  0  0
  147.5397  141.7844  154.1590 C   0  0  0  0  0  0  0  0  0  0  0  0
  147.6298  140.5808  153.2268 C   0  0  0  0  0  0  0  0  0  0  0  0
  148.3870  139.5170  154.0342 C   0  0  2  0  0  0  0  0  0  0  0  0
  147.8964  138.2297  153.7217 O   0  0  0  0  0  0  0  0  0  0  0  0
  151.0762  140.6891  157.9167 C   0  0  0  0  0  0  0  0  0  0  0  0
  151.2787  139.8350  158.9230 F   0  0  0  0  0  0  0  0  0  0  0  0
  151.8791  140.3306  156.9128 F   0  0  0  0  0  0  0  0  0  0  0  0
  151.4019  142.1106  158.3740 C   0  0  0  0  0  0  0  0  0  0  0  0
  152.6531  142.4206  158.9548 C   0  0  0  0  0  0  0  0  0  0  0  0
  152.9059  143.7496  159.3449 C   0  0  0  0  0  0  0  0  0  0  0  0
  151.9055  144.7185  159.1420 C   0  0  0  0  0  0  0  0  0  0  0  0
  150.6914  144.3137  158.5539 C   0  0  0  0  0  0  0  0  0  0  0  0
  150.4387  143.0424  158.1763 N   0  0  0  0  0  0  0  0  0  0  0  0
  150.2855  139.8283  155.6642 H   0  0  0  0  0  0  0  0  0  0  0  0
  147.6272  139.0676  156.0391 H   0  0  0  0  0  0  0  0  0  0  0  0
  146.2864  140.9055  155.6640 H   0  0  0  0  0  0  0  0  0  0  0  0
  147.6022  141.8427  156.3462 H   0  0  0  0  0  0  0  0  0  0  0  0
  146.7358  142.4687  153.8868 H   0  0  0  0  0  0  0  0  0  0  0  0
  148.4773  142.3415  154.1374 H   0  0  0  0  0  0  0  0  0  0  0  0
  146.6193  140.2386  152.9965 H   0  0  0  0  0  0  0  0  0  0  0  0
  148.1201  140.8165  152.2818 H   0  0  0  0  0  0  0  0  0  0  0  0
  149.4464  139.5549  153.7752 H   0  0  0  0  0  0  0  0  0  0  0  0
  148.4851  137.8262  153.1021 H   0  0  0  0  0  0  0  0  0  0  0  0
  153.4084  141.6615  159.0946 H   0  0  0  0  0  0  0  0  0  0  0  0
  153.8517  144.0210  159.7902 H   0  0  0  0  0  0  0  0  0  0  0  0
  152.0649  145.7475  159.4284 H   0  0  0  0  0  0  0  0  0  0  0  0
  149.9018  145.0302  158.3827 H   0  0  0  0  0  0  0  0  0  0  0  0
  1  2  2  0  0  0  0
  2  3  1  0  0  0  0
  2 10  1  0  0  0  0
  3  4  1  0  0  0  0
  3 19  1  0  0  0  0
  4  8  1  0  0  0  0
  4  5  1  0  0  0  0
  4 20  1  0  0  0  0
  5  6  1  0  0  0  0
  5 21  1  0  0  0  0
  5 22  1  0  0  0  0
  6  7  1  0  0  0  0
  6 23  1  0  0  0  0
  6 24  1  0  0  0  0
  7  8  1  0  0  0  0
  7 25  1  0  0  0  0
  7 26  1  0  0  0  0
  8  9  1  0  0  0  0
  8 27  1  0  0  0  0
  9 28  1  0  0  0  0
 10 11  1  0  0  0  0
 10 12  1  0  0  0  0
 10 13  1  0  0  0  0
 13 18  1  0  0  0  0
 13 14  2  0  0  0  0
 14 15  1  0  0  0  0
 14 29  1  0  0  0  0
 15 16  2  0  0  0  0
 15 30  1  0  0  0  0
 16 17  1  0  0  0  0
 16 31  1  0  0  0  0
 17 18  2  0  0  0  0
 17 32  1  0  0  0  0
M  END
> <s_m_source_file>
AV-unprocessed.smi

> <i_m_source_file_index>
2807

> <i_lp_mmshare_version>
43012

> <i_f3d_flags>
0

> <s_epik_input>
bjFbY0hdW2NIXVtjSF1bY0hdYzFDKEYpKEYpQyg9TylbTkhdW0NAQEhdMltDSDJdW0NIMl1bQ0gyXVtDQEhdMltPSF0=

> <s_epik_cmdline>
J2VwaWtfcHl0aG9uJywgJy1waCcsICc3LjAnLCAnLXRuJywgJzgnLCAnLW1hJywgJzIwMCcsICctbWV0YWxfYmluZGluZycsICctaW1hZScsICc8aW5maWxlLm1hZT4nLCAnLW9tYWUnLCAnPG91dGZpbGUubWFlPic=

> <r_lp_tautomer_probability>
1

> <r_epik_Ionization_Penalty>
4.08325e-05

> <r_epik_Ionization_Penalty_Charging>
0

> <r_epik_Ionization_Penalty_Neutral>
4.08325e-05

> <r_epik_State_Penalty>
-0

> <r_epik_Charging_Adjusted_Penalty>
0

> <i_epik_Tot_Q>
0

> <i_epik_Tot_abs_Q>
0

> <r_epik_Metal_State_Penalty>
0.034564

> <b_epik_Metal_Only>
0

> <s_lp_Force_Field>
OPLS_2005

> <r_lp_Energy>
23.3641

> <b_lp_Chiralities_Consistent>
1

> <s_lp_Variant>
AV-unprocessed.smi:2807-4

> <Gold.Version>
5.8.1

> <Gold.Id.Protein>
6NUR|6NUR_protein|mol2

> <Gold.PLP.Fitness>
36.8715

> <Gold.PLP.PLP>
-31.1897

> <Gold.PLP.part.hbond>
-1.2943

> <Gold.PLP.part.metal>
0.0000

> <Gold.PLP.part.buried>
-2.2760

> <Gold.PLP.part.nonpolar>
-28.5033

> <Gold.PLP.part.repulsive>
0.1940

> <Gold.PLP.ligand.clash>
0.0000

> <Gold.PLP.ligand.torsion>
0.2284

> <Gold.PLP.Chemscore.Hbond>
0.9913

> <Gold.PLP.Chemscore.CHOScore>
1.0471

> <Gold.PLP.Chemscore.Metal>
0.0000

> <Gold.Chemscore.Hbonds>
donor molecule, donor type, donor heavy atom, donor atom, acceptor molecule, acceptor atom, score
      L1  H     9    28       P1  7948  0.93
      L1  C    17    32       P1  8028  0.01
      L1  C    17    32       P1  8029  1.00

> <Gold.PLP.Chemscore.Internal.Correction>
0.0237

> <Gold.Rescore>
     Score         DG    S(hbond)    S(metal)    S(lipo)     H(rot)  DE(clash)    DE(int)     intcor
     10.68     -13.52       0.94        0.00      86.75       2.05       0.08       2.77       ----

> <Gold.Chemscore.Fitness>
10.6756

> <Gold.Chemscore.DG>
-13.5207

> <Gold.Chemscore.ZeroCoef>
-5.4800

> <Gold.Chemscore.Hbond>
0.9365

> <Gold.Chemscore.Metal>
0.0000

> <Gold.Chemscore.Lipo>
86.7525

> <Gold.Chemscore.Internal_Hbond>
0.0000

> <Gold.Chemscore.DEClash>
0.0785

> <Gold.Chemscore.DEInternal>
2.7666

> <Gold.Chemscore.Rot>
2.0457

> <Gold.Chemscore.Internal.Correction>
   9.000000E+99

> <Gold.Chemscore.Hbonds>
donor molecule, donor type, donor heavy atom, donor atom, acceptor molecule, acceptor atom, score
      L1  H     9    28       P1  7948  0.84

> <Gold.Chemscore.Hbond.Weighted>
-3.1277

> <Gold.Chemscore.Metal.Weighted>
-0.0000

> <Gold.Chemscore.Lipo.Weighted>
-10.1500

> <Gold.Chemscore.Internal_Hbond.Weighted>
0.0000

> <Gold.Chemscore.DEClash.Weighted>
0.0785

> <Gold.Chemscore.DEInternal.Weighted>
2.7666

> <Gold.Chemscore.Rot.Weighted>
5.2371

> <Gold.Chemscore.Internal.Correction.Weighted>
   9.000000E+99

> <Gold.Protein.RotatedTorsions>
[ 6907 6896 6895 6894 ] final -138.57 input  -60.11 | X-H torsion
[ 7974 7965 7964 7962 ] final -122.93 input  175.53 | X-H torsion
[ 8008 7997 7996 7995 ] final  -45.10 input   59.86 | X-H torsion
[ 10167 10162 10161 10158 ] final  109.08 input  -65.29 | X-H torsion
[ 10718 10713 10712 10709 ] final  153.01 input   66.30 | X-H torsion
[ 10763 10752 10751 10750 ] final  -82.54 input  -60.55 | X-H torsion
[ 11005 11000 10999 10996 ] final -141.34 input  -57.11 | X-H torsion

> <Gold.Protein.ActiveResidues>
 VAL166  LYS551  ARG553  GLY616  TRP617  ASP618  TYR619  PRO620  LYS621  CYS622 
 ASP623  PHE694  ASN695  SER759  ASP760  ASP761  ALA762  ILE779  LEU786  VAL792 
 PHE793  MET794  SER795  GLU796  ALA797  LYS798  CYS799  TRP800  GLU811  SER814 

> <Gold.Protein.RotatedAtoms>
  151.0367  133.5742  159.2654 H   0  0  0  0  0  0  0  0  0  0  0  0  # atno 6907 bound_to 6896
  151.2804  135.0711  159.9177 H   0  0  0  0  0  0  0  0  0  0  0  0  # atno 6908 bound_to 6896
  152.5356  134.0082  159.7980 H   0  0  0  0  0  0  0  0  0  0  0  0  # atno 6909 bound_to 6896
  145.0241  140.8013  143.4363 H   0  0  0  0  0  0  0  0  0  0  0  0  # atno 7974 bound_to 7965
  154.3999  140.1405  156.3791 H   0  0  0  0  0  0  0  0  0  0  0  0  # atno 8008 bound_to 7997
  155.8020  140.3475  155.5387 H   0  0  0  0  0  0  0  0  0  0  0  0  # atno 8009 bound_to 7997
  155.8473  140.0936  157.1687 H   0  0  0  0  0  0  0  0  0  0  0  0  # atno 8010 bound_to 7997
  139.6795  144.7119  151.1541 H   0  0  0  0  0  0  0  0  0  0  0  0  # atno 10167 bound_to 10162
  157.2504  131.0777  151.1734 H   0  0  0  0  0  0  0  0  0  0  0  0  # atno 10718 bound_to 10713
  154.5770  135.5587  153.7149 H   0  0  0  0  0  0  0  0  0  0  0  0  # atno 10763 bound_to 10752
  153.0068  135.6311  154.2035 H   0  0  0  0  0  0  0  0  0  0  0  0  # atno 10764 bound_to 10752
  154.1976  135.2879  155.2981 H   0  0  0  0  0  0  0  0  0  0  0  0  # atno 10765 bound_to 10752
  140.8334  134.2490  157.4846 H   0  0  0  0  0  0  0  0  0  0  0  0  # atno 11005 bound_to 11000
  145.1856  139.2328  143.5269 LP  0  0  0  0  0  0  0  0  0  0  0  0  # atno 17320 bound_to 7965
  146.3489  140.1641  142.8590 LP  0  0  0  0  0  0  0  0  0  0  0  0  # atno 17321 bound_to 7965
  140.7647  143.5720  150.8985 LP  0  0  0  0  0  0  0  0  0  0  0  0  # atno 17342 bound_to 10162
  139.9391  143.6402  152.3058 LP  0  0  0  0  0  0  0  0  0  0  0  0  # atno 17343 bound_to 10162
  157.3284  130.6972  149.6310 LP  0  0  0  0  0  0  0  0  0  0  0  0  # atno 17370 bound_to 10713
  155.9666  130.4314  150.4921 LP  0  0  0  0  0  0  0  0  0  0  0  0  # atno 17371 bound_to 10713
  139.8704  134.9598  156.4343 LP  0  0  0  0  0  0  0  0  0  0  0  0  # atno 17394 bound_to 11000
  140.8974  133.7804  155.9641 LP  0  0  0  0  0  0  0  0  0  0  0  0  # atno 17395 bound_to 11000

$$$$
