AV-unprocessed.smi:94|AV-procd|sdf|854|dock4
  -GOLD-   2262017303D 1   1.00000     0.00000
 Structure written by MMmdl.
 53 55  0  0  0  0  0  0  0  0  1 V2000
  151.5342  144.1881  157.5260 C   0  0  0  0  0  0  0  0  0  0  0  0
  152.0903  143.0602  158.1856 O   0  0  0  0  0  0  0  0  0  0  0  0
  152.4099  143.1706  159.5242 C   0  0  0  0  0  0  0  0  0  0  0  0
  151.9946  144.2591  160.3335 C   0  0  0  0  0  0  0  0  0  0  0  0
  152.3616  144.3291  161.6897 C   0  0  0  0  0  0  0  0  0  0  0  0
  153.1550  143.3170  162.2593 C   0  0  0  0  0  0  0  0  0  0  0  0
  153.5616  143.3917  163.7166 C   0  0  0  0  0  0  0  0  0  0  0  0
  153.5687  142.2299  161.4669 C   0  0  0  0  0  0  0  0  0  0  0  0
  153.1953  142.1419  160.1048 C   0  0  0  0  0  0  0  0  0  0  0  0
  153.6648  140.9604  159.2538 C   0  0  1  0  0  0  0  0  0  0  0  0
  155.0437  140.4652  159.7208 C   0  0  0  0  0  0  0  0  0  0  0  0
  152.7038  139.8573  159.2513 N   0  0  0  0  0  0  0  0  0  0  0  0
  152.8970  138.6480  158.7025 C   0  0  0  0  0  0  0  0  0  0  0  0
  153.9412  138.3218  158.1359 O   0  0  0  0  0  0  0  0  0  0  0  0
  151.7155  137.6717  158.8067 C   0  0  0  0  0  0  0  0  0  0  0  0
  151.0161  137.4539  157.5215 N   0  0  0  0  0  0  0  0  0  0  0  0
  150.7764  136.1219  157.1010 C   0  0  0  0  0  0  0  0  0  0  0  0
  151.1319  135.1621  157.7867 O   0  0  0  0  0  0  0  0  0  0  0  0
  150.0986  135.9783  155.8176 C   0  0  0  0  0  0  0  0  0  0  0  0
  149.8356  134.7512  155.3371 F   0  0  0  0  0  0  0  0  0  0  0  0
  149.7337  137.0605  155.1003 C   0  0  0  0  0  0  0  0  0  0  0  0
  149.9714  138.3547  155.5243 N   0  0  0  0  0  0  0  0  0  0  0  0
  149.5631  139.5389  154.6781 C   0  0  1  0  0  0  0  0  0  0  0  0
  149.0515  139.0640  153.3127 C   0  0  0  0  0  0  0  0  0  0  0  0
  147.5515  139.0683  153.5180 C   0  0  0  0  0  0  0  0  0  0  0  0
  147.3757  140.2497  154.4640 C   0  0  0  0  0  0  0  0  0  0  0  0
  148.5160  140.2117  155.3167 O   0  0  0  0  0  0  0  0  0  0  0  0
  150.6388  138.5782  156.7484 C   0  0  0  0  0  0  0  0  0  0  0  0
  150.8958  139.7232  157.1267 O   0  0  0  0  0  0  0  0  0  0  0  0
  151.3444  143.9362  156.4828 H   0  0  0  0  0  0  0  0  0  0  0  0
  152.2189  145.0371  157.5398 H   0  0  0  0  0  0  0  0  0  0  0  0
  150.5826  144.4816  157.9713 H   0  0  0  0  0  0  0  0  0  0  0  0
  151.3920  145.0617  159.9366 H   0  0  0  0  0  0  0  0  0  0  0  0
  152.0355  145.1670  162.2887 H   0  0  0  0  0  0  0  0  0  0  0  0
  154.5910  143.0561  163.8457 H   0  0  0  0  0  0  0  0  0  0  0  0
  152.9141  142.7557  164.3204 H   0  0  0  0  0  0  0  0  0  0  0  0
  153.4901  144.4123  164.0938 H   0  0  0  0  0  0  0  0  0  0  0  0
  154.1845  141.4644  161.9153 H   0  0  0  0  0  0  0  0  0  0  0  0
  153.7547  141.3074  158.2232 H   0  0  0  0  0  0  0  0  0  0  0  0
  155.7828  141.2657  159.6742 H   0  0  0  0  0  0  0  0  0  0  0  0
  155.4079  139.6493  159.0960 H   0  0  0  0  0  0  0  0  0  0  0  0
  155.0075  140.1060  160.7497 H   0  0  0  0  0  0  0  0  0  0  0  0
  151.8135  140.0354  159.6928 H   0  0  0  0  0  0  0  0  0  0  0  0
  152.0718  136.7238  159.2142 H   0  0  0  0  0  0  0  0  0  0  0  0
  151.0330  138.0462  159.5709 H   0  0  0  0  0  0  0  0  0  0  0  0
  149.2401  136.8961  154.1540 H   0  0  0  0  0  0  0  0  0  0  0  0
  150.4320  140.1960  154.6187 H   0  0  0  0  0  0  0  0  0  0  0  0
  149.3357  139.8005  152.5602 H   0  0  0  0  0  0  0  0  0  0  0  0
  149.4602  138.0930  153.0297 H   0  0  0  0  0  0  0  0  0  0  0  0
  146.9915  139.1790  152.5891 H   0  0  0  0  0  0  0  0  0  0  0  0
  147.2329  138.1440  154.0015 H   0  0  0  0  0  0  0  0  0  0  0  0
  147.3847  141.1874  153.9066 H   0  0  0  0  0  0  0  0  0  0  0  0
  146.4474  140.2001  155.0333 H   0  0  0  0  0  0  0  0  0  0  0  0
  1  2  1  0  0  0  0
  1 30  1  0  0  0  0
  1 31  1  0  0  0  0
  1 32  1  0  0  0  0
  2  3  1  0  0  0  0
  3  9  1  0  0  0  0
  3  4  2  0  0  0  0
  4  5  1  0  0  0  0
  4 33  1  0  0  0  0
  5  6  2  0  0  0  0
  5 34  1  0  0  0  0
  6  7  1  0  0  0  0
  6  8  1  0  0  0  0
  7 35  1  0  0  0  0
  7 36  1  0  0  0  0
  7 37  1  0  0  0  0
  8  9  2  0  0  0  0
  8 38  1  0  0  0  0
  9 10  1  0  0  0  0
 10 11  1  0  0  0  0
 10 12  1  0  0  0  0
 10 39  1  0  0  0  0
 11 40  1  0  0  0  0
 11 41  1  0  0  0  0
 11 42  1  0  0  0  0
 12 13  1  0  0  0  0
 12 43  1  0  0  0  0
 13 14  2  0  0  0  0
 13 15  1  0  0  0  0
 15 16  1  0  0  0  0
 15 44  1  0  0  0  0
 15 45  1  0  0  0  0
 16 28  1  0  0  0  0
 16 17  1  0  0  0  0
 17 18  2  0  0  0  0
 17 19  1  0  0  0  0
 19 20  1  0  0  0  0
 19 21  2  0  0  0  0
 21 22  1  0  0  0  0
 21 46  1  0  0  0  0
 22 23  1  0  0  0  0
 22 28  1  0  0  0  0
 23 27  1  0  0  0  0
 23 24  1  0  0  0  0
 23 47  1  0  0  0  0
 24 25  1  0  0  0  0
 24 48  1  0  0  0  0
 24 49  1  0  0  0  0
 25 26  1  0  0  0  0
 25 50  1  0  0  0  0
 25 51  1  0  0  0  0
 26 27  1  0  0  0  0
 26 52  1  0  0  0  0
 26 53  1  0  0  0  0
 28 29  2  0  0  0  0
M  END
> <s_m_source_file>
AV-unprocessed.smi

> <i_m_source_file_index>
94

> <i_lp_mmshare_version>
43012

> <i_f3d_flags>
0

> <s_epik_input>
W0NIM11PYzFbY0hdW2NIXWMoW0NIM10pW2NIXWMxW0NASF0oW0NIM10pW05IXUMoPU8pW0NIMl1uMmMoPU8pYyhGKVtjSF1uKGMyPU8pW0NAQEhdM1tDSDJdW0NIMl1bQ0gyXU8z

> <s_epik_cmdline>
J2VwaWtfcHl0aG9uJywgJy1waCcsICc3LjAnLCAnLXRuJywgJzgnLCAnLW1hJywgJzIwMCcsICctbWV0YWxfYmluZGluZycsICctaW1hZScsICc8aW5maWxlLm1hZT4nLCAnLW9tYWUnLCAnPG91dGZpbGUubWFlPic=

> <r_lp_tautomer_probability>
1

> <r_epik_Ionization_Penalty>
3.37009e-08

> <r_epik_Ionization_Penalty_Charging>
3.59856e-09

> <r_epik_Ionization_Penalty_Neutral>
3.01024e-08

> <r_epik_State_Penalty>
-0

> <r_epik_Charging_Adjusted_Penalty>
3.59856e-09

> <i_epik_Tot_Q>
0

> <i_epik_Tot_abs_Q>
0

> <r_epik_Metal_State_Penalty>
-0

> <b_epik_Metal_Only>
0

> <s_epik_Chemistry_Notes>
This compound contains an acetal/aminal-like group ( X-CH(R)-Y where X, Y are N, S, or O) that may be acid/base labile, releasing an aldehyde.

> <s_lp_Force_Field>
OPLS_2005

> <r_lp_Energy>
32.8189

> <b_lp_Chiralities_Consistent>
1

> <s_lp_Variant>
AV-unprocessed.smi:94-4

> <Gold.Version>
5.8.1

> <Gold.Id.Protein>
6NUR|6NUR_protein|mol2

> <Gold.PLP.Fitness>
52.8699

> <Gold.PLP.PLP>
-49.0585

> <Gold.PLP.part.hbond>
-2.0000

> <Gold.PLP.part.metal>
0.0000

> <Gold.PLP.part.buried>
-0.8087

> <Gold.PLP.part.nonpolar>
-46.2253

> <Gold.PLP.part.repulsive>
0.2047

> <Gold.PLP.ligand.clash>
0.0000

> <Gold.PLP.ligand.torsion>
1.3341

> <Gold.PLP.Chemscore.Hbond>
1.1383

> <Gold.PLP.Chemscore.CHOScore>
1.0000

> <Gold.PLP.Chemscore.Metal>
0.0000

> <Gold.Chemscore.Hbonds>
donor molecule, donor type, donor heavy atom, donor atom, acceptor molecule, acceptor atom, score
      P1  H  6896  6907       L1    18  0.18
      P1  H  7997  8010       L1    14  0.81
      L1  C    21    46       P1  7948  1.00

> <Gold.PLP.Chemscore.Internal.Correction>
0.0646

> <Gold.Rescore>
     Score         DG    S(hbond)    S(metal)    S(lipo)     H(rot)  DE(clash)    DE(int)     intcor
     11.44     -20.22       1.02        0.00     147.86       2.34       3.07       5.71       ----

> <Gold.Chemscore.Fitness>
11.4369

> <Gold.Chemscore.DG>
-20.2157

> <Gold.Chemscore.ZeroCoef>
-5.4800

> <Gold.Chemscore.Hbond>
1.0237

> <Gold.Chemscore.Metal>
0.0000

> <Gold.Chemscore.Lipo>
147.8571

> <Gold.Chemscore.Internal_Hbond>
0.0000

> <Gold.Chemscore.DEClash>
3.0675

> <Gold.Chemscore.DEInternal>
5.7112

> <Gold.Chemscore.Rot>
2.3370

> <Gold.Chemscore.Internal.Correction>
   9.000000E+99

> <Gold.Chemscore.Hbonds>
donor molecule, donor type, donor heavy atom, donor atom, acceptor molecule, acceptor atom, score
      P1  H  6896  6907       L1    18  0.19
      P1  H  7997  8010       L1    14  0.55

> <Gold.Chemscore.Hbond.Weighted>
-3.4190

> <Gold.Chemscore.Metal.Weighted>
-0.0000

> <Gold.Chemscore.Lipo.Weighted>
-17.2993

> <Gold.Chemscore.Internal_Hbond.Weighted>
0.0000

> <Gold.Chemscore.DEClash.Weighted>
3.0675

> <Gold.Chemscore.DEInternal.Weighted>
5.7112

> <Gold.Chemscore.Rot.Weighted>
5.9827

> <Gold.Chemscore.Internal.Correction.Weighted>
   9.000000E+99

> <Gold.Protein.RotatedTorsions>
[ 6907 6896 6895 6894 ] final  -84.19 input  -60.11 | X-H torsion
[ 7974 7965 7964 7962 ] final -141.52 input  175.53 | X-H torsion
[ 8008 7997 7996 7995 ] final   23.82 input   59.86 | X-H torsion
[ 10167 10162 10161 10158 ] final  -54.61 input  -65.29 | X-H torsion
[ 10718 10713 10712 10709 ] final   79.68 input   66.30 | X-H torsion
[ 10763 10752 10751 10750 ] final   83.84 input  -60.55 | X-H torsion
[ 11005 11000 10999 10996 ] final -134.30 input  -57.11 | X-H torsion

> <Gold.Protein.ActiveResidues>
 VAL166  LYS551  ARG553  GLY616  TRP617  ASP618  TYR619  PRO620  LYS621  CYS622 
 ASP623  PHE694  ASN695  SER759  ASP760  ASP761  ALA762  ILE779  LEU786  VAL792 
 PHE793  MET794  SER795  GLU796  ALA797  LYS798  CYS799  TRP800  GLU811  SER814 

> <Gold.Protein.RotatedAtoms>
  150.6878  134.3397  159.4862 H   0  0  0  0  0  0  0  0  0  0  0  0  # atno 6907 bound_to 6896
  152.1252  134.9173  160.0570 H   0  0  0  0  0  0  0  0  0  0  0  0  # atno 6908 bound_to 6896
  152.0364  133.3924  159.4356 H   0  0  0  0  0  0  0  0  0  0  0  0  # atno 6909 bound_to 6896
  144.8513  140.6070  143.5388 H   0  0  0  0  0  0  0  0  0  0  0  0  # atno 7974 bound_to 7965
  154.9867  140.3109  155.4923 H   0  0  0  0  0  0  0  0  0  0  0  0  # atno 8008 bound_to 7997
  156.2946  140.2256  156.4909 H   0  0  0  0  0  0  0  0  0  0  0  0  # atno 8009 bound_to 7997
  154.7740  140.0450  157.1062 H   0  0  0  0  0  0  0  0  0  0  0  0  # atno 8010 bound_to 7997
  140.6421  143.2514  151.4961 H   0  0  0  0  0  0  0  0  0  0  0  0  # atno 10167 bound_to 10162
  157.6784  130.9925  150.1967 H   0  0  0  0  0  0  0  0  0  0  0  0  # atno 10718 bound_to 10713
  153.1328  135.4676  154.9375 H   0  0  0  0  0  0  0  0  0  0  0  0  # atno 10763 bound_to 10752
  154.7679  135.3150  154.8252 H   0  0  0  0  0  0  0  0  0  0  0  0  # atno 10764 bound_to 10752
  153.8790  135.6896  153.4822 H   0  0  0  0  0  0  0  0  0  0  0  0  # atno 10765 bound_to 10752
  140.9003  134.1699  157.4465 H   0  0  0  0  0  0  0  0  0  0  0  0  # atno 11005 bound_to 11000
  145.4494  139.1525  143.3927 LP  0  0  0  0  0  0  0  0  0  0  0  0  # atno 17320 bound_to 7965
  146.2787  140.4619  142.8785 LP  0  0  0  0  0  0  0  0  0  0  0  0  # atno 17321 bound_to 7965
  139.5630  144.2110  152.1721 LP  0  0  0  0  0  0  0  0  0  0  0  0  # atno 17342 bound_to 10162
  140.1383  144.5225  150.6760 LP  0  0  0  0  0  0  0  0  0  0  0  0  # atno 17343 bound_to 10162
  156.2667  130.3717  149.8074 LP  0  0  0  0  0  0  0  0  0  0  0  0  # atno 17370 bound_to 10713
  156.5803  130.8463  151.3381 LP  0  0  0  0  0  0  0  0  0  0  0  0  # atno 17371 bound_to 10713
  139.8741  134.9895  156.5460 LP  0  0  0  0  0  0  0  0  0  0  0  0  # atno 17394 bound_to 11000
  140.8238  133.8332  155.8920 LP  0  0  0  0  0  0  0  0  0  0  0  0  # atno 17395 bound_to 11000

$$$$
