AV-unprocessed.smi:249|AV-procd|sdf|1899|dock9
  -GOLD-   2262020573D 1   1.00000     0.00000
 Structure written by MMmdl.
 64 67  0  0  0  0  0  0  0  0  2 V2000
  146.5542  130.6702  152.2975 C   0  0  0  0  0  0  0  0  0  0  0  0
  147.5361  130.9155  153.4532 C   0  0  0  0  0  0  0  0  0  0  0  0
  148.8831  131.3695  152.9950 N   0  3  1  0  0  0  0  0  0  0  0  0
  148.9474  132.8097  152.6185 C   0  0  0  0  0  0  0  0  0  0  0  0
  148.8771  133.7272  153.8536 C   0  0  0  0  0  0  0  0  0  0  0  0
  149.9947  133.3895  154.8662 C   0  0  1  0  0  0  0  0  0  0  0  0
  149.9879  134.2476  156.0600 N   0  0  0  0  0  0  0  0  0  0  0  0
  148.8273  134.1716  156.9391 C   0  0  0  0  0  0  0  0  0  0  0  0
  150.4931  135.4965  155.9226 C   0  0  0  0  0  0  0  0  0  0  0  0
  150.6929  135.9542  154.6613 N   0  0  0  0  0  0  0  0  0  0  0  0
  151.1488  137.1944  154.4630 C   0  0  0  0  0  0  0  0  0  0  0  0
  151.4507  138.1267  155.3685 N   0  0  0  0  0  0  0  0  0  0  0  0
  151.2628  137.6655  156.6381 C   0  0  0  0  0  0  0  0  0  0  0  0
  150.8102  136.3671  157.0041 C   0  0  0  0  0  0  0  0  0  0  0  0
  150.7563  136.2580  158.3891 N   0  0  0  0  0  0  0  0  0  0  0  0
  151.1372  137.4299  158.8171 C   0  0  0  0  0  0  0  0  0  0  0  0
  151.4230  138.3475  157.8315 N   0  0  0  0  0  0  0  0  0  0  0  0
  151.8327  139.7259  158.0259 C   0  0  0  0  0  0  0  0  0  0  0  0
  150.7822  140.7884  157.5926 C   0  0  2  0  0  0  0  0  0  0  0  0
  150.4756  140.6030  156.0861 C   0  0  0  0  0  0  0  0  0  0  0  0
  149.4418  141.4665  155.6596 O   0  0  0  0  0  0  0  0  0  0  0  0
  151.2033  142.2571  157.9121 C   0  0  2  0  0  0  0  0  0  0  0  0
  152.1329  142.4485  159.1054 C   0  0  0  0  0  0  0  0  0  0  0  0
  151.9499  143.9196  159.4639 C   0  0  0  0  0  0  0  0  0  0  0  0
  150.6422  144.2689  159.0335 O   0  0  0  0  0  0  0  0  0  0  0  0
  150.0512  143.1706  158.3517 C   0  0  0  0  0  0  0  0  0  0  0  0
  149.9696  131.8788  155.1949 C   0  0  0  0  0  0  0  0  0  0  0  0
  150.0130  131.0261  153.9106 C   0  0  1  0  0  0  0  0  0  0  0  0
  150.1289  129.5201  154.2075 C   0  0  0  0  0  0  0  0  0  0  0  0
  145.6429  130.1990  152.6663 H   0  0  0  0  0  0  0  0  0  0  0  0
  146.9845  130.0082  151.5457 H   0  0  0  0  0  0  0  0  0  0  0  0
  146.2549  131.5959  151.8072 H   0  0  0  0  0  0  0  0  0  0  0  0
  147.1048  131.6189  154.1650 H   0  0  0  0  0  0  0  0  0  0  0  0
  147.6280  129.9691  153.9826 H   0  0  0  0  0  0  0  0  0  0  0  0
  149.8866  132.9871  152.0929 H   0  0  0  0  0  0  0  0  0  0  0  0
  148.1664  133.0689  151.9055 H   0  0  0  0  0  0  0  0  0  0  0  0
  148.9675  134.7678  153.5397 H   0  0  0  0  0  0  0  0  0  0  0  0
  147.8922  133.6326  154.3097 H   0  0  0  0  0  0  0  0  0  0  0  0
  150.9422  133.5921  154.3650 H   0  0  0  0  0  0  0  0  0  0  0  0
  148.9620  134.8011  157.8199 H   0  0  0  0  0  0  0  0  0  0  0  0
  148.6856  133.1468  157.2831 H   0  0  0  0  0  0  0  0  0  0  0  0
  147.9159  134.4854  156.4306 H   0  0  0  0  0  0  0  0  0  0  0  0
  151.2804  137.4853  153.4311 H   0  0  0  0  0  0  0  0  0  0  0  0
  151.1938  137.6666  159.8699 H   0  0  0  0  0  0  0  0  0  0  0  0
  152.0837  139.8651  159.0783 H   0  0  0  0  0  0  0  0  0  0  0  0
  152.7626  139.8579  157.4721 H   0  0  0  0  0  0  0  0  0  0  0  0
  149.8528  140.5930  158.1285 H   0  0  0  0  0  0  0  0  0  0  0  0
  151.3412  140.8356  155.4677 H   0  0  0  0  0  0  0  0  0  0  0  0
  150.1962  139.5712  155.8713 H   0  0  0  0  0  0  0  0  0  0  0  0
  148.6488  140.9617  155.5632 H   0  0  0  0  0  0  0  0  0  0  0  0
  151.6696  142.6981  157.0297 H   0  0  0  0  0  0  0  0  0  0  0  0
  151.8171  141.8206  159.9398 H   0  0  0  0  0  0  0  0  0  0  0  0
  153.1775  142.2319  158.8928 H   0  0  0  0  0  0  0  0  0  0  0  0
  152.0779  144.1034  160.5304 H   0  0  0  0  0  0  0  0  0  0  0  0
  152.6689  144.5378  158.9252 H   0  0  0  0  0  0  0  0  0  0  0  0
  149.4496  143.5235  157.5138 H   0  0  0  0  0  0  0  0  0  0  0  0
  149.3912  142.6508  159.0476 H   0  0  0  0  0  0  0  0  0  0  0  0
  150.8202  131.6213  155.8262 H   0  0  0  0  0  0  0  0  0  0  0  0
  149.0770  131.6241  155.7652 H   0  0  0  0  0  0  0  0  0  0  0  0
  150.9261  131.2914  153.3751 H   0  0  0  0  0  0  0  0  0  0  0  0
  151.0770  129.2992  154.6985 H   0  0  0  0  0  0  0  0  0  0  0  0
  150.0918  128.9309  153.2907 H   0  0  0  0  0  0  0  0  0  0  0  0
  149.3409  129.1677  154.8729 H   0  0  0  0  0  0  0  0  0  0  0  0
  149.0580  130.8539  152.1441 H   0  0  0  0  0  0  0  0  0  0  0  0
  1  2  1  0  0  0  0
  1 30  1  0  0  0  0
  1 31  1  0  0  0  0
  1 32  1  0  0  0  0
  2  3  1  0  0  0  0
  2 33  1  0  0  0  0
  2 34  1  0  0  0  0
  3 28  1  0  0  0  0
  3  4  1  0  0  0  0
  3 64  1  0  0  0  0
  4  5  1  0  0  0  0
  4 35  1  0  0  0  0
  4 36  1  0  0  0  0
  5  6  1  0  0  0  0
  5 37  1  0  0  0  0
  5 38  1  0  0  0  0
  6  7  1  0  0  0  0
  6 27  1  0  0  0  0
  6 39  1  0  0  0  0
  7  8  1  0  0  0  0
  7  9  1  0  0  0  0
  8 40  1  0  0  0  0
  8 41  1  0  0  0  0
  8 42  1  0  0  0  0
  9 14  1  0  0  0  0
  9 10  2  0  0  0  0
 10 11  1  0  0  0  0
 11 12  2  0  0  0  0
 11 43  1  0  0  0  0
 12 13  1  0  0  0  0
 13 17  1  0  0  0  0
 13 14  2  0  0  0  0
 14 15  1  0  0  0  0
 15 16  2  0  0  0  0
 16 17  1  0  0  0  0
 16 44  1  0  0  0  0
 17 18  1  0  0  0  0
 18 19  1  0  0  0  0
 18 45  1  0  0  0  0
 18 46  1  0  0  0  0
 19 20  1  0  0  0  0
 19 22  1  0  0  0  0
 19 47  1  0  0  0  0
 20 21  1  0  0  0  0
 20 48  1  0  0  0  0
 20 49  1  0  0  0  0
 21 50  1  0  0  0  0
 22 26  1  0  0  0  0
 22 23  1  0  0  0  0
 22 51  1  0  0  0  0
 23 24  1  0  0  0  0
 23 52  1  0  0  0  0
 23 53  1  0  0  0  0
 24 25  1  0  0  0  0
 24 54  1  0  0  0  0
 24 55  1  0  0  0  0
 25 26  1  0  0  0  0
 26 56  1  0  0  0  0
 26 57  1  0  0  0  0
 27 28  1  0  0  0  0
 27 58  1  0  0  0  0
 27 59  1  0  0  0  0
 28 29  1  0  0  0  0
 28 60  1  0  0  0  0
 29 61  1  0  0  0  0
 29 62  1  0  0  0  0
 29 63  1  0  0  0  0
M  CHG  1   3   1
M  END
> <s_m_source_file>
AV-unprocessed.smi

> <i_m_source_file_index>
249

> <i_lp_mmshare_version>
43012

> <i_f3d_flags>
0

> <s_epik_input>
W0NIM11bQ0gyXU4xW0NIMl1bQ0gyXVtDQEhdKFtDSDJdW0NASF0xW0NIM10pTihbQ0gzXSljKG5bY0hdbjIpYyhjMjMpbltjSF1uM1tDSDJdW0NASF0oW0NIMl1bT0hdKVtDQEBIXTRbQ0gyXVtDSDJdT1tDSDJdNA==

> <s_epik_cmdline>
J2VwaWtfcHl0aG9uJywgJy1waCcsICc3LjAnLCAnLXRuJywgJzgnLCAnLW1hJywgJzIwMCcsICctbWV0YWxfYmluZGluZycsICctaW1hZScsICc8aW5maWxlLm1hZT4nLCAnLW9tYWUnLCAnPG91dGZpbGUubWFlPic=

> <r_lp_tautomer_probability>
1

> <r_epik_Ionization_Penalty>
0.00294688

> <r_epik_Ionization_Penalty_Charging>
0.00169971

> <r_epik_Ionization_Penalty_Neutral>
0.00124717

> <r_epik_State_Penalty>
-0

> <r_epik_Charging_Adjusted_Penalty>
0.00169971

> <i_epik_Tot_Q>
1

> <i_epik_Tot_abs_Q>
1

> <r_epik_Metal_State_Penalty>
-0

> <b_epik_Metal_Only>
0

> <s_lp_Force_Field>
OPLS_2005

> <r_lp_Energy>
54.564

> <b_lp_Chiralities_Consistent>
1

> <s_lp_Variant>
AV-unprocessed.smi:249-2

> <Gold.Version>
5.8.1

> <Gold.Id.Protein>
6NUR|6NUR_protein|mol2

> <Gold.PLP.Fitness>
49.5355

> <Gold.PLP.PLP>
-42.9864

> <Gold.PLP.part.hbond>
-2.3679

> <Gold.PLP.part.metal>
0.0000

> <Gold.PLP.part.buried>
-6.4076

> <Gold.PLP.part.nonpolar>
-36.2901

> <Gold.PLP.part.repulsive>
0.3650

> <Gold.PLP.ligand.clash>
0.0000

> <Gold.PLP.ligand.torsion>
1.6248

> <Gold.PLP.Chemscore.Hbond>
1.9600

> <Gold.PLP.Chemscore.CHOScore>
0.9967

> <Gold.PLP.Chemscore.Metal>
0.0000

> <Gold.Chemscore.Hbonds>
donor molecule, donor type, donor heavy atom, donor atom, acceptor molecule, acceptor atom, score
      L1  H     3    64       P1 10747  0.96
      P1  H  6896  6909       L1    15  0.77
      L1  C    11    43       P1  7949  0.92

> <Gold.PLP.Chemscore.Internal.Correction>
0.9284

> <Gold.Rescore>
     Score         DG    S(hbond)    S(metal)    S(lipo)     H(rot)  DE(clash)    DE(int)     intcor
     11.17     -15.64       1.65        0.00     103.26       2.90       0.03       4.44       ----

> <Gold.Chemscore.Fitness>
11.1748

> <Gold.Chemscore.DG>
-15.6375

> <Gold.Chemscore.ZeroCoef>
-5.4800

> <Gold.Chemscore.Hbond>
1.6473

> <Gold.Chemscore.Metal>
0.0000

> <Gold.Chemscore.Lipo>
103.2579

> <Gold.Chemscore.Internal_Hbond>
0.0000

> <Gold.Chemscore.DEClash>
0.0256

> <Gold.Chemscore.DEInternal>
4.4371

> <Gold.Chemscore.Rot>
2.9006

> <Gold.Chemscore.Internal.Correction>
   9.000000E+99

> <Gold.Chemscore.Hbonds>
donor molecule, donor type, donor heavy atom, donor atom, acceptor molecule, acceptor atom, score
      L1  H     3    64       P1 10747  0.28
      P1  H  6896  6909       L1    15  0.62

> <Gold.Chemscore.Hbond.Weighted>
-5.5019

> <Gold.Chemscore.Metal.Weighted>
-0.0000

> <Gold.Chemscore.Lipo.Weighted>
-12.0812

> <Gold.Chemscore.Internal_Hbond.Weighted>
0.0000

> <Gold.Chemscore.DEClash.Weighted>
0.0256

> <Gold.Chemscore.DEInternal.Weighted>
4.4371

> <Gold.Chemscore.Rot.Weighted>
7.4256

> <Gold.Chemscore.Internal.Correction.Weighted>
   9.000000E+99

> <Gold.Protein.RotatedTorsions>
[ 6907 6896 6895 6894 ] final   76.91 input  -60.11 | X-H torsion
[ 7974 7965 7964 7962 ] final  -77.55 input  175.53 | X-H torsion
[ 8008 7997 7996 7995 ] final  116.34 input   59.86 | X-H torsion
[ 10167 10162 10161 10158 ] final    2.49 input  -65.29 | X-H torsion
[ 10718 10713 10712 10709 ] final -118.64 input   66.30 | X-H torsion
[ 10763 10752 10751 10750 ] final   85.50 input  -60.55 | X-H torsion
[ 11005 11000 10999 10996 ] final -176.42 input  -57.11 | X-H torsion

> <Gold.Protein.ActiveResidues>
 VAL166  LYS551  ARG553  GLY616  TRP617  ASP618  TYR619  PRO620  LYS621  CYS622 
 ASP623  PHE694  ASN695  SER759  ASP760  ASP761  ALA762  ILE779  LEU786  VAL792 
 PHE793  MET794  SER795  GLU796  ALA797  LYS798  CYS799  TRP800  GLU811  SER814 

> <Gold.Protein.RotatedAtoms>
  152.5094  134.3897  159.9379 H   0  0  0  0  0  0  0  0  0  0  0  0  # atno 6907 bound_to 6896
  151.3857  133.3799  159.2723 H   0  0  0  0  0  0  0  0  0  0  0  0  # atno 6908 bound_to 6896
  150.9470  134.8895  159.7707 H   0  0  0  0  0  0  0  0  0  0  0  0  # atno 6909 bound_to 6896
  145.5982  140.9414  143.1255 H   0  0  0  0  0  0  0  0  0  0  0  0  # atno 7974 bound_to 7965
  156.2433  140.2919  156.0508 H   0  0  0  0  0  0  0  0  0  0  0  0  # atno 8008 bound_to 7997
  155.1883  140.0406  157.2913 H   0  0  0  0  0  0  0  0  0  0  0  0  # atno 8009 bound_to 7997
  154.6212  140.2476  155.7554 H   0  0  0  0  0  0  0  0  0  0  0  0  # atno 8010 bound_to 7997
  140.6632  143.7248  150.7778 H   0  0  0  0  0  0  0  0  0  0  0  0  # atno 10167 bound_to 10162
  156.1121  130.6257  150.9317 H   0  0  0  0  0  0  0  0  0  0  0  0  # atno 10718 bound_to 10713
  153.1481  135.4615  154.9596 H   0  0  0  0  0  0  0  0  0  0  0  0  # atno 10763 bound_to 10752
  154.7802  135.3186  154.8007 H   0  0  0  0  0  0  0  0  0  0  0  0  # atno 10764 bound_to 10752
  153.8517  135.6921  153.4846 H   0  0  0  0  0  0  0  0  0  0  0  0  # atno 10765 bound_to 10752
  140.4523  134.6331  157.4807 H   0  0  0  0  0  0  0  0  0  0  0  0  # atno 11005 bound_to 11000
  144.7321  139.7694  143.7343 LP  0  0  0  0  0  0  0  0  0  0  0  0  # atno 17320 bound_to 7965
  146.1596  139.4705  142.9997 LP  0  0  0  0  0  0  0  0  0  0  0  0  # atno 17321 bound_to 7965
  140.0921  143.4868  152.2473 LP  0  0  0  0  0  0  0  0  0  0  0  0  # atno 17342 bound_to 10162
  139.5872  144.7536  151.3489 LP  0  0  0  0  0  0  0  0  0  0  0  0  # atno 17343 bound_to 10162
  157.6303  131.0921  150.8454 LP  0  0  0  0  0  0  0  0  0  0  0  0  # atno 17370 bound_to 10713
  156.8563  130.5098  149.5307 LP  0  0  0  0  0  0  0  0  0  0  0  0  # atno 17371 bound_to 10713
  139.9998  134.6853  155.9548 LP  0  0  0  0  0  0  0  0  0  0  0  0  # atno 17394 bound_to 11000
  141.1658  133.6537  156.4476 LP  0  0  0  0  0  0  0  0  0  0  0  0  # atno 17395 bound_to 11000

$$$$
