AV-unprocessed.smi:2093|AV-procd|sdf|8546|dock4
  -GOLD-   2272011273D 1   1.00000     0.00000
 Structure written by MMmdl.
 31 32  0  0  0  0  0  0  0  0  1 V2000
  146.4441  131.8431  153.4510 C   0  0  0  0  0  0  0  0  0  0  0  0
  145.9335  133.1179  152.7633 C   0  0  2  0  0  0  0  0  0  0  0  0
  144.5970  133.4305  153.2675 N   0  0  0  0  0  0  0  0  0  0  0  0
  143.9392  134.5868  153.0954 C   0  0  0  0  0  0  0  0  0  0  0  0
  144.3993  135.5505  152.4827 O   0  0  0  0  0  0  0  0  0  0  0  0
  142.7259  134.5423  153.6734 N   0  0  0  0  0  0  0  0  0  0  0  0
  141.7301  135.5536  153.7065 C   0  0  0  0  0  0  0  0  0  0  0  0
  140.4500  135.3432  154.0352 N   0  0  0  0  0  0  0  0  0  0  0  0
  139.6959  136.5184  153.9849 C   0  0  0  0  0  0  0  0  0  0  0  0
  140.4229  137.6221  153.6135 C   0  0  0  0  0  0  0  0  0  0  0  0
  142.0933  137.2265  153.3081 S   0  0  0  0  0  0  0  0  0  0  0  0
  145.8963  132.9710  151.2295 C   0  0  1  0  0  0  0  0  0  0  0  0
  145.1209  131.7522  150.7230 C   0  0  0  0  0  0  0  0  0  0  0  0
  144.7283  132.1952  149.3328 C   0  0  0  0  0  0  0  0  0  0  0  0
  144.4047  133.6678  149.5609 C   0  0  0  0  0  0  0  0  0  0  0  0
  145.2439  134.0907  150.6326 O   0  0  0  0  0  0  0  0  0  0  0  0
  147.4546  131.5968  153.1240 H   0  0  0  0  0  0  0  0  0  0  0  0
  145.8055  130.9875  153.2287 H   0  0  0  0  0  0  0  0  0  0  0  0
  146.4728  131.9662  154.5341 H   0  0  0  0  0  0  0  0  0  0  0  0
  146.6257  133.9261  153.0060 H   0  0  0  0  0  0  0  0  0  0  0  0
  144.1327  132.6988  153.7851 H   0  0  0  0  0  0  0  0  0  0  0  0
  142.4839  133.6814  154.1412 H   0  0  0  0  0  0  0  0  0  0  0  0
  138.6449  136.4785  154.2305 H   0  0  0  0  0  0  0  0  0  0  0  0
  140.0783  138.6395  153.5015 H   0  0  0  0  0  0  0  0  0  0  0  0
  146.9118  132.9318  150.8316 H   0  0  0  0  0  0  0  0  0  0  0  0
  145.7132  130.8368  150.7285 H   0  0  0  0  0  0  0  0  0  0  0  0
  144.2276  131.5849  151.3272 H   0  0  0  0  0  0  0  0  0  0  0  0
  145.5766  132.0957  148.6543 H   0  0  0  0  0  0  0  0  0  0  0  0
  143.8904  131.6325  148.9207 H   0  0  0  0  0  0  0  0  0  0  0  0
  144.5628  134.2720  148.6674 H   0  0  0  0  0  0  0  0  0  0  0  0
  143.3655  133.7851  149.8705 H   0  0  0  0  0  0  0  0  0  0  0  0
  1  2  1  0  0  0  0
  1 17  1  0  0  0  0
  1 18  1  0  0  0  0
  1 19  1  0  0  0  0
  2  3  1  0  0  0  0
  2 12  1  0  0  0  0
  2 20  1  0  0  0  0
  3  4  1  0  0  0  0
  3 21  1  0  0  0  0
  4  5  2  0  0  0  0
  4  6  1  0  0  0  0
  6  7  1  0  0  0  0
  6 22  1  0  0  0  0
  7 11  1  0  0  0  0
  7  8  2  0  0  0  0
  8  9  1  0  0  0  0
  9 10  2  0  0  0  0
  9 23  1  0  0  0  0
 10 11  1  0  0  0  0
 10 24  1  0  0  0  0
 12 16  1  0  0  0  0
 12 13  1  0  0  0  0
 12 25  1  0  0  0  0
 13 14  1  0  0  0  0
 13 26  1  0  0  0  0
 13 27  1  0  0  0  0
 14 15  1  0  0  0  0
 14 28  1  0  0  0  0
 14 29  1  0  0  0  0
 15 16  1  0  0  0  0
 15 30  1  0  0  0  0
 15 31  1  0  0  0  0
M  END
> <s_m_source_file>
AV-unprocessed.smi

> <i_m_source_file_index>
2093

> <i_lp_mmshare_version>
43012

> <i_f3d_flags>
0

> <s_epik_input>
TzFbQ0gyXVtDSDJdW0NIMl1bQ0BIXTFbQ0BIXShbQ0gzXSlbTkhdQyg9TylbTkhdYzJuW2NIXVtjSF1zMg==

> <s_epik_cmdline>
J2VwaWtfcHl0aG9uJywgJy1waCcsICc3LjAnLCAnLXRuJywgJzgnLCAnLW1hJywgJzIwMCcsICctbWV0YWxfYmluZGluZycsICctaW1hZScsICc8aW5maWxlLm1hZT4nLCAnLW9tYWUnLCAnPG91dGZpbGUubWFlPic=

> <r_lp_tautomer_probability>
0.999

> <r_epik_Ionization_Penalty>
0.000334433

> <r_epik_Ionization_Penalty_Charging>
0

> <r_epik_Ionization_Penalty_Neutral>
0.000334433

> <r_epik_State_Penalty>
0.000177984

> <r_epik_Charging_Adjusted_Penalty>
0.000177984

> <i_epik_Tot_Q>
0

> <i_epik_Tot_abs_Q>
0

> <r_epik_Metal_State_Penalty>
0.00767616

> <b_epik_Metal_Only>
0

> <s_lp_Force_Field>
OPLS_2005

> <r_lp_Energy>
15.9736

> <b_lp_Chiralities_Consistent>
1

> <s_lp_Variant>
AV-unprocessed.smi:2093-3

> <Gold.Version>
5.8.1

> <Gold.Id.Protein>
6NUR|6NUR_protein|mol2

> <Gold.PLP.Fitness>
37.0997

> <Gold.PLP.PLP>
-28.6157

> <Gold.PLP.part.hbond>
-3.6898

> <Gold.PLP.part.metal>
0.0000

> <Gold.PLP.part.buried>
-4.3645

> <Gold.PLP.part.nonpolar>
-21.2548

> <Gold.PLP.part.repulsive>
0.4503

> <Gold.PLP.ligand.clash>
0.0000

> <Gold.PLP.ligand.torsion>
0.2491

> <Gold.PLP.Chemscore.Hbond>
2.9913

> <Gold.PLP.Chemscore.CHOScore>
0.0000

> <Gold.PLP.Chemscore.Metal>
0.0000

> <Gold.Chemscore.Hbonds>
donor molecule, donor type, donor heavy atom, donor atom, acceptor molecule, acceptor atom, score
      L1  H     3    21       P1 10957  1.00
      L1  H     6    22       P1 10957  1.00
      P1  H 11000 11005       L1     8  1.00

> <Gold.PLP.Chemscore.Internal.Correction>
0.0084

> <Gold.Rescore>
     Score         DG    S(hbond)    S(metal)    S(lipo)     H(rot)  DE(clash)    DE(int)     intcor
     13.52     -18.05       2.64        0.00      60.32       1.29       0.02       4.51       ----

> <Gold.Chemscore.Fitness>
13.5239

> <Gold.Chemscore.DG>
-18.0546

> <Gold.Chemscore.ZeroCoef>
-5.4800

> <Gold.Chemscore.Hbond>
2.6436

> <Gold.Chemscore.Metal>
0.0000

> <Gold.Chemscore.Lipo>
60.3164

> <Gold.Chemscore.Internal_Hbond>
0.0000

> <Gold.Chemscore.DEClash>
0.0239

> <Gold.Chemscore.DEInternal>
4.5068

> <Gold.Chemscore.Rot>
1.2938

> <Gold.Chemscore.Internal.Correction>
   9.000000E+99

> <Gold.Chemscore.Hbonds>
donor molecule, donor type, donor heavy atom, donor atom, acceptor molecule, acceptor atom, score
      L1  H     3    21       P1 10957  0.67
      L1  H     6    22       P1 10957  0.94
      P1  H 11000 11005       L1     8  0.70

> <Gold.Chemscore.Hbond.Weighted>
-8.8297

> <Gold.Chemscore.Metal.Weighted>
-0.0000

> <Gold.Chemscore.Lipo.Weighted>
-7.0570

> <Gold.Chemscore.Internal_Hbond.Weighted>
0.0000

> <Gold.Chemscore.DEClash.Weighted>
0.0239

> <Gold.Chemscore.DEInternal.Weighted>
4.5068

> <Gold.Chemscore.Rot.Weighted>
3.3122

> <Gold.Chemscore.Internal.Correction.Weighted>
   9.000000E+99

> <Gold.Protein.RotatedTorsions>
[ 6907 6896 6895 6894 ] final   -6.05 input  -60.11 | X-H torsion
[ 7974 7965 7964 7962 ] final -137.73 input  175.53 | X-H torsion
[ 8008 7997 7996 7995 ] final -112.55 input   59.86 | X-H torsion
[ 10167 10162 10161 10158 ] final  -93.12 input  -65.29 | X-H torsion
[ 10718 10713 10712 10709 ] final -132.00 input   66.30 | X-H torsion
[ 10763 10752 10751 10750 ] final  -43.06 input  -60.55 | X-H torsion
[ 11005 11000 10999 10996 ] final   28.96 input  -57.11 | X-H torsion

> <Gold.Protein.ActiveResidues>
 VAL166  LYS551  ARG553  GLY616  TRP617  ASP618  TYR619  PRO620  LYS621  CYS622 
 ASP623  PHE694  ASN695  SER759  ASP760  ASP761  ALA762  ILE779  LEU786  VAL792 
 PHE793  MET794  SER795  GLU796  ALA797  LYS798  CYS799  TRP800  GLU811  SER814 

> <Gold.Protein.RotatedAtoms>
  151.4718  135.1046  159.9753 H   0  0  0  0  0  0  0  0  0  0  0  0  # atno 6907 bound_to 6896
  152.4813  133.8258  159.7088 H   0  0  0  0  0  0  0  0  0  0  0  0  # atno 6908 bound_to 6896
  150.8888  133.7211  159.2937 H   0  0  0  0  0  0  0  0  0  0  0  0  # atno 6909 bound_to 6896
  144.8817  140.6517  143.5201 H   0  0  0  0  0  0  0  0  0  0  0  0  # atno 7974 bound_to 7965
  155.0069  140.0394  157.2383 H   0  0  0  0  0  0  0  0  0  0  0  0  # atno 8008 bound_to 7997
  154.7494  140.2764  155.6282 H   0  0  0  0  0  0  0  0  0  0  0  0  # atno 8009 bound_to 7997
  156.2882  140.2650  156.2243 H   0  0  0  0  0  0  0  0  0  0  0  0  # atno 8010 bound_to 7997
  140.3279  143.3011  151.9974 H   0  0  0  0  0  0  0  0  0  0  0  0  # atno 10167 bound_to 10162
  156.2301  130.7032  151.0849 H   0  0  0  0  0  0  0  0  0  0  0  0  # atno 10718 bound_to 10713
  153.9893  135.6707  153.4753 H   0  0  0  0  0  0  0  0  0  0  0  0  # atno 10763 bound_to 10752
  153.0712  135.4973  154.8305 H   0  0  0  0  0  0  0  0  0  0  0  0  # atno 10764 bound_to 10752
  154.7118  135.3099  154.9147 H   0  0  0  0  0  0  0  0  0  0  0  0  # atno 10765 bound_to 10752
  140.3101  134.2660  155.7736 H   0  0  0  0  0  0  0  0  0  0  0  0  # atno 11005 bound_to 11000
  145.3942  139.1610  143.4213 LP  0  0  0  0  0  0  0  0  0  0  0  0  # atno 17320 bound_to 7965
  146.2999  140.4033  142.8708 LP  0  0  0  0  0  0  0  0  0  0  0  0  # atno 17321 bound_to 7965
  139.4862  144.6258  151.7166 LP  0  0  0  0  0  0  0  0  0  0  0  0  # atno 17342 bound_to 10162
  140.5424  144.0558  150.6093 LP  0  0  0  0  0  0  0  0  0  0  0  0  # atno 17343 bound_to 10162
  157.7129  131.0725  150.6435 LP  0  0  0  0  0  0  0  0  0  0  0  0  # atno 17370 bound_to 10713
  156.6502  130.4483  149.5722 LP  0  0  0  0  0  0  0  0  0  0  0  0  # atno 17371 bound_to 10713
  141.2110  133.7702  156.9894 LP  0  0  0  0  0  0  0  0  0  0  0  0  # atno 17394 bound_to 11000
  140.1033  134.9522  157.1955 LP  0  0  0  0  0  0  0  0  0  0  0  0  # atno 17395 bound_to 11000

$$$$
