AV-unprocessed.smi:1534|AV-procd|sdf|6168|dock4
  -GOLD-   22720 6313D 1   1.00000     0.00000
 Structure written by MMmdl.
 37 38  0  0  0  0  0  0  0  0  2 V2000
  140.7568  137.1304  153.7981 O   0  0  0  0  0  0  0  0  0  0  0  0
  141.5701  137.9738  153.4257 C   0  0  0  0  0  0  0  0  0  0  0  0
  142.7207  137.6654  152.8032 N   0  0  0  0  0  0  0  0  0  0  0  0
  143.1591  136.3128  152.4805 C   0  0  0  0  0  0  0  0  0  0  0  0
  144.3447  136.3203  151.5006 C   0  0  0  0  0  0  0  0  0  0  0  0
  144.7514  134.9213  151.0813 C   0  0  0  0  0  0  0  0  0  0  0  0
  146.0560  134.4249  151.2932 C   0  0  0  0  0  0  0  0  0  0  0  0
  146.3720  133.1159  150.8731 C   0  0  0  0  0  0  0  0  0  0  0  0
  145.3786  132.3324  150.2498 C   0  0  0  0  0  0  0  0  0  0  0  0
  144.0927  132.8792  150.0612 C   0  0  0  0  0  0  0  0  0  0  0  0
  143.8290  134.1378  150.4769 N   0  3  0  0  0  0  0  0  0  0  0  0
  141.3602  139.2900  153.6050 N   0  0  0  0  0  0  0  0  0  0  0  0
  140.2168  139.9449  154.2418 C   0  0  2  0  0  0  0  0  0  0  0  0
  138.9762  139.8924  153.3308 C   0  0  0  0  0  0  0  0  0  0  0  0
  137.9283  140.8791  153.8621 C   0  0  0  0  0  0  0  0  0  0  0  0
  138.8629  142.2259  154.6831 S   0  0  0  0  0  0  0  0  0  0  0  0
  138.8480  143.4291  153.8375 O   0  0  0  0  0  0  0  0  0  0  0  0
  138.4626  142.2877  156.0970 O   0  0  0  0  0  0  0  0  0  0  0  0
  140.5032  141.4228  154.5543 C   0  0  0  0  0  0  0  0  0  0  0  0
  143.3323  138.4218  152.5322 H   0  0  0  0  0  0  0  0  0  0  0  0
  143.4435  135.8182  153.4097 H   0  0  0  0  0  0  0  0  0  0  0  0
  142.3252  135.7424  152.0672 H   0  0  0  0  0  0  0  0  0  0  0  0
  144.0951  136.8944  150.6071 H   0  0  0  0  0  0  0  0  0  0  0  0
  145.2022  136.8187  151.9551 H   0  0  0  0  0  0  0  0  0  0  0  0
  146.8072  135.0387  151.7692 H   0  0  0  0  0  0  0  0  0  0  0  0
  147.3648  132.7186  151.0261 H   0  0  0  0  0  0  0  0  0  0  0  0
  145.6002  131.3276  149.9203 H   0  0  0  0  0  0  0  0  0  0  0  0
  143.2737  132.3523  149.5941 H   0  0  0  0  0  0  0  0  0  0  0  0
  142.0696  139.9092  153.2395 H   0  0  0  0  0  0  0  0  0  0  0  0
  139.9627  139.4297  155.1699 H   0  0  0  0  0  0  0  0  0  0  0  0
  139.2587  140.1973  152.3220 H   0  0  0  0  0  0  0  0  0  0  0  0
  138.5707  138.8828  153.2548 H   0  0  0  0  0  0  0  0  0  0  0  0
  137.2921  141.2860  153.0759 H   0  0  0  0  0  0  0  0  0  0  0  0
  137.2940  140.4047  154.6113 H   0  0  0  0  0  0  0  0  0  0  0  0
  141.0645  141.5709  155.4767 H   0  0  0  0  0  0  0  0  0  0  0  0
  141.0437  141.9013  153.7368 H   0  0  0  0  0  0  0  0  0  0  0  0
  142.8917  134.5133  150.3293 H   0  0  0  0  0  0  0  0  0  0  0  0
  1  2  2  0  0  0  0
  2  3  1  0  0  0  0
  2 12  1  0  0  0  0
  3  4  1  0  0  0  0
  3 20  1  0  0  0  0
  4  5  1  0  0  0  0
  4 21  1  0  0  0  0
  4 22  1  0  0  0  0
  5  6  1  0  0  0  0
  5 23  1  0  0  0  0
  5 24  1  0  0  0  0
  6 11  1  0  0  0  0
  6  7  2  0  0  0  0
  7  8  1  0  0  0  0
  7 25  1  0  0  0  0
  8  9  2  0  0  0  0
  8 26  1  0  0  0  0
  9 10  1  0  0  0  0
  9 27  1  0  0  0  0
 10 11  2  0  0  0  0
 10 28  1  0  0  0  0
 11 37  1  0  0  0  0
 12 13  1  0  0  0  0
 12 29  1  0  0  0  0
 13 19  1  0  0  0  0
 13 14  1  0  0  0  0
 13 30  1  0  0  0  0
 14 15  1  0  0  0  0
 14 31  1  0  0  0  0
 14 32  1  0  0  0  0
 15 16  1  0  0  0  0
 15 33  1  0  0  0  0
 15 34  1  0  0  0  0
 16 17  2  0  0  0  0
 16 18  2  0  0  0  0
 16 19  1  0  0  0  0
 19 35  1  0  0  0  0
 19 36  1  0  0  0  0
M  CHG  1  11   1
M  END
> <s_m_source_file>
AV-unprocessed.smi

> <i_m_source_file_index>
1534

> <i_lp_mmshare_version>
43012

> <i_f3d_flags>
0

> <s_epik_input>
Tz1TMSg9TylbQ0gyXVtDSDJdW0NASF0oW0NIMl0xKVtOSF1DKD1PKVtOSF1bQ0gyXVtDSDJdYzJbY0hdW2NIXVtjSF1bY0hdbjI=

> <s_epik_cmdline>
J2VwaWtfcHl0aG9uJywgJy1waCcsICc3LjAnLCAnLXRuJywgJzgnLCAnLW1hJywgJzIwMCcsICctbWV0YWxfYmluZGluZycsICctaW1hZScsICc8aW5maWxlLm1hZT4nLCAnLW9tYWUnLCAnPG91dGZpbGUubWFlPic=

> <r_epik_Ionization_Penalty>
1.58466

> <r_epik_Ionization_Penalty_Charging>
1.58462

> <r_epik_Ionization_Penalty_Neutral>
3.4911e-05

> <r_epik_State_Penalty>
1.6815

> <r_epik_Charging_Adjusted_Penalty>
3.26612

> <i_epik_Tot_Q>
1

> <i_epik_Tot_abs_Q>
1

> <r_epik_Metal_State_Penalty>
1.72144

> <b_epik_Metal_Only>
0

> <s_lp_Force_Field>
OPLS_2005

> <r_lp_Energy>
16.0644

> <b_lp_Chiralities_Consistent>
1

> <s_lp_Variant>
AV-unprocessed.smi:1534-3

> <Gold.Version>
5.8.1

> <Gold.Id.Protein>
6NUR|6NUR_protein|mol2

> <Gold.PLP.Fitness>
45.2355

> <Gold.PLP.PLP>
-31.0007

> <Gold.PLP.part.hbond>
-4.2600

> <Gold.PLP.part.metal>
0.0000

> <Gold.PLP.part.buried>
-2.9315

> <Gold.PLP.part.nonpolar>
-24.4531

> <Gold.PLP.part.repulsive>
0.2073

> <Gold.PLP.ligand.clash>
0.0000

> <Gold.PLP.ligand.torsion>
0.2430

> <Gold.PLP.Chemscore.Hbond>
4.9040

> <Gold.PLP.Chemscore.CHOScore>
0.0000

> <Gold.PLP.Chemscore.Metal>
0.0000

> <Gold.Chemscore.Hbonds>
donor molecule, donor type, donor heavy atom, donor atom, acceptor molecule, acceptor atom, score
      L1  H     3    20       P1 10175  0.94
      L1  H    11    37       P1 10186  1.98
      L1  H    12    29       P1 10175  1.00
      P1  H 10162 10167       L1    17  0.96

> <Gold.PLP.Chemscore.Internal.Correction>
0.0087

> <Gold.Rescore>
     Score         DG    S(hbond)    S(metal)    S(lipo)     H(rot)  DE(clash)    DE(int)     intcor
     18.81     -19.00       3.12        0.00      66.36       1.82       0.07       0.13       ----

> <Gold.Chemscore.Fitness>
18.8069

> <Gold.Chemscore.DG>
-19.0004

> <Gold.Chemscore.ZeroCoef>
-5.4800

> <Gold.Chemscore.Hbond>
3.1199

> <Gold.Chemscore.Metal>
0.0000

> <Gold.Chemscore.Lipo>
66.3607

> <Gold.Chemscore.Internal_Hbond>
0.0000

> <Gold.Chemscore.DEClash>
0.0668

> <Gold.Chemscore.DEInternal>
0.1266

> <Gold.Chemscore.Rot>
1.8220

> <Gold.Chemscore.Internal.Correction>
   9.000000E+99

> <Gold.Chemscore.Hbonds>
donor molecule, donor type, donor heavy atom, donor atom, acceptor molecule, acceptor atom, score
      L1  H     3    20       P1 10175  0.84
      L1  H    11    37       P1 10186  0.58
      L1  H    12    29       P1 10175  0.60
      P1  H 10162 10167       L1    17  0.92

> <Gold.Chemscore.Hbond.Weighted>
-10.4204

> <Gold.Chemscore.Metal.Weighted>
-0.0000

> <Gold.Chemscore.Lipo.Weighted>
-7.7642

> <Gold.Chemscore.Internal_Hbond.Weighted>
0.0000

> <Gold.Chemscore.DEClash.Weighted>
0.0668

> <Gold.Chemscore.DEInternal.Weighted>
0.1266

> <Gold.Chemscore.Rot.Weighted>
4.6642

> <Gold.Chemscore.Internal.Correction.Weighted>
   9.000000E+99

> <Gold.Protein.RotatedTorsions>
[ 6907 6896 6895 6894 ] final  -86.99 input  -60.11 | X-H torsion
[ 7974 7965 7964 7962 ] final  -63.82 input  175.53 | X-H torsion
[ 8008 7997 7996 7995 ] final -125.29 input   59.86 | X-H torsion
[ 10167 10162 10161 10158 ] final -160.33 input  -65.29 | X-H torsion
[ 10718 10713 10712 10709 ] final  -13.49 input   66.30 | X-H torsion
[ 10763 10752 10751 10750 ] final  176.77 input  -60.55 | X-H torsion
[ 11005 11000 10999 10996 ] final -165.53 input  -57.11 | X-H torsion

> <Gold.Protein.ActiveResidues>
 VAL166  LYS551  ARG553  GLY616  TRP617  ASP618  TYR619  PRO620  LYS621  CYS622 
 ASP623  PHE694  ASN695  SER759  ASP760  ASP761  ALA762  ILE779  LEU786  VAL792 
 PHE793  MET794  SER795  GLU796  ALA797  LYS798  CYS799  TRP800  GLU811  SER814 

> <Gold.Protein.RotatedAtoms>
  150.6866  134.2965  159.4688 H   0  0  0  0  0  0  0  0  0  0  0  0  # atno 6907 bound_to 6896
  152.0865  134.9434  160.0582 H   0  0  0  0  0  0  0  0  0  0  0  0  # atno 6908 bound_to 6896
  152.0766  133.4098  159.4520 H   0  0  0  0  0  0  0  0  0  0  0  0  # atno 6909 bound_to 6896
  145.7743  140.8796  143.0364 H   0  0  0  0  0  0  0  0  0  0  0  0  # atno 7974 bound_to 7965
  155.2109  140.0419  157.2933 H   0  0  0  0  0  0  0  0  0  0  0  0  # atno 8008 bound_to 7997
  154.6012  140.2452  155.7761 H   0  0  0  0  0  0  0  0  0  0  0  0  # atno 8009 bound_to 7997
  156.2322  140.2934  156.0227 H   0  0  0  0  0  0  0  0  0  0  0  0  # atno 8010 bound_to 7997
  139.6547  144.0020  152.2186 H   0  0  0  0  0  0  0  0  0  0  0  0  # atno 10167 bound_to 10162
  156.6294  130.4897  149.6134 H   0  0  0  0  0  0  0  0  0  0  0  0  # atno 10718 bound_to 10713
  154.4856  135.2777  155.1537 H   0  0  0  0  0  0  0  0  0  0  0  0  # atno 10763 bound_to 10752
  154.3229  135.6206  153.5519 H   0  0  0  0  0  0  0  0  0  0  0  0  # atno 10764 bound_to 10752
  152.9881  135.5747  154.5266 H   0  0  0  0  0  0  0  0  0  0  0  0  # atno 10765 bound_to 10752
  140.5747  134.5202  157.5168 H   0  0  0  0  0  0  0  0  0  0  0  0  # atno 11005 bound_to 11000
  144.6807  139.9899  143.7484 LP  0  0  0  0  0  0  0  0  0  0  0  0  # atno 17320 bound_to 7965
  146.0139  139.3193  143.0854 LP  0  0  0  0  0  0  0  0  0  0  0  0  # atno 17321 bound_to 7965
  139.9743  144.6472  150.7959 LP  0  0  0  0  0  0  0  0  0  0  0  0  # atno 17342 bound_to 10162
  140.7554  143.3045  151.2997 LP  0  0  0  0  0  0  0  0  0  0  0  0  # atno 17343 bound_to 10162
  156.2247  130.6758  151.1403 LP  0  0  0  0  0  0  0  0  0  0  0  0  # atno 17370 bound_to 10713
  157.7204  131.0685  150.6158 LP  0  0  0  0  0  0  0  0  0  0  0  0  # atno 17371 bound_to 10713
  139.9345  134.7901  156.0839 LP  0  0  0  0  0  0  0  0  0  0  0  0  # atno 17394 bound_to 11000
  141.1034  133.6669  156.2808 LP  0  0  0  0  0  0  0  0  0  0  0  0  # atno 17395 bound_to 11000

$$$$
