AV-unprocessed.smi:1053|AV-procd|sdf|4622|dock3
  -GOLD-   22720 3123D 1   1.00000     0.00000
 Structure written by MMmdl.
 37 38  0  0  0  0  0  0  0  0  1 V2000
  153.8828  141.1756  160.9334 C   0  0  0  0  0  0  0  0  0  0  0  0
  153.3463  142.5676  161.2967 C   0  0  0  0  0  0  0  0  0  0  0  0
  152.7006  143.2856  160.1992 N   0  0  0  0  0  0  0  0  0  0  0  0
  152.1961  144.5947  160.6065 C   0  0  0  0  0  0  0  0  0  0  0  0
  151.4886  145.3204  159.4502 C   0  0  0  0  0  0  0  0  0  0  0  0
  150.4415  144.4999  158.9439 O   0  0  0  0  0  0  0  0  0  0  0  0
  150.9034  143.2351  158.4750 C   0  0  2  0  0  0  0  0  0  0  0  0
  149.6980  142.4451  157.9494 C   0  0  0  0  0  0  0  0  0  0  0  0
  149.6356  142.4683  156.4960 N   0  0  0  0  0  0  0  0  0  0  0  0
  149.7993  141.3545  155.6952 C   0  0  0  0  0  0  0  0  0  0  0  0
  148.9342  141.2400  154.6850 N   0  0  0  0  0  0  0  0  0  0  0  0
  149.0666  140.1616  153.8829 C   0  0  0  0  0  0  0  0  0  0  0  0
  150.0704  139.1962  154.0952 C   0  0  0  0  0  0  0  0  0  0  0  0
  150.9306  139.4190  155.1937 C   0  0  0  0  0  0  0  0  0  0  0  0
  152.0605  138.4632  155.5447 C   0  0  0  0  0  0  0  0  0  0  0  0
  153.0212  138.4807  154.6199 F   0  0  0  0  0  0  0  0  0  0  0  0
  152.5954  138.8092  156.7159 F   0  0  0  0  0  0  0  0  0  0  0  0
  151.5865  137.2205  155.6377 F   0  0  0  0  0  0  0  0  0  0  0  0
  150.7878  140.5031  155.9907 N   0  0  0  0  0  0  0  0  0  0  0  0
  151.5994  142.5068  159.6418 C   0  0  0  0  0  0  0  0  0  0  0  0
  154.2550  140.6654  161.8217 H   0  0  0  0  0  0  0  0  0  0  0  0
  154.7075  141.2288  160.2232 H   0  0  0  0  0  0  0  0  0  0  0  0
  153.1000  140.5535  160.4987 H   0  0  0  0  0  0  0  0  0  0  0  0
  152.6249  142.4387  162.1046 H   0  0  0  0  0  0  0  0  0  0  0  0
  154.1544  143.1719  161.7112 H   0  0  0  0  0  0  0  0  0  0  0  0
  151.5004  144.4809  161.4394 H   0  0  0  0  0  0  0  0  0  0  0  0
  153.0124  145.2219  160.9633 H   0  0  0  0  0  0  0  0  0  0  0  0
  151.0665  146.2643  159.7955 H   0  0  0  0  0  0  0  0  0  0  0  0
  152.1938  145.5567  158.6518 H   0  0  0  0  0  0  0  0  0  0  0  0
  151.6195  143.3854  157.6646 H   0  0  0  0  0  0  0  0  0  0  0  0
  149.7709  141.4066  158.2742 H   0  0  0  0  0  0  0  0  0  0  0  0
  148.7716  142.8472  158.3617 H   0  0  0  0  0  0  0  0  0  0  0  0
  149.3688  143.3304  156.0432 H   0  0  0  0  0  0  0  0  0  0  0  0
  148.3668  140.0684  153.0658 H   0  0  0  0  0  0  0  0  0  0  0  0
  150.1685  138.3373  153.4482 H   0  0  0  0  0  0  0  0  0  0  0  0
  151.9721  141.5431  159.2921 H   0  0  0  0  0  0  0  0  0  0  0  0
  150.8680  142.2920  160.4229 H   0  0  0  0  0  0  0  0  0  0  0  0
  1  2  1  0  0  0  0
  1 21  1  0  0  0  0
  1 22  1  0  0  0  0
  1 23  1  0  0  0  0
  2  3  1  0  0  0  0
  2 24  1  0  0  0  0
  2 25  1  0  0  0  0
  3 20  1  0  0  0  0
  3  4  1  0  0  0  0
  4  5  1  0  0  0  0
  4 26  1  0  0  0  0
  4 27  1  0  0  0  0
  5  6  1  0  0  0  0
  5 28  1  0  0  0  0
  5 29  1  0  0  0  0
  6  7  1  0  0  0  0
  7  8  1  0  0  0  0
  7 20  1  0  0  0  0
  7 30  1  0  0  0  0
  8  9  1  0  0  0  0
  8 31  1  0  0  0  0
  8 32  1  0  0  0  0
  9 10  1  0  0  0  0
  9 33  1  0  0  0  0
 10 19  1  0  0  0  0
 10 11  2  0  0  0  0
 11 12  1  0  0  0  0
 12 13  2  0  0  0  0
 12 34  1  0  0  0  0
 13 14  1  0  0  0  0
 13 35  1  0  0  0  0
 14 15  1  0  0  0  0
 14 19  2  0  0  0  0
 15 16  1  0  0  0  0
 15 17  1  0  0  0  0
 15 18  1  0  0  0  0
 20 36  1  0  0  0  0
 20 37  1  0  0  0  0
M  END
> <s_m_source_file>
AV-unprocessed.smi

> <i_m_source_file_index>
1053

> <i_lp_mmshare_version>
43012

> <i_f3d_flags>
0

> <s_epik_input>
W0NIM11bQ0gyXU4xW0NIMl1bQ0gyXU9bQ0BIXShbQ0gyXTEpW0NIMl1bTkhdYzJuW2NIXVtjSF1jKG4yKUMoRikoRilG

> <s_epik_cmdline>
J2VwaWtfcHl0aG9uJywgJy1waCcsICc3LjAnLCAnLXRuJywgJzgnLCAnLW1hJywgJzIwMCcsICctbWV0YWxfYmluZGluZycsICctaW1hZScsICc8aW5maWxlLm1hZT4nLCAnLW9tYWUnLCAnPG91dGZpbGUubWFlPic=

> <r_lp_tautomer_probability>
1

> <r_epik_Ionization_Penalty>
0.797829

> <r_epik_Ionization_Penalty_Charging>
0

> <r_epik_Ionization_Penalty_Neutral>
0.797829

> <r_epik_State_Penalty>
0.828842

> <r_epik_Charging_Adjusted_Penalty>
0.828842

> <i_epik_Tot_Q>
0

> <i_epik_Tot_abs_Q>
0

> <r_epik_Metal_State_Penalty>
0.828842

> <b_epik_Metal_Only>
0

> <s_lp_Force_Field>
OPLS_2005

> <r_lp_Energy>
15.9196

> <b_lp_Chiralities_Consistent>
1

> <s_lp_Variant>
AV-unprocessed.smi:1053-6

> <Gold.Version>
5.8.1

> <Gold.Id.Protein>
6NUR|6NUR_protein|mol2

> <Gold.PLP.Fitness>
40.6415

> <Gold.PLP.PLP>
-38.2508

> <Gold.PLP.part.hbond>
-0.9757

> <Gold.PLP.part.metal>
0.0000

> <Gold.PLP.part.buried>
-2.7162

> <Gold.PLP.part.nonpolar>
-35.5144

> <Gold.PLP.part.repulsive>
0.3820

> <Gold.PLP.ligand.clash>
0.0000

> <Gold.PLP.ligand.torsion>
1.1559

> <Gold.PLP.Chemscore.Hbond>
1.0000

> <Gold.PLP.Chemscore.CHOScore>
0.5570

> <Gold.PLP.Chemscore.Metal>
0.0000

> <Gold.Chemscore.Hbonds>
donor molecule, donor type, donor heavy atom, donor atom, acceptor molecule, acceptor atom, score
      L1  H     9    33       P1  8028  0.98
      L1  C    12    34       P1  7957  0.54

> <Gold.PLP.Chemscore.Internal.Correction>
0.0316

> <Gold.Rescore>
     Score         DG    S(hbond)    S(metal)    S(lipo)     H(rot)  DE(clash)    DE(int)     intcor
     14.46     -15.90       1.00        0.00      93.79       1.52       0.47       0.97       ----

> <Gold.Chemscore.Fitness>
14.4553

> <Gold.Chemscore.DG>
-15.8974

> <Gold.Chemscore.ZeroCoef>
-5.4800

> <Gold.Chemscore.Hbond>
0.9991

> <Gold.Chemscore.Metal>
0.0000

> <Gold.Chemscore.Lipo>
93.7921

> <Gold.Chemscore.Internal_Hbond>
0.0000

> <Gold.Chemscore.DEClash>
0.4698

> <Gold.Chemscore.DEInternal>
0.9724

> <Gold.Chemscore.Rot>
1.5208

> <Gold.Chemscore.Internal.Correction>
   9.000000E+99

> <Gold.Chemscore.Hbonds>
donor molecule, donor type, donor heavy atom, donor atom, acceptor molecule, acceptor atom, score
      L1  H     9    33       P1  8028  0.91

> <Gold.Chemscore.Hbond.Weighted>
-3.3369

> <Gold.Chemscore.Metal.Weighted>
-0.0000

> <Gold.Chemscore.Lipo.Weighted>
-10.9737

> <Gold.Chemscore.Internal_Hbond.Weighted>
0.0000

> <Gold.Chemscore.DEClash.Weighted>
0.4698

> <Gold.Chemscore.DEInternal.Weighted>
0.9724

> <Gold.Chemscore.Rot.Weighted>
3.8932

> <Gold.Chemscore.Internal.Correction.Weighted>
   9.000000E+99

> <Gold.Protein.RotatedTorsions>
[ 6907 6896 6895 6894 ] final  111.78 input  -60.11 | X-H torsion
[ 7974 7965 7964 7962 ] final -114.92 input  175.53 | X-H torsion
[ 8008 7997 7996 7995 ] final  106.66 input   59.86 | X-H torsion
[ 10167 10162 10161 10158 ] final  -52.11 input  -65.29 | X-H torsion
[ 10718 10713 10712 10709 ] final -131.32 input   66.30 | X-H torsion
[ 10763 10752 10751 10750 ] final   85.46 input  -60.55 | X-H torsion
[ 11005 11000 10999 10996 ] final  -28.76 input  -57.11 | X-H torsion

> <Gold.Protein.ActiveResidues>
 VAL166  LYS551  ARG553  GLY616  TRP617  ASP618  TYR619  PRO620  LYS621  CYS622 
 ASP623  PHE694  ASN695  SER759  ASP760  ASP761  ALA762  ILE779  LEU786  VAL792 
 PHE793  MET794  SER795  GLU796  ALA797  LYS798  CYS799  TRP800  GLU811  SER814 

> <Gold.Protein.RotatedAtoms>
  152.4951  133.8609  159.7249 H   0  0  0  0  0  0  0  0  0  0  0  0  # atno 6907 bound_to 6896
  150.9121  133.6976  159.2859 H   0  0  0  0  0  0  0  0  0  0  0  0  # atno 6908 bound_to 6896
  151.4381  135.1021  159.9714 H   0  0  0  0  0  0  0  0  0  0  0  0  # atno 6909 bound_to 6896
  145.1144  140.8631  143.3851 H   0  0  0  0  0  0  0  0  0  0  0  0  # atno 7974 bound_to 7965
  156.1761  140.3109  155.9061 H   0  0  0  0  0  0  0  0  0  0  0  0  # atno 8008 bound_to 7997
  155.3485  140.0469  157.3063 H   0  0  0  0  0  0  0  0  0  0  0  0  # atno 8009 bound_to 7997
  154.5292  140.2224  155.8846 H   0  0  0  0  0  0  0  0  0  0  0  0  # atno 8010 bound_to 7997
  140.6554  143.2595  151.4601 H   0  0  0  0  0  0  0  0  0  0  0  0  # atno 10167 bound_to 10162
  156.2233  130.6992  151.0779 H   0  0  0  0  0  0  0  0  0  0  0  0  # atno 10718 bound_to 10713
  153.1477  135.4616  154.9590 H   0  0  0  0  0  0  0  0  0  0  0  0  # atno 10763 bound_to 10752
  154.7799  135.3185  154.8014 H   0  0  0  0  0  0  0  0  0  0  0  0  # atno 10764 bound_to 10752
  153.8525  135.6920  153.4845 H   0  0  0  0  0  0  0  0  0  0  0  0  # atno 10765 bound_to 10752
  140.9237  133.7382  156.0837 H   0  0  0  0  0  0  0  0  0  0  0  0  # atno 11005 bound_to 11000
  145.0810  139.2960  143.5783 LP  0  0  0  0  0  0  0  0  0  0  0  0  # atno 17320 bound_to 7965
  146.3524  140.0317  142.8650 LP  0  0  0  0  0  0  0  0  0  0  0  0  # atno 17321 bound_to 7965
  139.5776  144.1784  152.1924 LP  0  0  0  0  0  0  0  0  0  0  0  0  # atno 17342 bound_to 10162
  140.1099  144.5466  150.6932 LP  0  0  0  0  0  0  0  0  0  0  0  0  # atno 17343 bound_to 10162
  157.7098  131.0739  150.6541 LP  0  0  0  0  0  0  0  0  0  0  0  0  # atno 17370 bound_to 10713
  156.6605  130.4511  149.5689 LP  0  0  0  0  0  0  0  0  0  0  0  0  # atno 17371 bound_to 10713
  140.7954  134.3570  157.5454 LP  0  0  0  0  0  0  0  0  0  0  0  0  # atno 17394 bound_to 11000
  139.8781  134.9165  156.3157 LP  0  0  0  0  0  0  0  0  0  0  0  0  # atno 17395 bound_to 11000

$$$$
