AV-unprocessed.smi:2787|AV-procd|sdf|10758|dock10
  -GOLD-   2272015193D 1   1.00000     0.00000
 Structure written by MMmdl.
 36 37  0  0  0  0  0  0  0  0  2 V2000
  149.0239  138.6785  153.2056 O   0  0  0  0  0  0  0  0  0  0  0  0
  148.3632  139.7016  153.9196 C   0  0  0  0  0  0  0  0  0  0  0  0
  149.3736  140.5354  154.7209 C   0  0  0  0  0  0  0  0  0  0  0  0
  149.1241  140.4873  156.2396 C   0  0  0  0  0  0  0  0  0  0  0  0
  150.0157  141.4044  157.0199 C   0  0  0  0  0  0  0  0  0  0  0  0
  150.1473  142.7535  156.8620 N   0  3  0  0  0  0  0  0  0  0  0  0
  151.0808  143.2498  157.7720 C   0  0  0  0  0  0  0  0  0  0  0  0
  151.5417  144.5447  157.9891 C   0  0  0  0  0  0  0  0  0  0  0  0
  152.5035  144.7117  159.0067 C   0  0  0  0  0  0  0  0  0  0  0  0
  152.9698  143.6166  159.7628 C   0  0  0  0  0  0  0  0  0  0  0  0
  152.4959  142.3082  159.5322 C   0  0  0  0  0  0  0  0  0  0  0  0
  151.5458  142.1509  158.5229 C   0  0  0  0  0  0  0  0  0  0  0  0
  150.8639  141.0346  158.0225 N   0  0  0  0  0  0  0  0  0  0  0  0
  151.1297  139.7015  158.5886 C   0  0  0  0  0  0  0  0  0  0  0  0
  152.5979  139.2587  158.4220 C   0  0  2  0  0  0  0  0  0  0  0  0
  153.0159  139.4795  157.0887 O   0  0  0  0  0  0  0  0  0  0  0  0
  152.8220  137.7787  158.7881 C   0  0  0  0  0  0  0  0  0  0  0  0
  152.4475  137.5558  160.0481 F   0  0  0  0  0  0  0  0  0  0  0  0
  152.0770  137.0082  157.9954 F   0  0  0  0  0  0  0  0  0  0  0  0
  154.1019  137.4371  158.6341 F   0  0  0  0  0  0  0  0  0  0  0  0
  149.1384  138.9607  152.3106 H   0  0  0  0  0  0  0  0  0  0  0  0
  147.8043  140.3290  153.2248 H   0  0  0  0  0  0  0  0  0  0  0  0
  147.6394  139.2411  154.5927 H   0  0  0  0  0  0  0  0  0  0  0  0
  150.3749  140.1568  154.5118 H   0  0  0  0  0  0  0  0  0  0  0  0
  149.3538  141.5679  154.3689 H   0  0  0  0  0  0  0  0  0  0  0  0
  148.0883  140.7520  156.4538 H   0  0  0  0  0  0  0  0  0  0  0  0
  149.2696  139.4705  156.6057 H   0  0  0  0  0  0  0  0  0  0  0  0
  151.1860  145.3855  157.4114 H   0  0  0  0  0  0  0  0  0  0  0  0
  152.8912  145.6991  159.2119 H   0  0  0  0  0  0  0  0  0  0  0  0
  153.7060  143.7828  160.5359 H   0  0  0  0  0  0  0  0  0  0  0  0
  152.8580  141.4787  160.1214 H   0  0  0  0  0  0  0  0  0  0  0  0
  150.8722  139.7448  159.6470 H   0  0  0  0  0  0  0  0  0  0  0  0
  150.4452  138.9789  158.1442 H   0  0  0  0  0  0  0  0  0  0  0  0
  153.2289  139.8746  159.0643 H   0  0  0  0  0  0  0  0  0  0  0  0
  152.3753  139.0985  156.5082 H   0  0  0  0  0  0  0  0  0  0  0  0
  149.6323  143.2934  156.1785 H   0  0  0  0  0  0  0  0  0  0  0  0
  1  2  1  0  0  0  0
  1 21  1  0  0  0  0
  2  3  1  0  0  0  0
  2 22  1  0  0  0  0
  2 23  1  0  0  0  0
  3  4  1  0  0  0  0
  3 24  1  0  0  0  0
  3 25  1  0  0  0  0
  4  5  1  0  0  0  0
  4 26  1  0  0  0  0
  4 27  1  0  0  0  0
  5 13  1  0  0  0  0
  5  6  2  0  0  0  0
  6  7  1  0  0  0  0
  6 36  1  0  0  0  0
  7 12  2  0  0  0  0
  7  8  1  0  0  0  0
  8  9  2  0  0  0  0
  8 28  1  0  0  0  0
  9 10  1  0  0  0  0
  9 29  1  0  0  0  0
 10 11  2  0  0  0  0
 10 30  1  0  0  0  0
 11 12  1  0  0  0  0
 11 31  1  0  0  0  0
 12 13  1  0  0  0  0
 13 14  1  0  0  0  0
 14 15  1  0  0  0  0
 14 32  1  0  0  0  0
 14 33  1  0  0  0  0
 15 16  1  0  0  0  0
 15 17  1  0  0  0  0
 15 34  1  0  0  0  0
 16 35  1  0  0  0  0
 17 18  1  0  0  0  0
 17 19  1  0  0  0  0
 17 20  1  0  0  0  0
M  CHG  1   6   1
M  END
> <s_m_source_file>
AV-unprocessed.smi

> <i_m_source_file_index>
2787

> <i_lp_mmshare_version>
43012

> <i_f3d_flags>
0

> <s_epik_input>
W09IXVtDSDJdW0NIMl1bQ0gyXWMobjEpbihbQ0gyXVtDQEhdKFtPSF0pQyhGKShGKUYpYyhjMTIpW2NIXVtjSF1bY0hdW2NIXTI=

> <s_epik_cmdline>
J2VwaWtfcHl0aG9uJywgJy1waCcsICc3LjAnLCAnLXRuJywgJzgnLCAnLW1hJywgJzIwMCcsICctbWV0YWxfYmluZGluZycsICctaW1hZScsICc8aW5maWxlLm1hZT4nLCAnLW9tYWUnLCAnPG91dGZpbGUubWFlPic=

> <r_epik_Ionization_Penalty>
0.964009

> <r_epik_Ionization_Penalty_Charging>
0.952215

> <r_epik_Ionization_Penalty_Neutral>
0.0117938

> <r_epik_State_Penalty>
1.09527

> <r_epik_Charging_Adjusted_Penalty>
2.04749

> <i_epik_Tot_Q>
1

> <i_epik_Tot_abs_Q>
1

> <r_epik_Metal_State_Penalty>
5.08046

> <b_epik_Metal_Only>
0

> <s_lp_Force_Field>
OPLS_2005

> <r_lp_Energy>
17.2873

> <b_lp_Chiralities_Consistent>
1

> <s_lp_Variant>
AV-unprocessed.smi:2787-3

> <Gold.Version>
5.8.1

> <Gold.Id.Protein>
6NUR|6NUR_protein|mol2

> <Gold.PLP.Fitness>
51.5365

> <Gold.PLP.PLP>
-40.4250

> <Gold.PLP.part.hbond>
-3.9123

> <Gold.PLP.part.metal>
0.0000

> <Gold.PLP.part.buried>
-4.9406

> <Gold.PLP.part.nonpolar>
-32.2741

> <Gold.PLP.part.repulsive>
0.0274

> <Gold.PLP.ligand.clash>
0.0000

> <Gold.PLP.ligand.torsion>
0.4583

> <Gold.PLP.Chemscore.Hbond>
4.0000

> <Gold.PLP.Chemscore.CHOScore>
0.0000

> <Gold.PLP.Chemscore.Metal>
0.0000

> <Gold.Chemscore.Hbonds>
donor molecule, donor type, donor heavy atom, donor atom, acceptor molecule, acceptor atom, score
      L1  H     1    21       P1  7957  1.00
      L1  H     6    36       P1  8028  2.00
      P1  H  7997  8009       L1    16  1.00

> <Gold.PLP.Chemscore.Internal.Correction>
0.0280

> <Gold.Rescore>
     Score         DG    S(hbond)    S(metal)    S(lipo)     H(rot)  DE(clash)    DE(int)     intcor
     17.79     -18.30       2.97        0.00     101.59       3.51       0.06       0.45       ----

> <Gold.Chemscore.Fitness>
17.7946

> <Gold.Chemscore.DG>
-18.2989

> <Gold.Chemscore.ZeroCoef>
-5.4800

> <Gold.Chemscore.Hbond>
2.9728

> <Gold.Chemscore.Metal>
0.0000

> <Gold.Chemscore.Lipo>
101.5942

> <Gold.Chemscore.Internal_Hbond>
0.0000

> <Gold.Chemscore.DEClash>
0.0588

> <Gold.Chemscore.DEInternal>
0.4454

> <Gold.Chemscore.Rot>
3.5143

> <Gold.Chemscore.Internal.Correction>
   9.000000E+99

> <Gold.Chemscore.Hbonds>
donor molecule, donor type, donor heavy atom, donor atom, acceptor molecule, acceptor atom, score
      L1  H     1    21       P1  7957  0.92
      L1  H     6    36       P1  8028  0.96
      P1  H  7997  8009       L1    16  0.88

> <Gold.Chemscore.Hbond.Weighted>
-9.9291

> <Gold.Chemscore.Metal.Weighted>
-0.0000

> <Gold.Chemscore.Lipo.Weighted>
-11.8865

> <Gold.Chemscore.Internal_Hbond.Weighted>
0.0000

> <Gold.Chemscore.DEClash.Weighted>
0.0588

> <Gold.Chemscore.DEInternal.Weighted>
0.4454

> <Gold.Chemscore.Rot.Weighted>
8.9967

> <Gold.Chemscore.Internal.Correction.Weighted>
   9.000000E+99

> <Gold.Protein.RotatedTorsions>
[ 6907 6896 6895 6894 ] final   23.57 input  -60.11 | X-H torsion
[ 7974 7965 7964 7962 ] final -110.46 input  175.53 | X-H torsion
[ 8008 7997 7996 7995 ] final -163.62 input   59.86 | X-H torsion
[ 10167 10162 10161 10158 ] final  -54.85 input  -65.29 | X-H torsion
[ 10718 10713 10712 10709 ] final   30.63 input   66.30 | X-H torsion
[ 10763 10752 10751 10750 ] final  -30.20 input  -60.55 | X-H torsion
[ 11005 11000 10999 10996 ] final  167.84 input  -57.11 | X-H torsion

> <Gold.Protein.ActiveResidues>
 VAL166  LYS551  ARG553  GLY616  TRP617  ASP618  TYR619  PRO620  LYS621  CYS622 
 ASP623  PHE694  ASN695  SER759  ASP760  ASP761  ALA762  ILE779  LEU786  VAL792 
 PHE793  MET794  SER795  GLU796  ALA797  LYS798  CYS799  TRP800  GLU811  SER814 

> <Gold.Protein.RotatedAtoms>
  151.9444  135.0198  160.0537 H   0  0  0  0  0  0  0  0  0  0  0  0  # atno 6907 bound_to 6896
  152.2008  133.4835  159.5066 H   0  0  0  0  0  0  0  0  0  0  0  0  # atno 6908 bound_to 6896
  150.6954  134.1510  159.4183 H   0  0  0  0  0  0  0  0  0  0  0  0  # atno 6909 bound_to 6896
  145.1680  140.8912  143.3552 H   0  0  0  0  0  0  0  0  0  0  0  0  # atno 7974 bound_to 7965
  155.8239  140.0923  157.1833 H   0  0  0  0  0  0  0  0  0  0  0  0  # atno 8008 bound_to 7997
  154.3979  140.1431  156.3593 H   0  0  0  0  0  0  0  0  0  0  0  0  # atno 8009 bound_to 7997
  155.8237  140.3445  155.5532 H   0  0  0  0  0  0  0  0  0  0  0  0  # atno 8010 bound_to 7997
  140.6408  143.2506  151.4995 H   0  0  0  0  0  0  0  0  0  0  0  0  # atno 10167 bound_to 10162
  157.2621  130.7166  149.6459 H   0  0  0  0  0  0  0  0  0  0  0  0  # atno 10718 bound_to 10713
  153.7770  135.6908  153.4895 H   0  0  0  0  0  0  0  0  0  0  0  0  # atno 10763 bound_to 10752
  153.1836  135.4497  155.0059 H   0  0  0  0  0  0  0  0  0  0  0  0  # atno 10764 bound_to 10752
  154.8096  135.3372  154.7276 H   0  0  0  0  0  0  0  0  0  0  0  0  # atno 10765 bound_to 10752
  140.2810  134.7750  157.3758 H   0  0  0  0  0  0  0  0  0  0  0  0  # atno 11005 bound_to 11000
  145.0262  139.3381  143.6047 LP  0  0  0  0  0  0  0  0  0  0  0  0  # atno 17320 bound_to 7965
  146.3473  139.9582  142.8720 LP  0  0  0  0  0  0  0  0  0  0  0  0  # atno 17321 bound_to 7965
  139.5617  144.2140  152.1701 LP  0  0  0  0  0  0  0  0  0  0  0  0  # atno 17342 bound_to 10162
  140.1410  144.5202  150.6744 LP  0  0  0  0  0  0  0  0  0  0  0  0  # atno 17343 bound_to 10162
  155.9664  130.4394  150.5258 LP  0  0  0  0  0  0  0  0  0  0  0  0  # atno 17370 bound_to 10713
  157.3164  131.0673  151.1963 LP  0  0  0  0  0  0  0  0  0  0  0  0  # atno 17371 bound_to 10713
  140.1283  134.5128  155.8126 LP  0  0  0  0  0  0  0  0  0  0  0  0  # atno 17394 bound_to 11000
  141.2162  133.6781  156.6993 LP  0  0  0  0  0  0  0  0  0  0  0  0  # atno 17395 bound_to 11000

$$$$
