AV-unprocessed.smi:3187|AV-procd|sdf|12182|dock5
  -GOLD-   2272018 23D 1   1.00000     0.00000
 Structure written by MMmdl.
 42 43  0  0  0  0  0  0  0  0  3 V2000
  151.1059  133.1159  155.8327 C   0  0  0  0  0  0  0  0  0  0  0  0
  150.9799  132.0014  154.8080 C   0  0  0  0  0  0  0  0  0  0  0  0
  151.9802  131.1217  154.6053 C   0  0  0  0  0  0  0  0  0  0  0  0
  151.9222  129.9558  153.6356 C   0  0  0  0  0  0  0  0  0  0  0  0
  150.6785  129.9886  152.7332 C   0  0  0  0  0  0  0  0  0  0  0  0
  149.4369  130.4760  153.5013 C   0  0  2  0  0  0  0  0  0  0  0  0
  148.1469  130.2682  152.6902 C   0  0  0  0  0  0  0  0  0  0  0  0
  149.6457  131.9163  154.0620 C   0  0  2  0  0  0  0  0  0  0  0  0
  149.5602  133.0435  153.0006 C   0  0  0  0  0  0  0  0  0  0  0  0
  148.4605  133.9915  153.2716 N   0  3  0  0  0  0  0  0  0  0  0  0
  147.1455  133.5510  152.7666 C   0  0  0  0  0  0  0  0  0  0  0  0
  147.1196  133.5390  151.2316 C   0  0  0  0  0  0  0  0  0  0  0  0
  145.8032  133.1637  150.7096 N   0  0  0  0  0  0  0  0  0  0  0  0
  145.5189  132.1608  149.8180 C   0  0  0  0  0  0  0  0  0  0  0  0
  144.1613  132.1822  149.6254 C   0  0  0  0  0  0  0  0  0  0  0  0
  143.6748  133.1967  150.4062 N   0  3  0  0  0  0  0  0  0  0  0  0
  144.6747  133.7927  151.0646 C   0  0  0  0  0  0  0  0  0  0  0  0
  150.3146  133.0347  156.5782 H   0  0  0  0  0  0  0  0  0  0  0  0
  151.0372  134.0969  155.3647 H   0  0  0  0  0  0  0  0  0  0  0  0
  152.0620  133.0661  156.3550 H   0  0  0  0  0  0  0  0  0  0  0  0
  152.8930  131.2092  155.1768 H   0  0  0  0  0  0  0  0  0  0  0  0
  152.8273  129.9421  153.0278 H   0  0  0  0  0  0  0  0  0  0  0  0
  151.9251  129.0388  154.2256 H   0  0  0  0  0  0  0  0  0  0  0  0
  150.8642  130.6366  151.8767 H   0  0  0  0  0  0  0  0  0  0  0  0
  150.5078  128.9923  152.3234 H   0  0  0  0  0  0  0  0  0  0  0  0
  149.3376  129.8229  154.3704 H   0  0  0  0  0  0  0  0  0  0  0  0
  148.1872  130.7743  151.7258 H   0  0  0  0  0  0  0  0  0  0  0  0
  147.2743  130.6304  153.2342 H   0  0  0  0  0  0  0  0  0  0  0  0
  147.9860  129.2087  152.4883 H   0  0  0  0  0  0  0  0  0  0  0  0
  148.8674  132.0915  154.8066 H   0  0  0  0  0  0  0  0  0  0  0  0
  150.4800  133.6270  152.9827 H   0  0  0  0  0  0  0  0  0  0  0  0
  149.4486  132.6226  152.0016 H   0  0  0  0  0  0  0  0  0  0  0  0
  148.3932  134.1155  154.2719 H   0  0  0  0  0  0  0  0  0  0  0  0
  146.9251  132.5552  153.1541 H   0  0  0  0  0  0  0  0  0  0  0  0
  146.3748  134.2234  153.1463 H   0  0  0  0  0  0  0  0  0  0  0  0
  147.3650  134.5253  150.8347 H   0  0  0  0  0  0  0  0  0  0  0  0
  147.8574  132.8399  150.8347 H   0  0  0  0  0  0  0  0  0  0  0  0
  146.2821  131.5210  149.3978 H   0  0  0  0  0  0  0  0  0  0  0  0
  143.5222  131.5674  149.0080 H   0  0  0  0  0  0  0  0  0  0  0  0
  144.5851  134.6185  151.7483 H   0  0  0  0  0  0  0  0  0  0  0  0
  148.6934  134.8805  152.8519 H   0  0  0  0  0  0  0  0  0  0  0  0
  142.6989  133.4577  150.4783 H   0  0  0  0  0  0  0  0  0  0  0  0
  1  2  1  0  0  0  0
  1 18  1  0  0  0  0
  1 19  1  0  0  0  0
  1 20  1  0  0  0  0
  2  8  1  0  0  0  0
  2  3  2  0  0  0  0
  3  4  1  0  0  0  0
  3 21  1  0  0  0  0
  4  5  1  0  0  0  0
  4 22  1  0  0  0  0
  4 23  1  0  0  0  0
  5  6  1  0  0  0  0
  5 24  1  0  0  0  0
  5 25  1  0  0  0  0
  6  7  1  0  0  0  0
  6  8  1  0  0  0  0
  6 26  1  0  0  0  0
  7 27  1  0  0  0  0
  7 28  1  0  0  0  0
  7 29  1  0  0  0  0
  8  9  1  0  0  0  0
  8 30  1  0  0  0  0
  9 10  1  0  0  0  0
  9 31  1  0  0  0  0
  9 32  1  0  0  0  0
 10 11  1  0  0  0  0
 10 33  1  0  0  0  0
 10 41  1  0  0  0  0
 11 12  1  0  0  0  0
 11 34  1  0  0  0  0
 11 35  1  0  0  0  0
 12 13  1  0  0  0  0
 12 36  1  0  0  0  0
 12 37  1  0  0  0  0
 13 17  1  0  0  0  0
 13 14  1  0  0  0  0
 14 15  2  0  0  0  0
 14 38  1  0  0  0  0
 15 16  1  0  0  0  0
 15 39  1  0  0  0  0
 16 17  2  0  0  0  0
 16 42  1  0  0  0  0
 17 40  1  0  0  0  0
M  CHG  1  10   1
M  CHG  1  16   1
M  END
> <s_m_source_file>
AV-unprocessed.smi

> <i_m_source_file_index>
3187

> <i_lp_mmshare_version>
43012

> <i_f3d_flags>
0

> <s_epik_input>
W0NIM11DMT1bQ0hdW0NIMl1bQ0gyXVtDQEBIXShbQ0gzXSlbQ0BIXTFbQ0gyXVtOSF1bQ0gyXVtDSDJdbjJbY0hdW2NIXW5bY0hdMg==

> <s_epik_cmdline>
J2VwaWtfcHl0aG9uJywgJy1waCcsICc3LjAnLCAnLXRuJywgJzgnLCAnLW1hJywgJzIwMCcsICctbWV0YWxfYmluZGluZycsICctaW1hZScsICc8aW5maWxlLm1hZT4nLCAnLW9tYWUnLCAnPG91dGZpbGUubWFlPic=

> <r_lp_tautomer_probability>
1

> <r_epik_Ionization_Penalty>
1.51066

> <r_epik_Ionization_Penalty_Charging>
0.0026721

> <r_epik_Ionization_Penalty_Neutral>
1.50798

> <r_epik_State_Penalty>
1.12593

> <r_epik_Charging_Adjusted_Penalty>
1.12861

> <i_epik_Tot_Q>
2

> <i_epik_Tot_abs_Q>
2

> <r_epik_Metal_State_Penalty>
5.12155

> <b_epik_Metal_Only>
0

> <s_lp_Force_Field>
OPLS_2005

> <r_lp_Energy>
26.0631

> <b_lp_Chiralities_Consistent>
1

> <s_lp_Variant>
AV-unprocessed.smi:3187-8

> <Gold.Version>
5.8.1

> <Gold.Id.Protein>
6NUR|6NUR_protein|mol2

> <Gold.PLP.Fitness>
46.7578

> <Gold.PLP.PLP>
-34.5613

> <Gold.PLP.part.hbond>
-1.9642

> <Gold.PLP.part.metal>
0.0000

> <Gold.PLP.part.buried>
-3.3682

> <Gold.PLP.part.nonpolar>
-27.9262

> <Gold.PLP.part.repulsive>
0.0465

> <Gold.PLP.ligand.clash>
0.0000

> <Gold.PLP.ligand.torsion>
0.9277

> <Gold.PLP.Chemscore.Hbond>
4.0000

> <Gold.PLP.Chemscore.CHOScore>
0.6548

> <Gold.PLP.Chemscore.Metal>
0.0000

> <Gold.Chemscore.Hbonds>
donor molecule, donor type, donor heavy atom, donor atom, acceptor molecule, acceptor atom, score
      L1  H    10    41       P1  7948  2.00
      L1  H    16    42       P1 10186  1.31
      L1  C    14    38       P1 10747  0.11

> <Gold.PLP.Chemscore.Internal.Correction>
0.0877

> <Gold.Rescore>
     Score         DG    S(hbond)    S(metal)    S(lipo)     H(rot)  DE(clash)    DE(int)     intcor
     14.97     -15.93       1.90        0.00      78.12       1.97       0.04       0.92       ----

> <Gold.Chemscore.Fitness>
14.9659

> <Gold.Chemscore.DG>
-15.9270

> <Gold.Chemscore.ZeroCoef>
-5.4800

> <Gold.Chemscore.Hbond>
1.9037

> <Gold.Chemscore.Metal>
0.0000

> <Gold.Chemscore.Lipo>
78.1202

> <Gold.Chemscore.Internal_Hbond>
0.0000

> <Gold.Chemscore.DEClash>
0.0422

> <Gold.Chemscore.DEInternal>
0.9190

> <Gold.Chemscore.Rot>
1.9732

> <Gold.Chemscore.Internal.Correction>
   9.000000E+99

> <Gold.Chemscore.Hbonds>
donor molecule, donor type, donor heavy atom, donor atom, acceptor molecule, acceptor atom, score
      L1  H    10    41       P1  7948  0.26
      L1  H    16    42       P1 10186  0.63

> <Gold.Chemscore.Hbond.Weighted>
-6.3583

> <Gold.Chemscore.Metal.Weighted>
-0.0000

> <Gold.Chemscore.Lipo.Weighted>
-9.1401

> <Gold.Chemscore.Internal_Hbond.Weighted>
0.0000

> <Gold.Chemscore.DEClash.Weighted>
0.0422

> <Gold.Chemscore.DEInternal.Weighted>
0.9190

> <Gold.Chemscore.Rot.Weighted>
5.0514

> <Gold.Chemscore.Internal.Correction.Weighted>
   9.000000E+99

> <Gold.Protein.RotatedTorsions>
[ 6907 6896 6895 6894 ] final -122.79 input  -60.11 | X-H torsion
[ 7974 7965 7964 7962 ] final  149.06 input  175.53 | X-H torsion
[ 8008 7997 7996 7995 ] final   83.54 input   59.86 | X-H torsion
[ 10167 10162 10161 10158 ] final   46.25 input  -65.29 | X-H torsion
[ 10718 10713 10712 10709 ] final   -9.92 input   66.30 | X-H torsion
[ 10763 10752 10751 10750 ] final  157.70 input  -60.55 | X-H torsion
[ 11005 11000 10999 10996 ] final   -7.90 input  -57.11 | X-H torsion

> <Gold.Protein.ActiveResidues>
 VAL166  LYS551  ARG553  GLY616  TRP617  ASP618  TYR619  PRO620  LYS621  CYS622 
 ASP623  PHE694  ASN695  SER759  ASP760  ASP761  ALA762  ILE779  LEU786  VAL792 
 PHE793  MET794  SER795  GLU796  ALA797  LYS798  CYS799  TRP800  GLU811  SER814 

> <Gold.Protein.RotatedAtoms>
  150.8609  133.7645  159.2992 H   0  0  0  0  0  0  0  0  0  0  0  0  # atno 6907 bound_to 6896
  151.5288  135.1066  159.9907 H   0  0  0  0  0  0  0  0  0  0  0  0  # atno 6908 bound_to 6896
  152.4625  133.7809  159.6906 H   0  0  0  0  0  0  0  0  0  0  0  0  # atno 6909 bound_to 6896
  144.8467  139.6232  143.5992 H   0  0  0  0  0  0  0  0  0  0  0  0  # atno 7974 bound_to 7965
  155.9253  140.3418  155.6205 H   0  0  0  0  0  0  0  0  0  0  0  0  # atno 8008 bound_to 7997
  155.7224  140.0785  157.2343 H   0  0  0  0  0  0  0  0  0  0  0  0  # atno 8009 bound_to 7997
  154.4076  140.1603  156.2404 H   0  0  0  0  0  0  0  0  0  0  0  0  # atno 8010 bound_to 7997
  140.3159  144.2764  150.6191 H   0  0  0  0  0  0  0  0  0  0  0  0  # atno 10167 bound_to 10162
  156.6810  130.5037  149.5971 H   0  0  0  0  0  0  0  0  0  0  0  0  # atno 10718 bound_to 10713
  154.2044  135.2789  155.2980 H   0  0  0  0  0  0  0  0  0  0  0  0  # atno 10763 bound_to 10752
  154.5828  135.5584  153.7205 H   0  0  0  0  0  0  0  0  0  0  0  0  # atno 10764 bound_to 10752
  153.0079  135.6349  154.2183 H   0  0  0  0  0  0  0  0  0  0  0  0  # atno 10765 bound_to 10752
  140.7177  133.8855  155.8797 H   0  0  0  0  0  0  0  0  0  0  0  0  # atno 11005 bound_to 11000
  146.2750  139.6729  142.9269 LP  0  0  0  0  0  0  0  0  0  0  0  0  # atno 17320 bound_to 7965
  145.4583  141.0431  143.2766 LP  0  0  0  0  0  0  0  0  0  0  0  0  # atno 17321 bound_to 7965
  140.5527  143.2204  151.7900 LP  0  0  0  0  0  0  0  0  0  0  0  0  # atno 17342 bound_to 10162
  139.4884  144.4455  151.9715 LP  0  0  0  0  0  0  0  0  0  0  0  0  # atno 17343 bound_to 10162
  156.1868  130.6534  151.1015 LP  0  0  0  0  0  0  0  0  0  0  0  0  # atno 17370 bound_to 10713
  157.7044  131.0763  150.6717 LP  0  0  0  0  0  0  0  0  0  0  0  0  # atno 17371 bound_to 10713
  141.0030  134.1124  157.4298 LP  0  0  0  0  0  0  0  0  0  0  0  0  # atno 17394 bound_to 11000
  139.8856  135.0073  156.6443 LP  0  0  0  0  0  0  0  0  0  0  0  0  # atno 17395 bound_to 11000

$$$$
