AV-unprocessed.smi:3303|AV-procd|sdf|12691|dock9
  -GOLD-   2272019 23D 1   1.00000     0.00000
 Structure written by MMmdl.
 44 45  0  0  0  0  0  0  0  0  2 V2000
  150.3375  136.2096  155.1804 C   0  0  0  0  0  0  0  0  0  0  0  0
  149.4911  137.2735  155.9105 C   0  0  2  0  0  0  0  0  0  0  0  0
  148.0168  137.2155  155.4604 C   0  0  0  0  0  0  0  0  0  0  0  0
  147.8438  137.7416  154.0813 N   0  3  1  0  0  0  0  0  0  0  0  0
  146.4884  137.4965  153.5391 C   0  0  0  0  0  0  0  0  0  0  0  0
  148.3260  139.1427  153.9116 C   0  0  1  0  0  0  0  0  0  0  0  0
  147.4338  140.1934  154.6075 C   0  0  0  0  0  0  0  0  0  0  0  0
  149.8027  139.2513  154.3424 C   0  0  0  0  0  0  0  0  0  0  0  0
  150.0288  138.7226  155.7714 C   0  0  2  0  0  0  0  0  0  0  0  0
  151.4467  138.8417  156.0950 N   0  0  0  0  0  0  0  0  0  0  0  0
  151.8443  140.2233  156.3251 C   0  0  0  0  0  0  0  0  0  0  0  0
  151.4806  140.6310  157.7589 C   0  0  0  0  0  0  0  0  0  0  0  0
  151.8584  142.0702  158.0537 C   0  0  0  0  0  0  0  0  0  0  0  0
  152.7873  142.3767  159.0713 C   0  0  0  0  0  0  0  0  0  0  0  0
  153.0964  143.7292  159.3122 C   0  0  0  0  0  0  0  0  0  0  0  0
  152.4672  144.7182  158.5319 C   0  0  0  0  0  0  0  0  0  0  0  0
  151.5530  144.3087  157.5407 C   0  0  0  0  0  0  0  0  0  0  0  0
  151.2490  143.0145  157.3016 N   0  0  0  0  0  0  0  0  0  0  0  0
  150.3789  136.3851  154.1059 H   0  0  0  0  0  0  0  0  0  0  0  0
  149.9233  135.2127  155.3327 H   0  0  0  0  0  0  0  0  0  0  0  0
  151.3622  136.1878  155.5524 H   0  0  0  0  0  0  0  0  0  0  0  0
  149.4996  137.0063  156.9672 H   0  0  0  0  0  0  0  0  0  0  0  0
  147.6615  136.1850  155.5042 H   0  0  0  0  0  0  0  0  0  0  0  0
  147.3902  137.7799  156.1513 H   0  0  0  0  0  0  0  0  0  0  0  0
  145.7202  137.9663  154.1539 H   0  0  0  0  0  0  0  0  0  0  0  0
  146.2826  136.4263  153.5066 H   0  0  0  0  0  0  0  0  0  0  0  0
  146.4016  137.8807  152.5223 H   0  0  0  0  0  0  0  0  0  0  0  0
  148.2933  139.3604  152.8431 H   0  0  0  0  0  0  0  0  0  0  0  0
  147.8338  141.1964  154.4564 H   0  0  0  0  0  0  0  0  0  0  0  0
  147.3628  140.0337  155.6828 H   0  0  0  0  0  0  0  0  0  0  0  0
  146.4214  140.1959  154.2038 H   0  0  0  0  0  0  0  0  0  0  0  0
  150.4219  138.6930  153.6391 H   0  0  0  0  0  0  0  0  0  0  0  0
  150.1331  140.2884  154.2685 H   0  0  0  0  0  0  0  0  0  0  0  0
  149.4768  139.3690  156.4553 H   0  0  0  0  0  0  0  0  0  0  0  0
  151.9949  138.4709  155.3315 H   0  0  0  0  0  0  0  0  0  0  0  0
  152.9188  140.3288  156.1686 H   0  0  0  0  0  0  0  0  0  0  0  0
  151.3415  140.8855  155.6206 H   0  0  0  0  0  0  0  0  0  0  0  0
  150.4098  140.5022  157.9247 H   0  0  0  0  0  0  0  0  0  0  0  0
  151.9830  139.9798  158.4760 H   0  0  0  0  0  0  0  0  0  0  0  0
  153.2513  141.5958  159.6558 H   0  0  0  0  0  0  0  0  0  0  0  0
  153.8022  144.0028  160.0825 H   0  0  0  0  0  0  0  0  0  0  0  0
  152.6794  145.7653  158.6891 H   0  0  0  0  0  0  0  0  0  0  0  0
  151.0514  145.0400  156.9242 H   0  0  0  0  0  0  0  0  0  0  0  0
  148.4608  137.1837  153.5081 H   0  0  0  0  0  0  0  0  0  0  0  0
  1  2  1  0  0  0  0
  1 19  1  0  0  0  0
  1 20  1  0  0  0  0
  1 21  1  0  0  0  0
  2  9  1  0  0  0  0
  2  3  1  0  0  0  0
  2 22  1  0  0  0  0
  3  4  1  0  0  0  0
  3 23  1  0  0  0  0
  3 24  1  0  0  0  0
  4  5  1  0  0  0  0
  4  6  1  0  0  0  0
  4 44  1  0  0  0  0
  5 25  1  0  0  0  0
  5 26  1  0  0  0  0
  5 27  1  0  0  0  0
  6  7  1  0  0  0  0
  6  8  1  0  0  0  0
  6 28  1  0  0  0  0
  7 29  1  0  0  0  0
  7 30  1  0  0  0  0
  7 31  1  0  0  0  0
  8  9  1  0  0  0  0
  8 32  1  0  0  0  0
  8 33  1  0  0  0  0
  9 10  1  0  0  0  0
  9 34  1  0  0  0  0
 10 11  1  0  0  0  0
 10 35  1  0  0  0  0
 11 12  1  0  0  0  0
 11 36  1  0  0  0  0
 11 37  1  0  0  0  0
 12 13  1  0  0  0  0
 12 38  1  0  0  0  0
 12 39  1  0  0  0  0
 13 18  1  0  0  0  0
 13 14  2  0  0  0  0
 14 15  1  0  0  0  0
 14 40  1  0  0  0  0
 15 16  2  0  0  0  0
 15 41  1  0  0  0  0
 16 17  1  0  0  0  0
 16 42  1  0  0  0  0
 17 18  2  0  0  0  0
 17 43  1  0  0  0  0
M  CHG  1   4   1
M  END
> <s_m_source_file>
AV-unprocessed.smi

> <i_m_source_file_index>
3303

> <i_lp_mmshare_version>
43012

> <i_f3d_flags>
0

> <s_epik_input>
W0NIM11bQ0BASF0xW0NIMl1OKFtDSDNdKVtDQEBIXShbQ0gzXSlbQ0gyXVtDQEhdMVtOSF1bQ0gyXVtDSDJdYzJbY0hdW2NIXVtjSF1bY0hdbjI=

> <s_epik_cmdline>
J2VwaWtfcHl0aG9uJywgJy1waCcsICc3LjAnLCAnLXRuJywgJzgnLCAnLW1hJywgJzIwMCcsICctbWV0YWxfYmluZGluZycsICctaW1hZScsICc8aW5maWxlLm1hZT4nLCAnLW9tYWUnLCAnPG91dGZpbGUubWFlPic=

> <r_epik_Ionization_Penalty>
2.31085

> <r_epik_Ionization_Penalty_Charging>
0.000313057

> <r_epik_Ionization_Penalty_Neutral>
2.31054

> <r_epik_State_Penalty>
2.4087

> <r_epik_Charging_Adjusted_Penalty>
2.40902

> <i_epik_Tot_Q>
1

> <i_epik_Tot_abs_Q>
1

> <r_epik_Metal_State_Penalty>
2.30979

> <b_epik_Metal_Only>
0

> <s_lp_Force_Field>
OPLS_2005

> <r_lp_Energy>
26.3276

> <b_lp_Chiralities_Consistent>
1

> <s_lp_Variant>
AV-unprocessed.smi:3303-35

> <Gold.Version>
5.8.1

> <Gold.Id.Protein>
6NUR|6NUR_protein|mol2

> <Gold.PLP.Fitness>
40.3993

> <Gold.PLP.PLP>
-31.8915

> <Gold.PLP.part.hbond>
-1.0000

> <Gold.PLP.part.metal>
0.0000

> <Gold.PLP.part.buried>
-3.3701

> <Gold.PLP.part.nonpolar>
-27.6463

> <Gold.PLP.part.repulsive>
0.1126

> <Gold.PLP.ligand.clash>
0.0000

> <Gold.PLP.ligand.torsion>
0.2116

> <Gold.PLP.Chemscore.Hbond>
2.0000

> <Gold.PLP.Chemscore.CHOScore>
0.9729

> <Gold.PLP.Chemscore.Metal>
0.0000

> <Gold.Chemscore.Hbonds>
donor molecule, donor type, donor heavy atom, donor atom, acceptor molecule, acceptor atom, score
      L1  H     4    44       P1  7948  2.00
      L1  C    17    43       P1  8028  0.96

> <Gold.PLP.Chemscore.Internal.Correction>
0.0125

> <Gold.Rescore>
     Score         DG    S(hbond)    S(metal)    S(lipo)     H(rot)  DE(clash)    DE(int)     intcor
     17.33     -18.04       0.99        0.00     108.28       1.33       0.48       0.24       ----

> <Gold.Chemscore.Fitness>
17.3267

> <Gold.Chemscore.DG>
-18.0429

> <Gold.Chemscore.ZeroCoef>
-5.4800

> <Gold.Chemscore.Hbond>
0.9855

> <Gold.Chemscore.Metal>
0.0000

> <Gold.Chemscore.Lipo>
108.2808

> <Gold.Chemscore.Internal_Hbond>
0.0000

> <Gold.Chemscore.DEClash>
0.4811

> <Gold.Chemscore.DEInternal>
0.2351

> <Gold.Chemscore.Rot>
1.3272

> <Gold.Chemscore.Internal.Correction>
   9.000000E+99

> <Gold.Chemscore.Hbonds>
donor molecule, donor type, donor heavy atom, donor atom, acceptor molecule, acceptor atom, score
      L1  H     4    44       P1  7948  0.96

> <Gold.Chemscore.Hbond.Weighted>
-3.2917

> <Gold.Chemscore.Metal.Weighted>
-0.0000

> <Gold.Chemscore.Lipo.Weighted>
-12.6689

> <Gold.Chemscore.Internal_Hbond.Weighted>
0.0000

> <Gold.Chemscore.DEClash.Weighted>
0.4811

> <Gold.Chemscore.DEInternal.Weighted>
0.2351

> <Gold.Chemscore.Rot.Weighted>
3.3976

> <Gold.Chemscore.Internal.Correction.Weighted>
   9.000000E+99

> <Gold.Protein.RotatedTorsions>
[ 6907 6896 6895 6894 ] final  -54.23 input  -60.11 | X-H torsion
[ 7974 7965 7964 7962 ] final  -95.77 input  175.53 | X-H torsion
[ 8008 7997 7996 7995 ] final   53.87 input   59.86 | X-H torsion
[ 10167 10162 10161 10158 ] final   99.07 input  -65.29 | X-H torsion
[ 10718 10713 10712 10709 ] final    0.46 input   66.30 | X-H torsion
[ 10763 10752 10751 10750 ] final   88.22 input  -60.55 | X-H torsion
[ 11005 11000 10999 10996 ] final  -28.67 input  -57.11 | X-H torsion

> <Gold.Protein.ActiveResidues>
 VAL166  LYS551  ARG553  GLY616  TRP617  ASP618  TYR619  PRO620  LYS621  CYS622 
 ASP623  PHE694  ASN695  SER759  ASP760  ASP761  ALA762  ILE779  LEU786  VAL792 
 PHE793  MET794  SER795  GLU796  ALA797  LYS798  CYS799  TRP800  GLU811  SER814 

> <Gold.Protein.RotatedAtoms>
  150.8356  134.7628  159.6889 H   0  0  0  0  0  0  0  0  0  0  0  0  # atno 6907 bound_to 6896
  152.4453  134.5503  159.9874 H   0  0  0  0  0  0  0  0  0  0  0  0  # atno 6908 bound_to 6896
  151.5654  133.3359  159.3015 H   0  0  0  0  0  0  0  0  0  0  0  0  # atno 6909 bound_to 6896
  145.3557  140.9484  143.2529 H   0  0  0  0  0  0  0  0  0  0  0  0  # atno 7974 bound_to 7965
  155.4753  140.3466  155.4331 H   0  0  0  0  0  0  0  0  0  0  0  0  # atno 8008 bound_to 7997
  156.1074  140.1451  156.9414 H   0  0  0  0  0  0  0  0  0  0  0  0  # atno 8009 bound_to 7997
  154.4733  140.0893  156.7179 H   0  0  0  0  0  0  0  0  0  0  0  0  # atno 8010 bound_to 7997
  139.7651  144.6941  151.0237 H   0  0  0  0  0  0  0  0  0  0  0  0  # atno 10167 bound_to 10162
  156.8336  130.5497  149.5684 H   0  0  0  0  0  0  0  0  0  0  0  0  # atno 10718 bound_to 10713
  153.1747  135.4515  154.9949 H   0  0  0  0  0  0  0  0  0  0  0  0  # atno 10763 bound_to 10752
  154.7990  135.3248  154.7599 H   0  0  0  0  0  0  0  0  0  0  0  0  # atno 10764 bound_to 10752
  153.8071  135.6958  153.4901 H   0  0  0  0  0  0  0  0  0  0  0  0  # atno 10765 bound_to 10752
  140.9229  133.7387  156.0826 H   0  0  0  0  0  0  0  0  0  0  0  0  # atno 11005 bound_to 11000
  144.8684  139.5074  143.6779 LP  0  0  0  0  0  0  0  0  0  0  0  0  # atno 17320 bound_to 7965
  146.2949  139.7247  142.9134 LP  0  0  0  0  0  0  0  0  0  0  0  0  # atno 17321 bound_to 7965
  140.7810  143.4653  151.0221 LP  0  0  0  0  0  0  0  0  0  0  0  0  # atno 17342 bound_to 10162
  139.8338  143.7655  152.3180 LP  0  0  0  0  0  0  0  0  0  0  0  0  # atno 17343 bound_to 10162
  156.0920  130.5903  150.9749 LP  0  0  0  0  0  0  0  0  0  0  0  0  # atno 17370 bound_to 10713
  157.6393  131.0912  150.8284 LP  0  0  0  0  0  0  0  0  0  0  0  0  # atno 17371 bound_to 10713
  140.7965  134.3558  157.5451 LP  0  0  0  0  0  0  0  0  0  0  0  0  # atno 17394 bound_to 11000
  139.8779  134.9172  156.3172 LP  0  0  0  0  0  0  0  0  0  0  0  0  # atno 17395 bound_to 11000

$$$$
