AV-unprocessed.smi:767|AV-procd|sdf|3664|dock5
  -GOLD-   22720 1 73D 1   1.00000     0.00000
 Structure written by MMmdl.
 47 49  0  0  0  0  0  0  0  0  1 V2000
  146.2301  131.9178  148.9780 C   0  0  0  0  0  0  0  0  0  0  0  0
  145.7816  132.9687  149.9715 C   0  0  0  0  0  0  0  0  0  0  0  0
  146.5899  133.3054  151.0770 C   0  0  0  0  0  0  0  0  0  0  0  0
  146.1359  134.3030  151.9607 C   0  0  0  0  0  0  0  0  0  0  0  0
  144.8927  134.9199  151.7104 C   0  0  0  0  0  0  0  0  0  0  0  0
  144.3727  136.0253  152.6144 C   0  0  0  0  0  0  0  0  0  0  0  0
  145.2374  137.3018  152.6034 C   0  0  0  0  0  0  0  0  0  0  0  0
  146.5957  137.0579  153.0855 N   0  0  0  0  0  0  0  0  0  0  0  0
  147.1630  137.6649  154.1384 C   0  0  0  0  0  0  0  0  0  0  0  0
  146.5874  138.4807  154.8592 O   0  0  0  0  0  0  0  0  0  0  0  0
  148.4405  137.2983  154.3015 N   0  0  0  0  0  0  0  0  0  0  0  0
  149.3209  137.8688  155.3141 C   0  0  1  0  0  0  0  0  0  0  0  0
  150.7404  138.1129  154.8046 C   0  0  2  0  0  0  0  0  0  0  0  0
  152.0761  137.5406  155.1205 C   0  0  0  0  0  0  0  0  0  0  0  0
  152.8570  138.8762  155.2464 C   0  0  0  0  0  0  0  0  0  0  0  0
  151.8563  139.9235  155.2502 O   0  0  0  0  0  0  0  0  0  0  0  0
  150.7062  139.2864  155.7672 C   0  0  1  0  0  0  0  0  0  0  0  0
  149.2105  139.4366  155.4247 C   0  0  0  0  0  0  0  0  0  0  0  0
  148.8419  140.2682  154.1795 C   0  0  0  0  0  0  0  0  0  0  0  0
  148.3150  139.9434  156.5559 C   0  0  0  0  0  0  0  0  0  0  0  0
  144.1535  134.4966  150.5849 C   0  0  0  0  0  0  0  0  0  0  0  0
  144.5839  133.5451  149.7289 N   0  0  0  0  0  0  0  0  0  0  0  0
  147.3153  131.8110  148.9880 H   0  0  0  0  0  0  0  0  0  0  0  0
  145.9282  132.1860  147.9649 H   0  0  0  0  0  0  0  0  0  0  0  0
  145.7876  130.9528  149.2262 H   0  0  0  0  0  0  0  0  0  0  0  0
  147.5416  132.8210  151.2392 H   0  0  0  0  0  0  0  0  0  0  0  0
  146.7391  134.5942  152.8079 H   0  0  0  0  0  0  0  0  0  0  0  0
  143.3540  136.2709  152.3130 H   0  0  0  0  0  0  0  0  0  0  0  0
  144.3025  135.6457  153.6345 H   0  0  0  0  0  0  0  0  0  0  0  0
  145.2585  137.7265  151.5985 H   0  0  0  0  0  0  0  0  0  0  0  0
  144.7779  138.0593  153.2385 H   0  0  0  0  0  0  0  0  0  0  0  0
  147.1534  136.4017  152.5587 H   0  0  0  0  0  0  0  0  0  0  0  0
  148.8385  136.6217  153.6671 H   0  0  0  0  0  0  0  0  0  0  0  0
  149.2966  137.3470  156.2755 H   0  0  0  0  0  0  0  0  0  0  0  0
  150.7204  138.4146  153.7549 H   0  0  0  0  0  0  0  0  0  0  0  0
  152.0694  136.9801  156.0564 H   0  0  0  0  0  0  0  0  0  0  0  0
  152.4626  136.9030  154.3253 H   0  0  0  0  0  0  0  0  0  0  0  0
  153.4373  138.9002  156.1697 H   0  0  0  0  0  0  0  0  0  0  0  0
  153.5416  139.0290  154.4117 H   0  0  0  0  0  0  0  0  0  0  0  0
  150.8597  139.0054  156.8156 H   0  0  0  0  0  0  0  0  0  0  0  0
  148.9439  141.3360  154.3748 H   0  0  0  0  0  0  0  0  0  0  0  0
  147.8091  140.0926  153.8818 H   0  0  0  0  0  0  0  0  0  0  0  0
  149.4597  140.0558  153.3090 H   0  0  0  0  0  0  0  0  0  0  0  0
  148.4940  140.9976  156.7692 H   0  0  0  0  0  0  0  0  0  0  0  0
  148.4881  139.3931  157.4809 H   0  0  0  0  0  0  0  0  0  0  0  0
  147.2585  139.8311  156.3098 H   0  0  0  0  0  0  0  0  0  0  0  0
  143.1988  134.9461  150.3549 H   0  0  0  0  0  0  0  0  0  0  0  0
  1  2  1  0  0  0  0
  1 23  1  0  0  0  0
  1 24  1  0  0  0  0
  1 25  1  0  0  0  0
  2 22  1  0  0  0  0
  2  3  2  0  0  0  0
  3  4  1  0  0  0  0
  3 26  1  0  0  0  0
  4  5  2  0  0  0  0
  4 27  1  0  0  0  0
  5  6  1  0  0  0  0
  5 21  1  0  0  0  0
  6  7  1  0  0  0  0
  6 28  1  0  0  0  0
  6 29  1  0  0  0  0
  7  8  1  0  0  0  0
  7 30  1  0  0  0  0
  7 31  1  0  0  0  0
  8  9  1  0  0  0  0
  8 32  1  0  0  0  0
  9 10  2  0  0  0  0
  9 11  1  0  0  0  0
 11 12  1  0  0  0  0
 11 33  1  0  0  0  0
 12 18  1  0  0  0  0
 12 13  1  0  0  0  0
 12 34  1  0  0  0  0
 13 17  1  0  0  0  0
 13 14  1  0  0  0  0
 13 35  1  0  0  0  0
 14 15  1  0  0  0  0
 14 36  1  0  0  0  0
 14 37  1  0  0  0  0
 15 16  1  0  0  0  0
 15 38  1  0  0  0  0
 15 39  1  0  0  0  0
 16 17  1  0  0  0  0
 17 18  1  0  0  0  0
 17 40  1  0  0  0  0
 18 19  1  0  0  0  0
 18 20  1  0  0  0  0
 19 41  1  0  0  0  0
 19 42  1  0  0  0  0
 19 43  1  0  0  0  0
 20 44  1  0  0  0  0
 20 45  1  0  0  0  0
 20 46  1  0  0  0  0
 21 22  2  0  0  0  0
 21 47  1  0  0  0  0
M  END
> <s_m_source_file>
AV-unprocessed.smi

> <i_m_source_file_index>
767

> <i_lp_mmshare_version>
43012

> <i_f3d_flags>
0

> <s_epik_input>
W0NIM11jMVtjSF1bY0hdYyhbY0hdbjEpW0NIMl1bQ0gyXVtOSF1DKD1PKVtOSF1bQ0BIXTJDKFtDSDNdKShbQ0gzXSlbQ0BIXShbQ0BASF0yMylPW0NIMl1bQ0gyXTM=

> <s_epik_cmdline>
J2VwaWtfcHl0aG9uJywgJy1waCcsICc3LjAnLCAnLXRuJywgJzgnLCAnLW1hJywgJzIwMCcsICctbWV0YWxfYmluZGluZycsICctaW1hZScsICc8aW5maWxlLm1hZT4nLCAnLW9tYWUnLCAnPG91dGZpbGUubWFlPic=

> <r_epik_Ionization_Penalty>
0.0567523

> <r_epik_Ionization_Penalty_Charging>
0

> <r_epik_Ionization_Penalty_Neutral>
0.0567523

> <r_epik_State_Penalty>
0.0489186

> <r_epik_Charging_Adjusted_Penalty>
0.0489186

> <i_epik_Tot_Q>
0

> <i_epik_Tot_abs_Q>
0

> <r_epik_Metal_State_Penalty>
0.044622

> <b_epik_Metal_Only>
0

> <s_lp_Force_Field>
OPLS_2005

> <r_lp_Energy>
55.1366

> <b_lp_Chiralities_Consistent>
1

> <s_lp_Variant>
AV-unprocessed.smi:767-8

> <Gold.Version>
5.8.1

> <Gold.Id.Protein>
6NUR|6NUR_protein|mol2

> <Gold.PLP.Fitness>
44.6008

> <Gold.PLP.PLP>
-33.7919

> <Gold.PLP.part.hbond>
-2.9977

> <Gold.PLP.part.metal>
0.0000

> <Gold.PLP.part.buried>
-0.8026

> <Gold.PLP.part.nonpolar>
-30.1076

> <Gold.PLP.part.repulsive>
0.3720

> <Gold.PLP.ligand.clash>
0.0000

> <Gold.PLP.ligand.torsion>
0.2670

> <Gold.PLP.Chemscore.Hbond>
2.6880

> <Gold.PLP.Chemscore.CHOScore>
1.0000

> <Gold.PLP.Chemscore.Metal>
0.0000

> <Gold.Chemscore.Hbonds>
donor molecule, donor type, donor heavy atom, donor atom, acceptor molecule, acceptor atom, score
      L1  H     8    32       P1  7948  0.80
      L1  H    11    33       P1  7948  0.83
      P1  H  7989  7998       L1    16  0.91
      L1  C    21    47       P1 10186  1.00

> <Gold.PLP.Chemscore.Internal.Correction>
0.2788

> <Gold.Rescore>
     Score         DG    S(hbond)    S(metal)    S(lipo)     H(rot)  DE(clash)    DE(int)     intcor
     15.88     -22.42       2.53        0.00     104.30       1.45       3.25       3.29       ----

> <Gold.Chemscore.Fitness>
15.8840

> <Gold.Chemscore.DG>
-22.4189

> <Gold.Chemscore.ZeroCoef>
-5.4800

> <Gold.Chemscore.Hbond>
2.5292

> <Gold.Chemscore.Metal>
0.0000

> <Gold.Chemscore.Lipo>
104.2964

> <Gold.Chemscore.Internal_Hbond>
0.0000

> <Gold.Chemscore.DEClash>
3.2473

> <Gold.Chemscore.DEInternal>
3.2876

> <Gold.Chemscore.Rot>
1.4497

> <Gold.Chemscore.Internal.Correction>
   9.000000E+99

> <Gold.Chemscore.Hbonds>
donor molecule, donor type, donor heavy atom, donor atom, acceptor molecule, acceptor atom, score
      L1  H     8    32       P1  7948  0.79
      L1  H    11    33       P1  7948  0.83
      P1  H  7989  7998       L1    16  0.72

> <Gold.Chemscore.Hbond.Weighted>
-8.4475

> <Gold.Chemscore.Metal.Weighted>
-0.0000

> <Gold.Chemscore.Lipo.Weighted>
-12.2027

> <Gold.Chemscore.Internal_Hbond.Weighted>
0.0000

> <Gold.Chemscore.DEClash.Weighted>
3.2473

> <Gold.Chemscore.DEInternal.Weighted>
3.2876

> <Gold.Chemscore.Rot.Weighted>
3.7112

> <Gold.Chemscore.Internal.Correction.Weighted>
   9.000000E+99

> <Gold.Protein.RotatedTorsions>
[ 6907 6896 6895 6894 ] final -111.43 input  -60.11 | X-H torsion
[ 7974 7965 7964 7962 ] final -170.08 input  175.53 | X-H torsion
[ 8008 7997 7996 7995 ] final -147.92 input   59.86 | X-H torsion
[ 10167 10162 10161 10158 ] final -147.76 input  -65.29 | X-H torsion
[ 10718 10713 10712 10709 ] final   97.37 input   66.30 | X-H torsion
[ 10763 10752 10751 10750 ] final   97.11 input  -60.55 | X-H torsion
[ 11005 11000 10999 10996 ] final  -35.56 input  -57.11 | X-H torsion

> <Gold.Protein.ActiveResidues>
 VAL166  LYS551  ARG553  GLY616  TRP617  ASP618  TYR619  PRO620  LYS621  CYS622 
 ASP623  PHE694  ASN695  SER759  ASP760  ASP761  ALA762  ILE779  LEU786  VAL792 
 PHE793  MET794  SER795  GLU796  ALA797  LYS798  CYS799  TRP800  GLU811  SER814 

> <Gold.Protein.RotatedAtoms>
  150.7690  133.9236  159.3405 H   0  0  0  0  0  0  0  0  0  0  0  0  # atno 6907 bound_to 6896
  151.7127  135.0907  160.0280 H   0  0  0  0  0  0  0  0  0  0  0  0  # atno 6908 bound_to 6896
  152.3699  133.6367  159.6115 H   0  0  0  0  0  0  0  0  0  0  0  0  # atno 6909 bound_to 6896
  144.7175  140.2125  143.6326 H   0  0  0  0  0  0  0  0  0  0  0  0  # atno 7974 bound_to 7965
  155.5832  140.0645  157.2778 H   0  0  0  0  0  0  0  0  0  0  0  0  # atno 8008 bound_to 7997
  154.4326  140.1848  156.1045 H   0  0  0  0  0  0  0  0  0  0  0  0  # atno 8009 bound_to 7997
  156.0289  140.3308  155.7121 H   0  0  0  0  0  0  0  0  0  0  0  0  # atno 8010 bound_to 7997
  139.7593  143.8401  152.2604 H   0  0  0  0  0  0  0  0  0  0  0  0  # atno 10167 bound_to 10162
  157.6913  131.0607  150.4633 H   0  0  0  0  0  0  0  0  0  0  0  0  # atno 10718 bound_to 10713
  153.2730  135.4195  155.1006 H   0  0  0  0  0  0  0  0  0  0  0  0  # atno 10763 bound_to 10752
  154.8462  135.3476  154.6218 H   0  0  0  0  0  0  0  0  0  0  0  0  # atno 10764 bound_to 10752
  153.6638  135.7047  153.5226 H   0  0  0  0  0  0  0  0  0  0  0  0  # atno 10765 bound_to 10752
  140.9805  133.7059  156.1676 H   0  0  0  0  0  0  0  0  0  0  0  0  # atno 11005 bound_to 11000
  145.8577  139.2207  143.1735 LP  0  0  0  0  0  0  0  0  0  0  0  0  # atno 17320 bound_to 7965
  146.0202  140.8355  142.9927 LP  0  0  0  0  0  0  0  0  0  0  0  0  # atno 17321 bound_to 7965
  139.8402  144.7213  150.9340 LP  0  0  0  0  0  0  0  0  0  0  0  0  # atno 17342 bound_to 10162
  140.7805  143.3990  151.1181 LP  0  0  0  0  0  0  0  0  0  0  0  0  # atno 17343 bound_to 10162
  156.4976  130.4109  149.6371 LP  0  0  0  0  0  0  0  0  0  0  0  0  # atno 17370 bound_to 10713
  156.3358  130.7356  151.2293 LP  0  0  0  0  0  0  0  0  0  0  0  0  # atno 17371 bound_to 10713
  140.7193  134.4376  157.5576 LP  0  0  0  0  0  0  0  0  0  0  0  0  # atno 17394 bound_to 11000
  139.8948  134.8697  156.2159 LP  0  0  0  0  0  0  0  0  0  0  0  0  # atno 17395 bound_to 11000

$$$$
