AV-unprocessed.smi:2976|AV-procd|sdf|11363|dock6
  -GOLD-   2272016283D 1   1.00000     0.00000
 Structure written by MMmdl.
 40 41  0  0  0  0  0  0  0  0  1 V2000
  152.0688  144.6691  157.7982 C   0  0  0  0  0  0  0  0  0  0  0  0
  151.0784  144.0253  158.7902 C   0  0  2  0  0  0  0  0  0  0  0  0
  151.1011  144.7366  160.1581 C   0  0  0  0  0  0  0  0  0  0  0  0
  152.3753  144.4192  160.9551 C   0  0  0  0  0  0  0  0  0  0  0  0
  152.5511  142.9053  161.1351 C   0  0  0  0  0  0  0  0  0  0  0  0
  152.5395  142.1568  159.7878 C   0  0  1  0  0  0  0  0  0  0  0  0
  152.6258  140.7217  160.0580 N   0  0  0  0  0  0  0  0  0  0  0  0
  152.9933  139.7727  159.1827 C   0  0  0  0  0  0  0  0  0  0  0  0
  153.2903  140.0090  158.0108 O   0  0  0  0  0  0  0  0  0  0  0  0
  152.9980  138.3357  159.7247 C   0  0  0  0  0  0  0  0  0  0  0  0
  153.8573  138.1525  160.9037 N   0  0  0  0  0  0  0  0  0  0  0  0
  154.2950  139.3367  161.4705 N   0  0  0  0  0  0  0  0  0  0  0  0
  155.0453  139.2997  162.5172 C   0  0  0  0  0  0  0  0  0  0  0  0
  155.4554  138.0545  163.1273 C   0  0  0  0  0  0  0  0  0  0  0  0
  156.4642  138.0679  164.5308 Cl  0  0  0  0  0  0  0  0  0  0  0  0
  155.0235  136.8991  162.5620 C   0  0  0  0  0  0  0  0  0  0  0  0
  155.4719  135.3698  163.2362 Cl  0  0  0  0  0  0  0  0  0  0  0  0
  154.1667  136.9026  161.3679 C   0  0  0  0  0  0  0  0  0  0  0  0
  153.7562  135.8766  160.8241 O   0  0  0  0  0  0  0  0  0  0  0  0
  151.2634  142.4941  158.9690 C   0  0  2  0  0  0  0  0  0  0  0  0
  151.1836  141.7382  157.6276 C   0  0  0  0  0  0  0  0  0  0  0  0
  153.1068  144.5049  158.0858 H   0  0  0  0  0  0  0  0  0  0  0  0
  151.9128  145.7465  157.7379 H   0  0  0  0  0  0  0  0  0  0  0  0
  151.9385  144.2748  156.7905 H   0  0  0  0  0  0  0  0  0  0  0  0
  150.0836  144.1854  158.3720 H   0  0  0  0  0  0  0  0  0  0  0  0
  151.0021  145.8145  160.0263 H   0  0  0  0  0  0  0  0  0  0  0  0
  150.2322  144.4245  160.7391 H   0  0  0  0  0  0  0  0  0  0  0  0
  153.2473  144.8347  160.4496 H   0  0  0  0  0  0  0  0  0  0  0  0
  152.3302  144.9030  161.9311 H   0  0  0  0  0  0  0  0  0  0  0  0
  153.4841  142.7065  161.6643 H   0  0  0  0  0  0  0  0  0  0  0  0
  151.7503  142.5281  161.7728 H   0  0  0  0  0  0  0  0  0  0  0  0
  153.4152  142.4777  159.2215 H   0  0  0  0  0  0  0  0  0  0  0  0
  152.3916  140.4271  160.9950 H   0  0  0  0  0  0  0  0  0  0  0  0
  151.9746  138.0351  159.9576 H   0  0  0  0  0  0  0  0  0  0  0  0
  153.3201  137.6734  158.9191 H   0  0  0  0  0  0  0  0  0  0  0  0
  155.4117  140.2061  162.9990 H   0  0  0  0  0  0  0  0  0  0  0  0
  150.4106  142.1521  159.5579 H   0  0  0  0  0  0  0  0  0  0  0  0
  152.0690  141.9126  157.0158 H   0  0  0  0  0  0  0  0  0  0  0  0
  150.3117  142.0500  157.0523 H   0  0  0  0  0  0  0  0  0  0  0  0
  151.0988  140.6622  157.7791 H   0  0  0  0  0  0  0  0  0  0  0  0
  1  2  1  0  0  0  0
  1 22  1  0  0  0  0
  1 23  1  0  0  0  0
  1 24  1  0  0  0  0
  2 20  1  0  0  0  0
  2  3  1  0  0  0  0
  2 25  1  0  0  0  0
  3  4  1  0  0  0  0
  3 26  1  0  0  0  0
  3 27  1  0  0  0  0
  4  5  1  0  0  0  0
  4 28  1  0  0  0  0
  4 29  1  0  0  0  0
  5  6  1  0  0  0  0
  5 30  1  0  0  0  0
  5 31  1  0  0  0  0
  6  7  1  0  0  0  0
  6 20  1  0  0  0  0
  6 32  1  0  0  0  0
  7  8  1  0  0  0  0
  7 33  1  0  0  0  0
  8  9  2  0  0  0  0
  8 10  1  0  0  0  0
 10 11  1  0  0  0  0
 10 34  1  0  0  0  0
 10 35  1  0  0  0  0
 11 18  1  0  0  0  0
 11 12  1  0  0  0  0
 12 13  2  0  0  0  0
 13 14  1  0  0  0  0
 13 36  1  0  0  0  0
 14 15  1  0  0  0  0
 14 16  2  0  0  0  0
 16 17  1  0  0  0  0
 16 18  1  0  0  0  0
 18 19  2  0  0  0  0
 20 21  1  0  0  0  0
 20 37  1  0  0  0  0
 21 38  1  0  0  0  0
 21 39  1  0  0  0  0
 21 40  1  0  0  0  0
M  END
> <s_m_source_file>
AV-unprocessed.smi

> <i_m_source_file_index>
2976

> <i_lp_mmshare_version>
43012

> <i_f3d_flags>
0

> <s_epik_input>
W0NIM11bQ0BASF0xW0NIMl1bQ0gyXVtDSDJdW0NASF0oW0NASF0xW0NIM10pW05IXUMoPU8pW0NIMl1uMm5bY0hdYyhDbCljKENsKWMyPU8=

> <s_epik_cmdline>
J2VwaWtfcHl0aG9uJywgJy1waCcsICc3LjAnLCAnLXRuJywgJzgnLCAnLW1hJywgJzIwMCcsICctbWV0YWxfYmluZGluZycsICctaW1hZScsICc8aW5maWxlLm1hZT4nLCAnLW9tYWUnLCAnPG91dGZpbGUubWFlPic=

> <r_lp_tautomer_probability>
1

> <r_epik_Ionization_Penalty>
1.90777e-08

> <r_epik_Ionization_Penalty_Charging>
3.07942e-11

> <r_epik_Ionization_Penalty_Neutral>
1.90469e-08

> <r_epik_State_Penalty>
-0

> <r_epik_Charging_Adjusted_Penalty>
3.07942e-11

> <i_epik_Tot_Q>
0

> <i_epik_Tot_abs_Q>
0

> <r_epik_Metal_State_Penalty>
-0

> <b_epik_Metal_Only>
0

> <s_lp_Force_Field>
OPLS_2005

> <r_lp_Energy>
28.556

> <b_lp_Chiralities_Consistent>
1

> <s_lp_Variant>
AV-unprocessed.smi:2976-5

> <Gold.Version>
5.8.1

> <Gold.Id.Protein>
6NUR|6NUR_protein|mol2

> <Gold.PLP.Fitness>
44.1596

> <Gold.PLP.PLP>
-38.9065

> <Gold.PLP.part.hbond>
-1.7767

> <Gold.PLP.part.metal>
0.0000

> <Gold.PLP.part.buried>
-3.9760

> <Gold.PLP.part.nonpolar>
-33.5671

> <Gold.PLP.part.repulsive>
0.1324

> <Gold.PLP.ligand.clash>
0.0000

> <Gold.PLP.ligand.torsion>
0.3756

> <Gold.PLP.Chemscore.Hbond>
2.0000

> <Gold.PLP.Chemscore.CHOScore>
0.0000

> <Gold.PLP.Chemscore.Metal>
0.0000

> <Gold.Chemscore.Hbonds>
donor molecule, donor type, donor heavy atom, donor atom, acceptor molecule, acceptor atom, score
      P1  H  6896  6907       L1    19  1.00
      P1  H  7997  8008       L1     9  0.99

> <Gold.PLP.Chemscore.Internal.Correction>
0.0043

> <Gold.Rescore>
     Score         DG    S(hbond)    S(metal)    S(lipo)     H(rot)  DE(clash)    DE(int)     intcor
     18.83     -21.87       1.78        0.00     121.69       1.49       1.02       2.02       ----

> <Gold.Chemscore.Fitness>
18.8270

> <Gold.Chemscore.DG>
-21.8669

> <Gold.Chemscore.ZeroCoef>
-5.4800

> <Gold.Chemscore.Hbond>
1.7829

> <Gold.Chemscore.Metal>
0.0000

> <Gold.Chemscore.Lipo>
121.6910

> <Gold.Chemscore.Internal_Hbond>
0.0000

> <Gold.Chemscore.DEClash>
1.0229

> <Gold.Chemscore.DEInternal>
2.0170

> <Gold.Chemscore.Rot>
1.4866

> <Gold.Chemscore.Internal.Correction>
   9.000000E+99

> <Gold.Chemscore.Hbonds>
donor molecule, donor type, donor heavy atom, donor atom, acceptor molecule, acceptor atom, score
      P1  H  6896  6907       L1    19  0.99
      P1  H  7997  8008       L1     9  0.94

> <Gold.Chemscore.Hbond.Weighted>
-5.9548

> <Gold.Chemscore.Metal.Weighted>
-0.0000

> <Gold.Chemscore.Lipo.Weighted>
-14.2378

> <Gold.Chemscore.Internal_Hbond.Weighted>
0.0000

> <Gold.Chemscore.DEClash.Weighted>
1.0229

> <Gold.Chemscore.DEInternal.Weighted>
2.0170

> <Gold.Chemscore.Rot.Weighted>
3.8057

> <Gold.Chemscore.Internal.Correction.Weighted>
   9.000000E+99

> <Gold.Protein.RotatedTorsions>
[ 6907 6896 6895 6894 ] final   47.65 input  -60.11 | X-H torsion
[ 7974 7965 7964 7962 ] final -165.24 input  175.53 | X-H torsion
[ 8008 7997 7996 7995 ] final  -93.43 input   59.86 | X-H torsion
[ 10167 10162 10161 10158 ] final -121.16 input  -65.29 | X-H torsion
[ 10718 10713 10712 10709 ] final    3.98 input   66.30 | X-H torsion
[ 10763 10752 10751 10750 ] final   70.47 input  -60.55 | X-H torsion
[ 11005 11000 10999 10996 ] final   21.12 input  -57.11 | X-H torsion

> <Gold.Protein.ActiveResidues>
 VAL166  LYS551  ARG553  GLY616  TRP617  ASP618  TYR619  PRO620  LYS621  CYS622 
 ASP623  PHE694  ASN695  SER759  ASP760  ASP761  ALA762  ILE779  LEU786  VAL792 
 PHE793  MET794  SER795  GLU796  ALA797  LYS798  CYS799  TRP800  GLU811  SER814 

> <Gold.Protein.RotatedAtoms>
  152.2705  134.7938  160.0414 H   0  0  0  0  0  0  0  0  0  0  0  0  # atno 6907 bound_to 6896
  151.8552  133.3442  159.3694 H   0  0  0  0  0  0  0  0  0  0  0  0  # atno 6908 bound_to 6896
  150.7150  134.5187  159.5687 H   0  0  0  0  0  0  0  0  0  0  0  0  # atno 6909 bound_to 6896
  144.7275  140.2842  143.6231 H   0  0  0  0  0  0  0  0  0  0  0  0  # atno 7974 bound_to 7965
  154.7356  140.0499  157.0765 H   0  0  0  0  0  0  0  0  0  0  0  0  # atno 8008 bound_to 7997
  155.0245  140.3151  155.4762 H   0  0  0  0  0  0  0  0  0  0  0  0  # atno 8009 bound_to 7997
  156.2852  140.2161  156.5364 H   0  0  0  0  0  0  0  0  0  0  0  0  # atno 8010 bound_to 7997
  140.0281  143.5276  152.2189 H   0  0  0  0  0  0  0  0  0  0  0  0  # atno 10167 bound_to 10162
  156.8858  130.5670  149.5651 H   0  0  0  0  0  0  0  0  0  0  0  0  # atno 10718 bound_to 10713
  153.0344  135.5172  154.7446 H   0  0  0  0  0  0  0  0  0  0  0  0  # atno 10763 bound_to 10752
  154.6435  135.2915  155.0076 H   0  0  0  0  0  0  0  0  0  0  0  0  # atno 10764 bound_to 10752
  154.0986  135.6639  153.4917 H   0  0  0  0  0  0  0  0  0  0  0  0  # atno 10765 bound_to 10752
  140.3951  134.1778  155.7663 H   0  0  0  0  0  0  0  0  0  0  0  0  # atno 11005 bound_to 11000
  145.7919  139.1930  143.2098 LP  0  0  0  0  0  0  0  0  0  0  0  0  # atno 17320 bound_to 7965
  146.0749  140.7829  142.9670 LP  0  0  0  0  0  0  0  0  0  0  0  0  # atno 17321 bound_to 7965
  139.6095  144.7605  151.2986 LP  0  0  0  0  0  0  0  0  0  0  0  0  # atno 17342 bound_to 10162
  140.7314  143.6853  150.7967 LP  0  0  0  0  0  0  0  0  0  0  0  0  # atno 17343 bound_to 10162
  156.0654  130.5698  150.9277 LP  0  0  0  0  0  0  0  0  0  0  0  0  # atno 17370 bound_to 10713
  157.6113  131.0936  150.8790 LP  0  0  0  0  0  0  0  0  0  0  0  0  # atno 17371 bound_to 10713
  141.1877  133.8276  157.1022 LP  0  0  0  0  0  0  0  0  0  0  0  0  # atno 17394 bound_to 11000
  140.0378  134.9869  157.0904 LP  0  0  0  0  0  0  0  0  0  0  0  0  # atno 17395 bound_to 11000

$$$$
