AV-unprocessed.smi:2063|AV-procd|sdf|8415|dock6
  -GOLD-   2272011103D 1   1.00000     0.00000
 Structure written by MMmdl.
 38 39  0  0  0  0  0  0  0  0  2 V2000
  150.7097  141.4209  157.9467 C   0  0  0  0  0  0  0  0  0  0  0  0
  150.9125  141.1594  156.4472 C   0  0  0  0  0  0  0  0  0  0  0  0
  149.7671  141.7021  155.5801 C   0  0  0  0  0  0  0  0  0  0  0  0
  151.2037  139.7193  156.1598 C   0  0  0  0  0  0  0  0  0  0  0  0
  152.2476  139.0664  156.6800 N   0  0  0  0  0  0  0  0  0  0  0  0
  152.2981  137.7434  156.2665 N   0  0  0  0  0  0  0  0  0  0  0  0
  151.3009  137.4150  155.4332 C   0  0  0  0  0  0  0  0  0  0  0  0
  151.1644  136.1806  154.9215 N   0  5  0  0  0  0  0  0  0  0  0  0
  150.0614  135.4500  155.2022 C   0  0  0  0  0  0  0  0  0  0  0  0
  149.9275  134.6622  156.1411 O   0  0  0  0  0  0  0  0  0  0  0  0
  149.0556  135.6436  154.3370 N   0  0  0  0  0  0  0  0  0  0  0  0
  147.7512  134.9832  154.3566 C   0  0  1  0  0  0  0  0  0  0  0  0
  146.6629  135.9770  153.9220 C   0  0  0  0  0  0  0  0  0  0  0  0
  147.7898  133.7365  153.4527 C   0  0  1  0  0  0  0  0  0  0  0  0
  148.8921  132.7313  153.8000 C   0  0  0  0  0  0  0  0  0  0  0  0
  148.3302  131.3939  153.3405 C   0  0  0  0  0  0  0  0  0  0  0  0
  146.8659  131.6945  153.0134 C   0  0  0  0  0  0  0  0  0  0  0  0
  146.6133  132.9579  153.6096 O   0  0  0  0  0  0  0  0  0  0  0  0
  150.1902  138.7446  155.1075 S   0  0  0  0  0  0  0  0  0  0  0  0
  151.5806  141.1035  158.5212 H   0  0  0  0  0  0  0  0  0  0  0  0
  149.8430  140.8812  158.3294 H   0  0  0  0  0  0  0  0  0  0  0  0
  150.5536  142.4819  158.1425 H   0  0  0  0  0  0  0  0  0  0  0  0
  151.8049  141.7158  156.1578 H   0  0  0  0  0  0  0  0  0  0  0  0
  149.9820  141.5682  154.5195 H   0  0  0  0  0  0  0  0  0  0  0  0
  149.6129  142.7673  155.7544 H   0  0  0  0  0  0  0  0  0  0  0  0
  148.8287  141.1910  155.7977 H   0  0  0  0  0  0  0  0  0  0  0  0
  149.2163  136.3025  153.5896 H   0  0  0  0  0  0  0  0  0  0  0  0
  147.5252  134.6501  155.3710 H   0  0  0  0  0  0  0  0  0  0  0  0
  145.6758  135.5148  153.9462 H   0  0  0  0  0  0  0  0  0  0  0  0
  146.8371  136.3384  152.9080 H   0  0  0  0  0  0  0  0  0  0  0  0
  146.6351  136.8429  154.5841 H   0  0  0  0  0  0  0  0  0  0  0  0
  147.8788  134.0298  152.4046 H   0  0  0  0  0  0  0  0  0  0  0  0
  149.8428  132.9766  153.3257 H   0  0  0  0  0  0  0  0  0  0  0  0
  149.0548  132.7053  154.8784 H   0  0  0  0  0  0  0  0  0  0  0  0
  148.8557  131.0102  152.4655 H   0  0  0  0  0  0  0  0  0  0  0  0
  148.4148  130.6521  154.1353 H   0  0  0  0  0  0  0  0  0  0  0  0
  146.7221  131.7728  151.9348 H   0  0  0  0  0  0  0  0  0  0  0  0
  146.1849  130.9329  153.3936 H   0  0  0  0  0  0  0  0  0  0  0  0
  1  2  1  0  0  0  0
  1 20  1  0  0  0  0
  1 21  1  0  0  0  0
  1 22  1  0  0  0  0
  2  3  1  0  0  0  0
  2  4  1  0  0  0  0
  2 23  1  0  0  0  0
  3 24  1  0  0  0  0
  3 25  1  0  0  0  0
  3 26  1  0  0  0  0
  4 19  1  0  0  0  0
  4  5  2  0  0  0  0
  5  6  1  0  0  0  0
  6  7  2  0  0  0  0
  7  8  1  0  0  0  0
  7 19  1  0  0  0  0
  8  9  1  0  0  0  0
  9 10  2  0  0  0  0
  9 11  1  0  0  0  0
 11 12  1  0  0  0  0
 11 27  1  0  0  0  0
 12 13  1  0  0  0  0
 12 14  1  0  0  0  0
 12 28  1  0  0  0  0
 13 29  1  0  0  0  0
 13 30  1  0  0  0  0
 13 31  1  0  0  0  0
 14 18  1  0  0  0  0
 14 15  1  0  0  0  0
 14 32  1  0  0  0  0
 15 16  1  0  0  0  0
 15 33  1  0  0  0  0
 15 34  1  0  0  0  0
 16 17  1  0  0  0  0
 16 35  1  0  0  0  0
 16 36  1  0  0  0  0
 17 18  1  0  0  0  0
 17 37  1  0  0  0  0
 17 38  1  0  0  0  0
M  CHG  1   8  -1
M  END
> <s_m_source_file>
AV-unprocessed.smi

> <i_m_source_file_index>
2063

> <i_lp_mmshare_version>
43012

> <i_f3d_flags>
0

> <s_epik_input>
W0NIM11bQ0hdKFtDSDNdKWMxbm5jKHMxKVtOSF1DKD1PKVtOSF1bQ0BIXShbQ0gzXSlbQ0BASF0yW0NIMl1bQ0gyXVtDSDJdTzI=

> <s_epik_cmdline>
J2VwaWtfcHl0aG9uJywgJy1waCcsICc3LjAnLCAnLXRuJywgJzgnLCAnLW1hJywgJzIwMCcsICctbWV0YWxfYmluZGluZycsICctaW1hZScsICc8aW5maWxlLm1hZT4nLCAnLW9tYWUnLCAnPG91dGZpbGUubWFlPic=

> <r_lp_tautomer_probability>
1

> <r_epik_Ionization_Penalty>
4.37022

> <r_epik_Ionization_Penalty_Charging>
4.21437

> <r_epik_Ionization_Penalty_Neutral>
0.15585

> <r_epik_State_Penalty>
4.21389

> <r_epik_Charging_Adjusted_Penalty>
8.42826

> <i_epik_Tot_Q>
-1

> <i_epik_Tot_abs_Q>
1

> <r_epik_Metal_State_Penalty>
0.693772

> <b_epik_Metal_Only>
1

> <s_lp_Force_Field>
OPLS_2005

> <r_lp_Energy>
9.58688

> <b_lp_Chiralities_Consistent>
1

> <s_lp_Variant>
AV-unprocessed.smi:2063-8

> <Gold.Version>
5.8.1

> <Gold.Id.Protein>
6NUR|6NUR_protein|mol2

> <Gold.PLP.Fitness>
39.6082

> <Gold.PLP.PLP>
-31.3217

> <Gold.PLP.part.hbond>
-3.0000

> <Gold.PLP.part.metal>
0.0000

> <Gold.PLP.part.buried>
-3.1797

> <Gold.PLP.part.nonpolar>
-25.0392

> <Gold.PLP.part.repulsive>
0.2533

> <Gold.PLP.ligand.clash>
0.0000

> <Gold.PLP.ligand.torsion>
1.7740

> <Gold.PLP.Chemscore.Hbond>
3.8960

> <Gold.PLP.Chemscore.CHOScore>
0.0000

> <Gold.PLP.Chemscore.Metal>
0.0000

> <Gold.Chemscore.Hbonds>
donor molecule, donor type, donor heavy atom, donor atom, acceptor molecule, acceptor atom, score
      L1  H    11    27       P1  7948  0.66
      P1  H 10752 10763       L1     8  1.92

> <Gold.PLP.Chemscore.Internal.Correction>
0.1464

> <Gold.Rescore>
     Score         DG    S(hbond)    S(metal)    S(lipo)     H(rot)  DE(clash)    DE(int)     intcor
     13.82     -15.74       2.14        0.00      57.04       1.39       0.05       1.87       ----

> <Gold.Chemscore.Fitness>
13.8220

> <Gold.Chemscore.DG>
-15.7373

> <Gold.Chemscore.ZeroCoef>
-5.4800

> <Gold.Chemscore.Hbond>
2.1377

> <Gold.Chemscore.Metal>
0.0000

> <Gold.Chemscore.Lipo>
57.0423

> <Gold.Chemscore.Internal_Hbond>
0.0000

> <Gold.Chemscore.DEClash>
0.0454

> <Gold.Chemscore.DEInternal>
1.8699

> <Gold.Chemscore.Rot>
1.3893

> <Gold.Chemscore.Internal.Correction>
   9.000000E+99

> <Gold.Chemscore.Hbonds>
donor molecule, donor type, donor heavy atom, donor atom, acceptor molecule, acceptor atom, score
      L1  H    11    27       P1  7948  0.61
      P1  H  7997  8008       L1     5  0.02
      P1  H 10752 10763       L1     8  0.54

> <Gold.Chemscore.Hbond.Weighted>
-7.1400

> <Gold.Chemscore.Metal.Weighted>
-0.0000

> <Gold.Chemscore.Lipo.Weighted>
-6.6740

> <Gold.Chemscore.Internal_Hbond.Weighted>
0.0000

> <Gold.Chemscore.DEClash.Weighted>
0.0454

> <Gold.Chemscore.DEInternal.Weighted>
1.8699

> <Gold.Chemscore.Rot.Weighted>
3.5567

> <Gold.Chemscore.Internal.Correction.Weighted>
   9.000000E+99

> <Gold.Protein.RotatedTorsions>
[ 6907 6896 6895 6894 ] final  113.83 input  -60.11 | X-H torsion
[ 7974 7965 7964 7962 ] final   38.91 input  175.53 | X-H torsion
[ 8008 7997 7996 7995 ] final  -26.97 input   59.86 | X-H torsion
[ 10167 10162 10161 10158 ] final   79.06 input  -65.29 | X-H torsion
[ 10718 10713 10712 10709 ] final -140.97 input   66.30 | X-H torsion
[ 10763 10752 10751 10750 ] final   35.89 input  -60.55 | X-H torsion
[ 11005 11000 10999 10996 ] final -124.19 input  -57.11 | X-H torsion

> <Gold.Protein.ActiveResidues>
 VAL166  LYS551  ARG553  GLY616  TRP617  ASP618  TYR619  PRO620  LYS621  CYS622 
 ASP623  PHE694  ASN695  SER759  ASP760  ASP761  ALA762  ILE779  LEU786  VAL792 
 PHE793  MET794  SER795  GLU796  ALA797  LYS798  CYS799  TRP800  GLU811  SER814 

> <Gold.Protein.RotatedAtoms>
  152.4838  133.8321  159.7108 H   0  0  0  0  0  0  0  0  0  0  0  0  # atno 6907 bound_to 6896
  150.8908  133.7236  159.2912 H   0  0  0  0  0  0  0  0  0  0  0  0  # atno 6908 bound_to 6896
  151.4710  135.1049  159.9803 H   0  0  0  0  0  0  0  0  0  0  0  0  # atno 6909 bound_to 6896
  146.1025  139.5714  142.9405 H   0  0  0  0  0  0  0  0  0  0  0  0  # atno 7974 bound_to 7965
  154.4399  140.1885  156.0859 H   0  0  0  0  0  0  0  0  0  0  0  0  # atno 8008 bound_to 7997
  156.0403  140.3320  155.7210 H   0  0  0  0  0  0  0  0  0  0  0  0  # atno 8009 bound_to 7997
  155.5709  140.0612  157.2797 H   0  0  0  0  0  0  0  0  0  0  0  0  # atno 8010 bound_to 7997
  139.9643  144.5939  150.8043 H   0  0  0  0  0  0  0  0  0  0  0  0  # atno 10167 bound_to 10162
  156.3285  130.7573  151.1686 H   0  0  0  0  0  0  0  0  0  0  0  0  # atno 10718 bound_to 10713
  153.0100  135.6321  154.1899 H   0  0  0  0  0  0  0  0  0  0  0  0  # atno 10763 bound_to 10752
  154.1641  135.2822  155.3102 H   0  0  0  0  0  0  0  0  0  0  0  0  # atno 10764 bound_to 10752
  154.5959  135.5603  153.7385 H   0  0  0  0  0  0  0  0  0  0  0  0  # atno 10765 bound_to 10752
  140.9861  134.0605  157.3710 H   0  0  0  0  0  0  0  0  0  0  0  0  # atno 11005 bound_to 11000
  145.5826  141.0380  143.2114 LP  0  0  0  0  0  0  0  0  0  0  0  0  # atno 17320 bound_to 7965
  144.7444  139.7360  143.7298 LP  0  0  0  0  0  0  0  0  0  0  0  0  # atno 17321 bound_to 7965
  140.7543  143.3024  151.3047 LP  0  0  0  0  0  0  0  0  0  0  0  0  # atno 17342 bound_to 10162
  139.6529  144.0328  152.2639 LP  0  0  0  0  0  0  0  0  0  0  0  0  # atno 17343 bound_to 10162
  157.7426  131.0488  150.5013 LP  0  0  0  0  0  0  0  0  0  0  0  0  # atno 17370 bound_to 10713
  156.5176  130.4154  149.6268 LP  0  0  0  0  0  0  0  0  0  0  0  0  # atno 17371 bound_to 10713
  139.8971  135.0149  156.7084 LP  0  0  0  0  0  0  0  0  0  0  0  0  # atno 17394 bound_to 11000
  140.7113  133.9221  155.8086 LP  0  0  0  0  0  0  0  0  0  0  0  0  # atno 17395 bound_to 11000

$$$$
