AV-unprocessed.smi:769|AV-procd|sdf|3674|dock2
  -GOLD-   22720 1 83D 1   1.00000     0.00000
 Structure written by MMmdl.
 49 51  0  0  0  0  0  0  0  0  1 V2000
  144.6240  136.7389  152.1401 O   0  0  0  0  0  0  0  0  0  0  0  0
  145.8333  136.5102  152.1169 C   0  0  0  0  0  0  0  0  0  0  0  0
  146.7571  137.3872  152.5354 N   0  0  0  0  0  0  0  0  0  0  0  0
  146.4676  138.7126  153.0687 C   0  0  0  0  0  0  0  0  0  0  0  0
  147.1201  138.9099  154.4508 C   0  0  0  0  0  0  0  0  0  0  0  0
  148.3736  139.6578  154.3702 N   0  0  0  0  0  0  0  0  0  0  0  0
  149.5233  138.8080  154.7080 C   0  0  0  0  0  0  0  0  0  0  0  0
  150.8268  139.6273  154.6477 C   0  0  0  0  0  0  0  0  0  0  0  0
  150.7282  140.7405  155.5966 N   0  0  0  0  0  0  0  0  0  0  0  0
  151.4777  140.9127  156.7122 C   0  0  0  0  0  0  0  0  0  0  0  0
  152.3646  140.1196  157.0314 O   0  0  0  0  0  0  0  0  0  0  0  0
  151.2413  142.1632  157.5825 C   0  0  0  0  0  0  0  0  0  0  0  0
  151.6327  143.5161  156.9524 C   0  0  0  0  0  0  0  0  0  0  0  0
  152.2591  143.9064  158.2936 C   0  0  0  0  0  0  0  0  0  0  0  0
  152.3402  142.4146  158.6292 C   0  0  0  0  0  0  0  0  0  0  0  0
  149.6103  141.6158  155.2338 C   0  0  0  0  0  0  0  0  0  0  0  0
  148.3058  140.7973  155.2917 C   0  0  0  0  0  0  0  0  0  0  0  0
  146.4061  135.3823  151.6611 N   0  0  0  0  0  0  0  0  0  0  0  0
  145.7835  134.2148  151.1410 C   0  0  0  0  0  0  0  0  0  0  0  0
  144.3738  134.1729  151.1311 C   0  0  0  0  0  0  0  0  0  0  0  0
  143.7312  133.0337  150.6066 C   0  0  0  0  0  0  0  0  0  0  0  0
  144.3965  131.9747  150.0994 N   0  0  0  0  0  0  0  0  0  0  0  0
  145.7455  132.0223  150.0964 C   0  0  0  0  0  0  0  0  0  0  0  0
  146.4855  133.1120  150.5974 C   0  0  0  0  0  0  0  0  0  0  0  0
  147.7294  137.1217  152.4785 H   0  0  0  0  0  0  0  0  0  0  0  0
  146.7995  139.4645  152.3522 H   0  0  0  0  0  0  0  0  0  0  0  0
  145.3852  138.8149  153.1502 H   0  0  0  0  0  0  0  0  0  0  0  0
  146.4196  139.4659  155.0758 H   0  0  0  0  0  0  0  0  0  0  0  0
  147.2866  137.9519  154.9461 H   0  0  0  0  0  0  0  0  0  0  0  0
  149.3957  138.3775  155.7027 H   0  0  0  0  0  0  0  0  0  0  0  0
  149.6005  137.9781  154.0069 H   0  0  0  0  0  0  0  0  0  0  0  0
  151.6779  138.9734  154.8266 H   0  0  0  0  0  0  0  0  0  0  0  0
  150.9742  140.0248  153.6422 H   0  0  0  0  0  0  0  0  0  0  0  0
  150.2349  142.2128  158.0017 H   0  0  0  0  0  0  0  0  0  0  0  0
  152.3761  143.4597  156.1555 H   0  0  0  0  0  0  0  0  0  0  0  0
  150.7867  144.1390  156.6611 H   0  0  0  0  0  0  0  0  0  0  0  0
  153.2231  144.4104  158.2179 H   0  0  0  0  0  0  0  0  0  0  0  0
  151.5675  144.4478  158.9409 H   0  0  0  0  0  0  0  0  0  0  0  0
  152.0546  142.1736  159.6534 H   0  0  0  0  0  0  0  0  0  0  0  0
  153.3045  141.9737  158.3694 H   0  0  0  0  0  0  0  0  0  0  0  0
  149.5238  142.4846  155.8872 H   0  0  0  0  0  0  0  0  0  0  0  0
  149.7670  142.0119  154.2292 H   0  0  0  0  0  0  0  0  0  0  0  0
  147.4652  141.4371  155.0206 H   0  0  0  0  0  0  0  0  0  0  0  0
  148.1276  140.4467  156.3098 H   0  0  0  0  0  0  0  0  0  0  0  0
  147.4150  135.3794  151.6344 H   0  0  0  0  0  0  0  0  0  0  0  0
  143.7905  134.9937  151.5221 H   0  0  0  0  0  0  0  0  0  0  0  0
  142.6530  132.9736  150.5919 H   0  0  0  0  0  0  0  0  0  0  0  0
  146.2527  131.1673  149.6745 H   0  0  0  0  0  0  0  0  0  0  0  0
  147.5626  133.0834  150.5421 H   0  0  0  0  0  0  0  0  0  0  0  0
  1  2  2  0  0  0  0
  2  3  1  0  0  0  0
  2 18  1  0  0  0  0
  3  4  1  0  0  0  0
  3 25  1  0  0  0  0
  4  5  1  0  0  0  0
  4 26  1  0  0  0  0
  4 27  1  0  0  0  0
  5  6  1  0  0  0  0
  5 28  1  0  0  0  0
  5 29  1  0  0  0  0
  6 17  1  0  0  0  0
  6  7  1  0  0  0  0
  7  8  1  0  0  0  0
  7 30  1  0  0  0  0
  7 31  1  0  0  0  0
  8  9  1  0  0  0  0
  8 32  1  0  0  0  0
  8 33  1  0  0  0  0
  9 10  1  0  0  0  0
  9 16  1  0  0  0  0
 10 11  2  0  0  0  0
 10 12  1  0  0  0  0
 12 15  1  0  0  0  0
 12 13  1  0  0  0  0
 12 34  1  0  0  0  0
 13 14  1  0  0  0  0
 13 35  1  0  0  0  0
 13 36  1  0  0  0  0
 14 15  1  0  0  0  0
 14 37  1  0  0  0  0
 14 38  1  0  0  0  0
 15 39  1  0  0  0  0
 15 40  1  0  0  0  0
 16 17  1  0  0  0  0
 16 41  1  0  0  0  0
 16 42  1  0  0  0  0
 17 43  1  0  0  0  0
 17 44  1  0  0  0  0
 18 19  1  0  0  0  0
 18 45  1  0  0  0  0
 19 24  1  0  0  0  0
 19 20  2  0  0  0  0
 20 21  1  0  0  0  0
 20 46  1  0  0  0  0
 21 22  2  0  0  0  0
 21 47  1  0  0  0  0
 22 23  1  0  0  0  0
 23 24  2  0  0  0  0
 23 48  1  0  0  0  0
 24 49  1  0  0  0  0
M  END
> <s_m_source_file>
AV-unprocessed.smi

> <i_m_source_file_index>
769

> <i_lp_mmshare_version>
43012

> <i_f3d_flags>
0

> <s_epik_input>
W2NIXTFbY0hdbltjSF1bY0hdYzFbTkhdQyg9TylbTkhdW0NIMl1bQ0gyXU4yW0NIMl1bQ0gyXU4oW0NIMl1bQ0gyXTIpQyg9TylbQ0hdM1tDSDJdW0NIMl1bQ0gyXTM=

> <s_epik_cmdline>
J2VwaWtfcHl0aG9uJywgJy1waCcsICc3LjAnLCAnLXRuJywgJzgnLCAnLW1hJywgJzIwMCcsICctbWV0YWxfYmluZGluZycsICctaW1hZScsICc8aW5maWxlLm1hZT4nLCAnLW9tYWUnLCAnPG91dGZpbGUubWFlPic=

> <r_epik_Ionization_Penalty>
0.401104

> <r_epik_Ionization_Penalty_Charging>
0

> <r_epik_Ionization_Penalty_Neutral>
0.401104

> <r_epik_State_Penalty>
0.379367

> <r_epik_Charging_Adjusted_Penalty>
0.379367

> <i_epik_Tot_Q>
0

> <i_epik_Tot_abs_Q>
0

> <r_epik_Metal_State_Penalty>
0.353808

> <b_epik_Metal_Only>
0

> <s_lp_Force_Field>
OPLS_2005

> <r_lp_Energy>
47.3936

> <b_lp_Chiralities_Consistent>
1

> <s_lp_Variant>
AV-unprocessed.smi:769-1

> <Gold.Version>
5.8.1

> <Gold.Id.Protein>
6NUR|6NUR_protein|mol2

> <Gold.PLP.Fitness>
54.8217

> <Gold.PLP.PLP>
-43.2023

> <Gold.PLP.part.hbond>
-2.9509

> <Gold.PLP.part.metal>
0.0000

> <Gold.PLP.part.buried>
-1.4641

> <Gold.PLP.part.nonpolar>
-38.5512

> <Gold.PLP.part.repulsive>
0.9401

> <Gold.PLP.ligand.clash>
0.0000

> <Gold.PLP.ligand.torsion>
1.2276

> <Gold.PLP.Chemscore.Hbond>
2.9750

> <Gold.PLP.Chemscore.CHOScore>
1.5438

> <Gold.PLP.Chemscore.Metal>
0.0000

> <Gold.Chemscore.Hbonds>
donor molecule, donor type, donor heavy atom, donor atom, acceptor molecule, acceptor atom, score
      L1  H     3    25       P1  7948  1.00
      L1  H    18    45       P1  7948  1.00
      P1  H  7997  8008       L1    11  0.98
      L1  C    21    47       P1 10186  1.00
      L1  C    23    48       P1 10747  0.27

> <Gold.PLP.Chemscore.Internal.Correction>
0.5180

> <Gold.Rescore>
     Score         DG    S(hbond)    S(metal)    S(lipo)     H(rot)  DE(clash)    DE(int)     intcor
     19.55     -24.00       2.81        0.00     114.86       1.68       1.76       2.69       ----

> <Gold.Chemscore.Fitness>
19.5528

> <Gold.Chemscore.DG>
-24.0016

> <Gold.Chemscore.ZeroCoef>
-5.4800

> <Gold.Chemscore.Hbond>
2.8103

> <Gold.Chemscore.Metal>
0.0000

> <Gold.Chemscore.Lipo>
114.8623

> <Gold.Chemscore.Internal_Hbond>
0.0000

> <Gold.Chemscore.DEClash>
1.7601

> <Gold.Chemscore.DEInternal>
2.6886

> <Gold.Chemscore.Rot>
1.6811

> <Gold.Chemscore.Internal.Correction>
   9.000000E+99

> <Gold.Chemscore.Hbonds>
donor molecule, donor type, donor heavy atom, donor atom, acceptor molecule, acceptor atom, score
      L1  H     3    25       P1  7948  0.96
      L1  H    18    45       P1  7948  0.90
      P1  H  7997  8008       L1    11  0.89

> <Gold.Chemscore.Hbond.Weighted>
-9.3863

> <Gold.Chemscore.Metal.Weighted>
-0.0000

> <Gold.Chemscore.Lipo.Weighted>
-13.4389

> <Gold.Chemscore.Internal_Hbond.Weighted>
0.0000

> <Gold.Chemscore.DEClash.Weighted>
1.7601

> <Gold.Chemscore.DEInternal.Weighted>
2.6886

> <Gold.Chemscore.Rot.Weighted>
4.3036

> <Gold.Chemscore.Internal.Correction.Weighted>
   9.000000E+99

> <Gold.Protein.RotatedTorsions>
[ 6907 6896 6895 6894 ] final  144.57 input  -60.11 | X-H torsion
[ 7974 7965 7964 7962 ] final  -46.23 input  175.53 | X-H torsion
[ 8008 7997 7996 7995 ] final  -54.39 input   59.86 | X-H torsion
[ 10167 10162 10161 10158 ] final -159.49 input  -65.29 | X-H torsion
[ 10718 10713 10712 10709 ] final -151.15 input   66.30 | X-H torsion
[ 10763 10752 10751 10750 ] final   77.77 input  -60.55 | X-H torsion
[ 11005 11000 10999 10996 ] final   35.77 input  -57.11 | X-H torsion

> <Gold.Protein.ActiveResidues>
 VAL166  LYS551  ARG553  GLY616  TRP617  ASP618  TYR619  PRO620  LYS621  CYS622 
 ASP623  PHE694  ASN695  SER759  ASP760  ASP761  ALA762  ILE779  LEU786  VAL792 
 PHE793  MET794  SER795  GLU796  ALA797  LYS798  CYS799  TRP800  GLU811  SER814 

> <Gold.Protein.RotatedAtoms>
  152.1919  133.4779  159.5012 H   0  0  0  0  0  0  0  0  0  0  0  0  # atno 6907 bound_to 6896
  150.6953  134.1701  159.4218 H   0  0  0  0  0  0  0  0  0  0  0  0  # atno 6908 bound_to 6896
  151.9616  135.0120  160.0598 H   0  0  0  0  0  0  0  0  0  0  0  0  # atno 6909 bound_to 6896
  145.9740  140.7353  142.9396 H   0  0  0  0  0  0  0  0  0  0  0  0  # atno 7974 bound_to 7965
  154.4161  140.1177  156.5308 H   0  0  0  0  0  0  0  0  0  0  0  0  # atno 8008 bound_to 7997
  155.6608  140.3496  155.4763 H   0  0  0  0  0  0  0  0  0  0  0  0  # atno 8009 bound_to 7997
  155.9715  140.1142  157.0798 H   0  0  0  0  0  0  0  0  0  0  0  0  # atno 8010 bound_to 7997
  139.6611  143.9911  152.2226 H   0  0  0  0  0  0  0  0  0  0  0  0  # atno 10167 bound_to 10162
  156.4555  130.8188  151.2419 H   0  0  0  0  0  0  0  0  0  0  0  0  # atno 10718 bound_to 10713
  153.0823  135.4902  154.8528 H   0  0  0  0  0  0  0  0  0  0  0  0  # atno 10763 bound_to 10752
  154.7167  135.3031  154.9115 H   0  0  0  0  0  0  0  0  0  0  0  0  # atno 10764 bound_to 10752
  153.9792  135.6792  153.4802 H   0  0  0  0  0  0  0  0  0  0  0  0  # atno 10765 bound_to 10752
  140.2393  134.3434  155.7932 H   0  0  0  0  0  0  0  0  0  0  0  0  # atno 11005 bound_to 11000
  144.6844  140.2797  143.7294 LP  0  0  0  0  0  0  0  0  0  0  0  0  # atno 17320 bound_to 7965
  145.7865  139.1910  143.2128 LP  0  0  0  0  0  0  0  0  0  0  0  0  # atno 17321 bound_to 7965
  139.9651  144.6532  150.8042 LP  0  0  0  0  0  0  0  0  0  0  0  0  # atno 17342 bound_to 10162
  140.7580  143.3098  151.2872 LP  0  0  0  0  0  0  0  0  0  0  0  0  # atno 17343 bound_to 10162
  157.7501  131.0124  150.3383 LP  0  0  0  0  0  0  0  0  0  0  0  0  # atno 17370 bound_to 10713
  156.3771  130.3874  149.7130 LP  0  0  0  0  0  0  0  0  0  0  0  0  # atno 17371 bound_to 10713
  141.2212  133.7290  156.8859 LP  0  0  0  0  0  0  0  0  0  0  0  0  # atno 17394 bound_to 11000
  140.1670  134.9126  157.2786 LP  0  0  0  0  0  0  0  0  0  0  0  0  # atno 17395 bound_to 11000

$$$$
