AV-unprocessed.smi:104|AV-procd|sdf|999|dock10
  -GOLD-   2262017583D 1   1.00000     0.00000
 Structure written by MMmdl.
 47 49  0  0  0  0  0  0  0  0  1 V2000
  155.1698  135.2642  159.2172 C   0  0  0  0  0  0  0  0  0  0  0  0
  154.3825  135.6977  157.9876 C   0  0  0  0  0  0  0  0  0  0  0  0
  154.9233  135.8249  156.8888 O   0  0  0  0  0  0  0  0  0  0  0  0
  153.0862  135.9093  158.2588 O   0  0  0  0  0  0  0  0  0  0  0  0
  152.2090  136.3036  157.2171 C   0  0  0  0  0  0  0  0  0  0  0  0
  151.0757  137.1537  157.8015 C   0  0  2  0  0  0  0  0  0  0  0  0
  150.6136  136.5731  159.0111 O   0  0  0  0  0  0  0  0  0  0  0  0
  149.3005  136.9696  159.2478 C   0  0  2  0  0  0  0  0  0  0  0  0
  148.5691  135.7908  159.8150 N   0  0  0  0  0  0  0  0  0  0  0  0
  148.3198  134.5644  159.2423 C   0  0  0  0  0  0  0  0  0  0  0  0
  148.9261  134.1133  157.4945 Br  0  0  0  0  0  0  0  0  0  0  0  0
  147.6544  133.6986  159.9547 N   0  0  0  0  0  0  0  0  0  0  0  0
  147.4261  134.3877  161.1394 C   0  0  0  0  0  0  0  0  0  0  0  0
  146.7727  134.0666  162.3558 C   0  0  0  0  0  0  0  0  0  0  0  0
  146.1850  132.8830  162.5801 N   0  0  0  0  0  0  0  0  0  0  0  0
  146.7411  134.9972  163.3384 N   0  0  0  0  0  0  0  0  0  0  0  0
  147.3208  136.1858  163.1404 C   0  0  0  0  0  0  0  0  0  0  0  0
  147.9654  136.6316  162.0590 N   0  0  0  0  0  0  0  0  0  0  0  0
  147.9945  135.6932  161.0671 C   0  0  0  0  0  0  0  0  0  0  0  0
  148.7031  137.4577  157.9105 C   0  0  2  0  0  0  0  0  0  0  0  0
  147.5187  136.7519  157.5504 O   0  0  0  0  0  0  0  0  0  0  0  0
  146.4429  136.7738  158.3528 C   0  0  0  0  0  0  0  0  0  0  0  0
  145.2613  136.0221  157.7555 C   0  0  0  0  0  0  0  0  0  0  0  0
  146.3671  137.3256  159.4505 O   0  0  0  0  0  0  0  0  0  0  0  0
  149.8276  137.1879  156.9199 C   0  0  1  0  0  0  0  0  0  0  0  0
  149.8919  138.2549  155.9818 O   0  0  0  0  0  0  0  0  0  0  0  0
  150.1839  139.5024  156.3857 C   0  0  0  0  0  0  0  0  0  0  0  0
  150.2337  140.4877  155.2261 C   0  0  0  0  0  0  0  0  0  0  0  0
  150.3935  139.8620  157.5441 O   0  0  0  0  0  0  0  0  0  0  0  0
  154.9038  134.2444  159.4958 H   0  0  0  0  0  0  0  0  0  0  0  0
  154.9528  135.9219  160.0591 H   0  0  0  0  0  0  0  0  0  0  0  0
  156.2411  135.3011  159.0190 H   0  0  0  0  0  0  0  0  0  0  0  0
  152.7733  136.8868  156.4882 H   0  0  0  0  0  0  0  0  0  0  0  0
  151.8048  135.4328  156.6987 H   0  0  0  0  0  0  0  0  0  0  0  0
  151.4126  138.1718  158.0066 H   0  0  0  0  0  0  0  0  0  0  0  0
  149.2745  137.7320  160.0256 H   0  0  0  0  0  0  0  0  0  0  0  0
  146.1956  132.1716  161.8633 H   0  0  0  0  0  0  0  0  0  0  0  0
  145.7278  132.7062  163.4628 H   0  0  0  0  0  0  0  0  0  0  0  0
  147.2589  136.8795  163.9659 H   0  0  0  0  0  0  0  0  0  0  0  0
  148.5185  138.5282  158.0141 H   0  0  0  0  0  0  0  0  0  0  0  0
  145.4845  134.9571  157.6908 H   0  0  0  0  0  0  0  0  0  0  0  0
  145.0440  136.3927  156.7536 H   0  0  0  0  0  0  0  0  0  0  0  0
  144.3721  136.1535  158.3725 H   0  0  0  0  0  0  0  0  0  0  0  0
  149.6718  136.2133  156.4532 H   0  0  0  0  0  0  0  0  0  0  0  0
  149.2448  140.5985  154.7815 H   0  0  0  0  0  0  0  0  0  0  0  0
  150.9225  140.1350  154.4584 H   0  0  0  0  0  0  0  0  0  0  0  0
  150.5707  141.4662  155.5690 H   0  0  0  0  0  0  0  0  0  0  0  0
  1  2  1  0  0  0  0
  1 30  1  0  0  0  0
  1 31  1  0  0  0  0
  1 32  1  0  0  0  0
  2  3  2  0  0  0  0
  2  4  1  0  0  0  0
  4  5  1  0  0  0  0
  5  6  1  0  0  0  0
  5 33  1  0  0  0  0
  5 34  1  0  0  0  0
  6 25  1  0  0  0  0
  6  7  1  0  0  0  0
  6 35  1  0  0  0  0
  7  8  1  0  0  0  0
  8  9  1  0  0  0  0
  8 20  1  0  0  0  0
  8 36  1  0  0  0  0
  9 19  1  0  0  0  0
  9 10  1  0  0  0  0
 10 11  1  0  0  0  0
 10 12  2  0  0  0  0
 12 13  1  0  0  0  0
 13 19  2  0  0  0  0
 13 14  1  0  0  0  0
 14 15  1  0  0  0  0
 14 16  2  0  0  0  0
 15 37  1  0  0  0  0
 15 38  1  0  0  0  0
 16 17  1  0  0  0  0
 17 18  2  0  0  0  0
 17 39  1  0  0  0  0
 18 19  1  0  0  0  0
 20 21  1  0  0  0  0
 20 25  1  0  0  0  0
 20 40  1  0  0  0  0
 21 22  1  0  0  0  0
 22 23  1  0  0  0  0
 22 24  2  0  0  0  0
 23 41  1  0  0  0  0
 23 42  1  0  0  0  0
 23 43  1  0  0  0  0
 25 26  1  0  0  0  0
 25 44  1  0  0  0  0
 26 27  1  0  0  0  0
 27 28  1  0  0  0  0
 27 29  2  0  0  0  0
 28 45  1  0  0  0  0
 28 46  1  0  0  0  0
 28 47  1  0  0  0  0
M  END
> <s_m_source_file>
AV-unprocessed.smi

> <i_m_source_file_index>
104

> <i_lp_mmshare_version>
43012

> <i_f3d_flags>
0

> <s_epik_input>
W0NIM11DKD1PKU9bQ0gyXVtDQEBIXTFPW0NASF0oW0NAQEhdKE9DKD1PKVtDSDNdKVtDQEhdMU9DKD1PKVtDSDNdKW4oYyhCciluMiljKGMyMyluW2NIXW5jM1tOSDJd

> <s_epik_cmdline>
J2VwaWtfcHl0aG9uJywgJy1waCcsICc3LjAnLCAnLXRuJywgJzgnLCAnLW1hJywgJzIwMCcsICctbWV0YWxfYmluZGluZycsICctaW1hZScsICc8aW5maWxlLm1hZT4nLCAnLW9tYWUnLCAnPG91dGZpbGUubWFlPic=

> <r_lp_tautomer_probability>
1

> <r_epik_Ionization_Penalty>
7.36622e-05

> <r_epik_Ionization_Penalty_Charging>
0

> <r_epik_Ionization_Penalty_Neutral>
7.36622e-05

> <r_epik_State_Penalty>
-0

> <r_epik_Charging_Adjusted_Penalty>
0

> <i_epik_Tot_Q>
0

> <i_epik_Tot_abs_Q>
0

> <r_epik_Metal_State_Penalty>
-0

> <b_epik_Metal_Only>
0

> <s_epik_Chemistry_Notes>
This compound has an ester and may undergo hydrolysis at high or low pH. This compound contains an acetal/aminal-like group ( X-CH(R)-Y where X, Y are N, S, or O) that may be acid/base labile, releasing an aldehyde.

> <s_lp_Force_Field>
OPLS_2005

> <r_lp_Energy>
16.6292

> <b_lp_Chiralities_Consistent>
1

> <s_lp_Variant>
AV-unprocessed.smi:104-7

> <Gold.Version>
5.8.1

> <Gold.Id.Protein>
6NUR|6NUR_protein|mol2

> <Gold.PLP.Fitness>
44.8753

> <Gold.PLP.PLP>
-33.9293

> <Gold.PLP.part.hbond>
-5.5519

> <Gold.PLP.part.metal>
0.0000

> <Gold.PLP.part.buried>
-7.4161

> <Gold.PLP.part.nonpolar>
-22.0823

> <Gold.PLP.part.repulsive>
0.0563

> <Gold.PLP.ligand.clash>
0.0000

> <Gold.PLP.ligand.torsion>
0.4308

> <Gold.PLP.Chemscore.Hbond>
3.9120

> <Gold.PLP.Chemscore.CHOScore>
0.0000

> <Gold.PLP.Chemscore.Metal>
0.0000

> <Gold.Chemscore.Hbonds>
donor molecule, donor type, donor heavy atom, donor atom, acceptor molecule, acceptor atom, score
      P1  H  6896  6907       L1     7  1.00
      P1  H  6931  6943       L1    18  1.00
      P1  H  6934  6947       L1    24  0.13
      P1  H 10752 10763       L1     3  1.00

> <Gold.PLP.Chemscore.Internal.Correction>
0.0715

> <Gold.Rescore>
     Score         DG    S(hbond)    S(metal)    S(lipo)     H(rot)  DE(clash)    DE(int)     intcor
      4.03      -8.78       3.23        0.00      30.25       4.31       0.22       4.52       ----

> <Gold.Chemscore.Fitness>
4.0283

> <Gold.Chemscore.DG>
-8.7755

> <Gold.Chemscore.ZeroCoef>
-5.4800

> <Gold.Chemscore.Hbond>
3.2283

> <Gold.Chemscore.Metal>
0.0000

> <Gold.Chemscore.Lipo>
30.2460

> <Gold.Chemscore.Internal_Hbond>
0.0000

> <Gold.Chemscore.DEClash>
0.2235

> <Gold.Chemscore.DEInternal>
4.5237

> <Gold.Chemscore.Rot>
4.3070

> <Gold.Chemscore.Internal.Correction>
   9.000000E+99

> <Gold.Chemscore.Hbonds>
donor molecule, donor type, donor heavy atom, donor atom, acceptor molecule, acceptor atom, score
      P1  H  6896  6907       L1     7  0.85
      P1  H  6931  6943       L1    18  0.97
      P1  H  6934  6947       L1    24  0.15
      P1  H 10752 10763       L1     3  1.00

> <Gold.Chemscore.Hbond.Weighted>
-10.7826

> <Gold.Chemscore.Metal.Weighted>
-0.0000

> <Gold.Chemscore.Lipo.Weighted>
-3.5388

> <Gold.Chemscore.Internal_Hbond.Weighted>
0.0000

> <Gold.Chemscore.DEClash.Weighted>
0.2235

> <Gold.Chemscore.DEInternal.Weighted>
4.5237

> <Gold.Chemscore.Rot.Weighted>
11.0259

> <Gold.Chemscore.Internal.Correction.Weighted>
   9.000000E+99

> <Gold.Protein.RotatedTorsions>
[ 6907 6896 6895 6894 ] final  -35.14 input  -60.11 | X-H torsion
[ 7974 7965 7964 7962 ] final  138.01 input  175.53 | X-H torsion
[ 8008 7997 7996 7995 ] final  177.54 input   59.86 | X-H torsion
[ 10167 10162 10161 10158 ] final  131.24 input  -65.29 | X-H torsion
[ 10718 10713 10712 10709 ] final  136.22 input   66.30 | X-H torsion
[ 10763 10752 10751 10750 ] final  172.19 input  -60.55 | X-H torsion
[ 11005 11000 10999 10996 ] final -121.53 input  -57.11 | X-H torsion

> <Gold.Protein.ActiveResidues>
 VAL166  LYS551  ARG553  GLY616  TRP617  ASP618  TYR619  PRO620  LYS621  CYS622 
 ASP623  PHE694  ASN695  SER759  ASP760  ASP761  ALA762  ILE779  LEU786  VAL792 
 PHE793  MET794  SER795  GLU796  ALA797  LYS798  CYS799  TRP800  GLU811  SER814 

> <Gold.Protein.RotatedAtoms>
  151.0436  134.9624  159.8174 H   0  0  0  0  0  0  0  0  0  0  0  0  # atno 6907 bound_to 6896
  152.5368  134.2626  159.8951 H   0  0  0  0  0  0  0  0  0  0  0  0  # atno 6908 bound_to 6896
  151.2639  133.4245  159.2651 H   0  0  0  0  0  0  0  0  0  0  0  0  # atno 6909 bound_to 6896
  144.9413  139.4928  143.5570 H   0  0  0  0  0  0  0  0  0  0  0  0  # atno 7974 bound_to 7965
  156.0645  140.1356  156.9902 H   0  0  0  0  0  0  0  0  0  0  0  0  # atno 8008 bound_to 7997
  154.4499  140.0984  156.6637 H   0  0  0  0  0  0  0  0  0  0  0  0  # atno 8009 bound_to 7997
  155.5325  140.3459  155.4431 H   0  0  0  0  0  0  0  0  0  0  0  0  # atno 8010 bound_to 7997
  139.5393  144.6714  151.4679 H   0  0  0  0  0  0  0  0  0  0  0  0  # atno 10167 bound_to 10162
  157.4490  131.1064  151.0056 H   0  0  0  0  0  0  0  0  0  0  0  0  # atno 10718 bound_to 10713
  154.4225  135.2758  155.1966 H   0  0  0  0  0  0  0  0  0  0  0  0  # atno 10763 bound_to 10752
  154.3905  135.6067  153.5844 H   0  0  0  0  0  0  0  0  0  0  0  0  # atno 10764 bound_to 10752
  152.9833  135.5902  154.4524 H   0  0  0  0  0  0  0  0  0  0  0  0  # atno 10765 bound_to 10752
  141.0063  134.0330  157.3472 H   0  0  0  0  0  0  0  0  0  0  0  0  # atno 11005 bound_to 11000
  146.3286  139.8433  142.8886 LP  0  0  0  0  0  0  0  0  0  0  0  0  # atno 17320 bound_to 7965
  145.2987  141.0188  143.3621 LP  0  0  0  0  0  0  0  0  0  0  0  0  # atno 17321 bound_to 7965
  140.6615  143.8488  150.6893 LP  0  0  0  0  0  0  0  0  0  0  0  0  # atno 17342 bound_to 10162
  140.1884  143.4057  152.1881 LP  0  0  0  0  0  0  0  0  0  0  0  0  # atno 17343 bound_to 10162
  157.0893  130.5935  149.5436 LP  0  0  0  0  0  0  0  0  0  0  0  0  # atno 17370 bound_to 10713
  155.9979  130.5052  150.7551 LP  0  0  0  0  0  0  0  0  0  0  0  0  # atno 17371 bound_to 10713
  139.9065  135.0180  156.7509 LP  0  0  0  0  0  0  0  0  0  0  0  0  # atno 17394 bound_to 11000
  140.6807  133.9477  155.7909 LP  0  0  0  0  0  0  0  0  0  0  0  0  # atno 17395 bound_to 11000

$$$$
