AV-unprocessed.smi:109|AV-procd|sdf|1060|dock7
  -GOLD-   2262018133D 1   1.00000     0.00000
 Structure written by MMmdl.
 58 61  0  0  0  0  0  0  0  0  1 V2000
  150.8018  139.5670  154.3427 O   0  0  0  0  0  0  0  0  0  0  0  0
  151.6639  139.3251  155.4333 C   0  0  0  0  0  0  0  0  0  0  0  0
  151.0889  139.9680  156.7052 C   0  0  0  0  0  0  0  0  0  0  0  0
  150.8708  141.4911  156.5652 C   0  0  1  0  0  0  0  0  0  0  0  0
  149.4486  141.8025  156.7067 N   0  0  0  0  0  0  0  0  0  0  0  0
  148.5408  141.4120  155.7841 C   0  0  0  0  0  0  0  0  0  0  0  0
  148.1675  142.2321  154.7675 N   0  0  0  0  0  0  0  0  0  0  0  0
  147.2733  141.8149  153.8668 C   0  0  0  0  0  0  0  0  0  0  0  0
  146.6464  140.6389  153.7974 N   0  0  0  0  0  0  0  0  0  0  0  0
  147.0175  139.8085  154.8143 C   0  0  0  0  0  0  0  0  0  0  0  0
  147.9504  140.1231  155.8422 C   0  0  0  0  0  0  0  0  0  0  0  0
  148.0774  139.0465  156.7094 N   0  0  0  0  0  0  0  0  0  0  0  0
  147.2688  138.1478  156.2160 C   0  0  0  0  0  0  0  0  0  0  0  0
  146.5920  138.5196  155.0753 N   0  0  0  0  0  0  0  0  0  0  0  0
  145.6165  137.6900  154.2940 C   0  0  2  0  0  0  0  0  0  0  0  0
  145.6338  136.3757  154.7702 O   0  0  0  0  0  0  0  0  0  0  0  0
  146.0090  135.4700  153.7323 C   0  0  1  0  0  0  0  0  0  0  0  0
  145.3113  134.1180  153.9458 C   0  0  0  0  0  0  0  0  0  0  0  0
  143.9346  134.3162  154.1867 O   0  0  0  0  0  0  0  0  0  0  0  0
  145.5576  136.2018  152.4671 C   0  0  2  0  0  0  0  0  0  0  0  0
  146.1766  135.7242  151.2879 O   0  0  0  0  0  0  0  0  0  0  0  0
  145.9175  137.6462  152.7837 C   0  0  2  0  0  0  0  0  0  0  0  0
  147.2653  137.9560  152.4620 O   0  0  0  0  0  0  0  0  0  0  0  0
  151.7231  142.3458  157.5439 C   0  0  0  0  0  0  0  0  0  0  0  0
  151.4312  142.0270  159.0265 C   0  0  0  0  0  0  0  0  0  0  0  0
  152.3607  142.8141  159.9647 C   0  0  0  0  0  0  0  0  0  0  0  0
  152.2596  144.3255  159.7061 C   0  0  0  0  0  0  0  0  0  0  0  0
  152.5488  144.6551  158.2335 C   0  0  0  0  0  0  0  0  0  0  0  0
  151.6217  143.8676  157.2928 C   0  0  0  0  0  0  0  0  0  0  0  0
  144.6429  138.1283  154.5168 H   0  0  0  0  0  0  0  0  0  0  0  0
  147.0940  135.3541  153.7164 H   0  0  0  0  0  0  0  0  0  0  0  0
  144.4750  136.1146  152.3605 H   0  0  0  0  0  0  0  0  0  0  0  0
  145.2693  138.3500  152.2607 H   0  0  0  0  0  0  0  0  0  0  0  0
  150.6858  138.7588  153.8668 H   0  0  0  0  0  0  0  0  0  0  0  0
  151.7755  138.2483  155.5638 H   0  0  0  0  0  0  0  0  0  0  0  0
  152.6490  139.7301  155.2000 H   0  0  0  0  0  0  0  0  0  0  0  0
  150.1515  139.4770  156.9697 H   0  0  0  0  0  0  0  0  0  0  0  0
  151.7794  139.7644  157.5224 H   0  0  0  0  0  0  0  0  0  0  0  0
  151.1789  141.7522  155.5521 H   0  0  0  0  0  0  0  0  0  0  0  0
  149.2069  142.3841  157.4963 H   0  0  0  0  0  0  0  0  0  0  0  0
  147.0267  142.5226  153.0891 H   0  0  0  0  0  0  0  0  0  0  0  0
  147.1449  137.1771  156.6739 H   0  0  0  0  0  0  0  0  0  0  0  0
  145.4570  133.4562  153.0916 H   0  0  0  0  0  0  0  0  0  0  0  0
  145.7260  133.6152  154.8200 H   0  0  0  0  0  0  0  0  0  0  0  0
  143.5515  133.4910  154.4416 H   0  0  0  0  0  0  0  0  0  0  0  0
  147.0902  135.9663  151.3158 H   0  0  0  0  0  0  0  0  0  0  0  0
  147.7226  137.1492  152.2811 H   0  0  0  0  0  0  0  0  0  0  0  0
  152.7658  142.0690  157.3809 H   0  0  0  0  0  0  0  0  0  0  0  0
  150.3984  142.2681  159.2755 H   0  0  0  0  0  0  0  0  0  0  0  0
  151.5517  140.9585  159.2081 H   0  0  0  0  0  0  0  0  0  0  0  0
  152.1097  142.5977  161.0034 H   0  0  0  0  0  0  0  0  0  0  0  0
  153.3908  142.4860  159.8202 H   0  0  0  0  0  0  0  0  0  0  0  0
  151.2607  144.6754  159.9691 H   0  0  0  0  0  0  0  0  0  0  0  0
  152.9559  144.8615  160.3516 H   0  0  0  0  0  0  0  0  0  0  0  0
  152.4301  145.7253  158.0620 H   0  0  0  0  0  0  0  0  0  0  0  0
  153.5887  144.4192  158.0038 H   0  0  0  0  0  0  0  0  0  0  0  0
  151.8780  144.0985  156.2584 H   0  0  0  0  0  0  0  0  0  0  0  0
  150.5963  144.2070  157.4413 H   0  0  0  0  0  0  0  0  0  0  0  0
  1  2  1  0  0  0  0
  1 34  1  0  0  0  0
  2  3  1  0  0  0  0
  2 35  1  0  0  0  0
  2 36  1  0  0  0  0
  3  4  1  0  0  0  0
  3 37  1  0  0  0  0
  3 38  1  0  0  0  0
  4  5  1  0  0  0  0
  4 24  1  0  0  0  0
  4 39  1  0  0  0  0
  5  6  1  0  0  0  0
  5 40  1  0  0  0  0
  6 11  1  0  0  0  0
  6  7  2  0  0  0  0
  7  8  1  0  0  0  0
  8  9  2  0  0  0  0
  8 41  1  0  0  0  0
  9 10  1  0  0  0  0
 10 14  1  0  0  0  0
 10 11  2  0  0  0  0
 11 12  1  0  0  0  0
 12 13  2  0  0  0  0
 13 14  1  0  0  0  0
 13 42  1  0  0  0  0
 14 15  1  0  0  0  0
 15 30  1  0  0  0  0
 15 22  1  0  0  0  0
 15 16  1  0  0  0  0
 16 17  1  0  0  0  0
 17 31  1  0  0  0  0
 17 18  1  0  0  0  0
 17 20  1  0  0  0  0
 18 19  1  0  0  0  0
 18 43  1  0  0  0  0
 18 44  1  0  0  0  0
 19 45  1  0  0  0  0
 20 32  1  0  0  0  0
 20 21  1  0  0  0  0
 20 22  1  0  0  0  0
 21 46  1  0  0  0  0
 22 33  1  0  0  0  0
 22 23  1  0  0  0  0
 23 47  1  0  0  0  0
 24 29  1  0  0  0  0
 24 25  1  0  0  0  0
 24 48  1  0  0  0  0
 25 26  1  0  0  0  0
 25 49  1  0  0  0  0
 25 50  1  0  0  0  0
 26 27  1  0  0  0  0
 26 51  1  0  0  0  0
 26 52  1  0  0  0  0
 27 28  1  0  0  0  0
 27 53  1  0  0  0  0
 27 54  1  0  0  0  0
 28 29  1  0  0  0  0
 28 55  1  0  0  0  0
 28 56  1  0  0  0  0
 29 57  1  0  0  0  0
 29 58  1  0  0  0  0
M  END
> <s_m_source_file>
AV-unprocessed.smi

> <i_m_source_file_index>
109

> <i_lp_mmshare_version>
43012

> <i_f3d_flags>
0

> <s_epik_input>
W0NIMl0xW0NIMl1bQ0gyXVtDSDJdW0NIMl1bQ0hdMVtDQEhdKFtDSDJdW0NIMl1bT0hdKVtOSF1jKG5bY0hdbjIpYyhjMjMpbltjSF1uM1tDQEBIXTRPW0NASF0oW0NIMl1bT0hdKVtDQEBIXShbT0hdKVtDQEhdNFtPSF0=

> <s_epik_cmdline>
J2VwaWtfcHl0aG9uJywgJy1waCcsICc3LjAnLCAnLXRuJywgJzgnLCAnLW1hJywgJzIwMCcsICctbWV0YWxfYmluZGluZycsICctaW1hZScsICc8aW5maWxlLm1hZT4nLCAnLW9tYWUnLCAnPG91dGZpbGUubWFlPic=

> <r_lp_tautomer_probability>
1

> <r_epik_Ionization_Penalty>
0.000793976

> <r_epik_Ionization_Penalty_Charging>
0

> <r_epik_Ionization_Penalty_Neutral>
0.000793976

> <r_epik_State_Penalty>
-0

> <r_epik_Charging_Adjusted_Penalty>
0

> <i_epik_Tot_Q>
0

> <i_epik_Tot_abs_Q>
0

> <r_epik_Metal_State_Penalty>
-0

> <b_epik_Metal_Only>
0

> <s_epik_Chemistry_Notes>
This compound contains an acetal/aminal-like group ( X-CH(R)-Y where X, Y are N, S, or O) that may be acid/base labile, releasing an aldehyde.

> <s_lp_Force_Field>
OPLS_2005

> <r_lp_Energy>
62.1287

> <b_lp_Chiralities_Consistent>
1

> <s_lp_Variant>
AV-unprocessed.smi:109-30

> <Gold.Version>
5.8.1

> <Gold.Id.Protein>
6NUR|6NUR_protein|mol2

> <Gold.PLP.Fitness>
50.0322

> <Gold.PLP.PLP>
-41.2896

> <Gold.PLP.part.hbond>
-4.8687

> <Gold.PLP.part.metal>
0.0000

> <Gold.PLP.part.buried>
-6.9278

> <Gold.PLP.part.nonpolar>
-33.4408

> <Gold.PLP.part.repulsive>
3.2034

> <Gold.PLP.ligand.clash>
0.0000

> <Gold.PLP.ligand.torsion>
1.8467

> <Gold.PLP.Chemscore.Hbond>
4.0000

> <Gold.PLP.Chemscore.CHOScore>
0.0000

> <Gold.PLP.Chemscore.Metal>
0.0000

> <Gold.Chemscore.Hbonds>
donor molecule, donor type, donor heavy atom, donor atom, acceptor molecule, acceptor atom, score
      L1  H    19    45       P1 10957  1.00
      L1  H    21    46       P1  7948  1.00
      L1  H    23    47       P1  7948  1.00
      P1  H  7989  7998       L1     1  1.00

> <Gold.PLP.Chemscore.Internal.Correction>
0.4361

> <Gold.Rescore>
     Score         DG    S(hbond)    S(metal)    S(lipo)     H(rot)  DE(clash)    DE(int)     intcor
     12.18     -15.31       3.59        0.00     101.13       5.47       1.43       1.70       ----

> <Gold.Chemscore.Fitness>
12.1832

> <Gold.Chemscore.DG>
-15.3148

> <Gold.Chemscore.ZeroCoef>
-5.4800

> <Gold.Chemscore.Hbond>
3.5916

> <Gold.Chemscore.Metal>
0.0000

> <Gold.Chemscore.Lipo>
101.1325

> <Gold.Chemscore.Internal_Hbond>
0.0000

> <Gold.Chemscore.DEClash>
1.4267

> <Gold.Chemscore.DEInternal>
1.7050

> <Gold.Chemscore.Rot>
5.4662

> <Gold.Chemscore.Internal.Correction>
   9.000000E+99

> <Gold.Chemscore.Hbonds>
donor molecule, donor type, donor heavy atom, donor atom, acceptor molecule, acceptor atom, score
      L1  H    19    45       P1 10957  0.98
      L1  H    21    46       P1  7948  0.99
      L1  H    23    47       P1  7948  0.96
      P1  H  7989  7998       L1     1  0.32

> <Gold.Chemscore.Hbond.Weighted>
-11.9958

> <Gold.Chemscore.Metal.Weighted>
-0.0000

> <Gold.Chemscore.Lipo.Weighted>
-11.8325

> <Gold.Chemscore.Internal_Hbond.Weighted>
0.0000

> <Gold.Chemscore.DEClash.Weighted>
1.4267

> <Gold.Chemscore.DEInternal.Weighted>
1.7050

> <Gold.Chemscore.Rot.Weighted>
13.9935

> <Gold.Chemscore.Internal.Correction.Weighted>
   9.000000E+99

> <Gold.Protein.RotatedTorsions>
[ 6907 6896 6895 6894 ] final  159.17 input  -60.11 | X-H torsion
[ 7974 7965 7964 7962 ] final  141.91 input  175.53 | X-H torsion
[ 8008 7997 7996 7995 ] final  -11.27 input   59.86 | X-H torsion
[ 10167 10162 10161 10158 ] final   39.95 input  -65.29 | X-H torsion
[ 10718 10713 10712 10709 ] final -128.63 input   66.30 | X-H torsion
[ 10763 10752 10751 10750 ] final  125.27 input  -60.55 | X-H torsion
[ 11005 11000 10999 10996 ] final  122.30 input  -57.11 | X-H torsion

> <Gold.Protein.ActiveResidues>
 VAL166  LYS551  ARG553  GLY616  TRP617  ASP618  TYR619  PRO620  LYS621  CYS622 
 ASP623  PHE694  ASN695  SER759  ASP760  ASP761  ALA762  ILE779  LEU786  VAL792 
 PHE793  MET794  SER795  GLU796  ALA797  LYS798  CYS799  TRP800  GLU811  SER814 

> <Gold.Protein.RotatedAtoms>
  151.9895  133.3786  159.4138 H   0  0  0  0  0  0  0  0  0  0  0  0  # atno 6907 bound_to 6896
  150.6923  134.3952  159.5103 H   0  0  0  0  0  0  0  0  0  0  0  0  # atno 6908 bound_to 6896
  152.1683  134.8855  160.0587 H   0  0  0  0  0  0  0  0  0  0  0  0  # atno 6909 bound_to 6896
  144.9054  139.5366  143.5734 H   0  0  0  0  0  0  0  0  0  0  0  0  # atno 7974 bound_to 7965
  154.5480  140.2307  155.8532 H   0  0  0  0  0  0  0  0  0  0  0  0  # atno 8008 bound_to 7997
  156.1920  140.3074  155.9313 H   0  0  0  0  0  0  0  0  0  0  0  0  # atno 8009 bound_to 7997
  155.3127  140.0436  157.3026 H   0  0  0  0  0  0  0  0  0  0  0  0  # atno 8010 bound_to 7997
  140.3789  144.2005  150.6131 H   0  0  0  0  0  0  0  0  0  0  0  0  # atno 10167 bound_to 10162
  156.1969  130.6832  151.0492 H   0  0  0  0  0  0  0  0  0  0  0  0  # atno 10718 bound_to 10713
  153.6747  135.3324  155.3162 H   0  0  0  0  0  0  0  0  0  0  0  0  # atno 10763 bound_to 10752
  154.8482  135.4394  154.1669 H   0  0  0  0  0  0  0  0  0  0  0  0  # atno 10764 bound_to 10752
  153.2669  135.6996  153.7597 H   0  0  0  0  0  0  0  0  0  0  0  0  # atno 10765 bound_to 10752
  139.9262  134.9641  156.8089 H   0  0  0  0  0  0  0  0  0  0  0  0  # atno 11005 bound_to 11000
  146.3131  139.7817  142.9005 LP  0  0  0  0  0  0  0  0  0  0  0  0  # atno 17320 bound_to 7965
  145.3545  141.0314  143.3320 LP  0  0  0  0  0  0  0  0  0  0  0  0  # atno 17321 bound_to 7965
  140.4957  143.2333  151.8753 LP  0  0  0  0  0  0  0  0  0  0  0  0  # atno 17342 bound_to 10162
  139.4797  144.5116  151.8925 LP  0  0  0  0  0  0  0  0  0  0  0  0  # atno 17343 bound_to 10162
  157.6963  131.0793  150.6960 LP  0  0  0  0  0  0  0  0  0  0  0  0  # atno 17370 bound_to 10713
  156.7017  130.4625  149.5571 LP  0  0  0  0  0  0  0  0  0  0  0  0  # atno 17371 bound_to 10713
  140.6329  133.9889  155.7670 LP  0  0  0  0  0  0  0  0  0  0  0  0  # atno 17394 bound_to 11000
  141.0822  134.0045  157.3369 LP  0  0  0  0  0  0  0  0  0  0  0  0  # atno 17395 bound_to 11000

$$$$
