AV-unprocessed.smi:2995|AV-procd|sdf|11406|dock3
  -GOLD-   2272016333D 1   1.00000     0.00000
 Structure written by MMmdl.
 49 51  0  0  0  0  0  0  0  0  2 V2000
  147.8760  133.0434  152.8200 C   0  0  0  0  0  0  0  0  0  0  0  0
  148.7755  132.5598  153.9438 C   0  0  0  0  0  0  0  0  0  0  0  0
  148.8438  131.1838  154.2454 C   0  0  0  0  0  0  0  0  0  0  0  0
  149.6870  130.7620  155.2910 C   0  0  0  0  0  0  0  0  0  0  0  0
  150.4431  131.6088  156.0189 N   0  0  0  0  0  0  0  0  0  0  0  0
  150.3749  132.9258  155.7307 C   0  0  0  0  0  0  0  0  0  0  0  0
  149.5492  133.4633  154.7116 C   0  0  0  0  0  0  0  0  0  0  0  0
  149.5052  134.8515  154.4040 N   0  0  0  0  0  0  0  0  0  0  0  0
  150.0245  135.8701  155.1099 C   0  0  0  0  0  0  0  0  0  0  0  0
  150.6398  135.7588  156.1703 O   0  0  0  0  0  0  0  0  0  0  0  0
  149.7659  137.0498  154.5268 N   0  0  0  0  0  0  0  0  0  0  0  0
  150.1621  138.3502  155.0600 C   0  0  2  0  0  0  0  0  0  0  0  0
  151.6889  138.5216  155.0068 C   0  0  0  0  0  0  0  0  0  0  0  0
  152.1206  139.8528  155.6424 C   0  0  0  0  0  0  0  0  0  0  0  0
  151.6419  139.9733  157.0480 N   0  3  1  0  0  0  0  0  0  0  0  0
  152.1400  141.2074  157.7228 C   0  0  0  0  0  0  0  0  0  0  0  0
  152.0443  141.1539  159.2555 C   0  0  0  0  0  0  0  0  0  0  0  0
  152.0676  142.6136  159.7235 C   0  0  0  0  0  0  0  0  0  0  0  0
  151.6679  143.4614  158.5086 C   0  0  0  0  0  0  0  0  0  0  0  0
  151.3289  142.4692  157.3933 C   0  0  0  0  0  0  0  0  0  0  0  0
  150.1609  139.8250  157.1220 C   0  0  0  0  0  0  0  0  0  0  0  0
  149.6913  138.4922  156.5139 C   0  0  0  0  0  0  0  0  0  0  0  0
  147.3393  132.2151  152.3566 H   0  0  0  0  0  0  0  0  0  0  0  0
  148.4651  133.5383  152.0476 H   0  0  0  0  0  0  0  0  0  0  0  0
  147.1389  133.7510  153.2005 H   0  0  0  0  0  0  0  0  0  0  0  0
  148.2638  130.4618  153.6896 H   0  0  0  0  0  0  0  0  0  0  0  0
  149.7607  129.7149  155.5453 H   0  0  0  0  0  0  0  0  0  0  0  0
  151.0215  133.5523  156.3254 H   0  0  0  0  0  0  0  0  0  0  0  0
  148.9439  135.1015  153.6032 H   0  0  0  0  0  0  0  0  0  0  0  0
  149.2526  137.0481  153.6573 H   0  0  0  0  0  0  0  0  0  0  0  0
  149.6911  139.1380  154.4685 H   0  0  0  0  0  0  0  0  0  0  0  0
  152.1751  137.6954  155.5281 H   0  0  0  0  0  0  0  0  0  0  0  0
  152.0377  138.4823  153.9741 H   0  0  0  0  0  0  0  0  0  0  0  0
  153.2077  139.9083  155.6007 H   0  0  0  0  0  0  0  0  0  0  0  0
  151.7386  140.6894  155.0551 H   0  0  0  0  0  0  0  0  0  0  0  0
  153.1810  141.3745  157.4392 H   0  0  0  0  0  0  0  0  0  0  0  0
  151.0993  140.6969  159.5535 H   0  0  0  0  0  0  0  0  0  0  0  0
  152.8493  140.5755  159.7098 H   0  0  0  0  0  0  0  0  0  0  0  0
  151.3902  142.7665  160.5647 H   0  0  0  0  0  0  0  0  0  0  0  0
  153.0680  142.8917  160.0574 H   0  0  0  0  0  0  0  0  0  0  0  0
  150.8306  144.1253  158.7263 H   0  0  0  0  0  0  0  0  0  0  0  0
  152.5093  144.0864  158.2064 H   0  0  0  0  0  0  0  0  0  0  0  0
  151.5594  142.8800  156.4098 H   0  0  0  0  0  0  0  0  0  0  0  0
  150.2613  142.2452  157.4201 H   0  0  0  0  0  0  0  0  0  0  0  0
  149.8230  139.8589  158.1570 H   0  0  0  0  0  0  0  0  0  0  0  0
  149.6855  140.6611  156.6065 H   0  0  0  0  0  0  0  0  0  0  0  0
  148.6034  138.4304  156.5618 H   0  0  0  0  0  0  0  0  0  0  0  0
  150.0753  137.6651  157.1133 H   0  0  0  0  0  0  0  0  0  0  0  0
  152.0348  139.1930  157.5551 H   0  0  0  0  0  0  0  0  0  0  0  0
  1  2  1  0  0  0  0
  1 23  1  0  0  0  0
  1 24  1  0  0  0  0
  1 25  1  0  0  0  0
  2  7  1  0  0  0  0
  2  3  2  0  0  0  0
  3  4  1  0  0  0  0
  3 26  1  0  0  0  0
  4  5  2  0  0  0  0
  4 27  1  0  0  0  0
  5  6  1  0  0  0  0
  6  7  2  0  0  0  0
  6 28  1  0  0  0  0
  7  8  1  0  0  0  0
  8  9  1  0  0  0  0
  8 29  1  0  0  0  0
  9 10  2  0  0  0  0
  9 11  1  0  0  0  0
 11 12  1  0  0  0  0
 11 30  1  0  0  0  0
 12 22  1  0  0  0  0
 12 13  1  0  0  0  0
 12 31  1  0  0  0  0
 13 14  1  0  0  0  0
 13 32  1  0  0  0  0
 13 33  1  0  0  0  0
 14 15  1  0  0  0  0
 14 34  1  0  0  0  0
 14 35  1  0  0  0  0
 15 16  1  0  0  0  0
 15 21  1  0  0  0  0
 15 49  1  0  0  0  0
 16 20  1  0  0  0  0
 16 17  1  0  0  0  0
 16 36  1  0  0  0  0
 17 18  1  0  0  0  0
 17 37  1  0  0  0  0
 17 38  1  0  0  0  0
 18 19  1  0  0  0  0
 18 39  1  0  0  0  0
 18 40  1  0  0  0  0
 19 20  1  0  0  0  0
 19 41  1  0  0  0  0
 19 42  1  0  0  0  0
 20 43  1  0  0  0  0
 20 44  1  0  0  0  0
 21 22  1  0  0  0  0
 21 45  1  0  0  0  0
 21 46  1  0  0  0  0
 22 47  1  0  0  0  0
 22 48  1  0  0  0  0
M  CHG  1  15   1
M  END
> <s_m_source_file>
AV-unprocessed.smi

> <i_m_source_file_index>
2995

> <i_lp_mmshare_version>
43012

> <i_f3d_flags>
0

> <s_epik_input>
W0NIM11jMVtjSF1bY0hdbltjSF1jMVtOSF1DKD1PKVtOSF1bQ0hdMltDSDJdW0NIMl1OKFtDSDJdW0NIMl0yKVtDSF0zW0NIMl1bQ0gyXVtDSDJdW0NIMl0z

> <s_epik_cmdline>
J2VwaWtfcHl0aG9uJywgJy1waCcsICc3LjAnLCAnLXRuJywgJzgnLCAnLW1hJywgJzIwMCcsICctbWV0YWxfYmluZGluZycsICctaW1hZScsICc8aW5maWxlLm1hZT4nLCAnLW9tYWUnLCAnPG91dGZpbGUubWFlPic=

> <r_epik_Ionization_Penalty>
0.0196897

> <r_epik_Ionization_Penalty_Charging>
0.00179121

> <r_epik_Ionization_Penalty_Neutral>
0.0178985

> <r_epik_State_Penalty>
0.014187

> <r_epik_Charging_Adjusted_Penalty>
0.0159782

> <i_epik_Tot_Q>
1

> <i_epik_Tot_abs_Q>
1

> <r_epik_Metal_State_Penalty>
0.013703

> <b_epik_Metal_Only>
0

> <s_lp_Force_Field>
OPLS_2005

> <r_lp_Energy>
41.253

> <b_lp_Chiralities_Consistent>
1

> <s_lp_Variant>
AV-unprocessed.smi:2995-1

> <Gold.Version>
5.8.1

> <Gold.Id.Protein>
6NUR|6NUR_protein|mol2

> <Gold.PLP.Fitness>
44.1292

> <Gold.PLP.PLP>
-39.1884

> <Gold.PLP.part.hbond>
-2.0000

> <Gold.PLP.part.metal>
0.0000

> <Gold.PLP.part.buried>
-4.7574

> <Gold.PLP.part.nonpolar>
-31.3974

> <Gold.PLP.part.repulsive>
0.2103

> <Gold.PLP.ligand.clash>
0.0000

> <Gold.PLP.ligand.torsion>
0.3536

> <Gold.PLP.Chemscore.Hbond>
1.8720

> <Gold.PLP.Chemscore.CHOScore>
0.0000

> <Gold.PLP.Chemscore.Metal>
0.0000

> <Gold.Chemscore.Hbonds>
donor molecule, donor type, donor heavy atom, donor atom, acceptor molecule, acceptor atom, score
      L1  H     8    29       P1  7948  0.83
      L1  H    11    30       P1  7948  0.94

> <Gold.PLP.Chemscore.Internal.Correction>
0.0320

> <Gold.Rescore>
     Score         DG    S(hbond)    S(metal)    S(lipo)     H(rot)  DE(clash)    DE(int)     intcor
     16.35     -19.19       1.32        0.00     105.02       1.17       0.06       2.78       ----

> <Gold.Chemscore.Fitness>
16.3461

> <Gold.Chemscore.DG>
-19.1897

> <Gold.Chemscore.ZeroCoef>
-5.4800

> <Gold.Chemscore.Hbond>
1.3249

> <Gold.Chemscore.Metal>
0.0000

> <Gold.Chemscore.Lipo>
105.0225

> <Gold.Chemscore.Internal_Hbond>
0.0000

> <Gold.Chemscore.DEClash>
0.0635

> <Gold.Chemscore.DEInternal>
2.7801

> <Gold.Chemscore.Rot>
1.1731

> <Gold.Chemscore.Internal.Correction>
   9.000000E+99

> <Gold.Chemscore.Hbonds>
donor molecule, donor type, donor heavy atom, donor atom, acceptor molecule, acceptor atom, score
      L1  H     8    29       P1  7948  0.42
      L1  H    11    30       P1  7948  0.89

> <Gold.Chemscore.Hbond.Weighted>
-4.4251

> <Gold.Chemscore.Metal.Weighted>
-0.0000

> <Gold.Chemscore.Lipo.Weighted>
-12.2876

> <Gold.Chemscore.Internal_Hbond.Weighted>
0.0000

> <Gold.Chemscore.DEClash.Weighted>
0.0635

> <Gold.Chemscore.DEInternal.Weighted>
2.7801

> <Gold.Chemscore.Rot.Weighted>
3.0030

> <Gold.Chemscore.Internal.Correction.Weighted>
   9.000000E+99

> <Gold.Protein.RotatedTorsions>
[ 6907 6896 6895 6894 ] final   10.80 input  -60.11 | X-H torsion
[ 7974 7965 7964 7962 ] final  156.08 input  175.53 | X-H torsion
[ 8008 7997 7996 7995 ] final -165.03 input   59.86 | X-H torsion
[ 10167 10162 10161 10158 ] final  147.16 input  -65.29 | X-H torsion
[ 10718 10713 10712 10709 ] final -103.18 input   66.30 | X-H torsion
[ 10763 10752 10751 10750 ] final  122.21 input  -60.55 | X-H torsion
[ 11005 11000 10999 10996 ] final   71.64 input  -57.11 | X-H torsion

> <Gold.Protein.ActiveResidues>
 VAL166  LYS551  ARG553  GLY616  TRP617  ASP618  TYR619  PRO620  LYS621  CYS622 
 ASP623  PHE694  ASN695  SER759  ASP760  ASP761  ALA762  ILE779  LEU786  VAL792 
 PHE793  MET794  SER795  GLU796  ALA797  LYS798  CYS799  TRP800  GLU811  SER814 

> <Gold.Protein.RotatedAtoms>
  151.7441  135.0847  160.0320 H   0  0  0  0  0  0  0  0  0  0  0  0  # atno 6907 bound_to 6896
  152.3460  133.6118  159.5918 H   0  0  0  0  0  0  0  0  0  0  0  0  # atno 6908 bound_to 6896
  150.7509  133.9565  159.3544 H   0  0  0  0  0  0  0  0  0  0  0  0  # atno 6909 bound_to 6896
  144.7985  139.7155  143.6192 H   0  0  0  0  0  0  0  0  0  0  0  0  # atno 7974 bound_to 7965
  155.8440  140.0953  157.1716 H   0  0  0  0  0  0  0  0  0  0  0  0  # atno 8008 bound_to 7997
  154.3983  140.1395  156.3825 H   0  0  0  0  0  0  0  0  0  0  0  0  # atno 8009 bound_to 7997
  155.8033  140.3452  155.5418 H   0  0  0  0  0  0  0  0  0  0  0  0  # atno 8010 bound_to 7997
  139.4894  144.5776  151.6935 H   0  0  0  0  0  0  0  0  0  0  0  0  # atno 10167 bound_to 10162
  156.0255  130.5455  150.7215 H   0  0  0  0  0  0  0  0  0  0  0  0  # atno 10718 bound_to 10713
  153.6261  135.3404  155.3027 H   0  0  0  0  0  0  0  0  0  0  0  0  # atno 10763 bound_to 10752
  154.8590  135.4284  154.2155 H   0  0  0  0  0  0  0  0  0  0  0  0  # atno 10764 bound_to 10752
  153.3040  135.7026  153.7250 H   0  0  0  0  0  0  0  0  0  0  0  0  # atno 10765 bound_to 10752
  139.9533  134.7189  156.0812 H   0  0  0  0  0  0  0  0  0  0  0  0  # atno 11005 bound_to 11000
  146.2260  139.5724  142.9587 LP  0  0  0  0  0  0  0  0  0  0  0  0  # atno 17320 bound_to 7965
  145.5612  141.0404  143.2225 LP  0  0  0  0  0  0  0  0  0  0  0  0  # atno 17321 bound_to 7965
  140.5375  144.0632  150.6076 LP  0  0  0  0  0  0  0  0  0  0  0  0  # atno 17342 bound_to 10162
  140.3643  143.2890  152.0349 LP  0  0  0  0  0  0  0  0  0  0  0  0  # atno 17343 bound_to 10162
  157.4829  131.0904  151.0515 LP  0  0  0  0  0  0  0  0  0  0  0  0  # atno 17370 bound_to 10713
  157.0943  130.5955  149.5446 LP  0  0  0  0  0  0  0  0  0  0  0  0  # atno 17371 bound_to 10713
  141.1199  133.6616  156.3189 LP  0  0  0  0  0  0  0  0  0  0  0  0  # atno 17394 bound_to 11000
  140.5669  134.5879  157.5448 LP  0  0  0  0  0  0  0  0  0  0  0  0  # atno 17395 bound_to 11000

$$$$
