AV-unprocessed.smi:1986|AV-procd|sdf|8053|dock8
  -GOLD-   2272010253D 1   1.00000     0.00000
 Structure written by MMmdl.
 48 49  0  0  0  0  0  0  0  0  2 V2000
  148.3794  140.6836  155.7955 C   0  0  0  0  0  0  0  0  0  0  0  0
  147.4719  139.4442  155.6843 C   0  0  0  0  0  0  0  0  0  0  0  0
  147.5715  138.5913  154.3746 C   0  0  2  0  0  0  0  0  0  0  0  0
  147.4271  139.5338  153.1547 C   0  0  0  0  0  0  0  0  0  0  0  0
  146.4068  137.5542  154.3505 C   0  0  0  0  0  0  0  0  0  0  0  0
  146.4532  136.7155  153.1559 N   0  0  0  0  0  0  0  0  0  0  0  0
  145.4787  135.9067  152.7083 C   0  0  0  0  0  0  0  0  0  0  0  0
  144.4420  135.6929  153.3346 O   0  0  0  0  0  0  0  0  0  0  0  0
  145.6626  135.2796  151.3159 C   0  0  0  0  0  0  0  0  0  0  0  0
  145.5448  133.8113  151.2925 N   0  0  0  0  0  0  0  0  0  0  0  0
  144.4541  133.3407  150.5783 N   0  0  0  0  0  0  0  0  0  0  0  0
  144.2329  132.0720  150.4997 C   0  0  0  0  0  0  0  0  0  0  0  0
  143.1392  131.6495  149.7847 O   0  0  0  0  0  0  0  0  0  0  0  0
  145.1081  131.1184  151.1457 C   0  0  0  0  0  0  0  0  0  0  0  0
  146.1687  131.5858  151.8397 C   0  0  0  0  0  0  0  0  0  0  0  0
  146.4450  133.0185  151.9536 C   0  0  0  0  0  0  0  0  0  0  0  0
  147.3858  133.4741  152.6038 O   0  0  0  0  0  0  0  0  0  0  0  0
  148.8920  137.8537  154.3293 N   0  3  0  0  0  0  0  0  0  0  0  0
  150.1078  138.7151  154.2832 C   0  0  0  0  0  0  0  0  0  0  0  0
  151.3536  137.8681  153.9884 C   0  0  0  0  0  0  0  0  0  0  0  0
  151.5049  136.8994  155.0154 O   0  0  0  0  0  0  0  0  0  0  0  0
  150.4017  136.0062  155.0584 C   0  0  0  0  0  0  0  0  0  0  0  0
  149.0975  136.7756  155.3390 C   0  0  0  0  0  0  0  0  0  0  0  0
  142.5024  132.3433  149.8623 H   0  0  0  0  0  0  0  0  0  0  0  0
  148.2783  141.1343  156.7829 H   0  0  0  0  0  0  0  0  0  0  0  0
  148.1125  141.4535  155.0720 H   0  0  0  0  0  0  0  0  0  0  0  0
  149.4322  140.4384  155.6615 H   0  0  0  0  0  0  0  0  0  0  0  0
  147.7068  138.8164  156.5442 H   0  0  0  0  0  0  0  0  0  0  0  0
  146.4437  139.7786  155.8282 H   0  0  0  0  0  0  0  0  0  0  0  0
  146.4951  140.0967  153.1890 H   0  0  0  0  0  0  0  0  0  0  0  0
  147.4110  138.9887  152.2112 H   0  0  0  0  0  0  0  0  0  0  0  0
  148.2399  140.2587  153.1061 H   0  0  0  0  0  0  0  0  0  0  0  0
  146.4560  136.8997  155.2199 H   0  0  0  0  0  0  0  0  0  0  0  0
  145.4339  138.0348  154.4468 H   0  0  0  0  0  0  0  0  0  0  0  0
  147.2747  136.8109  152.5758 H   0  0  0  0  0  0  0  0  0  0  0  0
  144.9271  135.7298  150.6467 H   0  0  0  0  0  0  0  0  0  0  0  0
  146.6361  135.5740  150.9199 H   0  0  0  0  0  0  0  0  0  0  0  0
  144.9118  130.0591  151.0686 H   0  0  0  0  0  0  0  0  0  0  0  0
  146.8303  130.8845  152.3266 H   0  0  0  0  0  0  0  0  0  0  0  0
  150.0295  139.4873  153.5218 H   0  0  0  0  0  0  0  0  0  0  0  0
  150.2469  139.2236  155.2377 H   0  0  0  0  0  0  0  0  0  0  0  0
  151.2800  137.3861  153.0118 H   0  0  0  0  0  0  0  0  0  0  0  0
  152.2417  138.5002  153.9676 H   0  0  0  0  0  0  0  0  0  0  0  0
  150.3342  135.4563  154.1188 H   0  0  0  0  0  0  0  0  0  0  0  0
  150.5772  135.2692  155.8422 H   0  0  0  0  0  0  0  0  0  0  0  0
  149.1224  137.2053  156.3411 H   0  0  0  0  0  0  0  0  0  0  0  0
  148.2951  136.0407  155.3201 H   0  0  0  0  0  0  0  0  0  0  0  0
  148.8752  137.3698  153.4425 H   0  0  0  0  0  0  0  0  0  0  0  0
  1  2  1  0  0  0  0
  1 25  1  0  0  0  0
  1 26  1  0  0  0  0
  1 27  1  0  0  0  0
  2  3  1  0  0  0  0
  2 28  1  0  0  0  0
  2 29  1  0  0  0  0
  3  4  1  0  0  0  0
  3  5  1  0  0  0  0
  3 18  1  0  0  0  0
  4 30  1  0  0  0  0
  4 31  1  0  0  0  0
  4 32  1  0  0  0  0
  5  6  1  0  0  0  0
  5 33  1  0  0  0  0
  5 34  1  0  0  0  0
  6  7  1  0  0  0  0
  6 35  1  0  0  0  0
  7  8  2  0  0  0  0
  7  9  1  0  0  0  0
  9 36  1  0  0  0  0
  9 37  1  0  0  0  0
  9 10  1  0  0  0  0
 10 11  1  0  0  0  0
 10 16  1  0  0  0  0
 11 12  2  0  0  0  0
 12 13  1  0  0  0  0
 12 14  1  0  0  0  0
 13 24  1  0  0  0  0
 14 38  1  0  0  0  0
 14 15  2  0  0  0  0
 15 39  1  0  0  0  0
 15 16  1  0  0  0  0
 16 17  2  0  0  0  0
 18 23  1  0  0  0  0
 18 19  1  0  0  0  0
 18 48  1  0  0  0  0
 19 20  1  0  0  0  0
 19 40  1  0  0  0  0
 19 41  1  0  0  0  0
 20 21  1  0  0  0  0
 20 42  1  0  0  0  0
 20 43  1  0  0  0  0
 21 22  1  0  0  0  0
 22 23  1  0  0  0  0
 22 44  1  0  0  0  0
 22 45  1  0  0  0  0
 23 46  1  0  0  0  0
 23 47  1  0  0  0  0
M  CHG  1  18   1
M  END
> <s_m_source_file>
AV-unprocessed.smi

> <i_m_source_file_index>
1986

> <i_lp_mmshare_version>
43012

> <i_f3d_flags>
0

> <s_epik_input>
W0NIMl0xW0NIMl1PW0NIMl1bQ0gyXU4xW0NAQF0oW0NIM10pKFtDSDJdW0NIM10pW0NIMl1bTkhdQyg9TylbQ0gyXW4yW25IXWMoPU8pW2NIXVtjSF1jMj1P

> <s_epik_cmdline>
J2VwaWtfcHl0aG9uJywgJy1waCcsICc3LjAnLCAnLXRuJywgJzgnLCAnLW1hJywgJzIwMCcsICctbWV0YWxfYmluZGluZycsICctaW1hZScsICc8aW5maWxlLm1hZT4nLCAnLW9tYWUnLCAnPG91dGZpbGUubWFlPic=

> <r_lp_tautomer_probability>
0.9996

> <r_epik_Ionization_Penalty>
2.73198

> <r_epik_Ionization_Penalty_Charging>
0.519658

> <r_epik_Ionization_Penalty_Neutral>
2.21233

> <r_epik_State_Penalty>
2.2852

> <r_epik_Charging_Adjusted_Penalty>
2.80486

> <i_epik_Tot_Q>
1

> <i_epik_Tot_abs_Q>
1

> <r_epik_Metal_State_Penalty>
2.2852

> <b_epik_Metal_Only>
0

> <s_lp_Force_Field>
OPLS_2005

> <r_lp_Energy>
41.4304

> <b_lp_Chiralities_Consistent>
1

> <s_lp_Variant>
AV-unprocessed.smi:1986-8

> <Gold.Version>
5.8.1

> <Gold.Id.Protein>
6NUR|6NUR_protein|mol2

> <Gold.PLP.Fitness>
53.2010

> <Gold.PLP.PLP>
-36.0780

> <Gold.PLP.part.hbond>
-5.8657

> <Gold.PLP.part.metal>
0.0000

> <Gold.PLP.part.buried>
-6.2535

> <Gold.PLP.part.nonpolar>
-25.7445

> <Gold.PLP.part.repulsive>
0.5780

> <Gold.PLP.ligand.clash>
0.0000

> <Gold.PLP.ligand.torsion>
0.2490

> <Gold.PLP.Chemscore.Hbond>
5.8038

> <Gold.PLP.Chemscore.CHOScore>
0.0000

> <Gold.PLP.Chemscore.Metal>
0.0000

> <Gold.Chemscore.Hbonds>
donor molecule, donor type, donor heavy atom, donor atom, acceptor molecule, acceptor atom, score
      L1  H     6    35       P1  7948  1.00
      L1  H    18    48       P1  7948  2.00
      P1  H 10752 10764       L1    21  0.95
      P1  H 10785 10796       L1    13  1.00

> <Gold.PLP.Chemscore.Internal.Correction>
0.2098

> <Gold.Rescore>
     Score         DG    S(hbond)    S(metal)    S(lipo)     H(rot)  DE(clash)    DE(int)     intcor
     16.56     -18.83       4.17        0.00      63.96       3.15       1.73       0.54       ----

> <Gold.Chemscore.Fitness>
16.5554

> <Gold.Chemscore.DG>
-18.8271

> <Gold.Chemscore.ZeroCoef>
-5.4800

> <Gold.Chemscore.Hbond>
4.1690

> <Gold.Chemscore.Metal>
0.0000

> <Gold.Chemscore.Lipo>
63.9558

> <Gold.Chemscore.Internal_Hbond>
0.0000

> <Gold.Chemscore.DEClash>
1.7336

> <Gold.Chemscore.DEInternal>
0.5380

> <Gold.Chemscore.Rot>
3.1485

> <Gold.Chemscore.Internal.Correction>
   9.000000E+99

> <Gold.Chemscore.Hbonds>
donor molecule, donor type, donor heavy atom, donor atom, acceptor molecule, acceptor atom, score
      L1  H     6    35       P1  7948  0.98
      L1  H    18    48       P1  7948  0.99
      P1  H 10752 10764       L1    21  0.15
      P1  H 10785 10796       L1    13  0.98

> <Gold.Chemscore.Hbond.Weighted>
-13.9244

> <Gold.Chemscore.Metal.Weighted>
-0.0000

> <Gold.Chemscore.Lipo.Weighted>
-7.4828

> <Gold.Chemscore.Internal_Hbond.Weighted>
0.0000

> <Gold.Chemscore.DEClash.Weighted>
1.7336

> <Gold.Chemscore.DEInternal.Weighted>
0.5380

> <Gold.Chemscore.Rot.Weighted>
8.0601

> <Gold.Chemscore.Internal.Correction.Weighted>
   9.000000E+99

> <Gold.Protein.RotatedTorsions>
[ 6907 6896 6895 6894 ] final  177.75 input  -60.11 | X-H torsion
[ 7974 7965 7964 7962 ] final -140.56 input  175.53 | X-H torsion
[ 8008 7997 7996 7995 ] final   21.53 input   59.86 | X-H torsion
[ 10167 10162 10161 10158 ] final   33.36 input  -65.29 | X-H torsion
[ 10718 10713 10712 10709 ] final   36.72 input   66.30 | X-H torsion
[ 10763 10752 10751 10750 ] final  -66.27 input  -60.55 | X-H torsion
[ 11005 11000 10999 10996 ] final  146.46 input  -57.11 | X-H torsion

> <Gold.Protein.ActiveResidues>
 VAL166  LYS551  ARG553  GLY616  TRP617  ASP618  TYR619  PRO620  LYS621  CYS622 
 ASP623  PHE694  ASN695  SER759  ASP760  ASP761  ALA762  ILE779  LEU786  VAL792 
 PHE793  MET794  SER795  GLU796  ALA797  LYS798  CYS799  TRP800  GLU811  SER814 

> <Gold.Protein.RotatedAtoms>
  151.6989  133.3311  159.3261 H   0  0  0  0  0  0  0  0  0  0  0  0  # atno 6907 bound_to 6896
  150.7745  134.6633  159.6361 H   0  0  0  0  0  0  0  0  0  0  0  0  # atno 6908 bound_to 6896
  152.3782  134.6634  160.0204 H   0  0  0  0  0  0  0  0  0  0  0  0  # atno 6909 bound_to 6896
  144.8588  140.6185  143.5342 H   0  0  0  0  0  0  0  0  0  0  0  0  # atno 7974 bound_to 7965
  154.9520  140.3067  155.5070 H   0  0  0  0  0  0  0  0  0  0  0  0  # atno 8008 bound_to 7997
  156.2986  140.2317  156.4537 H   0  0  0  0  0  0  0  0  0  0  0  0  # atno 8009 bound_to 7997
  154.8045  140.0432  157.1286 H   0  0  0  0  0  0  0  0  0  0  0  0  # atno 8010 bound_to 7997
  140.4414  144.1182  150.6175 H   0  0  0  0  0  0  0  0  0  0  0  0  # atno 10167 bound_to 10162
  157.3383  130.7534  149.6894 H   0  0  0  0  0  0  0  0  0  0  0  0  # atno 10718 bound_to 10713
  154.3573  135.6123  153.5673 H   0  0  0  0  0  0  0  0  0  0  0  0  # atno 10763 bound_to 10752
  152.9795  135.5807  154.4674 H   0  0  0  0  0  0  0  0  0  0  0  0  # atno 10764 bound_to 10752
  154.4405  135.2850  155.1828 H   0  0  0  0  0  0  0  0  0  0  0  0  # atno 10765 bound_to 10752
  140.0795  134.9105  157.1478 H   0  0  0  0  0  0  0  0  0  0  0  0  # atno 11005 bound_to 11000
  145.4354  139.1543  143.4000 LP  0  0  0  0  0  0  0  0  0  0  0  0  # atno 17320 bound_to 7965
  146.2844  140.4472  142.8764 LP  0  0  0  0  0  0  0  0  0  0  0  0  # atno 17321 bound_to 7965
  140.4314  143.2566  151.9591 LP  0  0  0  0  0  0  0  0  0  0  0  0  # atno 17342 bound_to 10162
  139.4790  144.5740  151.8041 LP  0  0  0  0  0  0  0  0  0  0  0  0  # atno 17343 bound_to 10162
  155.9704  130.4175  150.4283 LP  0  0  0  0  0  0  0  0  0  0  0  0  # atno 17370 bound_to 10713
  157.2326  131.0507  151.2483 LP  0  0  0  0  0  0  0  0  0  0  0  0  # atno 17371 bound_to 10713
  140.3508  134.2601  155.7199 LP  0  0  0  0  0  0  0  0  0  0  0  0  # atno 17394 bound_to 11000
  141.2042  133.7893  157.0302 LP  0  0  0  0  0  0  0  0  0  0  0  0  # atno 17395 bound_to 11000

$$$$
