AV-unprocessed.smi:104|AV-procd|sdf|1008|dock2
  -GOLD-   2262018 03D 1   1.00000     0.00000
 Structure written by MMmdl.
 47 49  0  0  0  0  0  0  0  0  1 V2000
  143.6436  141.8957  158.7114 C   0  0  0  0  0  0  0  0  0  0  0  0
  144.6505  141.0409  159.4695 C   0  0  0  0  0  0  0  0  0  0  0  0
  145.6994  141.5155  159.9060 O   0  0  0  0  0  0  0  0  0  0  0  0
  144.2542  139.7653  159.5838 O   0  0  0  0  0  0  0  0  0  0  0  0
  145.1224  138.8116  160.1765 C   0  0  0  0  0  0  0  0  0  0  0  0
  145.4165  137.6732  159.1911 C   0  0  1  0  0  0  0  0  0  0  0  0
  145.2099  138.1156  157.8578 O   0  0  0  0  0  0  0  0  0  0  0  0
  146.0895  137.4812  156.9864 C   0  0  2  0  0  0  0  0  0  0  0  0
  145.3344  136.4143  156.2297 N   0  0  0  0  0  0  0  0  0  0  0  0
  144.8846  135.2002  156.7058 C   0  0  0  0  0  0  0  0  0  0  0  0
  145.1257  134.6455  158.5126 Br  0  0  0  0  0  0  0  0  0  0  0  0
  144.2627  134.4187  155.8698 N   0  0  0  0  0  0  0  0  0  0  0  0
  144.2844  135.1512  154.6928 C   0  0  0  0  0  0  0  0  0  0  0  0
  143.7918  134.9166  153.3843 C   0  0  0  0  0  0  0  0  0  0  0  0
  143.1444  133.7959  153.0372 N   0  0  0  0  0  0  0  0  0  0  0  0
  143.9815  135.8662  152.4400 N   0  0  0  0  0  0  0  0  0  0  0  0
  144.6252  136.9916  152.7613 C   0  0  0  0  0  0  0  0  0  0  0  0
  145.1429  137.3482  153.9386 N   0  0  0  0  0  0  0  0  0  0  0  0
  144.9542  136.3941  154.8964 C   0  0  0  0  0  0  0  0  0  0  0  0
  147.2933  136.9647  157.8066 C   0  0  2  0  0  0  0  0  0  0  0  0
  147.6844  135.6368  157.4606 O   0  0  0  0  0  0  0  0  0  0  0  0
  148.7413  135.0604  158.0567 C   0  0  0  0  0  0  0  0  0  0  0  0
  149.0435  133.6815  157.4871 C   0  0  0  0  0  0  0  0  0  0  0  0
  149.4282  135.5548  158.9506 O   0  0  0  0  0  0  0  0  0  0  0  0
  146.8459  137.1141  159.2662 C   0  0  2  0  0  0  0  0  0  0  0  0
  146.8376  135.8832  159.9837 O   0  0  0  0  0  0  0  0  0  0  0  0
  147.5266  135.7559  161.1307 C   0  0  0  0  0  0  0  0  0  0  0  0
  147.2075  134.4551  161.8549 C   0  0  0  0  0  0  0  0  0  0  0  0
  148.3403  136.5618  161.5818 O   0  0  0  0  0  0  0  0  0  0  0  0
  142.6427  141.7581  159.1212 H   0  0  0  0  0  0  0  0  0  0  0  0
  143.6284  141.6150  157.6582 H   0  0  0  0  0  0  0  0  0  0  0  0
  143.9054  142.9514  158.7841 H   0  0  0  0  0  0  0  0  0  0  0  0
  146.0553  139.2994  160.4627 H   0  0  0  0  0  0  0  0  0  0  0  0
  144.6707  138.4117  161.0855 H   0  0  0  0  0  0  0  0  0  0  0  0
  144.6939  136.8807  159.3781 H   0  0  0  0  0  0  0  0  0  0  0  0
  146.4058  138.1866  156.2209 H   0  0  0  0  0  0  0  0  0  0  0  0
  142.9888  133.0713  153.7232 H   0  0  0  0  0  0  0  0  0  0  0  0
  142.8172  133.6760  152.0895 H   0  0  0  0  0  0  0  0  0  0  0  0
  144.7425  137.7089  151.9626 H   0  0  0  0  0  0  0  0  0  0  0  0
  148.1238  137.6537  157.6455 H   0  0  0  0  0  0  0  0  0  0  0  0
  148.2001  133.0114  157.6532 H   0  0  0  0  0  0  0  0  0  0  0  0
  149.9252  133.2534  157.9643 H   0  0  0  0  0  0  0  0  0  0  0  0
  149.2279  133.7485  156.4147 H   0  0  0  0  0  0  0  0  0  0  0  0
  147.4964  137.8372  159.7599 H   0  0  0  0  0  0  0  0  0  0  0  0
  146.1590  134.4354  162.1525 H   0  0  0  0  0  0  0  0  0  0  0  0
  147.8231  134.3530  162.7486 H   0  0  0  0  0  0  0  0  0  0  0  0
  147.3996  133.6027  161.2030 H   0  0  0  0  0  0  0  0  0  0  0  0
  1  2  1  0  0  0  0
  1 30  1  0  0  0  0
  1 31  1  0  0  0  0
  1 32  1  0  0  0  0
  2  3  2  0  0  0  0
  2  4  1  0  0  0  0
  4  5  1  0  0  0  0
  5  6  1  0  0  0  0
  5 33  1  0  0  0  0
  5 34  1  0  0  0  0
  6 25  1  0  0  0  0
  6  7  1  0  0  0  0
  6 35  1  0  0  0  0
  7  8  1  0  0  0  0
  8  9  1  0  0  0  0
  8 20  1  0  0  0  0
  8 36  1  0  0  0  0
  9 19  1  0  0  0  0
  9 10  1  0  0  0  0
 10 11  1  0  0  0  0
 10 12  2  0  0  0  0
 12 13  1  0  0  0  0
 13 19  2  0  0  0  0
 13 14  1  0  0  0  0
 14 15  1  0  0  0  0
 14 16  2  0  0  0  0
 15 37  1  0  0  0  0
 15 38  1  0  0  0  0
 16 17  1  0  0  0  0
 17 18  2  0  0  0  0
 17 39  1  0  0  0  0
 18 19  1  0  0  0  0
 20 21  1  0  0  0  0
 20 25  1  0  0  0  0
 20 40  1  0  0  0  0
 21 22  1  0  0  0  0
 22 23  1  0  0  0  0
 22 24  2  0  0  0  0
 23 41  1  0  0  0  0
 23 42  1  0  0  0  0
 23 43  1  0  0  0  0
 25 26  1  0  0  0  0
 25 44  1  0  0  0  0
 26 27  1  0  0  0  0
 27 28  1  0  0  0  0
 27 29  2  0  0  0  0
 28 45  1  0  0  0  0
 28 46  1  0  0  0  0
 28 47  1  0  0  0  0
M  END
> <s_m_source_file>
AV-unprocessed.smi

> <i_m_source_file_index>
104

> <i_lp_mmshare_version>
43012

> <i_f3d_flags>
0

> <s_epik_input>
W0NIM11DKD1PKU9bQ0gyXVtDQEBIXTFPW0NASF0oW0NAQEhdKE9DKD1PKVtDSDNdKVtDQEhdMU9DKD1PKVtDSDNdKW4oYyhCciluMiljKGMyMyluW2NIXW5jM1tOSDJd

> <s_epik_cmdline>
J2VwaWtfcHl0aG9uJywgJy1waCcsICc3LjAnLCAnLXRuJywgJzgnLCAnLW1hJywgJzIwMCcsICctbWV0YWxfYmluZGluZycsICctaW1hZScsICc8aW5maWxlLm1hZT4nLCAnLW9tYWUnLCAnPG91dGZpbGUubWFlPic=

> <r_lp_tautomer_probability>
1

> <r_epik_Ionization_Penalty>
7.36622e-05

> <r_epik_Ionization_Penalty_Charging>
0

> <r_epik_Ionization_Penalty_Neutral>
7.36622e-05

> <r_epik_State_Penalty>
-0

> <r_epik_Charging_Adjusted_Penalty>
0

> <i_epik_Tot_Q>
0

> <i_epik_Tot_abs_Q>
0

> <r_epik_Metal_State_Penalty>
-0

> <b_epik_Metal_Only>
0

> <s_epik_Chemistry_Notes>
This compound has an ester and may undergo hydrolysis at high or low pH. This compound contains an acetal/aminal-like group ( X-CH(R)-Y where X, Y are N, S, or O) that may be acid/base labile, releasing an aldehyde.

> <s_lp_Force_Field>
OPLS_2005

> <r_lp_Energy>
19.0996

> <b_lp_Chiralities_Consistent>
1

> <s_lp_Variant>
AV-unprocessed.smi:104-16

> <Gold.Version>
5.8.1

> <Gold.Id.Protein>
6NUR|6NUR_protein|mol2

> <Gold.PLP.Fitness>
33.7658

> <Gold.PLP.PLP>
-19.8050

> <Gold.PLP.part.hbond>
-4.0000

> <Gold.PLP.part.metal>
0.0000

> <Gold.PLP.part.buried>
-3.9904

> <Gold.PLP.part.nonpolar>
-11.5652

> <Gold.PLP.part.repulsive>
0.3364

> <Gold.PLP.ligand.clash>
0.0000

> <Gold.PLP.ligand.torsion>
1.9916

> <Gold.PLP.Chemscore.Hbond>
3.9280

> <Gold.PLP.Chemscore.CHOScore>
1.9729

> <Gold.PLP.Chemscore.Metal>
0.0000

> <Gold.Chemscore.Hbonds>
donor molecule, donor type, donor heavy atom, donor atom, acceptor molecule, acceptor atom, score
      L1  H    15    37       P1 10957  1.00
      P1  H  6896  6907       L1    24  1.00
      P1  H  6931  6943       L1    29  1.00
      P1  H  6934  6946       L1     3  1.00
      L1  C    17    39       P1 10171  1.00

> <Gold.PLP.Chemscore.Internal.Correction>
0.2413

> <Gold.Rescore>
     Score         DG    S(hbond)    S(metal)    S(lipo)     H(rot)  DE(clash)    DE(int)     intcor
      2.87      -9.52       3.86        0.00      18.70       4.31       0.03       6.62       ----

> <Gold.Chemscore.Fitness>
2.8657

> <Gold.Chemscore.DG>
-9.5185

> <Gold.Chemscore.ZeroCoef>
-5.4800

> <Gold.Chemscore.Hbond>
3.8552

> <Gold.Chemscore.Metal>
0.0000

> <Gold.Chemscore.Lipo>
18.7020

> <Gold.Chemscore.Internal_Hbond>
0.0000

> <Gold.Chemscore.DEClash>
0.0310

> <Gold.Chemscore.DEInternal>
6.6218

> <Gold.Chemscore.Rot>
4.3070

> <Gold.Chemscore.Internal.Correction>
   9.000000E+99

> <Gold.Chemscore.Hbonds>
donor molecule, donor type, donor heavy atom, donor atom, acceptor molecule, acceptor atom, score
      L1  H    15    37       P1 10957  0.98
      P1  H  6896  6907       L1    24  0.99
      P1  H  6931  6943       L1    29  1.00
      P1  H  6934  6946       L1     3  0.96

> <Gold.Chemscore.Hbond.Weighted>
-12.8763

> <Gold.Chemscore.Metal.Weighted>
-0.0000

> <Gold.Chemscore.Lipo.Weighted>
-2.1881

> <Gold.Chemscore.Internal_Hbond.Weighted>
0.0000

> <Gold.Chemscore.DEClash.Weighted>
0.0310

> <Gold.Chemscore.DEInternal.Weighted>
6.6218

> <Gold.Chemscore.Rot.Weighted>
11.0259

> <Gold.Chemscore.Internal.Correction.Weighted>
   9.000000E+99

> <Gold.Protein.RotatedTorsions>
[ 6907 6896 6895 6894 ] final  -50.01 input  -60.11 | X-H torsion
[ 7974 7965 7964 7962 ] final   56.08 input  175.53 | X-H torsion
[ 8008 7997 7996 7995 ] final  -38.38 input   59.86 | X-H torsion
[ 10167 10162 10161 10158 ] final  -48.15 input  -65.29 | X-H torsion
[ 10718 10713 10712 10709 ] final   10.04 input   66.30 | X-H torsion
[ 10763 10752 10751 10750 ] final   36.23 input  -60.55 | X-H torsion
[ 11005 11000 10999 10996 ] final -146.00 input  -57.11 | X-H torsion

> <Gold.Protein.ActiveResidues>
 VAL166  LYS551  ARG553  GLY616  TRP617  ASP618  TYR619  PRO620  LYS621  CYS622 
 ASP623  PHE694  ASN695  SER759  ASP760  ASP761  ALA762  ILE779  LEU786  VAL792 
 PHE793  MET794  SER795  GLU796  ALA797  LYS798  CYS799  TRP800  GLU811  SER814 

> <Gold.Protein.RotatedAtoms>
  150.8749  134.8130  159.7181 H   0  0  0  0  0  0  0  0  0  0  0  0  # atno 6907 bound_to 6896
  152.4739  134.4888  159.9698 H   0  0  0  0  0  0  0  0  0  0  0  0  # atno 6908 bound_to 6896
  151.4971  133.3474  159.2898 H   0  0  0  0  0  0  0  0  0  0  0  0  # atno 6909 bound_to 6896
  145.9436  139.3910  143.0348 H   0  0  0  0  0  0  0  0  0  0  0  0  # atno 7974 bound_to 7965
  154.4038  140.1579  156.2691 H   0  0  0  0  0  0  0  0  0  0  0  0  # atno 8008 bound_to 7997
  155.8969  140.3435  155.5975 H   0  0  0  0  0  0  0  0  0  0  0  0  # atno 8009 bound_to 7997
  155.7493  140.0803  157.2199 H   0  0  0  0  0  0  0  0  0  0  0  0  # atno 8010 bound_to 7997
  140.6744  143.2753  151.4029 H   0  0  0  0  0  0  0  0  0  0  0  0  # atno 10167 bound_to 10162
  156.9751  130.5984  149.5672 H   0  0  0  0  0  0  0  0  0  0  0  0  # atno 10718 bound_to 10713
  153.0085  135.6311  154.1953 H   0  0  0  0  0  0  0  0  0  0  0  0  # atno 10763 bound_to 10752
  154.1696  135.2819  155.3086 H   0  0  0  0  0  0  0  0  0  0  0  0  # atno 10764 bound_to 10752
  154.5919  135.5615  153.7347 H   0  0  0  0  0  0  0  0  0  0  0  0  # atno 10765 bound_to 10752
  140.7865  134.3019  157.5028 H   0  0  0  0  0  0  0  0  0  0  0  0  # atno 11005 bound_to 11000
  145.8266  140.9652  143.0871 LP  0  0  0  0  0  0  0  0  0  0  0  0  # atno 17320 bound_to 7965
  144.6783  140.0109  143.7484 LP  0  0  0  0  0  0  0  0  0  0  0  0  # atno 17321 bound_to 7965
  139.6028  144.1260  152.2217 LP  0  0  0  0  0  0  0  0  0  0  0  0  # atno 17342 bound_to 10162
  140.0649  144.5826  150.7235 LP  0  0  0  0  0  0  0  0  0  0  0  0  # atno 17343 bound_to 10162
  156.0267  130.5360  150.8425 LP  0  0  0  0  0  0  0  0  0  0  0  0  # atno 17370 bound_to 10713
  157.5565  131.0945  150.9621 LP  0  0  0  0  0  0  0  0  0  0  0  0  # atno 17371 bound_to 10713
  139.8736  134.9349  156.3619 LP  0  0  0  0  0  0  0  0  0  0  0  0  # atno 17394 bound_to 11000
  140.9432  133.7500  156.0174 LP  0  0  0  0  0  0  0  0  0  0  0  0  # atno 17395 bound_to 11000

$$$$
