AV-unprocessed.smi:1356|AV-procd|sdf|5542|dock2
  -GOLD-   22720 5133D 1   1.00000     0.00000
 Structure written by MMmdl.
 41 42  0  0  0  0  0  0  0  0  1 V2000
  150.3434  131.9073  155.4904 C   0  0  0  0  0  0  0  0  0  0  0  0
  149.0589  132.5799  155.0383 C   0  0  2  0  0  0  0  0  0  0  0  0
  149.0206  133.3184  153.7228 C   0  0  0  0  0  0  0  0  0  0  0  0
  148.8425  134.0879  155.0156 C   0  0  2  0  0  0  0  0  0  0  0  0
  149.9475  134.9858  155.4598 C   0  0  0  0  0  0  0  0  0  0  0  0
  150.5771  134.7931  156.5000 O   0  0  0  0  0  0  0  0  0  0  0  0
  150.1491  136.0464  154.6629 N   0  0  0  0  0  0  0  0  0  0  0  0
  151.1379  137.0928  154.8963 C   0  0  0  0  0  0  0  0  0  0  0  0
  150.5804  138.4872  154.5508 C   0  0  0  0  0  0  0  0  0  0  0  0
  151.3693  139.6209  155.2121 C   0  0  0  0  0  0  0  0  0  0  0  0
  152.5875  139.7087  155.0557 O   0  0  0  0  0  0  0  0  0  0  0  0
  150.6589  140.4914  155.9458 N   0  0  0  0  0  0  0  0  0  0  0  0
  151.2158  141.6427  156.6471 C   0  0  0  0  0  0  0  0  0  0  0  0
  151.7741  141.2491  158.0247 C   0  0  0  0  0  0  0  0  0  0  0  0
  152.0065  142.4534  158.9169 C   0  0  0  0  0  0  0  0  0  0  0  0
  152.5362  142.2956  160.2154 C   0  0  0  0  0  0  0  0  0  0  0  0
  152.7292  143.4455  161.0054 C   0  0  0  0  0  0  0  0  0  0  0  0
  152.3854  144.7018  160.4701 C   0  0  0  0  0  0  0  0  0  0  0  0
  151.8616  144.7525  159.1628 C   0  0  0  0  0  0  0  0  0  0  0  0
  151.6728  143.6562  158.3968 N   0  0  0  0  0  0  0  0  0  0  0  0
  151.2210  132.4368  155.1188 H   0  0  0  0  0  0  0  0  0  0  0  0
  150.3785  130.8842  155.1158 H   0  0  0  0  0  0  0  0  0  0  0  0
  150.3871  131.8783  156.5793 H   0  0  0  0  0  0  0  0  0  0  0  0
  148.1730  132.0032  155.2968 H   0  0  0  0  0  0  0  0  0  0  0  0
  149.9585  133.4323  153.1813 H   0  0  0  0  0  0  0  0  0  0  0  0
  148.1406  133.1975  153.0947 H   0  0  0  0  0  0  0  0  0  0  0  0
  147.8402  134.4198  155.2797 H   0  0  0  0  0  0  0  0  0  0  0  0
  149.5713  136.1379  153.8397 H   0  0  0  0  0  0  0  0  0  0  0  0
  151.4220  137.0542  155.9486 H   0  0  0  0  0  0  0  0  0  0  0  0
  152.0417  136.8801  154.3222 H   0  0  0  0  0  0  0  0  0  0  0  0
  150.6001  138.6448  153.4717 H   0  0  0  0  0  0  0  0  0  0  0  0
  149.5348  138.5489  154.8568 H   0  0  0  0  0  0  0  0  0  0  0  0
  149.6619  140.3495  156.0206 H   0  0  0  0  0  0  0  0  0  0  0  0
  152.0095  142.0635  156.0291 H   0  0  0  0  0  0  0  0  0  0  0  0
  150.4575  142.4209  156.7506 H   0  0  0  0  0  0  0  0  0  0  0  0
  151.0907  140.5635  158.5273 H   0  0  0  0  0  0  0  0  0  0  0  0
  152.7152  140.7100  157.9061 H   0  0  0  0  0  0  0  0  0  0  0  0
  152.7887  141.3178  160.5988 H   0  0  0  0  0  0  0  0  0  0  0  0
  153.1331  143.3652  162.0038 H   0  0  0  0  0  0  0  0  0  0  0  0
  152.5197  145.6048  161.0472 H   0  0  0  0  0  0  0  0  0  0  0  0
  151.5867  145.6987  158.7207 H   0  0  0  0  0  0  0  0  0  0  0  0
  1  2  1  0  0  0  0
  1 21  1  0  0  0  0
  1 22  1  0  0  0  0
  1 23  1  0  0  0  0
  2  4  1  0  0  0  0
  2  3  1  0  0  0  0
  2 24  1  0  0  0  0
  3  4  1  0  0  0  0
  3 25  1  0  0  0  0
  3 26  1  0  0  0  0
  4  5  1  0  0  0  0
  4 27  1  0  0  0  0
  5  6  2  0  0  0  0
  5  7  1  0  0  0  0
  7  8  1  0  0  0  0
  7 28  1  0  0  0  0
  8  9  1  0  0  0  0
  8 29  1  0  0  0  0
  8 30  1  0  0  0  0
  9 10  1  0  0  0  0
  9 31  1  0  0  0  0
  9 32  1  0  0  0  0
 10 11  2  0  0  0  0
 10 12  1  0  0  0  0
 12 13  1  0  0  0  0
 12 33  1  0  0  0  0
 13 14  1  0  0  0  0
 13 34  1  0  0  0  0
 13 35  1  0  0  0  0
 14 15  1  0  0  0  0
 14 36  1  0  0  0  0
 14 37  1  0  0  0  0
 15 20  1  0  0  0  0
 15 16  2  0  0  0  0
 16 17  1  0  0  0  0
 16 38  1  0  0  0  0
 17 18  2  0  0  0  0
 17 39  1  0  0  0  0
 18 19  1  0  0  0  0
 18 40  1  0  0  0  0
 19 20  2  0  0  0  0
 19 41  1  0  0  0  0
M  END
> <s_m_source_file>
AV-unprocessed.smi

> <i_m_source_file_index>
1356

> <i_lp_mmshare_version>
43012

> <i_f3d_flags>
0

> <s_epik_input>
W0NIM11bQ0BASF0xW0NIMl1bQ0BIXTFDKD1PKVtOSF1bQ0gyXVtDSDJdQyg9TylbTkhdW0NIMl1bQ0gyXWMyW2NIXVtjSF1bY0hdW2NIXW4y

> <s_epik_cmdline>
J2VwaWtfcHl0aG9uJywgJy1waCcsICc3LjAnLCAnLXRuJywgJzgnLCAnLW1hJywgJzIwMCcsICctbWV0YWxfYmluZGluZycsICctaW1hZScsICc8aW5maWxlLm1hZT4nLCAnLW9tYWUnLCAnPG91dGZpbGUubWFlPic=

> <r_epik_Ionization_Penalty>
0.0258005

> <r_epik_Ionization_Penalty_Charging>
0

> <r_epik_Ionization_Penalty_Neutral>
0.0258005

> <r_epik_State_Penalty>
0.0210245

> <r_epik_Charging_Adjusted_Penalty>
0.0210245

> <i_epik_Tot_Q>
0

> <i_epik_Tot_abs_Q>
0

> <r_epik_Metal_State_Penalty>
0.0201445

> <b_epik_Metal_Only>
0

> <s_lp_Force_Field>
OPLS_2005

> <r_lp_Energy>
6.96632

> <b_lp_Chiralities_Consistent>
1

> <s_lp_Variant>
AV-unprocessed.smi:1356-3

> <Gold.Version>
5.8.1

> <Gold.Id.Protein>
6NUR|6NUR_protein|mol2

> <Gold.PLP.Fitness>
50.1479

> <Gold.PLP.PLP>
-45.2461

> <Gold.PLP.part.hbond>
-3.7130

> <Gold.PLP.part.metal>
0.0000

> <Gold.PLP.part.buried>
-4.4704

> <Gold.PLP.part.nonpolar>
-37.0090

> <Gold.PLP.part.repulsive>
0.2959

> <Gold.PLP.ligand.clash>
0.0000

> <Gold.PLP.ligand.torsion>
0.6989

> <Gold.PLP.Chemscore.Hbond>
2.0000

> <Gold.PLP.Chemscore.CHOScore>
0.0000

> <Gold.PLP.Chemscore.Metal>
0.0000

> <Gold.Chemscore.Hbonds>
donor molecule, donor type, donor heavy atom, donor atom, acceptor molecule, acceptor atom, score
      L1  H     7    28       P1  7948  0.98
      P1  H  7997  8009       L1    11  0.84

> <Gold.PLP.Chemscore.Internal.Correction>
0.2996

> <Gold.Rescore>
     Score         DG    S(hbond)    S(metal)    S(lipo)     H(rot)  DE(clash)    DE(int)     intcor
     16.94     -17.76       1.84        0.00      99.91       2.18       0.06       0.76       ----

> <Gold.Chemscore.Fitness>
16.9389

> <Gold.Chemscore.DG>
-17.7583

> <Gold.Chemscore.ZeroCoef>
-5.4800

> <Gold.Chemscore.Hbond>
1.8437

> <Gold.Chemscore.Metal>
0.0000

> <Gold.Chemscore.Lipo>
99.9059

> <Gold.Chemscore.Internal_Hbond>
0.0000

> <Gold.Chemscore.DEClash>
0.0577

> <Gold.Chemscore.DEInternal>
0.7617

> <Gold.Chemscore.Rot>
2.1753

> <Gold.Chemscore.Internal.Correction>
   9.000000E+99

> <Gold.Chemscore.Hbonds>
donor molecule, donor type, donor heavy atom, donor atom, acceptor molecule, acceptor atom, score
      L1  H     7    28       P1  7948  0.50
      P1  H  7997  8009       L1    11  0.82

> <Gold.Chemscore.Hbond.Weighted>
-6.1580

> <Gold.Chemscore.Metal.Weighted>
-0.0000

> <Gold.Chemscore.Lipo.Weighted>
-11.6890

> <Gold.Chemscore.Internal_Hbond.Weighted>
0.0000

> <Gold.Chemscore.DEClash.Weighted>
0.0577

> <Gold.Chemscore.DEInternal.Weighted>
0.7617

> <Gold.Chemscore.Rot.Weighted>
5.5687

> <Gold.Chemscore.Internal.Correction.Weighted>
   9.000000E+99

> <Gold.Protein.RotatedTorsions>
[ 6907 6896 6895 6894 ] final  -33.28 input  -60.11 | X-H torsion
[ 7974 7965 7964 7962 ] final  -71.31 input  175.53 | X-H torsion
[ 8008 7997 7996 7995 ] final -139.81 input   59.86 | X-H torsion
[ 10167 10162 10161 10158 ] final -176.59 input  -65.29 | X-H torsion
[ 10718 10713 10712 10709 ] final -121.70 input   66.30 | X-H torsion
[ 10763 10752 10751 10750 ] final -145.39 input  -60.55 | X-H torsion
[ 11005 11000 10999 10996 ] final  -56.69 input  -57.11 | X-H torsion

> <Gold.Protein.ActiveResidues>
 VAL166  LYS551  ARG553  GLY616  TRP617  ASP618  TYR619  PRO620  LYS621  CYS622 
 ASP623  PHE694  ASN695  SER759  ASP760  ASP761  ALA762  ILE779  LEU786  VAL792 
 PHE793  MET794  SER795  GLU796  ALA797  LYS798  CYS799  TRP800  GLU811  SER814 

> <Gold.Protein.RotatedAtoms>
  151.0677  134.9778  159.8292 H   0  0  0  0  0  0  0  0  0  0  0  0  # atno 6907 bound_to 6896
  152.5404  134.2338  159.8845 H   0  0  0  0  0  0  0  0  0  0  0  0  # atno 6908 bound_to 6896
  151.2361  133.4381  159.2639 H   0  0  0  0  0  0  0  0  0  0  0  0  # atno 6909 bound_to 6896
  145.6797  140.9192  143.0839 H   0  0  0  0  0  0  0  0  0  0  0  0  # atno 7974 bound_to 7965
  155.4510  140.0538  157.3001 H   0  0  0  0  0  0  0  0  0  0  0  0  # atno 8008 bound_to 7997
  154.4777  140.2068  155.9794 H   0  0  0  0  0  0  0  0  0  0  0  0  # atno 8009 bound_to 7997
  156.1157  140.3196  155.8141 H   0  0  0  0  0  0  0  0  0  0  0  0  # atno 8010 bound_to 7997
  139.5522  144.2081  152.1096 H   0  0  0  0  0  0  0  0  0  0  0  0  # atno 10167 bound_to 10162
  156.1359  130.6430  150.9695 H   0  0  0  0  0  0  0  0  0  0  0  0  # atno 10718 bound_to 10713
  154.8386  135.3414  154.6496 H   0  0  0  0  0  0  0  0  0  0  0  0  # atno 10763 bound_to 10752
  153.7109  135.6964  153.5042 H   0  0  0  0  0  0  0  0  0  0  0  0  # atno 10764 bound_to 10752
  153.2452  135.4371  155.0694 H   0  0  0  0  0  0  0  0  0  0  0  0  # atno 10765 bound_to 10752
  141.1131  133.6610  156.4657 H   0  0  0  0  0  0  0  0  0  0  0  0  # atno 11005 bound_to 11000
  144.7030  139.8680  143.7438 LP  0  0  0  0  0  0  0  0  0  0  0  0  # atno 17320 bound_to 7965
  146.0975  139.3968  143.0367 LP  0  0  0  0  0  0  0  0  0  0  0  0  # atno 17321 bound_to 7965
  140.1578  144.5054  150.6650 LP  0  0  0  0  0  0  0  0  0  0  0  0  # atno 17342 bound_to 10162
  140.6787  143.2316  151.5441 LP  0  0  0  0  0  0  0  0  0  0  0  0  # atno 17343 bound_to 10162
  157.6531  131.0894  150.8006 LP  0  0  0  0  0  0  0  0  0  0  0  0  # atno 17370 bound_to 10713
  156.8087  130.4945  149.5359 LP  0  0  0  0  0  0  0  0  0  0  0  0  # atno 17371 bound_to 10713
  140.4720  134.6744  157.5133 LP  0  0  0  0  0  0  0  0  0  0  0  0  # atno 17394 bound_to 11000
  140.0037  134.6797  155.9490 LP  0  0  0  0  0  0  0  0  0  0  0  0  # atno 17395 bound_to 11000

$$$$
