AV-unprocessed.smi:695|AV-procd|sdf|3384|dock10
  -GOLD-   22720 0363D 1   1.00000     0.00000
 Structure written by MMmdl.
 38 39  0  0  0  0  0  0  0  0  1 V2000
  148.7190  132.2593  153.3816 C   0  0  0  0  0  0  0  0  0  0  0  0
  149.8021  133.0221  154.1565 C   0  0  0  0  0  0  0  0  0  0  0  0
  149.6325  134.4638  154.0230 N   0  0  0  0  0  0  0  0  0  0  0  0
  149.9046  135.3582  154.9831 C   0  0  0  0  0  0  0  0  0  0  0  0
  150.3785  135.0669  156.0815 O   0  0  0  0  0  0  0  0  0  0  0  0
  149.5713  136.6029  154.6115 N   0  0  0  0  0  0  0  0  0  0  0  0
  149.6757  137.7945  155.4509 C   0  0  0  0  0  0  0  0  0  0  0  0
  150.9889  138.5674  155.2152 C   0  0  0  0  0  0  0  0  0  0  0  0
  151.0776  139.8484  155.9923 C   0  0  0  0  0  0  0  0  0  0  0  0
  150.4320  141.0285  155.7150 C   0  0  0  0  0  0  0  0  0  0  0  0
  150.7618  142.2481  156.9141 S   0  0  0  0  0  0  0  0  0  0  0  0
  151.7995  141.0965  157.7496 C   0  0  0  0  0  0  0  0  0  0  0  0
  152.4738  141.4230  158.9226 N   0  0  0  0  0  0  0  0  0  0  0  0
  153.3932  140.5598  159.6576 C   0  0  0  0  0  0  0  0  0  0  0  0
  154.1196  141.4231  160.6857 C   0  0  0  0  0  0  0  0  0  0  0  0
  153.0810  142.4805  161.0057 C   0  0  0  0  0  0  0  0  0  0  0  0
  152.3959  142.6828  159.6560 C   0  0  0  0  0  0  0  0  0  0  0  0
  151.8636  139.9067  157.1471 N   0  0  0  0  0  0  0  0  0  0  0  0
  148.8714  131.1829  153.4612 H   0  0  0  0  0  0  0  0  0  0  0  0
  148.7350  132.5197  152.3229 H   0  0  0  0  0  0  0  0  0  0  0  0
  147.7231  132.4821  153.7662 H   0  0  0  0  0  0  0  0  0  0  0  0
  149.7916  132.7327  155.2086 H   0  0  0  0  0  0  0  0  0  0  0  0
  150.7868  132.7571  153.7715 H   0  0  0  0  0  0  0  0  0  0  0  0
  149.2484  134.7994  153.1520 H   0  0  0  0  0  0  0  0  0  0  0  0
  149.1898  136.7337  153.6861 H   0  0  0  0  0  0  0  0  0  0  0  0
  148.8179  138.4509  155.2947 H   0  0  0  0  0  0  0  0  0  0  0  0
  149.6260  137.4745  156.4917 H   0  0  0  0  0  0  0  0  0  0  0  0
  151.8296  137.9226  155.4734 H   0  0  0  0  0  0  0  0  0  0  0  0
  151.0952  138.7734  154.1495 H   0  0  0  0  0  0  0  0  0  0  0  0
  149.7672  141.2461  154.8924 H   0  0  0  0  0  0  0  0  0  0  0  0
  152.8129  139.7812  160.1542 H   0  0  0  0  0  0  0  0  0  0  0  0
  154.0976  140.0712  158.9839 H   0  0  0  0  0  0  0  0  0  0  0  0
  154.4448  140.8600  161.5607 H   0  0  0  0  0  0  0  0  0  0  0  0
  154.9965  141.8873  160.2323 H   0  0  0  0  0  0  0  0  0  0  0  0
  152.3666  142.0914  161.7324 H   0  0  0  0  0  0  0  0  0  0  0  0
  153.5112  143.3983  161.4073 H   0  0  0  0  0  0  0  0  0  0  0  0
  152.9118  143.4507  159.0785 H   0  0  0  0  0  0  0  0  0  0  0  0
  151.3610  143.0012  159.7847 H   0  0  0  0  0  0  0  0  0  0  0  0
  1  2  1  0  0  0  0
  1 19  1  0  0  0  0
  1 20  1  0  0  0  0
  1 21  1  0  0  0  0
  2  3  1  0  0  0  0
  2 22  1  0  0  0  0
  2 23  1  0  0  0  0
  3  4  1  0  0  0  0
  3 24  1  0  0  0  0
  4  5  2  0  0  0  0
  4  6  1  0  0  0  0
  6  7  1  0  0  0  0
  6 25  1  0  0  0  0
  7  8  1  0  0  0  0
  7 26  1  0  0  0  0
  7 27  1  0  0  0  0
  8  9  1  0  0  0  0
  8 28  1  0  0  0  0
  8 29  1  0  0  0  0
  9 18  1  0  0  0  0
  9 10  2  0  0  0  0
 10 11  1  0  0  0  0
 10 30  1  0  0  0  0
 11 12  1  0  0  0  0
 12 13  1  0  0  0  0
 12 18  2  0  0  0  0
 13 17  1  0  0  0  0
 13 14  1  0  0  0  0
 14 15  1  0  0  0  0
 14 31  1  0  0  0  0
 14 32  1  0  0  0  0
 15 16  1  0  0  0  0
 15 33  1  0  0  0  0
 15 34  1  0  0  0  0
 16 17  1  0  0  0  0
 16 35  1  0  0  0  0
 16 36  1  0  0  0  0
 17 37  1  0  0  0  0
 17 38  1  0  0  0  0
M  END
> <s_m_source_file>
AV-unprocessed.smi

> <i_m_source_file_index>
695

> <i_lp_mmshare_version>
43012

> <i_f3d_flags>
0

> <s_epik_input>
W0NIM11bQ0gyXVtOSF1DKD1PKVtOSF1bQ0gyXVtDSDJdYzFbY0hdc2MobjEpTjJbQ0gyXVtDSDJdW0NIMl1bQ0gyXTI=

> <s_epik_cmdline>
J2VwaWtfcHl0aG9uJywgJy1waCcsICc3LjAnLCAnLXRuJywgJzgnLCAnLW1hJywgJzIwMCcsICctbWV0YWxfYmluZGluZycsICctaW1hZScsICc8aW5maWxlLm1hZT4nLCAnLW9tYWUnLCAnPG91dGZpbGUubWFlPic=

> <r_epik_Ionization_Penalty>
0.166233

> <r_epik_Ionization_Penalty_Charging>
0

> <r_epik_Ionization_Penalty_Neutral>
0.166233

> <r_epik_State_Penalty>
0.155475

> <r_epik_Charging_Adjusted_Penalty>
0.155475

> <i_epik_Tot_Q>
0

> <i_epik_Tot_abs_Q>
0

> <r_epik_Metal_State_Penalty>
0.121092

> <b_epik_Metal_Only>
0

> <s_lp_Force_Field>
OPLS_2005

> <r_lp_Energy>
13.2485

> <b_lp_Chiralities_Consistent>
1

> <s_lp_Variant>
AV-unprocessed.smi:695-1

> <Gold.Version>
5.8.1

> <Gold.Id.Protein>
6NUR|6NUR_protein|mol2

> <Gold.PLP.Fitness>
42.5708

> <Gold.PLP.PLP>
-38.4531

> <Gold.PLP.part.hbond>
-2.0000

> <Gold.PLP.part.metal>
0.0000

> <Gold.PLP.part.buried>
-3.7286

> <Gold.PLP.part.nonpolar>
-32.7694

> <Gold.PLP.part.repulsive>
0.0696

> <Gold.PLP.ligand.clash>
0.0000

> <Gold.PLP.ligand.torsion>
0.5759

> <Gold.PLP.Chemscore.Hbond>
1.7500

> <Gold.PLP.Chemscore.CHOScore>
0.0000

> <Gold.PLP.Chemscore.Metal>
0.0000

> <Gold.Chemscore.Hbonds>
donor molecule, donor type, donor heavy atom, donor atom, acceptor molecule, acceptor atom, score
      L1  H     3    24       P1  7948  0.50
      L1  H     6    25       P1  7948  1.00

> <Gold.PLP.Chemscore.Internal.Correction>
0.0195

> <Gold.Rescore>
     Score         DG    S(hbond)    S(metal)    S(lipo)     H(rot)  DE(clash)    DE(int)     intcor
     15.45     -15.95       1.58        0.00      81.40       1.70       0.03       0.47       ----

> <Gold.Chemscore.Fitness>
15.4491

> <Gold.Chemscore.DG>
-15.9515

> <Gold.Chemscore.ZeroCoef>
-5.4800

> <Gold.Chemscore.Hbond>
1.5838

> <Gold.Chemscore.Metal>
0.0000

> <Gold.Chemscore.Lipo>
81.4026

> <Gold.Chemscore.Internal_Hbond>
0.0000

> <Gold.Chemscore.DEClash>
0.0285

> <Gold.Chemscore.DEInternal>
0.4740

> <Gold.Chemscore.Rot>
1.6963

> <Gold.Chemscore.Internal.Correction>
   9.000000E+99

> <Gold.Chemscore.Hbonds>
donor molecule, donor type, donor heavy atom, donor atom, acceptor molecule, acceptor atom, score
      L1  H     3    24       P1  7948  0.02
      L1  H     6    25       P1  7948  0.95

> <Gold.Chemscore.Hbond.Weighted>
-5.2900

> <Gold.Chemscore.Metal.Weighted>
-0.0000

> <Gold.Chemscore.Lipo.Weighted>
-9.5241

> <Gold.Chemscore.Internal_Hbond.Weighted>
0.0000

> <Gold.Chemscore.DEClash.Weighted>
0.0285

> <Gold.Chemscore.DEInternal.Weighted>
0.4740

> <Gold.Chemscore.Rot.Weighted>
4.3426

> <Gold.Chemscore.Internal.Correction.Weighted>
   9.000000E+99

> <Gold.Protein.RotatedTorsions>
[ 6907 6896 6895 6894 ] final   65.03 input  -60.11 | X-H torsion
[ 7974 7965 7964 7962 ] final   50.24 input  175.53 | X-H torsion
[ 8008 7997 7996 7995 ] final  110.52 input   59.86 | X-H torsion
[ 10167 10162 10161 10158 ] final  108.90 input  -65.29 | X-H torsion
[ 10718 10713 10712 10709 ] final -142.54 input   66.30 | X-H torsion
[ 10763 10752 10751 10750 ] final    0.40 input  -60.55 | X-H torsion
[ 11005 11000 10999 10996 ] final  -14.64 input  -57.11 | X-H torsion

> <Gold.Protein.ActiveResidues>
 VAL166  LYS551  ARG553  GLY616  TRP617  ASP618  TYR619  PRO620  LYS621  CYS622 
 ASP623  PHE694  ASN695  SER759  ASP760  ASP761  ALA762  ILE779  LEU786  VAL792 
 PHE793  MET794  SER795  GLU796  ALA797  LYS798  CYS799  TRP800  GLU811  SER814 

> <Gold.Protein.RotatedAtoms>
  152.4377  134.5654  159.9905 H   0  0  0  0  0  0  0  0  0  0  0  0  # atno 6907 bound_to 6896
  151.5760  133.3378  159.3007 H   0  0  0  0  0  0  0  0  0  0  0  0  # atno 6908 bound_to 6896
  150.8277  134.7551  159.6891 H   0  0  0  0  0  0  0  0  0  0  0  0  # atno 6909 bound_to 6896
  146.0031  139.4461  143.0002 H   0  0  0  0  0  0  0  0  0  0  0  0  # atno 7974 bound_to 7965
  156.2059  140.3037  155.9625 H   0  0  0  0  0  0  0  0  0  0  0  0  # atno 8008 bound_to 7997
  155.2843  140.0439  157.3035 H   0  0  0  0  0  0  0  0  0  0  0  0  # atno 8009 bound_to 7997
  154.5632  140.2326  155.8312 H   0  0  0  0  0  0  0  0  0  0  0  0  # atno 8010 bound_to 7997
  139.6809  144.7118  151.1517 H   0  0  0  0  0  0  0  0  0  0  0  0  # atno 10167 bound_to 10162
  156.3471  130.7668  151.1815 H   0  0  0  0  0  0  0  0  0  0  0  0  # atno 10718 bound_to 10713
  153.3212  135.6969  153.7029 H   0  0  0  0  0  0  0  0  0  0  0  0  # atno 10763 bound_to 10752
  153.5868  135.3487  155.2896 H   0  0  0  0  0  0  0  0  0  0  0  0  # atno 10764 bound_to 10752
  154.8598  135.4308  154.2377 H   0  0  0  0  0  0  0  0  0  0  0  0  # atno 10765 bound_to 10752
  140.7885  133.8307  155.9357 H   0  0  0  0  0  0  0  0  0  0  0  0  # atno 11005 bound_to 11000
  145.7457  140.9991  143.1277 LP  0  0  0  0  0  0  0  0  0  0  0  0  # atno 17320 bound_to 7965
  144.6926  139.9153  143.7465 LP  0  0  0  0  0  0  0  0  0  0  0  0  # atno 17321 bound_to 7965
  140.7652  143.5701  150.9005 LP  0  0  0  0  0  0  0  0  0  0  0  0  # atno 17342 bound_to 10162
  139.9373  143.6423  152.3062 LP  0  0  0  0  0  0  0  0  0  0  0  0  # atno 17343 bound_to 10162
  157.7456  131.0438  150.4761 LP  0  0  0  0  0  0  0  0  0  0  0  0  # atno 17370 bound_to 10713
  156.4951  130.4104  149.6385 LP  0  0  0  0  0  0  0  0  0  0  0  0  # atno 17371 bound_to 10713
  140.9413  134.1897  157.4795 LP  0  0  0  0  0  0  0  0  0  0  0  0  # atno 17394 bound_to 11000
  139.8734  134.9873  156.5361 LP  0  0  0  0  0  0  0  0  0  0  0  0  # atno 17395 bound_to 11000

$$$$
