AV-unprocessed.smi:2698|AV-procd|sdf|10418|dock2
  -GOLD-   2272014453D 1   1.00000     0.00000
 Structure written by MMmdl.
 34 34  0  0  0  0  0  0  0  0  3 V2000
  152.6505  143.1287  159.8939 C   0  0  0  0  0  0  0  0  0  0  0  0
  152.0617  144.0901  158.8501 C   0  0  0  0  0  0  0  0  0  0  0  0
  151.9890  145.5188  159.4203 C   0  0  0  0  0  0  0  0  0  0  0  0
  150.7008  143.5651  158.3363 C   0  0  0  0  0  0  0  0  0  0  0  0
  150.7714  142.1442  157.7705 C   0  0  0  0  0  0  0  0  0  0  0  0
  151.2792  141.2392  158.4329 O   0  0  0  0  0  0  0  0  0  0  0  0
  150.2551  141.9646  156.5443 N   0  0  0  0  0  0  0  0  0  0  0  0
  150.1835  140.6989  155.8141 C   0  0  1  0  0  0  0  0  0  0  0  0
  149.7146  140.9078  154.3579 C   0  0  0  0  0  0  0  0  0  0  0  0
  148.2525  141.2454  154.1979 C   0  0  0  0  0  0  0  0  0  0  0  0
  147.2113  140.5191  153.6505 C   0  0  0  0  0  0  0  0  0  0  0  0
  146.0604  141.2781  153.7873 N   0  0  0  0  0  0  0  0  0  0  0  0
  146.4144  142.4087  154.3953 C   0  0  0  0  0  0  0  0  0  0  0  0
  147.7192  142.4403  154.6576 N   0  3  0  0  0  0  0  0  0  0  0  0
  151.5264  139.9706  155.9098 C   0  0  0  0  0  0  0  0  0  0  0  0
  152.4793  140.4418  155.2500 O   0  0  0  0  0  0  0  0  0  0  0  0
  151.5769  138.9527  156.6337 O   0  5  0  0  0  0  0  0  0  0  0  0
  145.1292  141.0165  153.4959 H   0  0  0  0  0  0  0  0  0  0  0  0
  152.0031  143.0483  160.7676 H   0  0  0  0  0  0  0  0  0  0  0  0
  153.6293  143.4673  160.2346 H   0  0  0  0  0  0  0  0  0  0  0  0
  152.7774  142.1273  159.4813 H   0  0  0  0  0  0  0  0  0  0  0  0
  152.7552  144.1095  158.0078 H   0  0  0  0  0  0  0  0  0  0  0  0
  151.2785  145.5792  160.2452 H   0  0  0  0  0  0  0  0  0  0  0  0
  151.6864  146.2444  158.6663 H   0  0  0  0  0  0  0  0  0  0  0  0
  152.9609  145.8393  159.7962 H   0  0  0  0  0  0  0  0  0  0  0  0
  149.9691  143.5804  159.1458 H   0  0  0  0  0  0  0  0  0  0  0  0
  150.3093  144.2307  157.5657 H   0  0  0  0  0  0  0  0  0  0  0  0
  149.8815  142.7719  156.0657 H   0  0  0  0  0  0  0  0  0  0  0  0
  149.4507  140.0556  156.3064 H   0  0  0  0  0  0  0  0  0  0  0  0
  150.3097  141.6834  153.8733 H   0  0  0  0  0  0  0  0  0  0  0  0
  149.8964  139.9931  153.7921 H   0  0  0  0  0  0  0  0  0  0  0  0
  147.1830  139.5408  153.1938 H   0  0  0  0  0  0  0  0  0  0  0  0
  145.7262  143.2012  154.6508 H   0  0  0  0  0  0  0  0  0  0  0  0
  148.2235  143.1826  155.1213 H   0  0  0  0  0  0  0  0  0  0  0  0
  1  2  1  0  0  0  0
  1 19  1  0  0  0  0
  1 20  1  0  0  0  0
  1 21  1  0  0  0  0
  2  3  1  0  0  0  0
  2  4  1  0  0  0  0
  2 22  1  0  0  0  0
  3 23  1  0  0  0  0
  3 24  1  0  0  0  0
  3 25  1  0  0  0  0
  4  5  1  0  0  0  0
  4 26  1  0  0  0  0
  4 27  1  0  0  0  0
  5  6  2  0  0  0  0
  5  7  1  0  0  0  0
  7  8  1  0  0  0  0
  7 28  1  0  0  0  0
  8  9  1  0  0  0  0
  8 15  1  0  0  0  0
  8 29  1  0  0  0  0
  9 10  1  0  0  0  0
  9 30  1  0  0  0  0
  9 31  1  0  0  0  0
 10 14  1  0  0  0  0
 10 11  2  0  0  0  0
 11 12  1  0  0  0  0
 11 32  1  0  0  0  0
 12 18  1  0  0  0  0
 12 13  1  0  0  0  0
 13 14  2  0  0  0  0
 13 33  1  0  0  0  0
 14 34  1  0  0  0  0
 15 16  2  0  0  0  0
 15 17  1  0  0  0  0
M  CHG  1  14   1
M  CHG  1  17  -1
M  END
> <s_m_source_file>
AV-unprocessed.smi

> <i_m_source_file_index>
2698

> <i_lp_mmshare_version>
43012

> <i_f3d_flags>
0

> <s_epik_input>
W0NIM11bQ0hdKFtDSDNdKVtDSDJdQyg9TylbTkhdW0NAQEhdKEMoPU8pW09IXSlbQ0gyXWMxW2NIXVtuSF1bY0hdbjE=

> <s_epik_cmdline>
J2VwaWtfcHl0aG9uJywgJy1waCcsICc3LjAnLCAnLXRuJywgJzgnLCAnLW1hJywgJzIwMCcsICctbWV0YWxfYmluZGluZycsICctaW1hZScsICc8aW5maWxlLm1hZT4nLCAnLW9tYWUnLCAnPG91dGZpbGUubWFlPic=

> <r_lp_tautomer_probability>
1

> <r_epik_Ionization_Penalty>
0.478676

> <r_epik_Ionization_Penalty_Charging>
5.56794e-05

> <r_epik_Ionization_Penalty_Neutral>
0.478621

> <r_epik_State_Penalty>
0.385221

> <r_epik_Charging_Adjusted_Penalty>
0.385276

> <i_epik_Tot_Q>
0

> <i_epik_Tot_abs_Q>
2

> <r_epik_Metal_State_Penalty>
0.800557

> <b_epik_Metal_Only>
0

> <s_lp_Force_Field>
OPLS_2005

> <r_lp_Energy>
0.213312

> <b_lp_Chiralities_Consistent>
1

> <s_lp_Variant>
AV-unprocessed.smi:2698-2

> <Gold.Version>
5.8.1

> <Gold.Id.Protein>
6NUR|6NUR_protein|mol2

> <Gold.PLP.Fitness>
55.7580

> <Gold.PLP.PLP>
-35.7466

> <Gold.PLP.part.hbond>
-4.5235

> <Gold.PLP.part.metal>
0.0000

> <Gold.PLP.part.buried>
0.0100

> <Gold.PLP.part.nonpolar>
-30.7808

> <Gold.PLP.part.repulsive>
0.2975

> <Gold.PLP.ligand.clash>
0.0000

> <Gold.PLP.ligand.torsion>
0.5378

> <Gold.PLP.Chemscore.Hbond>
6.9404

> <Gold.PLP.Chemscore.CHOScore>
0.0000

> <Gold.PLP.Chemscore.Metal>
0.0000

> <Gold.Chemscore.Hbonds>
donor molecule, donor type, donor heavy atom, donor atom, acceptor molecule, acceptor atom, score
      L1  H     7    28       P1  8028  0.52
      L1  H    12    18       P1 10175  2.00
      L1  H    14    34       P1  8028  2.00
      P1  H  7989  7998       L1    16  0.46
      P1  H  7997  8010       L1    16  1.72

> <Gold.PLP.Chemscore.Internal.Correction>
0.2658

> <Gold.Rescore>
     Score         DG    S(hbond)    S(metal)    S(lipo)     H(rot)  DE(clash)    DE(int)     intcor
     12.62     -18.00       3.39        0.00      77.67       3.09       2.14       3.23       ----

> <Gold.Chemscore.Fitness>
12.6218

> <Gold.Chemscore.DG>
-17.9965

> <Gold.Chemscore.ZeroCoef>
-5.4800

> <Gold.Chemscore.Hbond>
3.3942

> <Gold.Chemscore.Metal>
0.0000

> <Gold.Chemscore.Lipo>
77.6655

> <Gold.Chemscore.Internal_Hbond>
0.0000

> <Gold.Chemscore.DEClash>
2.1410

> <Gold.Chemscore.DEInternal>
3.2337

> <Gold.Chemscore.Rot>
3.0887

> <Gold.Chemscore.Internal.Correction>
   9.000000E+99

> <Gold.Chemscore.Hbonds>
donor molecule, donor type, donor heavy atom, donor atom, acceptor molecule, acceptor atom, score
      L1  H     7    28       P1  8028  0.52
      L1  H    12    18       P1 10175  0.60
      L1  H    14    34       P1  8028  0.97
      P1  H  7989  7998       L1    16  0.20
      P1  H  7997  8010       L1    16  0.73

> <Gold.Chemscore.Hbond.Weighted>
-11.3367

> <Gold.Chemscore.Metal.Weighted>
-0.0000

> <Gold.Chemscore.Lipo.Weighted>
-9.0869

> <Gold.Chemscore.Internal_Hbond.Weighted>
0.0000

> <Gold.Chemscore.DEClash.Weighted>
2.1410

> <Gold.Chemscore.DEInternal.Weighted>
3.2337

> <Gold.Chemscore.Rot.Weighted>
7.9070

> <Gold.Chemscore.Internal.Correction.Weighted>
   9.000000E+99

> <Gold.Protein.RotatedTorsions>
[ 6907 6896 6895 6894 ] final -171.65 input  -60.11 | X-H torsion
[ 7974 7965 7964 7962 ] final  -72.54 input  175.53 | X-H torsion
[ 8008 7997 7996 7995 ] final   90.06 input   59.86 | X-H torsion
[ 10167 10162 10161 10158 ] final -128.76 input  -65.29 | X-H torsion
[ 10718 10713 10712 10709 ] final  159.15 input   66.30 | X-H torsion
[ 10763 10752 10751 10750 ] final  151.78 input  -60.55 | X-H torsion
[ 11005 11000 10999 10996 ] final  -96.18 input  -57.11 | X-H torsion

> <Gold.Protein.ActiveResidues>
 VAL166  LYS551  ARG553  GLY616  TRP617  ASP618  TYR619  PRO620  LYS621  CYS622 
 ASP623  PHE694  ASN695  SER759  ASP760  ASP761  ALA762  ILE779  LEU786  VAL792 
 PHE793  MET794  SER795  GLU796  ALA797  LYS798  CYS799  TRP800  GLU811  SER814 

> <Gold.Protein.RotatedAtoms>
  151.5273  133.3455  159.2911 H   0  0  0  0  0  0  0  0  0  0  0  0  # atno 6907 bound_to 6896
  150.8615  134.7971  159.7097 H   0  0  0  0  0  0  0  0  0  0  0  0  # atno 6908 bound_to 6896
  152.4633  134.5143  159.9815 H   0  0  0  0  0  0  0  0  0  0  0  0  # atno 6909 bound_to 6896
  145.6639  140.9243  143.0919 H   0  0  0  0  0  0  0  0  0  0  0  0  # atno 7974 bound_to 7965
  156.0074  140.3353  155.6906 H   0  0  0  0  0  0  0  0  0  0  0  0  # atno 8008 bound_to 7997
  155.6205  140.0674  157.2697 H   0  0  0  0  0  0  0  0  0  0  0  0  # atno 8009 bound_to 7997
  154.4270  140.1777  156.1354 H   0  0  0  0  0  0  0  0  0  0  0  0  # atno 8010 bound_to 7997
  139.9469  143.6100  152.2487 H   0  0  0  0  0  0  0  0  0  0  0  0  # atno 10167 bound_to 10162
  157.1681  131.0603  151.2197 H   0  0  0  0  0  0  0  0  0  0  0  0  # atno 10718 bound_to 10713
  154.1093  135.2840  155.3234 H   0  0  0  0  0  0  0  0  0  0  0  0  # atno 10763 bound_to 10752
  154.6501  135.5372  153.7895 H   0  0  0  0  0  0  0  0  0  0  0  0  # atno 10764 bound_to 10752
  153.0351  135.6508  154.1252 H   0  0  0  0  0  0  0  0  0  0  0  0  # atno 10765 bound_to 10752
  141.1419  133.8079  157.0536 H   0  0  0  0  0  0  0  0  0  0  0  0  # atno 11005 bound_to 11000
  144.7080  139.8484  143.7424 LP  0  0  0  0  0  0  0  0  0  0  0  0  # atno 17320 bound_to 7965
  146.1102  139.4106  143.0292 LP  0  0  0  0  0  0  0  0  0  0  0  0  # atno 17321 bound_to 7965
  139.6660  144.7662  151.1873 LP  0  0  0  0  0  0  0  0  0  0  0  0  # atno 17342 bound_to 10162
  140.7594  143.5938  150.8769 LP  0  0  0  0  0  0  0  0  0  0  0  0  # atno 17343 bound_to 10162
  157.4069  130.7364  149.6809 LP  0  0  0  0  0  0  0  0  0  0  0  0  # atno 17370 bound_to 10713
  155.9743  130.4105  150.3936 LP  0  0  0  0  0  0  0  0  0  0  0  0  # atno 17371 bound_to 10713
  140.0616  134.9752  157.1314 LP  0  0  0  0  0  0  0  0  0  0  0  0  # atno 17394 bound_to 11000
  140.3840  134.2256  155.7169 LP  0  0  0  0  0  0  0  0  0  0  0  0  # atno 17395 bound_to 11000

$$$$
