AV-unprocessed.smi:2464|AV-procd|sdf|9721|dock2
  -GOLD-   2272013363D 1   1.00000     0.00000
 Structure written by MMmdl.
 32 33  0  0  0  0  0  0  0  0  3 V2000
  152.5664  144.8034  158.5585 C   0  0  0  0  0  0  0  0  0  0  0  0
  152.3368  143.4131  159.1603 C   0  0  0  0  0  0  0  0  0  0  0  0
  152.2128  142.4207  158.0904 N   0  0  0  0  0  0  0  0  0  0  0  0
  151.0940  142.1149  157.4146 C   0  0  0  0  0  0  0  0  0  0  0  0
  150.0052  142.6535  157.6162 O   0  0  0  0  0  0  0  0  0  0  0  0
  151.3208  141.1411  156.5171 N   0  0  0  0  0  0  0  0  0  0  0  0
  150.3873  140.5232  155.6375 C   0  0  0  0  0  0  0  0  0  0  0  0
  149.1901  141.1734  155.2506 C   0  0  0  0  0  0  0  0  0  0  0  0
  148.3321  140.5366  154.3352 C   0  0  0  0  0  0  0  0  0  0  0  0
  148.5958  139.3340  153.7880 N   0  0  0  0  0  0  0  0  0  0  0  0
  149.7434  138.7202  154.1431 C   0  0  0  0  0  0  0  0  0  0  0  0
  150.6779  139.2569  155.0588 C   0  0  0  0  0  0  0  0  0  0  0  0
  151.8993  138.4917  155.3742 N   0  3  0  0  0  0  0  0  0  0  0  0
  151.9855  137.3311  154.9867 O   0  0  0  0  0  0  0  0  0  0  0  0
  152.7856  139.0695  155.9942 O   0  5  0  0  0  0  0  0  0  0  0  0
  153.2641  142.9338  160.2982 C   0  0  0  0  0  0  0  0  0  0  0  0
  152.2161  143.4408  161.2919 C   0  0  0  0  0  0  0  0  0  0  0  0
  151.1874  143.2508  160.1732 C   0  0  0  0  0  0  0  0  0  0  0  0
  152.5503  145.5795  159.3240 H   0  0  0  0  0  0  0  0  0  0  0  0
  151.7960  145.0540  157.8285 H   0  0  0  0  0  0  0  0  0  0  0  0
  153.5312  144.8705  158.0552 H   0  0  0  0  0  0  0  0  0  0  0  0
  153.0552  141.9186  157.8504 H   0  0  0  0  0  0  0  0  0  0  0  0
  152.2395  140.7235  156.5396 H   0  0  0  0  0  0  0  0  0  0  0  0
  148.9259  142.1512  155.6241 H   0  0  0  0  0  0  0  0  0  0  0  0
  147.4141  141.0134  154.0251 H   0  0  0  0  0  0  0  0  0  0  0  0
  149.9159  137.7588  153.6817 H   0  0  0  0  0  0  0  0  0  0  0  0
  153.3874  141.8495  160.3426 H   0  0  0  0  0  0  0  0  0  0  0  0
  154.2253  143.4461  160.3517 H   0  0  0  0  0  0  0  0  0  0  0  0
  152.0667  142.8046  162.1644 H   0  0  0  0  0  0  0  0  0  0  0  0
  152.3610  144.4860  161.5700 H   0  0  0  0  0  0  0  0  0  0  0  0
  150.4215  144.0257  160.1272 H   0  0  0  0  0  0  0  0  0  0  0  0
  150.7443  142.2528  160.1825 H   0  0  0  0  0  0  0  0  0  0  0  0
  1  2  1  0  0  0  0
  1 19  1  0  0  0  0
  1 20  1  0  0  0  0
  1 21  1  0  0  0  0
  2 18  1  0  0  0  0
  2  3  1  0  0  0  0
  2 16  1  0  0  0  0
  3  4  1  0  0  0  0
  3 22  1  0  0  0  0
  4  5  2  0  0  0  0
  4  6  1  0  0  0  0
  6  7  1  0  0  0  0
  6 23  1  0  0  0  0
  7 12  1  0  0  0  0
  7  8  2  0  0  0  0
  8  9  1  0  0  0  0
  8 24  1  0  0  0  0
  9 10  2  0  0  0  0
  9 25  1  0  0  0  0
 10 11  1  0  0  0  0
 11 12  2  0  0  0  0
 11 26  1  0  0  0  0
 12 13  1  0  0  0  0
 13 14  2  0  0  0  0
 13 15  1  0  0  0  0
 16 17  1  0  0  0  0
 16 27  1  0  0  0  0
 16 28  1  0  0  0  0
 17 18  1  0  0  0  0
 17 29  1  0  0  0  0
 17 30  1  0  0  0  0
 18 31  1  0  0  0  0
 18 32  1  0  0  0  0
M  CHG  1  13   1
M  CHG  1  15  -1
M  END
> <s_m_source_file>
AV-unprocessed.smi

> <i_m_source_file_index>
2464

> <i_lp_mmshare_version>
43012

> <i_f3d_flags>
0

> <s_epik_input>
W0NIMl0xW0NIMl1bQ0gyXUMxKFtDSDNdKVtOSF1DKD1PKVtOSF1jMltjSF1bY0hdbltjSF1jMltOK10oPU8pW08tXQ==

> <s_epik_cmdline>
J2VwaWtfcHl0aG9uJywgJy1waCcsICc3LjAnLCAnLXRuJywgJzgnLCAnLW1hJywgJzIwMCcsICctbWV0YWxfYmluZGluZycsICctaW1hZScsICc8aW5maWxlLm1hZT4nLCAnLW9tYWUnLCAnPG91dGZpbGUubWFlPic=

> <r_lp_tautomer_probability>
1

> <r_epik_Ionization_Penalty>
0.000161487

> <r_epik_Ionization_Penalty_Charging>
0

> <r_epik_Ionization_Penalty_Neutral>
0.000161487

> <r_epik_State_Penalty>
-0

> <r_epik_Charging_Adjusted_Penalty>
0

> <i_epik_Tot_Q>
0

> <i_epik_Tot_abs_Q>
2

> <r_epik_Metal_State_Penalty>
-0

> <b_epik_Metal_Only>
0

> <s_lp_Force_Field>
OPLS_2005

> <r_lp_Energy>
25.6435

> <b_lp_Chiralities_Consistent>
1

> <s_lp_Variant>
AV-unprocessed.smi:2464-1

> <Gold.Version>
5.8.1

> <Gold.Id.Protein>
6NUR|6NUR_protein|mol2

> <Gold.PLP.Fitness>
42.4246

> <Gold.PLP.PLP>
-34.7801

> <Gold.PLP.part.hbond>
-2.0000

> <Gold.PLP.part.metal>
0.0000

> <Gold.PLP.part.buried>
-2.5065

> <Gold.PLP.part.nonpolar>
-32.5845

> <Gold.PLP.part.repulsive>
2.1556

> <Gold.PLP.ligand.clash>
0.0000

> <Gold.PLP.ligand.torsion>
0.5540

> <Gold.PLP.Chemscore.Hbond>
1.8160

> <Gold.PLP.Chemscore.CHOScore>
1.0000

> <Gold.PLP.Chemscore.Metal>
0.0000

> <Gold.Chemscore.Hbonds>
donor molecule, donor type, donor heavy atom, donor atom, acceptor molecule, acceptor atom, score
      P1  H  7997  8009       L1    15  1.00
      P1  H 10752 10764       L1    14  0.88
      L1  C    11    26       P1  7948  1.00

> <Gold.PLP.Chemscore.Internal.Correction>
0.3046

> <Gold.Rescore>
     Score         DG    S(hbond)    S(metal)    S(lipo)     H(rot)  DE(clash)    DE(int)     intcor
     14.62     -20.24       1.88        0.00      94.46       1.00       0.82       4.80       ----

> <Gold.Chemscore.Fitness>
14.6158

> <Gold.Chemscore.DG>
-20.2386

> <Gold.Chemscore.ZeroCoef>
-5.4800

> <Gold.Chemscore.Hbond>
1.8764

> <Gold.Chemscore.Metal>
0.0000

> <Gold.Chemscore.Lipo>
94.4557

> <Gold.Chemscore.Internal_Hbond>
0.0000

> <Gold.Chemscore.DEClash>
0.8207

> <Gold.Chemscore.DEInternal>
4.8021

> <Gold.Chemscore.Rot>
1.0000

> <Gold.Chemscore.Internal.Correction>
   9.000000E+99

> <Gold.Chemscore.Hbonds>
donor molecule, donor type, donor heavy atom, donor atom, acceptor molecule, acceptor atom, score
      P1  H  7997  8009       L1    15  0.99
      P1  H 10752 10764       L1    14  0.82

> <Gold.Chemscore.Hbond.Weighted>
-6.2673

> <Gold.Chemscore.Metal.Weighted>
-0.0000

> <Gold.Chemscore.Lipo.Weighted>
-11.0513

> <Gold.Chemscore.Internal_Hbond.Weighted>
0.0000

> <Gold.Chemscore.DEClash.Weighted>
0.8207

> <Gold.Chemscore.DEInternal.Weighted>
4.8021

> <Gold.Chemscore.Rot.Weighted>
2.5600

> <Gold.Chemscore.Internal.Correction.Weighted>
   9.000000E+99

> <Gold.Protein.RotatedTorsions>
[ 6907 6896 6895 6894 ] final   95.05 input  -60.11 | X-H torsion
[ 7974 7965 7964 7962 ] final  -94.18 input  175.53 | X-H torsion
[ 8008 7997 7996 7995 ] final -170.35 input   59.86 | X-H torsion
[ 10167 10162 10161 10158 ] final -105.53 input  -65.29 | X-H torsion
[ 10718 10713 10712 10709 ] final  -16.08 input   66.30 | X-H torsion
[ 10763 10752 10751 10750 ] final  -64.97 input  -60.55 | X-H torsion
[ 11005 11000 10999 10996 ] final -172.39 input  -57.11 | X-H torsion

> <Gold.Protein.ActiveResidues>
 VAL166  LYS551  ARG553  GLY616  TRP617  ASP618  TYR619  PRO620  LYS621  CYS622 
 ASP623  PHE694  ASN695  SER759  ASP760  ASP761  ALA762  ILE779  LEU786  VAL792 
 PHE793  MET794  SER795  GLU796  ALA797  LYS798  CYS799  TRP800  GLU811  SER814 

> <Gold.Protein.RotatedAtoms>
  152.5446  134.1099  159.8353 H   0  0  0  0  0  0  0  0  0  0  0  0  # atno 6907 bound_to 6896
  151.1167  133.5126  159.2611 H   0  0  0  0  0  0  0  0  0  0  0  0  # atno 6908 bound_to 6896
  151.1824  135.0376  159.8852 H   0  0  0  0  0  0  0  0  0  0  0  0  # atno 6909 bound_to 6896
  145.3767  140.9512  143.2417 H   0  0  0  0  0  0  0  0  0  0  0  0  # atno 7974 bound_to 7965
  155.9172  140.1068  157.1234 H   0  0  0  0  0  0  0  0  0  0  0  0  # atno 8008 bound_to 7997
  154.4048  140.1263  156.4698 H   0  0  0  0  0  0  0  0  0  0  0  0  # atno 8009 bound_to 7997
  155.7239  140.3469  155.5031 H   0  0  0  0  0  0  0  0  0  0  0  0  # atno 8010 bound_to 7997
  140.1976  143.3844  152.1156 H   0  0  0  0  0  0  0  0  0  0  0  0  # atno 10167 bound_to 10162
  156.5927  130.4803  149.6272 H   0  0  0  0  0  0  0  0  0  0  0  0  # atno 10718 bound_to 10713
  154.3381  135.6162  153.5583 H   0  0  0  0  0  0  0  0  0  0  0  0  # atno 10763 bound_to 10752
  152.9806  135.5763  154.4885 H   0  0  0  0  0  0  0  0  0  0  0  0  # atno 10764 bound_to 10752
  154.4583  135.2855  155.1708 H   0  0  0  0  0  0  0  0  0  0  0  0  # atno 10765 bound_to 10752
  140.4975  134.5926  157.4976 H   0  0  0  0  0  0  0  0  0  0  0  0  # atno 11005 bound_to 11000
  144.8537  139.5282  143.6844 LP  0  0  0  0  0  0  0  0  0  0  0  0  # atno 17320 bound_to 7965
  146.2861  139.7008  142.9194 LP  0  0  0  0  0  0  0  0  0  0  0  0  # atno 17321 bound_to 7965
  139.5230  144.7066  151.5334 LP  0  0  0  0  0  0  0  0  0  0  0  0  # atno 17342 bound_to 10162
  140.6413  143.8883  150.6694 LP  0  0  0  0  0  0  0  0  0  0  0  0  # atno 17343 bound_to 10162
  156.2536  130.6921  151.1667 LP  0  0  0  0  0  0  0  0  0  0  0  0  # atno 17370 bound_to 10713
  157.7299  131.0620  150.5750 LP  0  0  0  0  0  0  0  0  0  0  0  0  # atno 17371 bound_to 10713
  139.9733  134.7257  155.9999 LP  0  0  0  0  0  0  0  0  0  0  0  0  # atno 17394 bound_to 11000
  141.1453  133.6557  156.3848 LP  0  0  0  0  0  0  0  0  0  0  0  0  # atno 17395 bound_to 11000

$$$$
