AV-unprocessed.smi:3160|AV-procd|sdf|12051|dock9
  -GOLD-   2272017483D 1   1.00000     0.00000
 Structure written by MMmdl.
 40 41  0  0  0  0  0  0  0  0  2 V2000
  150.6833  135.9422  154.9499 C   0  0  0  0  0  0  0  0  0  0  0  0
  150.8577  137.4299  155.0533 C   0  0  0  0  0  0  0  0  0  0  0  0
  150.7061  138.4020  154.0246 C   0  0  0  0  0  0  0  0  0  0  0  0
  150.9307  139.6358  154.4460 N   0  0  0  0  0  0  0  0  0  0  0  0
  151.2346  139.4984  155.7544 N   0  0  0  0  0  0  0  0  0  0  0  0
  151.5392  140.6783  156.5539 C   0  0  2  0  0  0  0  0  0  0  0  0
  152.2202  140.2527  157.8675 C   0  0  0  0  0  0  0  0  0  0  0  0
  150.2835  141.5611  156.7802 C   0  0  2  0  0  0  0  0  0  0  0  0
  149.2661  141.4779  155.6275 C   0  0  0  0  0  0  0  0  0  0  0  0
  150.6769  142.9768  156.9652 N   0  3  0  0  0  0  0  0  0  0  0  0
  150.6969  143.4533  158.3653 C   0  0  0  0  0  0  0  0  0  0  0  0
  150.7991  144.9763  158.4830 C   0  0  0  0  0  0  0  0  0  0  0  0
  151.3493  145.2213  159.8930 C   0  0  0  0  0  0  0  0  0  0  0  0
  152.0637  143.9248  160.3088 C   0  0  0  0  0  0  0  0  0  0  0  0
  151.9300  142.9627  159.1234 C   0  0  0  0  0  0  0  0  0  0  0  0
  151.1954  138.1753  156.1468 C   0  0  0  0  0  0  0  0  0  0  0  0
  150.7612  135.5964  153.9189 H   0  0  0  0  0  0  0  0  0  0  0  0
  149.7095  135.6249  155.3231 H   0  0  0  0  0  0  0  0  0  0  0  0
  151.4391  135.4067  155.5249 H   0  0  0  0  0  0  0  0  0  0  0  0
  150.4400  138.2475  152.9893 H   0  0  0  0  0  0  0  0  0  0  0  0
  152.2638  141.2709  155.9915 H   0  0  0  0  0  0  0  0  0  0  0  0
  152.5784  141.1141  158.4309 H   0  0  0  0  0  0  0  0  0  0  0  0
  153.0843  139.6169  157.6705 H   0  0  0  0  0  0  0  0  0  0  0  0
  151.5383  139.6949  158.5097 H   0  0  0  0  0  0  0  0  0  0  0  0
  149.7740  141.2072  157.6778 H   0  0  0  0  0  0  0  0  0  0  0  0
  148.8588  140.4729  155.5162 H   0  0  0  0  0  0  0  0  0  0  0  0
  149.7201  141.7603  154.6770 H   0  0  0  0  0  0  0  0  0  0  0  0
  148.4215  142.1450  155.8030 H   0  0  0  0  0  0  0  0  0  0  0  0
  151.6018  143.0915  156.5759 H   0  0  0  0  0  0  0  0  0  0  0  0
  149.8048  143.1044  158.8884 H   0  0  0  0  0  0  0  0  0  0  0  0
  151.5064  145.3610  157.7465 H   0  0  0  0  0  0  0  0  0  0  0  0
  149.8459  145.4788  158.3172 H   0  0  0  0  0  0  0  0  0  0  0  0
  152.0203  146.0810  159.9132 H   0  0  0  0  0  0  0  0  0  0  0  0
  150.5330  145.4300  160.5854 H   0  0  0  0  0  0  0  0  0  0  0  0
  153.1095  144.0978  160.5650 H   0  0  0  0  0  0  0  0  0  0  0  0
  151.5783  143.5040  161.1905 H   0  0  0  0  0  0  0  0  0  0  0  0
  151.8428  141.9220  159.4378 H   0  0  0  0  0  0  0  0  0  0  0  0
  152.8158  143.0448  158.4914 H   0  0  0  0  0  0  0  0  0  0  0  0
  151.4079  137.8753  157.1623 H   0  0  0  0  0  0  0  0  0  0  0  0
  150.0385  143.5602  156.4436 H   0  0  0  0  0  0  0  0  0  0  0  0
  1  2  1  0  0  0  0
  1 17  1  0  0  0  0
  1 18  1  0  0  0  0
  1 19  1  0  0  0  0
  2 16  2  0  0  0  0
  2  3  1  0  0  0  0
  3  4  2  0  0  0  0
  3 20  1  0  0  0  0
  4  5  1  0  0  0  0
  5  6  1  0  0  0  0
  5 16  1  0  0  0  0
  6  7  1  0  0  0  0
  6  8  1  0  0  0  0
  6 21  1  0  0  0  0
  7 22  1  0  0  0  0
  7 23  1  0  0  0  0
  7 24  1  0  0  0  0
  8  9  1  0  0  0  0
  8 10  1  0  0  0  0
  8 25  1  0  0  0  0
  9 26  1  0  0  0  0
  9 27  1  0  0  0  0
  9 28  1  0  0  0  0
 10 11  1  0  0  0  0
 10 29  1  0  0  0  0
 10 40  1  0  0  0  0
 11 15  1  0  0  0  0
 11 12  1  0  0  0  0
 11 30  1  0  0  0  0
 12 13  1  0  0  0  0
 12 31  1  0  0  0  0
 12 32  1  0  0  0  0
 13 14  1  0  0  0  0
 13 33  1  0  0  0  0
 13 34  1  0  0  0  0
 14 15  1  0  0  0  0
 14 35  1  0  0  0  0
 14 36  1  0  0  0  0
 15 37  1  0  0  0  0
 15 38  1  0  0  0  0
 16 39  1  0  0  0  0
M  CHG  1  10   1
M  END
> <s_m_source_file>
AV-unprocessed.smi

> <i_m_source_file_index>
3160

> <i_lp_mmshare_version>
43012

> <i_f3d_flags>
0

> <s_epik_input>
W0NIM11jMVtjSF1ubihbY0hdMSlbQ0BIXShbQ0gzXSlbQ0BIXShbQ0gzXSlbTkhdW0NIXTJbQ0gyXVtDSDJdW0NIMl1bQ0gyXTI=

> <s_epik_cmdline>
J2VwaWtfcHl0aG9uJywgJy1waCcsICc3LjAnLCAnLXRuJywgJzgnLCAnLW1hJywgJzIwMCcsICctbWV0YWxfYmluZGluZycsICctaW1hZScsICc8aW5maWxlLm1hZT4nLCAnLW9tYWUnLCAnPG91dGZpbGUubWFlPic=

> <r_lp_tautomer_probability>
1

> <r_epik_Ionization_Penalty>
0.00117636

> <r_epik_Ionization_Penalty_Charging>
0.00115264

> <r_epik_Ionization_Penalty_Neutral>
2.37123e-05

> <r_epik_State_Penalty>
-0

> <r_epik_Charging_Adjusted_Penalty>
0.00115264

> <i_epik_Tot_Q>
1

> <i_epik_Tot_abs_Q>
1

> <r_epik_Metal_State_Penalty>
-0

> <b_epik_Metal_Only>
0

> <s_lp_Force_Field>
OPLS_2005

> <r_lp_Energy>
32.1139

> <b_lp_Chiralities_Consistent>
1

> <s_lp_Variant>
AV-unprocessed.smi:3160-1

> <Gold.Version>
5.8.1

> <Gold.Id.Protein>
6NUR|6NUR_protein|mol2

> <Gold.PLP.Fitness>
47.4857

> <Gold.PLP.PLP>
-35.7800

> <Gold.PLP.part.hbond>
-2.0000

> <Gold.PLP.part.metal>
0.0000

> <Gold.PLP.part.buried>
-4.4358

> <Gold.PLP.part.nonpolar>
-30.7838

> <Gold.PLP.part.repulsive>
0.1617

> <Gold.PLP.ligand.clash>
0.0160

> <Gold.PLP.ligand.torsion>
1.6463

> <Gold.PLP.Chemscore.Hbond>
3.0000

> <Gold.PLP.Chemscore.CHOScore>
1.9761

> <Gold.PLP.Chemscore.Metal>
0.0000

> <Gold.Chemscore.Hbonds>
donor molecule, donor type, donor heavy atom, donor atom, acceptor molecule, acceptor atom, score
      L1  H    10    40       P1  8028  2.00
      P1  H  7989  7998       L1     4  1.00
      L1  C     3    20       P1  7948  0.45
      L1  C     3    20       P1  7949  0.15
      L1  C     3    20       P1  7957  0.58

> <Gold.PLP.Chemscore.Internal.Correction>
0.0861

> <Gold.Rescore>
     Score         DG    S(hbond)    S(metal)    S(lipo)     H(rot)  DE(clash)    DE(int)     intcor
     17.79     -20.99       1.96        0.00     106.55       1.37       0.07       3.13       ----

> <Gold.Chemscore.Fitness>
17.7880

> <Gold.Chemscore.DG>
-20.9868

> <Gold.Chemscore.ZeroCoef>
-5.4800

> <Gold.Chemscore.Hbond>
1.9612

> <Gold.Chemscore.Metal>
0.0000

> <Gold.Chemscore.Lipo>
106.5470

> <Gold.Chemscore.Internal_Hbond>
0.0000

> <Gold.Chemscore.DEClash>
0.0655

> <Gold.Chemscore.DEInternal>
3.1332

> <Gold.Chemscore.Rot>
1.3709

> <Gold.Chemscore.Internal.Correction>
   9.000000E+99

> <Gold.Chemscore.Hbonds>
donor molecule, donor type, donor heavy atom, donor atom, acceptor molecule, acceptor atom, score
      L1  H    10    40       P1  8028  1.00
      P1  H  7989  7998       L1     4  0.98

> <Gold.Chemscore.Hbond.Weighted>
-6.5503

> <Gold.Chemscore.Metal.Weighted>
-0.0000

> <Gold.Chemscore.Lipo.Weighted>
-12.4660

> <Gold.Chemscore.Internal_Hbond.Weighted>
0.0000

> <Gold.Chemscore.DEClash.Weighted>
0.0655

> <Gold.Chemscore.DEInternal.Weighted>
3.1332

> <Gold.Chemscore.Rot.Weighted>
3.5095

> <Gold.Chemscore.Internal.Correction.Weighted>
   9.000000E+99

> <Gold.Protein.RotatedTorsions>
[ 6907 6896 6895 6894 ] final -148.97 input  -60.11 | X-H torsion
[ 7974 7965 7964 7962 ] final -123.33 input  175.53 | X-H torsion
[ 8008 7997 7996 7995 ] final   24.78 input   59.86 | X-H torsion
[ 10167 10162 10161 10158 ] final  170.83 input  -65.29 | X-H torsion
[ 10718 10713 10712 10709 ] final -104.79 input   66.30 | X-H torsion
[ 10763 10752 10751 10750 ] final  142.97 input  -60.55 | X-H torsion
[ 11005 11000 10999 10996 ] final  167.04 input  -57.11 | X-H torsion

> <Gold.Protein.ActiveResidues>
 VAL166  LYS551  ARG553  GLY616  TRP617  ASP618  TYR619  PRO620  LYS621  CYS622 
 ASP623  PHE694  ASN695  SER759  ASP760  ASP761  ALA762  ILE779  LEU786  VAL792 
 PHE793  MET794  SER795  GLU796  ALA797  LYS798  CYS799  TRP800  GLU811  SER814 

> <Gold.Protein.RotatedAtoms>
  151.1774  133.4746  159.2593 H   0  0  0  0  0  0  0  0  0  0  0  0  # atno 6907 bound_to 6896
  151.1294  135.0122  159.8585 H   0  0  0  0  0  0  0  0  0  0  0  0  # atno 6908 bound_to 6896
  152.5459  134.1678  159.8637 H   0  0  0  0  0  0  0  0  0  0  0  0  # atno 6909 bound_to 6896
  145.0198  140.7978  143.4388 H   0  0  0  0  0  0  0  0  0  0  0  0  # atno 7974 bound_to 7965
  155.0015  140.3126  155.4865 H   0  0  0  0  0  0  0  0  0  0  0  0  # atno 8008 bound_to 7997
  156.2924  140.2231  156.5066 H   0  0  0  0  0  0  0  0  0  0  0  0  # atno 8009 bound_to 7997
  154.7614  140.0459  157.0965 H   0  0  0  0  0  0  0  0  0  0  0  0  # atno 8010 bound_to 7997
  139.5029  144.3553  151.9881 H   0  0  0  0  0  0  0  0  0  0  0  0  # atno 10167 bound_to 10162
  156.0319  130.5532  150.7447 H   0  0  0  0  0  0  0  0  0  0  0  0  # atno 10718 bound_to 10713
  153.9646  135.2957  155.3431 H   0  0  0  0  0  0  0  0  0  0  0  0  # atno 10763 bound_to 10752
  154.7356  135.5048  153.9039 H   0  0  0  0  0  0  0  0  0  0  0  0  # atno 10764 bound_to 10752
  153.0930  135.6713  153.9928 H   0  0  0  0  0  0  0  0  0  0  0  0  # atno 10765 bound_to 10752
  140.2726  134.7814  157.3689 H   0  0  0  0  0  0  0  0  0  0  0  0  # atno 11005 bound_to 11000
  145.1910  139.2301  143.5242 LP  0  0  0  0  0  0  0  0  0  0  0  0  # atno 17320 bound_to 7965
  146.3483  140.1706  142.8589 LP  0  0  0  0  0  0  0  0  0  0  0  0  # atno 17321 bound_to 7965
  140.2989  144.3669  150.6066 LP  0  0  0  0  0  0  0  0  0  0  0  0  # atno 17342 bound_to 10162
  140.5888  143.2169  151.7291 LP  0  0  0  0  0  0  0  0  0  0  0  0  # atno 17343 bound_to 10162
  157.5007  131.0918  151.0318 LP  0  0  0  0  0  0  0  0  0  0  0  0  # atno 17370 bound_to 10713
  157.0700  130.5860  149.5401 LP  0  0  0  0  0  0  0  0  0  0  0  0  # atno 17371 bound_to 10713
  140.1358  134.5035  155.8069 LP  0  0  0  0  0  0  0  0  0  0  0  0  # atno 17394 bound_to 11000
  141.2175  133.6807  156.7122 LP  0  0  0  0  0  0  0  0  0  0  0  0  # atno 17395 bound_to 11000

$$$$
