AV-unprocessed.smi:693|AV-procd|sdf|3373|dock8
  -GOLD-   22720 0353D 1   1.00000     0.00000
 Structure written by MMmdl.
 46 47  0  0  0  0  0  0  0  0  1 V2000
  144.1403  131.4991  150.7509 C   0  0  0  0  0  0  0  0  0  0  0  0
  144.5061  132.9352  151.0629 C   0  0  0  0  0  0  0  0  0  0  0  0
  143.6251  133.7517  151.8020 C   0  0  0  0  0  0  0  0  0  0  0  0
  144.0058  135.0813  152.0677 C   0  0  0  0  0  0  0  0  0  0  0  0
  145.2481  135.5415  151.5851 C   0  0  0  0  0  0  0  0  0  0  0  0
  145.7105  136.9611  151.8464 C   0  0  0  0  0  0  0  0  0  0  0  0
  145.1884  137.4998  153.1879 C   0  0  0  0  0  0  0  0  0  0  0  0
  145.7433  138.8140  153.4905 N   0  0  0  0  0  0  0  0  0  0  0  0
  147.0445  139.0731  153.7060 C   0  0  0  0  0  0  0  0  0  0  0  0
  147.9043  138.1926  153.6455 O   0  0  0  0  0  0  0  0  0  0  0  0
  147.3319  140.3754  153.9592 N   0  0  0  0  0  0  0  0  0  0  0  0
  146.4063  141.3808  154.5058 C   0  0  0  0  0  0  0  0  0  0  0  0
  146.7634  141.6188  155.9823 C   0  0  0  0  0  0  0  0  0  0  0  0
  148.2371  142.0418  156.1352 C   0  0  0  0  0  0  0  0  0  0  0  0
  149.2044  141.0901  155.3861 C   0  0  2  0  0  0  0  0  0  0  0  0
  150.6732  141.5717  155.3951 C   0  0  0  0  0  0  0  0  0  0  0  0
  151.6727  140.5229  154.8960 C   0  0  0  0  0  0  0  0  0  0  0  0
  152.5953  140.1005  155.7641 N   0  0  0  0  0  0  0  0  0  0  0  0
  151.6010  140.0817  153.7511 O   0  0  0  0  0  0  0  0  0  0  0  0
  148.7098  140.8831  153.9368 C   0  0  0  0  0  0  0  0  0  0  0  0
  146.0558  134.6436  150.8559 C   0  0  0  0  0  0  0  0  0  0  0  0
  145.6987  133.3674  150.5965 N   0  0  0  0  0  0  0  0  0  0  0  0
  143.8633  130.9721  151.6643 H   0  0  0  0  0  0  0  0  0  0  0  0
  144.9724  130.9648  150.2903 H   0  0  0  0  0  0  0  0  0  0  0  0
  143.2935  131.4675  150.0654 H   0  0  0  0  0  0  0  0  0  0  0  0
  142.6799  133.3684  152.1577 H   0  0  0  0  0  0  0  0  0  0  0  0
  143.3564  135.7334  152.6333 H   0  0  0  0  0  0  0  0  0  0  0  0
  146.8009  136.9821  151.8269 H   0  0  0  0  0  0  0  0  0  0  0  0
  145.3762  137.6020  151.0296 H   0  0  0  0  0  0  0  0  0  0  0  0
  144.1023  137.5883  153.1557 H   0  0  0  0  0  0  0  0  0  0  0  0
  145.4191  136.8035  153.9961 H   0  0  0  0  0  0  0  0  0  0  0  0
  145.0926  139.5842  153.5442 H   0  0  0  0  0  0  0  0  0  0  0  0
  146.5120  142.3097  153.9434 H   0  0  0  0  0  0  0  0  0  0  0  0
  145.3541  141.1103  154.4183 H   0  0  0  0  0  0  0  0  0  0  0  0
  146.1115  142.3819  156.4081 H   0  0  0  0  0  0  0  0  0  0  0  0
  146.5847  140.7056  156.5517 H   0  0  0  0  0  0  0  0  0  0  0  0
  148.3565  143.0540  155.7466 H   0  0  0  0  0  0  0  0  0  0  0  0
  148.4824  142.0888  157.1961 H   0  0  0  0  0  0  0  0  0  0  0  0
  149.1694  140.1190  155.8838 H   0  0  0  0  0  0  0  0  0  0  0  0
  150.7695  142.4656  154.7766 H   0  0  0  0  0  0  0  0  0  0  0  0
  150.9600  141.8733  156.4033 H   0  0  0  0  0  0  0  0  0  0  0  0
  153.2741  139.4080  155.4832 H   0  0  0  0  0  0  0  0  0  0  0  0
  152.6085  140.4745  156.7019 H   0  0  0  0  0  0  0  0  0  0  0  0
  149.3844  140.2165  153.3976 H   0  0  0  0  0  0  0  0  0  0  0  0
  148.7383  141.8273  153.3905 H   0  0  0  0  0  0  0  0  0  0  0  0
  147.0164  134.9557  150.4729 H   0  0  0  0  0  0  0  0  0  0  0  0
  1  2  1  0  0  0  0
  1 23  1  0  0  0  0
  1 24  1  0  0  0  0
  1 25  1  0  0  0  0
  2 22  1  0  0  0  0
  2  3  2  0  0  0  0
  3  4  1  0  0  0  0
  3 26  1  0  0  0  0
  4  5  2  0  0  0  0
  4 27  1  0  0  0  0
  5  6  1  0  0  0  0
  5 21  1  0  0  0  0
  6  7  1  0  0  0  0
  6 28  1  0  0  0  0
  6 29  1  0  0  0  0
  7  8  1  0  0  0  0
  7 30  1  0  0  0  0
  7 31  1  0  0  0  0
  8  9  1  0  0  0  0
  8 32  1  0  0  0  0
  9 10  2  0  0  0  0
  9 11  1  0  0  0  0
 11 20  1  0  0  0  0
 11 12  1  0  0  0  0
 12 13  1  0  0  0  0
 12 33  1  0  0  0  0
 12 34  1  0  0  0  0
 13 14  1  0  0  0  0
 13 35  1  0  0  0  0
 13 36  1  0  0  0  0
 14 15  1  0  0  0  0
 14 37  1  0  0  0  0
 14 38  1  0  0  0  0
 15 16  1  0  0  0  0
 15 20  1  0  0  0  0
 15 39  1  0  0  0  0
 16 17  1  0  0  0  0
 16 40  1  0  0  0  0
 16 41  1  0  0  0  0
 17 18  1  0  0  0  0
 17 19  2  0  0  0  0
 18 42  1  0  0  0  0
 18 43  1  0  0  0  0
 20 44  1  0  0  0  0
 20 45  1  0  0  0  0
 21 22  2  0  0  0  0
 21 46  1  0  0  0  0
M  END
> <s_m_source_file>
AV-unprocessed.smi

> <i_m_source_file_index>
693

> <i_lp_mmshare_version>
43012

> <i_f3d_flags>
0

> <s_epik_input>
W0NIM11jMVtjSF1bY0hdYyhbY0hdbjEpW0NIMl1bQ0gyXVtOSF1DKD1PKU4yW0NIMl1bQ0gyXVtDSDJdW0NASF0oW0NIMl0yKVtDSDJdQyg9TylbTkgyXQ==

> <s_epik_cmdline>
J2VwaWtfcHl0aG9uJywgJy1waCcsICc3LjAnLCAnLXRuJywgJzgnLCAnLW1hJywgJzIwMCcsICctbWV0YWxfYmluZGluZycsICctaW1hZScsICc8aW5maWxlLm1hZT4nLCAnLW9tYWUnLCAnPG91dGZpbGUubWFlPic=

> <r_epik_Ionization_Penalty>
0.056948

> <r_epik_Ionization_Penalty_Charging>
0

> <r_epik_Ionization_Penalty_Neutral>
0.056948

> <r_epik_State_Penalty>
0.0490937

> <r_epik_Charging_Adjusted_Penalty>
0.0490937

> <i_epik_Tot_Q>
0

> <i_epik_Tot_abs_Q>
0

> <r_epik_Metal_State_Penalty>
0.0447689

> <b_epik_Metal_Only>
0

> <s_lp_Force_Field>
OPLS_2005

> <r_lp_Energy>
26.3335

> <b_lp_Chiralities_Consistent>
1

> <s_lp_Variant>
AV-unprocessed.smi:693-2

> <Gold.Version>
5.8.1

> <Gold.Id.Protein>
6NUR|6NUR_protein|mol2

> <Gold.PLP.Fitness>
41.5522

> <Gold.PLP.PLP>
-33.7705

> <Gold.PLP.part.hbond>
-2.0000

> <Gold.PLP.part.metal>
0.0000

> <Gold.PLP.part.buried>
-4.0271

> <Gold.PLP.part.nonpolar>
-29.8997

> <Gold.PLP.part.repulsive>
0.5164

> <Gold.PLP.ligand.clash>
0.0000

> <Gold.PLP.ligand.torsion>
0.5896

> <Gold.PLP.Chemscore.Hbond>
1.9920

> <Gold.PLP.Chemscore.CHOScore>
0.9731

> <Gold.PLP.Chemscore.Metal>
0.0000

> <Gold.Chemscore.Hbonds>
donor molecule, donor type, donor heavy atom, donor atom, acceptor molecule, acceptor atom, score
      L1  H     8    32       P1 10175  0.82
      L1  C    21    46       P1  7948  0.65

> <Gold.PLP.Chemscore.Internal.Correction>
0.0657

> <Gold.Rescore>
     Score         DG    S(hbond)    S(metal)    S(lipo)     H(rot)  DE(clash)    DE(int)     intcor
     13.89     -15.26       1.97        0.00      76.72       2.25       0.14       1.23       ----

> <Gold.Chemscore.Fitness>
13.8904

> <Gold.Chemscore.DG>
-15.2609

> <Gold.Chemscore.ZeroCoef>
-5.4800

> <Gold.Chemscore.Hbond>
1.9664

> <Gold.Chemscore.Metal>
0.0000

> <Gold.Chemscore.Lipo>
76.7199

> <Gold.Chemscore.Internal_Hbond>
0.0000

> <Gold.Chemscore.DEClash>
0.1409

> <Gold.Chemscore.DEInternal>
1.2297

> <Gold.Chemscore.Rot>
2.2512

> <Gold.Chemscore.Internal.Correction>
   9.000000E+99

> <Gold.Chemscore.Hbonds>
donor molecule, donor type, donor heavy atom, donor atom, acceptor molecule, acceptor atom, score
      L1  H     8    32       P1 10175  0.79

> <Gold.Chemscore.Hbond.Weighted>
-6.5678

> <Gold.Chemscore.Metal.Weighted>
-0.0000

> <Gold.Chemscore.Lipo.Weighted>
-8.9762

> <Gold.Chemscore.Internal_Hbond.Weighted>
0.0000

> <Gold.Chemscore.DEClash.Weighted>
0.1409

> <Gold.Chemscore.DEInternal.Weighted>
1.2297

> <Gold.Chemscore.Rot.Weighted>
5.7631

> <Gold.Chemscore.Internal.Correction.Weighted>
   9.000000E+99

> <Gold.Protein.RotatedTorsions>
[ 6907 6896 6895 6894 ] final  160.32 input  -60.11 | X-H torsion
[ 7974 7965 7964 7962 ] final    6.81 input  175.53 | X-H torsion
[ 8008 7997 7996 7995 ] final   15.18 input   59.86 | X-H torsion
[ 10167 10162 10161 10158 ] final   34.68 input  -65.29 | X-H torsion
[ 10718 10713 10712 10709 ] final  -13.42 input   66.30 | X-H torsion
[ 10763 10752 10751 10750 ] final   51.69 input  -60.55 | X-H torsion
[ 11005 11000 10999 10996 ] final  153.75 input  -57.11 | X-H torsion

> <Gold.Protein.ActiveResidues>
 VAL166  LYS551  ARG553  GLY616  TRP617  ASP618  TYR619  PRO620  LYS621  CYS622 
 ASP623  PHE694  ASN695  SER759  ASP760  ASP761  ALA762  ILE779  LEU786  VAL792 
 PHE793  MET794  SER795  GLU796  ALA797  LYS798  CYS799  TRP800  GLU811  SER814 

> <Gold.Protein.RotatedAtoms>
  151.9724  133.3730  159.4075 H   0  0  0  0  0  0  0  0  0  0  0  0  # atno 6907 bound_to 6896
  150.6947  134.4126  159.5178 H   0  0  0  0  0  0  0  0  0  0  0  0  # atno 6908 bound_to 6896
  152.1832  134.8736  160.0575 H   0  0  0  0  0  0  0  0  0  0  0  0  # atno 6909 bound_to 6896
  146.2432  140.0177  142.8401 H   0  0  0  0  0  0  0  0  0  0  0  0  # atno 7974 bound_to 7965
  154.8590  140.2941  155.5551 H   0  0  0  0  0  0  0  0  0  0  0  0  # atno 8008 bound_to 7997
  156.3019  140.2481  156.3493 H   0  0  0  0  0  0  0  0  0  0  0  0  # atno 8009 bound_to 7997
  154.8939  140.0393  157.1843 H   0  0  0  0  0  0  0  0  0  0  0  0  # atno 8010 bound_to 7997
  140.4293  144.1348  150.6157 H   0  0  0  0  0  0  0  0  0  0  0  0  # atno 10167 bound_to 10162
  156.6306  130.4900  149.6131 H   0  0  0  0  0  0  0  0  0  0  0  0  # atno 10718 bound_to 10713
  152.9786  135.5837  154.4457 H   0  0  0  0  0  0  0  0  0  0  0  0  # atno 10763 bound_to 10752
  154.4052  135.2769  155.2073 H   0  0  0  0  0  0  0  0  0  0  0  0  # atno 10764 bound_to 10752
  154.3887  135.6130  153.5885 H   0  0  0  0  0  0  0  0  0  0  0  0  # atno 10765 bound_to 10752
  140.1426  134.8728  157.2351 H   0  0  0  0  0  0  0  0  0  0  0  0  # atno 11005 bound_to 11000
  145.1270  140.9496  143.4567 LP  0  0  0  0  0  0  0  0  0  0  0  0  # atno 17320 bound_to 7965
  145.0425  139.3248  143.5969 LP  0  0  0  0  0  0  0  0  0  0  0  0  # atno 17321 bound_to 7965
  140.4446  143.2512  151.9428 LP  0  0  0  0  0  0  0  0  0  0  0  0  # atno 17342 bound_to 10162
  139.4784  144.5622  151.8222 LP  0  0  0  0  0  0  0  0  0  0  0  0  # atno 17343 bound_to 10162
  156.2238  130.6753  151.1395 LP  0  0  0  0  0  0  0  0  0  0  0  0  # atno 17370 bound_to 10713
  157.7201  131.0686  150.6170 LP  0  0  0  0  0  0  0  0  0  0  0  0  # atno 17371 bound_to 10713
  140.2703  134.3468  155.7376 LP  0  0  0  0  0  0  0  0  0  0  0  0  # atno 17394 bound_to 11000
  141.2188  133.7419  156.9212 LP  0  0  0  0  0  0  0  0  0  0  0  0  # atno 17395 bound_to 11000

$$$$
