AV-unprocessed.smi:334|AV-procd|sdf|2369|dock6
  -GOLD-   2262022283D 1   1.00000     0.00000
 Structure written by MMmdl.
 44 46  0  0  0  0  0  0  0  0  3 V2000
  150.9815  140.2057  158.0328 C   0  0  0  0  0  0  0  0  0  0  0  0
  150.9065  141.6497  157.5103 C   0  0  1  0  0  0  0  0  0  0  0  0
  149.7071  141.7793  156.6844 N   0  0  0  0  0  0  0  0  0  0  0  0
  149.5801  141.3805  155.4090 C   0  0  0  0  0  0  0  0  0  0  0  0
  150.4727  140.8080  154.7829 O   0  0  0  0  0  0  0  0  0  0  0  0
  148.2268  141.6716  154.7461 C   0  0  0  0  0  0  0  0  0  0  0  0
  147.3616  140.4827  154.6610 N   0  0  0  0  0  0  0  0  0  0  0  0
  147.2495  139.8567  153.4034 C   0  0  0  0  0  0  0  0  0  0  0  0
  146.4821  138.7654  153.2129 C   0  0  0  0  0  0  0  0  0  0  0  0
  146.3768  138.1364  151.9145 N   0  3  0  0  0  0  0  0  0  0  0  0
  145.8332  137.0394  151.8346 O   0  0  0  0  0  0  0  0  0  0  0  0
  146.8332  138.7155  150.9330 O   0  5  0  0  0  0  0  0  0  0  0  0
  145.7596  138.2413  154.3556 C   0  0  0  0  0  0  0  0  0  0  0  0
  145.8605  138.8366  155.5602 C   0  0  0  0  0  0  0  0  0  0  0  0
  146.6968  140.0235  155.7658 C   0  0  0  0  0  0  0  0  0  0  0  0
  146.7937  140.5715  156.8642 O   0  0  0  0  0  0  0  0  0  0  0  0
  150.8796  142.6895  158.6589 C   0  0  1  0  0  0  0  0  0  0  0  0
  152.0636  142.5459  159.6467 C   0  0  0  0  0  0  0  0  0  0  0  0
  152.6803  143.9556  159.6706 C   0  0  2  0  0  0  0  0  0  0  0  0
  151.7220  144.9241  160.3866 C   0  0  0  0  0  0  0  0  0  0  0  0
  150.5840  145.0891  159.3627 C   0  0  0  0  0  0  0  0  0  0  0  0
  151.0263  144.1675  158.2097 C   0  0  1  0  0  0  0  0  0  0  0  0
  152.5360  144.3794  158.2149 C   0  0  0  0  0  0  0  0  0  0  0  0
  151.8888  140.0339  158.6115 H   0  0  0  0  0  0  0  0  0  0  0  0
  150.9841  139.4917  157.2086 H   0  0  0  0  0  0  0  0  0  0  0  0
  150.1307  139.9706  158.6734 H   0  0  0  0  0  0  0  0  0  0  0  0
  151.7962  141.8255  156.9038 H   0  0  0  0  0  0  0  0  0  0  0  0
  148.9152  142.2369  157.1121 H   0  0  0  0  0  0  0  0  0  0  0  0
  147.7396  142.4689  155.3091 H   0  0  0  0  0  0  0  0  0  0  0  0
  148.3863  142.0837  153.7476 H   0  0  0  0  0  0  0  0  0  0  0  0
  147.8207  140.3262  152.6156 H   0  0  0  0  0  0  0  0  0  0  0  0
  145.1308  137.3689  154.2537 H   0  0  0  0  0  0  0  0  0  0  0  0
  145.3115  138.4307  156.3973 H   0  0  0  0  0  0  0  0  0  0  0  0
  149.9365  142.5716  159.1957 H   0  0  0  0  0  0  0  0  0  0  0  0
  151.7411  142.2170  160.6351 H   0  0  0  0  0  0  0  0  0  0  0  0
  152.8023  141.8290  159.2865 H   0  0  0  0  0  0  0  0  0  0  0  0
  153.6989  143.9805  160.0589 H   0  0  0  0  0  0  0  0  0  0  0  0
  151.3710  144.5272  161.3400 H   0  0  0  0  0  0  0  0  0  0  0  0
  152.2069  145.8820  160.5793 H   0  0  0  0  0  0  0  0  0  0  0  0
  149.6111  144.8124  159.7706 H   0  0  0  0  0  0  0  0  0  0  0  0
  150.5204  146.1248  159.0264 H   0  0  0  0  0  0  0  0  0  0  0  0
  150.5360  144.4132  157.2681 H   0  0  0  0  0  0  0  0  0  0  0  0
  152.8281  145.4155  158.0351 H   0  0  0  0  0  0  0  0  0  0  0  0
  153.0706  143.7322  157.5178 H   0  0  0  0  0  0  0  0  0  0  0  0
  1  2  1  0  0  0  0
  1 24  1  0  0  0  0
  1 25  1  0  0  0  0
  1 26  1  0  0  0  0
  2  3  1  0  0  0  0
  2 17  1  0  0  0  0
  2 27  1  0  0  0  0
  3  4  1  0  0  0  0
  3 28  1  0  0  0  0
  4  5  2  0  0  0  0
  4  6  1  0  0  0  0
  6  7  1  0  0  0  0
  6 29  1  0  0  0  0
  6 30  1  0  0  0  0
  7 15  1  0  0  0  0
  7  8  1  0  0  0  0
  8  9  2  0  0  0  0
  8 31  1  0  0  0  0
  9 10  1  0  0  0  0
  9 13  1  0  0  0  0
 10 11  2  0  0  0  0
 10 12  1  0  0  0  0
 13 14  2  0  0  0  0
 13 32  1  0  0  0  0
 14 15  1  0  0  0  0
 14 33  1  0  0  0  0
 15 16  2  0  0  0  0
 17 22  1  0  0  0  0
 17 18  1  0  0  0  0
 17 34  1  0  0  0  0
 18 19  1  0  0  0  0
 18 35  1  0  0  0  0
 18 36  1  0  0  0  0
 19 23  1  0  0  0  0
 19 20  1  0  0  0  0
 19 37  1  0  0  0  0
 20 21  1  0  0  0  0
 20 38  1  0  0  0  0
 20 39  1  0  0  0  0
 21 22  1  0  0  0  0
 21 40  1  0  0  0  0
 21 41  1  0  0  0  0
 22 23  1  0  0  0  0
 22 42  1  0  0  0  0
 23 43  1  0  0  0  0
 23 44  1  0  0  0  0
M  CHG  1  10   1
M  CHG  1  12  -1
M  END
> <s_m_source_file>
AV-unprocessed.smi

> <i_m_source_file_index>
334

> <i_lp_mmshare_version>
43012

> <i_f3d_flags>
0

> <s_epik_input>
W0NIMl0xW0NIMl1bQ0BIXShbQ0gyXTIpW0NAQEhdKFtDSDJdW0NAQEhdMTIpW0NASF0oW0NIM10pW05IXUMoPU8pW0NIMl1uM1tjSF1jKFtOK10oPU8pW08tXSlbY0hdW2NIXWMzPU8=

> <s_epik_cmdline>
J2VwaWtfcHl0aG9uJywgJy1waCcsICc3LjAnLCAnLXRuJywgJzgnLCAnLW1hJywgJzIwMCcsICctbWV0YWxfYmluZGluZycsICctaW1hZScsICc8aW5maWxlLm1hZT4nLCAnLW9tYWUnLCAnPG91dGZpbGUubWFlPic=

> <r_lp_tautomer_probability>
1

> <r_epik_Ionization_Penalty>
2.17081e-08

> <r_epik_Ionization_Penalty_Charging>
8.1195e-11

> <r_epik_Ionization_Penalty_Neutral>
2.16269e-08

> <r_epik_State_Penalty>
-0

> <r_epik_Charging_Adjusted_Penalty>
8.1195e-11

> <i_epik_Tot_Q>
0

> <i_epik_Tot_abs_Q>
2

> <r_epik_Metal_State_Penalty>
-0

> <b_epik_Metal_Only>
0

> <s_lp_Force_Field>
OPLS_2005

> <r_lp_Energy>
62.1709

> <b_lp_Chiralities_Consistent>
1

> <s_lp_Variant>
AV-unprocessed.smi:334-8

> <Gold.Version>
5.8.1

> <Gold.Id.Protein>
6NUR|6NUR_protein|mol2

> <Gold.PLP.Fitness>
51.8120

> <Gold.PLP.PLP>
-44.7914

> <Gold.PLP.part.hbond>
-2.6783

> <Gold.PLP.part.metal>
0.0000

> <Gold.PLP.part.buried>
-5.0256

> <Gold.PLP.part.nonpolar>
-39.3099

> <Gold.PLP.part.repulsive>
0.8460

> <Gold.PLP.ligand.clash>
0.0000

> <Gold.PLP.ligand.torsion>
0.8538

> <Gold.PLP.Chemscore.Hbond>
1.8960

> <Gold.PLP.Chemscore.CHOScore>
1.0000

> <Gold.PLP.Chemscore.Metal>
0.0000

> <Gold.Chemscore.Hbonds>
donor molecule, donor type, donor heavy atom, donor atom, acceptor molecule, acceptor atom, score
      P1  H  7954  7966       L1    12  0.91
      P1  H  7989  7998       L1     5  0.82
      L1  C     8    31       P1  7957  1.00

> <Gold.PLP.Chemscore.Internal.Correction>
0.0401

> <Gold.Rescore>
     Score         DG    S(hbond)    S(metal)    S(lipo)     H(rot)  DE(clash)    DE(int)     intcor
     18.84     -20.21       1.91        0.00     109.60       1.75       0.53       0.84       ----

> <Gold.Chemscore.Fitness>
18.8403

> <Gold.Chemscore.DG>
-20.2123

> <Gold.Chemscore.ZeroCoef>
-5.4800

> <Gold.Chemscore.Hbond>
1.9109

> <Gold.Chemscore.Metal>
0.0000

> <Gold.Chemscore.Lipo>
109.6008

> <Gold.Chemscore.Internal_Hbond>
0.0000

> <Gold.Chemscore.DEClash>
0.5323

> <Gold.Chemscore.DEInternal>
0.8397

> <Gold.Chemscore.Rot>
1.7474

> <Gold.Chemscore.Internal.Correction>
   9.000000E+99

> <Gold.Chemscore.Hbonds>
donor molecule, donor type, donor heavy atom, donor atom, acceptor molecule, acceptor atom, score
      P1  H  7954  7966       L1    12  0.87
      P1  H  7989  7998       L1     5  0.81

> <Gold.Chemscore.Hbond.Weighted>
-6.3823

> <Gold.Chemscore.Metal.Weighted>
-0.0000

> <Gold.Chemscore.Lipo.Weighted>
-12.8233

> <Gold.Chemscore.Internal_Hbond.Weighted>
0.0000

> <Gold.Chemscore.DEClash.Weighted>
0.5323

> <Gold.Chemscore.DEInternal.Weighted>
0.8397

> <Gold.Chemscore.Rot.Weighted>
4.4733

> <Gold.Chemscore.Internal.Correction.Weighted>
   9.000000E+99

> <Gold.Protein.RotatedTorsions>
[ 6907 6896 6895 6894 ] final  144.71 input  -60.11 | X-H torsion
[ 7974 7965 7964 7962 ] final  -25.22 input  175.53 | X-H torsion
[ 8008 7997 7996 7995 ] final   61.15 input   59.86 | X-H torsion
[ 10167 10162 10161 10158 ] final -169.22 input  -65.29 | X-H torsion
[ 10718 10713 10712 10709 ] final  105.50 input   66.30 | X-H torsion
[ 10763 10752 10751 10750 ] final -149.47 input  -60.55 | X-H torsion
[ 11005 11000 10999 10996 ] final   20.40 input  -57.11 | X-H torsion

> <Gold.Protein.ActiveResidues>
 VAL166  LYS551  ARG553  GLY616  TRP617  ASP618  TYR619  PRO620  LYS621  CYS622 
 ASP623  PHE694  ASN695  SER759  ASP760  ASP761  ALA762  ILE779  LEU786  VAL792 
 PHE793  MET794  SER795  GLU796  ALA797  LYS798  CYS799  TRP800  GLU811  SER814 

> <Gold.Protein.RotatedAtoms>
  152.1902  133.4768  159.5003 H   0  0  0  0  0  0  0  0  0  0  0  0  # atno 6907 bound_to 6896
  150.6950  134.1722  159.4225 H   0  0  0  0  0  0  0  0  0  0  0  0  # atno 6908 bound_to 6896
  151.9636  135.0111  160.0599 H   0  0  0  0  0  0  0  0  0  0  0  0  # atno 6909 bound_to 6896
  146.1505  140.4857  142.8613 H   0  0  0  0  0  0  0  0  0  0  0  0  # atno 7974 bound_to 7965
  155.5938  140.3493  155.4574 H   0  0  0  0  0  0  0  0  0  0  0  0  # atno 8008 bound_to 7997
  156.0281  140.1268  157.0312 H   0  0  0  0  0  0  0  0  0  0  0  0  # atno 8009 bound_to 7997
  154.4341  140.1049  156.6046 H   0  0  0  0  0  0  0  0  0  0  0  0  # atno 8010 bound_to 7997
  139.5936  144.1160  152.1663 H   0  0  0  0  0  0  0  0  0  0  0  0  # atno 10167 bound_to 10162
  157.6703  131.0829  150.5866 H   0  0  0  0  0  0  0  0  0  0  0  0  # atno 10718 bound_to 10713
  154.8175  135.3308  154.7134 H   0  0  0  0  0  0  0  0  0  0  0  0  # atno 10763 bound_to 10752
  153.7772  135.6921  153.4899 H   0  0  0  0  0  0  0  0  0  0  0  0  # atno 10764 bound_to 10752
  153.2004  135.4518  155.0208 H   0  0  0  0  0  0  0  0  0  0  0  0  # atno 10765 bound_to 10752
  140.4030  134.1698  155.7664 H   0  0  0  0  0  0  0  0  0  0  0  0  # atno 11005 bound_to 11000
  144.7898  140.6009  143.6549 LP  0  0  0  0  0  0  0  0  0  0  0  0  # atno 17320 bound_to 7965
  145.4834  139.1493  143.3749 LP  0  0  0  0  0  0  0  0  0  0  0  0  # atno 17321 bound_to 7965
  140.0740  144.5755  150.7170 LP  0  0  0  0  0  0  0  0  0  0  0  0  # atno 17342 bound_to 10162
  140.7193  143.2574  151.4330 LP  0  0  0  0  0  0  0  0  0  0  0  0  # atno 17343 bound_to 10162
  156.6167  130.4394  149.5838 LP  0  0  0  0  0  0  0  0  0  0  0  0  # atno 17370 bound_to 10713
  156.2388  130.6838  151.1535 LP  0  0  0  0  0  0  0  0  0  0  0  0  # atno 17371 bound_to 10713
  141.1849  133.8333  157.1122 LP  0  0  0  0  0  0  0  0  0  0  0  0  # atno 17394 bound_to 11000
  140.0322  134.9895  157.0802 LP  0  0  0  0  0  0  0  0  0  0  0  0  # atno 17395 bound_to 11000

$$$$
