AV-unprocessed.smi:113|AV-procd|sdf|1102|dock8
  -GOLD-   2262018213D 1   1.00000     0.00000
 Structure written by MMmdl.
 53 56  0  0  0  0  0  0  0  0  2 V2000
  149.0358  141.6320  154.7322 C   0  0  0  0  0  0  0  0  0  0  0  0
  150.0549  141.4104  155.8297 C   0  0  0  0  0  0  0  0  0  0  0  0
  150.5176  140.1262  156.1769 C   0  0  0  0  0  0  0  0  0  0  0  0
  151.4753  139.9749  157.2106 C   0  0  0  0  0  0  0  0  0  0  0  0
  151.9994  138.5910  157.6093 C   0  0  0  0  0  0  0  0  0  0  0  0
  151.0067  137.5505  157.8370 N   0  0  0  0  0  0  0  0  0  0  0  0
  151.0974  136.3675  157.0630 C   0  0  0  0  0  0  0  0  0  0  0  0
  151.9875  136.2137  156.2241 O   0  0  0  0  0  0  0  0  0  0  0  0
  150.0510  135.3739  157.3186 C   0  0  0  0  0  0  0  0  0  0  0  0
  150.0812  134.0793  156.5220 C   0  0  0  0  0  0  0  0  0  0  0  0
  149.0906  135.6309  158.2386 C   0  0  0  0  0  0  0  0  0  0  0  0
  149.0284  136.7980  158.9806 N   0  0  0  0  0  0  0  0  0  0  0  0
  147.9163  137.0212  159.9754 C   0  0  1  0  0  0  0  0  0  0  0  0
  146.8501  135.9409  159.8515 C   0  0  0  0  0  0  0  0  0  0  0  0
  146.2826  135.9190  161.2570 C   0  0  2  0  0  0  0  0  0  0  0  0
  145.2125  136.8374  161.3700 O   0  0  0  0  0  0  0  0  0  0  0  0
  147.4635  136.3641  162.1426 C   0  0  1  0  0  0  0  0  0  0  0  0
  148.1398  135.2033  162.8894 C   0  0  0  0  0  0  0  0  0  0  0  0
  148.2882  134.0889  162.0355 O   0  0  0  0  0  0  0  0  0  0  0  0
  148.4361  136.9285  161.2630 O   0  0  0  0  0  0  0  0  0  0  0  0
  149.9867  137.8107  158.7792 C   0  0  0  0  0  0  0  0  0  0  0  0
  149.9179  138.8831  159.3846 O   0  0  0  0  0  0  0  0  0  0  0  0
  151.9421  141.1437  157.8731 C   0  0  0  0  0  0  0  0  0  0  0  0
  152.8949  141.0885  158.9186 C   0  0  0  0  0  0  0  0  0  0  0  0
  153.3325  142.2687  159.5511 C   0  0  0  0  0  0  0  0  0  0  0  0
  152.8269  143.5190  159.1490 C   0  0  0  0  0  0  0  0  0  0  0  0
  151.8796  143.5923  158.1110 C   0  0  0  0  0  0  0  0  0  0  0  0
  151.4398  142.4128  157.4777 C   0  0  0  0  0  0  0  0  0  0  0  0
  150.5295  142.4898  156.4841 N   0  3  0  0  0  0  0  0  0  0  0  0
  148.5075  140.7074  154.4975 H   0  0  0  0  0  0  0  0  0  0  0  0
  149.5283  141.9849  153.8260 H   0  0  0  0  0  0  0  0  0  0  0  0
  148.2977  142.3752  155.0359 H   0  0  0  0  0  0  0  0  0  0  0  0
  150.1305  139.2710  155.6433 H   0  0  0  0  0  0  0  0  0  0  0  0
  152.6930  138.2190  156.8534 H   0  0  0  0  0  0  0  0  0  0  0  0
  152.6037  138.6645  158.5149 H   0  0  0  0  0  0  0  0  0  0  0  0
  149.2643  133.4126  156.8002 H   0  0  0  0  0  0  0  0  0  0  0  0
  151.0176  133.5471  156.6937 H   0  0  0  0  0  0  0  0  0  0  0  0
  149.9947  134.2856  155.4545 H   0  0  0  0  0  0  0  0  0  0  0  0
  148.3242  134.8849  158.3940 H   0  0  0  0  0  0  0  0  0  0  0  0
  147.5309  138.0320  159.8350 H   0  0  0  0  0  0  0  0  0  0  0  0
  146.1287  136.1745  159.0676 H   0  0  0  0  0  0  0  0  0  0  0  0
  147.3254  134.9852  159.6258 H   0  0  0  0  0  0  0  0  0  0  0  0
  145.9080  134.9291  161.5201 H   0  0  0  0  0  0  0  0  0  0  0  0
  145.4695  137.6532  160.9682 H   0  0  0  0  0  0  0  0  0  0  0  0
  147.1574  137.1293  162.8583 H   0  0  0  0  0  0  0  0  0  0  0  0
  149.1134  135.5023  163.2788 H   0  0  0  0  0  0  0  0  0  0  0  0
  147.5306  134.8998  163.7410 H   0  0  0  0  0  0  0  0  0  0  0  0
  147.5395  134.0478  161.4604 H   0  0  0  0  0  0  0  0  0  0  0  0
  153.3052  140.1482  159.2545 H   0  0  0  0  0  0  0  0  0  0  0  0
  154.0596  142.2140  160.3483 H   0  0  0  0  0  0  0  0  0  0  0  0
  153.1661  144.4212  159.6371 H   0  0  0  0  0  0  0  0  0  0  0  0
  151.4950  144.5551  157.8065 H   0  0  0  0  0  0  0  0  0  0  0  0
  150.1826  143.4103  156.2152 H   0  0  0  0  0  0  0  0  0  0  0  0
  1  2  1  0  0  0  0
  1 30  1  0  0  0  0
  1 31  1  0  0  0  0
  1 32  1  0  0  0  0
  2 29  1  0  0  0  0
  2  3  2  0  0  0  0
  3  4  1  0  0  0  0
  3 33  1  0  0  0  0
  4  5  1  0  0  0  0
  4 23  2  0  0  0  0
  5  6  1  0  0  0  0
  5 34  1  0  0  0  0
  5 35  1  0  0  0  0
  6 21  1  0  0  0  0
  6  7  1  0  0  0  0
  7  8  2  0  0  0  0
  7  9  1  0  0  0  0
  9 10  1  0  0  0  0
  9 11  2  0  0  0  0
 10 36  1  0  0  0  0
 10 37  1  0  0  0  0
 10 38  1  0  0  0  0
 11 12  1  0  0  0  0
 11 39  1  0  0  0  0
 12 13  1  0  0  0  0
 12 21  1  0  0  0  0
 13 20  1  0  0  0  0
 13 14  1  0  0  0  0
 13 40  1  0  0  0  0
 14 15  1  0  0  0  0
 14 41  1  0  0  0  0
 14 42  1  0  0  0  0
 15 16  1  0  0  0  0
 15 17  1  0  0  0  0
 15 43  1  0  0  0  0
 16 44  1  0  0  0  0
 17 18  1  0  0  0  0
 17 20  1  0  0  0  0
 17 45  1  0  0  0  0
 18 19  1  0  0  0  0
 18 46  1  0  0  0  0
 18 47  1  0  0  0  0
 19 48  1  0  0  0  0
 21 22  2  0  0  0  0
 23 28  1  0  0  0  0
 23 24  1  0  0  0  0
 24 25  2  0  0  0  0
 24 49  1  0  0  0  0
 25 26  1  0  0  0  0
 25 50  1  0  0  0  0
 26 27  2  0  0  0  0
 26 51  1  0  0  0  0
 27 28  1  0  0  0  0
 27 52  1  0  0  0  0
 28 29  2  0  0  0  0
 29 53  1  0  0  0  0
M  CHG  1  29   1
M  END
> <s_m_source_file>
AV-unprocessed.smi

> <i_m_source_file_index>
113

> <i_lp_mmshare_version>
43012

> <i_f3d_flags>
0

> <s_epik_input>
W2NIXTFbY0hdW2NIXVtjSF1jKGMxMiluYyhbQ0gzXSlbY0hdYzJbQ0gyXW4zYyg9TyljKFtDSDNdKVtjSF1uKGMzPU8pW0NAQEhdNFtDSDJdW0NAQEhdKFtPSF0pW0NASF0oTzQpW0NIMl1bT0hd

> <s_epik_cmdline>
J2VwaWtfcHl0aG9uJywgJy1waCcsICc3LjAnLCAnLXRuJywgJzgnLCAnLW1hJywgJzIwMCcsICctbWV0YWxfYmluZGluZycsICctaW1hZScsICc8aW5maWxlLm1hZT4nLCAnLW9tYWUnLCAnPG91dGZpbGUubWFlPic=

> <r_lp_tautomer_probability>
1

> <r_epik_Ionization_Penalty>
0.705471

> <r_epik_Ionization_Penalty_Charging>
0.70547

> <r_epik_Ionization_Penalty_Neutral>
1.19947e-07

> <r_epik_State_Penalty>
0.728574

> <r_epik_Charging_Adjusted_Penalty>
1.43404

> <i_epik_Tot_Q>
1

> <i_epik_Tot_abs_Q>
1

> <r_epik_Metal_State_Penalty>
4.61665

> <b_epik_Metal_Only>
0

> <s_epik_Chemistry_Notes>
This compound contains an acetal/aminal-like group ( X-CH(R)-Y where X, Y are N, S, or O) that may be acid/base labile, releasing an aldehyde.

> <s_lp_Force_Field>
OPLS_2005

> <r_lp_Energy>
43.7755

> <b_lp_Chiralities_Consistent>
1

> <s_lp_Variant>
AV-unprocessed.smi:113-12

> <Gold.Version>
5.8.1

> <Gold.Id.Protein>
6NUR|6NUR_protein|mol2

> <Gold.PLP.Fitness>
57.3606

> <Gold.PLP.PLP>
-46.1631

> <Gold.PLP.part.hbond>
-5.8656

> <Gold.PLP.part.metal>
0.0000

> <Gold.PLP.part.buried>
-3.2179

> <Gold.PLP.part.nonpolar>
-37.7820

> <Gold.PLP.part.repulsive>
0.0997

> <Gold.PLP.ligand.clash>
0.0000

> <Gold.PLP.ligand.torsion>
0.4945

> <Gold.PLP.Chemscore.Hbond>
4.0541

> <Gold.PLP.Chemscore.CHOScore>
0.0000

> <Gold.PLP.Chemscore.Metal>
0.0000

> <Gold.Chemscore.Hbonds>
donor molecule, donor type, donor heavy atom, donor atom, acceptor molecule, acceptor atom, score
      L1  H    29    53       P1  8028  2.00
      P1  H  6931  6943       L1    20  1.00
      P1  H 10752 10763       L1     8  1.00

> <Gold.PLP.Chemscore.Internal.Correction>
0.0242

> <Gold.Rescore>
     Score         DG    S(hbond)    S(metal)    S(lipo)     H(rot)  DE(clash)    DE(int)     intcor
     19.10     -22.00       2.90        0.00     124.28       3.01       1.12       1.78       ----

> <Gold.Chemscore.Fitness>
19.1020

> <Gold.Chemscore.DG>
-22.0016

> <Gold.Chemscore.ZeroCoef>
-5.4800

> <Gold.Chemscore.Hbond>
2.9015

> <Gold.Chemscore.Metal>
0.0000

> <Gold.Chemscore.Lipo>
124.2845

> <Gold.Chemscore.Internal_Hbond>
0.0000

> <Gold.Chemscore.DEClash>
1.1231

> <Gold.Chemscore.DEInternal>
1.7765

> <Gold.Chemscore.Rot>
3.0120

> <Gold.Chemscore.Internal.Correction>
   9.000000E+99

> <Gold.Chemscore.Hbonds>
donor molecule, donor type, donor heavy atom, donor atom, acceptor molecule, acceptor atom, score
      L1  H    29    53       P1  8028  0.99
      P1  H  6931  6943       L1    20  0.69
      P1  H 10752 10763       L1     8  1.00

> <Gold.Chemscore.Hbond.Weighted>
-9.6911

> <Gold.Chemscore.Metal.Weighted>
-0.0000

> <Gold.Chemscore.Lipo.Weighted>
-14.5413

> <Gold.Chemscore.Internal_Hbond.Weighted>
0.0000

> <Gold.Chemscore.DEClash.Weighted>
1.1231

> <Gold.Chemscore.DEInternal.Weighted>
1.7765

> <Gold.Chemscore.Rot.Weighted>
7.7108

> <Gold.Chemscore.Internal.Correction.Weighted>
   9.000000E+99

> <Gold.Protein.RotatedTorsions>
[ 6907 6896 6895 6894 ] final   72.49 input  -60.11 | X-H torsion
[ 7974 7965 7964 7962 ] final  130.63 input  175.53 | X-H torsion
[ 8008 7997 7996 7995 ] final  -23.67 input   59.86 | X-H torsion
[ 10167 10162 10161 10158 ] final   98.77 input  -65.29 | X-H torsion
[ 10718 10713 10712 10709 ] final  -50.58 input   66.30 | X-H torsion
[ 10763 10752 10751 10750 ] final   85.18 input  -60.55 | X-H torsion
[ 11005 11000 10999 10996 ] final  -71.90 input  -57.11 | X-H torsion

> <Gold.Protein.ActiveResidues>
 VAL166  LYS551  ARG553  GLY616  TRP617  ASP618  TYR619  PRO620  LYS621  CYS622 
 ASP623  PHE694  ASN695  SER759  ASP760  ASP761  ALA762  ILE779  LEU786  VAL792 
 PHE793  MET794  SER795  GLU796  ALA797  LYS798  CYS799  TRP800  GLU811  SER814 

> <Gold.Protein.RotatedAtoms>
  152.4871  134.4563  159.9590 H   0  0  0  0  0  0  0  0  0  0  0  0  # atno 6907 bound_to 6896
  151.4558  133.3599  159.2809 H   0  0  0  0  0  0  0  0  0  0  0  0  # atno 6908 bound_to 6896
  150.8990  134.8426  159.7407 H   0  0  0  0  0  0  0  0  0  0  0  0  # atno 6909 bound_to 6896
  145.0158  139.4177  143.5222 H   0  0  0  0  0  0  0  0  0  0  0  0  # atno 7974 bound_to 7965
  154.4572  140.1974  156.0346 H   0  0  0  0  0  0  0  0  0  0  0  0  # atno 8008 bound_to 7997
  156.0769  140.3277  155.7617 H   0  0  0  0  0  0  0  0  0  0  0  0  # atno 8009 bound_to 7997
  155.5173  140.0567  157.2904 H   0  0  0  0  0  0  0  0  0  0  0  0  # atno 8010 bound_to 7997
  139.7678  144.6933  151.0199 H   0  0  0  0  0  0  0  0  0  0  0  0  # atno 10167 bound_to 10162
  156.1787  130.4150  149.9538 H   0  0  0  0  0  0  0  0  0  0  0  0  # atno 10718 bound_to 10713
  153.1450  135.4627  154.9553 H   0  0  0  0  0  0  0  0  0  0  0  0  # atno 10763 bound_to 10752
  154.7779  135.3179  154.8055 H   0  0  0  0  0  0  0  0  0  0  0  0  # atno 10764 bound_to 10752
  153.8571  135.6916  153.4840 H   0  0  0  0  0  0  0  0  0  0  0  0  # atno 10765 bound_to 10752
  141.1600  133.6831  156.6977 H   0  0  0  0  0  0  0  0  0  0  0  0  # atno 11005 bound_to 11000
  146.3477  139.9628  142.8715 LP  0  0  0  0  0  0  0  0  0  0  0  0  # atno 17320 bound_to 7965
  145.1961  140.9834  143.4182 LP  0  0  0  0  0  0  0  0  0  0  0  0  # atno 17321 bound_to 7965
  140.7812  143.4623  151.0261 LP  0  0  0  0  0  0  0  0  0  0  0  0  # atno 17342 bound_to 10162
  139.8307  143.7694  152.3179 LP  0  0  0  0  0  0  0  0  0  0  0  0  # atno 17343 bound_to 10162
  156.7316  130.9045  151.3626 LP  0  0  0  0  0  0  0  0  0  0  0  0  # atno 17370 bound_to 10713
  157.6853  130.9180  150.0372 LP  0  0  0  0  0  0  0  0  0  0  0  0  # atno 17371 bound_to 10713
  140.2982  134.8185  157.4075 LP  0  0  0  0  0  0  0  0  0  0  0  0  # atno 17394 bound_to 11000
  140.1285  134.5126  155.8125 LP  0  0  0  0  0  0  0  0  0  0  0  0  # atno 17395 bound_to 11000

$$$$
