AV-unprocessed.smi:232|AV-procd|sdf|1770|dock3
  -GOLD-   2262020303D 1   1.00000     0.00000
 Structure written by MMmdl.
 52 55  0  0  0  0  0  0  0  0  1 V2000
  153.3772  142.6335  162.6218 C   0  0  0  0  0  0  0  0  0  0  0  0
  153.4561  141.9893  161.2320 C   0  0  0  0  0  0  0  0  0  0  0  0
  152.3123  142.4343  160.2943 C   0  0  1  0  0  0  0  0  0  0  0  0
  152.1638  143.9658  160.2041 C   0  0  0  0  0  0  0  0  0  0  0  0
  152.0961  144.2883  158.7069 C   0  0  0  0  0  0  0  0  0  0  0  0
  151.8398  142.9413  158.0294 C   0  0  2  0  0  0  0  0  0  0  0  0
  150.3305  142.6672  157.8621 C   0  0  0  0  0  0  0  0  0  0  0  0
  152.5013  141.9875  158.9137 N   0  0  0  0  0  0  0  0  0  0  0  0
  152.4143  140.6717  158.5797 C   0  0  0  0  0  0  0  0  0  0  0  0
  152.7233  139.7161  159.4968 N   0  0  0  0  0  0  0  0  0  0  0  0
  152.6203  138.4207  159.1874 C   0  0  0  0  0  0  0  0  0  0  0  0
  152.2320  137.8662  158.0381 N   0  0  0  0  0  0  0  0  0  0  0  0
  151.9216  138.8179  157.1123 C   0  0  0  0  0  0  0  0  0  0  0  0
  151.9840  140.2285  157.2967 C   0  0  0  0  0  0  0  0  0  0  0  0
  151.5995  140.8732  156.1262 N   0  0  0  0  0  0  0  0  0  0  0  0
  151.3146  139.9012  155.3031 C   0  0  0  0  0  0  0  0  0  0  0  0
  151.4800  138.6346  155.8140 N   0  0  0  0  0  0  0  0  0  0  0  0
  151.2359  137.3813  155.1213 C   0  0  0  0  0  0  0  0  0  0  0  0
  151.2220  136.1688  156.0773 C   0  0  2  0  0  0  0  0  0  0  0  0
  152.5494  135.9199  156.5002 O   0  0  0  0  0  0  0  0  0  0  0  0
  150.6917  134.8829  155.4121 C   0  0  2  0  0  0  0  0  0  0  0  0
  149.2453  134.9630  154.9212 C   0  0  0  0  0  0  0  0  0  0  0  0
  148.8054  133.5098  154.8821 C   0  0  0  0  0  0  0  0  0  0  0  0
  149.7858  132.8066  155.8241 C   0  0  0  0  0  0  0  0  0  0  0  0
  150.5878  133.8436  156.3741 O   0  0  0  0  0  0  0  0  0  0  0  0
  154.1870  142.2781  163.2595 H   0  0  0  0  0  0  0  0  0  0  0  0
  152.4358  142.3880  163.1138 H   0  0  0  0  0  0  0  0  0  0  0  0
  153.4538  143.7193  162.5661 H   0  0  0  0  0  0  0  0  0  0  0  0
  154.4190  142.2201  160.7749 H   0  0  0  0  0  0  0  0  0  0  0  0
  153.4401  140.9075  161.3628 H   0  0  0  0  0  0  0  0  0  0  0  0
  151.3709  142.0209  160.6595 H   0  0  0  0  0  0  0  0  0  0  0  0
  151.2532  144.2830  160.7135 H   0  0  0  0  0  0  0  0  0  0  0  0
  152.9974  144.4967  160.6656 H   0  0  0  0  0  0  0  0  0  0  0  0
  151.3451  145.0421  158.4684 H   0  0  0  0  0  0  0  0  0  0  0  0
  153.0618  144.6763  158.3803 H   0  0  0  0  0  0  0  0  0  0  0  0
  152.3129  142.9453  157.0479 H   0  0  0  0  0  0  0  0  0  0  0  0
  149.8649  143.4329  157.2416 H   0  0  0  0  0  0  0  0  0  0  0  0
  149.8109  142.6581  158.8206 H   0  0  0  0  0  0  0  0  0  0  0  0
  150.1503  141.7075  157.3769 H   0  0  0  0  0  0  0  0  0  0  0  0
  152.8845  137.7300  159.9744 H   0  0  0  0  0  0  0  0  0  0  0  0
  150.9723  140.0823  154.2948 H   0  0  0  0  0  0  0  0  0  0  0  0
  150.2823  137.4710  154.6007 H   0  0  0  0  0  0  0  0  0  0  0  0
  151.9980  137.2508  154.3517 H   0  0  0  0  0  0  0  0  0  0  0  0
  150.6154  136.4081  156.9518 H   0  0  0  0  0  0  0  0  0  0  0  0
  152.5687  135.9196  157.4449 H   0  0  0  0  0  0  0  0  0  0  0  0
  151.3408  134.5664  154.5928 H   0  0  0  0  0  0  0  0  0  0  0  0
  148.6344  135.5089  155.6416 H   0  0  0  0  0  0  0  0  0  0  0  0
  149.1505  135.4577  153.9541 H   0  0  0  0  0  0  0  0  0  0  0  0
  147.7698  133.3977  155.2049 H   0  0  0  0  0  0  0  0  0  0  0  0
  148.8911  133.1021  153.8742 H   0  0  0  0  0  0  0  0  0  0  0  0
  149.2803  132.2510  156.6142 H   0  0  0  0  0  0  0  0  0  0  0  0
  150.4200  132.1121  155.2713 H   0  0  0  0  0  0  0  0  0  0  0  0
  1  2  1  0  0  0  0
  1 26  1  0  0  0  0
  1 27  1  0  0  0  0
  1 28  1  0  0  0  0
  2  3  1  0  0  0  0
  2 29  1  0  0  0  0
  2 30  1  0  0  0  0
  3  8  1  0  0  0  0
  3  4  1  0  0  0  0
  3 31  1  0  0  0  0
  4  5  1  0  0  0  0
  4 32  1  0  0  0  0
  4 33  1  0  0  0  0
  5  6  1  0  0  0  0
  5 34  1  0  0  0  0
  5 35  1  0  0  0  0
  6  7  1  0  0  0  0
  6  8  1  0  0  0  0
  6 36  1  0  0  0  0
  7 37  1  0  0  0  0
  7 38  1  0  0  0  0
  7 39  1  0  0  0  0
  8  9  1  0  0  0  0
  9 14  1  0  0  0  0
  9 10  2  0  0  0  0
 10 11  1  0  0  0  0
 11 12  2  0  0  0  0
 11 40  1  0  0  0  0
 12 13  1  0  0  0  0
 13 17  1  0  0  0  0
 13 14  2  0  0  0  0
 14 15  1  0  0  0  0
 15 16  2  0  0  0  0
 16 17  1  0  0  0  0
 16 41  1  0  0  0  0
 17 18  1  0  0  0  0
 18 19  1  0  0  0  0
 18 42  1  0  0  0  0
 18 43  1  0  0  0  0
 19 20  1  0  0  0  0
 19 21  1  0  0  0  0
 19 44  1  0  0  0  0
 20 45  1  0  0  0  0
 21 25  1  0  0  0  0
 21 22  1  0  0  0  0
 21 46  1  0  0  0  0
 22 23  1  0  0  0  0
 22 47  1  0  0  0  0
 22 48  1  0  0  0  0
 23 24  1  0  0  0  0
 23 49  1  0  0  0  0
 23 50  1  0  0  0  0
 24 25  1  0  0  0  0
 24 51  1  0  0  0  0
 24 52  1  0  0  0  0
M  END
> <s_m_source_file>
AV-unprocessed.smi

> <i_m_source_file_index>
232

> <i_lp_mmshare_version>
43012

> <i_f3d_flags>
0

> <s_epik_input>
W0NIM11bQ0gyXVtDQEBIXTFbQ0gyXVtDSDJdW0NAQEhdKFtDSDNdKU4xYyhuW2NIXW4yKWMoYzIzKW5bY0hdbjNbQ0gyXVtDQEhdKFtPSF0pW0NAQEhdNFtDSDJdW0NIMl1bQ0gyXU80

> <s_epik_cmdline>
J2VwaWtfcHl0aG9uJywgJy1waCcsICc3LjAnLCAnLXRuJywgJzgnLCAnLW1hJywgJzIwMCcsICctbWV0YWxfYmluZGluZycsICctaW1hZScsICc8aW5maWxlLm1hZT4nLCAnLW9tYWUnLCAnPG91dGZpbGUubWFlPic=

> <r_lp_tautomer_probability>
1

> <r_epik_Ionization_Penalty>
0.00258048

> <r_epik_Ionization_Penalty_Charging>
0

> <r_epik_Ionization_Penalty_Neutral>
0.00258048

> <r_epik_State_Penalty>
0.00168551

> <r_epik_Charging_Adjusted_Penalty>
0.00168551

> <i_epik_Tot_Q>
0

> <i_epik_Tot_abs_Q>
0

> <r_epik_Metal_State_Penalty>
-0

> <b_epik_Metal_Only>
0

> <s_lp_Force_Field>
OPLS_2005

> <r_lp_Energy>
53.6071

> <b_lp_Chiralities_Consistent>
1

> <s_lp_Variant>
AV-unprocessed.smi:232-4

> <Gold.Version>
5.8.1

> <Gold.Id.Protein>
6NUR|6NUR_protein|mol2

> <Gold.PLP.Fitness>
47.3300

> <Gold.PLP.PLP>
-45.6536

> <Gold.PLP.part.hbond>
-1.0000

> <Gold.PLP.part.metal>
0.0000

> <Gold.PLP.part.buried>
-3.8039

> <Gold.PLP.part.nonpolar>
-40.2606

> <Gold.PLP.part.repulsive>
0.0115

> <Gold.PLP.ligand.clash>
0.0000

> <Gold.PLP.ligand.torsion>
0.8234

> <Gold.PLP.Chemscore.Hbond>
1.0000

> <Gold.PLP.Chemscore.CHOScore>
0.0000

> <Gold.PLP.Chemscore.Metal>
0.0000

> <Gold.Chemscore.Hbonds>
donor molecule, donor type, donor heavy atom, donor atom, acceptor molecule, acceptor atom, score
      P1  H 10752 10765       L1    20  1.00

> <Gold.PLP.Chemscore.Internal.Correction>
0.3233

> <Gold.Rescore>
     Score         DG    S(hbond)    S(metal)    S(lipo)     H(rot)  DE(clash)    DE(int)     intcor
      7.90     -15.16       0.98        0.00     107.86       2.43       0.02       7.25       ----

> <Gold.Chemscore.Fitness>
7.8965

> <Gold.Chemscore.DG>
-15.1617

> <Gold.Chemscore.ZeroCoef>
-5.4800

> <Gold.Chemscore.Hbond>
0.9800

> <Gold.Chemscore.Metal>
0.0000

> <Gold.Chemscore.Lipo>
107.8552

> <Gold.Chemscore.Internal_Hbond>
0.0000

> <Gold.Chemscore.DEClash>
0.0197

> <Gold.Chemscore.DEInternal>
7.2455

> <Gold.Chemscore.Rot>
2.4260

> <Gold.Chemscore.Internal.Correction>
   9.000000E+99

> <Gold.Chemscore.Hbonds>
donor molecule, donor type, donor heavy atom, donor atom, acceptor molecule, acceptor atom, score
      P1  H 10752 10765       L1    20  0.77

> <Gold.Chemscore.Hbond.Weighted>
-3.2733

> <Gold.Chemscore.Metal.Weighted>
-0.0000

> <Gold.Chemscore.Lipo.Weighted>
-12.6191

> <Gold.Chemscore.Internal_Hbond.Weighted>
0.0000

> <Gold.Chemscore.DEClash.Weighted>
0.0197

> <Gold.Chemscore.DEInternal.Weighted>
7.2455

> <Gold.Chemscore.Rot.Weighted>
6.2107

> <Gold.Chemscore.Internal.Correction.Weighted>
   9.000000E+99

> <Gold.Protein.RotatedTorsions>
[ 6907 6896 6895 6894 ] final  -94.73 input  -60.11 | X-H torsion
[ 7974 7965 7964 7962 ] final   76.12 input  175.53 | X-H torsion
[ 8008 7997 7996 7995 ] final -178.84 input   59.86 | X-H torsion
[ 10167 10162 10161 10158 ] final  122.71 input  -65.29 | X-H torsion
[ 10718 10713 10712 10709 ] final   20.43 input   66.30 | X-H torsion
[ 10763 10752 10751 10750 ] final -127.02 input  -60.55 | X-H torsion
[ 11005 11000 10999 10996 ] final  164.33 input  -57.11 | X-H torsion

> <Gold.Protein.ActiveResidues>
 VAL166  LYS551  ARG553  GLY616  TRP617  ASP618  TYR619  PRO620  LYS621  CYS622 
 ASP623  PHE694  ASN695  SER759  ASP760  ASP761  ALA762  ILE779  LEU786  VAL792 
 PHE793  MET794  SER795  GLU796  ALA797  LYS798  CYS799  TRP800  GLU811  SER814 

> <Gold.Protein.RotatedAtoms>
  150.6948  134.1767  159.4232 H   0  0  0  0  0  0  0  0  0  0  0  0  # atno 6907 bound_to 6896
  151.9743  135.0058  160.0563 H   0  0  0  0  0  0  0  0  0  0  0  0  # atno 6908 bound_to 6896
  152.1813  133.4674  159.4996 H   0  0  0  0  0  0  0  0  0  0  0  0  # atno 6909 bound_to 6896
  145.7069  139.2601  143.1673 H   0  0  0  0  0  0  0  0  0  0  0  0  # atno 7974 bound_to 7965
  156.0235  140.1266  157.0333 H   0  0  0  0  0  0  0  0  0  0  0  0  # atno 8008 bound_to 7997
  154.4321  140.1064  156.6067 H   0  0  0  0  0  0  0  0  0  0  0  0  # atno 8009 bound_to 7997
  155.5910  140.3469  155.4569 H   0  0  0  0  0  0  0  0  0  0  0  0  # atno 8010 bound_to 7997
  139.5842  144.6999  151.3451 H   0  0  0  0  0  0  0  0  0  0  0  0  # atno 10167 bound_to 10162
  157.1243  130.6563  149.5933 H   0  0  0  0  0  0  0  0  0  0  0  0  # atno 10718 bound_to 10713
  154.8750  135.3976  154.3525 H   0  0  0  0  0  0  0  0  0  0  0  0  # atno 10763 bound_to 10752
  153.4309  135.7025  153.6237 H   0  0  0  0  0  0  0  0  0  0  0  0  # atno 10764 bound_to 10752
  153.4859  135.3759  155.2436 H   0  0  0  0  0  0  0  0  0  0  0  0  # atno 10765 bound_to 10752
  140.2449  134.8022  157.3446 H   0  0  0  0  0  0  0  0  0  0  0  0  # atno 11005 bound_to 11000
  146.0747  140.7830  142.9670 LP  0  0  0  0  0  0  0  0  0  0  0  0  # atno 17320 bound_to 7965
  144.6953  140.3397  143.7201 LP  0  0  0  0  0  0  0  0  0  0  0  0  # atno 17321 bound_to 7965
  140.7116  143.7375  150.7578 LP  0  0  0  0  0  0  0  0  0  0  0  0  # atno 17342 bound_to 10162
  140.0915  143.4873  152.2476 LP  0  0  0  0  0  0  0  0  0  0  0  0  # atno 17343 bound_to 10162
  155.9821  130.4833  150.6866 LP  0  0  0  0  0  0  0  0  0  0  0  0  # atno 17370 bound_to 10713
  157.4449  131.0865  151.0906 LP  0  0  0  0  0  0  0  0  0  0  0  0  # atno 17371 bound_to 10713
  140.1616  134.4721  155.7891 LP  0  0  0  0  0  0  0  0  0  0  0  0  # atno 17394 bound_to 11000
  141.2207  133.6904  156.7554 LP  0  0  0  0  0  0  0  0  0  0  0  0  # atno 17395 bound_to 11000

$$$$
