AV-unprocessed.smi:160|AV-procd|sdf|1346|dock10
  -GOLD-   2262019 43D 1   1.00000     0.00000
 Structure written by MMmdl.
 29 30  0  0  0  0  0  0  0  0  1 V2000
  149.1814  133.8982  153.7154 N   0  0  0  0  0  0  0  0  0  0  0  0
  149.6625  134.0301  154.9559 C   0  0  0  0  0  0  0  0  0  0  0  0
  150.1425  133.0855  155.5806 O   0  0  0  0  0  0  0  0  0  0  0  0
  149.5848  135.4074  155.5543 C   0  0  0  0  0  0  0  0  0  0  0  0
  150.3098  135.7384  156.6640 N   0  0  0  0  0  0  0  0  0  0  0  0
  149.9209  137.0000  156.7976 C   0  0  0  0  0  0  0  0  0  0  0  0
  149.0421  137.4028  155.8742 N   0  0  0  0  0  0  0  0  0  0  0  0
  148.3874  138.7351  155.6861 C   0  0  1  0  0  0  0  0  0  0  0  0
  148.8905  139.5915  156.6674 O   0  0  0  0  0  0  0  0  0  0  0  0
  149.2979  140.8284  156.0871 C   0  0  1  0  0  0  0  0  0  0  0  0
  150.3895  141.5046  156.9354 C   0  0  0  0  0  0  0  0  0  0  0  0
  150.7010  142.7752  156.4043 O   0  0  0  0  0  0  0  0  0  0  0  0
  149.7081  140.4534  154.6561 C   0  0  1  0  0  0  0  0  0  0  0  0
  151.0458  139.9861  154.6092 O   0  0  0  0  0  0  0  0  0  0  0  0
  148.6929  139.3697  154.3136 C   0  0  1  0  0  0  0  0  0  0  0  0
  149.1328  138.4805  153.3000 O   0  0  0  0  0  0  0  0  0  0  0  0
  148.8133  136.3632  155.0345 N   0  0  0  0  0  0  0  0  0  0  0  0
  147.3253  138.5410  155.8403 H   0  0  0  0  0  0  0  0  0  0  0  0
  148.4203  141.4748  156.0226 H   0  0  0  0  0  0  0  0  0  0  0  0
  149.6268  141.3040  153.9786 H   0  0  0  0  0  0  0  0  0  0  0  0
  147.7732  139.8482  153.9744 H   0  0  0  0  0  0  0  0  0  0  0  0
  149.2057  132.9989  153.2577 H   0  0  0  0  0  0  0  0  0  0  0  0
  148.7966  134.7042  153.2436 H   0  0  0  0  0  0  0  0  0  0  0  0
  150.2822  137.6431  157.5865 H   0  0  0  0  0  0  0  0  0  0  0  0
  150.0830  141.5949  157.9782 H   0  0  0  0  0  0  0  0  0  0  0  0
  151.3039  140.9111  156.9142 H   0  0  0  0  0  0  0  0  0  0  0  0
  149.9008  143.2719  156.3266 H   0  0  0  0  0  0  0  0  0  0  0  0
  151.0963  139.1845  155.1077 H   0  0  0  0  0  0  0  0  0  0  0  0
  149.3324  138.9823  152.5246 H   0  0  0  0  0  0  0  0  0  0  0  0
  1  2  1  0  0  0  0
  1 22  1  0  0  0  0
  1 23  1  0  0  0  0
  2  3  2  0  0  0  0
  2  4  1  0  0  0  0
  4 17  2  0  0  0  0
  4  5  1  0  0  0  0
  5  6  2  0  0  0  0
  6  7  1  0  0  0  0
  6 24  1  0  0  0  0
  7  8  1  0  0  0  0
  7 17  1  0  0  0  0
  8 18  1  0  0  0  0
  8 15  1  0  0  0  0
  8  9  1  0  0  0  0
  9 10  1  0  0  0  0
 10 19  1  0  0  0  0
 10 11  1  0  0  0  0
 10 13  1  0  0  0  0
 11 12  1  0  0  0  0
 11 25  1  0  0  0  0
 11 26  1  0  0  0  0
 12 27  1  0  0  0  0
 13 20  1  0  0  0  0
 13 14  1  0  0  0  0
 13 15  1  0  0  0  0
 14 28  1  0  0  0  0
 15 21  1  0  0  0  0
 15 16  1  0  0  0  0
 16 29  1  0  0  0  0
M  END
> <s_m_source_file>
AV-unprocessed.smi

> <i_m_source_file_index>
160

> <i_lp_mmshare_version>
43012

> <i_f3d_flags>
0

> <s_epik_input>
W05IMl1DKD1PKWMxbltjSF1uKG4xKVtDQEBIXTJPW0NASF0oW0NIMl1bT0hdKVtDQEBIXShbT0hdKVtDQEhdMltPSF0=

> <s_epik_cmdline>
J2VwaWtfcHl0aG9uJywgJy1waCcsICc3LjAnLCAnLXRuJywgJzgnLCAnLW1hJywgJzIwMCcsICctbWV0YWxfYmluZGluZycsICctaW1hZScsICc8aW5maWxlLm1hZT4nLCAnLW9tYWUnLCAnPG91dGZpbGUubWFlPic=

> <r_lp_tautomer_probability>
1

> <r_epik_Ionization_Penalty>
1.06932e-05

> <r_epik_Ionization_Penalty_Charging>
0

> <r_epik_Ionization_Penalty_Neutral>
1.06932e-05

> <r_epik_State_Penalty>
-0

> <r_epik_Charging_Adjusted_Penalty>
0

> <i_epik_Tot_Q>
0

> <i_epik_Tot_abs_Q>
0

> <r_epik_Metal_State_Penalty>
0.0142097

> <b_epik_Metal_Only>
0

> <s_epik_Chemistry_Notes>
This compound contains an acetal/aminal-like group ( X-CH(R)-Y where X, Y are N, S, or O) that may be acid/base labile, releasing an aldehyde.

> <s_lp_Force_Field>
OPLS_2005

> <r_lp_Energy>
47.6591

> <b_lp_Chiralities_Consistent>
1

> <s_lp_Variant>
AV-unprocessed.smi:160-4

> <Gold.Version>
5.8.1

> <Gold.Id.Protein>
6NUR|6NUR_protein|mol2

> <Gold.PLP.Fitness>
30.9401

> <Gold.PLP.PLP>
-19.2217

> <Gold.PLP.part.hbond>
-5.0000

> <Gold.PLP.part.metal>
0.0000

> <Gold.PLP.part.buried>
-4.2049

> <Gold.PLP.part.nonpolar>
-10.7141

> <Gold.PLP.part.repulsive>
0.1402

> <Gold.PLP.ligand.clash>
0.0000

> <Gold.PLP.ligand.torsion>
0.1318

> <Gold.PLP.Chemscore.Hbond>
3.9920

> <Gold.PLP.Chemscore.CHOScore>
0.0000

> <Gold.PLP.Chemscore.Metal>
0.0000

> <Gold.Chemscore.Hbonds>
donor molecule, donor type, donor heavy atom, donor atom, acceptor molecule, acceptor atom, score
      L1  H     1    23       P1  7948  0.99
      L1  H    12    27       P1  8028  1.00
      L1  H    16    29       P1  7957  1.00
      P1  H  7989  7998       L1    14  1.00

> <Gold.PLP.Chemscore.Internal.Correction>
0.0059

> <Gold.Rescore>
     Score         DG    S(hbond)    S(metal)    S(lipo)     H(rot)  DE(clash)    DE(int)     intcor
      7.54      -9.08       3.37        0.00      23.45       4.06       0.00       1.54       ----

> <Gold.Chemscore.Fitness>
7.5389

> <Gold.Chemscore.DG>
-9.0750

> <Gold.Chemscore.ZeroCoef>
-5.4800

> <Gold.Chemscore.Hbond>
3.3667

> <Gold.Chemscore.Metal>
0.0000

> <Gold.Chemscore.Lipo>
23.4510

> <Gold.Chemscore.Internal_Hbond>
0.0000

> <Gold.Chemscore.DEClash>
0.0000

> <Gold.Chemscore.DEInternal>
1.5361

> <Gold.Chemscore.Rot>
4.0600

> <Gold.Chemscore.Internal.Correction>
   9.000000E+99

> <Gold.Chemscore.Hbonds>
donor molecule, donor type, donor heavy atom, donor atom, acceptor molecule, acceptor atom, score
      L1  H     1    23       P1  7948  0.22
      L1  H    12    27       P1  8028  0.96
      L1  H    16    29       P1  7957  0.96
      P1  H  7989  7998       L1    14  0.28

> <Gold.Chemscore.Hbond.Weighted>
-11.2448

> <Gold.Chemscore.Metal.Weighted>
-0.0000

> <Gold.Chemscore.Lipo.Weighted>
-2.7438

> <Gold.Chemscore.Internal_Hbond.Weighted>
0.0000

> <Gold.Chemscore.DEClash.Weighted>
0.0000

> <Gold.Chemscore.DEInternal.Weighted>
1.5361

> <Gold.Chemscore.Rot.Weighted>
10.3936

> <Gold.Chemscore.Internal.Correction.Weighted>
   9.000000E+99

> <Gold.Protein.RotatedTorsions>
[ 6907 6896 6895 6894 ] final  -84.75 input  -60.11 | X-H torsion
[ 7974 7965 7964 7962 ] final  -15.78 input  175.53 | X-H torsion
[ 8008 7997 7996 7995 ] final  -31.69 input   59.86 | X-H torsion
[ 10167 10162 10161 10158 ] final  166.54 input  -65.29 | X-H torsion
[ 10718 10713 10712 10709 ] final -158.67 input   66.30 | X-H torsion
[ 10763 10752 10751 10750 ] final  111.09 input  -60.55 | X-H torsion
[ 11005 11000 10999 10996 ] final   17.18 input  -57.11 | X-H torsion

> <Gold.Protein.ActiveResidues>
 VAL166  LYS551  ARG553  GLY616  TRP617  ASP618  TYR619  PRO620  LYS621  CYS622 
 ASP623  PHE694  ASN695  SER759  ASP760  ASP761  ALA762  ILE779  LEU786  VAL792 
 PHE793  MET794  SER795  GLU796  ALA797  LYS798  CYS799  TRP800  GLU811  SER814 

> <Gold.Protein.RotatedAtoms>
  150.6874  134.3310  159.4826 H   0  0  0  0  0  0  0  0  0  0  0  0  # atno 6907 bound_to 6896
  152.1175  134.9227  160.0573 H   0  0  0  0  0  0  0  0  0  0  0  0  # atno 6908 bound_to 6896
  152.0446  133.3958  159.4388 H   0  0  0  0  0  0  0  0  0  0  0  0  # atno 6909 bound_to 6896
  146.2017  140.3541  142.8421 H   0  0  0  0  0  0  0  0  0  0  0  0  # atno 7974 bound_to 7965
  154.4205  140.1757  156.1607 H   0  0  0  0  0  0  0  0  0  0  0  0  # atno 8008 bound_to 7997
  155.9840  140.3375  155.6666 H   0  0  0  0  0  0  0  0  0  0  0  0  # atno 8009 bound_to 7997
  155.6461  140.0685  157.2593 H   0  0  0  0  0  0  0  0  0  0  0  0  # atno 8010 bound_to 7997
  139.4927  144.4016  151.9403 H   0  0  0  0  0  0  0  0  0  0  0  0  # atno 10167 bound_to 10162
  156.5574  130.8632  151.2799 H   0  0  0  0  0  0  0  0  0  0  0  0  # atno 10718 bound_to 10713
  153.4584  135.3728  155.2324 H   0  0  0  0  0  0  0  0  0  0  0  0  # atno 10763 bound_to 10752
  154.8757  135.3902  154.3955 H   0  0  0  0  0  0  0  0  0  0  0  0  # atno 10764 bound_to 10752
  153.4524  135.7086  153.6164 H   0  0  0  0  0  0  0  0  0  0  0  0  # atno 10765 bound_to 10752
  140.4388  134.1343  155.7688 H   0  0  0  0  0  0  0  0  0  0  0  0  # atno 11005 bound_to 11000
  144.8698  140.7257  143.6054 LP  0  0  0  0  0  0  0  0  0  0  0  0  # atno 17320 bound_to 7965
  145.3461  139.1719  143.4460 LP  0  0  0  0  0  0  0  0  0  0  0  0  # atno 17321 bound_to 7965
  140.3455  144.3151  150.5959 LP  0  0  0  0  0  0  0  0  0  0  0  0  # atno 17342 bound_to 10162
  140.5529  143.2203  151.7896 LP  0  0  0  0  0  0  0  0  0  0  0  0  # atno 17343 bound_to 10162
  157.7375  130.9798  150.2199 LP  0  0  0  0  0  0  0  0  0  0  0  0  # atno 17370 bound_to 10713
  156.2830  130.3736  149.7916 LP  0  0  0  0  0  0  0  0  0  0  0  0  # atno 17371 bound_to 10713
  141.1714  133.8600  157.1557 LP  0  0  0  0  0  0  0  0  0  0  0  0  # atno 17394 bound_to 11000
  140.0084  134.9999  157.0342 LP  0  0  0  0  0  0  0  0  0  0  0  0  # atno 17395 bound_to 11000

$$$$
