AV-unprocessed.smi:263|AV-procd|sdf|2004|dock4
  -GOLD-   2262021203D 1   1.00000     0.00000
 Structure written by MMmdl.
 57 61  0  0  0  0  0  0  0  0  1 V2000
  149.1092  133.6798  156.9172 O   0  0  0  0  0  0  0  0  0  0  0  0
  150.1100  133.7064  155.9145 C   0  0  0  0  0  0  0  0  0  0  0  0
  151.3987  134.2938  156.5423 C   0  0  0  0  0  0  0  0  0  0  0  0
  151.3450  135.7284  156.7764 N   0  0  0  0  0  0  0  0  0  0  0  0
  152.0566  136.6987  156.1072 C   0  0  0  0  0  0  0  0  0  0  0  0
  151.8347  137.9226  156.5012 N   0  0  0  0  0  0  0  0  0  0  0  0
  150.9109  137.7861  157.5309 C   0  0  0  0  0  0  0  0  0  0  0  0
  150.2451  138.7027  158.3928 C   0  0  0  0  0  0  0  0  0  0  0  0
  150.4613  140.0415  158.3450 N   0  0  0  0  0  0  0  0  0  0  0  0
  149.3004  140.8288  157.9353 C   0  0  0  0  0  0  0  0  0  0  0  0
  149.4801  142.3103  158.3086 C   0  0  0  0  0  0  0  0  0  0  0  0
  150.8120  142.8901  157.7755 C   0  0  1  0  0  0  0  0  0  0  0  0
  150.7225  142.9281  156.3623 O   0  0  0  0  0  0  0  0  0  0  0  0
  151.0441  144.3520  158.2248 C   0  0  0  0  0  0  0  0  0  0  0  0
  151.4138  144.4714  159.7123 C   0  0  0  0  0  0  0  0  0  0  0  0
  152.6295  143.5976  160.0479 C   0  0  0  0  0  0  0  0  0  0  0  0
  152.3781  142.1320  159.6661 C   0  0  0  0  0  0  0  0  0  0  0  0
  152.0095  141.9818  158.1730 C   0  0  1  0  0  0  0  0  0  0  0  0
  151.7432  140.5048  157.8103 C   0  0  0  0  0  0  0  0  0  0  0  0
  149.3669  138.1872  159.2946 N   0  0  0  0  0  0  0  0  0  0  0  0
  149.1625  136.8683  159.3607 C   0  0  0  0  0  0  0  0  0  0  0  0
  149.7190  135.9000  158.6307 N   0  0  0  0  0  0  0  0  0  0  0  0
  150.5908  136.4111  157.7148 C   0  0  0  0  0  0  0  0  0  0  0  0
  150.3595  132.2622  155.4352 C   0  0  0  0  0  0  0  0  0  0  0  0
  149.1622  131.6948  154.6525 C   0  0  0  0  0  0  0  0  0  0  0  0
  148.8456  132.5523  153.5630 O   0  0  0  0  0  0  0  0  0  0  0  0
  148.4354  133.8466  153.9866 C   0  0  0  0  0  0  0  0  0  0  0  0
  149.5844  134.5492  154.7320 C   0  0  0  0  0  0  0  0  0  0  0  0
  148.9401  132.7797  157.1505 H   0  0  0  0  0  0  0  0  0  0  0  0
  151.6204  133.7996  157.4892 H   0  0  0  0  0  0  0  0  0  0  0  0
  152.2517  134.0948  155.8922 H   0  0  0  0  0  0  0  0  0  0  0  0
  152.7455  136.4688  155.3074 H   0  0  0  0  0  0  0  0  0  0  0  0
  149.1737  140.7276  156.8566 H   0  0  0  0  0  0  0  0  0  0  0  0
  148.3831  140.4549  158.3887 H   0  0  0  0  0  0  0  0  0  0  0  0
  148.6354  142.8897  157.9336 H   0  0  0  0  0  0  0  0  0  0  0  0
  149.4417  142.3950  159.3942 H   0  0  0  0  0  0  0  0  0  0  0  0
  150.3185  143.7441  156.1092 H   0  0  0  0  0  0  0  0  0  0  0  0
  151.8556  144.7866  157.6388 H   0  0  0  0  0  0  0  0  0  0  0  0
  150.1624  144.9583  158.0128 H   0  0  0  0  0  0  0  0  0  0  0  0
  151.6296  145.5122  159.9552 H   0  0  0  0  0  0  0  0  0  0  0  0
  150.5675  144.1831  160.3359 H   0  0  0  0  0  0  0  0  0  0  0  0
  153.5064  143.9695  159.5161 H   0  0  0  0  0  0  0  0  0  0  0  0
  152.8575  143.6706  161.1115 H   0  0  0  0  0  0  0  0  0  0  0  0
  153.2682  141.5423  159.8875 H   0  0  0  0  0  0  0  0  0  0  0  0
  151.5844  141.7271  160.2950 H   0  0  0  0  0  0  0  0  0  0  0  0
  152.8840  142.3043  157.6052 H   0  0  0  0  0  0  0  0  0  0  0  0
  152.5566  139.8837  158.1881 H   0  0  0  0  0  0  0  0  0  0  0  0
  151.7337  140.3868  156.7258 H   0  0  0  0  0  0  0  0  0  0  0  0
  148.4538  136.5423  160.1076 H   0  0  0  0  0  0  0  0  0  0  0  0
  151.2334  132.2460  154.7825 H   0  0  0  0  0  0  0  0  0  0  0  0
  150.5967  131.6133  156.2793 H   0  0  0  0  0  0  0  0  0  0  0  0
  149.4083  130.7079  154.2604 H   0  0  0  0  0  0  0  0  0  0  0  0
  148.2919  131.5690  155.2985 H   0  0  0  0  0  0  0  0  0  0  0  0
  148.1509  134.4285  153.1101 H   0  0  0  0  0  0  0  0  0  0  0  0
  147.5468  133.7705  154.6150 H   0  0  0  0  0  0  0  0  0  0  0  0
  149.2511  135.5308  155.0712 H   0  0  0  0  0  0  0  0  0  0  0  0
  150.3979  134.7276  154.0279 H   0  0  0  0  0  0  0  0  0  0  0  0
  1  2  1  0  0  0  0
  1 29  1  0  0  0  0
  2 28  1  0  0  0  0
  2  3  1  0  0  0  0
  2 24  1  0  0  0  0
  3  4  1  0  0  0  0
  3 30  1  0  0  0  0
  3 31  1  0  0  0  0
  4 23  1  0  0  0  0
  4  5  1  0  0  0  0
  5  6  2  0  0  0  0
  5 32  1  0  0  0  0
  6  7  1  0  0  0  0
  7 23  2  0  0  0  0
  7  8  1  0  0  0  0
  8  9  1  0  0  0  0
  8 20  2  0  0  0  0
  9 19  1  0  0  0  0
  9 10  1  0  0  0  0
 10 11  1  0  0  0  0
 10 33  1  0  0  0  0
 10 34  1  0  0  0  0
 11 12  1  0  0  0  0
 11 35  1  0  0  0  0
 11 36  1  0  0  0  0
 12 18  1  0  0  0  0
 12 13  1  0  0  0  0
 12 14  1  0  0  0  0
 13 37  1  0  0  0  0
 14 15  1  0  0  0  0
 14 38  1  0  0  0  0
 14 39  1  0  0  0  0
 15 16  1  0  0  0  0
 15 40  1  0  0  0  0
 15 41  1  0  0  0  0
 16 17  1  0  0  0  0
 16 42  1  0  0  0  0
 16 43  1  0  0  0  0
 17 18  1  0  0  0  0
 17 44  1  0  0  0  0
 17 45  1  0  0  0  0
 18 19  1  0  0  0  0
 18 46  1  0  0  0  0
 19 47  1  0  0  0  0
 19 48  1  0  0  0  0
 20 21  1  0  0  0  0
 21 22  2  0  0  0  0
 21 49  1  0  0  0  0
 22 23  1  0  0  0  0
 24 25  1  0  0  0  0
 24 50  1  0  0  0  0
 24 51  1  0  0  0  0
 25 26  1  0  0  0  0
 25 52  1  0  0  0  0
 25 53  1  0  0  0  0
 26 27  1  0  0  0  0
 27 28  1  0  0  0  0
 27 54  1  0  0  0  0
 27 55  1  0  0  0  0
 28 56  1  0  0  0  0
 28 57  1  0  0  0  0
M  END
> <s_m_source_file>
AV-unprocessed.smi

> <i_m_source_file_index>
263

> <i_lp_mmshare_version>
43012

> <i_f3d_flags>
0

> <s_epik_input>
W0NIMl0xW0NIMl1PW0NIMl1bQ0gyXUMxKFtPSF0pW0NIMl1uKFtjSF1uMiljKGMyMyluW2NIXW5jM04oW0NIMl1bQ0gyXTQpW0NIMl1bQ0BASF0oW0NAXTQ1W09IXSlbQ0gyXVtDSDJdW0NIMl1bQ0gyXTU=

> <s_epik_cmdline>
J2VwaWtfcHl0aG9uJywgJy1waCcsICc3LjAnLCAnLXRuJywgJzgnLCAnLW1hJywgJzIwMCcsICctbWV0YWxfYmluZGluZycsICctaW1hZScsICc8aW5maWxlLm1hZT4nLCAnLW9tYWUnLCAnPG91dGZpbGUubWFlPic=

> <r_lp_tautomer_probability>
1

> <r_epik_Ionization_Penalty>
0.00747493

> <r_epik_Ionization_Penalty_Charging>
0

> <r_epik_Ionization_Penalty_Neutral>
0.00747493

> <r_epik_State_Penalty>
0.00549307

> <r_epik_Charging_Adjusted_Penalty>
0.00549307

> <i_epik_Tot_Q>
0

> <i_epik_Tot_abs_Q>
0

> <r_epik_Metal_State_Penalty>
-0

> <b_epik_Metal_Only>
0

> <s_lp_Force_Field>
OPLS_2005

> <r_lp_Energy>
40.0531

> <b_lp_Chiralities_Consistent>
1

> <s_lp_Variant>
AV-unprocessed.smi:263-2

> <Gold.Version>
5.8.1

> <Gold.Id.Protein>
6NUR|6NUR_protein|mol2

> <Gold.PLP.Fitness>
45.4499

> <Gold.PLP.PLP>
-40.2647

> <Gold.PLP.part.hbond>
-3.8423

> <Gold.PLP.part.metal>
0.0000

> <Gold.PLP.part.buried>
-3.1391

> <Gold.PLP.part.nonpolar>
-34.5847

> <Gold.PLP.part.repulsive>
0.1439

> <Gold.PLP.ligand.clash>
0.0000

> <Gold.PLP.ligand.torsion>
0.5937

> <Gold.PLP.Chemscore.Hbond>
2.0000

> <Gold.PLP.Chemscore.CHOScore>
0.0000

> <Gold.PLP.Chemscore.Metal>
0.0000

> <Gold.Chemscore.Hbonds>
donor molecule, donor type, donor heavy atom, donor atom, acceptor molecule, acceptor atom, score
      L1  H    13    37       P1  8028  1.00
      P1  H  6896  6908       L1    22  0.98

> <Gold.PLP.Chemscore.Internal.Correction>
0.3726

> <Gold.Rescore>
     Score         DG    S(hbond)    S(metal)    S(lipo)     H(rot)  DE(clash)    DE(int)     intcor
     13.72     -17.04       1.70        0.00     107.58       2.62       0.16       3.17       ----

> <Gold.Chemscore.Fitness>
13.7194

> <Gold.Chemscore.DG>
-17.0449

> <Gold.Chemscore.ZeroCoef>
-5.4800

> <Gold.Chemscore.Hbond>
1.7045

> <Gold.Chemscore.Metal>
0.0000

> <Gold.Chemscore.Lipo>
107.5833

> <Gold.Chemscore.Internal_Hbond>
0.0000

> <Gold.Chemscore.DEClash>
0.1562

> <Gold.Chemscore.DEInternal>
3.1693

> <Gold.Chemscore.Rot>
2.6232

> <Gold.Chemscore.Internal.Correction>
   9.000000E+99

> <Gold.Chemscore.Hbonds>
donor molecule, donor type, donor heavy atom, donor atom, acceptor molecule, acceptor atom, score
      L1  H    13    37       P1  8028  0.97
      P1  H  6896  6908       L1    22  0.46

> <Gold.Chemscore.Hbond.Weighted>
-5.6931

> <Gold.Chemscore.Metal.Weighted>
-0.0000

> <Gold.Chemscore.Lipo.Weighted>
-12.5872

> <Gold.Chemscore.Internal_Hbond.Weighted>
0.0000

> <Gold.Chemscore.DEClash.Weighted>
0.1562

> <Gold.Chemscore.DEInternal.Weighted>
3.1693

> <Gold.Chemscore.Rot.Weighted>
6.7155

> <Gold.Chemscore.Internal.Correction.Weighted>
   9.000000E+99

> <Gold.Protein.RotatedTorsions>
[ 6907 6896 6895 6894 ] final  161.63 input  -60.11 | X-H torsion
[ 7974 7965 7964 7962 ] final  167.28 input  175.53 | X-H torsion
[ 8008 7997 7996 7995 ] final -117.47 input   59.86 | X-H torsion
[ 10167 10162 10161 10158 ] final   16.68 input  -65.29 | X-H torsion
[ 10718 10713 10712 10709 ] final   70.19 input   66.30 | X-H torsion
[ 10763 10752 10751 10750 ] final  -50.98 input  -60.55 | X-H torsion
[ 11005 11000 10999 10996 ] final   80.70 input  -57.11 | X-H torsion

> <Gold.Protein.ActiveResidues>
 VAL166  LYS551  ARG553  GLY616  TRP617  ASP618  TYR619  PRO620  LYS621  CYS622 
 ASP623  PHE694  ASN695  SER759  ASP760  ASP761  ALA762  ILE779  LEU786  VAL792 
 PHE793  MET794  SER795  GLU796  ALA797  LYS798  CYS799  TRP800  GLU811  SER814 

> <Gold.Protein.RotatedAtoms>
  151.9526  133.3670  159.4005 H   0  0  0  0  0  0  0  0  0  0  0  0  # atno 6907 bound_to 6896
  150.6978  134.4324  159.5264 H   0  0  0  0  0  0  0  0  0  0  0  0  # atno 6908 bound_to 6896
  152.1999  134.8597  160.0559 H   0  0  0  0  0  0  0  0  0  0  0  0  # atno 6909 bound_to 6896
  144.7430  139.8738  143.6391 H   0  0  0  0  0  0  0  0  0  0  0  0  # atno 7974 bound_to 7965
  155.0842  140.0394  157.2648 H   0  0  0  0  0  0  0  0  0  0  0  0  # atno 8008 bound_to 7997
  154.6883  140.2648  155.6813 H   0  0  0  0  0  0  0  0  0  0  0  0  # atno 8009 bound_to 7997
  156.2719  140.2764  156.1452 H   0  0  0  0  0  0  0  0  0  0  0  0  # atno 8010 bound_to 7997
  140.5780  143.9035  150.6766 H   0  0  0  0  0  0  0  0  0  0  0  0  # atno 10167 bound_to 10162
  157.6386  130.9464  150.0616 H   0  0  0  0  0  0  0  0  0  0  0  0  # atno 10718 bound_to 10713
  154.1191  135.6537  153.4899 H   0  0  0  0  0  0  0  0  0  0  0  0  # atno 10763 bound_to 10752
  153.0231  135.5266  154.7114 H   0  0  0  0  0  0  0  0  0  0  0  0  # atno 10764 bound_to 10752
  154.6317  135.2977  155.0179 H   0  0  0  0  0  0  0  0  0  0  0  0  # atno 10765 bound_to 10752
  139.9125  134.7940  156.1944 H   0  0  0  0  0  0  0  0  0  0  0  0  # atno 11005 bound_to 11000
  146.1261  139.4287  143.0198 LP  0  0  0  0  0  0  0  0  0  0  0  0  # atno 17320 bound_to 7965
  145.7233  141.0067  143.1391 LP  0  0  0  0  0  0  0  0  0  0  0  0  # atno 17321 bound_to 7965
  140.2527  143.3581  152.1391 LP  0  0  0  0  0  0  0  0  0  0  0  0  # atno 17342 bound_to 10162
  139.5154  144.6962  151.5624 LP  0  0  0  0  0  0  0  0  0  0  0  0  # atno 17343 bound_to 10162
  156.1647  130.3645  149.9249 LP  0  0  0  0  0  0  0  0  0  0  0  0  # atno 17370 bound_to 10713
  156.7239  130.9017  151.3620 LP  0  0  0  0  0  0  0  0  0  0  0  0  # atno 17371 bound_to 10713
  141.0564  133.6863  156.1868 LP  0  0  0  0  0  0  0  0  0  0  0  0  # atno 17394 bound_to 11000
  140.6731  134.4847  157.5587 LP  0  0  0  0  0  0  0  0  0  0  0  0  # atno 17395 bound_to 11000

$$$$
