AV-unprocessed.smi:213|AV-procd|sdf|1639|dock7
  -GOLD-   2262020 03D 1   1.00000     0.00000
 Structure written by MMmdl.
 59 62  0  0  0  0  0  0  0  0  2 V2000
  146.5480  136.4030  154.4597 C   0  0  0  0  0  0  0  0  0  0  0  0
  145.8954  137.6514  153.8438 C   0  0  2  0  0  0  0  0  0  0  0  0
  144.7033  137.2726  152.9321 C   0  0  0  0  0  0  0  0  0  0  0  0
  144.8374  135.9216  152.3301 N   0  3  0  0  0  0  0  0  0  0  0  0
  143.5333  135.2790  152.0485 C   0  0  0  0  0  0  0  0  0  0  0  0
  143.7499  133.8513  151.5195 C   0  0  0  0  0  0  0  0  0  0  0  0
  144.5719  133.8898  150.3590 O   0  0  0  0  0  0  0  0  0  0  0  0
  145.8572  134.4344  150.6327 C   0  0  0  0  0  0  0  0  0  0  0  0
  145.7071  135.8819  151.1291 C   0  0  0  0  0  0  0  0  0  0  0  0
  146.8867  138.4938  153.1574 N   0  0  0  0  0  0  0  0  0  0  0  0
  146.7954  138.6810  151.7097 C   0  0  0  0  0  0  0  0  0  0  0  0
  147.4108  139.5216  153.8766 C   0  0  0  0  0  0  0  0  0  0  0  0
  146.6214  140.5837  154.1933 N   0  0  0  0  0  0  0  0  0  0  0  0
  147.0993  141.5839  154.9389 C   0  0  0  0  0  0  0  0  0  0  0  0
  148.3150  141.7194  155.4703 N   0  0  0  0  0  0  0  0  0  0  0  0
  149.1167  140.6650  155.1464 C   0  0  0  0  0  0  0  0  0  0  0  0
  148.7500  139.5361  154.3606 C   0  0  0  0  0  0  0  0  0  0  0  0
  149.8331  138.6726  154.2424 N   0  0  0  0  0  0  0  0  0  0  0  0
  150.7840  139.2563  154.9195 C   0  0  0  0  0  0  0  0  0  0  0  0
  150.4386  140.4567  155.4963 N   0  0  0  0  0  0  0  0  0  0  0  0
  151.2972  141.3161  156.2918 C   0  0  0  0  0  0  0  0  0  0  0  0
  150.7563  141.5253  157.7201 C   0  0  1  0  0  0  0  0  0  0  0  0
  150.4324  140.2858  158.3213 O   0  0  0  0  0  0  0  0  0  0  0  0
  151.7262  142.3218  158.6165 C   0  0  1  0  0  0  0  0  0  0  0  0
  152.2606  143.6375  158.0425 C   0  0  0  0  0  0  0  0  0  0  0  0
  152.6176  144.3886  159.3055 C   0  0  0  0  0  0  0  0  0  0  0  0
  151.4848  143.9772  160.2423 C   0  0  0  0  0  0  0  0  0  0  0  0
  151.1416  142.6434  159.8768 O   0  0  0  0  0  0  0  0  0  0  0  0
  145.8300  135.8506  155.0662 H   0  0  0  0  0  0  0  0  0  0  0  0
  147.3806  136.6764  155.1086 H   0  0  0  0  0  0  0  0  0  0  0  0
  146.9246  135.7180  153.7001 H   0  0  0  0  0  0  0  0  0  0  0  0
  145.4875  138.2042  154.6872 H   0  0  0  0  0  0  0  0  0  0  0  0
  143.7882  137.3094  153.5251 H   0  0  0  0  0  0  0  0  0  0  0  0
  144.5782  138.0112  152.1389 H   0  0  0  0  0  0  0  0  0  0  0  0
  142.9325  135.2435  152.9581 H   0  0  0  0  0  0  0  0  0  0  0  0
  142.9803  135.8729  151.3190 H   0  0  0  0  0  0  0  0  0  0  0  0
  144.2075  133.2192  152.2825 H   0  0  0  0  0  0  0  0  0  0  0  0
  142.7931  133.3973  151.2610 H   0  0  0  0  0  0  0  0  0  0  0  0
  146.3766  133.8212  151.3709 H   0  0  0  0  0  0  0  0  0  0  0  0
  146.4548  134.4085  149.7214 H   0  0  0  0  0  0  0  0  0  0  0  0
  145.2778  136.5045  150.3429 H   0  0  0  0  0  0  0  0  0  0  0  0
  146.6930  136.2868  151.3548 H   0  0  0  0  0  0  0  0  0  0  0  0
  147.7251  139.0929  151.3147 H   0  0  0  0  0  0  0  0  0  0  0  0
  145.9828  139.3625  151.4557 H   0  0  0  0  0  0  0  0  0  0  0  0
  146.6169  137.7367  151.1974 H   0  0  0  0  0  0  0  0  0  0  0  0
  146.4075  142.3876  155.1449 H   0  0  0  0  0  0  0  0  0  0  0  0
  151.7708  138.8265  155.0146 H   0  0  0  0  0  0  0  0  0  0  0  0
  152.2967  140.8801  156.3173 H   0  0  0  0  0  0  0  0  0  0  0  0
  151.3892  142.2752  155.7805 H   0  0  0  0  0  0  0  0  0  0  0  0
  149.8244  142.0884  157.6550 H   0  0  0  0  0  0  0  0  0  0  0  0
  149.6098  139.9877  157.9638 H   0  0  0  0  0  0  0  0  0  0  0  0
  152.5843  141.6862  158.8415 H   0  0  0  0  0  0  0  0  0  0  0  0
  153.1099  143.4959  157.3738 H   0  0  0  0  0  0  0  0  0  0  0  0
  151.4895  144.1855  157.5001 H   0  0  0  0  0  0  0  0  0  0  0  0
  153.5743  144.0368  159.6934 H   0  0  0  0  0  0  0  0  0  0  0  0
  152.6813  145.4673  159.1609 H   0  0  0  0  0  0  0  0  0  0  0  0
  151.7663  144.0439  161.2931 H   0  0  0  0  0  0  0  0  0  0  0  0
  150.6130  144.6133  160.0842 H   0  0  0  0  0  0  0  0  0  0  0  0
  145.2831  135.3464  153.0314 H   0  0  0  0  0  0  0  0  0  0  0  0
  1  2  1  0  0  0  0
  1 29  1  0  0  0  0
  1 30  1  0  0  0  0
  1 31  1  0  0  0  0
  2  3  1  0  0  0  0
  2 10  1  0  0  0  0
  2 32  1  0  0  0  0
  3  4  1  0  0  0  0
  3 33  1  0  0  0  0
  3 34  1  0  0  0  0
  4  9  1  0  0  0  0
  4  5  1  0  0  0  0
  4 59  1  0  0  0  0
  5  6  1  0  0  0  0
  5 35  1  0  0  0  0
  5 36  1  0  0  0  0
  6  7  1  0  0  0  0
  6 37  1  0  0  0  0
  6 38  1  0  0  0  0
  7  8  1  0  0  0  0
  8  9  1  0  0  0  0
  8 39  1  0  0  0  0
  8 40  1  0  0  0  0
  9 41  1  0  0  0  0
  9 42  1  0  0  0  0
 10 11  1  0  0  0  0
 10 12  1  0  0  0  0
 11 43  1  0  0  0  0
 11 44  1  0  0  0  0
 11 45  1  0  0  0  0
 12 17  1  0  0  0  0
 12 13  2  0  0  0  0
 13 14  1  0  0  0  0
 14 15  2  0  0  0  0
 14 46  1  0  0  0  0
 15 16  1  0  0  0  0
 16 20  1  0  0  0  0
 16 17  2  0  0  0  0
 17 18  1  0  0  0  0
 18 19  2  0  0  0  0
 19 20  1  0  0  0  0
 19 47  1  0  0  0  0
 20 21  1  0  0  0  0
 21 22  1  0  0  0  0
 21 48  1  0  0  0  0
 21 49  1  0  0  0  0
 22 23  1  0  0  0  0
 22 24  1  0  0  0  0
 22 50  1  0  0  0  0
 23 51  1  0  0  0  0
 24 28  1  0  0  0  0
 24 25  1  0  0  0  0
 24 52  1  0  0  0  0
 25 26  1  0  0  0  0
 25 53  1  0  0  0  0
 25 54  1  0  0  0  0
 26 27  1  0  0  0  0
 26 55  1  0  0  0  0
 26 56  1  0  0  0  0
 27 28  1  0  0  0  0
 27 57  1  0  0  0  0
 27 58  1  0  0  0  0
M  CHG  1   4   1
M  END
> <s_m_source_file>
AV-unprocessed.smi

> <i_m_source_file_index>
213

> <i_lp_mmshare_version>
43012

> <i_f3d_flags>
0

> <s_epik_input>
W0NIMl0xW0NIMl1PW0NIMl1bQ0gyXU4xW0NIMl1bQ0BASF0oW0NIM10pTihbQ0gzXSljKG5bY0hdbjIpYyhjMjMpbltjSF1uM1tDSDJdW0NASF0oW09IXSlbQ0BASF00W0NIMl1bQ0gyXVtDSDJdTzQ=

> <s_epik_cmdline>
J2VwaWtfcHl0aG9uJywgJy1waCcsICc3LjAnLCAnLXRuJywgJzgnLCAnLW1hJywgJzIwMCcsICctbWV0YWxfYmluZGluZycsICctaW1hZScsICc8aW5maWxlLm1hZT4nLCAnLW9tYWUnLCAnPG91dGZpbGUubWFlPic=

> <r_lp_tautomer_probability>
1

> <r_epik_Ionization_Penalty>
0.399679

> <r_epik_Ionization_Penalty_Charging>
0.399433

> <r_epik_Ionization_Penalty_Neutral>
0.000246213

> <r_epik_State_Penalty>
0.286032

> <r_epik_Charging_Adjusted_Penalty>
0.685465

> <i_epik_Tot_Q>
1

> <i_epik_Tot_abs_Q>
1

> <r_epik_Metal_State_Penalty>
0.286072

> <b_epik_Metal_Only>
0

> <s_lp_Force_Field>
OPLS_2005

> <r_lp_Energy>
47.0923

> <b_lp_Chiralities_Consistent>
1

> <s_lp_Variant>
AV-unprocessed.smi:213-7

> <Gold.Version>
5.8.1

> <Gold.Id.Protein>
6NUR|6NUR_protein|mol2

> <Gold.PLP.Fitness>
47.2991

> <Gold.PLP.PLP>
-51.1834

> <Gold.PLP.part.hbond>
-0.4160

> <Gold.PLP.part.metal>
0.0000

> <Gold.PLP.part.buried>
-6.7218

> <Gold.PLP.part.nonpolar>
-47.3193

> <Gold.PLP.part.repulsive>
2.6822

> <Gold.PLP.ligand.clash>
0.0000

> <Gold.PLP.ligand.torsion>
2.5911

> <Gold.PLP.Chemscore.Hbond>
0.0000

> <Gold.PLP.Chemscore.CHOScore>
0.0000

> <Gold.PLP.Chemscore.Metal>
0.0000

> <Gold.PLP.Chemscore.Internal.Correction>
1.2978

> <Gold.Rescore>
     Score         DG    S(hbond)    S(metal)    S(lipo)     H(rot)  DE(clash)    DE(int)     intcor
      6.62     -10.52       0.00        0.00     104.93       2.83       1.01       2.89       ----

> <Gold.Chemscore.Fitness>
6.6207

> <Gold.Chemscore.DG>
-10.5237

> <Gold.Chemscore.ZeroCoef>
-5.4800

> <Gold.Chemscore.Hbond>
0.0000

> <Gold.Chemscore.Metal>
0.0000

> <Gold.Chemscore.Lipo>
104.9284

> <Gold.Chemscore.Internal_Hbond>
0.0000

> <Gold.Chemscore.DEClash>
1.0099

> <Gold.Chemscore.DEInternal>
2.8932

> <Gold.Chemscore.Rot>
2.8254

> <Gold.Chemscore.Internal.Correction>
   9.000000E+99

> <Gold.Chemscore.Hbond.Weighted>
-0.0000

> <Gold.Chemscore.Metal.Weighted>
-0.0000

> <Gold.Chemscore.Lipo.Weighted>
-12.2766

> <Gold.Chemscore.Internal_Hbond.Weighted>
0.0000

> <Gold.Chemscore.DEClash.Weighted>
1.0099

> <Gold.Chemscore.DEInternal.Weighted>
2.8932

> <Gold.Chemscore.Rot.Weighted>
7.2330

> <Gold.Chemscore.Internal.Correction.Weighted>
   9.000000E+99

> <Gold.Protein.RotatedTorsions>
[ 6907 6896 6895 6894 ] final -160.31 input  -60.11 | X-H torsion
[ 7974 7965 7964 7962 ] final -146.35 input  175.53 | X-H torsion
[ 8008 7997 7996 7995 ] final   95.26 input   59.86 | X-H torsion
[ 10167 10162 10161 10158 ] final -147.09 input  -65.29 | X-H torsion
[ 10718 10713 10712 10709 ] final -175.32 input   66.30 | X-H torsion
[ 10763 10752 10751 10750 ] final   22.47 input  -60.55 | X-H torsion
[ 11005 11000 10999 10996 ] final  -39.12 input  -57.11 | X-H torsion

> <Gold.Protein.ActiveResidues>
 VAL166  LYS551  ARG553  GLY616  TRP617  ASP618  TYR619  PRO620  LYS621  CYS622 
 ASP623  PHE694  ASN695  SER759  ASP760  ASP761  ALA762  ILE779  LEU786  VAL792 
 PHE793  MET794  SER795  GLU796  ALA797  LYS798  CYS799  TRP800  GLU811  SER814 

> <Gold.Protein.RotatedAtoms>
  151.3471  133.3939  159.2676 H   0  0  0  0  0  0  0  0  0  0  0  0  # atno 6907 bound_to 6896
  150.9831  134.9183  159.7866 H   0  0  0  0  0  0  0  0  0  0  0  0  # atno 6908 bound_to 6896
  152.5223  134.3435  159.9278 H   0  0  0  0  0  0  0  0  0  0  0  0  # atno 6909 bound_to 6896
  144.8165  140.5467  143.5607 H   0  0  0  0  0  0  0  0  0  0  0  0  # atno 7974 bound_to 7965
  156.0669  140.3289  155.7529 H   0  0  0  0  0  0  0  0  0  0  0  0  # atno 8008 bound_to 7997
  155.5366  140.0598  157.2896 H   0  0  0  0  0  0  0  0  0  0  0  0  # atno 8009 bound_to 7997
  154.4510  140.1918  156.0538 H   0  0  0  0  0  0  0  0  0  0  0  0  # atno 8010 bound_to 7997
  139.7654  143.8316  152.2615 H   0  0  0  0  0  0  0  0  0  0  0  0  # atno 10167 bound_to 10162
  156.7982  130.9542  151.3119 H   0  0  0  0  0  0  0  0  0  0  0  0  # atno 10718 bound_to 10713
  153.0913  135.6647  153.9849 H   0  0  0  0  0  0  0  0  0  0  0  0  # atno 10763 bound_to 10752
  153.9445  135.2990  155.3442 H   0  0  0  0  0  0  0  0  0  0  0  0  # atno 10764 bound_to 10752
  154.7327  135.5115  153.9064 H   0  0  0  0  0  0  0  0  0  0  0  0  # atno 10765 bound_to 10752
  141.0079  133.6923  156.2145 H   0  0  0  0  0  0  0  0  0  0  0  0  # atno 11005 bound_to 11000
  145.5202  139.1477  143.3556 LP  0  0  0  0  0  0  0  0  0  0  0  0  # atno 17320 bound_to 7965
  146.2468  140.5343  142.8910 LP  0  0  0  0  0  0  0  0  0  0  0  0  # atno 17321 bound_to 7965
  139.8334  144.7243  150.9421 LP  0  0  0  0  0  0  0  0  0  0  0  0  # atno 17342 bound_to 10162
  140.7810  143.4049  151.1088 LP  0  0  0  0  0  0  0  0  0  0  0  0  # atno 17343 bound_to 10162
  157.6567  130.8930  149.9743 LP  0  0  0  0  0  0  0  0  0  0  0  0  # atno 17370 bound_to 10713
  156.1117  130.3649  150.0037 LP  0  0  0  0  0  0  0  0  0  0  0  0  # atno 17371 bound_to 10713
  140.6783  134.4794  157.5588 LP  0  0  0  0  0  0  0  0  0  0  0  0  # atno 17394 bound_to 11000
  139.9073  134.8421  156.1657 LP  0  0  0  0  0  0  0  0  0  0  0  0  # atno 17395 bound_to 11000

$$$$
