AV-unprocessed.smi:1983|AV-procd|sdf|8030|dock7
  -GOLD-   2272010223D 1   1.00000     0.00000
 Structure written by MMmdl.
 49 50  0  0  0  0  0  0  0  0  1 V2000
  150.0020  132.8561  155.1496 C   0  0  0  0  0  0  0  0  0  0  0  0
  148.9351  133.9663  155.1342 C   0  0  2  0  0  0  0  0  0  0  0  0
  147.6105  133.5347  154.4779 C   0  0  0  0  0  0  0  0  0  0  0  0
  147.8175  133.0321  153.1732 O   0  0  0  0  0  0  0  0  0  0  0  0
  149.4314  135.1817  154.4940 N   0  0  0  0  0  0  0  0  0  0  0  0
  150.5797  135.8045  154.7925 C   0  0  0  0  0  0  0  0  0  0  0  0
  151.3646  135.4279  155.6635 O   0  0  0  0  0  0  0  0  0  0  0  0
  150.7768  136.8812  154.0191 N   0  0  0  0  0  0  0  0  0  0  0  0
  151.9619  137.7301  154.0674 C   0  0  0  0  0  0  0  0  0  0  0  0
  151.8915  138.7945  155.1501 C   0  0  0  0  0  0  0  0  0  0  0  0
  150.8756  139.7717  155.1522 C   0  0  0  0  0  0  0  0  0  0  0  0
  150.8609  140.7385  156.1752 C   0  0  0  0  0  0  0  0  0  0  0  0
  151.8642  140.7025  157.1721 C   0  0  0  0  0  0  0  0  0  0  0  0
  151.8677  141.6657  158.2027 N   0  0  0  0  0  0  0  0  0  0  0  0
  152.4317  141.2881  159.4951 C   0  0  0  0  0  0  0  0  0  0  0  0
  152.6690  142.5391  160.3589 C   0  0  2  0  0  0  0  0  0  0  0  0
  153.1427  142.1774  161.7705 C   0  0  0  0  0  0  0  0  0  0  0  0
  151.4528  143.2769  160.4749 O   0  0  0  0  0  0  0  0  0  0  0  0
  150.8802  143.6877  159.2310 C   0  0  1  0  0  0  0  0  0  0  0  0
  151.6909  144.8111  158.5604 C   0  0  0  0  0  0  0  0  0  0  0  0
  150.6531  142.4671  158.3169 C   0  0  0  0  0  0  0  0  0  0  0  0
  152.8399  139.7608  157.1659 N   0  0  0  0  0  0  0  0  0  0  0  0
  152.8476  138.8343  156.1845 C   0  0  0  0  0  0  0  0  0  0  0  0
  149.6149  131.9501  155.6166 H   0  0  0  0  0  0  0  0  0  0  0  0
  150.8833  133.1629  155.7139 H   0  0  0  0  0  0  0  0  0  0  0  0
  150.3298  132.5983  154.1422 H   0  0  0  0  0  0  0  0  0  0  0  0
  148.7007  134.2141  156.1711 H   0  0  0  0  0  0  0  0  0  0  0  0
  147.1403  132.7505  155.0721 H   0  0  0  0  0  0  0  0  0  0  0  0
  146.9062  134.3666  154.4385 H   0  0  0  0  0  0  0  0  0  0  0  0
  148.7463  132.9199  153.0387 H   0  0  0  0  0  0  0  0  0  0  0  0
  148.8593  135.5664  153.7564 H   0  0  0  0  0  0  0  0  0  0  0  0
  150.0728  137.1144  153.3342 H   0  0  0  0  0  0  0  0  0  0  0  0
  152.8280  137.0978  154.2633 H   0  0  0  0  0  0  0  0  0  0  0  0
  152.1300  138.1907  153.0923 H   0  0  0  0  0  0  0  0  0  0  0  0
  150.1198  139.7856  154.3807 H   0  0  0  0  0  0  0  0  0  0  0  0
  150.0965  141.5011  156.1765 H   0  0  0  0  0  0  0  0  0  0  0  0
  151.7475  140.6043  159.9995 H   0  0  0  0  0  0  0  0  0  0  0  0
  153.3762  140.7610  159.3545 H   0  0  0  0  0  0  0  0  0  0  0  0
  153.4345  143.1625  159.8969 H   0  0  0  0  0  0  0  0  0  0  0  0
  154.0767  141.6157  161.7389 H   0  0  0  0  0  0  0  0  0  0  0  0
  152.4031  141.5687  162.2914 H   0  0  0  0  0  0  0  0  0  0  0  0
  153.3146  143.0746  162.3653 H   0  0  0  0  0  0  0  0  0  0  0  0
  149.9026  144.1065  159.4713 H   0  0  0  0  0  0  0  0  0  0  0  0
  151.1636  145.1988  157.6885 H   0  0  0  0  0  0  0  0  0  0  0  0
  152.6683  144.4699  158.2200 H   0  0  0  0  0  0  0  0  0  0  0  0
  151.8463  145.6424  159.2482 H   0  0  0  0  0  0  0  0  0  0  0  0
  150.2918  142.8021  157.3453 H   0  0  0  0  0  0  0  0  0  0  0  0
  149.8699  141.8363  158.7393 H   0  0  0  0  0  0  0  0  0  0  0  0
  153.6462  138.1082  156.2252 H   0  0  0  0  0  0  0  0  0  0  0  0
  1  2  1  0  0  0  0
  1 24  1  0  0  0  0
  1 25  1  0  0  0  0
  1 26  1  0  0  0  0
  2  3  1  0  0  0  0
  2  5  1  0  0  0  0
  2 27  1  0  0  0  0
  3  4  1  0  0  0  0
  3 28  1  0  0  0  0
  3 29  1  0  0  0  0
  4 30  1  0  0  0  0
  5  6  1  0  0  0  0
  5 31  1  0  0  0  0
  6  7  2  0  0  0  0
  6  8  1  0  0  0  0
  8  9  1  0  0  0  0
  8 32  1  0  0  0  0
  9 10  1  0  0  0  0
  9 33  1  0  0  0  0
  9 34  1  0  0  0  0
 10 23  1  0  0  0  0
 10 11  2  0  0  0  0
 11 12  1  0  0  0  0
 11 35  1  0  0  0  0
 12 13  2  0  0  0  0
 12 36  1  0  0  0  0
 13 14  1  0  0  0  0
 13 22  1  0  0  0  0
 14 21  1  0  0  0  0
 14 15  1  0  0  0  0
 15 16  1  0  0  0  0
 15 37  1  0  0  0  0
 15 38  1  0  0  0  0
 16 17  1  0  0  0  0
 16 18  1  0  0  0  0
 16 39  1  0  0  0  0
 17 40  1  0  0  0  0
 17 41  1  0  0  0  0
 17 42  1  0  0  0  0
 18 19  1  0  0  0  0
 19 20  1  0  0  0  0
 19 21  1  0  0  0  0
 19 43  1  0  0  0  0
 20 44  1  0  0  0  0
 20 45  1  0  0  0  0
 20 46  1  0  0  0  0
 21 47  1  0  0  0  0
 21 48  1  0  0  0  0
 22 23  2  0  0  0  0
 23 49  1  0  0  0  0
M  END
> <s_m_source_file>
AV-unprocessed.smi

> <i_m_source_file_index>
1983

> <i_lp_mmshare_version>
43012

> <i_f3d_flags>
0

> <s_epik_input>
W09IXVtDSDJdW0NAQEhdKFtDSDNdKVtOSF1DKD1PKVtOSF1bQ0gyXWMxW2NIXVtjSF1jKG5bY0hdMSlOMltDSDJdW0NAQEhdKFtDSDNdKU9bQ0BASF0oW0NIM10pW0NIMl0y

> <s_epik_cmdline>
J2VwaWtfcHl0aG9uJywgJy1waCcsICc3LjAnLCAnLXRuJywgJzgnLCAnLW1hJywgJzIwMCcsICctbWV0YWxfYmluZGluZycsICctaW1hZScsICc8aW5maWxlLm1hZT4nLCAnLW9tYWUnLCAnPG91dGZpbGUubWFlPic=

> <r_lp_tautomer_probability>
1

> <r_epik_Ionization_Penalty>
0.00801967

> <r_epik_Ionization_Penalty_Charging>
0

> <r_epik_Ionization_Penalty_Neutral>
0.00801967

> <r_epik_State_Penalty>
0.00598289

> <r_epik_Charging_Adjusted_Penalty>
0.00598289

> <i_epik_Tot_Q>
0

> <i_epik_Tot_abs_Q>
0

> <r_epik_Metal_State_Penalty>
0.00590297

> <b_epik_Metal_Only>
0

> <s_lp_Force_Field>
OPLS_2005

> <r_lp_Energy>
17.398

> <b_lp_Chiralities_Consistent>
1

> <s_lp_Variant>
AV-unprocessed.smi:1983-3

> <Gold.Version>
5.8.1

> <Gold.Id.Protein>
6NUR|6NUR_protein|mol2

> <Gold.PLP.Fitness>
51.9419

> <Gold.PLP.PLP>
-43.7237

> <Gold.PLP.part.hbond>
-5.6030

> <Gold.PLP.part.metal>
0.0000

> <Gold.PLP.part.buried>
-1.7962

> <Gold.PLP.part.nonpolar>
-36.4671

> <Gold.PLP.part.repulsive>
0.2405

> <Gold.PLP.ligand.clash>
0.0000

> <Gold.PLP.ligand.torsion>
0.7586

> <Gold.PLP.Chemscore.Hbond>
3.1179

> <Gold.PLP.Chemscore.CHOScore>
0.0000

> <Gold.PLP.Chemscore.Metal>
0.0000

> <Gold.Chemscore.Hbonds>
donor molecule, donor type, donor heavy atom, donor atom, acceptor molecule, acceptor atom, score
      L1  H     5    31       P1  7948  0.82
      L1  H     8    32       P1  7948  0.72
      P1  H  7997  8009       L1    22  0.55
      P1  H 10752 10764       L1     7  1.00

> <Gold.PLP.Chemscore.Internal.Correction>
0.3816

> <Gold.Rescore>
     Score         DG    S(hbond)    S(metal)    S(lipo)     H(rot)  DE(clash)    DE(int)     intcor
     17.35     -18.71       2.08        0.00     110.68       2.61       0.55       0.81       ----

> <Gold.Chemscore.Fitness>
17.3455

> <Gold.Chemscore.DG>
-18.7105

> <Gold.Chemscore.ZeroCoef>
-5.4800

> <Gold.Chemscore.Hbond>
2.0843

> <Gold.Chemscore.Metal>
0.0000

> <Gold.Chemscore.Lipo>
110.6818

> <Gold.Chemscore.Internal_Hbond>
0.0000

> <Gold.Chemscore.DEClash>
0.5501

> <Gold.Chemscore.DEInternal>
0.8150

> <Gold.Chemscore.Rot>
2.6097

> <Gold.Chemscore.Internal.Correction>
   9.000000E+99

> <Gold.Chemscore.Hbonds>
donor molecule, donor type, donor heavy atom, donor atom, acceptor molecule, acceptor atom, score
      L1  H     5    31       P1  7948  0.72
      L1  H     8    32       P1  7948  0.14
      P1  H  7997  8009       L1    22  0.04
      P1  H 10752 10764       L1     7  0.60

> <Gold.Chemscore.Hbond.Weighted>
-6.9617

> <Gold.Chemscore.Metal.Weighted>
-0.0000

> <Gold.Chemscore.Lipo.Weighted>
-12.9498

> <Gold.Chemscore.Internal_Hbond.Weighted>
0.0000

> <Gold.Chemscore.DEClash.Weighted>
0.5501

> <Gold.Chemscore.DEInternal.Weighted>
0.8150

> <Gold.Chemscore.Rot.Weighted>
6.6809

> <Gold.Chemscore.Internal.Correction.Weighted>
   9.000000E+99

> <Gold.Protein.RotatedTorsions>
[ 6907 6896 6895 6894 ] final -146.72 input  -60.11 | X-H torsion
[ 7974 7965 7964 7962 ] final  110.36 input  175.53 | X-H torsion
[ 8008 7997 7996 7995 ] final  156.52 input   59.86 | X-H torsion
[ 10167 10162 10161 10158 ] final  -66.07 input  -65.29 | X-H torsion
[ 10718 10713 10712 10709 ] final  -57.00 input   66.30 | X-H torsion
[ 10763 10752 10751 10750 ] final  -37.37 input  -60.55 | X-H torsion
[ 11005 11000 10999 10996 ] final -151.21 input  -57.11 | X-H torsion

> <Gold.Protein.ActiveResidues>
 VAL166  LYS551  ARG553  GLY616  TRP617  ASP618  TYR619  PRO620  LYS621  CYS622 
 ASP623  PHE694  ASN695  SER759  ASP760  ASP761  ALA762  ILE779  LEU786  VAL792 
 PHE793  MET794  SER795  GLU796  ALA797  LYS798  CYS799  TRP800  GLU811  SER814 

> <Gold.Protein.RotatedAtoms>
  151.1456  133.4942  159.2595 H   0  0  0  0  0  0  0  0  0  0  0  0  # atno 6907 bound_to 6896
  151.1609  135.0272  159.8719 H   0  0  0  0  0  0  0  0  0  0  0  0  # atno 6908 bound_to 6896
  152.5463  134.1330  159.8500 H   0  0  0  0  0  0  0  0  0  0  0  0  # atno 6909 bound_to 6896
  145.2559  139.2721  143.4042 H   0  0  0  0  0  0  0  0  0  0  0  0  # atno 7974 bound_to 7965
  156.2418  140.1910  156.6968 H   0  0  0  0  0  0  0  0  0  0  0  0  # atno 8008 bound_to 7997
  154.6211  140.0608  156.9643 H   0  0  0  0  0  0  0  0  0  0  0  0  # atno 8009 bound_to 7997
  155.1860  140.3280  155.4369 H   0  0  0  0  0  0  0  0  0  0  0  0  # atno 8010 bound_to 7997
  140.5683  143.2316  151.6589 H   0  0  0  0  0  0  0  0  0  0  0  0  # atno 10167 bound_to 10162
  156.1244  130.4163  150.0382 H   0  0  0  0  0  0  0  0  0  0  0  0  # atno 10718 bound_to 10713
  153.8951  135.6808  153.4758 H   0  0  0  0  0  0  0  0  0  0  0  0  # atno 10763 bound_to 10752
  153.1160  135.4761  154.9113 H   0  0  0  0  0  0  0  0  0  0  0  0  # atno 10764 bound_to 10752
  154.7603  135.3209  154.8344 H   0  0  0  0  0  0  0  0  0  0  0  0  # atno 10765 bound_to 10752
  140.7320  134.3610  157.5165 H   0  0  0  0  0  0  0  0  0  0  0  0  # atno 11005 bound_to 11000
  146.3289  140.2963  142.8618 LP  0  0  0  0  0  0  0  0  0  0  0  0  # atno 17320 bound_to 7965
  144.9461  140.8129  143.5600 LP  0  0  0  0  0  0  0  0  0  0  0  0  # atno 17321 bound_to 7965
  139.5104  144.3543  152.0623 LP  0  0  0  0  0  0  0  0  0  0  0  0  # atno 17342 bound_to 10162
  140.2677  144.3998  150.6162 LP  0  0  0  0  0  0  0  0  0  0  0  0  # atno 17343 bound_to 10162
  156.8311  130.9393  151.3637 LP  0  0  0  0  0  0  0  0  0  0  0  0  # atno 17370 bound_to 10713
  157.6426  130.8818  149.9478 LP  0  0  0  0  0  0  0  0  0  0  0  0  # atno 17371 bound_to 10713
  139.8824  134.9025  156.2833 LP  0  0  0  0  0  0  0  0  0  0  0  0  # atno 17394 bound_to 11000
  140.9912  133.7207  156.0817 LP  0  0  0  0  0  0  0  0  0  0  0  0  # atno 17395 bound_to 11000

$$$$
