AV-unprocessed.smi:2252|AV-procd|sdf|9112|dock6
  -GOLD-   2272012313D 1   1.00000     0.00000
 Structure written by MMmdl.
 44 46  0  0  0  0  0  0  0  0  3 V2000
  147.6902  133.6832  160.7794 C   0  0  0  0  0  0  0  0  0  0  0  0
  147.6164  134.9810  161.4234 N   0  0  0  0  0  0  0  0  0  0  0  0
  147.3758  135.2038  162.7728 C   0  0  0  0  0  0  0  0  0  0  0  0
  147.3934  136.5647  162.9574 C   0  0  0  0  0  0  0  0  0  0  0  0
  147.6419  137.1915  161.7417 N   0  0  0  0  0  0  0  0  0  0  0  0
  147.7634  136.1995  160.8602 C   0  0  0  0  0  0  0  0  0  0  0  0
  148.0464  136.4073  159.3961 C   0  0  0  0  0  0  0  0  0  0  0  0
  147.0912  135.6493  158.4465 C   0  0  0  0  0  0  0  0  0  0  0  0
  147.5711  135.7384  157.0690 N   0  5  0  0  0  0  0  0  0  0  0  0
  148.1219  134.6943  156.3856 C   0  0  0  0  0  0  0  0  0  0  0  0
  148.1135  133.4843  156.6328 O   0  0  0  0  0  0  0  0  0  0  0  0
  148.8554  135.1704  155.1166 C   0  0  1  0  0  0  0  0  0  0  0  0
  150.3728  134.9000  155.2500 C   0  0  0  0  0  0  0  0  0  0  0  0
  150.8833  133.7719  156.1210 C   0  0  0  0  0  0  0  0  0  0  0  0
  151.1161  135.2023  156.5335 C   0  0  0  0  0  0  0  0  0  0  0  0
  148.2883  134.5650  153.8777 N   0  3  0  0  0  0  0  0  0  0  0  0
  148.6616  133.1563  153.6279 C   0  0  0  0  0  0  0  0  0  0  0  0
  147.6579  132.6705  152.5889 C   0  0  0  0  0  0  0  0  0  0  0  0
  146.3660  133.3835  152.9817 C   0  0  0  0  0  0  0  0  0  0  0  0
  146.8136  134.6393  153.7446 C   0  0  0  0  0  0  0  0  0  0  0  0
  147.4739  132.8931  161.4987 H   0  0  0  0  0  0  0  0  0  0  0  0
  148.6907  133.5279  160.3757 H   0  0  0  0  0  0  0  0  0  0  0  0
  146.9625  133.6294  159.9694 H   0  0  0  0  0  0  0  0  0  0  0  0
  147.2173  134.3967  163.4727 H   0  0  0  0  0  0  0  0  0  0  0  0
  147.2487  137.1359  163.8624 H   0  0  0  0  0  0  0  0  0  0  0  0
  147.9858  137.4779  159.1957 H   0  0  0  0  0  0  0  0  0  0  0  0
  149.0795  136.1276  159.1878 H   0  0  0  0  0  0  0  0  0  0  0  0
  147.0344  134.6082  158.7650 H   0  0  0  0  0  0  0  0  0  0  0  0
  146.0796  136.0417  158.5570 H   0  0  0  0  0  0  0  0  0  0  0  0
  148.7094  136.2499  155.0445 H   0  0  0  0  0  0  0  0  0  0  0  0
  150.9289  135.0567  154.3271 H   0  0  0  0  0  0  0  0  0  0  0  0
  150.1530  133.1987  156.6892 H   0  0  0  0  0  0  0  0  0  0  0  0
  151.7374  133.2056  155.7555 H   0  0  0  0  0  0  0  0  0  0  0  0
  152.1274  135.5938  156.4455 H   0  0  0  0  0  0  0  0  0  0  0  0
  150.5433  135.5768  157.3794 H   0  0  0  0  0  0  0  0  0  0  0  0
  149.6909  133.0578  153.2812 H   0  0  0  0  0  0  0  0  0  0  0  0
  148.5548  132.5771  154.5466 H   0  0  0  0  0  0  0  0  0  0  0  0
  147.9718  132.9947  151.5958 H   0  0  0  0  0  0  0  0  0  0  0  0
  147.5567  131.5849  152.5719 H   0  0  0  0  0  0  0  0  0  0  0  0
  145.7514  133.6224  152.1131 H   0  0  0  0  0  0  0  0  0  0  0  0
  145.7739  132.7452  153.6390 H   0  0  0  0  0  0  0  0  0  0  0  0
  146.3329  134.6553  154.7234 H   0  0  0  0  0  0  0  0  0  0  0  0
  146.5354  135.5539  153.2200 H   0  0  0  0  0  0  0  0  0  0  0  0
  148.6726  135.0924  153.1062 H   0  0  0  0  0  0  0  0  0  0  0  0
  1  2  1  0  0  0  0
  1 21  1  0  0  0  0
  1 22  1  0  0  0  0
  1 23  1  0  0  0  0
  2  6  1  0  0  0  0
  2  3  1  0  0  0  0
  3  4  2  0  0  0  0
  3 24  1  0  0  0  0
  4  5  1  0  0  0  0
  4 25  1  0  0  0  0
  5  6  2  0  0  0  0
  6  7  1  0  0  0  0
  7  8  1  0  0  0  0
  7 26  1  0  0  0  0
  7 27  1  0  0  0  0
  8  9  1  0  0  0  0
  8 28  1  0  0  0  0
  8 29  1  0  0  0  0
  9 10  1  0  0  0  0
 10 11  2  0  0  0  0
 10 12  1  0  0  0  0
 12 13  1  0  0  0  0
 12 16  1  0  0  0  0
 12 30  1  0  0  0  0
 13 15  1  0  0  0  0
 13 14  1  0  0  0  0
 13 31  1  0  0  0  0
 14 15  1  0  0  0  0
 14 32  1  0  0  0  0
 14 33  1  0  0  0  0
 15 34  1  0  0  0  0
 15 35  1  0  0  0  0
 16 20  1  0  0  0  0
 16 17  1  0  0  0  0
 16 44  1  0  0  0  0
 17 18  1  0  0  0  0
 17 36  1  0  0  0  0
 17 37  1  0  0  0  0
 18 19  1  0  0  0  0
 18 38  1  0  0  0  0
 18 39  1  0  0  0  0
 19 20  1  0  0  0  0
 19 40  1  0  0  0  0
 19 41  1  0  0  0  0
 20 42  1  0  0  0  0
 20 43  1  0  0  0  0
M  CHG  1   9  -1
M  CHG  1  16   1
M  END
> <s_m_source_file>
AV-unprocessed.smi

> <i_m_source_file_index>
2252

> <i_lp_mmshare_version>
43012

> <i_f3d_flags>
0

> <s_epik_input>
W0NIM11uMVtjSF1bY0hdbmMxW0NIMl1bQ0gyXVtOSF1DKD1PKVtDQEhdKFtDSF0yW0NIMl1bQ0gyXTIpTjNbQ0gyXVtDSDJdW0NIMl1bQ0gyXTM=

> <s_epik_cmdline>
J2VwaWtfcHl0aG9uJywgJy1waCcsICc3LjAnLCAnLXRuJywgJzgnLCAnLW1hJywgJzIwMCcsICctbWV0YWxfYmluZGluZycsICctaW1hZScsICc8aW5maWxlLm1hZT4nLCAnLW9tYWUnLCAnPG91dGZpbGUubWFlPic=

> <r_lp_tautomer_probability>
1

> <r_epik_Ionization_Penalty>
7.86289

> <r_epik_Ionization_Penalty_Charging>
7.86289

> <r_epik_Ionization_Penalty_Neutral>
4.79398e-13

> <r_epik_State_Penalty>
7.18546

> <r_epik_Charging_Adjusted_Penalty>
15.0484

> <i_epik_Tot_Q>
0

> <i_epik_Tot_abs_Q>
2

> <r_epik_Metal_State_Penalty>
3.4294

> <b_epik_Metal_Only>
1

> <s_lp_Force_Field>
OPLS_2005

> <r_lp_Energy>
30.1163

> <b_lp_Chiralities_Consistent>
1

> <s_lp_Variant>
AV-unprocessed.smi:2252-10

> <Gold.Version>
5.8.1

> <Gold.Id.Protein>
6NUR|6NUR_protein|mol2

> <Gold.PLP.Fitness>
44.9960

> <Gold.PLP.PLP>
-34.6401

> <Gold.PLP.part.hbond>
-3.0000

> <Gold.PLP.part.metal>
0.0000

> <Gold.PLP.part.buried>
-2.9736

> <Gold.PLP.part.nonpolar>
-28.0252

> <Gold.PLP.part.repulsive>
0.0000

> <Gold.PLP.ligand.clash>
0.0000

> <Gold.PLP.ligand.torsion>
0.9686

> <Gold.PLP.Chemscore.Hbond>
3.6864

> <Gold.PLP.Chemscore.CHOScore>
0.0000

> <Gold.PLP.Chemscore.Metal>
0.0000

> <Gold.Chemscore.Hbonds>
donor molecule, donor type, donor heavy atom, donor atom, acceptor molecule, acceptor atom, score
      L1  H    16    44       P1  7948  2.00
      P1  H  6931  6943       L1     5  1.00
      P1  H  6934  6947       L1     5  0.69

> <Gold.PLP.Chemscore.Internal.Correction>
1.2340

> <Gold.Rescore>
     Score         DG    S(hbond)    S(metal)    S(lipo)     H(rot)  DE(clash)    DE(int)     intcor
     13.91     -16.19       2.39        0.00      64.46       1.88       0.00       2.28       ----

> <Gold.Chemscore.Fitness>
13.9058

> <Gold.Chemscore.DG>
-16.1851

> <Gold.Chemscore.ZeroCoef>
-5.4800

> <Gold.Chemscore.Hbond>
2.3889

> <Gold.Chemscore.Metal>
0.0000

> <Gold.Chemscore.Lipo>
64.4649

> <Gold.Chemscore.Internal_Hbond>
0.0000

> <Gold.Chemscore.DEClash>
0.0000

> <Gold.Chemscore.DEInternal>
2.2793

> <Gold.Chemscore.Rot>
1.8814

> <Gold.Chemscore.Internal.Correction>
   9.000000E+99

> <Gold.Chemscore.Hbonds>
donor molecule, donor type, donor heavy atom, donor atom, acceptor molecule, acceptor atom, score
      L1  H    16    44       P1  7948  0.60
      P1  H  6931  6943       L1     5  0.62
      P1  H  6934  6947       L1     5  0.61

> <Gold.Chemscore.Hbond.Weighted>
-7.9790

> <Gold.Chemscore.Metal.Weighted>
-0.0000

> <Gold.Chemscore.Lipo.Weighted>
-7.5424

> <Gold.Chemscore.Internal_Hbond.Weighted>
0.0000

> <Gold.Chemscore.DEClash.Weighted>
0.0000

> <Gold.Chemscore.DEInternal.Weighted>
2.2793

> <Gold.Chemscore.Rot.Weighted>
4.8163

> <Gold.Chemscore.Internal.Correction.Weighted>
   9.000000E+99

> <Gold.Protein.RotatedTorsions>
[ 6907 6896 6895 6894 ] final   63.71 input  -60.11 | X-H torsion
[ 7974 7965 7964 7962 ] final    4.70 input  175.53 | X-H torsion
[ 8008 7997 7996 7995 ] final -116.44 input   59.86 | X-H torsion
[ 10167 10162 10161 10158 ] final -163.91 input  -65.29 | X-H torsion
[ 10718 10713 10712 10709 ] final -175.84 input   66.30 | X-H torsion
[ 10763 10752 10751 10750 ] final  173.94 input  -60.55 | X-H torsion
[ 11005 11000 10999 10996 ] final  -95.28 input  -57.11 | X-H torsion

> <Gold.Protein.ActiveResidues>
 VAL166  LYS551  ARG553  GLY616  TRP617  ASP618  TYR619  PRO620  LYS621  CYS622 
 ASP623  PHE694  ASN695  SER759  ASP760  ASP761  ALA762  ILE779  LEU786  VAL792 
 PHE793  MET794  SER795  GLU796  ALA797  LYS798  CYS799  TRP800  GLU811  SER814 

> <Gold.Protein.RotatedAtoms>
  152.4275  134.5841  159.9955 H   0  0  0  0  0  0  0  0  0  0  0  0  # atno 6907 bound_to 6896
  151.5974  133.3354  159.3048 H   0  0  0  0  0  0  0  0  0  0  0  0  # atno 6908 bound_to 6896
  150.8165  134.7386  159.6800 H   0  0  0  0  0  0  0  0  0  0  0  0  # atno 6909 bound_to 6896
  146.2443  140.0495  142.8376 H   0  0  0  0  0  0  0  0  0  0  0  0  # atno 7974 bound_to 7965
  155.0679  140.0393  157.2599 H   0  0  0  0  0  0  0  0  0  0  0  0  # atno 8008 bound_to 7997
  154.7006  140.2672  155.6699 H   0  0  0  0  0  0  0  0  0  0  0  0  # atno 8009 bound_to 7997
  156.2759  140.2741  156.1615 H   0  0  0  0  0  0  0  0  0  0  0  0  # atno 8010 bound_to 7997
  139.6288  144.0480  152.1998 H   0  0  0  0  0  0  0  0  0  0  0  0  # atno 10167 bound_to 10162
  156.8058  130.9568  151.3117 H   0  0  0  0  0  0  0  0  0  0  0  0  # atno 10718 bound_to 10713
  154.4471  135.2763  155.1807 H   0  0  0  0  0  0  0  0  0  0  0  0  # atno 10763 bound_to 10752
  154.3650  135.6121  153.5714 H   0  0  0  0  0  0  0  0  0  0  0  0  # atno 10764 bound_to 10752
  152.9844  135.5843  154.4808 H   0  0  0  0  0  0  0  0  0  0  0  0  # atno 10765 bound_to 10752
  141.1446  133.8015  157.0413 H   0  0  0  0  0  0  0  0  0  0  0  0  # atno 11005 bound_to 11000
  145.0997  140.9338  143.4720 LP  0  0  0  0  0  0  0  0  0  0  0  0  # atno 17320 bound_to 7965
  145.0685  139.3050  143.5844 LP  0  0  0  0  0  0  0  0  0  0  0  0  # atno 17321 bound_to 7965
  140.0141  144.6202  150.7622 LP  0  0  0  0  0  0  0  0  0  0  0  0  # atno 17342 bound_to 10162
  140.7427  143.2835  151.3530 LP  0  0  0  0  0  0  0  0  0  0  0  0  # atno 17343 bound_to 10162
  157.6531  130.8901  149.9673 LP  0  0  0  0  0  0  0  0  0  0  0  0  # atno 17370 bound_to 10713
  156.1074  130.3652  150.0110 LP  0  0  0  0  0  0  0  0  0  0  0  0  # atno 17371 bound_to 10713
  140.0691  134.9712  157.1436 LP  0  0  0  0  0  0  0  0  0  0  0  0  # atno 17394 bound_to 11000
  140.3737  134.2362  155.7176 LP  0  0  0  0  0  0  0  0  0  0  0  0  # atno 17395 bound_to 11000

$$$$
