AV-unprocessed.smi:1224|AV-procd|sdf|5131|dock2
  -GOLD-   22720 4193D 1   1.00000     0.00000
 Structure written by MMmdl.
 45 47  0  0  0  0  0  0  0  0  3 V2000
  152.1772  144.2186  160.2459 C   0  0  0  0  0  0  0  0  0  0  0  0
  151.9353  143.1303  159.2138 C   0  0  0  0  0  0  0  0  0  0  0  0
  151.0606  143.4033  158.1378 C   0  0  0  0  0  0  0  0  0  0  0  0
  150.8609  142.3884  157.2095 C   0  0  0  0  0  0  0  0  0  0  0  0
  150.0756  142.3443  156.0554 N   0  3  0  0  0  0  0  0  0  0  0  0
  150.2036  141.1239  155.4645 C   0  0  0  0  0  0  0  0  0  0  0  0
  151.0573  140.3868  156.2267 N   0  0  0  0  0  0  0  0  0  0  0  0
  151.5386  139.0102  156.0479 C   0  0  0  0  0  0  0  0  0  0  0  0
  151.0160  138.3571  154.7529 C   0  0  1  0  0  0  0  0  0  0  0  0
  151.9680  137.4182  154.2898 O   0  0  0  0  0  0  0  0  0  0  0  0
  149.6734  137.6415  154.9712 C   0  0  0  0  0  0  0  0  0  0  0  0
  149.7342  136.2350  154.5183 N   0  3  0  0  0  0  0  0  0  0  0  0
  148.8428  135.3065  155.2438 C   0  0  0  0  0  0  0  0  0  0  0  0
  149.0167  133.8877  154.8082 C   0  0  0  0  0  0  0  0  0  0  0  0
  149.6988  132.8884  155.4552 C   0  0  0  0  0  0  0  0  0  0  0  0
  149.6741  131.6479  154.7530 C   0  0  0  0  0  0  0  0  0  0  0  0
  148.9721  131.7165  153.5791 C   0  0  0  0  0  0  0  0  0  0  0  0
  148.3271  133.3124  153.3111 S   0  0  0  0  0  0  0  0  0  0  0  0
  151.4941  141.1358  157.3246 C   0  0  0  0  0  0  0  0  0  0  0  0
  152.3572  140.8491  158.3792 C   0  0  0  0  0  0  0  0  0  0  0  0
  152.5761  141.8697  159.3321 C   0  0  0  0  0  0  0  0  0  0  0  0
  153.5182  141.5886  160.4905 C   0  0  0  0  0  0  0  0  0  0  0  0
  151.6200  145.1253  160.0078 H   0  0  0  0  0  0  0  0  0  0  0  0
  153.2349  144.4795  160.2876 H   0  0  0  0  0  0  0  0  0  0  0  0
  151.8632  143.8847  161.2351 H   0  0  0  0  0  0  0  0  0  0  0  0
  150.5698  144.3609  158.0407 H   0  0  0  0  0  0  0  0  0  0  0  0
  149.7139  140.7999  154.5575 H   0  0  0  0  0  0  0  0  0  0  0  0
  152.6291  139.0413  156.0457 H   0  0  0  0  0  0  0  0  0  0  0  0
  151.2493  138.4287  156.9242 H   0  0  0  0  0  0  0  0  0  0  0  0
  150.8945  139.1250  153.9878 H   0  0  0  0  0  0  0  0  0  0  0  0
  152.5776  137.8601  153.7179 H   0  0  0  0  0  0  0  0  0  0  0  0
  149.3876  137.6897  156.0228 H   0  0  0  0  0  0  0  0  0  0  0  0
  148.8920  138.1501  154.4051 H   0  0  0  0  0  0  0  0  0  0  0  0
  149.4833  136.2097  153.5404 H   0  0  0  0  0  0  0  0  0  0  0  0
  149.0138  135.4000  156.3169 H   0  0  0  0  0  0  0  0  0  0  0  0
  147.8126  135.6167  155.0671 H   0  0  0  0  0  0  0  0  0  0  0  0
  150.2115  133.0032  156.3989 H   0  0  0  0  0  0  0  0  0  0  0  0
  150.1641  130.7617  155.1287 H   0  0  0  0  0  0  0  0  0  0  0  0
  148.7943  130.9306  152.8596 H   0  0  0  0  0  0  0  0  0  0  0  0
  152.8444  139.8898  158.4699 H   0  0  0  0  0  0  0  0  0  0  0  0
  153.9289  140.5800  160.4358 H   0  0  0  0  0  0  0  0  0  0  0  0
  152.9953  141.6844  161.4423 H   0  0  0  0  0  0  0  0  0  0  0  0
  154.3541  142.2884  160.4821 H   0  0  0  0  0  0  0  0  0  0  0  0
  150.6854  135.9075  154.6123 H   0  0  0  0  0  0  0  0  0  0  0  0
  149.4955  143.0911  155.6946 H   0  0  0  0  0  0  0  0  0  0  0  0
  1  2  1  0  0  0  0
  1 23  1  0  0  0  0
  1 24  1  0  0  0  0
  1 25  1  0  0  0  0
  2 21  1  0  0  0  0
  2  3  2  0  0  0  0
  3  4  1  0  0  0  0
  3 26  1  0  0  0  0
  4 19  2  0  0  0  0
  4  5  1  0  0  0  0
  5  6  2  0  0  0  0
  5 45  1  0  0  0  0
  6  7  1  0  0  0  0
  6 27  1  0  0  0  0
  7  8  1  0  0  0  0
  7 19  1  0  0  0  0
  8  9  1  0  0  0  0
  8 28  1  0  0  0  0
  8 29  1  0  0  0  0
  9 10  1  0  0  0  0
  9 11  1  0  0  0  0
  9 30  1  0  0  0  0
 10 31  1  0  0  0  0
 11 12  1  0  0  0  0
 11 32  1  0  0  0  0
 11 33  1  0  0  0  0
 12 13  1  0  0  0  0
 12 34  1  0  0  0  0
 12 44  1  0  0  0  0
 13 14  1  0  0  0  0
 13 35  1  0  0  0  0
 13 36  1  0  0  0  0
 14 18  1  0  0  0  0
 14 15  2  0  0  0  0
 15 16  1  0  0  0  0
 15 37  1  0  0  0  0
 16 17  2  0  0  0  0
 16 38  1  0  0  0  0
 17 18  1  0  0  0  0
 17 39  1  0  0  0  0
 19 20  1  0  0  0  0
 20 21  2  0  0  0  0
 20 40  1  0  0  0  0
 21 22  1  0  0  0  0
 22 41  1  0  0  0  0
 22 42  1  0  0  0  0
 22 43  1  0  0  0  0
M  CHG  1   5   1
M  CHG  1  12   1
M  END
> <s_m_source_file>
AV-unprocessed.smi

> <i_m_source_file_index>
1224

> <i_lp_mmshare_version>
43012

> <i_f3d_flags>
0

> <s_epik_input>
W0NIM11jKFtjSF0xKWMoW0NIM10pW2NIXWMoYzEyKW4oW2NIXW4yKVtDSDJdW0NASF0oW09IXSlbQ0gyXVtOSF1bQ0gyXWMzW2NIXVtjSF1bY0hdczM=

> <s_epik_cmdline>
J2VwaWtfcHl0aG9uJywgJy1waCcsICc3LjAnLCAnLXRuJywgJzgnLCAnLW1hJywgJzIwMCcsICctbWV0YWxfYmluZGluZycsICctaW1hZScsICc8aW5maWxlLm1hZT4nLCAnLW9tYWUnLCAnPG91dGZpbGUubWFlPic=

> <r_epik_Ionization_Penalty>
1.2222

> <r_epik_Ionization_Penalty_Charging>
1.2222

> <r_epik_Ionization_Penalty_Neutral>
3.40394e-06

> <r_epik_State_Penalty>
1.23781

> <r_epik_Charging_Adjusted_Penalty>
2.46001

> <i_epik_Tot_Q>
2

> <i_epik_Tot_abs_Q>
2

> <r_epik_Metal_State_Penalty>
5.24642

> <b_epik_Metal_Only>
0

> <s_lp_Force_Field>
OPLS_2005

> <r_lp_Energy>
17.2404

> <b_lp_Chiralities_Consistent>
1

> <s_lp_Variant>
AV-unprocessed.smi:1224-4

> <Gold.Version>
5.8.1

> <Gold.Id.Protein>
6NUR|6NUR_protein|mol2

> <Gold.PLP.Fitness>
65.1039

> <Gold.PLP.PLP>
-50.3296

> <Gold.PLP.part.hbond>
-3.6920

> <Gold.PLP.part.metal>
0.0000

> <Gold.PLP.part.buried>
-5.3373

> <Gold.PLP.part.nonpolar>
-40.9287

> <Gold.PLP.part.repulsive>
0.1707

> <Gold.PLP.ligand.clash>
0.0000

> <Gold.PLP.ligand.torsion>
1.5320

> <Gold.PLP.Chemscore.Hbond>
4.8960

> <Gold.PLP.Chemscore.CHOScore>
1.0000

> <Gold.PLP.Chemscore.Metal>
0.0000

> <Gold.Chemscore.Hbonds>
donor molecule, donor type, donor heavy atom, donor atom, acceptor molecule, acceptor atom, score
      L1  H     5    45       P1  8028  2.00
      L1  H    12    34       P1  7948  2.00
      P1  H 10752 10765       L1    10  0.66
      L1  C    17    39       P1 10747  0.92

> <Gold.PLP.Chemscore.Internal.Correction>
0.1503

> <Gold.Rescore>
     Score         DG    S(hbond)    S(metal)    S(lipo)     H(rot)  DE(clash)    DE(int)     intcor
     19.42     -20.95       2.08        0.00     127.58       2.50       0.14       1.39       ----

> <Gold.Chemscore.Fitness>
19.4214

> <Gold.Chemscore.DG>
-20.9506

> <Gold.Chemscore.ZeroCoef>
-5.4800

> <Gold.Chemscore.Hbond>
2.0823

> <Gold.Chemscore.Metal>
0.0000

> <Gold.Chemscore.Lipo>
127.5787

> <Gold.Chemscore.Internal_Hbond>
0.0000

> <Gold.Chemscore.DEClash>
0.1430

> <Gold.Chemscore.DEInternal>
1.3863

> <Gold.Chemscore.Rot>
2.5042

> <Gold.Chemscore.Internal.Correction>
   9.000000E+99

> <Gold.Chemscore.Hbonds>
donor molecule, donor type, donor heavy atom, donor atom, acceptor molecule, acceptor atom, score
      L1  H     5    45       P1  8028  0.98
      L1  H    12    34       P1  7948  0.60
      P1  H 10752 10765       L1    10  0.06

> <Gold.Chemscore.Hbond.Weighted>
-6.9547

> <Gold.Chemscore.Metal.Weighted>
-0.0000

> <Gold.Chemscore.Lipo.Weighted>
-14.9267

> <Gold.Chemscore.Internal_Hbond.Weighted>
0.0000

> <Gold.Chemscore.DEClash.Weighted>
0.1430

> <Gold.Chemscore.DEInternal.Weighted>
1.3863

> <Gold.Chemscore.Rot.Weighted>
6.4108

> <Gold.Chemscore.Internal.Correction.Weighted>
   9.000000E+99

> <Gold.Protein.RotatedTorsions>
[ 6907 6896 6895 6894 ] final -127.33 input  -60.11 | X-H torsion
[ 7974 7965 7964 7962 ] final  -42.96 input  175.53 | X-H torsion
[ 8008 7997 7996 7995 ] final   99.40 input   59.86 | X-H torsion
[ 10167 10162 10161 10158 ] final  126.67 input  -65.29 | X-H torsion
[ 10718 10713 10712 10709 ] final   56.40 input   66.30 | X-H torsion
[ 10763 10752 10751 10750 ] final  158.39 input  -60.55 | X-H torsion
[ 11005 11000 10999 10996 ] final   21.41 input  -57.11 | X-H torsion

> <Gold.Protein.ActiveResidues>
 VAL166  LYS551  ARG553  GLY616  TRP617  ASP618  TYR619  PRO620  LYS621  CYS622 
 ASP623  PHE694  ASN695  SER759  ASP760  ASP761  ALA762  ILE779  LEU786  VAL792 
 PHE793  MET794  SER795  GLU796  ALA797  LYS798  CYS799  TRP800  GLU811  SER814 

> <Gold.Protein.RotatedAtoms>
  150.9062  133.7055  159.2866 H   0  0  0  0  0  0  0  0  0  0  0  0  # atno 6907 bound_to 6896
  151.4557  135.1032  159.9720 H   0  0  0  0  0  0  0  0  0  0  0  0  # atno 6908 bound_to 6896
  152.4904  133.8437  159.7221 H   0  0  0  0  0  0  0  0  0  0  0  0  # atno 6909 bound_to 6896
  146.0065  140.7014  142.9245 H   0  0  0  0  0  0  0  0  0  0  0  0  # atno 7974 bound_to 7965
  156.1101  140.3229  155.8061 H   0  0  0  0  0  0  0  0  0  0  0  0  # atno 8008 bound_to 7997
  155.4687  140.0545  157.2999 H   0  0  0  0  0  0  0  0  0  0  0  0  # atno 8009 bound_to 7997
  154.4754  140.2030  155.9905 H   0  0  0  0  0  0  0  0  0  0  0  0  # atno 8010 bound_to 7997
  139.5619  144.6887  151.4019 H   0  0  0  0  0  0  0  0  0  0  0  0  # atno 10167 bound_to 10162
  157.5428  130.8709  149.8846 H   0  0  0  0  0  0  0  0  0  0  0  0  # atno 10718 bound_to 10713
  154.2154  135.2784  155.2944 H   0  0  0  0  0  0  0  0  0  0  0  0  # atno 10763 bound_to 10752
  154.5745  135.5608  153.7130 H   0  0  0  0  0  0  0  0  0  0  0  0  # atno 10764 bound_to 10752
  153.0054  135.6329  154.2293 H   0  0  0  0  0  0  0  0  0  0  0  0  # atno 10765 bound_to 10752
  140.3919  134.1810  155.7662 H   0  0  0  0  0  0  0  0  0  0  0  0  # atno 11005 bound_to 11000
  144.6937  140.3324  143.7213 LP  0  0  0  0  0  0  0  0  0  0  0  0  # atno 17320 bound_to 7965
  145.7408  139.1763  143.2377 LP  0  0  0  0  0  0  0  0  0  0  0  0  # atno 17321 bound_to 7965
  140.6899  143.7885  150.7240 LP  0  0  0  0  0  0  0  0  0  0  0  0  # atno 17342 bound_to 10162
  140.1365  143.4479  152.2221 LP  0  0  0  0  0  0  0  0  0  0  0  0  # atno 17343 bound_to 10162
  156.0510  130.3717  150.1201 LP  0  0  0  0  0  0  0  0  0  0  0  0  # atno 17370 bound_to 10713
  156.9379  130.9735  151.3521 LP  0  0  0  0  0  0  0  0  0  0  0  0  # atno 17371 bound_to 10713
  141.1888  133.8253  157.0982 LP  0  0  0  0  0  0  0  0  0  0  0  0  # atno 17394 bound_to 11000
  140.0400  134.9859  157.0944 LP  0  0  0  0  0  0  0  0  0  0  0  0  # atno 17395 bound_to 11000

$$$$
