AV-unprocessed.smi:2999|AV-procd|sdf|11420|dock9
  -GOLD-   2272016343D 1   1.00000     0.00000
 Structure written by MMmdl.
 38 40  0  0  0  0  0  0  0  0  2 V2000
  144.9149  137.9382  152.6175 O   0  0  0  0  0  0  0  0  0  0  0  0
  146.0711  137.5893  152.3791 C   0  0  0  0  0  0  0  0  0  0  0  0
  147.1221  138.4186  152.4481 N   0  0  0  0  0  0  0  0  0  0  0  0
  147.0563  139.8332  152.8059 C   0  0  0  0  0  0  0  0  0  0  0  0
  147.6822  140.1439  154.1812 C   0  0  1  0  0  0  0  0  0  0  0  0
  148.1284  141.6160  154.3422 C   0  0  0  0  0  0  0  0  0  0  0  0
  148.6748  141.8719  155.6958 N   0  3  2  0  0  0  0  0  0  0  0  0
  150.0527  141.3608  155.8829 C   0  0  0  0  0  0  0  0  0  0  0  0
  150.4747  141.2831  157.3312 C   0  0  0  0  0  0  0  0  0  0  0  0
  151.0082  142.3871  156.4455 C   0  0  0  0  0  0  0  0  0  0  0  0
  147.7307  141.4161  156.7434 C   0  0  0  0  0  0  0  0  0  0  0  0
  147.2989  139.9565  156.5117 C   0  0  0  0  0  0  0  0  0  0  0  0
  146.7494  139.8199  155.2074 O   0  0  0  0  0  0  0  0  0  0  0  0
  146.4515  136.3517  152.0170 N   0  0  0  0  0  0  0  0  0  0  0  0
  145.6373  135.2044  151.8264 C   0  0  0  0  0  0  0  0  0  0  0  0
  144.3037  135.2346  151.7213 N   0  0  0  0  0  0  0  0  0  0  0  0
  143.7636  133.9591  151.5382 C   0  0  0  0  0  0  0  0  0  0  0  0
  144.7075  132.9631  151.5044 C   0  0  0  0  0  0  0  0  0  0  0  0
  146.3218  133.5905  151.7033 S   0  0  0  0  0  0  0  0  0  0  0  0
  148.0365  138.0438  152.2418 H   0  0  0  0  0  0  0  0  0  0  0  0
  147.5197  140.4450  152.0302 H   0  0  0  0  0  0  0  0  0  0  0  0
  146.0028  140.1133  152.8210 H   0  0  0  0  0  0  0  0  0  0  0  0
  148.5476  139.4889  154.2926 H   0  0  0  0  0  0  0  0  0  0  0  0
  148.8633  141.8833  153.5821 H   0  0  0  0  0  0  0  0  0  0  0  0
  147.2783  142.2841  154.2000 H   0  0  0  0  0  0  0  0  0  0  0  0
  150.4047  140.6182  155.1696 H   0  0  0  0  0  0  0  0  0  0  0  0
  149.7489  141.5580  158.0947 H   0  0  0  0  0  0  0  0  0  0  0  0
  151.1660  140.4907  157.6109 H   0  0  0  0  0  0  0  0  0  0  0  0
  152.0510  142.3215  156.1413 H   0  0  0  0  0  0  0  0  0  0  0  0
  150.6384  143.3954  156.6226 H   0  0  0  0  0  0  0  0  0  0  0  0
  148.1751  141.5362  157.7320 H   0  0  0  0  0  0  0  0  0  0  0  0
  146.8515  142.0612  156.7178 H   0  0  0  0  0  0  0  0  0  0  0  0
  148.1352  139.2685  156.6421 H   0  0  0  0  0  0  0  0  0  0  0  0
  146.5415  139.6712  157.2422 H   0  0  0  0  0  0  0  0  0  0  0  0
  147.4384  136.2125  151.8592 H   0  0  0  0  0  0  0  0  0  0  0  0
  142.6936  133.8512  151.4402 H   0  0  0  0  0  0  0  0  0  0  0  0
  144.5510  131.9025  151.3749 H   0  0  0  0  0  0  0  0  0  0  0  0
  148.7464  142.8748  155.7915 H   0  0  0  0  0  0  0  0  0  0  0  0
  1  2  2  0  0  0  0
  2  3  1  0  0  0  0
  2 14  1  0  0  0  0
  3  4  1  0  0  0  0
  3 20  1  0  0  0  0
  4  5  1  0  0  0  0
  4 21  1  0  0  0  0
  4 22  1  0  0  0  0
  5 13  1  0  0  0  0
  5  6  1  0  0  0  0
  5 23  1  0  0  0  0
  6  7  1  0  0  0  0
  6 24  1  0  0  0  0
  6 25  1  0  0  0  0
  7  8  1  0  0  0  0
  7 11  1  0  0  0  0
  7 38  1  0  0  0  0
  8 10  1  0  0  0  0
  8  9  1  0  0  0  0
  8 26  1  0  0  0  0
  9 10  1  0  0  0  0
  9 27  1  0  0  0  0
  9 28  1  0  0  0  0
 10 29  1  0  0  0  0
 10 30  1  0  0  0  0
 11 12  1  0  0  0  0
 11 31  1  0  0  0  0
 11 32  1  0  0  0  0
 12 13  1  0  0  0  0
 12 33  1  0  0  0  0
 12 34  1  0  0  0  0
 14 15  1  0  0  0  0
 14 35  1  0  0  0  0
 15 19  1  0  0  0  0
 15 16  2  0  0  0  0
 16 17  1  0  0  0  0
 17 18  2  0  0  0  0
 17 36  1  0  0  0  0
 18 19  1  0  0  0  0
 18 37  1  0  0  0  0
M  CHG  1   7   1
M  END
> <s_m_source_file>
AV-unprocessed.smi

> <i_m_source_file_index>
2999

> <i_lp_mmshare_version>
43012

> <i_f3d_flags>
0

> <s_epik_input>
czFbY0hdW2NIXW5jMVtOSF1DKD1PKVtOSF1bQ0gyXVtDQEBIXTJbQ0gyXU4oW0NIMl1bQ0gyXU8yKVtDSF0zW0NIMl1bQ0gyXTM=

> <s_epik_cmdline>
J2VwaWtfcHl0aG9uJywgJy1waCcsICc3LjAnLCAnLXRuJywgJzgnLCAnLW1hJywgJzIwMCcsICctbWV0YWxfYmluZGluZycsICctaW1hZScsICc8aW5maWxlLm1hZT4nLCAnLW9tYWUnLCAnPG91dGZpbGUubWFlPic=

> <r_lp_tautomer_probability>
0.999

> <r_epik_Ionization_Penalty>
1.55235

> <r_epik_Ionization_Penalty_Charging>
1.55221

> <r_epik_Ionization_Penalty_Neutral>
0.000139685

> <r_epik_State_Penalty>
1.64652

> <r_epik_Charging_Adjusted_Penalty>
3.19873

> <i_epik_Tot_Q>
1

> <i_epik_Tot_abs_Q>
1

> <r_epik_Metal_State_Penalty>
1.68612

> <b_epik_Metal_Only>
0

> <s_lp_Force_Field>
OPLS_2005

> <r_lp_Energy>
24.3861

> <b_lp_Chiralities_Consistent>
1

> <s_lp_Variant>
AV-unprocessed.smi:2999-4

> <Gold.Version>
5.8.1

> <Gold.Id.Protein>
6NUR|6NUR_protein|mol2

> <Gold.PLP.Fitness>
40.3709

> <Gold.PLP.PLP>
-26.9066

> <Gold.PLP.part.hbond>
-3.2644

> <Gold.PLP.part.metal>
0.0000

> <Gold.PLP.part.buried>
-5.2891

> <Gold.PLP.part.nonpolar>
-21.8159

> <Gold.PLP.part.repulsive>
3.1911

> <Gold.PLP.ligand.clash>
0.0000

> <Gold.PLP.ligand.torsion>
1.1408

> <Gold.PLP.Chemscore.Hbond>
3.8230

> <Gold.PLP.Chemscore.CHOScore>
1.0000

> <Gold.PLP.Chemscore.Metal>
0.0000

> <Gold.Chemscore.Hbonds>
donor molecule, donor type, donor heavy atom, donor atom, acceptor molecule, acceptor atom, score
      L1  H     3    20       P1  7948  0.80
      L1  H     7    38       P1  8028  2.00
      L1  H    14    35       P1  7948  0.89
      L1  C    17    36       P1 10186  0.87

> <Gold.PLP.Chemscore.Internal.Correction>
1.2768

> <Gold.Rescore>
     Score         DG    S(hbond)    S(metal)    S(lipo)     H(rot)  DE(clash)    DE(int)     intcor
     14.36     -18.38       2.92        0.00      61.56       1.58       1.70       2.32       ----

> <Gold.Chemscore.Fitness>
14.3637

> <Gold.Chemscore.DG>
-18.3845

> <Gold.Chemscore.ZeroCoef>
-5.4800

> <Gold.Chemscore.Hbond>
2.9178

> <Gold.Chemscore.Metal>
0.0000

> <Gold.Chemscore.Lipo>
61.5604

> <Gold.Chemscore.Internal_Hbond>
0.0000

> <Gold.Chemscore.DEClash>
1.7023

> <Gold.Chemscore.DEInternal>
2.3185

> <Gold.Chemscore.Rot>
1.5795

> <Gold.Chemscore.Internal.Correction>
   9.000000E+99

> <Gold.Chemscore.Hbonds>
donor molecule, donor type, donor heavy atom, donor atom, acceptor molecule, acceptor atom, score
      L1  H     3    20       P1  7948  0.75
      L1  H     7    38       P1  8028  1.00
      L1  H    14    35       P1  7948  0.87

> <Gold.Chemscore.Hbond.Weighted>
-9.7454

> <Gold.Chemscore.Metal.Weighted>
-0.0000

> <Gold.Chemscore.Lipo.Weighted>
-7.2026

> <Gold.Chemscore.Internal_Hbond.Weighted>
0.0000

> <Gold.Chemscore.DEClash.Weighted>
1.7023

> <Gold.Chemscore.DEInternal.Weighted>
2.3185

> <Gold.Chemscore.Rot.Weighted>
4.0434

> <Gold.Chemscore.Internal.Correction.Weighted>
   9.000000E+99

> <Gold.Protein.RotatedTorsions>
[ 6907 6896 6895 6894 ] final  110.71 input  -60.11 | X-H torsion
[ 7974 7965 7964 7962 ] final  -88.06 input  175.53 | X-H torsion
[ 8008 7997 7996 7995 ] final  127.14 input   59.86 | X-H torsion
[ 10167 10162 10161 10158 ] final  -59.14 input  -65.29 | X-H torsion
[ 10718 10713 10712 10709 ] final -103.91 input   66.30 | X-H torsion
[ 10763 10752 10751 10750 ] final   73.94 input  -60.55 | X-H torsion
[ 11005 11000 10999 10996 ] final -117.34 input  -57.11 | X-H torsion

> <Gold.Protein.ActiveResidues>
 VAL166  LYS551  ARG553  GLY616  TRP617  ASP618  TYR619  PRO620  LYS621  CYS622 
 ASP623  PHE694  ASN695  SER759  ASP760  ASP761  ALA762  ILE779  LEU786  VAL792 
 PHE793  MET794  SER795  GLU796  ALA797  LYS798  CYS799  TRP800  GLU811  SER814 

> <Gold.Protein.RotatedAtoms>
  152.5006  133.8762  159.7322 H   0  0  0  0  0  0  0  0  0  0  0  0  # atno 6907 bound_to 6896
  150.9236  133.6842  159.2833 H   0  0  0  0  0  0  0  0  0  0  0  0  # atno 6908 bound_to 6896
  151.4211  135.1002  159.9666 H   0  0  0  0  0  0  0  0  0  0  0  0  # atno 6909 bound_to 6896
  145.4581  140.9561  143.1984 H   0  0  0  0  0  0  0  0  0  0  0  0  # atno 7974 bound_to 7965
  156.2883  140.2676  156.2224 H   0  0  0  0  0  0  0  0  0  0  0  0  # atno 8008 bound_to 7997
  155.0154  140.0387  157.2434 H   0  0  0  0  0  0  0  0  0  0  0  0  # atno 8009 bound_to 7997
  154.7481  140.2738  155.6320 H   0  0  0  0  0  0  0  0  0  0  0  0  # atno 8010 bound_to 7997
  140.6154  143.2400  151.5610 H   0  0  0  0  0  0  0  0  0  0  0  0  # atno 10167 bound_to 10162
  156.0284  130.5490  150.7321 H   0  0  0  0  0  0  0  0  0  0  0  0  # atno 10718 bound_to 10713
  153.0554  135.5044  154.7969 H   0  0  0  0  0  0  0  0  0  0  0  0  # atno 10763 bound_to 10752
  154.6799  135.2966  154.9630 H   0  0  0  0  0  0  0  0  0  0  0  0  # atno 10764 bound_to 10752
  154.0420  135.6715  153.4843 H   0  0  0  0  0  0  0  0  0  0  0  0  # atno 10765 bound_to 10752
  141.0361  133.9907  157.3068 H   0  0  0  0  0  0  0  0  0  0  0  0  # atno 11005 bound_to 11000
  144.8019  139.6124  143.7068 LP  0  0  0  0  0  0  0  0  0  0  0  0  # atno 17320 bound_to 7965
  146.2466  139.6111  142.9455 LP  0  0  0  0  0  0  0  0  0  0  0  0  # atno 17321 bound_to 7965
  139.5394  144.2689  152.1320 LP  0  0  0  0  0  0  0  0  0  0  0  0  # atno 17342 bound_to 10162
  140.1897  144.4763  150.6485 LP  0  0  0  0  0  0  0  0  0  0  0  0  # atno 17343 bound_to 10162
  157.4911  131.0911  151.0425 LP  0  0  0  0  0  0  0  0  0  0  0  0  # atno 17370 bound_to 10713
  157.0832  130.5911  149.5424 LP  0  0  0  0  0  0  0  0  0  0  0  0  # atno 17371 bound_to 10713
  139.9242  135.0201  156.8173 LP  0  0  0  0  0  0  0  0  0  0  0  0  # atno 17394 bound_to 11000
  140.6319  133.9897  155.7666 LP  0  0  0  0  0  0  0  0  0  0  0  0  # atno 17395 bound_to 11000

$$$$
