AV-unprocessed.smi:3023|AV-procd|sdf|11502|dock4
  -GOLD-   2272016433D 1   1.00000     0.00000
 Structure written by MMmdl.
 43 44  0  0  0  0  0  0  0  0  2 V2000
  144.4974  138.2970  154.3341 C   0  0  0  0  0  0  0  0  0  0  0  0
  145.5119  139.3446  154.0793 N   0  3  1  0  0  0  0  0  0  0  0  0
  145.7879  140.1568  155.2959 C   0  0  0  0  0  0  0  0  0  0  0  0
  146.0278  141.6510  154.9868 C   0  0  0  0  0  0  0  0  0  0  0  0
  146.9849  141.9461  153.8146 C   0  0  0  0  0  0  0  0  0  0  0  0
  148.0154  140.9054  153.6786 N   0  0  0  0  0  0  0  0  0  0  0  0
  149.1662  140.8433  154.3955 C   0  0  0  0  0  0  0  0  0  0  0  0
  150.0459  140.0092  154.1793 O   0  0  0  0  0  0  0  0  0  0  0  0
  149.2765  141.7785  155.3564 N   0  0  0  0  0  0  0  0  0  0  0  0
  150.4423  141.9941  156.2108 C   0  0  0  0  0  0  0  0  0  0  0  0
  150.0464  142.1500  157.6908 C   0  0  0  0  0  0  0  0  0  0  0  0
  150.9369  143.1100  158.4349 C   0  0  0  0  0  0  0  0  0  0  0  0
  152.3000  142.9304  158.8072 C   0  0  0  0  0  0  0  0  0  0  0  0
  152.8058  143.9827  159.4293 N   0  0  0  0  0  0  0  0  0  0  0  0
  151.7864  144.8642  159.4819 N   0  0  0  0  0  0  0  0  0  0  0  0
  151.9896  146.1560  160.1016 C   0  0  0  0  0  0  0  0  0  0  0  0
  150.6458  144.3642  158.8928 C   0  0  0  0  0  0  0  0  0  0  0  0
  147.6264  139.8274  152.7602 C   0  0  0  0  0  0  0  0  0  0  0  0
  146.7399  138.7738  153.4549 C   0  0  0  0  0  0  0  0  0  0  0  0
  144.8571  137.5765  155.0698 H   0  0  0  0  0  0  0  0  0  0  0  0
  144.2550  137.7588  153.4172 H   0  0  0  0  0  0  0  0  0  0  0  0
  143.5717  138.7370  154.7068 H   0  0  0  0  0  0  0  0  0  0  0  0
  144.9442  140.1000  155.9854 H   0  0  0  0  0  0  0  0  0  0  0  0
  146.6334  139.7347  155.8413 H   0  0  0  0  0  0  0  0  0  0  0  0
  145.0739  142.1407  154.7875 H   0  0  0  0  0  0  0  0  0  0  0  0
  146.4161  142.1231  155.8900 H   0  0  0  0  0  0  0  0  0  0  0  0
  146.3978  142.0100  152.8978 H   0  0  0  0  0  0  0  0  0  0  0  0
  147.4232  142.9400  153.9178 H   0  0  0  0  0  0  0  0  0  0  0  0
  148.5085  142.4234  155.4718 H   0  0  0  0  0  0  0  0  0  0  0  0
  151.1127  141.1418  156.0988 H   0  0  0  0  0  0  0  0  0  0  0  0
  151.0084  142.8682  155.8850 H   0  0  0  0  0  0  0  0  0  0  0  0
  149.0082  142.4796  157.7430 H   0  0  0  0  0  0  0  0  0  0  0  0
  150.0631  141.1684  158.1655 H   0  0  0  0  0  0  0  0  0  0  0  0
  152.9360  142.0753  158.6325 H   0  0  0  0  0  0  0  0  0  0  0  0
  151.0273  146.6259  160.3076 H   0  0  0  0  0  0  0  0  0  0  0  0
  152.5632  146.7977  159.4322 H   0  0  0  0  0  0  0  0  0  0  0  0
  152.5328  146.0394  161.0401 H   0  0  0  0  0  0  0  0  0  0  0  0
  149.7333  144.9394  158.8389 H   0  0  0  0  0  0  0  0  0  0  0  0
  147.1003  140.2344  151.8959 H   0  0  0  0  0  0  0  0  0  0  0  0
  148.5054  139.3394  152.3355 H   0  0  0  0  0  0  0  0  0  0  0  0
  147.3140  138.2266  154.2046 H   0  0  0  0  0  0  0  0  0  0  0  0
  146.4510  138.0386  152.7028 H   0  0  0  0  0  0  0  0  0  0  0  0
  145.0955  139.9654  153.3999 H   0  0  0  0  0  0  0  0  0  0  0  0
  1  2  1  0  0  0  0
  1 20  1  0  0  0  0
  1 21  1  0  0  0  0
  1 22  1  0  0  0  0
  2 19  1  0  0  0  0
  2  3  1  0  0  0  0
  2 43  1  0  0  0  0
  3  4  1  0  0  0  0
  3 23  1  0  0  0  0
  3 24  1  0  0  0  0
  4  5  1  0  0  0  0
  4 25  1  0  0  0  0
  4 26  1  0  0  0  0
  5  6  1  0  0  0  0
  5 27  1  0  0  0  0
  5 28  1  0  0  0  0
  6  7  1  0  0  0  0
  6 18  1  0  0  0  0
  7  8  2  0  0  0  0
  7  9  1  0  0  0  0
  9 10  1  0  0  0  0
  9 29  1  0  0  0  0
 10 11  1  0  0  0  0
 10 30  1  0  0  0  0
 10 31  1  0  0  0  0
 11 12  1  0  0  0  0
 11 32  1  0  0  0  0
 11 33  1  0  0  0  0
 12 17  2  0  0  0  0
 12 13  1  0  0  0  0
 13 14  2  0  0  0  0
 13 34  1  0  0  0  0
 14 15  1  0  0  0  0
 15 16  1  0  0  0  0
 15 17  1  0  0  0  0
 16 35  1  0  0  0  0
 16 36  1  0  0  0  0
 16 37  1  0  0  0  0
 17 38  1  0  0  0  0
 18 19  1  0  0  0  0
 18 39  1  0  0  0  0
 18 40  1  0  0  0  0
 19 41  1  0  0  0  0
 19 42  1  0  0  0  0
M  CHG  1   2   1
M  END
> <s_m_source_file>
AV-unprocessed.smi

> <i_m_source_file_index>
3023

> <i_lp_mmshare_version>
43012

> <i_f3d_flags>
0

> <s_epik_input>
W0NIM11OMVtDSDJdW0NIMl1bQ0gyXU4oW0NIMl1bQ0gyXTEpQyg9TylbTkhdW0NIMl1bQ0gyXWMyW2NIXW5uKFtDSDNdKVtjSF0y

> <s_epik_cmdline>
J2VwaWtfcHl0aG9uJywgJy1waCcsICc3LjAnLCAnLXRuJywgJzgnLCAnLW1hJywgJzIwMCcsICctbWV0YWxfYmluZGluZycsICctaW1hZScsICc8aW5maWxlLm1hZT4nLCAnLW9tYWUnLCAnPG91dGZpbGUubWFlPic=

> <r_lp_tautomer_probability>
1

> <r_epik_Ionization_Penalty>
0.00258886

> <r_epik_Ionization_Penalty_Charging>
0.00208099

> <r_epik_Ionization_Penalty_Neutral>
0.00050787

> <r_epik_State_Penalty>
-0

> <r_epik_Charging_Adjusted_Penalty>
0.00208099

> <i_epik_Tot_Q>
1

> <i_epik_Tot_abs_Q>
1

> <r_epik_Metal_State_Penalty>
-0

> <b_epik_Metal_Only>
0

> <s_lp_Force_Field>
OPLS_2005

> <r_lp_Energy>
39.0301

> <b_lp_Chiralities_Consistent>
1

> <s_lp_Variant>
AV-unprocessed.smi:3023-2

> <Gold.Version>
5.8.1

> <Gold.Id.Protein>
6NUR|6NUR_protein|mol2

> <Gold.PLP.Fitness>
45.0983

> <Gold.PLP.PLP>
-34.2407

> <Gold.PLP.part.hbond>
-3.0000

> <Gold.PLP.part.metal>
0.0000

> <Gold.PLP.part.buried>
2.3310

> <Gold.PLP.part.nonpolar>
-33.6219

> <Gold.PLP.part.repulsive>
0.7896

> <Gold.PLP.ligand.clash>
0.0000

> <Gold.PLP.ligand.torsion>
0.4512

> <Gold.PLP.Chemscore.Hbond>
3.1002

> <Gold.PLP.Chemscore.CHOScore>
0.8125

> <Gold.PLP.Chemscore.Metal>
0.0000

> <Gold.Chemscore.Hbonds>
donor molecule, donor type, donor heavy atom, donor atom, acceptor molecule, acceptor atom, score
      L1  H     2    43       P1 10175  1.98
      L1  H     9    29       P1  8028  0.11
      P1  H  7989  7998       L1     8  0.99
      L1  C    17    38       P1  8029  0.81

> <Gold.PLP.Chemscore.Internal.Correction>
0.0219

> <Gold.Rescore>
     Score         DG    S(hbond)    S(metal)    S(lipo)     H(rot)  DE(clash)    DE(int)     intcor
     16.04     -17.97       1.98        0.00      80.64       1.39       1.57       0.36       ----

> <Gold.Chemscore.Fitness>
16.0386

> <Gold.Chemscore.DG>
-17.9672

> <Gold.Chemscore.ZeroCoef>
-5.4800

> <Gold.Chemscore.Hbond>
1.9796

> <Gold.Chemscore.Metal>
0.0000

> <Gold.Chemscore.Lipo>
80.6417

> <Gold.Chemscore.Internal_Hbond>
0.0000

> <Gold.Chemscore.DEClash>
1.5720

> <Gold.Chemscore.DEInternal>
0.3567

> <Gold.Chemscore.Rot>
1.3906

> <Gold.Chemscore.Internal.Correction>
   9.000000E+99

> <Gold.Chemscore.Hbonds>
donor molecule, donor type, donor heavy atom, donor atom, acceptor molecule, acceptor atom, score
      L1  H     2    43       P1 10175  0.93
      L1  H     9    29       P1  8028  0.12
      P1  H  7989  7998       L1     8  0.69

> <Gold.Chemscore.Hbond.Weighted>
-6.6120

> <Gold.Chemscore.Metal.Weighted>
-0.0000

> <Gold.Chemscore.Lipo.Weighted>
-9.4351

> <Gold.Chemscore.Internal_Hbond.Weighted>
0.0000

> <Gold.Chemscore.DEClash.Weighted>
1.5720

> <Gold.Chemscore.DEInternal.Weighted>
0.3567

> <Gold.Chemscore.Rot.Weighted>
3.5598

> <Gold.Chemscore.Internal.Correction.Weighted>
   9.000000E+99

> <Gold.Protein.RotatedTorsions>
[ 6907 6896 6895 6894 ] final  -60.40 input  -60.11 | X-H torsion
[ 7974 7965 7964 7962 ] final  105.21 input  175.53 | X-H torsion
[ 8008 7997 7996 7995 ] final  -11.41 input   59.86 | X-H torsion
[ 10167 10162 10161 10158 ] final   38.40 input  -65.29 | X-H torsion
[ 10718 10713 10712 10709 ] final   10.59 input   66.30 | X-H torsion
[ 10763 10752 10751 10750 ] final  -86.23 input  -60.55 | X-H torsion
[ 11005 11000 10999 10996 ] final -174.46 input  -57.11 | X-H torsion

> <Gold.Protein.ActiveResidues>
 VAL166  LYS551  ARG553  GLY616  TRP617  ASP618  TYR619  PRO620  LYS621  CYS622 
 ASP623  PHE694  ASN695  SER759  ASP760  ASP761  ALA762  ILE779  LEU786  VAL792 
 PHE793  MET794  SER795  GLU796  ALA797  LYS798  CYS799  TRP800  GLU811  SER814 

> <Gold.Protein.RotatedAtoms>
  150.7859  134.6843  159.6460 H   0  0  0  0  0  0  0  0  0  0  0  0  # atno 6907 bound_to 6896
  152.3955  134.6369  160.0099 H   0  0  0  0  0  0  0  0  0  0  0  0  # atno 6908 bound_to 6896
  151.6656  133.3279  159.3220 H   0  0  0  0  0  0  0  0  0  0  0  0  # atno 6909 bound_to 6896
  145.3226  139.2508  143.3703 H   0  0  0  0  0  0  0  0  0  0  0  0  # atno 7974 bound_to 7965
  154.5467  140.2303  155.8551 H   0  0  0  0  0  0  0  0  0  0  0  0  # atno 8008 bound_to 7997
  156.1909  140.3077  155.9293 H   0  0  0  0  0  0  0  0  0  0  0  0  # atno 8009 bound_to 7997
  155.3150  140.0437  157.3027 H   0  0  0  0  0  0  0  0  0  0  0  0  # atno 8010 bound_to 7997
  140.3940  144.1813  150.6131 H   0  0  0  0  0  0  0  0  0  0  0  0  # atno 10167 bound_to 10162
  156.9832  130.6014  149.5678 H   0  0  0  0  0  0  0  0  0  0  0  0  # atno 10718 bound_to 10713
  154.6201  135.5457  153.7566 H   0  0  0  0  0  0  0  0  0  0  0  0  # atno 10763 bound_to 10752
  153.0234  135.6410  154.1453 H   0  0  0  0  0  0  0  0  0  0  0  0  # atno 10764 bound_to 10752
  154.1388  135.2909  155.3146 H   0  0  0  0  0  0  0  0  0  0  0  0  # atno 10765 bound_to 10752
  140.4743  134.6136  157.4894 H   0  0  0  0  0  0  0  0  0  0  0  0  # atno 11005 bound_to 11000
  146.3076  140.3787  142.8681 LP  0  0  0  0  0  0  0  0  0  0  0  0  # atno 17320 bound_to 7965
  144.8927  140.7544  143.5916 LP  0  0  0  0  0  0  0  0  0  0  0  0  # atno 17321 bound_to 7965
  140.4809  143.2379  151.8956 LP  0  0  0  0  0  0  0  0  0  0  0  0  # atno 17342 bound_to 10162
  139.4787  144.5270  151.8721 LP  0  0  0  0  0  0  0  0  0  0  0  0  # atno 17343 bound_to 10162
  156.0236  130.5330  150.8345 LP  0  0  0  0  0  0  0  0  0  0  0  0  # atno 17370 bound_to 10713
  157.5511  131.0944  150.9694 LP  0  0  0  0  0  0  0  0  0  0  0  0  # atno 17371 bound_to 10713
  139.9866  134.7052  155.9764 LP  0  0  0  0  0  0  0  0  0  0  0  0  # atno 17394 bound_to 11000
  141.1562  133.6542  156.4169 LP  0  0  0  0  0  0  0  0  0  0  0  0  # atno 17395 bound_to 11000

$$$$
