AV-unprocessed.smi:1066|AV-procd|sdf|4669|dock5
  -GOLD-   22720 3183D 1   1.00000     0.00000
 Structure written by MMmdl.
 38 40  0  0  0  0  0  0  0  0  2 V2000
  150.8068  137.6435  154.6214 C   0  0  0  0  0  0  0  0  0  0  0  0
  150.8338  136.4091  155.4765 C   0  0  0  0  0  0  0  0  0  0  0  0
  151.9488  136.0982  156.1244 N   0  0  0  0  0  0  0  0  0  0  0  0
  151.6847  134.9125  156.8196 O   0  0  0  0  0  0  0  0  0  0  0  0
  150.4047  134.5714  156.5475 C   0  0  0  0  0  0  0  0  0  0  0  0
  149.6746  133.1529  157.1885 Cl  0  0  0  0  0  0  0  0  0  0  0  0
  149.7948  135.4598  155.7093 C   0  0  0  0  0  0  0  0  0  0  0  0
  148.3917  135.4454  155.1567 C   0  0  0  0  0  0  0  0  0  0  0  0
  148.1054  134.0840  154.5242 C   0  0  0  0  0  0  0  0  0  0  0  0
  147.9830  133.0869  155.2347 O   0  0  0  0  0  0  0  0  0  0  0  0
  147.9887  134.0570  153.1877 N   0  0  0  0  0  0  0  0  0  0  0  0
  147.6629  132.8705  152.4057 C   0  0  1  0  0  0  0  0  0  0  0  0
  146.6796  131.9164  153.0895 C   0  0  0  0  0  0  0  0  0  0  0  0
  145.9144  131.2534  151.9318 C   0  0  0  0  0  0  0  0  0  0  0  0
  146.3095  131.9629  150.6927 N   0  3  1  0  0  0  0  0  0  0  0  0
  145.2155  132.1253  149.7119 C   0  0  0  0  0  0  0  0  0  0  0  0
  144.4388  133.4090  149.8824 C   0  0  0  0  0  0  0  0  0  0  0  0
  143.8387  132.0942  150.3308 C   0  0  0  0  0  0  0  0  0  0  0  0
  146.9363  133.2286  151.1129 C   0  0  0  0  0  0  0  0  0  0  0  0
  149.8589  137.7448  154.0933 H   0  0  0  0  0  0  0  0  0  0  0  0
  151.5981  137.6186  153.8718 H   0  0  0  0  0  0  0  0  0  0  0  0
  150.9469  138.5407  155.2246 H   0  0  0  0  0  0  0  0  0  0  0  0
  147.6511  135.6394  155.9334 H   0  0  0  0  0  0  0  0  0  0  0  0
  148.2527  136.2263  154.4083 H   0  0  0  0  0  0  0  0  0  0  0  0
  148.1089  134.9242  152.6839 H   0  0  0  0  0  0  0  0  0  0  0  0
  148.5789  132.3306  152.1567 H   0  0  0  0  0  0  0  0  0  0  0  0
  147.1852  131.1896  153.7261 H   0  0  0  0  0  0  0  0  0  0  0  0
  145.9805  132.4734  153.7155 H   0  0  0  0  0  0  0  0  0  0  0  0
  146.1644  130.1964  151.8373 H   0  0  0  0  0  0  0  0  0  0  0  0
  144.8393  131.3260  152.1041 H   0  0  0  0  0  0  0  0  0  0  0  0
  145.3868  131.7118  148.7195 H   0  0  0  0  0  0  0  0  0  0  0  0
  144.7576  134.1058  150.6558 H   0  0  0  0  0  0  0  0  0  0  0  0
  144.0227  133.8670  148.9873 H   0  0  0  0  0  0  0  0  0  0  0  0
  143.0276  131.6871  149.7304 H   0  0  0  0  0  0  0  0  0  0  0  0
  143.7583  131.9179  151.4022 H   0  0  0  0  0  0  0  0  0  0  0  0
  146.1644  133.9776  151.3016 H   0  0  0  0  0  0  0  0  0  0  0  0
  147.6088  133.6168  150.3470 H   0  0  0  0  0  0  0  0  0  0  0  0
  147.0364  131.4099  150.2614 H   0  0  0  0  0  0  0  0  0  0  0  0
  1  2  1  0  0  0  0
  1 20  1  0  0  0  0
  1 21  1  0  0  0  0
  1 22  1  0  0  0  0
  2  7  1  0  0  0  0
  2  3  2  0  0  0  0
  3  4  1  0  0  0  0
  4  5  1  0  0  0  0
  5  6  1  0  0  0  0
  5  7  2  0  0  0  0
  7  8  1  0  0  0  0
  8  9  1  0  0  0  0
  8 23  1  0  0  0  0
  8 24  1  0  0  0  0
  9 10  2  0  0  0  0
  9 11  1  0  0  0  0
 11 12  1  0  0  0  0
 11 25  1  0  0  0  0
 12 19  1  0  0  0  0
 12 13  1  0  0  0  0
 12 26  1  0  0  0  0
 13 14  1  0  0  0  0
 13 27  1  0  0  0  0
 13 28  1  0  0  0  0
 14 15  1  0  0  0  0
 14 29  1  0  0  0  0
 14 30  1  0  0  0  0
 15 16  1  0  0  0  0
 15 19  1  0  0  0  0
 15 38  1  0  0  0  0
 16 18  1  0  0  0  0
 16 17  1  0  0  0  0
 16 31  1  0  0  0  0
 17 18  1  0  0  0  0
 17 32  1  0  0  0  0
 17 33  1  0  0  0  0
 18 34  1  0  0  0  0
 18 35  1  0  0  0  0
 19 36  1  0  0  0  0
 19 37  1  0  0  0  0
M  CHG  1  15   1
M  END
> <s_m_source_file>
AV-unprocessed.smi

> <i_m_source_file_index>
1066

> <i_lp_mmshare_version>
43012

> <i_f3d_flags>
0

> <s_epik_input>
W0NIM11jMW5vYyhDbCljMVtDSDJdQyg9TylbTkhdW0NAQEhdMltDSDJdW0NIMl1OKFtDSDJdMilbQ0hdM1tDSDJdW0NIMl0z

> <s_epik_cmdline>
J2VwaWtfcHl0aG9uJywgJy1waCcsICc3LjAnLCAnLXRuJywgJzgnLCAnLW1hJywgJzIwMCcsICctbWV0YWxfYmluZGluZycsICctaW1hZScsICc8aW5maWxlLm1hZT4nLCAnLW9tYWUnLCAnPG91dGZpbGUubWFlPic=

> <r_epik_Ionization_Penalty>
0.00108138

> <r_epik_Ionization_Penalty_Charging>
0.00108128

> <r_epik_Ionization_Penalty_Neutral>
9.66632e-08

> <r_epik_State_Penalty>
0.000708577

> <r_epik_Charging_Adjusted_Penalty>
0.00178986

> <i_epik_Tot_Q>
1

> <i_epik_Tot_abs_Q>
1

> <r_epik_Metal_State_Penalty>
-0

> <b_epik_Metal_Only>
0

> <s_lp_Force_Field>
OPLS_2005

> <r_lp_Energy>
30.6816

> <b_lp_Chiralities_Consistent>
1

> <s_lp_Variant>
AV-unprocessed.smi:1066-2

> <Gold.Version>
5.8.1

> <Gold.Id.Protein>
6NUR|6NUR_protein|mol2

> <Gold.PLP.Fitness>
39.2671

> <Gold.PLP.PLP>
-31.9343

> <Gold.PLP.part.hbond>
-3.9191

> <Gold.PLP.part.metal>
0.0000

> <Gold.PLP.part.buried>
-3.9324

> <Gold.PLP.part.nonpolar>
-24.8230

> <Gold.PLP.part.repulsive>
0.0905

> <Gold.PLP.ligand.clash>
0.0000

> <Gold.PLP.ligand.torsion>
1.3859

> <Gold.PLP.Chemscore.Hbond>
2.9440

> <Gold.PLP.Chemscore.CHOScore>
0.0000

> <Gold.PLP.Chemscore.Metal>
0.0000

> <Gold.Chemscore.Hbonds>
donor molecule, donor type, donor heavy atom, donor atom, acceptor molecule, acceptor atom, score
      L1  H    11    25       P1  7948  1.00
      L1  H    15    38       P1 10747  0.96
      P1  H 10752 10765       L1     3  1.00

> <Gold.PLP.Chemscore.Internal.Correction>
1.2727

> <Gold.Rescore>
     Score         DG    S(hbond)    S(metal)    S(lipo)     H(rot)  DE(clash)    DE(int)     intcor
     13.64     -18.00       2.07        0.00      82.36       1.57       0.28       4.08       ----

> <Gold.Chemscore.Fitness>
13.6364

> <Gold.Chemscore.DG>
-17.9991

> <Gold.Chemscore.ZeroCoef>
-5.4800

> <Gold.Chemscore.Hbond>
2.0674

> <Gold.Chemscore.Metal>
0.0000

> <Gold.Chemscore.Lipo>
82.3583

> <Gold.Chemscore.Internal_Hbond>
0.0000

> <Gold.Chemscore.DEClash>
0.2826

> <Gold.Chemscore.DEInternal>
4.0800

> <Gold.Chemscore.Rot>
1.5711

> <Gold.Chemscore.Internal.Correction>
   9.000000E+99

> <Gold.Chemscore.Hbonds>
donor molecule, donor type, donor heavy atom, donor atom, acceptor molecule, acceptor atom, score
      L1  H    11    25       P1  7948  0.81
      L1  H    15    38       P1 10747  0.88
      P1  H 10752 10765       L1     3  0.12

> <Gold.Chemscore.Hbond.Weighted>
-6.9052

> <Gold.Chemscore.Metal.Weighted>
-0.0000

> <Gold.Chemscore.Lipo.Weighted>
-9.6359

> <Gold.Chemscore.Internal_Hbond.Weighted>
0.0000

> <Gold.Chemscore.DEClash.Weighted>
0.2826

> <Gold.Chemscore.DEInternal.Weighted>
4.0800

> <Gold.Chemscore.Rot.Weighted>
4.0221

> <Gold.Chemscore.Internal.Correction.Weighted>
   9.000000E+99

> <Gold.Protein.RotatedTorsions>
[ 6907 6896 6895 6894 ] final   41.08 input  -60.11 | X-H torsion
[ 7974 7965 7964 7962 ] final   43.37 input  175.53 | X-H torsion
[ 8008 7997 7996 7995 ] final  149.70 input   59.86 | X-H torsion
[ 10167 10162 10161 10158 ] final    9.47 input  -65.29 | X-H torsion
[ 10718 10713 10712 10709 ] final  123.33 input   66.30 | X-H torsion
[ 10763 10752 10751 10750 ] final -168.39 input  -60.55 | X-H torsion
[ 11005 11000 10999 10996 ] final   59.53 input  -57.11 | X-H torsion

> <Gold.Protein.ActiveResidues>
 VAL166  LYS551  ARG553  GLY616  TRP617  ASP618  TYR619  PRO620  LYS621  CYS622 
 ASP623  PHE694  ASN695  SER759  ASP760  ASP761  ALA762  ILE779  LEU786  VAL792 
 PHE793  MET794  SER795  GLU796  ALA797  LYS798  CYS799  TRP800  GLU811  SER814 

> <Gold.Protein.RotatedAtoms>
  152.1908  134.8674  160.0517 H   0  0  0  0  0  0  0  0  0  0  0  0  # atno 6907 bound_to 6896
  151.9564  133.3676  159.4027 H   0  0  0  0  0  0  0  0  0  0  0  0  # atno 6908 bound_to 6896
  150.6935  134.4210  159.5249 H   0  0  0  0  0  0  0  0  0  0  0  0  # atno 6909 bound_to 6896
  146.0661  139.5194  142.9627 H   0  0  0  0  0  0  0  0  0  0  0  0  # atno 7974 bound_to 7965
  156.2745  140.2094  156.5900 H   0  0  0  0  0  0  0  0  0  0  0  0  # atno 8008 bound_to 7997
  154.6990  140.0523  157.0462 H   0  0  0  0  0  0  0  0  0  0  0  0  # atno 8009 bound_to 7997
  155.0761  140.3182  155.4618 H   0  0  0  0  0  0  0  0  0  0  0  0  # atno 8010 bound_to 7997
  140.6253  143.8115  150.7225 H   0  0  0  0  0  0  0  0  0  0  0  0  # atno 10167 bound_to 10162
  157.5673  131.1085  150.8431 H   0  0  0  0  0  0  0  0  0  0  0  0  # atno 10718 bound_to 10713
  154.6633  135.2928  154.9838 H   0  0  0  0  0  0  0  0  0  0  0  0  # atno 10763 bound_to 10752
  154.0890  135.6593  153.4853 H   0  0  0  0  0  0  0  0  0  0  0  0  # atno 10764 bound_to 10752
  153.0442  135.5215  154.7594 H   0  0  0  0  0  0  0  0  0  0  0  0  # atno 10765 bound_to 10752
  140.0297  134.6030  155.9524 H   0  0  0  0  0  0  0  0  0  0  0  0  # atno 11005 bound_to 11000
  145.6475  141.0271  143.1778 LP  0  0  0  0  0  0  0  0  0  0  0  0  # atno 17320 bound_to 7965
  144.7203  139.8053  143.7384 LP  0  0  0  0  0  0  0  0  0  0  0  0  # atno 17321 bound_to 7965
  140.1715  143.4191  152.1998 LP  0  0  0  0  0  0  0  0  0  0  0  0  # atno 17342 bound_to 10162
  139.5474  144.7310  151.4540 LP  0  0  0  0  0  0  0  0  0  0  0  0  # atno 17343 bound_to 10162
  156.8912  130.5213  149.5286 LP  0  0  0  0  0  0  0  0  0  0  0  0  # atno 17370 bound_to 10713
  156.0721  130.5751  150.9403 LP  0  0  0  0  0  0  0  0  0  0  0  0  # atno 17371 bound_to 10713
  141.1824  133.6549  156.5074 LP  0  0  0  0  0  0  0  0  0  0  0  0  # atno 17394 bound_to 11000
  140.4246  134.7156  157.4909 LP  0  0  0  0  0  0  0  0  0  0  0  0  # atno 17395 bound_to 11000

$$$$
