AV-unprocessed.smi:711|AV-procd|sdf|3464|dock3
  -GOLD-   22720 0453D 1   1.00000     0.00000
 Structure written by MMmdl.
 29 30  0  0  0  0  0  0  0  0  1 V2000
  148.0994  138.9646  153.8420 O   0  0  0  0  0  0  0  0  0  0  0  0
  148.9089  139.6539  154.4592 C   0  0  0  0  0  0  0  0  0  0  0  0
  150.0286  139.0556  155.0445 N   0  0  0  0  0  0  0  0  0  0  0  0
  151.0191  139.7185  155.7698 C   0  0  0  0  0  0  0  0  0  0  0  0
  151.9520  139.0768  156.2526 O   0  0  0  0  0  0  0  0  0  0  0  0
  150.8724  141.1193  155.9152 N   0  0  0  0  0  0  0  0  0  0  0  0
  151.8537  141.8508  156.6843 C   0  0  0  0  0  0  0  0  0  0  0  0
  151.2402  142.9418  157.5904 C   0  0  2  0  0  0  0  0  0  0  0  0
  151.4179  144.1936  156.9586 O   0  0  0  0  0  0  0  0  0  0  0  0
  151.7907  142.9228  159.0125 C   0  0  0  0  0  0  0  0  0  0  0  0
  152.6062  141.8530  159.4451 C   0  0  0  0  0  0  0  0  0  0  0  0
  153.0976  141.8202  160.7643 C   0  0  0  0  0  0  0  0  0  0  0  0
  152.7764  142.8563  161.6612 C   0  0  0  0  0  0  0  0  0  0  0  0
  153.2476  142.8246  162.9301 F   0  0  0  0  0  0  0  0  0  0  0  0
  151.9624  143.9240  161.2385 C   0  0  0  0  0  0  0  0  0  0  0  0
  151.4687  143.9585  159.9199 C   0  0  0  0  0  0  0  0  0  0  0  0
  150.6738  144.9862  159.5354 F   0  0  0  0  0  0  0  0  0  0  0  0
  149.7742  141.7522  155.3547 C   0  0  0  0  0  0  0  0  0  0  0  0
  148.8153  141.0999  154.6544 C   0  0  0  0  0  0  0  0  0  0  0  0
  147.4739  141.9622  153.9909 Cl  0  0  0  0  0  0  0  0  0  0  0  0
  150.1265  138.0566  154.9368 H   0  0  0  0  0  0  0  0  0  0  0  0
  152.4715  141.1439  157.2416 H   0  0  0  0  0  0  0  0  0  0  0  0
  152.5173  142.2981  155.9418 H   0  0  0  0  0  0  0  0  0  0  0  0
  150.1620  142.7860  157.6356 H   0  0  0  0  0  0  0  0  0  0  0  0
  150.5860  144.4733  156.6084 H   0  0  0  0  0  0  0  0  0  0  0  0
  152.8509  141.0476  158.7682 H   0  0  0  0  0  0  0  0  0  0  0  0
  153.7184  140.9978  161.0884 H   0  0  0  0  0  0  0  0  0  0  0  0
  151.7126  144.7168  161.9281 H   0  0  0  0  0  0  0  0  0  0  0  0
  149.6745  142.8205  155.4868 H   0  0  0  0  0  0  0  0  0  0  0  0
  1  2  2  0  0  0  0
  2 19  1  0  0  0  0
  2  3  1  0  0  0  0
  3 21  1  0  0  0  0
  3  4  1  0  0  0  0
  4  5  2  0  0  0  0
  4  6  1  0  0  0  0
  6  7  1  0  0  0  0
  6 18  1  0  0  0  0
  7  8  1  0  0  0  0
  7 22  1  0  0  0  0
  7 23  1  0  0  0  0
  8  9  1  0  0  0  0
  8 10  1  0  0  0  0
  8 24  1  0  0  0  0
  9 25  1  0  0  0  0
 10 16  1  0  0  0  0
 10 11  2  0  0  0  0
 11 12  1  0  0  0  0
 11 26  1  0  0  0  0
 12 13  2  0  0  0  0
 12 27  1  0  0  0  0
 13 14  1  0  0  0  0
 13 15  1  0  0  0  0
 15 16  2  0  0  0  0
 15 28  1  0  0  0  0
 16 17  1  0  0  0  0
 18 19  2  0  0  0  0
 18 29  1  0  0  0  0
 19 20  1  0  0  0  0
M  END
> <s_m_source_file>
AV-unprocessed.smi

> <i_m_source_file_index>
711

> <i_lp_mmshare_version>
43012

> <i_f3d_flags>
0

> <s_epik_input>
Tz1jMVtuSF1jKD1PKW4oW2NIXWMxQ2wpW0NIMl1bQ0BIXShbT0hdKWMyW2NIXVtjSF1jKEYpW2NIXWMyRg==

> <s_epik_cmdline>
J2VwaWtfcHl0aG9uJywgJy1waCcsICc3LjAnLCAnLXRuJywgJzgnLCAnLW1hJywgJzIwMCcsICctbWV0YWxfYmluZGluZycsICctaW1hZScsICc8aW5maWxlLm1hZT4nLCAnLW9tYWUnLCAnPG91dGZpbGUubWFlPic=

> <r_lp_tautomer_probability>
0.999537

> <r_epik_Ionization_Penalty>
0.0292058

> <r_epik_Ionization_Penalty_Charging>
0.0292057

> <r_epik_Ionization_Penalty_Neutral>
9.07348e-08

> <r_epik_State_Penalty>
0.0240115

> <r_epik_Charging_Adjusted_Penalty>
0.0532172

> <i_epik_Tot_Q>
0

> <i_epik_Tot_abs_Q>
0

> <r_epik_Metal_State_Penalty>
2.21956

> <b_epik_Metal_Only>
0

> <s_lp_Force_Field>
OPLS_2005

> <r_lp_Energy>
11.2971

> <b_lp_Chiralities_Consistent>
1

> <s_lp_Variant>
AV-unprocessed.smi:711-1

> <Gold.Version>
5.8.1

> <Gold.Id.Protein>
6NUR|6NUR_protein|mol2

> <Gold.PLP.Fitness>
51.3979

> <Gold.PLP.PLP>
-47.6083

> <Gold.PLP.part.hbond>
-1.0000

> <Gold.PLP.part.metal>
0.0000

> <Gold.PLP.part.buried>
-6.7260

> <Gold.PLP.part.nonpolar>
-39.1374

> <Gold.PLP.part.repulsive>
0.2532

> <Gold.PLP.ligand.clash>
0.0000

> <Gold.PLP.ligand.torsion>
1.1169

> <Gold.PLP.Chemscore.Hbond>
1.0000

> <Gold.PLP.Chemscore.CHOScore>
0.9999

> <Gold.PLP.Chemscore.Metal>
0.0000

> <Gold.Chemscore.Hbonds>
donor molecule, donor type, donor heavy atom, donor atom, acceptor molecule, acceptor atom, score
      L1  H     9    25       P1  8028  1.00
      L1  C    18    29       P1  8028  1.00

> <Gold.PLP.Chemscore.Internal.Correction>
0.0236

> <Gold.Rescore>
     Score         DG    S(hbond)    S(metal)    S(lipo)     H(rot)  DE(clash)    DE(int)     intcor
     11.90     -14.72       1.00        0.00     102.20       2.37       0.84       1.98       ----

> <Gold.Chemscore.Fitness>
11.8979

> <Gold.Chemscore.DG>
-14.7190

> <Gold.Chemscore.ZeroCoef>
-5.4800

> <Gold.Chemscore.Hbond>
0.9988

> <Gold.Chemscore.Metal>
0.0000

> <Gold.Chemscore.Lipo>
102.2024

> <Gold.Chemscore.Internal_Hbond>
0.0000

> <Gold.Chemscore.DEClash>
0.8365

> <Gold.Chemscore.DEInternal>
1.9845

> <Gold.Chemscore.Rot>
2.3652

> <Gold.Chemscore.Internal.Correction>
   9.000000E+99

> <Gold.Chemscore.Hbonds>
donor molecule, donor type, donor heavy atom, donor atom, acceptor molecule, acceptor atom, score
      L1  H     9    25       P1  8028  0.98

> <Gold.Chemscore.Hbond.Weighted>
-3.3361

> <Gold.Chemscore.Metal.Weighted>
-0.0000

> <Gold.Chemscore.Lipo.Weighted>
-11.9577

> <Gold.Chemscore.Internal_Hbond.Weighted>
0.0000

> <Gold.Chemscore.DEClash.Weighted>
0.8365

> <Gold.Chemscore.DEInternal.Weighted>
1.9845

> <Gold.Chemscore.Rot.Weighted>
6.0548

> <Gold.Chemscore.Internal.Correction.Weighted>
   9.000000E+99

> <Gold.Protein.RotatedTorsions>
[ 6907 6896 6895 6894 ] final -122.28 input  -60.11 | X-H torsion
[ 7974 7965 7964 7962 ] final   46.33 input  175.53 | X-H torsion
[ 8008 7997 7996 7995 ] final   35.35 input   59.86 | X-H torsion
[ 10167 10162 10161 10158 ] final   99.79 input  -65.29 | X-H torsion
[ 10718 10713 10712 10709 ] final   -1.96 input   66.30 | X-H torsion
[ 10763 10752 10751 10750 ] final  -61.80 input  -60.55 | X-H torsion
[ 11005 11000 10999 10996 ] final  -98.67 input  -57.11 | X-H torsion

> <Gold.Protein.ActiveResidues>
 VAL166  LYS551  ARG553  GLY616  TRP617  ASP618  TYR619  PRO620  LYS621  CYS622 
 ASP623  PHE694  ASN695  SER759  ASP760  ASP761  ALA762  ILE779  LEU786  VAL792 
 PHE793  MET794  SER795  GLU796  ALA797  LYS798  CYS799  TRP800  GLU811  SER814 

> <Gold.Protein.RotatedAtoms>
  150.8561  133.7713  159.3008 H   0  0  0  0  0  0  0  0  0  0  0  0  # atno 6907 bound_to 6896
  151.5370  135.1067  159.9926 H   0  0  0  0  0  0  0  0  0  0  0  0  # atno 6908 bound_to 6896
  152.4591  133.7740  159.6870 H   0  0  0  0  0  0  0  0  0  0  0  0  # atno 6909 bound_to 6896
  146.0400  139.4868  142.9784 H   0  0  0  0  0  0  0  0  0  0  0  0  # atno 7974 bound_to 7965
  155.1696  140.3290  155.4395 H   0  0  0  0  0  0  0  0  0  0  0  0  # atno 8008 bound_to 7997
  156.2515  140.1946  156.6750 H   0  0  0  0  0  0  0  0  0  0  0  0  # atno 8009 bound_to 7997
  154.6347  140.0578  156.9760 H   0  0  0  0  0  0  0  0  0  0  0  0  # atno 8010 bound_to 7997
  139.7585  144.6962  151.0327 H   0  0  0  0  0  0  0  0  0  0  0  0  # atno 10167 bound_to 10162
  156.7979  130.5383  149.5726 H   0  0  0  0  0  0  0  0  0  0  0  0  # atno 10718 bound_to 10713
  154.2902  135.6255  153.5382 H   0  0  0  0  0  0  0  0  0  0  0  0  # atno 10763 bound_to 10752
  152.9853  135.5654  154.5399 H   0  0  0  0  0  0  0  0  0  0  0  0  # atno 10764 bound_to 10752
  154.5008  135.2872  155.1398 H   0  0  0  0  0  0  0  0  0  0  0  0  # atno 10765 bound_to 10752
  141.1336  133.8263  157.0870 H   0  0  0  0  0  0  0  0  0  0  0  0  # atno 11005 bound_to 11000
  145.6901  141.0167  143.1560 LP  0  0  0  0  0  0  0  0  0  0  0  0  # atno 17320 bound_to 7965
  144.7070  139.8522  143.7427 LP  0  0  0  0  0  0  0  0  0  0  0  0  # atno 17321 bound_to 7965
  140.7805  143.4724  151.0128 LP  0  0  0  0  0  0  0  0  0  0  0  0  # atno 17342 bound_to 10162
  139.8411  143.7563  152.3180 LP  0  0  0  0  0  0  0  0  0  0  0  0  # atno 17343 bound_to 10162
  156.1119  130.6046  151.0060 LP  0  0  0  0  0  0  0  0  0  0  0  0  # atno 17370 bound_to 10713
  157.6568  131.0888  150.7929 LP  0  0  0  0  0  0  0  0  0  0  0  0  # atno 17371 bound_to 10713
  140.0416  134.9851  157.0972 LP  0  0  0  0  0  0  0  0  0  0  0  0  # atno 17394 bound_to 11000
  140.4127  134.1964  155.7163 LP  0  0  0  0  0  0  0  0  0  0  0  0  # atno 17395 bound_to 11000

$$$$
