AV-unprocessed.smi:2750|AV-procd|sdf|10592|dock8
  -GOLD-   2272015 43D 1   1.00000     0.00000
 Structure written by MMmdl.
 24 25  0  0  0  0  0  0  0  0  3 V2000
  147.8284  136.9884  162.3649 O   0  0  0  0  0  0  0  0  0  0  0  0
  147.4369  136.6741  161.2192 C   0  0  0  0  0  0  0  0  0  0  0  0
  146.6077  137.3104  160.5326 O   0  5  0  0  0  0  0  0  0  0  0  0
  148.0260  135.4049  160.6033 C   0  0  0  0  0  0  0  0  0  0  0  0
  148.7119  135.6743  159.3530 N   0  0  0  0  0  0  0  0  0  0  0  0
  148.9190  136.8880  158.7307 C   0  0  0  0  0  0  0  0  0  0  0  0
  149.6109  136.5516  157.6024 C   0  0  0  0  0  0  0  0  0  0  0  0
  150.1222  137.4368  156.5057 C   0  0  0  0  0  0  0  0  0  0  0  0
  150.6768  138.7748  157.0335 C   0  0  1  0  0  0  0  0  0  0  0  0
  151.5928  138.5646  158.1346 N   0  0  0  0  0  0  0  0  0  0  0  0
  152.7958  139.0689  157.8692 C   0  0  0  0  0  0  0  0  0  0  0  0
  153.7151  139.0096  158.6825 O   0  0  0  0  0  0  0  0  0  0  0  0
  152.8107  139.6084  156.6349 N   0  5  0  0  0  0  0  0  0  0  0  0
  151.6027  139.4813  156.0441 C   0  0  0  0  0  0  0  0  0  0  0  0
  151.2207  139.8390  154.9311 O   0  0  0  0  0  0  0  0  0  0  0  0
  149.7947  135.1694  157.5847 N   0  0  0  0  0  0  0  0  0  0  0  0
  149.2520  134.6541  158.6431 N   0  0  0  0  0  0  0  0  0  0  0  0
  148.7197  134.9344  161.3020 H   0  0  0  0  0  0  0  0  0  0  0  0
  147.2280  134.6851  160.4165 H   0  0  0  0  0  0  0  0  0  0  0  0
  148.5741  137.8317  159.1265 H   0  0  0  0  0  0  0  0  0  0  0  0
  150.8892  136.9148  155.9313 H   0  0  0  0  0  0  0  0  0  0  0  0
  149.3135  137.6368  155.8017 H   0  0  0  0  0  0  0  0  0  0  0  0
  149.8739  139.4493  157.3346 H   0  0  0  0  0  0  0  0  0  0  0  0
  151.3322  138.1084  158.9964 H   0  0  0  0  0  0  0  0  0  0  0  0
  1  2  2  0  0  0  0
  2  3  1  0  0  0  0
  2  4  1  0  0  0  0
  4  5  1  0  0  0  0
  4 18  1  0  0  0  0
  4 19  1  0  0  0  0
  5 17  1  0  0  0  0
  5  6  1  0  0  0  0
  6  7  2  0  0  0  0
  6 20  1  0  0  0  0
  7  8  1  0  0  0  0
  7 16  1  0  0  0  0
  8  9  1  0  0  0  0
  8 21  1  0  0  0  0
  8 22  1  0  0  0  0
  9 14  1  0  0  0  0
  9 10  1  0  0  0  0
  9 23  1  0  0  0  0
 10 11  1  0  0  0  0
 10 24  1  0  0  0  0
 11 12  2  0  0  0  0
 11 13  1  0  0  0  0
 13 14  1  0  0  0  0
 14 15  2  0  0  0  0
 16 17  2  0  0  0  0
M  CHG  1   3  -1
M  CHG  1  13  -1
M  END
> <s_m_source_file>
AV-unprocessed.smi

> <i_m_source_file_index>
2750

> <i_lp_mmshare_version>
43012

> <i_f3d_flags>
0

> <s_epik_input>
Tz1DKFtPSF0pW0NIMl1uMVtjSF1jKG5uMSlbQ0gyXVtDQEBIXTJbTkhdQyg9TylbTkhdQzI9Tw==

> <s_epik_cmdline>
J2VwaWtfcHl0aG9uJywgJy1waCcsICc3LjAnLCAnLXRuJywgJzgnLCAnLW1hJywgJzIwMCcsICctbWV0YWxfYmluZGluZycsICctaW1hZScsICc8aW5maWxlLm1hZT4nLCAnLW9tYWUnLCAnPG91dGZpbGUubWFlPic=

> <r_lp_tautomer_probability>
1

> <r_epik_Ionization_Penalty>
2.03209

> <r_epik_Ionization_Penalty_Charging>
2.03208

> <r_epik_Ionization_Penalty_Neutral>
1.30912e-05

> <r_epik_State_Penalty>
2.16313

> <r_epik_Charging_Adjusted_Penalty>
4.19521

> <i_epik_Tot_Q>
-2

> <i_epik_Tot_abs_Q>
2

> <r_epik_Metal_State_Penalty>
0.529162

> <b_epik_Metal_Only>
0

> <s_lp_Force_Field>
OPLS_2005

> <r_lp_Energy>
6.41301

> <b_lp_Chiralities_Consistent>
1

> <s_lp_Variant>
AV-unprocessed.smi:2750-4

> <Gold.Version>
5.8.1

> <Gold.Id.Protein>
6NUR|6NUR_protein|mol2

> <Gold.PLP.Fitness>
42.4251

> <Gold.PLP.PLP>
-19.2673

> <Gold.PLP.part.hbond>
-6.3900

> <Gold.PLP.part.metal>
0.0000

> <Gold.PLP.part.buried>
-3.2740

> <Gold.PLP.part.nonpolar>
-9.9981

> <Gold.PLP.part.repulsive>
0.1116

> <Gold.PLP.ligand.clash>
0.0000

> <Gold.PLP.ligand.torsion>
0.4299

> <Gold.PLP.Chemscore.Hbond>
8.0000

> <Gold.PLP.Chemscore.CHOScore>
0.0000

> <Gold.PLP.Chemscore.Metal>
0.0000

> <Gold.Chemscore.Hbonds>
donor molecule, donor type, donor heavy atom, donor atom, acceptor molecule, acceptor atom, score
      P1  H  6896  6909       L1    17  0.90
      P1  H  6931  6943       L1     1  2.00
      P1  H  6934  6947       L1     3  1.90
      P1  H  7989  7998       L1    15  1.00
      P1  H  7997  8010       L1    13  2.00

> <Gold.PLP.Chemscore.Internal.Correction>
0.0176

> <Gold.Rescore>
     Score         DG    S(hbond)    S(metal)    S(lipo)     H(rot)  DE(clash)    DE(int)     intcor
     10.35     -10.96       3.22        0.00      16.16       2.80       0.00       0.61       ----

> <Gold.Chemscore.Fitness>
10.3496

> <Gold.Chemscore.DG>
-10.9585

> <Gold.Chemscore.ZeroCoef>
-5.4800

> <Gold.Chemscore.Hbond>
3.2184

> <Gold.Chemscore.Metal>
0.0000

> <Gold.Chemscore.Lipo>
16.1555

> <Gold.Chemscore.Internal_Hbond>
0.0000

> <Gold.Chemscore.DEClash>
0.0000

> <Gold.Chemscore.DEInternal>
0.6089

> <Gold.Chemscore.Rot>
2.7973

> <Gold.Chemscore.Internal.Correction>
   9.000000E+99

> <Gold.Chemscore.Hbonds>
donor molecule, donor type, donor heavy atom, donor atom, acceptor molecule, acceptor atom, score
      P1  H  6896  6909       L1    17  0.12
      P1  H  6931  6943       L1     1  0.25
      P1  H  6934  6947       L1     3  0.22
      P1  H  7989  7998       L1    15  1.00
      P1  H  7997  8010       L1    13  0.50

> <Gold.Chemscore.Hbond.Weighted>
-10.7494

> <Gold.Chemscore.Metal.Weighted>
-0.0000

> <Gold.Chemscore.Lipo.Weighted>
-1.8902

> <Gold.Chemscore.Internal_Hbond.Weighted>
0.0000

> <Gold.Chemscore.DEClash.Weighted>
0.0000

> <Gold.Chemscore.DEInternal.Weighted>
0.6089

> <Gold.Chemscore.Rot.Weighted>
7.1611

> <Gold.Chemscore.Internal.Correction.Weighted>
   9.000000E+99

> <Gold.Protein.RotatedTorsions>
[ 6907 6896 6895 6894 ] final   24.54 input  -60.11 | X-H torsion
[ 7974 7965 7964 7962 ] final  -66.91 input  175.53 | X-H torsion
[ 8008 7997 7996 7995 ] final   73.48 input   59.86 | X-H torsion
[ 10167 10162 10161 10158 ] final  103.27 input  -65.29 | X-H torsion
[ 10718 10713 10712 10709 ] final   55.79 input   66.30 | X-H torsion
[ 10763 10752 10751 10750 ] final -133.75 input  -60.55 | X-H torsion
[ 11005 11000 10999 10996 ] final   30.61 input  -57.11 | X-H torsion

> <Gold.Protein.ActiveResidues>
 VAL166  LYS551  ARG553  GLY616  TRP617  ASP618  TYR619  PRO620  LYS621  CYS622 
 ASP623  PHE694  ASN695  SER759  ASP760  ASP761  ALA762  ILE779  LEU786  VAL792 
 PHE793  MET794  SER795  GLU796  ALA797  LYS798  CYS799  TRP800  GLU811  SER814 

> <Gold.Protein.RotatedAtoms>
  151.9590  135.0133  160.0546 H   0  0  0  0  0  0  0  0  0  0  0  0  # atno 6907 bound_to 6896
  152.1886  133.4752  159.5004 H   0  0  0  0  0  0  0  0  0  0  0  0  # atno 6908 bound_to 6896
  150.6930  134.1659  159.4237 H   0  0  0  0  0  0  0  0  0  0  0  0  # atno 6909 bound_to 6896
  145.7359  140.8976  143.0556 H   0  0  0  0  0  0  0  0  0  0  0  0  # atno 7974 bound_to 7965
  155.7843  140.3481  155.5314 H   0  0  0  0  0  0  0  0  0  0  0  0  # atno 8008 bound_to 7997
  155.8697  140.0984  157.1579 H   0  0  0  0  0  0  0  0  0  0  0  0  # atno 8009 bound_to 7997
  154.4017  140.1343  156.4050 H   0  0  0  0  0  0  0  0  0  0  0  0  # atno 8010 bound_to 7997
  139.7277  144.7043  151.0771 H   0  0  0  0  0  0  0  0  0  0  0  0  # atno 10167 bound_to 10162
  157.5375  130.8674  149.8774 H   0  0  0  0  0  0  0  0  0  0  0  0  # atno 10718 bound_to 10713
  154.8728  135.3756  154.4624 H   0  0  0  0  0  0  0  0  0  0  0  0  # atno 10763 bound_to 10752
  153.5291  135.7028  153.5697 H   0  0  0  0  0  0  0  0  0  0  0  0  # atno 10764 bound_to 10752
  153.3910  135.3972  155.1888 H   0  0  0  0  0  0  0  0  0  0  0  0  # atno 10765 bound_to 10752
  140.2926  134.2848  155.7772 H   0  0  0  0  0  0  0  0  0  0  0  0  # atno 11005 bound_to 11000
  144.6882  139.9394  143.7474 LP  0  0  0  0  0  0  0  0  0  0  0  0  # atno 17320 bound_to 7965
  146.0494  139.3497  143.0649 LP  0  0  0  0  0  0  0  0  0  0  0  0  # atno 17321 bound_to 7965
  140.7766  143.5083  150.9684 LP  0  0  0  0  0  0  0  0  0  0  0  0  # atno 17342 bound_to 10162
  139.8771  143.7119  152.3161 LP  0  0  0  0  0  0  0  0  0  0  0  0  # atno 17343 bound_to 10162
  156.0470  130.3725  150.1293 LP  0  0  0  0  0  0  0  0  0  0  0  0  # atno 17370 bound_to 10713
  156.9474  130.9764  151.3505 LP  0  0  0  0  0  0  0  0  0  0  0  0  # atno 17371 bound_to 10713
  141.2143  133.7594  156.9647 LP  0  0  0  0  0  0  0  0  0  0  0  0  # atno 17394 bound_to 11000
  140.1182  134.9434  157.2165 LP  0  0  0  0  0  0  0  0  0  0  0  0  # atno 17395 bound_to 11000

$$$$
