AV-unprocessed.smi:578|AV-procd|sdf|2982|dock8
  -GOLD-   2262023493D 1   1.00000     0.00000
 Structure written by MMmdl.
 33 34  0  0  0  0  0  0  0  0  3 V2000
  150.6322  145.1888  159.4720 C   0  0  0  0  0  0  0  0  0  0  0  0
  151.7430  144.1342  159.4289 C   0  0  2  0  0  0  0  0  0  0  0  0
  151.3353  142.8969  158.6063 C   0  0  0  0  0  0  0  0  0  0  0  0
  152.3812  141.8848  158.6738 N   0  0  0  0  0  0  0  0  0  0  0  0
  152.1335  140.7752  157.8543 C   0  0  0  0  0  0  0  0  0  0  0  0
  151.6009  140.9777  156.5632 C   0  0  0  0  0  0  0  0  0  0  0  0
  151.3502  139.8635  155.7383 C   0  0  0  0  0  0  0  0  0  0  0  0
  151.6207  138.6205  156.1898 N   0  3  0  0  0  0  0  0  0  0  0  0
  152.1309  138.3691  157.4171 C   0  0  0  0  0  0  0  0  0  0  0  0
  152.3923  136.9466  157.8149 C   0  0  0  0  0  0  0  0  0  0  0  0
  152.4223  136.0688  156.9245 O   0  0  0  0  0  0  0  0  0  0  0  0
  152.5712  136.6897  159.0265 O   0  5  0  0  0  0  0  0  0  0  0  0
  152.4006  139.4536  158.2835 C   0  0  0  0  0  0  0  0  0  0  0  0
  152.7234  141.5294  160.0450 C   0  0  0  0  0  0  0  0  0  0  0  0
  153.1048  142.7934  160.8388 C   0  0  2  0  0  0  0  0  0  0  0  0
  153.3786  142.4861  162.3148 C   0  0  0  0  0  0  0  0  0  0  0  0
  152.0313  143.7297  160.7659 O   0  0  0  0  0  0  0  0  0  0  0  0
  150.3834  145.5380  158.4696 H   0  0  0  0  0  0  0  0  0  0  0  0
  150.9403  146.0549  160.0583 H   0  0  0  0  0  0  0  0  0  0  0  0
  149.7236  144.7880  159.9224 H   0  0  0  0  0  0  0  0  0  0  0  0
  152.6351  144.5877  158.9932 H   0  0  0  0  0  0  0  0  0  0  0  0
  150.3996  142.4875  158.9900 H   0  0  0  0  0  0  0  0  0  0  0  0
  151.1628  143.1780  157.5664 H   0  0  0  0  0  0  0  0  0  0  0  0
  151.3861  141.9752  156.2078 H   0  0  0  0  0  0  0  0  0  0  0  0
  150.9447  139.9272  154.7394 H   0  0  0  0  0  0  0  0  0  0  0  0
  152.8076  139.2743  159.2684 H   0  0  0  0  0  0  0  0  0  0  0  0
  151.8762  141.0337  160.5214 H   0  0  0  0  0  0  0  0  0  0  0  0
  153.5536  140.8217  160.0445 H   0  0  0  0  0  0  0  0  0  0  0  0
  154.0004  143.2430  160.4064 H   0  0  0  0  0  0  0  0  0  0  0  0
  154.2022  141.7796  162.4223 H   0  0  0  0  0  0  0  0  0  0  0  0
  152.5017  142.0541  162.7982 H   0  0  0  0  0  0  0  0  0  0  0  0
  153.6457  143.3926  162.8583 H   0  0  0  0  0  0  0  0  0  0  0  0
  151.4338  137.8228  155.5811 H   0  0  0  0  0  0  0  0  0  0  0  0
  1  2  1  0  0  0  0
  1 18  1  0  0  0  0
  1 19  1  0  0  0  0
  1 20  1  0  0  0  0
  2 17  1  0  0  0  0
  2  3  1  0  0  0  0
  2 21  1  0  0  0  0
  3  4  1  0  0  0  0
  3 22  1  0  0  0  0
  3 23  1  0  0  0  0
  4  5  1  0  0  0  0
  4 14  1  0  0  0  0
  5 13  1  0  0  0  0
  5  6  2  0  0  0  0
  6  7  1  0  0  0  0
  6 24  1  0  0  0  0
  7  8  2  0  0  0  0
  7 25  1  0  0  0  0
  8  9  1  0  0  0  0
  8 33  1  0  0  0  0
  9 10  1  0  0  0  0
  9 13  2  0  0  0  0
 10 11  2  0  0  0  0
 10 12  1  0  0  0  0
 13 26  1  0  0  0  0
 14 15  1  0  0  0  0
 14 27  1  0  0  0  0
 14 28  1  0  0  0  0
 15 16  1  0  0  0  0
 15 17  1  0  0  0  0
 15 29  1  0  0  0  0
 16 30  1  0  0  0  0
 16 31  1  0  0  0  0
 16 32  1  0  0  0  0
M  CHG  1   8   1
M  CHG  1  12  -1
M  END
> <s_m_source_file>
AV-unprocessed.smi

> <i_m_source_file_index>
578

> <i_lp_mmshare_version>
43012

> <i_f3d_flags>
0

> <s_epik_input>
W0NIM11bQ0BASF0xW0NIMl1OKFtDSDJdW0NASF0oTzEpW0NIM10pYzJbY0hdW2NIXW5jKFtjSF0yKUMoPU8pW09IXQ==

> <s_epik_cmdline>
J2VwaWtfcHl0aG9uJywgJy1waCcsICc3LjAnLCAnLXRuJywgJzgnLCAnLW1hJywgJzIwMCcsICctbWV0YWxfYmluZGluZycsICctaW1hZScsICc8aW5maWxlLm1hZT4nLCAnLW9tYWUnLCAnPG91dGZpbGUubWFlPic=

> <r_epik_Ionization_Penalty>
0.0203651

> <r_epik_Ionization_Penalty_Charging>
0.0203651

> <r_epik_Ionization_Penalty_Neutral>
3.18831e-12

> <r_epik_State_Penalty>
0.0163096

> <r_epik_Charging_Adjusted_Penalty>
0.0366747

> <i_epik_Tot_Q>
0

> <i_epik_Tot_abs_Q>
2

> <r_epik_Metal_State_Penalty>
1.99323

> <b_epik_Metal_Only>
0

> <s_lp_Force_Field>
OPLS_2005

> <r_lp_Energy>
16.452

> <b_lp_Chiralities_Consistent>
1

> <s_lp_Variant>
AV-unprocessed.smi:578-2

> <Gold.Version>
5.8.1

> <Gold.Id.Protein>
6NUR|6NUR_protein|mol2

> <Gold.PLP.Fitness>
43.2602

> <Gold.PLP.PLP>
-32.8263

> <Gold.PLP.part.hbond>
-2.0000

> <Gold.PLP.part.metal>
0.0000

> <Gold.PLP.part.buried>
-5.9472

> <Gold.PLP.part.nonpolar>
-24.5564

> <Gold.PLP.part.repulsive>
0.2032

> <Gold.PLP.ligand.clash>
0.3079

> <Gold.PLP.ligand.torsion>
0.4624

> <Gold.PLP.Chemscore.Hbond>
3.8560

> <Gold.PLP.Chemscore.CHOScore>
0.0000

> <Gold.PLP.Chemscore.Metal>
0.0000

> <Gold.Chemscore.Hbonds>
donor molecule, donor type, donor heavy atom, donor atom, acceptor molecule, acceptor atom, score
      P1  H  6896  6909       L1    12  1.79
      P1  H 10752 10763       L1    11  1.89

> <Gold.PLP.Chemscore.Internal.Correction>
0.0986

> <Gold.Rescore>
     Score         DG    S(hbond)    S(metal)    S(lipo)     H(rot)  DE(clash)    DE(int)     intcor
     19.56     -20.07       1.88        0.00      92.91       1.00       0.01       0.49       ----

> <Gold.Chemscore.Fitness>
19.5640

> <Gold.Chemscore.DG>
-20.0713

> <Gold.Chemscore.ZeroCoef>
-5.4800

> <Gold.Chemscore.Hbond>
1.8804

> <Gold.Chemscore.Metal>
0.0000

> <Gold.Chemscore.Lipo>
92.9131

> <Gold.Chemscore.Internal_Hbond>
0.0000

> <Gold.Chemscore.DEClash>
0.0149

> <Gold.Chemscore.DEInternal>
0.4925

> <Gold.Chemscore.Rot>
1.0000

> <Gold.Chemscore.Internal.Correction>
   9.000000E+99

> <Gold.Chemscore.Hbonds>
donor molecule, donor type, donor heavy atom, donor atom, acceptor molecule, acceptor atom, score
      P1  H  6896  6909       L1    12  0.85
      P1  H 10752 10763       L1    11  0.90

> <Gold.Chemscore.Hbond.Weighted>
-6.2805

> <Gold.Chemscore.Metal.Weighted>
-0.0000

> <Gold.Chemscore.Lipo.Weighted>
-10.8708

> <Gold.Chemscore.Internal_Hbond.Weighted>
0.0000

> <Gold.Chemscore.DEClash.Weighted>
0.0149

> <Gold.Chemscore.DEInternal.Weighted>
0.4925

> <Gold.Chemscore.Rot.Weighted>
2.5600

> <Gold.Chemscore.Internal.Correction.Weighted>
   9.000000E+99

> <Gold.Protein.RotatedTorsions>
[ 6907 6896 6895 6894 ] final  142.34 input  -60.11 | X-H torsion
[ 7974 7965 7964 7962 ] final  -50.49 input  175.53 | X-H torsion
[ 8008 7997 7996 7995 ] final  136.00 input   59.86 | X-H torsion
[ 10167 10162 10161 10158 ] final   -9.22 input  -65.29 | X-H torsion
[ 10718 10713 10712 10709 ] final -175.47 input   66.30 | X-H torsion
[ 10763 10752 10751 10750 ] final  117.78 input  -60.55 | X-H torsion
[ 11005 11000 10999 10996 ] final  -87.46 input  -57.11 | X-H torsion

> <Gold.Protein.ActiveResidues>
 VAL166  LYS551  ARG553  GLY616  TRP617  ASP618  TYR619  PRO620  LYS621  CYS622 
 ASP623  PHE694  ASN695  SER759  ASP760  ASP761  ALA762  ILE779  LEU786  VAL792 
 PHE793  MET794  SER795  GLU796  ALA797  LYS798  CYS799  TRP800  GLU811  SER814 

> <Gold.Protein.RotatedAtoms>
  152.2199  133.4975  159.5156 H   0  0  0  0  0  0  0  0  0  0  0  0  # atno 6907 bound_to 6896
  150.7010  134.1356  159.4095 H   0  0  0  0  0  0  0  0  0  0  0  0  # atno 6908 bound_to 6896
  151.9276  135.0270  160.0577 H   0  0  0  0  0  0  0  0  0  0  0  0  # atno 6909 bound_to 6896
  145.9292  140.7764  142.9608 H   0  0  0  0  0  0  0  0  0  0  0  0  # atno 7974 bound_to 7965
  156.3004  140.2456  156.3673 H   0  0  0  0  0  0  0  0  0  0  0  0  # atno 8008 bound_to 7997
  154.8821  140.0412  157.1808 H   0  0  0  0  0  0  0  0  0  0  0  0  # atno 8009 bound_to 7997
  154.8684  140.2931  155.5500 H   0  0  0  0  0  0  0  0  0  0  0  0  # atno 8010 bound_to 7997
  140.7081  143.5882  150.8921 H   0  0  0  0  0  0  0  0  0  0  0  0  # atno 10167 bound_to 10162
  156.8004  130.9550  151.3119 H   0  0  0  0  0  0  0  0  0  0  0  0  # atno 10718 bound_to 10713
  153.5577  135.3527  155.2786 H   0  0  0  0  0  0  0  0  0  0  0  0  # atno 10763 bound_to 10752
  154.8699  135.4129  154.2866 H   0  0  0  0  0  0  0  0  0  0  0  0  # atno 10764 bound_to 10752
  153.3605  135.7059  153.6785 H   0  0  0  0  0  0  0  0  0  0  0  0  # atno 10765 bound_to 10752
  141.1616  133.7512  156.9309 H   0  0  0  0  0  0  0  0  0  0  0  0  # atno 11005 bound_to 11000
  144.6762  140.2100  143.7378 LP  0  0  0  0  0  0  0  0  0  0  0  0  # atno 17320 bound_to 7965
  145.8448  139.2147  143.1806 LP  0  0  0  0  0  0  0  0  0  0  0  0  # atno 17321 bound_to 7965
  139.9608  143.6166  152.3003 LP  0  0  0  0  0  0  0  0  0  0  0  0  # atno 17342 bound_to 10162
  139.6718  144.7660  151.1769 LP  0  0  0  0  0  0  0  0  0  0  0  0  # atno 17343 bound_to 10162
  157.6557  130.8922  149.9723 LP  0  0  0  0  0  0  0  0  0  0  0  0  # atno 17370 bound_to 10713
  156.1105  130.3650  150.0058 LP  0  0  0  0  0  0  0  0  0  0  0  0  # atno 17371 bound_to 10713
  140.1387  134.9308  157.2437 LP  0  0  0  0  0  0  0  0  0  0  0  0  # atno 17394 bound_to 11000
  140.2864  134.3291  155.7328 LP  0  0  0  0  0  0  0  0  0  0  0  0  # atno 17395 bound_to 11000

$$$$
