AV-unprocessed.smi:1459|AV-procd|sdf|5925|dock5
  -GOLD-   22720 6 03D 1   1.00000     0.00000
 Structure written by MMmdl.
 34 35  0  0  0  0  0  0  0  0  1 V2000
  151.9494  131.6138  156.4592 C   0  0  0  0  0  0  0  0  0  0  0  0
  151.1215  132.7123  155.8867 C   0  0  0  0  0  0  0  0  0  0  0  0
  150.2275  132.7623  154.8544 C   0  0  0  0  0  0  0  0  0  0  0  0
  149.8100  134.1196  154.8588 C   0  0  0  0  0  0  0  0  0  0  0  0
  148.8642  134.5923  153.9139 N   0  0  0  0  0  0  0  0  0  0  0  0
  147.6345  134.1073  153.6727 C   0  0  0  0  0  0  0  0  0  0  0  0
  147.1286  133.1428  154.2472 O   0  0  0  0  0  0  0  0  0  0  0  0
  147.0172  134.8093  152.7107 N   0  0  0  0  0  0  0  0  0  0  0  0
  145.6826  134.5364  152.1819 C   0  0  1  0  0  0  0  0  0  0  0  0
  145.2846  135.6849  151.2421 C   0  0  0  0  0  0  0  0  0  0  0  0
  145.6715  133.1656  151.4737 C   0  0  2  0  0  0  0  0  0  0  0  0
  146.5540  133.0881  150.2262 C   0  0  0  0  0  0  0  0  0  0  0  0
  145.8929  131.9751  149.4474 C   0  0  0  0  0  0  0  0  0  0  0  0
  144.4173  132.2495  149.7144 C   0  0  0  0  0  0  0  0  0  0  0  0
  144.3607  132.8474  151.0064 O   0  0  0  0  0  0  0  0  0  0  0  0
  150.3964  134.8339  155.8074 N   0  0  0  0  0  0  0  0  0  0  0  0
  151.2398  133.9354  156.4711 O   0  0  0  0  0  0  0  0  0  0  0  0
  151.7968  130.6844  155.9103 H   0  0  0  0  0  0  0  0  0  0  0  0
  151.6892  131.4375  157.5031 H   0  0  0  0  0  0  0  0  0  0  0  0
  153.0093  131.8644  156.4118 H   0  0  0  0  0  0  0  0  0  0  0  0
  149.9230  131.9559  154.2037 H   0  0  0  0  0  0  0  0  0  0  0  0
  149.1562  135.3833  153.3597 H   0  0  0  0  0  0  0  0  0  0  0  0
  147.5155  135.5833  152.2969 H   0  0  0  0  0  0  0  0  0  0  0  0
  144.9588  134.5136  152.9985 H   0  0  0  0  0  0  0  0  0  0  0  0
  144.2687  135.5589  150.8675 H   0  0  0  0  0  0  0  0  0  0  0  0
  145.9521  135.7449  150.3820 H   0  0  0  0  0  0  0  0  0  0  0  0
  145.3208  136.6442  151.7596 H   0  0  0  0  0  0  0  0  0  0  0  0
  145.9704  132.3793  152.1693 H   0  0  0  0  0  0  0  0  0  0  0  0
  146.5032  134.0190  149.6593 H   0  0  0  0  0  0  0  0  0  0  0  0
  147.6000  132.8833  150.4557 H   0  0  0  0  0  0  0  0  0  0  0  0
  146.1439  131.9823  148.3864 H   0  0  0  0  0  0  0  0  0  0  0  0
  146.1778  131.0073  149.8623 H   0  0  0  0  0  0  0  0  0  0  0  0
  144.0240  132.9613  148.9876 H   0  0  0  0  0  0  0  0  0  0  0  0
  143.8105  131.3451  149.6662 H   0  0  0  0  0  0  0  0  0  0  0  0
  1  2  1  0  0  0  0
  1 18  1  0  0  0  0
  1 19  1  0  0  0  0
  1 20  1  0  0  0  0
  2 17  1  0  0  0  0
  2  3  2  0  0  0  0
  3  4  1  0  0  0  0
  3 21  1  0  0  0  0
  4  5  1  0  0  0  0
  4 16  2  0  0  0  0
  5  6  1  0  0  0  0
  5 22  1  0  0  0  0
  6  7  2  0  0  0  0
  6  8  1  0  0  0  0
  8  9  1  0  0  0  0
  8 23  1  0  0  0  0
  9 10  1  0  0  0  0
  9 11  1  0  0  0  0
  9 24  1  0  0  0  0
 10 25  1  0  0  0  0
 10 26  1  0  0  0  0
 10 27  1  0  0  0  0
 11 15  1  0  0  0  0
 11 12  1  0  0  0  0
 11 28  1  0  0  0  0
 12 13  1  0  0  0  0
 12 29  1  0  0  0  0
 12 30  1  0  0  0  0
 13 14  1  0  0  0  0
 13 31  1  0  0  0  0
 13 32  1  0  0  0  0
 14 15  1  0  0  0  0
 14 33  1  0  0  0  0
 14 34  1  0  0  0  0
 16 17  1  0  0  0  0
M  END
> <s_m_source_file>
AV-unprocessed.smi

> <i_m_source_file_index>
1459

> <i_lp_mmshare_version>
43012

> <i_f3d_flags>
0

> <s_epik_input>
W0NIM11jMVtjSF1jKG5vMSlbTkhdQyg9TylbTkhdW0NASF0oW0NIM10pW0NAQEhdMltDSDJdW0NIMl1bQ0gyXU8y

> <s_epik_cmdline>
J2VwaWtfcHl0aG9uJywgJy1waCcsICc3LjAnLCAnLXRuJywgJzgnLCAnLW1hJywgJzIwMCcsICctbWV0YWxfYmluZGluZycsICctaW1hZScsICc8aW5maWxlLm1hZT4nLCAnLW9tYWUnLCAnPG91dGZpbGUubWFlPic=

> <r_lp_tautomer_probability>
1

> <r_epik_Ionization_Penalty>
2.20869e-05

> <r_epik_Ionization_Penalty_Charging>
0

> <r_epik_Ionization_Penalty_Neutral>
2.20869e-05

> <r_epik_State_Penalty>
-0

> <r_epik_Charging_Adjusted_Penalty>
0

> <i_epik_Tot_Q>
0

> <i_epik_Tot_abs_Q>
0

> <r_epik_Metal_State_Penalty>
-0

> <b_epik_Metal_Only>
0

> <s_lp_Force_Field>
OPLS_2005

> <r_lp_Energy>
15.9423

> <b_lp_Chiralities_Consistent>
1

> <s_lp_Variant>
AV-unprocessed.smi:1459-2

> <Gold.Version>
5.8.1

> <Gold.Id.Protein>
6NUR|6NUR_protein|mol2

> <Gold.PLP.Fitness>
33.9917

> <Gold.PLP.PLP>
-29.3131

> <Gold.PLP.part.hbond>
-2.4699

> <Gold.PLP.part.metal>
0.0000

> <Gold.PLP.part.buried>
-4.0175

> <Gold.PLP.part.nonpolar>
-23.1001

> <Gold.PLP.part.repulsive>
0.2328

> <Gold.PLP.ligand.clash>
0.0000

> <Gold.PLP.ligand.torsion>
0.5581

> <Gold.PLP.Chemscore.Hbond>
1.9280

> <Gold.PLP.Chemscore.CHOScore>
0.0000

> <Gold.PLP.Chemscore.Metal>
0.0000

> <Gold.Chemscore.Hbonds>
donor molecule, donor type, donor heavy atom, donor atom, acceptor molecule, acceptor atom, score
      L1  H     5    22       P1  7948  0.91
      L1  H     8    23       P1  7948  0.94

> <Gold.PLP.Chemscore.Internal.Correction>
0.0107

> <Gold.Rescore>
     Score         DG    S(hbond)    S(metal)    S(lipo)     H(rot)  DE(clash)    DE(int)     intcor
     13.53     -15.08       1.62        0.00      63.80       1.28       0.07       1.48       ----

> <Gold.Chemscore.Fitness>
13.5342

> <Gold.Chemscore.DG>
-15.0828

> <Gold.Chemscore.ZeroCoef>
-5.4800

> <Gold.Chemscore.Hbond>
1.6196

> <Gold.Chemscore.Metal>
0.0000

> <Gold.Chemscore.Lipo>
63.7964

> <Gold.Chemscore.Internal_Hbond>
0.0000

> <Gold.Chemscore.DEClash>
0.0707

> <Gold.Chemscore.DEInternal>
1.4778

> <Gold.Chemscore.Rot>
1.2776

> <Gold.Chemscore.Internal.Correction>
   9.000000E+99

> <Gold.Chemscore.Hbonds>
donor molecule, donor type, donor heavy atom, donor atom, acceptor molecule, acceptor atom, score
      L1  H     5    22       P1  7948  0.31
      L1  H     8    23       P1  7948  0.90

> <Gold.Chemscore.Hbond.Weighted>
-5.4093

> <Gold.Chemscore.Metal.Weighted>
-0.0000

> <Gold.Chemscore.Lipo.Weighted>
-7.4642

> <Gold.Chemscore.Internal_Hbond.Weighted>
0.0000

> <Gold.Chemscore.DEClash.Weighted>
0.0707

> <Gold.Chemscore.DEInternal.Weighted>
1.4778

> <Gold.Chemscore.Rot.Weighted>
3.2707

> <Gold.Chemscore.Internal.Correction.Weighted>
   9.000000E+99

> <Gold.Protein.RotatedTorsions>
[ 6907 6896 6895 6894 ] final  -91.03 input  -60.11 | X-H torsion
[ 7974 7965 7964 7962 ] final -112.80 input  175.53 | X-H torsion
[ 8008 7997 7996 7995 ] final    1.02 input   59.86 | X-H torsion
[ 10167 10162 10161 10158 ] final -156.59 input  -65.29 | X-H torsion
[ 10718 10713 10712 10709 ] final  123.72 input   66.30 | X-H torsion
[ 10763 10752 10751 10750 ] final  -28.57 input  -60.55 | X-H torsion
[ 11005 11000 10999 10996 ] final -163.05 input  -57.11 | X-H torsion

> <Gold.Protein.ActiveResidues>
 VAL166  LYS551  ARG553  GLY616  TRP617  ASP618  TYR619  PRO620  LYS621  CYS622 
 ASP623  PHE694  ASN695  SER759  ASP760  ASP761  ALA762  ILE779  LEU786  VAL792 
 PHE793  MET794  SER795  GLU796  ALA797  LYS798  CYS799  TRP800  GLU811  SER814 

> <Gold.Protein.RotatedAtoms>
  150.6888  134.2340  159.4445 H   0  0  0  0  0  0  0  0  0  0  0  0  # atno 6907 bound_to 6896
  152.0289  134.9777  160.0581 H   0  0  0  0  0  0  0  0  0  0  0  0  # atno 6908 bound_to 6896
  152.1324  133.4381  159.4764 H   0  0  0  0  0  0  0  0  0  0  0  0  # atno 6909 bound_to 6896
  145.1397  140.8771  143.3709 H   0  0  0  0  0  0  0  0  0  0  0  0  # atno 7974 bound_to 7965
  154.6748  140.2620  155.6969 H   0  0  0  0  0  0  0  0  0  0  0  0  # atno 8008 bound_to 7997
  156.2673  140.2822  156.1193 H   0  0  0  0  0  0  0  0  0  0  0  0  # atno 8009 bound_to 7997
  155.1116  140.0375  157.2715 H   0  0  0  0  0  0  0  0  0  0  0  0  # atno 8010 bound_to 7997
  139.6838  143.9536  152.2350 H   0  0  0  0  0  0  0  0  0  0  0  0  # atno 10167 bound_to 10162
  157.5643  131.1087  150.8483 H   0  0  0  0  0  0  0  0  0  0  0  0  # atno 10718 bound_to 10713
  153.7505  135.6926  153.4947 H   0  0  0  0  0  0  0  0  0  0  0  0  # atno 10763 bound_to 10752
  153.2007  135.4438  155.0261 H   0  0  0  0  0  0  0  0  0  0  0  0  # atno 10764 bound_to 10752
  154.8189  135.3412  154.7026 H   0  0  0  0  0  0  0  0  0  0  0  0  # atno 10765 bound_to 10752
  140.6024  134.4934  157.5206 H   0  0  0  0  0  0  0  0  0  0  0  0  # atno 11005 bound_to 11000
  145.0546  139.3154  143.5911 LP  0  0  0  0  0  0  0  0  0  0  0  0  # atno 17320 bound_to 7965
  146.3506  139.9966  142.8680 LP  0  0  0  0  0  0  0  0  0  0  0  0  # atno 17321 bound_to 7965
  139.9333  144.6728  150.8340 LP  0  0  0  0  0  0  0  0  0  0  0  0  # atno 17342 bound_to 10162
  140.7661  143.3294  151.2444 LP  0  0  0  0  0  0  0  0  0  0  0  0  # atno 17343 bound_to 10162
  156.8972  130.5234  149.5284 LP  0  0  0  0  0  0  0  0  0  0  0  0  # atno 17370 bound_to 10713
  156.0692  130.5729  150.9350 LP  0  0  0  0  0  0  0  0  0  0  0  0  # atno 17371 bound_to 10713
  139.9227  134.8117  156.1163 LP  0  0  0  0  0  0  0  0  0  0  0  0  # atno 17394 bound_to 11000
  141.0863  133.6733  156.2444 LP  0  0  0  0  0  0  0  0  0  0  0  0  # atno 17395 bound_to 11000

$$$$
