AV-unprocessed.smi:157|AV-procd|sdf|1321|dock4
  -GOLD-   2262019 13D 1   1.00000     0.00000
 Structure written by MMmdl.
 36 38  0  0  0  0  0  0  0  0  2 V2000
  149.6106  135.8569  154.6606 O   0  0  0  0  0  0  0  0  0  0  0  0
  149.2862  136.7977  155.6616 C   0  0  0  0  0  0  0  0  0  0  0  0
  150.1365  138.0690  155.4938 C   0  0  1  0  0  0  0  0  0  0  0  0
  150.4016  138.6793  156.7529 O   0  0  0  0  0  0  0  0  0  0  0  0
  151.6004  139.3973  156.6995 C   0  0  2  0  0  0  0  0  0  0  0  0
  151.2995  140.8522  156.8703 N   0  0  0  0  0  0  0  0  0  0  0  0
  150.4776  141.6035  156.1066 C   0  0  0  0  0  0  0  0  0  0  0  0
  150.4001  142.8712  156.4745 N   0  3  0  0  0  0  0  0  0  0  0  0
  151.2294  143.0130  157.5669 C   0  0  0  0  0  0  0  0  0  0  0  0
  151.7725  141.7473  157.8015 C   0  0  0  0  0  0  0  0  0  0  0  0
  152.6780  141.3259  158.7871 N   0  0  0  0  0  0  0  0  0  0  0  0
  152.9345  142.0193  159.8484 C   0  0  0  0  0  0  0  0  0  0  0  0
  152.4881  143.2839  160.1940 N   0  0  0  0  0  0  0  0  0  0  0  0
  152.5009  144.4071  159.2737 C   0  0  0  0  0  0  0  0  0  0  0  0
  151.3896  144.3517  158.2168 C   0  0  2  0  0  0  0  0  0  0  0  0
  150.1899  144.8185  158.7984 O   0  0  0  0  0  0  0  0  0  0  0  0
  152.2323  139.1522  155.3243 C   0  0  0  0  0  0  0  0  0  0  0  0
  151.5228  137.8971  154.8585 C   0  0  1  0  0  0  0  0  0  0  0  0
  152.1901  136.7411  155.3284 O   0  0  0  0  0  0  0  0  0  0  0  0
  149.5749  138.7975  154.9061 H   0  0  0  0  0  0  0  0  0  0  0  0
  152.2421  139.1293  157.5395 H   0  0  0  0  0  0  0  0  0  0  0  0
  151.6427  145.0694  157.4356 H   0  0  0  0  0  0  0  0  0  0  0  0
  151.4663  137.8446  153.7708 H   0  0  0  0  0  0  0  0  0  0  0  0
  149.0813  136.0348  153.8978 H   0  0  0  0  0  0  0  0  0  0  0  0
  148.2284  137.0441  155.5694 H   0  0  0  0  0  0  0  0  0  0  0  0
  149.4219  136.3505  156.6465 H   0  0  0  0  0  0  0  0  0  0  0  0
  149.9346  141.2031  155.2694 H   0  0  0  0  0  0  0  0  0  0  0  0
  153.5959  141.5981  160.6069 H   0  0  0  0  0  0  0  0  0  0  0  0
  152.5990  143.5890  161.1506 H   0  0  0  0  0  0  0  0  0  0  0  0
  152.4561  145.3418  159.8337 H   0  0  0  0  0  0  0  0  0  0  0  0
  153.4684  144.4032  158.7692 H   0  0  0  0  0  0  0  0  0  0  0  0
  149.6423  145.1796  158.1185 H   0  0  0  0  0  0  0  0  0  0  0  0
  151.9962  139.9813  154.6549 H   0  0  0  0  0  0  0  0  0  0  0  0
  153.3165  139.0575  155.3949 H   0  0  0  0  0  0  0  0  0  0  0  0
  151.7076  136.3952  156.0639 H   0  0  0  0  0  0  0  0  0  0  0  0
  149.8458  143.5929  156.0317 H   0  0  0  0  0  0  0  0  0  0  0  0
  1  2  1  0  0  0  0
  1 24  1  0  0  0  0
  2  3  1  0  0  0  0
  2 25  1  0  0  0  0
  2 26  1  0  0  0  0
  3 20  1  0  0  0  0
  3 18  1  0  0  0  0
  3  4  1  0  0  0  0
  4  5  1  0  0  0  0
  5 21  1  0  0  0  0
  5  6  1  0  0  0  0
  5 17  1  0  0  0  0
  6 10  1  0  0  0  0
  6  7  1  0  0  0  0
  7  8  2  0  0  0  0
  7 27  1  0  0  0  0
  8  9  1  0  0  0  0
  8 36  1  0  0  0  0
  9 15  1  0  0  0  0
  9 10  2  0  0  0  0
 10 11  1  0  0  0  0
 11 12  2  0  0  0  0
 12 13  1  0  0  0  0
 12 28  1  0  0  0  0
 13 14  1  0  0  0  0
 13 29  1  0  0  0  0
 14 15  1  0  0  0  0
 14 30  1  0  0  0  0
 14 31  1  0  0  0  0
 15 22  1  0  0  0  0
 15 16  1  0  0  0  0
 16 32  1  0  0  0  0
 17 18  1  0  0  0  0
 17 33  1  0  0  0  0
 17 34  1  0  0  0  0
 18 23  1  0  0  0  0
 18 19  1  0  0  0  0
 19 35  1  0  0  0  0
M  CHG  1   8   1
M  END
> <s_m_source_file>
AV-unprocessed.smi

> <i_m_source_file_index>
157

> <i_lp_mmshare_version>
43012

> <i_f3d_flags>
0

> <s_epik_input>
W09IXVtDSDJdW0NASF0xT1tDQEhdKFtDSDJdW0NAQEhdMVtPSF0pbihbY0hdbjIpYyhjMjMpTj1bQ0hdW05IXVtDSDJdW0NASF0zW09IXQ==

> <s_epik_cmdline>
J2VwaWtfcHl0aG9uJywgJy1waCcsICc3LjAnLCAnLXRuJywgJzgnLCAnLW1hJywgJzIwMCcsICctbWV0YWxfYmluZGluZycsICctaW1hZScsICc8aW5maWxlLm1hZT4nLCAnLW9tYWUnLCAnPG91dGZpbGUubWFlPic=

> <r_epik_Ionization_Penalty>
1.68594

> <r_epik_Ionization_Penalty_Charging>
0

> <r_epik_Ionization_Penalty_Neutral>
1.68594

> <r_epik_State_Penalty>
1.79006

> <r_epik_Charging_Adjusted_Penalty>
1.79006

> <i_epik_Tot_Q>
1

> <i_epik_Tot_abs_Q>
1

> <r_epik_Metal_State_Penalty>
5.85324

> <b_epik_Metal_Only>
0

> <s_epik_Chemistry_Notes>
This compound has an imine and may undergo hydrolysis. This compound contains an acetal/aminal-like group ( X-CH(R)-Y where X, Y are N, S, or O) that may be acid/base labile, releasing an aldehyde.

> <s_lp_Force_Field>
OPLS_2005

> <r_lp_Energy>
54.2112

> <b_lp_Chiralities_Consistent>
1

> <s_lp_Variant>
AV-unprocessed.smi:157-31

> <Gold.Version>
5.8.1

> <Gold.Id.Protein>
6NUR|6NUR_protein|mol2

> <Gold.PLP.Fitness>
50.7736

> <Gold.PLP.PLP>
-36.6144

> <Gold.PLP.part.hbond>
-3.7642

> <Gold.PLP.part.metal>
0.0000

> <Gold.PLP.part.buried>
-7.3651

> <Gold.PLP.part.nonpolar>
-27.4435

> <Gold.PLP.part.repulsive>
0.1394

> <Gold.PLP.ligand.clash>
0.0000

> <Gold.PLP.ligand.torsion>
0.4110

> <Gold.PLP.Chemscore.Hbond>
4.9920

> <Gold.PLP.Chemscore.CHOScore>
0.0000

> <Gold.PLP.Chemscore.Metal>
0.0000

> <Gold.Chemscore.Hbonds>
donor molecule, donor type, donor heavy atom, donor atom, acceptor molecule, acceptor atom, score
      L1  H     1    24       P1  7948  0.94
      L1  H     8    36       P1  8028  1.95
      L1  H    16    32       P1  8029  0.89
      P1  H 10752 10763       L1    19  0.98

> <Gold.PLP.Chemscore.Internal.Correction>
0.0052

> <Gold.Rescore>
     Score         DG    S(hbond)    S(metal)    S(lipo)     H(rot)  DE(clash)    DE(int)     intcor
     12.86     -13.31       3.31        0.00      52.60       3.67       0.00       0.44       ----

> <Gold.Chemscore.Fitness>
12.8640

> <Gold.Chemscore.DG>
-13.3067

> <Gold.Chemscore.ZeroCoef>
-5.4800

> <Gold.Chemscore.Hbond>
3.3106

> <Gold.Chemscore.Metal>
0.0000

> <Gold.Chemscore.Lipo>
52.5984

> <Gold.Chemscore.Internal_Hbond>
0.0000

> <Gold.Chemscore.DEClash>
0.0000

> <Gold.Chemscore.DEInternal>
0.4428

> <Gold.Chemscore.Rot>
3.6659

> <Gold.Chemscore.Internal.Correction>
   9.000000E+99

> <Gold.Chemscore.Hbonds>
donor molecule, donor type, donor heavy atom, donor atom, acceptor molecule, acceptor atom, score
      L1  H     1    24       P1  7948  0.80
      L1  H     8    36       P1  8028  0.92
      L1  H    16    32       P1  8029  0.22
      P1  H 10752 10763       L1    19  0.52

> <Gold.Chemscore.Hbond.Weighted>
-11.0576

> <Gold.Chemscore.Metal.Weighted>
-0.0000

> <Gold.Chemscore.Lipo.Weighted>
-6.1540

> <Gold.Chemscore.Internal_Hbond.Weighted>
0.0000

> <Gold.Chemscore.DEClash.Weighted>
0.0000

> <Gold.Chemscore.DEInternal.Weighted>
0.4428

> <Gold.Chemscore.Rot.Weighted>
9.3848

> <Gold.Chemscore.Internal.Correction.Weighted>
   9.000000E+99

> <Gold.Protein.RotatedTorsions>
[ 6907 6896 6895 6894 ] final   15.47 input  -60.11 | X-H torsion
[ 7974 7965 7964 7962 ] final  -23.35 input  175.53 | X-H torsion
[ 8008 7997 7996 7995 ] final  175.64 input   59.86 | X-H torsion
[ 10167 10162 10161 10158 ] final  -72.67 input  -65.29 | X-H torsion
[ 10718 10713 10712 10709 ] final  -69.58 input   66.30 | X-H torsion
[ 10763 10752 10751 10750 ] final   68.43 input  -60.55 | X-H torsion
[ 11005 11000 10999 10996 ] final  106.08 input  -57.11 | X-H torsion

> <Gold.Protein.ActiveResidues>
 VAL166  LYS551  ARG553  GLY616  TRP617  ASP618  TYR619  PRO620  LYS621  CYS622 
 ASP623  PHE694  ASN695  SER759  ASP760  ASP761  ALA762  ILE779  LEU786  VAL792 
 PHE793  MET794  SER795  GLU796  ALA797  LYS798  CYS799  TRP800  GLU811  SER814 

> <Gold.Protein.RotatedAtoms>
  151.8186  135.0659  160.0421 H   0  0  0  0  0  0  0  0  0  0  0  0  # atno 6907 bound_to 6896
  152.2968  133.5611  159.5601 H   0  0  0  0  0  0  0  0  0  0  0  0  # atno 6908 bound_to 6896
  150.7255  134.0265  159.3761 H   0  0  0  0  0  0  0  0  0  0  0  0  # atno 6909 bound_to 6896
  146.1621  140.4604  142.8567 H   0  0  0  0  0  0  0  0  0  0  0  0  # atno 7974 bound_to 7965
  156.0849  140.1404  156.9665 H   0  0  0  0  0  0  0  0  0  0  0  0  # atno 8008 bound_to 7997
  154.4607  140.0944  156.6933 H   0  0  0  0  0  0  0  0  0  0  0  0  # atno 8009 bound_to 7997
  155.5015  140.3451  155.4374 H   0  0  0  0  0  0  0  0  0  0  0  0  # atno 8010 bound_to 7997
  140.5173  143.2336  151.7491 H   0  0  0  0  0  0  0  0  0  0  0  0  # atno 10167 bound_to 10162
  156.0449  130.4315  150.2168 H   0  0  0  0  0  0  0  0  0  0  0  0  # atno 10718 bound_to 10713
  153.0235  135.5248  154.7133 H   0  0  0  0  0  0  0  0  0  0  0  0  # atno 10763 bound_to 10752
  154.6209  135.2889  155.0329 H   0  0  0  0  0  0  0  0  0  0  0  0  # atno 10764 bound_to 10752
  154.1316  135.6592  153.4976 H   0  0  0  0  0  0  0  0  0  0  0  0  # atno 10765 bound_to 10752
  139.8809  134.9357  156.5612 H   0  0  0  0  0  0  0  0  0  0  0  0  # atno 11005 bound_to 11000
  144.8041  140.6268  143.6458 LP  0  0  0  0  0  0  0  0  0  0  0  0  # atno 17320 bound_to 7965
  145.4561  139.1518  143.3891 LP  0  0  0  0  0  0  0  0  0  0  0  0  # atno 17321 bound_to 7965
  139.4913  144.4305  151.9877 LP  0  0  0  0  0  0  0  0  0  0  0  0  # atno 17342 bound_to 10162
  140.3400  144.3214  150.5969 LP  0  0  0  0  0  0  0  0  0  0  0  0  # atno 17343 bound_to 10162
  157.0259  130.9993  151.3326 LP  0  0  0  0  0  0  0  0  0  0  0  0  # atno 17370 bound_to 10713
  157.5311  130.8059  149.7918 LP  0  0  0  0  0  0  0  0  0  0  0  0  # atno 17371 bound_to 10713
  140.8168  133.8386  155.8859 LP  0  0  0  0  0  0  0  0  0  0  0  0  # atno 17394 bound_to 11000
  140.9456  134.1845  157.4766 LP  0  0  0  0  0  0  0  0  0  0  0  0  # atno 17395 bound_to 11000

$$$$
