AV-unprocessed.smi:1236|AV-procd|sdf|5180|dock5
  -GOLD-   22720 4263D 1   1.00000     0.00000
 Structure written by MMmdl.
 39 40  0  0  0  0  0  0  0  0  1 V2000
  146.2466  138.2071  155.2580 C   0  0  0  0  0  0  0  0  0  0  0  0
  146.2968  138.5239  153.7575 C   0  0  1  0  0  0  0  0  0  0  0  0
  147.3726  139.5867  153.4463 C   0  0  0  0  0  0  0  0  0  0  0  0
  148.4749  139.6733  154.4055 N   0  0  0  0  0  0  0  0  0  0  0  0
  149.5715  138.7595  154.0919 C   0  0  0  0  0  0  0  0  0  0  0  0
  150.7196  138.8761  155.1089 C   0  0  0  0  0  0  0  0  0  0  0  0
  151.1798  140.2228  155.1588 O   0  0  0  0  0  0  0  0  0  0  0  0
  150.1488  141.1431  155.5017 C   0  0  0  0  0  0  0  0  0  0  0  0
  148.9997  141.0318  154.4851 C   0  0  0  0  0  0  0  0  0  0  0  0
  146.5741  137.2930  153.0182 N   0  0  0  0  0  0  0  0  0  0  0  0
  145.6566  136.4285  152.5589 C   0  0  0  0  0  0  0  0  0  0  0  0
  144.4453  136.5589  152.7382 O   0  0  0  0  0  0  0  0  0  0  0  0
  146.2367  135.4218  151.8819 N   0  0  0  0  0  0  0  0  0  0  0  0
  145.6109  134.3217  151.2371 C   0  0  0  0  0  0  0  0  0  0  0  0
  146.4963  133.3933  150.6442 C   0  0  0  0  0  0  0  0  0  0  0  0
  145.9755  132.2666  149.9788 C   0  0  0  0  0  0  0  0  0  0  0  0
  144.5806  132.0963  149.9242 C   0  0  0  0  0  0  0  0  0  0  0  0
  143.7698  133.0666  150.5412 C   0  0  0  0  0  0  0  0  0  0  0  0
  144.2668  134.1473  151.1788 N   0  0  0  0  0  0  0  0  0  0  0  0
  146.0237  139.1019  155.8395 H   0  0  0  0  0  0  0  0  0  0  0  0
  147.1973  137.8078  155.6135 H   0  0  0  0  0  0  0  0  0  0  0  0
  145.4725  137.4711  155.4781 H   0  0  0  0  0  0  0  0  0  0  0  0
  145.3149  138.9151  153.4892 H   0  0  0  0  0  0  0  0  0  0  0  0
  147.7751  139.4109  152.4475 H   0  0  0  0  0  0  0  0  0  0  0  0
  146.8749  140.5562  153.3971 H   0  0  0  0  0  0  0  0  0  0  0  0
  149.2197  137.7292  154.0844 H   0  0  0  0  0  0  0  0  0  0  0  0
  149.9524  138.9672  153.0911 H   0  0  0  0  0  0  0  0  0  0  0  0
  150.3898  138.5592  156.0994 H   0  0  0  0  0  0  0  0  0  0  0  0
  151.5470  138.2263  154.8239 H   0  0  0  0  0  0  0  0  0  0  0  0
  149.7910  140.9395  156.5120 H   0  0  0  0  0  0  0  0  0  0  0  0
  150.5582  142.1533  155.5035 H   0  0  0  0  0  0  0  0  0  0  0  0
  149.3544  141.3501  153.5036 H   0  0  0  0  0  0  0  0  0  0  0  0
  148.2029  141.7210  154.7674 H   0  0  0  0  0  0  0  0  0  0  0  0
  147.5442  137.0996  152.8181 H   0  0  0  0  0  0  0  0  0  0  0  0
  147.2430  135.4499  151.8126 H   0  0  0  0  0  0  0  0  0  0  0  0
  147.5655  133.5395  150.6958 H   0  0  0  0  0  0  0  0  0  0  0  0
  146.6353  131.5462  149.5187 H   0  0  0  0  0  0  0  0  0  0  0  0
  144.1435  131.2450  149.4237 H   0  0  0  0  0  0  0  0  0  0  0  0
  142.6941  132.9731  150.5229 H   0  0  0  0  0  0  0  0  0  0  0  0
  1  2  1  0  0  0  0
  1 20  1  0  0  0  0
  1 21  1  0  0  0  0
  1 22  1  0  0  0  0
  2  3  1  0  0  0  0
  2 10  1  0  0  0  0
  2 23  1  0  0  0  0
  3  4  1  0  0  0  0
  3 24  1  0  0  0  0
  3 25  1  0  0  0  0
  4  9  1  0  0  0  0
  4  5  1  0  0  0  0
  5  6  1  0  0  0  0
  5 26  1  0  0  0  0
  5 27  1  0  0  0  0
  6  7  1  0  0  0  0
  6 28  1  0  0  0  0
  6 29  1  0  0  0  0
  7  8  1  0  0  0  0
  8  9  1  0  0  0  0
  8 30  1  0  0  0  0
  8 31  1  0  0  0  0
  9 32  1  0  0  0  0
  9 33  1  0  0  0  0
 10 11  1  0  0  0  0
 10 34  1  0  0  0  0
 11 12  2  0  0  0  0
 11 13  1  0  0  0  0
 13 14  1  0  0  0  0
 13 35  1  0  0  0  0
 14 19  1  0  0  0  0
 14 15  2  0  0  0  0
 15 16  1  0  0  0  0
 15 36  1  0  0  0  0
 16 17  2  0  0  0  0
 16 37  1  0  0  0  0
 17 18  1  0  0  0  0
 17 38  1  0  0  0  0
 18 19  2  0  0  0  0
 18 39  1  0  0  0  0
M  END
> <s_m_source_file>
AV-unprocessed.smi

> <i_m_source_file_index>
1236

> <i_lp_mmshare_version>
43012

> <i_f3d_flags>
0

> <s_epik_input>
W0NIMl0xW0NIMl1PW0NIMl1bQ0gyXU4xW0NIMl1bQ0BASF0oW0NIM10pW05IXUMoPU8pW05IXWMyW2NIXVtjSF1bY0hdW2NIXW4y

> <s_epik_cmdline>
J2VwaWtfcHl0aG9uJywgJy1waCcsICc3LjAnLCAnLXRuJywgJzgnLCAnLW1hJywgJzIwMCcsICctbWV0YWxfYmluZGluZycsICctaW1hZScsICc8aW5maWxlLm1hZT4nLCAnLW9tYWUnLCAnPG91dGZpbGUubWFlPic=

> <r_epik_Ionization_Penalty>
0.26604

> <r_epik_Ionization_Penalty_Charging>
0

> <r_epik_Ionization_Penalty_Neutral>
0.26604

> <r_epik_State_Penalty>
0.257924

> <r_epik_Charging_Adjusted_Penalty>
0.257924

> <i_epik_Tot_Q>
0

> <i_epik_Tot_abs_Q>
0

> <r_epik_Metal_State_Penalty>
0.257923

> <b_epik_Metal_Only>
0

> <s_lp_Force_Field>
OPLS_2005

> <r_lp_Energy>
27.6221

> <b_lp_Chiralities_Consistent>
1

> <s_lp_Variant>
AV-unprocessed.smi:1236-2

> <Gold.Version>
5.8.1

> <Gold.Id.Protein>
6NUR|6NUR_protein|mol2

> <Gold.PLP.Fitness>
42.7918

> <Gold.PLP.PLP>
-33.1866

> <Gold.PLP.part.hbond>
-3.0000

> <Gold.PLP.part.metal>
0.0000

> <Gold.PLP.part.buried>
-5.2290

> <Gold.PLP.part.nonpolar>
-26.2748

> <Gold.PLP.part.repulsive>
0.5201

> <Gold.PLP.ligand.clash>
0.0000

> <Gold.PLP.ligand.torsion>
1.2132

> <Gold.PLP.Chemscore.Hbond>
3.0000

> <Gold.PLP.Chemscore.CHOScore>
1.0000

> <Gold.PLP.Chemscore.Metal>
0.0000

> <Gold.Chemscore.Hbonds>
donor molecule, donor type, donor heavy atom, donor atom, acceptor molecule, acceptor atom, score
      L1  H    10    34       P1  7948  1.00
      L1  H    13    35       P1  7948  1.00
      P1  H  7989  7998       L1     7  1.00
      L1  C    18    39       P1 10186  1.00

> <Gold.PLP.Chemscore.Internal.Correction>
0.0317

> <Gold.Rescore>
     Score         DG    S(hbond)    S(metal)    S(lipo)     H(rot)  DE(clash)    DE(int)     intcor
     16.79     -19.51       2.61        0.00      78.52       1.51       0.18       2.55       ----

> <Gold.Chemscore.Fitness>
16.7872

> <Gold.Chemscore.DG>
-19.5110

> <Gold.Chemscore.ZeroCoef>
-5.4800

> <Gold.Chemscore.Hbond>
2.6079

> <Gold.Chemscore.Metal>
0.0000

> <Gold.Chemscore.Lipo>
78.5229

> <Gold.Chemscore.Internal_Hbond>
0.0000

> <Gold.Chemscore.DEClash>
0.1773

> <Gold.Chemscore.DEInternal>
2.5465

> <Gold.Chemscore.Rot>
1.5104

> <Gold.Chemscore.Internal.Correction>
   9.000000E+99

> <Gold.Chemscore.Hbonds>
donor molecule, donor type, donor heavy atom, donor atom, acceptor molecule, acceptor atom, score
      L1  H    10    34       P1  7948  0.97
      L1  H    13    35       P1  7948  0.99
      P1  H  7989  7998       L1     7  0.21

> <Gold.Chemscore.Hbond.Weighted>
-8.7103

> <Gold.Chemscore.Metal.Weighted>
-0.0000

> <Gold.Chemscore.Lipo.Weighted>
-9.1872

> <Gold.Chemscore.Internal_Hbond.Weighted>
0.0000

> <Gold.Chemscore.DEClash.Weighted>
0.1773

> <Gold.Chemscore.DEInternal.Weighted>
2.5465

> <Gold.Chemscore.Rot.Weighted>
3.8665

> <Gold.Chemscore.Internal.Correction.Weighted>
   9.000000E+99

> <Gold.Protein.RotatedTorsions>
[ 6907 6896 6895 6894 ] final   54.97 input  -60.11 | X-H torsion
[ 7974 7965 7964 7962 ] final  -79.58 input  175.53 | X-H torsion
[ 8008 7997 7996 7995 ] final  136.25 input   59.86 | X-H torsion
[ 10167 10162 10161 10158 ] final  158.54 input  -65.29 | X-H torsion
[ 10718 10713 10712 10709 ] final   62.08 input   66.30 | X-H torsion
[ 10763 10752 10751 10750 ] final -171.70 input  -60.55 | X-H torsion
[ 11005 11000 10999 10996 ] final  -36.38 input  -57.11 | X-H torsion

> <Gold.Protein.ActiveResidues>
 VAL166  LYS551  ARG553  GLY616  TRP617  ASP618  TYR619  PRO620  LYS621  CYS622 
 ASP623  PHE694  ASN695  SER759  ASP760  ASP761  ALA762  ILE779  LEU786  VAL792 
 PHE793  MET794  SER795  GLU796  ALA797  LYS798  CYS799  TRP800  GLU811  SER814 

> <Gold.Protein.RotatedAtoms>
  152.3492  134.7029  160.0241 H   0  0  0  0  0  0  0  0  0  0  0  0  # atno 6907 bound_to 6896
  151.7388  133.3315  159.3368 H   0  0  0  0  0  0  0  0  0  0  0  0  # atno 6908 bound_to 6896
  150.7529  134.6230  159.6190 H   0  0  0  0  0  0  0  0  0  0  0  0  # atno 6909 bound_to 6896
  145.5713  140.9465  143.1394 H   0  0  0  0  0  0  0  0  0  0  0  0  # atno 7974 bound_to 7965
  156.3004  140.2450  156.3715 H   0  0  0  0  0  0  0  0  0  0  0  0  # atno 8008 bound_to 7997
  154.8784  140.0413  157.1787 H   0  0  0  0  0  0  0  0  0  0  0  0  # atno 8009 bound_to 7997
  154.8721  140.2936  155.5479 H   0  0  0  0  0  0  0  0  0  0  0  0  # atno 8010 bound_to 7997
  139.4827  144.4815  151.8437 H   0  0  0  0  0  0  0  0  0  0  0  0  # atno 10167 bound_to 10162
  157.5875  130.9030  149.9542 H   0  0  0  0  0  0  0  0  0  0  0  0  # atno 10718 bound_to 10713
  154.6275  135.2882  155.0254 H   0  0  0  0  0  0  0  0  0  0  0  0  # atno 10763 bound_to 10752
  154.1427  135.6516  153.4949 H   0  0  0  0  0  0  0  0  0  0  0  0  # atno 10764 bound_to 10752
  153.0264  135.5337  154.7090 H   0  0  0  0  0  0  0  0  0  0  0  0  # atno 10765 bound_to 10752
  140.9870  133.7025  156.1783 H   0  0  0  0  0  0  0  0  0  0  0  0  # atno 11005 bound_to 11000
  144.7436  139.7380  143.7301 LP  0  0  0  0  0  0  0  0  0  0  0  0  # atno 17320 bound_to 7965
  146.1782  139.4962  142.9883 LP  0  0  0  0  0  0  0  0  0  0  0  0  # atno 17321 bound_to 7965
  140.4292  144.2139  150.5887 LP  0  0  0  0  0  0  0  0  0  0  0  0  # atno 17342 bound_to 10162
  140.4797  143.2383  151.8973 LP  0  0  0  0  0  0  0  0  0  0  0  0  # atno 17343 bound_to 10162
  156.0925  130.3662  150.0367 LP  0  0  0  0  0  0  0  0  0  0  0  0  # atno 17370 bound_to 10713
  156.8496  130.9454  151.3626 LP  0  0  0  0  0  0  0  0  0  0  0  0  # atno 17371 bound_to 10713
  140.7099  134.4473  157.5582 LP  0  0  0  0  0  0  0  0  0  0  0  0  # atno 17394 bound_to 11000
  139.8975  134.8635  156.2042 LP  0  0  0  0  0  0  0  0  0  0  0  0  # atno 17395 bound_to 11000

$$$$
