AV-unprocessed.smi:110|AV-procd|sdf|1069|dock9
  -GOLD-   2262018153D 1   1.00000     0.00000
 Structure written by MMmdl.
 46 50  0  0  0  0  0  0  0  0  1 V2000
  147.2025  137.4022  153.4227 O   0  0  0  0  0  0  0  0  0  0  0  0
  147.6979  137.2778  154.7388 C   0  0  0  0  0  0  0  0  0  0  0  0
  148.4042  138.5748  155.1620 C   0  0  1  0  0  0  0  0  0  0  0  0
  149.7033  138.6196  154.5911 O   0  0  0  0  0  0  0  0  0  0  0  0
  150.1372  139.9388  154.5136 C   0  0  2  0  0  0  0  0  0  0  0  0
  150.9565  140.2436  155.7396 N   0  0  0  0  0  0  0  0  0  0  0  0
  152.1085  139.5882  156.1135 C   0  0  0  0  0  0  0  0  0  0  0  0
  152.6539  139.9907  157.2268 N   0  0  0  0  0  0  0  0  0  0  0  0
  151.7981  140.9820  157.6867 C   0  0  0  0  0  0  0  0  0  0  0  0
  151.7852  141.8302  158.8315 C   0  0  0  0  0  0  0  0  0  0  0  0
  152.7268  141.8268  159.8035 N   0  0  0  0  0  0  0  0  0  0  0  0
  153.5010  140.5952  160.0182 C   0  0  0  0  0  0  0  0  0  0  0  0
  154.0398  140.6247  161.4611 C   0  0  0  0  0  0  0  0  0  0  0  0
  153.5686  141.9685  161.9136 C   0  0  0  0  0  0  0  0  0  0  0  0
  153.8097  142.5839  163.1543 C   0  0  0  0  0  0  0  0  0  0  0  0
  153.2820  143.8752  163.3697 C   0  0  0  0  0  0  0  0  0  0  0  0
  152.5403  144.5228  162.3545 C   0  0  0  0  0  0  0  0  0  0  0  0
  152.3119  143.8854  161.1150 C   0  0  0  0  0  0  0  0  0  0  0  0
  152.8255  142.5877  160.9140 C   0  0  0  0  0  0  0  0  0  0  0  0
  150.7861  142.7420  158.9296 N   0  0  0  0  0  0  0  0  0  0  0  0
  149.8375  142.7975  157.9929 C   0  0  0  0  0  0  0  0  0  0  0  0
  149.7142  142.0600  156.8890 N   0  0  0  0  0  0  0  0  0  0  0  0
  150.7291  141.1561  156.7591 C   0  0  0  0  0  0  0  0  0  0  0  0
  148.8874  140.8229  154.3634 C   0  0  1  0  0  0  0  0  0  0  0  0
  148.8025  141.3650  153.0605 O   0  0  0  0  0  0  0  0  0  0  0  0
  147.7346  139.8428  154.6065 C   0  0  2  0  0  0  0  0  0  0  0  0
  146.8247  140.3654  155.5538 O   0  0  0  0  0  0  0  0  0  0  0  0
  148.4866  138.6260  156.2479 H   0  0  0  0  0  0  0  0  0  0  0  0
  150.8470  140.0529  153.6931 H   0  0  0  0  0  0  0  0  0  0  0  0
  148.9117  141.6528  155.0690 H   0  0  0  0  0  0  0  0  0  0  0  0
  147.2120  139.6181  153.6750 H   0  0  0  0  0  0  0  0  0  0  0  0
  147.7216  136.8550  152.8534 H   0  0  0  0  0  0  0  0  0  0  0  0
  146.8914  137.0216  155.4265 H   0  0  0  0  0  0  0  0  0  0  0  0
  148.4053  136.4479  154.7439 H   0  0  0  0  0  0  0  0  0  0  0  0
  152.5416  138.7933  155.5238 H   0  0  0  0  0  0  0  0  0  0  0  0
  152.8805  139.7131  159.8534 H   0  0  0  0  0  0  0  0  0  0  0  0
  154.3239  140.5601  159.3033 H   0  0  0  0  0  0  0  0  0  0  0  0
  153.6015  139.8393  162.0774 H   0  0  0  0  0  0  0  0  0  0  0  0
  155.1269  140.5535  161.4995 H   0  0  0  0  0  0  0  0  0  0  0  0
  154.3847  142.0851  163.9204 H   0  0  0  0  0  0  0  0  0  0  0  0
  153.4505  144.3739  164.3129 H   0  0  0  0  0  0  0  0  0  0  0  0
  152.1476  145.5141  162.5262 H   0  0  0  0  0  0  0  0  0  0  0  0
  151.7548  144.3893  160.3391 H   0  0  0  0  0  0  0  0  0  0  0  0
  149.0686  143.5397  158.1487 H   0  0  0  0  0  0  0  0  0  0  0  0
  148.8213  140.6538  152.4384 H   0  0  0  0  0  0  0  0  0  0  0  0
  146.7011  139.7206  156.2342 H   0  0  0  0  0  0  0  0  0  0  0  0
  1  2  1  0  0  0  0
  1 32  1  0  0  0  0
  2  3  1  0  0  0  0
  2 33  1  0  0  0  0
  2 34  1  0  0  0  0
  3 28  1  0  0  0  0
  3 26  1  0  0  0  0
  3  4  1  0  0  0  0
  4  5  1  0  0  0  0
  5 29  1  0  0  0  0
  5  6  1  0  0  0  0
  5 24  1  0  0  0  0
  6 23  1  0  0  0  0
  6  7  1  0  0  0  0
  7  8  2  0  0  0  0
  7 35  1  0  0  0  0
  8  9  1  0  0  0  0
  9 23  2  0  0  0  0
  9 10  1  0  0  0  0
 10 11  1  0  0  0  0
 10 20  2  0  0  0  0
 11 19  1  0  0  0  0
 11 12  1  0  0  0  0
 12 13  1  0  0  0  0
 12 36  1  0  0  0  0
 12 37  1  0  0  0  0
 13 14  1  0  0  0  0
 13 38  1  0  0  0  0
 13 39  1  0  0  0  0
 14 19  2  0  0  0  0
 14 15  1  0  0  0  0
 15 16  2  0  0  0  0
 15 40  1  0  0  0  0
 16 17  1  0  0  0  0
 16 41  1  0  0  0  0
 17 18  2  0  0  0  0
 17 42  1  0  0  0  0
 18 19  1  0  0  0  0
 18 43  1  0  0  0  0
 20 21  1  0  0  0  0
 21 22  2  0  0  0  0
 21 44  1  0  0  0  0
 22 23  1  0  0  0  0
 24 30  1  0  0  0  0
 24 25  1  0  0  0  0
 24 26  1  0  0  0  0
 25 45  1  0  0  0  0
 26 31  1  0  0  0  0
 26 27  1  0  0  0  0
 27 46  1  0  0  0  0
M  END
> <s_m_source_file>
AV-unprocessed.smi

> <i_m_source_file_index>
110

> <i_lp_mmshare_version>
43012

> <i_f3d_flags>
0

> <s_epik_input>
W09IXVtDSDJdW0NASF0xT1tDQEhdKFtDQEhdKFtPSF0pW0NAQEhdMVtPSF0pbihbY0hdbjIpYyhjMjMpbltjSF1uYzNOKFtDSDJdW0NIMl00KWMoYzQ1KVtjSF1bY0hdW2NIXVtjSF01

> <s_epik_cmdline>
J2VwaWtfcHl0aG9uJywgJy1waCcsICc3LjAnLCAnLXRuJywgJzgnLCAnLW1hJywgJzIwMCcsICctbWV0YWxfYmluZGluZycsICctaW1hZScsICc8aW5maWxlLm1hZT4nLCAnLW9tYWUnLCAnPG91dGZpbGUubWFlPic=

> <r_lp_tautomer_probability>
1

> <r_epik_Ionization_Penalty>
0.00068475

> <r_epik_Ionization_Penalty_Charging>
0

> <r_epik_Ionization_Penalty_Neutral>
0.00068475

> <r_epik_State_Penalty>
0.000417442

> <r_epik_Charging_Adjusted_Penalty>
0.000417442

> <i_epik_Tot_Q>
0

> <i_epik_Tot_abs_Q>
0

> <r_epik_Metal_State_Penalty>
-0

> <b_epik_Metal_Only>
0

> <s_epik_Chemistry_Notes>
This compound contains an acetal/aminal-like group ( X-CH(R)-Y where X, Y are N, S, or O) that may be acid/base labile, releasing an aldehyde.

> <s_lp_Force_Field>
OPLS_2005

> <r_lp_Energy>
55.3724

> <b_lp_Chiralities_Consistent>
1

> <s_lp_Variant>
AV-unprocessed.smi:110-7

> <Gold.Version>
5.8.1

> <Gold.Id.Protein>
6NUR|6NUR_protein|mol2

> <Gold.PLP.Fitness>
61.2696

> <Gold.PLP.PLP>
-49.5681

> <Gold.PLP.part.hbond>
-4.0036

> <Gold.PLP.part.metal>
0.0000

> <Gold.PLP.part.buried>
0.9640

> <Gold.PLP.part.nonpolar>
-44.2903

> <Gold.PLP.part.repulsive>
0.4941

> <Gold.PLP.ligand.clash>
0.0000

> <Gold.PLP.ligand.torsion>
0.3456

> <Gold.PLP.Chemscore.Hbond>
3.8800

> <Gold.PLP.Chemscore.CHOScore>
0.1992

> <Gold.PLP.Chemscore.Metal>
0.0000

> <Gold.Chemscore.Hbonds>
donor molecule, donor type, donor heavy atom, donor atom, acceptor molecule, acceptor atom, score
      L1  H     1    32       P1  7948  1.00
      L1  H    25    45       P1  7957  0.88
      P1  H  7997  8008       L1     8  1.00
      P1  H  8011  8017       L1    25  0.98
      L1  C    21    44       P1  8028  0.17
      L1  C    21    44       P1  8029  0.18

> <Gold.PLP.Chemscore.Internal.Correction>
0.1551

> <Gold.Rescore>
     Score         DG    S(hbond)    S(metal)    S(lipo)     H(rot)  DE(clash)    DE(int)     intcor
     11.46     -19.20       2.78        0.00     112.08       3.38       3.70       4.04       ----

> <Gold.Chemscore.Fitness>
11.4630

> <Gold.Chemscore.DG>
-19.2011

> <Gold.Chemscore.ZeroCoef>
-5.4800

> <Gold.Chemscore.Hbond>
2.7753

> <Gold.Chemscore.Metal>
0.0000

> <Gold.Chemscore.Lipo>
112.0831

> <Gold.Chemscore.Internal_Hbond>
0.0000

> <Gold.Chemscore.DEClash>
3.6956

> <Gold.Chemscore.DEInternal>
4.0426

> <Gold.Chemscore.Rot>
3.3837

> <Gold.Chemscore.Internal.Correction>
   9.000000E+99

> <Gold.Chemscore.Hbonds>
donor molecule, donor type, donor heavy atom, donor atom, acceptor molecule, acceptor atom, score
      L1  H     1    32       P1  7948  1.00
      L1  H    25    45       P1  7957  0.86
      P1  H  7997  8008       L1     8  0.39
      P1  H  8011  8017       L1    25  0.24

> <Gold.Chemscore.Hbond.Weighted>
-9.2696

> <Gold.Chemscore.Metal.Weighted>
-0.0000

> <Gold.Chemscore.Lipo.Weighted>
-13.1137

> <Gold.Chemscore.Internal_Hbond.Weighted>
0.0000

> <Gold.Chemscore.DEClash.Weighted>
3.6956

> <Gold.Chemscore.DEInternal.Weighted>
4.0426

> <Gold.Chemscore.Rot.Weighted>
8.6622

> <Gold.Chemscore.Internal.Correction.Weighted>
   9.000000E+99

> <Gold.Protein.RotatedTorsions>
[ 6907 6896 6895 6894 ] final  135.69 input  -60.11 | X-H torsion
[ 7974 7965 7964 7962 ] final   37.57 input  175.53 | X-H torsion
[ 8008 7997 7996 7995 ] final  -72.01 input   59.86 | X-H torsion
[ 10167 10162 10161 10158 ] final -111.00 input  -65.29 | X-H torsion
[ 10718 10713 10712 10709 ] final  -78.60 input   66.30 | X-H torsion
[ 10763 10752 10751 10750 ] final -120.26 input  -60.55 | X-H torsion
[ 11005 11000 10999 10996 ] final  114.63 input  -57.11 | X-H torsion

> <Gold.Protein.ActiveResidues>
 VAL166  LYS551  ARG553  GLY616  TRP617  ASP618  TYR619  PRO620  LYS621  CYS622 
 ASP623  PHE694  ASN695  SER759  ASP760  ASP761  ALA762  ILE779  LEU786  VAL792 
 PHE793  MET794  SER795  GLU796  ALA797  LYS798  CYS799  TRP800  GLU811  SER814 

> <Gold.Protein.RotatedAtoms>
  152.2977  133.5624  159.5597 H   0  0  0  0  0  0  0  0  0  0  0  0  # atno 6907 bound_to 6896
  150.7263  134.0337  159.3751 H   0  0  0  0  0  0  0  0  0  0  0  0  # atno 6908 bound_to 6896
  151.8239  135.0643  160.0479 H   0  0  0  0  0  0  0  0  0  0  0  0  # atno 6909 bound_to 6896
  146.1127  139.5877  142.9341 H   0  0  0  0  0  0  0  0  0  0  0  0  # atno 7974 bound_to 7965
  154.5132  140.0805  156.8031 H   0  0  0  0  0  0  0  0  0  0  0  0  # atno 8008 bound_to 7997
  155.3738  140.3424  155.4226 H   0  0  0  0  0  0  0  0  0  0  0  0  # atno 8009 bound_to 7997
  156.1598  140.1585  156.8619 H   0  0  0  0  0  0  0  0  0  0  0  0  # atno 8010 bound_to 7997
  140.1384  143.4300  152.1579 H   0  0  0  0  0  0  0  0  0  0  0  0  # atno 10167 bound_to 10162
  156.0113  130.4522  150.3520 H   0  0  0  0  0  0  0  0  0  0  0  0  # atno 10718 bound_to 10713
  154.8639  135.4209  154.2431 H   0  0  0  0  0  0  0  0  0  0  0  0  # atno 10763 bound_to 10752
  153.3392  135.6992  153.6887 H   0  0  0  0  0  0  0  0  0  0  0  0  # atno 10764 bound_to 10752
  153.5872  135.3561  155.2870 H   0  0  0  0  0  0  0  0  0  0  0  0  # atno 10765 bound_to 10752
  139.8986  134.9571  156.6921 H   0  0  0  0  0  0  0  0  0  0  0  0  # atno 11005 bound_to 11000
  145.5630  141.0402  143.2216 LP  0  0  0  0  0  0  0  0  0  0  0  0  # atno 17320 bound_to 7965
  144.7526  139.7156  143.7267 LP  0  0  0  0  0  0  0  0  0  0  0  0  # atno 17321 bound_to 7965
  139.5484  144.7318  151.4510 LP  0  0  0  0  0  0  0  0  0  0  0  0  # atno 17342 bound_to 10162
  140.6775  143.8156  150.7078 LP  0  0  0  0  0  0  0  0  0  0  0  0  # atno 17343 bound_to 10162
  157.1612  131.0345  151.2840 LP  0  0  0  0  0  0  0  0  0  0  0  0  # atno 17370 bound_to 10713
  157.4309  130.7490  149.6989 LP  0  0  0  0  0  0  0  0  0  0  0  0  # atno 17371 bound_to 10713
  140.7216  133.9135  155.8151 LP  0  0  0  0  0  0  0  0  0  0  0  0  # atno 17394 bound_to 11000
  141.0223  134.0872  157.4107 LP  0  0  0  0  0  0  0  0  0  0  0  0  # atno 17395 bound_to 11000

$$$$
