AV-unprocessed.smi:337|AV-procd|sdf|2373|dock9
  -GOLD-   2262022293D 1   1.00000     0.00000
 Structure written by MMmdl.
 43 44  0  0  0  0  0  0  0  0  1 V2000
  147.2670  136.5485  155.9491 C   0  0  0  0  0  0  0  0  0  0  0  0
  148.4774  135.6845  155.5578 C   0  0  1  0  0  0  0  0  0  0  0  0
  148.2458  135.1494  154.2165 N   0  0  0  0  0  0  0  0  0  0  0  0
  147.9723  133.8658  153.9372 C   0  0  0  0  0  0  0  0  0  0  0  0
  147.8427  133.6471  152.6285 N   0  0  0  0  0  0  0  0  0  0  0  0
  147.8564  132.9780  154.7802 O   0  0  0  0  0  0  0  0  0  0  0  0
  149.7355  136.5662  155.5631 C   0  0  0  0  0  0  0  0  0  0  0  0
  150.2299  136.9444  156.6265 O   0  0  0  0  0  0  0  0  0  0  0  0
  150.2335  136.8959  154.3618 N   0  0  0  0  0  0  0  0  0  0  0  0
  151.3531  137.8066  154.1479 C   0  0  0  0  0  0  0  0  0  0  0  0
  151.3759  138.9833  155.1140 C   0  0  0  0  0  0  0  0  0  0  0  0
  150.4008  140.0018  155.0681 C   0  0  0  0  0  0  0  0  0  0  0  0
  150.4681  141.0555  155.9984 C   0  0  0  0  0  0  0  0  0  0  0  0
  151.5130  141.0686  156.9524 C   0  0  0  0  0  0  0  0  0  0  0  0
  151.5887  142.1093  157.9033 N   0  0  0  0  0  0  0  0  0  0  0  0
  151.6611  143.4833  157.4105 C   0  0  0  0  0  0  0  0  0  0  0  0
  151.4566  144.4775  158.5660 C   0  0  0  0  0  0  0  0  0  0  0  0
  152.4031  144.2155  159.5968 O   0  0  0  0  0  0  0  0  0  0  0  0
  152.2458  142.9084  160.1391 C   0  0  0  0  0  0  0  0  0  0  0  0
  152.4707  141.8557  159.0398 C   0  0  0  0  0  0  0  0  0  0  0  0
  152.4603  140.0984  156.9804 N   0  0  0  0  0  0  0  0  0  0  0  0
  152.3891  139.0884  156.0875 C   0  0  0  0  0  0  0  0  0  0  0  0
  147.3916  136.9745  156.9453 H   0  0  0  0  0  0  0  0  0  0  0  0
  146.3536  135.9531  155.9640 H   0  0  0  0  0  0  0  0  0  0  0  0
  147.1110  137.3729  155.2514 H   0  0  0  0  0  0  0  0  0  0  0  0
  148.5839  134.8634  156.2697 H   0  0  0  0  0  0  0  0  0  0  0  0
  148.3273  135.7992  153.4484 H   0  0  0  0  0  0  0  0  0  0  0  0
  147.6301  132.7218  152.2859 H   0  0  0  0  0  0  0  0  0  0  0  0
  147.9529  134.4155  151.9826 H   0  0  0  0  0  0  0  0  0  0  0  0
  149.7698  136.5374  153.5394 H   0  0  0  0  0  0  0  0  0  0  0  0
  152.2930  137.2548  154.2073 H   0  0  0  0  0  0  0  0  0  0  0  0
  151.2863  138.1977  153.1326 H   0  0  0  0  0  0  0  0  0  0  0  0
  149.6080  139.9820  154.3349 H   0  0  0  0  0  0  0  0  0  0  0  0
  149.7284  141.8411  155.9626 H   0  0  0  0  0  0  0  0  0  0  0  0
  152.6329  143.6498  156.9436 H   0  0  0  0  0  0  0  0  0  0  0  0
  150.8988  143.6519  156.6488 H   0  0  0  0  0  0  0  0  0  0  0  0
  151.5921  145.4989  158.2103 H   0  0  0  0  0  0  0  0  0  0  0  0
  150.4421  144.4103  158.9628 H   0  0  0  0  0  0  0  0  0  0  0  0
  152.9678  142.7696  160.9439 H   0  0  0  0  0  0  0  0  0  0  0  0
  151.2534  142.8033  160.5809 H   0  0  0  0  0  0  0  0  0  0  0  0
  152.3114  140.8643  159.4617 H   0  0  0  0  0  0  0  0  0  0  0  0
  153.5053  141.8910  158.6955 H   0  0  0  0  0  0  0  0  0  0  0  0
  153.1629  138.3380  156.1592 H   0  0  0  0  0  0  0  0  0  0  0  0
  1  2  1  0  0  0  0
  1 23  1  0  0  0  0
  1 24  1  0  0  0  0
  1 25  1  0  0  0  0
  2  3  1  0  0  0  0
  2  7  1  0  0  0  0
  2 26  1  0  0  0  0
  3  4  1  0  0  0  0
  3 27  1  0  0  0  0
  4  5  1  0  0  0  0
  4  6  2  0  0  0  0
  5 28  1  0  0  0  0
  5 29  1  0  0  0  0
  7  8  2  0  0  0  0
  7  9  1  0  0  0  0
  9 10  1  0  0  0  0
  9 30  1  0  0  0  0
 10 11  1  0  0  0  0
 10 31  1  0  0  0  0
 10 32  1  0  0  0  0
 11 22  1  0  0  0  0
 11 12  2  0  0  0  0
 12 13  1  0  0  0  0
 12 33  1  0  0  0  0
 13 14  2  0  0  0  0
 13 34  1  0  0  0  0
 14 15  1  0  0  0  0
 14 21  1  0  0  0  0
 15 20  1  0  0  0  0
 15 16  1  0  0  0  0
 16 17  1  0  0  0  0
 16 35  1  0  0  0  0
 16 36  1  0  0  0  0
 17 18  1  0  0  0  0
 17 37  1  0  0  0  0
 17 38  1  0  0  0  0
 18 19  1  0  0  0  0
 19 20  1  0  0  0  0
 19 39  1  0  0  0  0
 19 40  1  0  0  0  0
 20 41  1  0  0  0  0
 20 42  1  0  0  0  0
 21 22  2  0  0  0  0
 22 43  1  0  0  0  0
M  END
> <s_m_source_file>
AV-unprocessed.smi

> <i_m_source_file_index>
337

> <i_lp_mmshare_version>
43012

> <i_f3d_flags>
0

> <s_epik_input>
W05IMl1DKD1PKVtOSF1bQ0BASF0oW0NIM10pQyg9TylbTkhdW0NIMl1jMVtjSF1bY0hdYyhuW2NIXTEpTjJbQ0gyXVtDSDJdT1tDSDJdW0NIMl0y

> <s_epik_cmdline>
J2VwaWtfcHl0aG9uJywgJy1waCcsICc3LjAnLCAnLXRuJywgJzgnLCAnLW1hJywgJzIwMCcsICctbWV0YWxfYmluZGluZycsICctaW1hZScsICc8aW5maWxlLm1hZT4nLCAnLW9tYWUnLCAnPG91dGZpbGUubWFlPic=

> <r_lp_tautomer_probability>
1

> <r_epik_Ionization_Penalty>
0.0048357

> <r_epik_Ionization_Penalty_Charging>
0

> <r_epik_Ionization_Penalty_Neutral>
0.0048357

> <r_epik_State_Penalty>
0.0034696

> <r_epik_Charging_Adjusted_Penalty>
0.0034696

> <i_epik_Tot_Q>
0

> <i_epik_Tot_abs_Q>
0

> <r_epik_Metal_State_Penalty>
-0

> <b_epik_Metal_Only>
0

> <s_lp_Force_Field>
OPLS_2005

> <r_lp_Energy>
9.87941

> <b_lp_Chiralities_Consistent>
1

> <s_lp_Variant>
AV-unprocessed.smi:337-2

> <Gold.Version>
5.8.1

> <Gold.Id.Protein>
6NUR|6NUR_protein|mol2

> <Gold.PLP.Fitness>
44.9205

> <Gold.PLP.PLP>
-37.3194

> <Gold.PLP.part.hbond>
-4.7051

> <Gold.PLP.part.metal>
0.0000

> <Gold.PLP.part.buried>
-2.2777

> <Gold.PLP.part.nonpolar>
-29.1597

> <Gold.PLP.part.repulsive>
0.1301

> <Gold.PLP.ligand.clash>
0.0000

> <Gold.PLP.ligand.torsion>
0.8411

> <Gold.PLP.Chemscore.Hbond>
2.9820

> <Gold.PLP.Chemscore.CHOScore>
0.0000

> <Gold.PLP.Chemscore.Metal>
0.0000

> <Gold.Chemscore.Hbonds>
donor molecule, donor type, donor heavy atom, donor atom, acceptor molecule, acceptor atom, score
      L1  H     3    27       P1  7948  0.99
      L1  H     5    29       P1  7948  0.68
      L1  H     9    30       P1  7948  1.00
      P1  H  7997  8009       L1    21  0.35

> <Gold.PLP.Chemscore.Internal.Correction>
0.3372

> <Gold.Rescore>
     Score         DG    S(hbond)    S(metal)    S(lipo)     H(rot)  DE(clash)    DE(int)     intcor
     13.63     -16.04       2.40        0.00      79.90       2.66       0.03       2.38       ----

> <Gold.Chemscore.Fitness>
13.6267

> <Gold.Chemscore.DG>
-16.0370

> <Gold.Chemscore.ZeroCoef>
-5.4800

> <Gold.Chemscore.Hbond>
2.3987

> <Gold.Chemscore.Metal>
0.0000

> <Gold.Chemscore.Lipo>
79.8967

> <Gold.Chemscore.Internal_Hbond>
0.0000

> <Gold.Chemscore.DEClash>
0.0270

> <Gold.Chemscore.DEInternal>
2.3833

> <Gold.Chemscore.Rot>
2.6573

> <Gold.Chemscore.Internal.Correction>
   9.000000E+99

> <Gold.Chemscore.Hbonds>
donor molecule, donor type, donor heavy atom, donor atom, acceptor molecule, acceptor atom, score
      L1  H     3    27       P1  7948  0.94
      L1  H     5    29       P1  7948  0.11
      L1  H     9    30       P1  7948  0.35
      P1  H  7997  8009       L1    21  0.01

> <Gold.Chemscore.Hbond.Weighted>
-8.0118

> <Gold.Chemscore.Metal.Weighted>
-0.0000

> <Gold.Chemscore.Lipo.Weighted>
-9.3479

> <Gold.Chemscore.Internal_Hbond.Weighted>
0.0000

> <Gold.Chemscore.DEClash.Weighted>
0.0270

> <Gold.Chemscore.DEInternal.Weighted>
2.3833

> <Gold.Chemscore.Rot.Weighted>
6.8027

> <Gold.Chemscore.Internal.Correction.Weighted>
   9.000000E+99

> <Gold.Protein.RotatedTorsions>
[ 6907 6896 6895 6894 ] final   80.60 input  -60.11 | X-H torsion
[ 7974 7965 7964 7962 ] final  -83.26 input  175.53 | X-H torsion
[ 8008 7997 7996 7995 ] final  178.05 input   59.86 | X-H torsion
[ 10167 10162 10161 10158 ] final   81.30 input  -65.29 | X-H torsion
[ 10718 10713 10712 10709 ] final -127.78 input   66.30 | X-H torsion
[ 10763 10752 10751 10750 ] final  -34.37 input  -60.55 | X-H torsion
[ 11005 11000 10999 10996 ] final -102.25 input  -57.11 | X-H torsion

> <Gold.Protein.ActiveResidues>
 VAL166  LYS551  ARG553  GLY616  TRP617  ASP618  TYR619  PRO620  LYS621  CYS622 
 ASP623  PHE694  ASN695  SER759  ASP760  ASP761  ALA762  ILE779  LEU786  VAL792 
 PHE793  MET794  SER795  GLU796  ALA797  LYS798  CYS799  TRP800  GLU811  SER814 

> <Gold.Protein.RotatedAtoms>
  152.5240  134.3333  159.9190 H   0  0  0  0  0  0  0  0  0  0  0  0  # atno 6907 bound_to 6896
  151.3282  133.4005  159.2668 H   0  0  0  0  0  0  0  0  0  0  0  0  # atno 6908 bound_to 6896
  150.9903  134.9256  159.7953 H   0  0  0  0  0  0  0  0  0  0  0  0  # atno 6909 bound_to 6896
  145.5224  140.9530  143.1648 H   0  0  0  0  0  0  0  0  0  0  0  0  # atno 7974 bound_to 7965
  156.0590  140.1343  156.9964 H   0  0  0  0  0  0  0  0  0  0  0  0  # atno 8008 bound_to 7997
  154.4472  140.0995  156.6559 H   0  0  0  0  0  0  0  0  0  0  0  0  # atno 8009 bound_to 7997
  155.5407  140.3461  155.4448 H   0  0  0  0  0  0  0  0  0  0  0  0  # atno 8010 bound_to 7997
  139.9407  144.6092  150.8255 H   0  0  0  0  0  0  0  0  0  0  0  0  # atno 10167 bound_to 10162
  156.1889  130.6782  151.0399 H   0  0  0  0  0  0  0  0  0  0  0  0  # atno 10718 bound_to 10713
  153.8457  135.6853  153.4798 H   0  0  0  0  0  0  0  0  0  0  0  0  # atno 10763 bound_to 10752
  153.1427  135.4650  154.9518 H   0  0  0  0  0  0  0  0  0  0  0  0  # atno 10764 bound_to 10752
  154.7825  135.3273  154.7906 H   0  0  0  0  0  0  0  0  0  0  0  0  # atno 10765 bound_to 10752
  141.1197  133.8543  157.1336 H   0  0  0  0  0  0  0  0  0  0  0  0  # atno 11005 bound_to 11000
  144.7669  139.6825  143.7211 LP  0  0  0  0  0  0  0  0  0  0  0  0  # atno 17320 bound_to 7965
  146.2097  139.5445  142.9689 LP  0  0  0  0  0  0  0  0  0  0  0  0  # atno 17321 bound_to 7965
  140.7612  143.3168  151.2714 LP  0  0  0  0  0  0  0  0  0  0  0  0  # atno 17342 bound_to 10162
  139.6707  144.0025  152.2751 LP  0  0  0  0  0  0  0  0  0  0  0  0  # atno 17343 bound_to 10162
  157.6916  131.0808  150.7089 LP  0  0  0  0  0  0  0  0  0  0  0  0  # atno 17370 bound_to 10713
  156.7146  130.4662  149.5538 LP  0  0  0  0  0  0  0  0  0  0  0  0  # atno 17371 bound_to 10713
  140.0145  134.9974  157.0464 LP  0  0  0  0  0  0  0  0  0  0  0  0  # atno 17394 bound_to 11000
  140.4544  134.1549  155.7184 LP  0  0  0  0  0  0  0  0  0  0  0  0  # atno 17395 bound_to 11000

$$$$
