AV-unprocessed.smi:102|AV-procd|sdf|958|dock5
  -GOLD-   2262017493D 1   1.00000     0.00000
 Structure written by MMmdl.
 44 45  0  0  0  0  0  0  0  0  1 V2000
  148.2335  134.4240  162.3068 C   0  0  0  0  0  0  0  0  0  0  0  0
  148.1476  135.4765  161.2097 C   0  0  0  0  0  0  0  0  0  0  0  0
  148.1314  136.6794  161.4728 O   0  0  0  0  0  0  0  0  0  0  0  0
  148.0960  134.9317  159.9802 O   0  0  0  0  0  0  0  0  0  0  0  0
  147.6301  135.6946  158.8759 C   0  0  0  0  0  0  0  0  0  0  0  0
  148.7944  136.1233  157.9696 C   0  0  1  0  0  0  0  0  0  0  0  0
  149.6403  135.0145  157.6789 O   0  0  0  0  0  0  0  0  0  0  0  0
  150.2029  135.1475  156.4082 C   0  0  1  0  0  0  0  0  0  0  0  0
  149.9079  133.8979  155.6128 N   0  0  0  0  0  0  0  0  0  0  0  0
  149.0481  133.9224  154.5220 C   0  0  0  0  0  0  0  0  0  0  0  0
  148.7700  132.8254  153.7788 C   0  0  0  0  0  0  0  0  0  0  0  0
  147.9277  132.9259  152.7363 F   0  0  0  0  0  0  0  0  0  0  0  0
  149.3814  131.5378  154.0945 C   0  0  0  0  0  0  0  0  0  0  0  0
  149.1894  130.4887  153.4834 O   0  0  0  0  0  0  0  0  0  0  0  0
  150.2505  131.5645  155.1892 N   0  0  0  0  0  0  0  0  0  0  0  0
  150.5486  132.6884  155.9618 C   0  0  0  0  0  0  0  0  0  0  0  0
  151.3435  132.5977  156.8961 O   0  0  0  0  0  0  0  0  0  0  0  0
  149.5613  136.3638  155.7274 C   0  0  2  0  0  0  0  0  0  0  0  0
  150.4569  137.4699  155.7911 O   0  0  0  0  0  0  0  0  0  0  0  0
  151.4412  137.6008  154.8858 C   0  0  0  0  0  0  0  0  0  0  0  0
  152.1972  138.9138  155.0383 C   0  0  0  0  0  0  0  0  0  0  0  0
  151.7405  136.7846  154.0145 O   0  0  0  0  0  0  0  0  0  0  0  0
  148.3308  136.5953  156.5938 C   0  0  2  0  0  0  0  0  0  0  0  0
  147.9130  137.9554  156.6061 O   0  0  0  0  0  0  0  0  0  0  0  0
  147.3560  138.4997  155.5106 C   0  0  0  0  0  0  0  0  0  0  0  0
  147.0468  139.9799  155.6905 C   0  0  0  0  0  0  0  0  0  0  0  0
  147.1125  137.9149  154.4551 O   0  0  0  0  0  0  0  0  0  0  0  0
  150.7043  130.6978  155.4390 H   0  0  0  0  0  0  0  0  0  0  0  0
  149.1492  133.8421  162.2013 H   0  0  0  0  0  0  0  0  0  0  0  0
  147.3819  133.7458  162.2496 H   0  0  0  0  0  0  0  0  0  0  0  0
  148.2347  134.8953  163.2900 H   0  0  0  0  0  0  0  0  0  0  0  0
  146.8634  135.1624  158.3107 H   0  0  0  0  0  0  0  0  0  0  0  0
  147.1496  136.5847  159.2822 H   0  0  0  0  0  0  0  0  0  0  0  0
  149.3924  136.9031  158.4445 H   0  0  0  0  0  0  0  0  0  0  0  0
  151.2878  135.2096  156.5112 H   0  0  0  0  0  0  0  0  0  0  0  0
  148.5743  134.8501  154.2372 H   0  0  0  0  0  0  0  0  0  0  0  0
  149.2773  136.1361  154.6985 H   0  0  0  0  0  0  0  0  0  0  0  0
  151.5027  139.7370  155.2068 H   0  0  0  0  0  0  0  0  0  0  0  0
  152.7749  139.1290  154.1392 H   0  0  0  0  0  0  0  0  0  0  0  0
  152.8821  138.8587  155.8844 H   0  0  0  0  0  0  0  0  0  0  0  0
  147.5232  135.9441  156.2556 H   0  0  0  0  0  0  0  0  0  0  0  0
  146.5883  140.1592  156.6633 H   0  0  0  0  0  0  0  0  0  0  0  0
  146.3598  140.3239  154.9169 H   0  0  0  0  0  0  0  0  0  0  0  0
  147.9634  140.5661  155.6244 H   0  0  0  0  0  0  0  0  0  0  0  0
  1  2  1  0  0  0  0
  1 29  1  0  0  0  0
  1 30  1  0  0  0  0
  1 31  1  0  0  0  0
  2  3  2  0  0  0  0
  2  4  1  0  0  0  0
  4  5  1  0  0  0  0
  5  6  1  0  0  0  0
  5 32  1  0  0  0  0
  5 33  1  0  0  0  0
  6 23  1  0  0  0  0
  6  7  1  0  0  0  0
  6 34  1  0  0  0  0
  7  8  1  0  0  0  0
  8  9  1  0  0  0  0
  8 18  1  0  0  0  0
  8 35  1  0  0  0  0
  9 16  1  0  0  0  0
  9 10  1  0  0  0  0
 10 11  2  0  0  0  0
 10 36  1  0  0  0  0
 11 12  1  0  0  0  0
 11 13  1  0  0  0  0
 13 14  2  0  0  0  0
 13 15  1  0  0  0  0
 15 28  1  0  0  0  0
 15 16  1  0  0  0  0
 16 17  2  0  0  0  0
 18 19  1  0  0  0  0
 18 23  1  0  0  0  0
 18 37  1  0  0  0  0
 19 20  1  0  0  0  0
 20 21  1  0  0  0  0
 20 22  2  0  0  0  0
 21 38  1  0  0  0  0
 21 39  1  0  0  0  0
 21 40  1  0  0  0  0
 23 24  1  0  0  0  0
 23 41  1  0  0  0  0
 24 25  1  0  0  0  0
 25 26  1  0  0  0  0
 25 27  2  0  0  0  0
 26 42  1  0  0  0  0
 26 43  1  0  0  0  0
 26 44  1  0  0  0  0
M  END
> <s_m_source_file>
AV-unprocessed.smi

> <i_m_source_file_index>
102

> <i_lp_mmshare_version>
43012

> <i_f3d_flags>
0

> <s_epik_input>
W0NIM11DKD1PKU9bQ0gyXVtDQEBIXTFPW0NASF0oW0NAQEhdKE9DKD1PKVtDSDNdKVtDQEhdMU9DKD1PKVtDSDNdKW4yW2NIXWMoRiljKD1PKVtuSF1jMj1P

> <s_epik_cmdline>
J2VwaWtfcHl0aG9uJywgJy1waCcsICc3LjAnLCAnLXRuJywgJzgnLCAnLW1hJywgJzIwMCcsICctbWV0YWxfYmluZGluZycsICctaW1hZScsICc8aW5maWxlLm1hZT4nLCAnLW9tYWUnLCAnPG91dGZpbGUubWFlPic=

> <r_lp_tautomer_probability>
0.999537

> <r_epik_Ionization_Penalty>
0.058267

> <r_epik_Ionization_Penalty_Charging>
0.058267

> <r_epik_Ionization_Penalty_Neutral>
6.57791e-16

> <r_epik_State_Penalty>
0.0503774

> <r_epik_Charging_Adjusted_Penalty>
0.108644

> <i_epik_Tot_Q>
0

> <i_epik_Tot_abs_Q>
0

> <r_epik_Metal_State_Penalty>
2.6644

> <b_epik_Metal_Only>
0

> <s_epik_Chemistry_Notes>
This compound has an ester and may undergo hydrolysis at high or low pH. This compound contains an acetal/aminal-like group ( X-CH(R)-Y where X, Y are N, S, or O) that may be acid/base labile, releasing an aldehyde.

> <s_lp_Force_Field>
OPLS_2005

> <r_lp_Energy>
14.1022

> <b_lp_Chiralities_Consistent>
1

> <s_lp_Variant>
AV-unprocessed.smi:102-14

> <Gold.Version>
5.8.1

> <Gold.Id.Protein>
6NUR|6NUR_protein|mol2

> <Gold.PLP.Fitness>
48.2475

> <Gold.PLP.PLP>
-36.0234

> <Gold.PLP.part.hbond>
-4.8067

> <Gold.PLP.part.metal>
0.0000

> <Gold.PLP.part.buried>
-5.8430

> <Gold.PLP.part.nonpolar>
-25.5523

> <Gold.PLP.part.repulsive>
0.4037

> <Gold.PLP.ligand.clash>
0.0000

> <Gold.PLP.ligand.torsion>
1.0647

> <Gold.PLP.Chemscore.Hbond>
4.2760

> <Gold.PLP.Chemscore.CHOScore>
0.4240

> <Gold.PLP.Chemscore.Metal>
0.0000

> <Gold.Chemscore.Hbonds>
donor molecule, donor type, donor heavy atom, donor atom, acceptor molecule, acceptor atom, score
      P1  H  6896  6908       L1     7  0.52
      P1  H  6931  6943       L1     3  1.00
      P1  H 10752 10765       L1    22  1.00
      L1  C    10    36       P1  7948  0.41

> <Gold.PLP.Chemscore.Internal.Correction>
0.2534

> <Gold.Rescore>
     Score         DG    S(hbond)    S(metal)    S(lipo)     H(rot)  DE(clash)    DE(int)     intcor
      9.04     -10.51       3.33        0.00      36.69       4.05       0.00       1.46       ----

> <Gold.Chemscore.Fitness>
9.0422

> <Gold.Chemscore.DG>
-10.5063

> <Gold.Chemscore.ZeroCoef>
-5.4800

> <Gold.Chemscore.Hbond>
3.3254

> <Gold.Chemscore.Metal>
0.0000

> <Gold.Chemscore.Lipo>
36.6889

> <Gold.Chemscore.Internal_Hbond>
0.0000

> <Gold.Chemscore.DEClash>
0.0048

> <Gold.Chemscore.DEInternal>
1.4593

> <Gold.Chemscore.Rot>
4.0520

> <Gold.Chemscore.Internal.Correction>
   9.000000E+99

> <Gold.Chemscore.Hbonds>
donor molecule, donor type, donor heavy atom, donor atom, acceptor molecule, acceptor atom, score
      P1  H  6896  6908       L1     7  0.25
      P1  H  6931  6943       L1     3  1.00
      P1  H 10752 10765       L1    22  0.98

> <Gold.Chemscore.Hbond.Weighted>
-11.1069

> <Gold.Chemscore.Metal.Weighted>
-0.0000

> <Gold.Chemscore.Lipo.Weighted>
-4.2926

> <Gold.Chemscore.Internal_Hbond.Weighted>
0.0000

> <Gold.Chemscore.DEClash.Weighted>
0.0048

> <Gold.Chemscore.DEInternal.Weighted>
1.4593

> <Gold.Chemscore.Rot.Weighted>
10.3732

> <Gold.Chemscore.Internal.Correction.Weighted>
   9.000000E+99

> <Gold.Protein.RotatedTorsions>
[ 6907 6896 6895 6894 ] final  172.45 input  -60.11 | X-H torsion
[ 7974 7965 7964 7962 ] final   -6.78 input  175.53 | X-H torsion
[ 8008 7997 7996 7995 ] final  162.41 input   59.86 | X-H torsion
[ 10167 10162 10161 10158 ] final   29.74 input  -65.29 | X-H torsion
[ 10718 10713 10712 10709 ] final  125.59 input   66.30 | X-H torsion
[ 10763 10752 10751 10750 ] final  162.20 input  -60.55 | X-H torsion
[ 11005 11000 10999 10996 ] final -101.99 input  -57.11 | X-H torsion

> <Gold.Protein.ActiveResidues>
 VAL166  LYS551  ARG553  GLY616  TRP617  ASP618  TYR619  PRO620  LYS621  CYS622 
 ASP623  PHE694  ASN695  SER759  ASP760  ASP761  ALA762  ILE779  LEU786  VAL792 
 PHE793  MET794  SER795  GLU796  ALA797  LYS798  CYS799  TRP800  GLU811  SER814 

> <Gold.Protein.RotatedAtoms>
  151.7841  133.3352  159.3479 H   0  0  0  0  0  0  0  0  0  0  0  0  # atno 6907 bound_to 6896
  150.7415  134.5904  159.5994 H   0  0  0  0  0  0  0  0  0  0  0  0  # atno 6908 bound_to 6896
  152.3256  134.7327  160.0354 H   0  0  0  0  0  0  0  0  0  0  0  0  # atno 6909 bound_to 6896
  146.2323  140.2222  142.8338 H   0  0  0  0  0  0  0  0  0  0  0  0  # atno 7974 bound_to 7965
  156.2033  140.1751  156.7853 H   0  0  0  0  0  0  0  0  0  0  0  0  # atno 8008 bound_to 7997
  154.5621  140.0698  156.8865 H   0  0  0  0  0  0  0  0  0  0  0  0  # atno 8009 bound_to 7997
  155.2829  140.3350  155.4259 H   0  0  0  0  0  0  0  0  0  0  0  0  # atno 8010 bound_to 7997
  140.4739  144.0720  150.6245 H   0  0  0  0  0  0  0  0  0  0  0  0  # atno 10167 bound_to 10162
  157.5490  131.1094  150.8734 H   0  0  0  0  0  0  0  0  0  0  0  0  # atno 10718 bound_to 10713
  154.2747  135.2765  155.2723 H   0  0  0  0  0  0  0  0  0  0  0  0  # atno 10763 bound_to 10752
  154.5271  135.5740  153.6732 H   0  0  0  0  0  0  0  0  0  0  0  0  # atno 10764 bound_to 10752
  152.9939  135.6218  154.2903 H   0  0  0  0  0  0  0  0  0  0  0  0  # atno 10765 bound_to 10752
  141.1208  133.8522  157.1302 H   0  0  0  0  0  0  0  0  0  0  0  0  # atno 11005 bound_to 11000
  144.9623  140.8287  143.5506 LP  0  0  0  0  0  0  0  0  0  0  0  0  # atno 17320 bound_to 7965
  145.2194  139.2166  143.5101 LP  0  0  0  0  0  0  0  0  0  0  0  0  # atno 17321 bound_to 7965
  140.3943  143.2736  152.0023 LP  0  0  0  0  0  0  0  0  0  0  0  0  # atno 17342 bound_to 10162
  139.4822  144.6051  151.7535 LP  0  0  0  0  0  0  0  0  0  0  0  0  # atno 17343 bound_to 10162
  156.9264  130.5334  149.5279 LP  0  0  0  0  0  0  0  0  0  0  0  0  # atno 17370 bound_to 10713
  156.0560  130.5621  150.9092 LP  0  0  0  0  0  0  0  0  0  0  0  0  # atno 17371 bound_to 10713
  140.0164  134.9965  157.0502 LP  0  0  0  0  0  0  0  0  0  0  0  0  # atno 17394 bound_to 11000
  140.4513  134.1579  155.7182 LP  0  0  0  0  0  0  0  0  0  0  0  0  # atno 17395 bound_to 11000

$$$$
