AV-unprocessed.smi:2829|AV-procd|sdf|10899|dock3
  -GOLD-   2272015343D 1   1.00000     0.00000
 Structure written by MMmdl.
 50 53  0  0  0  0  0  0  0  0  1 V2000
  145.8844  131.8852  149.4763 C   0  0  0  0  0  0  0  0  0  0  0  0
  144.9757  132.1471  150.6987 C   0  0  0  0  0  0  0  0  0  0  0  0
  143.5137  132.0996  150.2073 C   0  0  0  0  0  0  0  0  0  0  0  0
  145.2240  131.0124  151.7141 C   0  0  0  0  0  0  0  0  0  0  0  0
  145.2573  133.5079  151.3608 C   0  0  0  0  0  0  0  0  0  0  0  0
  145.0559  134.7445  150.7067 C   0  0  0  0  0  0  0  0  0  0  0  0
  145.3509  135.9182  151.4210 C   0  0  0  0  0  0  0  0  0  0  0  0
  145.8260  135.7988  152.7423 C   0  0  0  0  0  0  0  0  0  0  0  0
  146.1063  137.0235  153.4018 N   0  0  0  0  0  0  0  0  0  0  0  0
  147.1362  137.3099  154.2219 C   0  0  0  0  0  0  0  0  0  0  0  0
  147.9734  136.4960  154.6072 O   0  0  0  0  0  0  0  0  0  0  0  0
  147.1821  138.5940  154.6158 N   0  0  0  0  0  0  0  0  0  0  0  0
  148.1636  139.2243  155.4978 C   0  0  1  0  0  0  0  0  0  0  0  0
  149.5974  139.0105  155.0087 C   0  0  2  0  0  0  0  0  0  0  0  0
  150.7473  138.2042  155.4931 C   0  0  0  0  0  0  0  0  0  0  0  0
  151.8463  139.2818  155.3097 C   0  0  0  0  0  0  0  0  0  0  0  0
  151.1459  140.5126  155.0055 O   0  0  0  0  0  0  0  0  0  0  0  0
  149.8866  140.3655  155.6335 C   0  0  1  0  0  0  0  0  0  0  0  0
  148.4694  140.7263  155.1684 C   0  0  0  0  0  0  0  0  0  0  0  0
  147.6873  141.8715  155.8223 C   0  0  0  0  0  0  0  0  0  0  0  0
  147.0646  142.1770  154.4556 C   0  0  0  0  0  0  0  0  0  0  0  0
  148.1987  141.3811  153.8010 C   0  0  0  0  0  0  0  0  0  0  0  0
  145.9972  134.5779  153.3078 N   0  0  0  0  0  0  0  0  0  0  0  0
  145.7204  133.4582  152.6335 N   0  0  0  0  0  0  0  0  0  0  0  0
  145.6652  130.9184  149.0215 H   0  0  0  0  0  0  0  0  0  0  0  0
  146.9395  131.8742  149.7527 H   0  0  0  0  0  0  0  0  0  0  0  0
  145.7456  132.6401  148.7012 H   0  0  0  0  0  0  0  0  0  0  0  0
  143.3111  132.8968  149.4909 H   0  0  0  0  0  0  0  0  0  0  0  0
  142.8057  132.2099  151.0296 H   0  0  0  0  0  0  0  0  0  0  0  0
  143.2895  131.1518  149.7169 H   0  0  0  0  0  0  0  0  0  0  0  0
  145.0467  130.0335  151.2677 H   0  0  0  0  0  0  0  0  0  0  0  0
  144.5666  131.0928  152.5806 H   0  0  0  0  0  0  0  0  0  0  0  0
  146.2514  131.0259  152.0794 H   0  0  0  0  0  0  0  0  0  0  0  0
  144.6896  134.8181  149.6947 H   0  0  0  0  0  0  0  0  0  0  0  0
  145.2139  136.8863  150.9614 H   0  0  0  0  0  0  0  0  0  0  0  0
  145.4766  137.7841  153.1938 H   0  0  0  0  0  0  0  0  0  0  0  0
  146.4420  139.1941  154.2815 H   0  0  0  0  0  0  0  0  0  0  0  0
  148.0336  139.0103  156.5622 H   0  0  0  0  0  0  0  0  0  0  0  0
  149.6201  139.0524  153.9131 H   0  0  0  0  0  0  0  0  0  0  0  0
  150.6306  137.9119  156.5376 H   0  0  0  0  0  0  0  0  0  0  0  0
  150.9256  137.3143  154.8889 H   0  0  0  0  0  0  0  0  0  0  0  0
  152.4359  139.3947  156.2203 H   0  0  0  0  0  0  0  0  0  0  0  0
  152.5262  139.0367  154.4935 H   0  0  0  0  0  0  0  0  0  0  0  0
  149.9771  140.3402  156.7244 H   0  0  0  0  0  0  0  0  0  0  0  0
  146.9754  141.5635  156.5883 H   0  0  0  0  0  0  0  0  0  0  0  0
  148.3370  142.6735  156.1757 H   0  0  0  0  0  0  0  0  0  0  0  0
  146.0883  141.7097  154.3211 H   0  0  0  0  0  0  0  0  0  0  0  0
  147.0427  143.2350  154.1934 H   0  0  0  0  0  0  0  0  0  0  0  0
  149.0214  142.0181  153.4730 H   0  0  0  0  0  0  0  0  0  0  0  0
  147.8774  140.7040  153.0094 H   0  0  0  0  0  0  0  0  0  0  0  0
  1  2  1  0  0  0  0
  1 25  1  0  0  0  0
  1 26  1  0  0  0  0
  1 27  1  0  0  0  0
  2  3  1  0  0  0  0
  2  4  1  0  0  0  0
  2  5  1  0  0  0  0
  3 28  1  0  0  0  0
  3 29  1  0  0  0  0
  3 30  1  0  0  0  0
  4 31  1  0  0  0  0
  4 32  1  0  0  0  0
  4 33  1  0  0  0  0
  5 24  1  0  0  0  0
  5  6  2  0  0  0  0
  6  7  1  0  0  0  0
  6 34  1  0  0  0  0
  7  8  2  0  0  0  0
  7 35  1  0  0  0  0
  8  9  1  0  0  0  0
  8 23  1  0  0  0  0
  9 10  1  0  0  0  0
  9 36  1  0  0  0  0
 10 11  2  0  0  0  0
 10 12  1  0  0  0  0
 12 13  1  0  0  0  0
 12 37  1  0  0  0  0
 13 19  1  0  0  0  0
 13 14  1  0  0  0  0
 13 38  1  0  0  0  0
 14 18  1  0  0  0  0
 14 15  1  0  0  0  0
 14 39  1  0  0  0  0
 15 16  1  0  0  0  0
 15 40  1  0  0  0  0
 15 41  1  0  0  0  0
 16 17  1  0  0  0  0
 16 42  1  0  0  0  0
 16 43  1  0  0  0  0
 17 18  1  0  0  0  0
 18 19  1  0  0  0  0
 18 44  1  0  0  0  0
 19 22  1  0  0  0  0
 19 20  1  0  0  0  0
 20 21  1  0  0  0  0
 20 45  1  0  0  0  0
 20 46  1  0  0  0  0
 21 22  1  0  0  0  0
 21 47  1  0  0  0  0
 21 48  1  0  0  0  0
 22 49  1  0  0  0  0
 22 50  1  0  0  0  0
 23 24  2  0  0  0  0
M  END
> <s_m_source_file>
AV-unprocessed.smi

> <i_m_source_file_index>
2829

> <i_lp_mmshare_version>
43012

> <i_f3d_flags>
0

> <s_epik_input>
W0NIM11DKFtDSDNdKShbQ0gzXSljMVtjSF1bY0hdYyhubjEpW05IXUMoPU8pW05IXVtDQEBIXTJbQ0BIXShbQ0gyXVtDSDJdTzMpW0NAQEhdM0MyNFtDSDJdW0NIMl1bQ0gyXTQ=

> <s_epik_cmdline>
J2VwaWtfcHl0aG9uJywgJy1waCcsICc3LjAnLCAnLXRuJywgJzgnLCAnLW1hJywgJzIwMCcsICctbWV0YWxfYmluZGluZycsICctaW1hZScsICc8aW5maWxlLm1hZT4nLCAnLW9tYWUnLCAnPG91dGZpbGUubWFlPic=

> <r_lp_tautomer_probability>
1

> <r_epik_Ionization_Penalty>
0.011915

> <r_epik_Ionization_Penalty_Charging>
0

> <r_epik_Ionization_Penalty_Neutral>
0.011915

> <r_epik_State_Penalty>
0.00486223

> <r_epik_Charging_Adjusted_Penalty>
0.00486223

> <i_epik_Tot_Q>
0

> <i_epik_Tot_abs_Q>
0

> <r_epik_Metal_State_Penalty>
-0

> <b_epik_Metal_Only>
0

> <s_lp_Force_Field>
OPLS_2005

> <r_lp_Energy>
82.5072

> <b_lp_Chiralities_Consistent>
1

> <s_lp_Variant>
AV-unprocessed.smi:2829-2

> <Gold.Version>
5.8.1

> <Gold.Id.Protein>
6NUR|6NUR_protein|mol2

> <Gold.PLP.Fitness>
39.1360

> <Gold.PLP.PLP>
-36.9296

> <Gold.PLP.part.hbond>
-1.0270

> <Gold.PLP.part.metal>
0.0000

> <Gold.PLP.part.buried>
-2.2328

> <Gold.PLP.part.nonpolar>
-34.6745

> <Gold.PLP.part.repulsive>
1.7138

> <Gold.PLP.ligand.clash>
0.0000

> <Gold.PLP.ligand.torsion>
0.5473

> <Gold.PLP.Chemscore.Hbond>
0.9920

> <Gold.PLP.Chemscore.CHOScore>
0.0000

> <Gold.PLP.Chemscore.Metal>
0.0000

> <Gold.Chemscore.Hbonds>
donor molecule, donor type, donor heavy atom, donor atom, acceptor molecule, acceptor atom, score
      P1  H  7989  7998       L1    17  0.99

> <Gold.PLP.Chemscore.Internal.Correction>
0.3250

> <Gold.Rescore>
     Score         DG    S(hbond)    S(metal)    S(lipo)     H(rot)  DE(clash)    DE(int)     intcor
     14.85     -17.64       0.91        0.00     103.19       1.16       0.30       2.48       ----

> <Gold.Chemscore.Fitness>
14.8468

> <Gold.Chemscore.DG>
-17.6352

> <Gold.Chemscore.ZeroCoef>
-5.4800

> <Gold.Chemscore.Hbond>
0.9149

> <Gold.Chemscore.Metal>
0.0000

> <Gold.Chemscore.Lipo>
103.1936

> <Gold.Chemscore.Internal_Hbond>
0.0000

> <Gold.Chemscore.DEClash>
0.3045

> <Gold.Chemscore.DEInternal>
2.4839

> <Gold.Chemscore.Rot>
1.1618

> <Gold.Chemscore.Internal.Correction>
   9.000000E+99

> <Gold.Chemscore.Hbonds>
donor molecule, donor type, donor heavy atom, donor atom, acceptor molecule, acceptor atom, score
      P1  H  7989  7998       L1    17  0.42

> <Gold.Chemscore.Hbond.Weighted>
-3.0557

> <Gold.Chemscore.Metal.Weighted>
-0.0000

> <Gold.Chemscore.Lipo.Weighted>
-12.0737

> <Gold.Chemscore.Internal_Hbond.Weighted>
0.0000

> <Gold.Chemscore.DEClash.Weighted>
0.3045

> <Gold.Chemscore.DEInternal.Weighted>
2.4839

> <Gold.Chemscore.Rot.Weighted>
2.9741

> <Gold.Chemscore.Internal.Correction.Weighted>
   9.000000E+99

> <Gold.Protein.RotatedTorsions>
[ 6907 6896 6895 6894 ] final  122.78 input  -60.11 | X-H torsion
[ 7974 7965 7964 7962 ] final -104.55 input  175.53 | X-H torsion
[ 8008 7997 7996 7995 ] final   45.48 input   59.86 | X-H torsion
[ 10167 10162 10161 10158 ] final  152.45 input  -65.29 | X-H torsion
[ 10718 10713 10712 10709 ] final -131.33 input   66.30 | X-H torsion
[ 10763 10752 10751 10750 ] final  133.44 input  -60.55 | X-H torsion
[ 11005 11000 10999 10996 ] final  -75.90 input  -57.11 | X-H torsion

> <Gold.Protein.ActiveResidues>
 VAL166  LYS551  ARG553  GLY616  TRP617  ASP618  TYR619  PRO620  LYS621  CYS622 
 ASP623  PHE694  ASN695  SER759  ASP760  ASP761  ALA762  ILE779  LEU786  VAL792 
 PHE793  MET794  SER795  GLU796  ALA797  LYS798  CYS799  TRP800  GLU811  SER814 

> <Gold.Protein.RotatedAtoms>
  152.4215  133.7125  159.6486 H   0  0  0  0  0  0  0  0  0  0  0  0  # atno 6907 bound_to 6896
  150.8091  133.8443  159.3196 H   0  0  0  0  0  0  0  0  0  0  0  0  # atno 6908 bound_to 6896
  151.6158  135.1038  160.0142 H   0  0  0  0  0  0  0  0  0  0  0  0  # atno 6909 bound_to 6896
  145.2417  140.9207  143.3146 H   0  0  0  0  0  0  0  0  0  0  0  0  # atno 7974 bound_to 7965
  155.3366  140.3405  155.4239 H   0  0  0  0  0  0  0  0  0  0  0  0  # atno 8008 bound_to 7997
  156.1834  140.1672  156.8266 H   0  0  0  0  0  0  0  0  0  0  0  0  # atno 8009 bound_to 7997
  154.5359  140.0735  156.8410 H   0  0  0  0  0  0  0  0  0  0  0  0  # atno 8010 bound_to 7997
  139.4833  144.5356  151.7650 H   0  0  0  0  0  0  0  0  0  0  0  0  # atno 10167 bound_to 10162
  156.2233  130.6992  151.0780 H   0  0  0  0  0  0  0  0  0  0  0  0  # atno 10718 bound_to 10713
  153.8072  135.3134  155.3397 H   0  0  0  0  0  0  0  0  0  0  0  0  # atno 10763 bound_to 10752
  154.8066  135.4694  154.0410 H   0  0  0  0  0  0  0  0  0  0  0  0  # atno 10764 bound_to 10752
  153.1777  135.6888  153.8609 H   0  0  0  0  0  0  0  0  0  0  0  0  # atno 10765 bound_to 10752
  141.1649  133.6963  156.7587 H   0  0  0  0  0  0  0  0  0  0  0  0  # atno 11005 bound_to 11000
  144.9583  139.4007  143.6368 LP  0  0  0  0  0  0  0  0  0  0  0  0  # atno 17320 bound_to 7965
  146.3327  139.8624  142.8854 LP  0  0  0  0  0  0  0  0  0  0  0  0  # atno 17321 bound_to 7965
  140.4888  144.1340  150.5946 LP  0  0  0  0  0  0  0  0  0  0  0  0  # atno 17342 bound_to 10162
  140.4194  143.2619  151.9734 LP  0  0  0  0  0  0  0  0  0  0  0  0  # atno 17343 bound_to 10162
  157.7098  131.0739  150.6540 LP  0  0  0  0  0  0  0  0  0  0  0  0  # atno 17370 bound_to 10713
  156.6604  130.4510  149.5689 LP  0  0  0  0  0  0  0  0  0  0  0  0  # atno 17371 bound_to 10713
  140.2550  134.8511  157.3704 LP  0  0  0  0  0  0  0  0  0  0  0  0  # atno 17394 bound_to 11000
  140.1666  134.4661  155.7859 LP  0  0  0  0  0  0  0  0  0  0  0  0  # atno 17395 bound_to 11000

$$$$
