AV-unprocessed.smi:1539|AV-procd|sdf|6197|dock4
  -GOLD-   22720 6363D 1   1.00000     0.00000
 Structure written by MMmdl.
 41 42  0  0  0  0  0  0  0  0  1 V2000
  147.2525  142.6063  157.8214 C   0  0  0  0  0  0  0  0  0  0  0  0
  146.6172  141.3511  157.2184 C   0  0  0  0  0  0  0  0  0  0  0  0
  146.5232  140.3495  157.9285 O   0  0  0  0  0  0  0  0  0  0  0  0
  146.1930  141.3755  155.9308 N   0  0  0  0  0  0  0  0  0  0  0  0
  145.6354  140.1794  155.2819 C   0  0  0  0  0  0  0  0  0  0  0  0
  146.7476  139.2962  154.6769 C   0  0  0  0  0  0  0  0  0  0  0  0
  147.6229  140.0311  153.6373 C   0  0  0  0  0  0  0  0  0  0  0  0
  148.3302  141.1794  154.2363 N   0  0  0  0  0  0  0  0  0  0  0  0
  149.5133  141.1047  154.9007 C   0  0  0  0  0  0  0  0  0  0  0  0
  150.3058  140.1707  154.7687 O   0  0  0  0  0  0  0  0  0  0  0  0
  149.7726  142.1502  155.7052 N   0  0  0  0  0  0  0  0  0  0  0  0
  150.9825  142.3169  156.5011 C   0  0  0  0  0  0  0  0  0  0  0  0
  150.6514  142.7350  157.9426 C   0  0  0  0  0  0  0  0  0  0  0  0
  151.7318  142.4096  158.8509 N   0  0  0  0  0  0  0  0  0  0  0  0
  152.4375  143.2893  159.6607 C   0  0  0  0  0  0  0  0  0  0  0  0
  153.3629  142.5354  160.3466 C   0  0  0  0  0  0  0  0  0  0  0  0
  153.2438  141.1973  159.9779 N   0  0  0  0  0  0  0  0  0  0  0  0
  152.2581  141.2006  159.0894 C   0  0  0  0  0  0  0  0  0  0  0  0
  147.5925  142.4504  154.1139 C   0  0  0  0  0  0  0  0  0  0  0  0
  146.3397  142.5314  155.0282 C   0  0  0  0  0  0  0  0  0  0  0  0
  148.0754  142.9647  157.2031 H   0  0  0  0  0  0  0  0  0  0  0  0
  147.6521  142.3948  158.8138 H   0  0  0  0  0  0  0  0  0  0  0  0
  146.5128  143.4009  157.9214 H   0  0  0  0  0  0  0  0  0  0  0  0
  145.0443  139.5962  155.9902 H   0  0  0  0  0  0  0  0  0  0  0  0
  144.9334  140.4637  154.4975 H   0  0  0  0  0  0  0  0  0  0  0  0
  147.3744  138.8988  155.4760 H   0  0  0  0  0  0  0  0  0  0  0  0
  146.2879  138.4291  154.2022 H   0  0  0  0  0  0  0  0  0  0  0  0
  148.3254  139.3354  153.1762 H   0  0  0  0  0  0  0  0  0  0  0  0
  146.9903  140.3684  152.8153 H   0  0  0  0  0  0  0  0  0  0  0  0
  149.0850  142.8877  155.7581 H   0  0  0  0  0  0  0  0  0  0  0  0
  151.5673  141.3953  156.4928 H   0  0  0  0  0  0  0  0  0  0  0  0
  151.5994  143.0789  156.0238 H   0  0  0  0  0  0  0  0  0  0  0  0
  150.4628  143.8081  157.9964 H   0  0  0  0  0  0  0  0  0  0  0  0
  149.7467  142.2354  158.2919 H   0  0  0  0  0  0  0  0  0  0  0  0
  152.2282  144.3488  159.6810 H   0  0  0  0  0  0  0  0  0  0  0  0
  154.0985  142.8504  161.0721 H   0  0  0  0  0  0  0  0  0  0  0  0
  151.9093  140.3017  158.6022 H   0  0  0  0  0  0  0  0  0  0  0  0
  148.2338  143.3078  154.3234 H   0  0  0  0  0  0  0  0  0  0  0  0
  147.2944  142.5916  153.0741 H   0  0  0  0  0  0  0  0  0  0  0  0
  145.4520  142.6012  154.3983 H   0  0  0  0  0  0  0  0  0  0  0  0
  146.3401  143.4759  155.5717 H   0  0  0  0  0  0  0  0  0  0  0  0
  1  2  1  0  0  0  0
  1 21  1  0  0  0  0
  1 22  1  0  0  0  0
  1 23  1  0  0  0  0
  2  3  2  0  0  0  0
  2  4  1  0  0  0  0
  4 20  1  0  0  0  0
  4  5  1  0  0  0  0
  5  6  1  0  0  0  0
  5 24  1  0  0  0  0
  5 25  1  0  0  0  0
  6  7  1  0  0  0  0
  6 26  1  0  0  0  0
  6 27  1  0  0  0  0
  7  8  1  0  0  0  0
  7 28  1  0  0  0  0
  7 29  1  0  0  0  0
  8  9  1  0  0  0  0
  8 19  1  0  0  0  0
  9 10  2  0  0  0  0
  9 11  1  0  0  0  0
 11 12  1  0  0  0  0
 11 30  1  0  0  0  0
 12 13  1  0  0  0  0
 12 31  1  0  0  0  0
 12 32  1  0  0  0  0
 13 14  1  0  0  0  0
 13 33  1  0  0  0  0
 13 34  1  0  0  0  0
 14 18  1  0  0  0  0
 14 15  1  0  0  0  0
 15 16  2  0  0  0  0
 15 35  1  0  0  0  0
 16 17  1  0  0  0  0
 16 36  1  0  0  0  0
 17 18  2  0  0  0  0
 18 37  1  0  0  0  0
 19 20  1  0  0  0  0
 19 38  1  0  0  0  0
 19 39  1  0  0  0  0
 20 40  1  0  0  0  0
 20 41  1  0  0  0  0
M  END
> <s_m_source_file>
AV-unprocessed.smi

> <i_m_source_file_index>
1539

> <i_lp_mmshare_version>
43012

> <i_f3d_flags>
0

> <s_epik_input>
W0NIM11DKD1PKU4xW0NIMl1bQ0gyXVtDSDJdTihbQ0gyXVtDSDJdMSlDKD1PKVtOSF1bQ0gyXVtDSDJdbjJbY0hdW2NIXW5bY0hdMg==

> <s_epik_cmdline>
J2VwaWtfcHl0aG9uJywgJy1waCcsICc3LjAnLCAnLXRuJywgJzgnLCAnLW1hJywgJzIwMCcsICctbWV0YWxfYmluZGluZycsICctaW1hZScsICc8aW5maWxlLm1hZT4nLCAnLW9tYWUnLCAnPG91dGZpbGUubWFlPic=

> <r_lp_tautomer_probability>
1

> <r_epik_Ionization_Penalty>
0.624284

> <r_epik_Ionization_Penalty_Charging>
0.624238

> <r_epik_Ionization_Penalty_Neutral>
4.66445e-05

> <r_epik_State_Penalty>
0.64053

> <r_epik_Charging_Adjusted_Penalty>
1.26477

> <i_epik_Tot_Q>
0

> <i_epik_Tot_abs_Q>
0

> <r_epik_Metal_State_Penalty>
0.307534

> <b_epik_Metal_Only>
0

> <s_lp_Force_Field>
OPLS_2005

> <r_lp_Energy>
41.7081

> <b_lp_Chiralities_Consistent>
1

> <s_lp_Variant>
AV-unprocessed.smi:1539-2

> <Gold.Version>
5.8.1

> <Gold.Id.Protein>
6NUR|6NUR_protein|mol2

> <Gold.PLP.Fitness>
40.4324

> <Gold.PLP.PLP>
-36.7561

> <Gold.PLP.part.hbond>
-2.4419

> <Gold.PLP.part.metal>
0.0000

> <Gold.PLP.part.buried>
-4.1259

> <Gold.PLP.part.nonpolar>
-29.1391

> <Gold.PLP.part.repulsive>
0.2295

> <Gold.PLP.ligand.clash>
1.2385

> <Gold.PLP.ligand.torsion>
0.3495

> <Gold.PLP.Chemscore.Hbond>
1.8640

> <Gold.PLP.Chemscore.CHOScore>
0.0000

> <Gold.PLP.Chemscore.Metal>
0.0000

> <Gold.Chemscore.Hbonds>
donor molecule, donor type, donor heavy atom, donor atom, acceptor molecule, acceptor atom, score
      L1  H    11    30       P1  8028  0.86
      P1  H  7989  7998       L1    10  1.00

> <Gold.PLP.Chemscore.Internal.Correction>
0.0219

> <Gold.Rescore>
     Score         DG    S(hbond)    S(metal)    S(lipo)     H(rot)  DE(clash)    DE(int)     intcor
     13.55     -13.99       1.50        0.00      66.10       1.65       0.12       0.32       ----

> <Gold.Chemscore.Fitness>
13.5473

> <Gold.Chemscore.DG>
-13.9891

> <Gold.Chemscore.ZeroCoef>
-5.4800

> <Gold.Chemscore.Hbond>
1.4981

> <Gold.Chemscore.Metal>
0.0000

> <Gold.Chemscore.Lipo>
66.0992

> <Gold.Chemscore.Internal_Hbond>
0.0000

> <Gold.Chemscore.DEClash>
0.1190

> <Gold.Chemscore.DEInternal>
0.3227

> <Gold.Chemscore.Rot>
1.6516

> <Gold.Chemscore.Internal.Correction>
   9.000000E+99

> <Gold.Chemscore.Hbonds>
donor molecule, donor type, donor heavy atom, donor atom, acceptor molecule, acceptor atom, score
      L1  H    11    30       P1  8028  0.85
      P1  H  7989  7998       L1    10  0.39

> <Gold.Chemscore.Hbond.Weighted>
-5.0036

> <Gold.Chemscore.Metal.Weighted>
-0.0000

> <Gold.Chemscore.Lipo.Weighted>
-7.7336

> <Gold.Chemscore.Internal_Hbond.Weighted>
0.0000

> <Gold.Chemscore.DEClash.Weighted>
0.1190

> <Gold.Chemscore.DEInternal.Weighted>
0.3227

> <Gold.Chemscore.Rot.Weighted>
4.2280

> <Gold.Chemscore.Internal.Correction.Weighted>
   9.000000E+99

> <Gold.Protein.RotatedTorsions>
[ 6907 6896 6895 6894 ] final -166.55 input  -60.11 | X-H torsion
[ 7974 7965 7964 7962 ] final  120.85 input  175.53 | X-H torsion
[ 8008 7997 7996 7995 ] final -175.77 input   59.86 | X-H torsion
[ 10167 10162 10161 10158 ] final  155.10 input  -65.29 | X-H torsion
[ 10718 10713 10712 10709 ] final    7.52 input   66.30 | X-H torsion
[ 10763 10752 10751 10750 ] final   72.63 input  -60.55 | X-H torsion
[ 11005 11000 10999 10996 ] final -104.86 input  -57.11 | X-H torsion

> <Gold.Protein.ActiveResidues>
 VAL166  LYS551  ARG553  GLY616  TRP617  ASP618  TYR619  PRO620  LYS621  CYS622 
 ASP623  PHE694  ASN695  SER759  ASP760  ASP761  ALA762  ILE779  LEU786  VAL792 
 PHE793  MET794  SER795  GLU796  ALA797  LYS798  CYS799  TRP800  GLU811  SER814 

> <Gold.Protein.RotatedAtoms>
  151.4453  133.3632  159.2787 H   0  0  0  0  0  0  0  0  0  0  0  0  # atno 6907 bound_to 6896
  150.9129  134.8547  159.7448 H   0  0  0  0  0  0  0  0  0  0  0  0  # atno 6908 bound_to 6896
  152.4941  134.4384  159.9587 H   0  0  0  0  0  0  0  0  0  0  0  0  # atno 6909 bound_to 6896
  145.1263  139.3356  143.4688 H   0  0  0  0  0  0  0  0  0  0  0  0  # atno 7974 bound_to 7965
  155.9867  140.1192  157.0677 H   0  0  0  0  0  0  0  0  0  0  0  0  # atno 8008 bound_to 7997
  154.4199  140.1134  156.5577 H   0  0  0  0  0  0  0  0  0  0  0  0  # atno 8009 bound_to 7997
  155.6398  140.3473  155.4713 H   0  0  0  0  0  0  0  0  0  0  0  0  # atno 8010 bound_to 7997
  139.4822  144.5128  151.7998 H   0  0  0  0  0  0  0  0  0  0  0  0  # atno 10167 bound_to 10162
  156.9381  130.5851  149.5651 H   0  0  0  0  0  0  0  0  0  0  0  0  # atno 10718 bound_to 10713
  153.0471  135.5093  154.7773 H   0  0  0  0  0  0  0  0  0  0  0  0  # atno 10763 bound_to 10752
  154.6664  135.2946  154.9801 H   0  0  0  0  0  0  0  0  0  0  0  0  # atno 10764 bound_to 10752
  154.0634  135.6687  153.4867 H   0  0  0  0  0  0  0  0  0  0  0  0  # atno 10765 bound_to 10752
  141.1080  133.8759  157.1663 H   0  0  0  0  0  0  0  0  0  0  0  0  # atno 11005 bound_to 11000
  146.3517  140.1244  142.8599 LP  0  0  0  0  0  0  0  0  0  0  0  0  # atno 17320 bound_to 7965
  145.0684  140.9138  143.4896 LP  0  0  0  0  0  0  0  0  0  0  0  0  # atno 17321 bound_to 7965
  140.4633  144.1691  150.5909 LP  0  0  0  0  0  0  0  0  0  0  0  0  # atno 17342 bound_to 10162
  140.4461  143.2506  151.9409 LP  0  0  0  0  0  0  0  0  0  0  0  0  # atno 17343 bound_to 10162
  156.0417  130.5498  150.8785 LP  0  0  0  0  0  0  0  0  0  0  0  0  # atno 17370 bound_to 10713
  157.5803  131.0946  150.9282 LP  0  0  0  0  0  0  0  0  0  0  0  0  # atno 17371 bound_to 10713
  139.9960  135.0046  157.0083 LP  0  0  0  0  0  0  0  0  0  0  0  0  # atno 17394 bound_to 11000
  140.4850  134.1251  155.7223 LP  0  0  0  0  0  0  0  0  0  0  0  0  # atno 17395 bound_to 11000

$$$$
