AV-unprocessed.smi:191|AV-procd|sdf|1493|dock4
  -GOLD-   2262019313D 1   1.00000     0.00000
 Structure written by MMmdl.
 46 48  0  0  0  0  0  0  0  0  1 V2000
  147.0864  136.9561  157.5514 C   0  0  0  0  0  0  0  0  0  0  0  0
  146.4914  136.6934  156.1619 C   0  0  0  0  0  0  0  0  0  0  0  0
  146.5781  137.8609  155.2881 N   0  0  0  0  0  0  0  0  0  0  0  0
  147.7268  138.7477  155.4771 C   0  0  0  0  0  0  0  0  0  0  0  0
  149.0202  138.2368  154.8117 C   0  0  2  0  0  0  0  0  0  0  0  0
  149.4798  136.9158  155.4391 C   0  0  0  0  0  0  0  0  0  0  0  0
  150.0944  139.2421  154.8719 C   0  0  0  0  0  0  0  0  0  0  0  0
  150.9383  140.0320  154.9194 N   0  0  0  0  0  0  0  0  0  0  0  0
  146.3397  137.5470  153.9963 C   0  0  0  0  0  0  0  0  0  0  0  0
  146.9053  138.3349  153.0497 N   0  0  0  0  0  0  0  0  0  0  0  0
  146.7046  138.0696  151.7554 C   0  0  0  0  0  0  0  0  0  0  0  0
  145.9867  137.0871  151.2058 N   0  0  0  0  0  0  0  0  0  0  0  0
  145.4176  136.2929  152.1575 C   0  0  0  0  0  0  0  0  0  0  0  0
  145.5396  136.4517  153.5664 C   0  0  0  0  0  0  0  0  0  0  0  0
  144.8182  135.4617  154.2218 N   0  0  0  0  0  0  0  0  0  0  0  0
  144.2944  134.7598  153.2544 C   0  0  0  0  0  0  0  0  0  0  0  0
  144.6110  135.1818  151.9820 N   0  0  0  0  0  0  0  0  0  0  0  0
  144.1631  134.5820  150.7340 C   0  0  0  0  0  0  0  0  0  0  0  0
  144.7114  133.1620  150.4796 C   0  0  0  0  0  0  0  0  0  0  0  0
  144.2748  132.6435  149.0981 C   0  0  0  0  0  0  0  0  0  0  0  0
  142.9421  132.1730  149.1202 O   0  0  0  0  0  0  0  0  0  0  0  0
  146.1973  132.9541  150.8045 C   0  0  0  0  0  0  0  0  0  0  0  0
  145.9165  131.7860  151.6046 O   0  0  0  0  0  0  0  0  0  0  0  0
  144.5206  132.1522  151.6207 C   0  0  0  0  0  0  0  0  0  0  0  0
  146.9590  136.0844  158.1931 H   0  0  0  0  0  0  0  0  0  0  0  0
  146.5925  137.7988  158.0363 H   0  0  0  0  0  0  0  0  0  0  0  0
  148.1533  137.1727  157.5037 H   0  0  0  0  0  0  0  0  0  0  0  0
  147.0071  135.8537  155.6941 H   0  0  0  0  0  0  0  0  0  0  0  0
  145.4489  136.3920  156.2795 H   0  0  0  0  0  0  0  0  0  0  0  0
  147.4888  139.7304  155.0712 H   0  0  0  0  0  0  0  0  0  0  0  0
  147.8932  138.8941  156.5449 H   0  0  0  0  0  0  0  0  0  0  0  0
  148.8367  138.0505  153.7534 H   0  0  0  0  0  0  0  0  0  0  0  0
  150.3801  136.5439  154.9493 H   0  0  0  0  0  0  0  0  0  0  0  0
  148.7110  136.1483  155.3463 H   0  0  0  0  0  0  0  0  0  0  0  0
  149.7041  137.0391  156.4991 H   0  0  0  0  0  0  0  0  0  0  0  0
  147.1881  138.7407  151.0607 H   0  0  0  0  0  0  0  0  0  0  0  0
  143.6630  133.9037  153.4435 H   0  0  0  0  0  0  0  0  0  0  0  0
  143.0725  134.5740  150.7336 H   0  0  0  0  0  0  0  0  0  0  0  0
  144.4471  135.2529  149.9224 H   0  0  0  0  0  0  0  0  0  0  0  0
  144.3334  133.4400  148.3553 H   0  0  0  0  0  0  0  0  0  0  0  0
  144.9304  131.8505  148.7387 H   0  0  0  0  0  0  0  0  0  0  0  0
  142.3615  132.9166  149.1803 H   0  0  0  0  0  0  0  0  0  0  0  0
  146.8181  132.7301  149.9363 H   0  0  0  0  0  0  0  0  0  0  0  0
  146.6370  133.7560  151.4004 H   0  0  0  0  0  0  0  0  0  0  0  0
  144.2387  132.6005  152.5745 H   0  0  0  0  0  0  0  0  0  0  0  0
  143.8623  131.3186  151.3729 H   0  0  0  0  0  0  0  0  0  0  0  0
  1  2  1  0  0  0  0
  1 25  1  0  0  0  0
  1 26  1  0  0  0  0
  1 27  1  0  0  0  0
  2  3  1  0  0  0  0
  2 28  1  0  0  0  0
  2 29  1  0  0  0  0
  3  4  1  0  0  0  0
  3  9  1  0  0  0  0
  4  5  1  0  0  0  0
  4 30  1  0  0  0  0
  4 31  1  0  0  0  0
  5  6  1  0  0  0  0
  5  7  1  0  0  0  0
  5 32  1  0  0  0  0
  6 33  1  0  0  0  0
  6 34  1  0  0  0  0
  6 35  1  0  0  0  0
  7  8  3  0  0  0  0
  9 14  1  0  0  0  0
  9 10  2  0  0  0  0
 10 11  1  0  0  0  0
 11 12  2  0  0  0  0
 11 36  1  0  0  0  0
 12 13  1  0  0  0  0
 13 17  1  0  0  0  0
 13 14  2  0  0  0  0
 14 15  1  0  0  0  0
 15 16  2  0  0  0  0
 16 17  1  0  0  0  0
 16 37  1  0  0  0  0
 17 18  1  0  0  0  0
 18 19  1  0  0  0  0
 18 38  1  0  0  0  0
 18 39  1  0  0  0  0
 19 24  1  0  0  0  0
 19 20  1  0  0  0  0
 19 22  1  0  0  0  0
 20 21  1  0  0  0  0
 20 40  1  0  0  0  0
 20 41  1  0  0  0  0
 21 42  1  0  0  0  0
 22 23  1  0  0  0  0
 22 43  1  0  0  0  0
 22 44  1  0  0  0  0
 23 24  1  0  0  0  0
 24 45  1  0  0  0  0
 24 46  1  0  0  0  0
M  END
> <s_m_source_file>
AV-unprocessed.smi

> <i_m_source_file_index>
191

> <i_lp_mmshare_version>
43012

> <i_f3d_flags>
0

> <s_epik_input>
TiNDW0NAQEhdKFtDSDNdKVtDSDJdTihbQ0gyXVtDSDNdKWMobltjSF1uMSljKGMxMiluW2NIXW4yW0NIMl1DMyhbQ0gyXVtPSF0pW0NIMl1PW0NIMl0z

> <s_epik_cmdline>
J2VwaWtfcHl0aG9uJywgJy1waCcsICc3LjAnLCAnLXRuJywgJzgnLCAnLW1hJywgJzIwMCcsICctbWV0YWxfYmluZGluZycsICctaW1hZScsICc8aW5maWxlLm1hZT4nLCAnLW9tYWUnLCAnPG91dGZpbGUubWFlPic=

> <r_lp_tautomer_probability>
1

> <r_epik_Ionization_Penalty>
0.000569684

> <r_epik_Ionization_Penalty_Charging>
0

> <r_epik_Ionization_Penalty_Neutral>
0.000569684

> <r_epik_State_Penalty>
0.000286009

> <r_epik_Charging_Adjusted_Penalty>
0.000286009

> <i_epik_Tot_Q>
0

> <i_epik_Tot_abs_Q>
0

> <r_epik_Metal_State_Penalty>
-0

> <b_epik_Metal_Only>
0

> <s_lp_Force_Field>
OPLS_2005

> <r_lp_Energy>
28.3961

> <b_lp_Chiralities_Consistent>
1

> <s_lp_Variant>
AV-unprocessed.smi:191-1

> <Gold.Version>
5.8.1

> <Gold.Id.Protein>
6NUR|6NUR_protein|mol2

> <Gold.PLP.Fitness>
40.5627

> <Gold.PLP.PLP>
-30.5070

> <Gold.PLP.part.hbond>
-3.9979

> <Gold.PLP.part.metal>
0.0000

> <Gold.PLP.part.buried>
-7.2831

> <Gold.PLP.part.nonpolar>
-23.6760

> <Gold.PLP.part.repulsive>
2.3270

> <Gold.PLP.ligand.clash>
0.0000

> <Gold.PLP.ligand.torsion>
1.3814

> <Gold.PLP.Chemscore.Hbond>
2.9338

> <Gold.PLP.Chemscore.CHOScore>
1.0208

> <Gold.PLP.Chemscore.Metal>
0.0000

> <Gold.Chemscore.Hbonds>
donor molecule, donor type, donor heavy atom, donor atom, acceptor molecule, acceptor atom, score
      L1  H    21    42       P1 10186  0.96
      P1  H  7989  7998       L1     8  1.00
      P1  H 10785 10796       L1    21  0.88
      L1  C    11    36       P1  7957  0.60
      L1  C    16    37       P1 10957  0.54

> <Gold.PLP.Chemscore.Internal.Correction>
0.9551

> <Gold.Rescore>
     Score         DG    S(hbond)    S(metal)    S(lipo)     H(rot)  DE(clash)    DE(int)     intcor
      5.37     -11.13       2.51        0.00      51.72       3.43       1.40       4.36       ----

> <Gold.Chemscore.Fitness>
5.3734

> <Gold.Chemscore.DG>
-11.1348

> <Gold.Chemscore.ZeroCoef>
-5.4800

> <Gold.Chemscore.Hbond>
2.5105

> <Gold.Chemscore.Metal>
0.0000

> <Gold.Chemscore.Lipo>
51.7206

> <Gold.Chemscore.Internal_Hbond>
0.0000

> <Gold.Chemscore.DEClash>
1.3998

> <Gold.Chemscore.DEInternal>
4.3616

> <Gold.Chemscore.Rot>
3.4303

> <Gold.Chemscore.Internal.Correction>
   9.000000E+99

> <Gold.Chemscore.Hbonds>
donor molecule, donor type, donor heavy atom, donor atom, acceptor molecule, acceptor atom, score
      L1  H    21    42       P1 10186  0.91
      P1  H  7989  7998       L1     8  1.00
      P1  H 10785 10796       L1    21  0.29

> <Gold.Chemscore.Hbond.Weighted>
-8.3851

> <Gold.Chemscore.Metal.Weighted>
-0.0000

> <Gold.Chemscore.Lipo.Weighted>
-6.0513

> <Gold.Chemscore.Internal_Hbond.Weighted>
0.0000

> <Gold.Chemscore.DEClash.Weighted>
1.3998

> <Gold.Chemscore.DEInternal.Weighted>
4.3616

> <Gold.Chemscore.Rot.Weighted>
8.7817

> <Gold.Chemscore.Internal.Correction.Weighted>
   9.000000E+99

> <Gold.Protein.RotatedTorsions>
[ 6907 6896 6895 6894 ] final   76.29 input  -60.11 | X-H torsion
[ 7974 7965 7964 7962 ] final  128.59 input  175.53 | X-H torsion
[ 8008 7997 7996 7995 ] final -166.17 input   59.86 | X-H torsion
[ 10167 10162 10161 10158 ] final  126.82 input  -65.29 | X-H torsion
[ 10718 10713 10712 10709 ] final -133.37 input   66.30 | X-H torsion
[ 10763 10752 10751 10750 ] final  128.01 input  -60.55 | X-H torsion
[ 11005 11000 10999 10996 ] final  -12.08 input  -57.11 | X-H torsion

> <Gold.Protein.ActiveResidues>
 VAL166  LYS551  ARG553  GLY616  TRP617  ASP618  TYR619  PRO620  LYS621  CYS622 
 ASP623  PHE694  ASN695  SER759  ASP760  ASP761  ALA762  ILE779  LEU786  VAL792 
 PHE793  MET794  SER795  GLU796  ALA797  LYS798  CYS799  TRP800  GLU811  SER814 

> <Gold.Protein.RotatedAtoms>
  152.5066  134.3991  159.9410 H   0  0  0  0  0  0  0  0  0  0  0  0  # atno 6907 bound_to 6896
  151.3954  133.3768  159.2733 H   0  0  0  0  0  0  0  0  0  0  0  0  # atno 6908 bound_to 6896
  150.9401  134.8831  159.7665 H   0  0  0  0  0  0  0  0  0  0  0  0  # atno 6909 bound_to 6896
  145.0379  139.3989  143.5117 H   0  0  0  0  0  0  0  0  0  0  0  0  # atno 7974 bound_to 7965
  155.8600  140.0976  157.1619 H   0  0  0  0  0  0  0  0  0  0  0  0  # atno 8008 bound_to 7997
  154.3990  140.1367  156.4011 H   0  0  0  0  0  0  0  0  0  0  0  0  # atno 8009 bound_to 7997
  155.7867  140.3457  155.5329 H   0  0  0  0  0  0  0  0  0  0  0  0  # atno 8010 bound_to 7997
  139.5611  144.6882  151.4041 H   0  0  0  0  0  0  0  0  0  0  0  0  # atno 10167 bound_to 10162
  156.2442  130.7114  151.0987 H   0  0  0  0  0  0  0  0  0  0  0  0  # atno 10718 bound_to 10713
  153.7186  135.3257  155.3262 H   0  0  0  0  0  0  0  0  0  0  0  0  # atno 10763 bound_to 10752
  154.8363  135.4494  154.1240 H   0  0  0  0  0  0  0  0  0  0  0  0  # atno 10764 bound_to 10752
  153.2354  135.6965  153.7922 H   0  0  0  0  0  0  0  0  0  0  0  0  # atno 10765 bound_to 10752
  140.7620  133.8507  155.9132 H   0  0  0  0  0  0  0  0  0  0  0  0  # atno 11005 bound_to 11000
  146.3506  139.9964  142.8680 LP  0  0  0  0  0  0  0  0  0  0  0  0  # atno 17320 bound_to 7965
  145.1686  140.9709  143.4335 LP  0  0  0  0  0  0  0  0  0  0  0  0  # atno 17321 bound_to 7965
  140.6891  143.7905  150.7228 LP  0  0  0  0  0  0  0  0  0  0  0  0  # atno 17342 bound_to 10162
  140.1382  143.4465  152.2211 LP  0  0  0  0  0  0  0  0  0  0  0  0  # atno 17343 bound_to 10162
  157.7188  131.0694  150.6221 LP  0  0  0  0  0  0  0  0  0  0  0  0  # atno 17370 bound_to 10713
  156.6296  130.4428  149.5791 LP  0  0  0  0  0  0  0  0  0  0  0  0  # atno 17371 bound_to 10713
  140.9654  134.1600  157.4620 LP  0  0  0  0  0  0  0  0  0  0  0  0  # atno 17394 bound_to 11000
  139.8769  134.9960  156.5771 LP  0  0  0  0  0  0  0  0  0  0  0  0  # atno 17395 bound_to 11000

$$$$
