AV-unprocessed.smi:1737|AV-procd|sdf|6995|dock6
  -GOLD-   22720 8213D 1   1.00000     0.00000
 Structure written by MMmdl.
 43 44  0  0  0  0  0  0  0  0  2 V2000
  152.8628  143.6086  162.4105 C   0  0  0  0  0  0  0  0  0  0  0  0
  152.4565  143.8025  160.9586 C   0  0  0  0  0  0  0  0  0  0  0  0
  151.6001  144.8713  160.6184 C   0  0  0  0  0  0  0  0  0  0  0  0
  151.2262  145.0503  159.2757 C   0  0  0  0  0  0  0  0  0  0  0  0
  151.7277  144.1467  158.3235 C   0  0  0  0  0  0  0  0  0  0  0  0
  152.5465  143.1226  158.6395 N   0  0  0  0  0  0  0  0  0  0  0  0
  152.9177  142.9362  159.9311 C   0  0  0  0  0  0  0  0  0  0  0  0
  153.7737  141.8736  160.3373 N   0  0  0  0  0  0  0  0  0  0  0  0
  153.9256  140.6621  159.7742 C   0  0  0  0  0  0  0  0  0  0  0  0
  153.3536  140.2691  158.7568 O   0  0  0  0  0  0  0  0  0  0  0  0
  154.7950  139.9091  160.4635 N   0  0  0  0  0  0  0  0  0  0  0  0
  155.1763  138.5459  160.1054 C   0  0  0  0  0  0  0  0  0  0  0  0
  154.4255  137.4657  160.9296 C   0  0  2  0  0  0  0  0  0  0  0  0
  152.9627  137.3435  160.4383 C   0  0  0  0  0  0  0  0  0  0  0  0
  154.5437  137.7582  162.3954 N   0  3  0  0  0  0  0  0  0  0  0  0
  154.1560  136.6479  163.3091 C   0  0  0  0  0  0  0  0  0  0  0  0
  154.2864  137.0719  164.7824 C   0  0  0  0  0  0  0  0  0  0  0  0
  155.6118  137.5072  165.0466 O   0  0  0  0  0  0  0  0  0  0  0  0
  155.9568  138.6351  164.2561 C   0  0  0  0  0  0  0  0  0  0  0  0
  155.8970  138.2544  162.7682 C   0  0  0  0  0  0  0  0  0  0  0  0
  152.3935  144.3509  163.0568 H   0  0  0  0  0  0  0  0  0  0  0  0
  153.9435  143.7047  162.5193 H   0  0  0  0  0  0  0  0  0  0  0  0
  152.5641  142.6210  162.7635 H   0  0  0  0  0  0  0  0  0  0  0  0
  151.2317  145.5478  161.3758 H   0  0  0  0  0  0  0  0  0  0  0  0
  150.5720  145.8582  158.9835 H   0  0  0  0  0  0  0  0  0  0  0  0
  151.4643  144.2466  157.2808 H   0  0  0  0  0  0  0  0  0  0  0  0
  154.3281  142.0581  161.1601 H   0  0  0  0  0  0  0  0  0  0  0  0
  155.2243  140.3048  161.2875 H   0  0  0  0  0  0  0  0  0  0  0  0
  155.0194  138.4264  159.0341 H   0  0  0  0  0  0  0  0  0  0  0  0
  156.2508  138.4473  160.2634 H   0  0  0  0  0  0  0  0  0  0  0  0
  154.8941  136.4959  160.7544 H   0  0  0  0  0  0  0  0  0  0  0  0
  152.9119  137.1579  159.3657 H   0  0  0  0  0  0  0  0  0  0  0  0
  152.3964  138.2537  160.6387 H   0  0  0  0  0  0  0  0  0  0  0  0
  152.4431  136.5067  160.9051 H   0  0  0  0  0  0  0  0  0  0  0  0
  153.1200  136.3521  163.1457 H   0  0  0  0  0  0  0  0  0  0  0  0
  154.7823  135.7758  163.1137 H   0  0  0  0  0  0  0  0  0  0  0  0
  153.5756  137.8638  165.0241 H   0  0  0  0  0  0  0  0  0  0  0  0
  154.0562  136.2298  165.4355 H   0  0  0  0  0  0  0  0  0  0  0  0
  155.2901  139.4710  164.4740 H   0  0  0  0  0  0  0  0  0  0  0  0
  156.9649  138.9546  164.5212 H   0  0  0  0  0  0  0  0  0  0  0  0
  156.6387  137.4823  162.5576 H   0  0  0  0  0  0  0  0  0  0  0  0
  156.1758  139.1247  162.1773 H   0  0  0  0  0  0  0  0  0  0  0  0
  153.8937  138.5077  162.5851 H   0  0  0  0  0  0  0  0  0  0  0  0
  1  2  1  0  0  0  0
  1 21  1  0  0  0  0
  1 22  1  0  0  0  0
  1 23  1  0  0  0  0
  2  7  1  0  0  0  0
  2  3  2  0  0  0  0
  3  4  1  0  0  0  0
  3 24  1  0  0  0  0
  4  5  2  0  0  0  0
  4 25  1  0  0  0  0
  5  6  1  0  0  0  0
  5 26  1  0  0  0  0
  6  7  2  0  0  0  0
  7  8  1  0  0  0  0
  8  9  1  0  0  0  0
  8 27  1  0  0  0  0
  9 10  2  0  0  0  0
  9 11  1  0  0  0  0
 11 12  1  0  0  0  0
 11 28  1  0  0  0  0
 12 13  1  0  0  0  0
 12 29  1  0  0  0  0
 12 30  1  0  0  0  0
 13 14  1  0  0  0  0
 13 15  1  0  0  0  0
 13 31  1  0  0  0  0
 14 32  1  0  0  0  0
 14 33  1  0  0  0  0
 14 34  1  0  0  0  0
 15 20  1  0  0  0  0
 15 16  1  0  0  0  0
 15 43  1  0  0  0  0
 16 17  1  0  0  0  0
 16 35  1  0  0  0  0
 16 36  1  0  0  0  0
 17 18  1  0  0  0  0
 17 37  1  0  0  0  0
 17 38  1  0  0  0  0
 18 19  1  0  0  0  0
 19 20  1  0  0  0  0
 19 39  1  0  0  0  0
 19 40  1  0  0  0  0
 20 41  1  0  0  0  0
 20 42  1  0  0  0  0
M  CHG  1  15   1
M  END
> <s_m_source_file>
AV-unprocessed.smi

> <i_m_source_file_index>
1737

> <i_lp_mmshare_version>
43012

> <i_f3d_flags>
0

> <s_epik_input>
W0NIM11jMVtjSF1bY0hdW2NIXW5jMVtOSF1DKD1PKVtOSF1bQ0gyXVtDQEhdKFtDSDNdKU4yW0NIMl1bQ0gyXU9bQ0gyXVtDSDJdMg==

> <s_epik_cmdline>
J2VwaWtfcHl0aG9uJywgJy1waCcsICc3LjAnLCAnLXRuJywgJzgnLCAnLW1hJywgJzIwMCcsICctbWV0YWxfYmluZGluZycsICctaW1hZScsICc8aW5maWxlLm1hZT4nLCAnLW9tYWUnLCAnPG91dGZpbGUubWFlPic=

> <r_epik_Ionization_Penalty>
0.602573

> <r_epik_Ionization_Penalty_Charging>
0.602531

> <r_epik_Ionization_Penalty_Neutral>
4.25912e-05

> <r_epik_State_Penalty>
0.617039

> <r_epik_Charging_Adjusted_Penalty>
1.21957

> <i_epik_Tot_Q>
1

> <i_epik_Tot_abs_Q>
1

> <r_epik_Metal_State_Penalty>
0.617042

> <b_epik_Metal_Only>
0

> <s_lp_Force_Field>
OPLS_2005

> <r_lp_Energy>
21.8503

> <b_lp_Chiralities_Consistent>
1

> <s_lp_Variant>
AV-unprocessed.smi:1737-3

> <Gold.Version>
5.8.1

> <Gold.Id.Protein>
6NUR|6NUR_protein|mol2

> <Gold.PLP.Fitness>
44.1498

> <Gold.PLP.PLP>
-42.7625

> <Gold.PLP.part.hbond>
-1.0000

> <Gold.PLP.part.metal>
0.0000

> <Gold.PLP.part.buried>
-5.1145

> <Gold.PLP.part.nonpolar>
-36.8611

> <Gold.PLP.part.repulsive>
0.1778

> <Gold.PLP.ligand.clash>
0.0000

> <Gold.PLP.ligand.torsion>
0.6240

> <Gold.PLP.Chemscore.Hbond>
0.8640

> <Gold.PLP.Chemscore.CHOScore>
0.0000

> <Gold.PLP.Chemscore.Metal>
0.0000

> <Gold.Chemscore.Hbonds>
donor molecule, donor type, donor heavy atom, donor atom, acceptor molecule, acceptor atom, score
      P1  H  7997  8010       L1    10  0.71

> <Gold.PLP.Chemscore.Internal.Correction>
0.0434

> <Gold.Rescore>
     Score         DG    S(hbond)    S(metal)    S(lipo)     H(rot)  DE(clash)    DE(int)     intcor
     14.93     -16.59       0.89        0.00     102.68       1.51       0.08       1.58       ----

> <Gold.Chemscore.Fitness>
14.9339

> <Gold.Chemscore.DG>
-16.5934

> <Gold.Chemscore.ZeroCoef>
-5.4800

> <Gold.Chemscore.Hbond>
0.8901

> <Gold.Chemscore.Metal>
0.0000

> <Gold.Chemscore.Lipo>
102.6763

> <Gold.Chemscore.Internal_Hbond>
0.0000

> <Gold.Chemscore.DEClash>
0.0838

> <Gold.Chemscore.DEInternal>
1.5757

> <Gold.Chemscore.Rot>
1.5128

> <Gold.Chemscore.Internal.Correction>
   9.000000E+99

> <Gold.Chemscore.Hbonds>
donor molecule, donor type, donor heavy atom, donor atom, acceptor molecule, acceptor atom, score
      P1  H  7997  8010       L1    10  0.51

> <Gold.Chemscore.Hbond.Weighted>
-2.9730

> <Gold.Chemscore.Metal.Weighted>
-0.0000

> <Gold.Chemscore.Lipo.Weighted>
-12.0131

> <Gold.Chemscore.Internal_Hbond.Weighted>
0.0000

> <Gold.Chemscore.DEClash.Weighted>
0.0838

> <Gold.Chemscore.DEInternal.Weighted>
1.5757

> <Gold.Chemscore.Rot.Weighted>
3.8726

> <Gold.Chemscore.Internal.Correction.Weighted>
   9.000000E+99

> <Gold.Protein.RotatedTorsions>
[ 6907 6896 6895 6894 ] final  -13.63 input  -60.11 | X-H torsion
[ 7974 7965 7964 7962 ] final -174.13 input  175.53 | X-H torsion
[ 8008 7997 7996 7995 ] final   23.18 input   59.86 | X-H torsion
[ 10167 10162 10161 10158 ] final -174.90 input  -65.29 | X-H torsion
[ 10718 10713 10712 10709 ] final   25.61 input   66.30 | X-H torsion
[ 10763 10752 10751 10750 ] final   46.61 input  -60.55 | X-H torsion
[ 11005 11000 10999 10996 ] final  132.52 input  -57.11 | X-H torsion

> <Gold.Protein.ActiveResidues>
 VAL166  LYS551  ARG553  GLY616  TRP617  ASP618  TYR619  PRO620  LYS621  CYS622 
 ASP623  PHE694  ASN695  SER759  ASP760  ASP761  ALA762  ILE779  LEU786  VAL792 
 PHE793  MET794  SER795  GLU796  ALA797  LYS798  CYS799  TRP800  GLU811  SER814 

> <Gold.Protein.RotatedAtoms>
  151.3519  135.0886  159.9405 H   0  0  0  0  0  0  0  0  0  0  0  0  # atno 6907 bound_to 6896
  152.5185  133.9344  159.7606 H   0  0  0  0  0  0  0  0  0  0  0  0  # atno 6908 bound_to 6896
  150.9721  133.6279  159.2766 H   0  0  0  0  0  0  0  0  0  0  0  0  # atno 6909 bound_to 6896
  144.7133  140.1518  143.6383 H   0  0  0  0  0  0  0  0  0  0  0  0  # atno 7974 bound_to 7965
  154.9769  140.3097  155.4963 H   0  0  0  0  0  0  0  0  0  0  0  0  # atno 8008 bound_to 7997
  156.2958  140.2273  156.4805 H   0  0  0  0  0  0  0  0  0  0  0  0  # atno 8009 bound_to 7997
  154.7825  140.0445  157.1126 H   0  0  0  0  0  0  0  0  0  0  0  0  # atno 8010 bound_to 7997
  139.5609  144.1872  152.1237 H   0  0  0  0  0  0  0  0  0  0  0  0  # atno 10167 bound_to 10162
  157.1956  130.6866  149.6167 H   0  0  0  0  0  0  0  0  0  0  0  0  # atno 10718 bound_to 10713
  152.9809  135.6002  154.3627 H   0  0  0  0  0  0  0  0  0  0  0  0  # atno 10763 bound_to 10752
  154.3307  135.2768  155.2475 H   0  0  0  0  0  0  0  0  0  0  0  0  # atno 10764 bound_to 10752
  154.4600  135.5968  153.6304 H   0  0  0  0  0  0  0  0  0  0  0  0  # atno 10765 bound_to 10752
  139.9795  134.9552  156.9594 H   0  0  0  0  0  0  0  0  0  0  0  0  # atno 11005 bound_to 11000
  145.9110  139.2487  143.1438 LP  0  0  0  0  0  0  0  0  0  0  0  0  # atno 17320 bound_to 7965
  145.9716  140.8755  143.0159 LP  0  0  0  0  0  0  0  0  0  0  0  0  # atno 17321 bound_to 7965
  140.1385  144.5224  150.6758 LP  0  0  0  0  0  0  0  0  0  0  0  0  # atno 17342 bound_to 10162
  140.6889  143.2365  151.5186 LP  0  0  0  0  0  0  0  0  0  0  0  0  # atno 17343 bound_to 10162
  155.9706  130.4600  150.6056 LP  0  0  0  0  0  0  0  0  0  0  0  0  # atno 17370 bound_to 10713
  157.3817  131.0782  151.1471 LP  0  0  0  0  0  0  0  0  0  0  0  0  # atno 17371 bound_to 10713
  140.5125  134.0988  155.7273 LP  0  0  0  0  0  0  0  0  0  0  0  0  # atno 17394 bound_to 11000
  141.1469  133.9039  157.2194 LP  0  0  0  0  0  0  0  0  0  0  0  0  # atno 17395 bound_to 11000

$$$$
