AV-unprocessed.smi:1648|AV-procd|sdf|6631|dock6
  -GOLD-   22720 7333D 1   1.00000     0.00000
 Structure written by MMmdl.
 41 41  0  0  0  0  0  0  0  0  1 V2000
  150.9916  137.4900  154.4906 C   0  0  0  0  0  0  0  0  0  0  0  0
  149.5838  137.8973  154.9303 C   0  0  0  0  0  0  0  0  0  0  0  0
  149.3817  138.1977  156.1045 O   0  0  0  0  0  0  0  0  0  0  0  0
  148.5901  137.9157  154.0248 N   0  0  0  0  0  0  0  0  0  0  0  0
  147.1861  138.2739  154.2464 C   0  0  2  0  0  0  0  0  0  0  0  0
  146.3103  137.0337  153.9844 C   0  0  0  0  0  0  0  0  0  0  0  0
  145.1697  136.9624  154.4445 O   0  0  0  0  0  0  0  0  0  0  0  0
  146.8724  136.0572  153.2549 N   0  0  0  0  0  0  0  0  0  0  0  0
  146.2366  134.7941  152.8936 C   0  0  2  0  0  0  0  0  0  0  0  0
  147.0023  133.6179  153.5278 C   0  0  0  0  0  0  0  0  0  0  0  0
  146.1436  134.7022  151.3576 C   0  0  0  0  0  0  0  0  0  0  0  0
  145.4773  133.4952  150.9051 N   0  0  0  0  0  0  0  0  0  0  0  0
  144.1780  133.3859  150.4276 C   0  0  0  0  0  0  0  0  0  0  0  0
  143.9836  132.0590  150.1168 C   0  0  0  0  0  0  0  0  0  0  0  0
  145.1442  131.3389  150.3889 N   0  0  0  0  0  0  0  0  0  0  0  0
  145.9850  132.2560  150.8496 C   0  0  0  0  0  0  0  0  0  0  0  0
  146.7984  139.4134  153.2577 C   0  0  0  0  0  0  0  0  0  0  0  0
  146.8762  138.9495  151.7894 C   0  0  0  0  0  0  0  0  0  0  0  0
  147.6576  140.6839  153.4296 C   0  0  0  0  0  0  0  0  0  0  0  0
  151.3604  138.1489  153.7047 H   0  0  0  0  0  0  0  0  0  0  0  0
  151.0003  136.4640  154.1230 H   0  0  0  0  0  0  0  0  0  0  0  0
  151.6866  137.5503  155.3288 H   0  0  0  0  0  0  0  0  0  0  0  0
  148.8281  137.6363  153.0841 H   0  0  0  0  0  0  0  0  0  0  0  0
  147.0426  138.6262  155.2694 H   0  0  0  0  0  0  0  0  0  0  0  0
  147.8161  136.2001  152.9256 H   0  0  0  0  0  0  0  0  0  0  0  0
  145.2186  134.7902  153.2881 H   0  0  0  0  0  0  0  0  0  0  0  0
  146.5109  132.6656  153.3276 H   0  0  0  0  0  0  0  0  0  0  0  0
  147.0633  133.7247  154.6111 H   0  0  0  0  0  0  0  0  0  0  0  0
  148.0207  133.5555  153.1425 H   0  0  0  0  0  0  0  0  0  0  0  0
  145.5965  135.5587  150.9607 H   0  0  0  0  0  0  0  0  0  0  0  0
  147.1400  134.7351  150.9140 H   0  0  0  0  0  0  0  0  0  0  0  0
  143.5174  134.2372  150.3532 H   0  0  0  0  0  0  0  0  0  0  0  0
  143.1053  131.5716  149.7202 H   0  0  0  0  0  0  0  0  0  0  0  0
  146.9930  132.0196  151.1577 H   0  0  0  0  0  0  0  0  0  0  0  0
  145.7615  139.6980  153.4461 H   0  0  0  0  0  0  0  0  0  0  0  0
  147.8815  138.6122  151.5348 H   0  0  0  0  0  0  0  0  0  0  0  0
  146.6167  139.7595  151.1072 H   0  0  0  0  0  0  0  0  0  0  0  0
  146.1879  138.1303  151.5820 H   0  0  0  0  0  0  0  0  0  0  0  0
  148.7189  140.4611  153.3145 H   0  0  0  0  0  0  0  0  0  0  0  0
  147.5173  141.1479  154.4060 H   0  0  0  0  0  0  0  0  0  0  0  0
  147.3964  141.4373  152.6860 H   0  0  0  0  0  0  0  0  0  0  0  0
  1  2  1  0  0  0  0
  1 20  1  0  0  0  0
  1 21  1  0  0  0  0
  1 22  1  0  0  0  0
  2  3  2  0  0  0  0
  2  4  1  0  0  0  0
  4  5  1  0  0  0  0
  4 23  1  0  0  0  0
  5  6  1  0  0  0  0
  5 17  1  0  0  0  0
  5 24  1  0  0  0  0
  6  7  2  0  0  0  0
  6  8  1  0  0  0  0
  8  9  1  0  0  0  0
  8 25  1  0  0  0  0
  9 10  1  0  0  0  0
  9 11  1  0  0  0  0
  9 26  1  0  0  0  0
 10 27  1  0  0  0  0
 10 28  1  0  0  0  0
 10 29  1  0  0  0  0
 11 12  1  0  0  0  0
 11 30  1  0  0  0  0
 11 31  1  0  0  0  0
 12 16  1  0  0  0  0
 12 13  1  0  0  0  0
 13 14  2  0  0  0  0
 13 32  1  0  0  0  0
 14 15  1  0  0  0  0
 14 33  1  0  0  0  0
 15 16  2  0  0  0  0
 16 34  1  0  0  0  0
 17 18  1  0  0  0  0
 17 19  1  0  0  0  0
 17 35  1  0  0  0  0
 18 36  1  0  0  0  0
 18 37  1  0  0  0  0
 18 38  1  0  0  0  0
 19 39  1  0  0  0  0
 19 40  1  0  0  0  0
 19 41  1  0  0  0  0
M  END
> <s_m_source_file>
AV-unprocessed.smi

> <i_m_source_file_index>
1648

> <i_lp_mmshare_version>
43012

> <i_f3d_flags>
0

> <s_epik_input>
W0NIM11DKD1PKVtOSF1bQ0BASF0oW0NIXShbQ0gzXSlbQ0gzXSlDKD1PKVtOSF1bQ0BIXShbQ0gzXSlbQ0gyXW4xW2NIXVtjSF1uW2NIXTE=

> <s_epik_cmdline>
J2VwaWtfcHl0aG9uJywgJy1waCcsICc3LjAnLCAnLXRuJywgJzgnLCAnLW1hJywgJzIwMCcsICctbWV0YWxfYmluZGluZycsICctaW1hZScsICc8aW5maWxlLm1hZT4nLCAnLW9tYWUnLCAnPG91dGZpbGUubWFlPic=

> <r_lp_tautomer_probability>
1

> <r_epik_Ionization_Penalty>
0.628885

> <r_epik_Ionization_Penalty_Charging>
0.628884

> <r_epik_Ionization_Penalty_Neutral>
4.35155e-07

> <r_epik_State_Penalty>
0.64556

> <r_epik_Charging_Adjusted_Penalty>
1.27444

> <i_epik_Tot_Q>
0

> <i_epik_Tot_abs_Q>
0

> <r_epik_Metal_State_Penalty>
0.30874

> <b_epik_Metal_Only>
0

> <s_lp_Force_Field>
OPLS_2005

> <r_lp_Energy>
10.0668

> <b_lp_Chiralities_Consistent>
1

> <s_lp_Variant>
AV-unprocessed.smi:1648-5

> <Gold.Version>
5.8.1

> <Gold.Id.Protein>
6NUR|6NUR_protein|mol2

> <Gold.PLP.Fitness>
43.5152

> <Gold.PLP.PLP>
-30.5379

> <Gold.PLP.part.hbond>
-2.1186

> <Gold.PLP.part.metal>
0.0000

> <Gold.PLP.part.buried>
-1.5002

> <Gold.PLP.part.nonpolar>
-27.2930

> <Gold.PLP.part.repulsive>
0.1723

> <Gold.PLP.ligand.clash>
0.0000

> <Gold.PLP.ligand.torsion>
0.8307

> <Gold.PLP.Chemscore.Hbond>
1.9280

> <Gold.PLP.Chemscore.CHOScore>
2.9252

> <Gold.PLP.Chemscore.Metal>
0.0000

> <Gold.Chemscore.Hbonds>
donor molecule, donor type, donor heavy atom, donor atom, acceptor molecule, acceptor atom, score
      L1  H     4    23       P1  7948  0.96
      L1  H     8    25       P1  7948  1.00
      L1  C    13    32       P1 10186  0.73
      L1  C    14    33       P1 10952  0.83
      L1  C    16    34       P1 10747  1.00

> <Gold.PLP.Chemscore.Internal.Correction>
0.0791

> <Gold.Rescore>
     Score         DG    S(hbond)    S(metal)    S(lipo)     H(rot)  DE(clash)    DE(int)     intcor
     12.36     -13.09       1.98        0.00      63.67       2.52       0.06       0.67       ----

> <Gold.Chemscore.Fitness>
12.3623

> <Gold.Chemscore.DG>
-13.0911

> <Gold.Chemscore.ZeroCoef>
-5.4800

> <Gold.Chemscore.Hbond>
1.9812

> <Gold.Chemscore.Metal>
0.0000

> <Gold.Chemscore.Lipo>
63.6689

> <Gold.Chemscore.Internal_Hbond>
0.0000

> <Gold.Chemscore.DEClash>
0.0560

> <Gold.Chemscore.DEInternal>
0.6728

> <Gold.Chemscore.Rot>
2.5216

> <Gold.Chemscore.Internal.Correction>
   9.000000E+99

> <Gold.Chemscore.Hbonds>
donor molecule, donor type, donor heavy atom, donor atom, acceptor molecule, acceptor atom, score
      L1  H     4    23       P1  7948  0.92
      L1  H     8    25       P1  7948  0.93

> <Gold.Chemscore.Hbond.Weighted>
-6.6171

> <Gold.Chemscore.Metal.Weighted>
-0.0000

> <Gold.Chemscore.Lipo.Weighted>
-7.4493

> <Gold.Chemscore.Internal_Hbond.Weighted>
0.0000

> <Gold.Chemscore.DEClash.Weighted>
0.0560

> <Gold.Chemscore.DEInternal.Weighted>
0.6728

> <Gold.Chemscore.Rot.Weighted>
6.4553

> <Gold.Chemscore.Internal.Correction.Weighted>
   9.000000E+99

> <Gold.Protein.RotatedTorsions>
[ 6907 6896 6895 6894 ] final  -59.38 input  -60.11 | X-H torsion
[ 7974 7965 7964 7962 ] final  -27.54 input  175.53 | X-H torsion
[ 8008 7997 7996 7995 ] final  -42.52 input   59.86 | X-H torsion
[ 10167 10162 10161 10158 ] final -151.51 input  -65.29 | X-H torsion
[ 10718 10713 10712 10709 ] final  101.00 input   66.30 | X-H torsion
[ 10763 10752 10751 10750 ] final    1.32 input  -60.55 | X-H torsion
[ 11005 11000 10999 10996 ] final  -28.99 input  -57.11 | X-H torsion

> <Gold.Protein.ActiveResidues>
 VAL166  LYS551  ARG553  GLY616  TRP617  ASP618  TYR619  PRO620  LYS621  CYS622 
 ASP623  PHE694  ASN695  SER759  ASP760  ASP761  ALA762  ILE779  LEU786  VAL792 
 PHE793  MET794  SER795  GLU796  ALA797  LYS798  CYS799  TRP800  GLU811  SER814 

> <Gold.Protein.RotatedAtoms>
  150.7935  134.6976  159.6531 H   0  0  0  0  0  0  0  0  0  0  0  0  # atno 6907 bound_to 6896
  152.4043  134.6229  160.0065 H   0  0  0  0  0  0  0  0  0  0  0  0  # atno 6908 bound_to 6896
  151.6491  133.3285  159.3184 H   0  0  0  0  0  0  0  0  0  0  0  0  # atno 6909 bound_to 6896
  146.1350  140.5165  142.8676 H   0  0  0  0  0  0  0  0  0  0  0  0  # atno 7974 bound_to 7965
  154.3999  140.1471  156.3369 H   0  0  0  0  0  0  0  0  0  0  0  0  # atno 8008 bound_to 7997
  155.8392  140.3462  155.5600 H   0  0  0  0  0  0  0  0  0  0  0  0  # atno 8009 bound_to 7997
  155.8105  140.0883  157.1897 H   0  0  0  0  0  0  0  0  0  0  0  0  # atno 8010 bound_to 7997
  139.7261  143.8881  152.2519 H   0  0  0  0  0  0  0  0  0  0  0  0  # atno 10167 bound_to 10162
  157.6840  131.0714  150.5185 H   0  0  0  0  0  0  0  0  0  0  0  0  # atno 10718 bound_to 10713
  153.3095  135.6961  153.7129 H   0  0  0  0  0  0  0  0  0  0  0  0  # atno 10763 bound_to 10752
  153.6012  135.3462  155.2946 H   0  0  0  0  0  0  0  0  0  0  0  0  # atno 10764 bound_to 10752
  154.8571  135.4341  154.2228 H   0  0  0  0  0  0  0  0  0  0  0  0  # atno 10765 bound_to 10752
  140.9257  133.7370  156.0864 H   0  0  0  0  0  0  0  0  0  0  0  0  # atno 11005 bound_to 11000
  144.7731  140.5680  143.6657 LP  0  0  0  0  0  0  0  0  0  0  0  0  # atno 17320 bound_to 7965
  145.5175  139.1477  143.3570 LP  0  0  0  0  0  0  0  0  0  0  0  0  # atno 17321 bound_to 7965
  139.8791  144.7027  150.8898 LP  0  0  0  0  0  0  0  0  0  0  0  0  # atno 17342 bound_to 10162
  140.7763  143.3676  151.1710 LP  0  0  0  0  0  0  0  0  0  0  0  0  # atno 17343 bound_to 10162
  156.5499  130.4229  149.6112 LP  0  0  0  0  0  0  0  0  0  0  0  0  # atno 17370 bound_to 10713
  156.2911  130.7125  151.1974 LP  0  0  0  0  0  0  0  0  0  0  0  0  # atno 17371 bound_to 10713
  140.7929  134.3596  157.5460 LP  0  0  0  0  0  0  0  0  0  0  0  0  # atno 17394 bound_to 11000
  139.8785  134.9151  156.3124 LP  0  0  0  0  0  0  0  0  0  0  0  0  # atno 17395 bound_to 11000

$$$$
