AV-unprocessed.smi:3111|AV-procd|sdf|11832|dock8
  -GOLD-   2272017203D 1   1.00000     0.00000
 Structure written by MMmdl.
 29 29  0  0  0  0  0  0  0  0  1 V2000
  149.9103  136.7795  155.1316 C   0  0  0  0  0  0  0  0  0  0  0  0
  149.4321  135.6326  154.3749 N   0  0  0  0  0  0  0  0  0  0  0  0
  149.5130  134.3630  154.7971 C   0  0  0  0  0  0  0  0  0  0  0  0
  149.9910  134.0449  155.8872 O   0  0  0  0  0  0  0  0  0  0  0  0
  148.9459  133.2985  153.8494 C   0  0  0  0  0  0  0  0  0  0  0  0
  148.0576  133.8577  152.8331 N   0  0  0  0  0  0  0  0  0  0  0  0
  146.8486  133.3703  152.5097 C   0  0  0  0  0  0  0  0  0  0  0  0
  146.3634  132.3708  153.0414 O   0  0  0  0  0  0  0  0  0  0  0  0
  146.0785  134.1295  151.4178 C   0  0  2  0  0  0  0  0  0  0  0  0
  145.5671  135.5019  151.8946 C   0  0  0  0  0  0  0  0  0  0  0  0
  144.9900  133.3133  150.8984 N   0  0  0  0  0  0  0  0  0  0  0  0
  143.8964  132.8347  151.6099 C   0  0  0  0  0  0  0  0  0  0  0  0
  143.1291  132.1161  150.7213 C   0  0  0  0  0  0  0  0  0  0  0  0
  143.7247  132.1377  149.4630 N   0  0  0  0  0  0  0  0  0  0  0  0
  144.8205  132.8632  149.6447 C   0  0  0  0  0  0  0  0  0  0  0  0
  149.7535  137.6939  154.5594 H   0  0  0  0  0  0  0  0  0  0  0  0
  150.9766  136.6885  155.3429 H   0  0  0  0  0  0  0  0  0  0  0  0
  149.3738  136.8724  156.0770 H   0  0  0  0  0  0  0  0  0  0  0  0
  149.0205  135.8139  153.4707 H   0  0  0  0  0  0  0  0  0  0  0  0
  149.7776  132.8067  153.3444 H   0  0  0  0  0  0  0  0  0  0  0  0
  148.4243  132.5263  154.4179 H   0  0  0  0  0  0  0  0  0  0  0  0
  148.3814  134.6831  152.3501 H   0  0  0  0  0  0  0  0  0  0  0  0
  146.7747  134.3095  150.5967 H   0  0  0  0  0  0  0  0  0  0  0  0
  146.3839  136.1188  152.2714 H   0  0  0  0  0  0  0  0  0  0  0  0
  144.8276  135.4065  152.6906 H   0  0  0  0  0  0  0  0  0  0  0  0
  145.0986  136.0470  151.0747 H   0  0  0  0  0  0  0  0  0  0  0  0
  143.7580  133.0382  152.6616 H   0  0  0  0  0  0  0  0  0  0  0  0
  142.2012  131.5894  150.8892 H   0  0  0  0  0  0  0  0  0  0  0  0
  145.5165  133.0742  148.8457 H   0  0  0  0  0  0  0  0  0  0  0  0
  1  2  1  0  0  0  0
  1 16  1  0  0  0  0
  1 17  1  0  0  0  0
  1 18  1  0  0  0  0
  2  3  1  0  0  0  0
  2 19  1  0  0  0  0
  3  4  2  0  0  0  0
  3  5  1  0  0  0  0
  5  6  1  0  0  0  0
  5 20  1  0  0  0  0
  5 21  1  0  0  0  0
  6  7  1  0  0  0  0
  6 22  1  0  0  0  0
  7  8  2  0  0  0  0
  7  9  1  0  0  0  0
  9 10  1  0  0  0  0
  9 11  1  0  0  0  0
  9 23  1  0  0  0  0
 10 24  1  0  0  0  0
 10 25  1  0  0  0  0
 10 26  1  0  0  0  0
 11 15  1  0  0  0  0
 11 12  1  0  0  0  0
 12 13  2  0  0  0  0
 12 27  1  0  0  0  0
 13 14  1  0  0  0  0
 13 28  1  0  0  0  0
 14 15  2  0  0  0  0
 15 29  1  0  0  0  0
M  END
> <s_m_source_file>
AV-unprocessed.smi

> <i_m_source_file_index>
3111

> <i_lp_mmshare_version>
43012

> <i_f3d_flags>
0

> <s_epik_input>
W0NIM11bTkhdQyg9TylbQ0gyXVtOSF1DKD1PKVtDQEhdKFtDSDNdKW4xW2NIXVtjSF1uW2NIXTE=

> <s_epik_cmdline>
J2VwaWtfcHl0aG9uJywgJy1waCcsICc3LjAnLCAnLXRuJywgJzgnLCAnLW1hJywgJzIwMCcsICctbWV0YWxfYmluZGluZycsICctaW1hZScsICc8aW5maWxlLm1hZT4nLCAnLW9tYWUnLCAnPG91dGZpbGUubWFlPic=

> <r_lp_tautomer_probability>
1

> <r_epik_Ionization_Penalty>
0.278299

> <r_epik_Ionization_Penalty_Charging>
0.278299

> <r_epik_Ionization_Penalty_Neutral>
1.78617e-07

> <r_epik_State_Penalty>
0.270759

> <r_epik_Charging_Adjusted_Penalty>
0.549058

> <i_epik_Tot_Q>
0

> <i_epik_Tot_abs_Q>
0

> <r_epik_Metal_State_Penalty>
0.183212

> <b_epik_Metal_Only>
0

> <s_lp_Force_Field>
OPLS_2005

> <r_lp_Energy>
5.209

> <b_lp_Chiralities_Consistent>
1

> <s_lp_Variant>
AV-unprocessed.smi:3111-1

> <Gold.Version>
5.8.1

> <Gold.Id.Protein>
6NUR|6NUR_protein|mol2

> <Gold.PLP.Fitness>
36.7486

> <Gold.PLP.PLP>
-24.0081

> <Gold.PLP.part.hbond>
-2.9654

> <Gold.PLP.part.metal>
0.0000

> <Gold.PLP.part.buried>
-2.3863

> <Gold.PLP.part.nonpolar>
-19.8545

> <Gold.PLP.part.repulsive>
0.3980

> <Gold.PLP.ligand.clash>
0.0000

> <Gold.PLP.ligand.torsion>
0.6462

> <Gold.PLP.Chemscore.Hbond>
2.6115

> <Gold.PLP.Chemscore.CHOScore>
2.0434

> <Gold.PLP.Chemscore.Metal>
0.0000

> <Gold.Chemscore.Hbonds>
donor molecule, donor type, donor heavy atom, donor atom, acceptor molecule, acceptor atom, score
      L1  H     2    19       P1  7948  1.00
      L1  H     6    22       P1  7948  0.85
      P1  H 10785 10796       L1    14  0.55
      L1  C    12    27       P1 10957  0.60
      L1  C    13    28       P1 10952  0.68
      L1  C    15    29       P1  7921  0.70

> <Gold.PLP.Chemscore.Internal.Correction>
0.0682

> <Gold.Rescore>
     Score         DG    S(hbond)    S(metal)    S(lipo)     H(rot)  DE(clash)    DE(int)     intcor
     10.00     -12.08       2.54        0.00      33.46       2.27       0.22       1.86       ----

> <Gold.Chemscore.Fitness>
9.9962

> <Gold.Chemscore.DG>
-12.0766

> <Gold.Chemscore.ZeroCoef>
-5.4800

> <Gold.Chemscore.Hbond>
2.5435

> <Gold.Chemscore.Metal>
0.0000

> <Gold.Chemscore.Lipo>
33.4586

> <Gold.Chemscore.Internal_Hbond>
0.0000

> <Gold.Chemscore.DEClash>
0.2204

> <Gold.Chemscore.DEInternal>
1.8600

> <Gold.Chemscore.Rot>
2.2709

> <Gold.Chemscore.Internal.Correction>
   9.000000E+99

> <Gold.Chemscore.Hbonds>
donor molecule, donor type, donor heavy atom, donor atom, acceptor molecule, acceptor atom, score
      L1  H     2    19       P1  7948  0.87
      L1  H     6    22       P1  7948  0.15
      P1  H 10785 10796       L1    14  0.16

> <Gold.Chemscore.Hbond.Weighted>
-8.4954

> <Gold.Chemscore.Metal.Weighted>
-0.0000

> <Gold.Chemscore.Lipo.Weighted>
-3.9147

> <Gold.Chemscore.Internal_Hbond.Weighted>
0.0000

> <Gold.Chemscore.DEClash.Weighted>
0.2204

> <Gold.Chemscore.DEInternal.Weighted>
1.8600

> <Gold.Chemscore.Rot.Weighted>
5.8135

> <Gold.Chemscore.Internal.Correction.Weighted>
   9.000000E+99

> <Gold.Protein.RotatedTorsions>
[ 6907 6896 6895 6894 ] final  154.31 input  -60.11 | X-H torsion
[ 7974 7965 7964 7962 ] final   -3.45 input  175.53 | X-H torsion
[ 8008 7997 7996 7995 ] final  -17.88 input   59.86 | X-H torsion
[ 10167 10162 10161 10158 ] final  145.69 input  -65.29 | X-H torsion
[ 10718 10713 10712 10709 ] final  105.91 input   66.30 | X-H torsion
[ 10763 10752 10751 10750 ] final -100.64 input  -60.55 | X-H torsion
[ 11005 11000 10999 10996 ] final  146.83 input  -57.11 | X-H torsion

> <Gold.Protein.ActiveResidues>
 VAL166  LYS551  ARG553  GLY616  TRP617  ASP618  TYR619  PRO620  LYS621  CYS622 
 ASP623  PHE694  ASN695  SER759  ASP760  ASP761  ALA762  ILE779  LEU786  VAL792 
 PHE793  MET794  SER795  GLU796  ALA797  LYS798  CYS799  TRP800  GLU811  SER814 

> <Gold.Protein.RotatedAtoms>
  152.0603  133.4059  159.4414 H   0  0  0  0  0  0  0  0  0  0  0  0  # atno 6907 bound_to 6896
  150.6866  134.3208  159.4795 H   0  0  0  0  0  0  0  0  0  0  0  0  # atno 6908 bound_to 6896
  152.1028  134.9329  160.0619 H   0  0  0  0  0  0  0  0  0  0  0  0  # atno 6909 bound_to 6896
  146.2389  140.1723  142.8332 H   0  0  0  0  0  0  0  0  0  0  0  0  # atno 7974 bound_to 7965
  154.4946  140.2131  155.9474 H   0  0  0  0  0  0  0  0  0  0  0  0  # atno 8008 bound_to 7997
  156.1353  140.3189  155.8379 H   0  0  0  0  0  0  0  0  0  0  0  0  # atno 8009 bound_to 7997
  155.4222  140.0497  157.3015 H   0  0  0  0  0  0  0  0  0  0  0  0  # atno 8010 bound_to 7997
  139.4921  144.5884  151.6732 H   0  0  0  0  0  0  0  0  0  0  0  0  # atno 10167 bound_to 10162
  157.6688  131.0838  150.5927 H   0  0  0  0  0  0  0  0  0  0  0  0  # atno 10718 bound_to 10713
  154.7595  135.4927  153.9438 H   0  0  0  0  0  0  0  0  0  0  0  0  # atno 10763 bound_to 10752
  153.1235  135.6737  153.9304 H   0  0  0  0  0  0  0  0  0  0  0  0  # atno 10764 bound_to 10752
  153.9029  135.3108  155.3427 H   0  0  0  0  0  0  0  0  0  0  0  0  # atno 10765 bound_to 10752
  140.0826  134.9088  157.1524 H   0  0  0  0  0  0  0  0  0  0  0  0  # atno 11005 bound_to 11000
  145.0001  140.8624  143.5287 LP  0  0  0  0  0  0  0  0  0  0  0  0  # atno 17320 bound_to 7965
  145.1742  139.2387  143.5326 LP  0  0  0  0  0  0  0  0  0  0  0  0  # atno 17321 bound_to 7965
  140.5505  144.0433  150.6125 LP  0  0  0  0  0  0  0  0  0  0  0  0  # atno 17342 bound_to 10162
  140.3486  143.2977  152.0512 LP  0  0  0  0  0  0  0  0  0  0  0  0  # atno 17343 bound_to 10162
  156.6228  130.4410  149.5816 LP  0  0  0  0  0  0  0  0  0  0  0  0  # atno 17370 bound_to 10713
  156.2342  130.6813  151.1494 LP  0  0  0  0  0  0  0  0  0  0  0  0  # atno 17371 bound_to 10713
  140.3466  134.2644  155.7204 LP  0  0  0  0  0  0  0  0  0  0  0  0  # atno 17394 bound_to 11000
  141.2052  133.7867  157.0248 LP  0  0  0  0  0  0  0  0  0  0  0  0  # atno 17395 bound_to 11000

$$$$
