AV-unprocessed.smi:1675|AV-procd|sdf|6717|dock5
  -GOLD-   22720 7463D 1   1.00000     0.00000
 Structure written by MMmdl.
 40 42  0  0  0  0  0  0  0  0  1 V2000
  149.7504  135.5469  154.3854 N   0  0  0  0  0  0  0  0  0  0  0  0
  149.9615  134.3640  154.9681 C   0  0  0  0  0  0  0  0  0  0  0  0
  149.7954  133.3021  154.3709 O   0  0  0  0  0  0  0  0  0  0  0  0
  150.4229  134.3777  156.4286 C   0  0  0  0  0  0  0  0  0  0  0  0
  150.9306  135.6827  156.8158 N   0  0  0  0  0  0  0  0  0  0  0  0
  150.3318  136.6229  157.6320 C   0  0  0  0  0  0  0  0  0  0  0  0
  151.1980  137.6784  157.6783 C   0  0  0  0  0  0  0  0  0  0  0  0
  151.0724  138.9166  158.3571 N   0  0  0  0  0  0  0  0  0  0  0  0
  151.9147  139.9638  158.3141 C   0  0  0  0  0  0  0  0  0  0  0  0
  152.9456  139.9970  157.6426 O   0  0  0  0  0  0  0  0  0  0  0  0
  151.5275  141.1678  159.1805 C   0  0  0  0  0  0  0  0  0  0  0  0
  152.4731  142.3772  159.0031 C   0  0  2  0  0  0  0  0  0  0  0  0
  152.7670  143.1972  160.2805 C   0  0  0  0  0  0  0  0  0  0  0  0
  152.4869  144.6444  159.8331 C   0  0  2  0  0  0  0  0  0  0  0  0
  150.9654  144.8468  159.7152 C   0  0  0  0  0  0  0  0  0  0  0  0
  150.6165  144.0461  158.4473 C   0  0  0  0  0  0  0  0  0  0  0  0
  151.9813  143.4660  158.0207 C   0  0  1  0  0  0  0  0  0  0  0  0
  152.9154  144.6206  158.3700 C   0  0  0  0  0  0  0  0  0  0  0  0
  152.3004  137.3106  156.8640 C   0  0  0  0  0  0  0  0  0  0  0  0
  152.1352  136.1008  156.3517 N   0  0  0  0  0  0  0  0  0  0  0  0
  149.4434  135.5821  153.4242 H   0  0  0  0  0  0  0  0  0  0  0  0
  149.8952  136.4007  154.9047 H   0  0  0  0  0  0  0  0  0  0  0  0
  149.6005  134.1152  157.0959 H   0  0  0  0  0  0  0  0  0  0  0  0
  151.2023  133.6269  156.5684 H   0  0  0  0  0  0  0  0  0  0  0  0
  149.3657  136.4565  158.0851 H   0  0  0  0  0  0  0  0  0  0  0  0
  150.2475  139.0232  158.9296 H   0  0  0  0  0  0  0  0  0  0  0  0
  150.5074  141.4716  158.9405 H   0  0  0  0  0  0  0  0  0  0  0  0
  151.5137  140.8387  160.2196 H   0  0  0  0  0  0  0  0  0  0  0  0
  153.4229  142.0024  158.6162 H   0  0  0  0  0  0  0  0  0  0  0  0
  152.1416  142.9102  161.1269 H   0  0  0  0  0  0  0  0  0  0  0  0
  153.8077  143.0744  160.5824 H   0  0  0  0  0  0  0  0  0  0  0  0
  152.9817  145.3966  160.4482 H   0  0  0  0  0  0  0  0  0  0  0  0
  150.4303  144.4879  160.5952 H   0  0  0  0  0  0  0  0  0  0  0  0
  150.7211  145.9013  159.5819 H   0  0  0  0  0  0  0  0  0  0  0  0
  149.8573  143.2851  158.6244 H   0  0  0  0  0  0  0  0  0  0  0  0
  150.2300  144.7138  157.6764 H   0  0  0  0  0  0  0  0  0  0  0  0
  152.0149  143.1560  156.9758 H   0  0  0  0  0  0  0  0  0  0  0  0
  152.6834  145.5437  157.8359 H   0  0  0  0  0  0  0  0  0  0  0  0
  153.9722  144.3845  158.2322 H   0  0  0  0  0  0  0  0  0  0  0  0
  153.1963  137.8680  156.6334 H   0  0  0  0  0  0  0  0  0  0  0  0
  1  2  1  0  0  0  0
  1 21  1  0  0  0  0
  1 22  1  0  0  0  0
  2  3  2  0  0  0  0
  2  4  1  0  0  0  0
  4  5  1  0  0  0  0
  4 23  1  0  0  0  0
  4 24  1  0  0  0  0
  5 20  1  0  0  0  0
  5  6  1  0  0  0  0
  6  7  2  0  0  0  0
  6 25  1  0  0  0  0
  7  8  1  0  0  0  0
  7 19  1  0  0  0  0
  8  9  1  0  0  0  0
  8 26  1  0  0  0  0
  9 10  2  0  0  0  0
  9 11  1  0  0  0  0
 11 12  1  0  0  0  0
 11 27  1  0  0  0  0
 11 28  1  0  0  0  0
 12 17  1  0  0  0  0
 12 13  1  0  0  0  0
 12 29  1  0  0  0  0
 13 14  1  0  0  0  0
 13 30  1  0  0  0  0
 13 31  1  0  0  0  0
 14 18  1  0  0  0  0
 14 15  1  0  0  0  0
 14 32  1  0  0  0  0
 15 16  1  0  0  0  0
 15 33  1  0  0  0  0
 15 34  1  0  0  0  0
 16 17  1  0  0  0  0
 16 35  1  0  0  0  0
 16 36  1  0  0  0  0
 17 18  1  0  0  0  0
 17 37  1  0  0  0  0
 18 38  1  0  0  0  0
 18 39  1  0  0  0  0
 19 20  2  0  0  0  0
 19 40  1  0  0  0  0
M  END
> <s_m_source_file>
AV-unprocessed.smi

> <i_m_source_file_index>
1675

> <i_lp_mmshare_version>
43012

> <i_f3d_flags>
0

> <s_epik_input>
W05IMl1DKD1PKVtDSDJdbjFbY0hdYyhbY0hdbjEpW05IXUMoPU8pW0NIMl1bQ0BIXShbQ0gyXVtDQEBIXTIzKVtDQEBIXShbQ0gyXTMpW0NIMl1bQ0gyXTI=

> <s_epik_cmdline>
J2VwaWtfcHl0aG9uJywgJy1waCcsICc3LjAnLCAnLXRuJywgJzgnLCAnLW1hJywgJzIwMCcsICctbWV0YWxfYmluZGluZycsICctaW1hZScsICc8aW5maWxlLm1hZT4nLCAnLW9tYWUnLCAnPG91dGZpbGUubWFlPic=

> <r_lp_tautomer_probability>
1

> <r_epik_Ionization_Penalty>
2.17494e-05

> <r_epik_Ionization_Penalty_Charging>
0

> <r_epik_Ionization_Penalty_Neutral>
2.17494e-05

> <r_epik_State_Penalty>
-0

> <r_epik_Charging_Adjusted_Penalty>
0

> <i_epik_Tot_Q>
0

> <i_epik_Tot_abs_Q>
0

> <r_epik_Metal_State_Penalty>
-0

> <b_epik_Metal_Only>
0

> <s_lp_Force_Field>
OPLS_2005

> <r_lp_Energy>
53.8438

> <b_lp_Chiralities_Consistent>
1

> <s_lp_Variant>
AV-unprocessed.smi:1675-3

> <Gold.Version>
5.8.1

> <Gold.Id.Protein>
6NUR|6NUR_protein|mol2

> <Gold.PLP.Fitness>
45.1281

> <Gold.PLP.PLP>
-37.9300

> <Gold.PLP.part.hbond>
-3.0000

> <Gold.PLP.part.metal>
0.0000

> <Gold.PLP.part.buried>
-5.1433

> <Gold.PLP.part.nonpolar>
-29.5694

> <Gold.PLP.part.repulsive>
0.2301

> <Gold.PLP.ligand.clash>
0.0000

> <Gold.PLP.ligand.torsion>
0.9048

> <Gold.PLP.Chemscore.Hbond>
3.0000

> <Gold.PLP.Chemscore.CHOScore>
0.0000

> <Gold.PLP.Chemscore.Metal>
0.0000

> <Gold.Chemscore.Hbonds>
donor molecule, donor type, donor heavy atom, donor atom, acceptor molecule, acceptor atom, score
      L1  H     1    21       P1  7948  0.90
      P1  H  7997  8009       L1    10  1.00
      P1  H 10752 10765       L1    20  1.00

> <Gold.PLP.Chemscore.Internal.Correction>
0.0077

> <Gold.Rescore>
     Score         DG    S(hbond)    S(metal)    S(lipo)     H(rot)  DE(clash)    DE(int)     intcor
     19.36     -21.61       2.82        0.00     104.26       2.15       0.05       2.20       ----

> <Gold.Chemscore.Fitness>
19.3615

> <Gold.Chemscore.DG>
-21.6119

> <Gold.Chemscore.ZeroCoef>
-5.4800

> <Gold.Chemscore.Hbond>
2.8245

> <Gold.Chemscore.Metal>
0.0000

> <Gold.Chemscore.Lipo>
104.2597

> <Gold.Chemscore.Internal_Hbond>
0.0000

> <Gold.Chemscore.DEClash>
0.0526

> <Gold.Chemscore.DEInternal>
2.1977

> <Gold.Chemscore.Rot>
2.1486

> <Gold.Chemscore.Internal.Correction>
   9.000000E+99

> <Gold.Chemscore.Hbonds>
donor molecule, donor type, donor heavy atom, donor atom, acceptor molecule, acceptor atom, score
      L1  H     1    21       P1  7948  0.18
      P1  H  7997  8009       L1    10  0.98
      P1  H 10752 10765       L1    20  0.98

> <Gold.Chemscore.Hbond.Weighted>
-9.4338

> <Gold.Chemscore.Metal.Weighted>
-0.0000

> <Gold.Chemscore.Lipo.Weighted>
-12.1984

> <Gold.Chemscore.Internal_Hbond.Weighted>
0.0000

> <Gold.Chemscore.DEClash.Weighted>
0.0526

> <Gold.Chemscore.DEInternal.Weighted>
2.1977

> <Gold.Chemscore.Rot.Weighted>
5.5004

> <Gold.Chemscore.Internal.Correction.Weighted>
   9.000000E+99

> <Gold.Protein.RotatedTorsions>
[ 6907 6896 6895 6894 ] final   90.58 input  -60.11 | X-H torsion
[ 7974 7965 7964 7962 ] final  -56.82 input  175.53 | X-H torsion
[ 8008 7997 7996 7995 ] final  175.94 input   59.86 | X-H torsion
[ 10167 10162 10161 10158 ] final -130.78 input  -65.29 | X-H torsion
[ 10718 10713 10712 10709 ] final -146.53 input   66.30 | X-H torsion
[ 10763 10752 10751 10750 ] final -134.11 input  -60.55 | X-H torsion
[ 11005 11000 10999 10996 ] final  107.69 input  -57.11 | X-H torsion

> <Gold.Protein.ActiveResidues>
 VAL166  LYS551  ARG553  GLY616  TRP617  ASP618  TYR619  PRO620  LYS621  CYS622 
 ASP623  PHE694  ASN695  SER759  ASP760  ASP761  ALA762  ILE779  LEU786  VAL792 
 PHE793  MET794  SER795  GLU796  ALA797  LYS798  CYS799  TRP800  GLU811  SER814 

> <Gold.Protein.RotatedAtoms>
  152.5445  134.1789  159.8626 H   0  0  0  0  0  0  0  0  0  0  0  0  # atno 6907 bound_to 6896
  151.1793  133.4728  159.2601 H   0  0  0  0  0  0  0  0  0  0  0  0  # atno 6908 bound_to 6896
  151.1195  135.0083  159.8587 H   0  0  0  0  0  0  0  0  0  0  0  0  # atno 6909 bound_to 6896
  145.8582  140.8304  142.9950 H   0  0  0  0  0  0  0  0  0  0  0  0  # atno 7974 bound_to 7965
  156.0817  140.1396  156.9704 H   0  0  0  0  0  0  0  0  0  0  0  0  # atno 8008 bound_to 7997
  154.4589  140.0951  156.6886 H   0  0  0  0  0  0  0  0  0  0  0  0  # atno 8009 bound_to 7997
  155.5065  140.3452  155.4382 H   0  0  0  0  0  0  0  0  0  0  0  0  # atno 8010 bound_to 7997
  139.9257  143.6330  152.2542 H   0  0  0  0  0  0  0  0  0  0  0  0  # atno 10167 bound_to 10162
  156.3961  130.7910  151.2116 H   0  0  0  0  0  0  0  0  0  0  0  0  # atno 10718 bound_to 10713
  154.8724  135.3745  154.4683 H   0  0  0  0  0  0  0  0  0  0  0  0  # atno 10763 bound_to 10752
  153.5345  135.7027  153.5672 H   0  0  0  0  0  0  0  0  0  0  0  0  # atno 10764 bound_to 10752
  153.3861  135.3984  155.1856 H   0  0  0  0  0  0  0  0  0  0  0  0  # atno 10765 bound_to 10752
  139.8832  134.9408  156.5858 H   0  0  0  0  0  0  0  0  0  0  0  0  # atno 11005 bound_to 11000
  144.6727  140.1056  143.7458 LP  0  0  0  0  0  0  0  0  0  0  0  0  # atno 17320 bound_to 7965
  145.9279  139.2587  143.1343 LP  0  0  0  0  0  0  0  0  0  0  0  0  # atno 17321 bound_to 7965
  139.6824  144.7654  151.1585 LP  0  0  0  0  0  0  0  0  0  0  0  0  # atno 17342 bound_to 10162
  140.7650  143.5706  150.9000 LP  0  0  0  0  0  0  0  0  0  0  0  0  # atno 17343 bound_to 10162
  157.7501  131.0301  150.4122 LP  0  0  0  0  0  0  0  0  0  0  0  0  # atno 17370 bound_to 10713
  156.4392  130.3988  149.6708 LP  0  0  0  0  0  0  0  0  0  0  0  0  # atno 17371 bound_to 10713
  140.7993  133.8518  155.8713 LP  0  0  0  0  0  0  0  0  0  0  0  0  # atno 17394 bound_to 11000
  140.9607  134.1659  157.4656 LP  0  0  0  0  0  0  0  0  0  0  0  0  # atno 17395 bound_to 11000

$$$$
