AV-unprocessed.smi:2635|AV-procd|sdf|10256|dock1
  -GOLD-   2272014263D 1   1.00000     0.00000
 Structure written by MMmdl.
 31 32  0  0  0  0  0  0  0  0  2 V2000
  149.5658  141.1477  157.0519 C   0  0  0  0  0  0  0  0  0  0  0  0
  150.2306  140.0236  157.8253 C   0  0  0  0  0  0  0  0  0  0  0  0
  151.5560  139.9957  158.0756 C   0  0  0  0  0  0  0  0  0  0  0  0
  152.1606  138.9498  158.7922 N   0  0  0  0  0  0  0  0  0  0  0  0
  153.6009  138.9737  158.9821 C   0  0  0  0  0  0  0  0  0  0  0  0
  154.0175  140.2929  159.1194 O   0  0  0  0  0  0  0  0  0  0  0  0
  153.7744  140.8174  160.4143 C   0  0  0  0  0  0  0  0  0  0  0  0
  153.1782  142.2097  160.3508 C   0  0  0  0  0  0  0  0  0  0  0  0
  152.8037  142.8712  161.5394 C   0  0  0  0  0  0  0  0  0  0  0  0
  152.2359  144.1591  161.4843 C   0  0  0  0  0  0  0  0  0  0  0  0
  152.0371  144.7890  160.2404 C   0  0  0  0  0  0  0  0  0  0  0  0
  152.4042  144.1294  159.0514 C   0  0  0  0  0  0  0  0  0  0  0  0
  152.9709  142.8409  159.1058 C   0  0  0  0  0  0  0  0  0  0  0  0
  151.4149  137.8910  159.2276 C   0  0  0  0  0  0  0  0  0  0  0  0
  151.9714  136.9654  159.8204 O   0  0  0  0  0  0  0  0  0  0  0  0
  150.0670  137.9025  158.9927 N   0  5  0  0  0  0  0  0  0  0  0  0
  149.4255  138.9055  158.3242 C   0  0  0  0  0  0  0  0  0  0  0  0
  148.2101  138.8962  158.1306 O   0  0  0  0  0  0  0  0  0  0  0  0
  150.2903  141.9109  156.7662 H   0  0  0  0  0  0  0  0  0  0  0  0
  148.7939  141.6234  157.6576 H   0  0  0  0  0  0  0  0  0  0  0  0
  149.1029  140.7622  156.1429 H   0  0  0  0  0  0  0  0  0  0  0  0
  152.2314  140.7687  157.7395 H   0  0  0  0  0  0  0  0  0  0  0  0
  153.8610  138.4015  159.8740 H   0  0  0  0  0  0  0  0  0  0  0  0
  154.0773  138.4987  158.1215 H   0  0  0  0  0  0  0  0  0  0  0  0
  153.1035  140.1532  160.9614 H   0  0  0  0  0  0  0  0  0  0  0  0
  154.7084  140.8710  160.9757 H   0  0  0  0  0  0  0  0  0  0  0  0
  152.9527  142.3909  162.4958 H   0  0  0  0  0  0  0  0  0  0  0  0
  151.9519  144.6636  162.3960 H   0  0  0  0  0  0  0  0  0  0  0  0
  151.6018  145.7764  160.1983 H   0  0  0  0  0  0  0  0  0  0  0  0
  152.2503  144.6109  158.0972 H   0  0  0  0  0  0  0  0  0  0  0  0
  153.2473  142.3415  158.1889 H   0  0  0  0  0  0  0  0  0  0  0  0
  1  2  1  0  0  0  0
  1 19  1  0  0  0  0
  1 20  1  0  0  0  0
  1 21  1  0  0  0  0
  2 17  1  0  0  0  0
  2  3  2  0  0  0  0
  3  4  1  0  0  0  0
  3 22  1  0  0  0  0
  4  5  1  0  0  0  0
  4 14  1  0  0  0  0
  5  6  1  0  0  0  0
  5 23  1  0  0  0  0
  5 24  1  0  0  0  0
  6  7  1  0  0  0  0
  7  8  1  0  0  0  0
  7 25  1  0  0  0  0
  7 26  1  0  0  0  0
  8 13  1  0  0  0  0
  8  9  2  0  0  0  0
  9 10  1  0  0  0  0
  9 27  1  0  0  0  0
 10 11  2  0  0  0  0
 10 28  1  0  0  0  0
 11 12  1  0  0  0  0
 11 29  1  0  0  0  0
 12 13  2  0  0  0  0
 12 30  1  0  0  0  0
 13 31  1  0  0  0  0
 14 15  2  0  0  0  0
 14 16  1  0  0  0  0
 16 17  1  0  0  0  0
 17 18  2  0  0  0  0
M  CHG  1  16  -1
M  END
> <s_m_source_file>
AV-unprocessed.smi

> <i_m_source_file_index>
2635

> <i_lp_mmshare_version>
43012

> <i_f3d_flags>
0

> <s_epik_input>
Tz1jMVtuSF1jKD1PKW4oW2NIXWMxW0NIM10pW0NIMl1PW0NIMl1jMltjSF1bY0hdW2NIXVtjSF1bY0hdMg==

> <s_epik_cmdline>
J2VwaWtfcHl0aG9uJywgJy1waCcsICc3LjAnLCAnLXRuJywgJzgnLCAnLW1hJywgJzIwMCcsICctbWV0YWxfYmluZGluZycsICctaW1hZScsICc8aW5maWxlLm1hZT4nLCAnLW9tYWUnLCAnPG91dGZpbGUubWFlPic=

> <r_lp_tautomer_probability>
0.999537

> <r_epik_Ionization_Penalty>
3.41553

> <r_epik_Ionization_Penalty_Charging>
6.94296e-08

> <r_epik_Ionization_Penalty_Neutral>
3.41553

> <r_epik_State_Penalty>
3.41493

> <r_epik_Charging_Adjusted_Penalty>
3.41493

> <i_epik_Tot_Q>
-1

> <i_epik_Tot_abs_Q>
1

> <r_epik_Metal_State_Penalty>
0.16353

> <b_epik_Metal_Only>
1

> <s_epik_Chemistry_Notes>
This compound contains an acetal/aminal-like group ( X-CH(R)-Y where X, Y are N, S, or O) that may be acid/base labile, releasing an aldehyde.

> <s_lp_Force_Field>
OPLS_2005

> <r_lp_Energy>
15.2245

> <b_lp_Chiralities_Consistent>
1

> <s_lp_Variant>
AV-unprocessed.smi:2635-2

> <Gold.Version>
5.8.1

> <Gold.Id.Protein>
6NUR|6NUR_protein|mol2

> <Gold.PLP.Fitness>
42.7968

> <Gold.PLP.PLP>
-40.4365

> <Gold.PLP.part.hbond>
-2.6244

> <Gold.PLP.part.metal>
0.0000

> <Gold.PLP.part.buried>
-4.9151

> <Gold.PLP.part.nonpolar>
-32.8624

> <Gold.PLP.part.repulsive>
0.0000

> <Gold.PLP.ligand.clash>
0.0000

> <Gold.PLP.ligand.torsion>
0.7738

> <Gold.PLP.Chemscore.Hbond>
1.2903

> <Gold.PLP.Chemscore.CHOScore>
0.0000

> <Gold.PLP.Chemscore.Metal>
0.0000

> <Gold.Chemscore.Hbonds>
donor molecule, donor type, donor heavy atom, donor atom, acceptor molecule, acceptor atom, score
      P1  H  6896  6907       L1    15  1.00
      P1  H  7997  8008       L1     6  0.24

> <Gold.PLP.Chemscore.Internal.Correction>
0.0370

> <Gold.Rescore>
     Score         DG    S(hbond)    S(metal)    S(lipo)     H(rot)  DE(clash)    DE(int)     intcor
     14.45     -15.21       1.02        0.00      95.53       1.90       0.03       0.73       ----

> <Gold.Chemscore.Fitness>
14.4496

> <Gold.Chemscore.DG>
-15.2122

> <Gold.Chemscore.ZeroCoef>
-5.4800

> <Gold.Chemscore.Hbond>
1.0239

> <Gold.Chemscore.Metal>
0.0000

> <Gold.Chemscore.Lipo>
95.5344

> <Gold.Chemscore.Internal_Hbond>
0.0000

> <Gold.Chemscore.DEClash>
0.0308

> <Gold.Chemscore.DEInternal>
0.7318

> <Gold.Chemscore.Rot>
1.9004

> <Gold.Chemscore.Internal.Correction>
   9.000000E+99

> <Gold.Chemscore.Hbonds>
donor molecule, donor type, donor heavy atom, donor atom, acceptor molecule, acceptor atom, score
      P1  H  6896  6907       L1    15  0.96

> <Gold.Chemscore.Hbond.Weighted>
-3.4198

> <Gold.Chemscore.Metal.Weighted>
-0.0000

> <Gold.Chemscore.Lipo.Weighted>
-11.1775

> <Gold.Chemscore.Internal_Hbond.Weighted>
0.0000

> <Gold.Chemscore.DEClash.Weighted>
0.0308

> <Gold.Chemscore.DEInternal.Weighted>
0.7318

> <Gold.Chemscore.Rot.Weighted>
4.8651

> <Gold.Chemscore.Internal.Correction.Weighted>
   9.000000E+99

> <Gold.Protein.RotatedTorsions>
[ 6907 6896 6895 6894 ] final  -12.71 input  -60.11 | X-H torsion
[ 7974 7965 7964 7962 ] final   -0.73 input  175.53 | X-H torsion
[ 8008 7997 7996 7995 ] final -110.92 input   59.86 | X-H torsion
[ 10167 10162 10161 10158 ] final  -99.34 input  -65.29 | X-H torsion
[ 10718 10713 10712 10709 ] final  -71.36 input   66.30 | X-H torsion
[ 10763 10752 10751 10750 ] final -176.32 input  -60.55 | X-H torsion
[ 11005 11000 10999 10996 ] final   -7.53 input  -57.11 | X-H torsion

> <Gold.Protein.ActiveResidues>
 VAL166  LYS551  ARG553  GLY616  TRP617  ASP618  TYR619  PRO620  LYS621  CYS622 
 ASP623  PHE694  ASN695  SER759  ASP760  ASP761  ALA762  ILE779  LEU786  VAL792 
 PHE793  MET794  SER795  GLU796  ALA797  LYS798  CYS799  TRP800  GLU811  SER814 

> <Gold.Protein.RotatedAtoms>
  151.3663  135.0914  159.9450 H   0  0  0  0  0  0  0  0  0  0  0  0  # atno 6907 bound_to 6896
  152.5148  133.9209  159.7544 H   0  0  0  0  0  0  0  0  0  0  0  0  # atno 6908 bound_to 6896
  150.9613  133.6387  159.2783 H   0  0  0  0  0  0  0  0  0  0  0  0  # atno 6909 bound_to 6896
  146.2424  140.1313  142.8337 H   0  0  0  0  0  0  0  0  0  0  0  0  # atno 7974 bound_to 7965
  154.9820  140.0396  157.2281 H   0  0  0  0  0  0  0  0  0  0  0  0  # atno 8008 bound_to 7997
  154.7706  140.2801  155.6118 H   0  0  0  0  0  0  0  0  0  0  0  0  # atno 8009 bound_to 7997
  156.2920  140.2611  156.2507 H   0  0  0  0  0  0  0  0  0  0  0  0  # atno 8010 bound_to 7997
  140.2635  143.3391  152.0603 H   0  0  0  0  0  0  0  0  0  0  0  0  # atno 10167 bound_to 10162
  156.0366  130.4350  150.2432 H   0  0  0  0  0  0  0  0  0  0  0  0  # atno 10718 bound_to 10713
  154.5737  135.2830  155.0801 H   0  0  0  0  0  0  0  0  0  0  0  0  # atno 10763 bound_to 10752
  154.2164  135.6399  153.5135 H   0  0  0  0  0  0  0  0  0  0  0  0  # atno 10764 bound_to 10752
  153.0066  135.5504  154.6369 H   0  0  0  0  0  0  0  0  0  0  0  0  # atno 10765 bound_to 10752
  140.7138  133.8886  155.8770 H   0  0  0  0  0  0  0  0  0  0  0  0  # atno 11005 bound_to 11000
  145.0323  140.8881  143.5102 LP  0  0  0  0  0  0  0  0  0  0  0  0  # atno 17320 bound_to 7965
  145.1380  139.2590  143.5505 LP  0  0  0  0  0  0  0  0  0  0  0  0  # atno 17321 bound_to 7965
  139.5010  144.6703  151.6258 LP  0  0  0  0  0  0  0  0  0  0  0  0  # atno 17342 bound_to 10162
  140.5947  143.9717  150.6347 LP  0  0  0  0  0  0  0  0  0  0  0  0  # atno 17343 bound_to 10162
  157.0530  131.0068  151.3247 LP  0  0  0  0  0  0  0  0  0  0  0  0  # atno 17370 bound_to 10713
  157.5126  130.7948  149.7722 LP  0  0  0  0  0  0  0  0  0  0  0  0  # atno 17371 bound_to 10713
  141.0062  134.1083  157.4268 LP  0  0  0  0  0  0  0  0  0  0  0  0  # atno 17394 bound_to 11000
  139.8865  135.0082  156.6502 LP  0  0  0  0  0  0  0  0  0  0  0  0  # atno 17395 bound_to 11000

$$$$
