AV-unprocessed.smi:1999|AV-procd|sdf|8092|dock7
  -GOLD-   2272010313D 1   1.00000     0.00000
 Structure written by MMmdl.
 38 39  0  0  0  0  0  0  0  0  1 V2000
  143.4553  132.9731  151.3276 C   0  0  0  0  0  0  0  0  0  0  0  0
  143.5470  134.3325  151.9319 C   0  0  0  0  0  0  0  0  0  0  0  0
  142.5770  134.8561  152.6914 N   0  0  0  0  0  0  0  0  0  0  0  0
  142.8932  136.1290  153.1451 N   0  0  0  0  0  0  0  0  0  0  0  0
  144.0975  136.5284  152.7139 C   0  0  0  0  0  0  0  0  0  0  0  0
  144.6738  137.7857  153.0346 N   0  0  0  0  0  0  0  0  0  0  0  0
  145.7665  138.0366  153.7770 C   0  0  0  0  0  0  0  0  0  0  0  0
  146.4520  137.1863  154.3457 O   0  0  0  0  0  0  0  0  0  0  0  0
  146.0300  139.3509  153.8213 N   0  0  0  0  0  0  0  0  0  0  0  0
  147.1691  139.9650  154.4982 C   0  0  2  0  0  0  0  0  0  0  0  0
  147.0637  141.4977  154.4151 C   0  0  0  0  0  0  0  0  0  0  0  0
  148.4661  139.4347  153.8533 C   0  0  0  0  0  0  0  0  0  0  0  0
  149.6400  139.3933  154.7259 N   0  0  0  0  0  0  0  0  0  0  0  0
  150.7504  138.6428  154.1414 C   0  0  0  0  0  0  0  0  0  0  0  0
  151.9886  138.6417  155.0549 C   0  0  0  0  0  0  0  0  0  0  0  0
  152.3748  139.9812  155.3435 O   0  0  0  0  0  0  0  0  0  0  0  0
  151.3332  140.7298  155.9608 C   0  0  0  0  0  0  0  0  0  0  0  0
  150.0980  140.7417  155.0444 C   0  0  0  0  0  0  0  0  0  0  0  0
  144.9477  135.3720  151.7032 S   0  0  0  0  0  0  0  0  0  0  0  0
  142.4426  132.5789  151.4183 H   0  0  0  0  0  0  0  0  0  0  0  0
  144.1416  132.2944  151.8341 H   0  0  0  0  0  0  0  0  0  0  0  0
  143.7193  133.0155  150.2709 H   0  0  0  0  0  0  0  0  0  0  0  0
  144.2130  138.5878  152.6314 H   0  0  0  0  0  0  0  0  0  0  0  0
  145.4085  139.9755  153.3286 H   0  0  0  0  0  0  0  0  0  0  0  0
  147.1392  139.6657  155.5462 H   0  0  0  0  0  0  0  0  0  0  0  0
  147.8900  141.9784  154.9398 H   0  0  0  0  0  0  0  0  0  0  0  0
  146.1398  141.8567  154.8697 H   0  0  0  0  0  0  0  0  0  0  0  0
  147.0824  141.8424  153.3806 H   0  0  0  0  0  0  0  0  0  0  0  0
  148.2861  138.4365  153.4507 H   0  0  0  0  0  0  0  0  0  0  0  0
  148.6894  140.0641  152.9905 H   0  0  0  0  0  0  0  0  0  0  0  0
  150.4580  137.6097  153.9584 H   0  0  0  0  0  0  0  0  0  0  0  0
  151.0168  139.0699  153.1733 H   0  0  0  0  0  0  0  0  0  0  0  0
  151.7814  138.1079  155.9836 H   0  0  0  0  0  0  0  0  0  0  0  0
  152.8180  138.1283  154.5680 H   0  0  0  0  0  0  0  0  0  0  0  0
  151.0901  140.2970  156.9325 H   0  0  0  0  0  0  0  0  0  0  0  0
  151.6823  141.7467  156.1405 H   0  0  0  0  0  0  0  0  0  0  0  0
  150.3384  141.2778  154.1249 H   0  0  0  0  0  0  0  0  0  0  0  0
  149.2966  141.2999  155.5300 H   0  0  0  0  0  0  0  0  0  0  0  0
  1  2  1  0  0  0  0
  1 20  1  0  0  0  0
  1 21  1  0  0  0  0
  1 22  1  0  0  0  0
  2 19  1  0  0  0  0
  2  3  2  0  0  0  0
  3  4  1  0  0  0  0
  4  5  2  0  0  0  0
  5  6  1  0  0  0  0
  5 19  1  0  0  0  0
  6  7  1  0  0  0  0
  6 23  1  0  0  0  0
  7  8  2  0  0  0  0
  7  9  1  0  0  0  0
  9 10  1  0  0  0  0
  9 24  1  0  0  0  0
 10 11  1  0  0  0  0
 10 12  1  0  0  0  0
 10 25  1  0  0  0  0
 11 26  1  0  0  0  0
 11 27  1  0  0  0  0
 11 28  1  0  0  0  0
 12 13  1  0  0  0  0
 12 29  1  0  0  0  0
 12 30  1  0  0  0  0
 13 18  1  0  0  0  0
 13 14  1  0  0  0  0
 14 15  1  0  0  0  0
 14 31  1  0  0  0  0
 14 32  1  0  0  0  0
 15 16  1  0  0  0  0
 15 33  1  0  0  0  0
 15 34  1  0  0  0  0
 16 17  1  0  0  0  0
 17 18  1  0  0  0  0
 17 35  1  0  0  0  0
 17 36  1  0  0  0  0
 18 37  1  0  0  0  0
 18 38  1  0  0  0  0
M  END
> <s_m_source_file>
AV-unprocessed.smi

> <i_m_source_file_index>
1999

> <i_lp_mmshare_version>
43012

> <i_f3d_flags>
0

> <s_epik_input>
W0NIM11jMW5uYyhzMSlbTkhdQyg9TylbTkhdW0NASF0oW0NIM10pW0NIMl1OMltDSDJdW0NIMl1PW0NIMl1bQ0gyXTI=

> <s_epik_cmdline>
J2VwaWtfcHl0aG9uJywgJy1waCcsICc3LjAnLCAnLXRuJywgJzgnLCAnLW1hJywgJzIwMCcsICctbWV0YWxfYmluZGluZycsICctaW1hZScsICc8aW5maWxlLm1hZT4nLCAnLW9tYWUnLCAnPG91dGZpbGUubWFlPic=

> <r_lp_tautomer_probability>
1

> <r_epik_Ionization_Penalty>
0.221412

> <r_epik_Ionization_Penalty_Charging>
0

> <r_epik_Ionization_Penalty_Neutral>
0.221412

> <r_epik_State_Penalty>
0.209349

> <r_epik_Charging_Adjusted_Penalty>
0.209349

> <i_epik_Tot_Q>
0

> <i_epik_Tot_abs_Q>
0

> <r_epik_Metal_State_Penalty>
0.56886

> <b_epik_Metal_Only>
0

> <s_lp_Force_Field>
OPLS_2005

> <r_lp_Energy>
22.1143

> <b_lp_Chiralities_Consistent>
1

> <s_lp_Variant>
AV-unprocessed.smi:1999-1

> <Gold.Version>
5.8.1

> <Gold.Id.Protein>
6NUR|6NUR_protein|mol2

> <Gold.PLP.Fitness>
36.4547

> <Gold.PLP.PLP>
-29.8287

> <Gold.PLP.part.hbond>
-3.6856

> <Gold.PLP.part.metal>
0.0000

> <Gold.PLP.part.buried>
-2.0923

> <Gold.PLP.part.nonpolar>
-23.6355

> <Gold.PLP.part.repulsive>
0.5584

> <Gold.PLP.ligand.clash>
0.0000

> <Gold.PLP.ligand.torsion>
1.0150

> <Gold.PLP.Chemscore.Hbond>
2.8745

> <Gold.PLP.Chemscore.CHOScore>
0.0000

> <Gold.PLP.Chemscore.Metal>
0.0000

> <Gold.Chemscore.Hbonds>
donor molecule, donor type, donor heavy atom, donor atom, acceptor molecule, acceptor atom, score
      L1  H     6    23       P1 10175  1.00
      L1  H     9    24       P1 10175  1.00
      P1  H  7989  7998       L1    16  0.10
      P1  H  7997  8010       L1    16  0.73

> <Gold.PLP.Chemscore.Internal.Correction>
0.0323

> <Gold.Rescore>
     Score         DG    S(hbond)    S(metal)    S(lipo)     H(rot)  DE(clash)    DE(int)     intcor
     16.44     -17.51       2.64        0.00      62.12       1.58       0.04       1.04       ----

> <Gold.Chemscore.Fitness>
16.4364

> <Gold.Chemscore.DG>
-17.5134

> <Gold.Chemscore.ZeroCoef>
-5.4800

> <Gold.Chemscore.Hbond>
2.6405

> <Gold.Chemscore.Metal>
0.0000

> <Gold.Chemscore.Lipo>
62.1225

> <Gold.Chemscore.Internal_Hbond>
0.0000

> <Gold.Chemscore.DEClash>
0.0402

> <Gold.Chemscore.DEInternal>
1.0367

> <Gold.Chemscore.Rot>
1.5837

> <Gold.Chemscore.Internal.Correction>
   9.000000E+99

> <Gold.Chemscore.Hbonds>
donor molecule, donor type, donor heavy atom, donor atom, acceptor molecule, acceptor atom, score
      L1  H     6    23       P1 10175  0.98
      L1  H     9    24       P1 10175  0.94
      P1  H  7997  8010       L1    16  0.63

> <Gold.Chemscore.Hbond.Weighted>
-8.8193

> <Gold.Chemscore.Metal.Weighted>
-0.0000

> <Gold.Chemscore.Lipo.Weighted>
-7.2683

> <Gold.Chemscore.Internal_Hbond.Weighted>
0.0000

> <Gold.Chemscore.DEClash.Weighted>
0.0402

> <Gold.Chemscore.DEInternal.Weighted>
1.0367

> <Gold.Chemscore.Rot.Weighted>
4.0542

> <Gold.Chemscore.Internal.Correction.Weighted>
   9.000000E+99

> <Gold.Protein.RotatedTorsions>
[ 6907 6896 6895 6894 ] final  162.40 input  -60.11 | X-H torsion
[ 7974 7965 7964 7962 ] final  -36.23 input  175.53 | X-H torsion
[ 8008 7997 7996 7995 ] final   96.24 input   59.86 | X-H torsion
[ 10167 10162 10161 10158 ] final -160.42 input  -65.29 | X-H torsion
[ 10718 10713 10712 10709 ] final -165.44 input   66.30 | X-H torsion
[ 10763 10752 10751 10750 ] final   62.77 input  -60.55 | X-H torsion
[ 11005 11000 10999 10996 ] final -148.48 input  -57.11 | X-H torsion

> <Gold.Protein.ActiveResidues>
 VAL166  LYS551  ARG553  GLY616  TRP617  ASP618  TYR619  PRO620  LYS621  CYS622 
 ASP623  PHE694  ASN695  SER759  ASP760  ASP761  ALA762  ILE779  LEU786  VAL792 
 PHE793  MET794  SER795  GLU796  ALA797  LYS798  CYS799  TRP800  GLU811  SER814 

> <Gold.Protein.RotatedAtoms>
  151.9410  133.3638  159.3964 H   0  0  0  0  0  0  0  0  0  0  0  0  # atno 6907 bound_to 6896
  150.6998  134.4439  159.5314 H   0  0  0  0  0  0  0  0  0  0  0  0  # atno 6908 bound_to 6896
  152.2096  134.8513  160.0549 H   0  0  0  0  0  0  0  0  0  0  0  0  # atno 6909 bound_to 6896
  146.0679  140.6254  142.8966 H   0  0  0  0  0  0  0  0  0  0  0  0  # atno 7974 bound_to 7965
  156.0775  140.3275  155.7653 H   0  0  0  0  0  0  0  0  0  0  0  0  # atno 8008 bound_to 7997
  155.5206  140.0585  157.2925 H   0  0  0  0  0  0  0  0  0  0  0  0  # atno 8009 bound_to 7997
  154.4564  140.1944  156.0386 H   0  0  0  0  0  0  0  0  0  0  0  0  # atno 8010 bound_to 7997
  139.6541  144.0031  152.2181 H   0  0  0  0  0  0  0  0  0  0  0  0  # atno 10167 bound_to 10162
  156.6534  130.9017  151.3017 H   0  0  0  0  0  0  0  0  0  0  0  0  # atno 10718 bound_to 10713
  152.9994  135.5453  154.6246 H   0  0  0  0  0  0  0  0  0  0  0  0  # atno 10763 bound_to 10752
  154.5538  135.2828  155.0986 H   0  0  0  0  0  0  0  0  0  0  0  0  # atno 10764 bound_to 10752
  154.2216  135.6449  153.5199 H   0  0  0  0  0  0  0  0  0  0  0  0  # atno 10765 bound_to 10752
  140.7608  134.3301  157.5102 H   0  0  0  0  0  0  0  0  0  0  0  0  # atno 11005 bound_to 11000
  144.7213  140.4384  143.7006 LP  0  0  0  0  0  0  0  0  0  0  0  0  # atno 17320 bound_to 7965
  145.6444  139.1555  143.2897 LP  0  0  0  0  0  0  0  0  0  0  0  0  # atno 17321 bound_to 7965
  139.9753  144.6466  150.7951 LP  0  0  0  0  0  0  0  0  0  0  0  0  # atno 17342 bound_to 10162
  140.7551  143.3039  151.3010 LP  0  0  0  0  0  0  0  0  0  0  0  0  # atno 17343 bound_to 10162
  157.7133  130.9467  150.1166 LP  0  0  0  0  0  0  0  0  0  0  0  0  # atno 17370 bound_to 10713
  156.2067  130.3664  149.8721 LP  0  0  0  0  0  0  0  0  0  0  0  0  # atno 17371 bound_to 10713
  139.8771  134.9200  156.3242 LP  0  0  0  0  0  0  0  0  0  0  0  0  # atno 17394 bound_to 11000
  140.9665  133.7355  156.0474 LP  0  0  0  0  0  0  0  0  0  0  0  0  # atno 17395 bound_to 11000

$$$$
