AV-unprocessed.smi:2410|AV-procd|sdf|9528|dock4
  -GOLD-   2272013163D 1   1.00000     0.00000
 Structure written by MMmdl.
 47 49  0  0  0  0  0  0  0  0  2 V2000
  152.2337  144.9204  160.3234 C   0  0  0  0  0  0  0  0  0  0  0  0
  151.9624  143.6251  159.5772 C   0  0  0  0  0  0  0  0  0  0  0  0
  151.1752  143.6744  158.4041 C   0  0  0  0  0  0  0  0  0  0  0  0
  150.9470  142.4735  157.7421 C   0  0  0  0  0  0  0  0  0  0  0  0
  150.2280  142.1893  156.5784 N   0  3  0  0  0  0  0  0  0  0  0  0
  150.2942  140.8537  156.3176 C   0  0  0  0  0  0  0  0  0  0  0  0
  151.0439  140.2824  157.2987 N   0  0  0  0  0  0  0  0  0  0  0  0
  151.4361  138.8828  157.5033 C   0  0  0  0  0  0  0  0  0  0  0  0
  150.6842  138.2261  158.6776 C   0  0  2  0  0  0  0  0  0  0  0  0
  151.4024  137.0738  159.0735 O   0  0  0  0  0  0  0  0  0  0  0  0
  149.2472  137.8156  158.2878 C   0  0  0  0  0  0  0  0  0  0  0  0
  148.9402  136.4375  158.7037 N   0  0  0  0  0  0  0  0  0  0  0  0
  149.2429  135.4250  157.7793 C   0  0  0  0  0  0  0  0  0  0  0  0
  149.0166  134.1789  158.0397 N   0  0  0  0  0  0  0  0  0  0  0  0
  148.4611  133.8127  159.2694 C   0  0  0  0  0  0  0  0  0  0  0  0
  148.2310  132.3250  159.4681 C   0  0  0  0  0  0  0  0  0  0  0  0
  148.1560  134.7450  160.2131 C   0  0  0  0  0  0  0  0  0  0  0  0
  147.5498  134.4061  161.5692 C   0  0  0  0  0  0  0  0  0  0  0  0
  148.4148  136.1667  159.9340 C   0  0  0  0  0  0  0  0  0  0  0  0
  148.1835  137.0625  160.7494 O   0  0  0  0  0  0  0  0  0  0  0  0
  151.4705  141.2535  158.2102 C   0  0  0  0  0  0  0  0  0  0  0  0
  152.2459  141.1858  159.3652 C   0  0  0  0  0  0  0  0  0  0  0  0
  152.4908  142.3962  160.0515 C   0  0  0  0  0  0  0  0  0  0  0  0
  153.3382  142.3540  161.3118 C   0  0  0  0  0  0  0  0  0  0  0  0
  151.7772  145.7737  159.8207 H   0  0  0  0  0  0  0  0  0  0  0  0
  153.3057  145.1079  160.3895 H   0  0  0  0  0  0  0  0  0  0  0  0
  151.8270  144.8723  161.3338 H   0  0  0  0  0  0  0  0  0  0  0  0
  150.7702  144.6061  158.0371 H   0  0  0  0  0  0  0  0  0  0  0  0
  149.8387  140.3422  155.4819 H   0  0  0  0  0  0  0  0  0  0  0  0
  151.2522  138.3447  156.5725 H   0  0  0  0  0  0  0  0  0  0  0  0
  152.5140  138.8562  157.6696 H   0  0  0  0  0  0  0  0  0  0  0  0
  150.6649  138.9207  159.5180 H   0  0  0  0  0  0  0  0  0  0  0  0
  151.5160  137.0973  160.0114 H   0  0  0  0  0  0  0  0  0  0  0  0
  148.5313  138.4789  158.7770 H   0  0  0  0  0  0  0  0  0  0  0  0
  149.0716  137.9798  157.2225 H   0  0  0  0  0  0  0  0  0  0  0  0
  149.6806  135.7624  156.8384 H   0  0  0  0  0  0  0  0  0  0  0  0
  147.1727  132.1203  159.6314 H   0  0  0  0  0  0  0  0  0  0  0  0
  148.7944  131.9625  160.3284 H   0  0  0  0  0  0  0  0  0  0  0  0
  148.5510  131.7539  158.5955 H   0  0  0  0  0  0  0  0  0  0  0  0
  148.2027  134.7531  162.3708 H   0  0  0  0  0  0  0  0  0  0  0  0
  147.3931  133.3384  161.7143 H   0  0  0  0  0  0  0  0  0  0  0  0
  146.5831  134.8981  161.6823 H   0  0  0  0  0  0  0  0  0  0  0  0
  152.6499  140.2500  159.7238 H   0  0  0  0  0  0  0  0  0  0  0  0
  153.6369  141.3344  161.5580 H   0  0  0  0  0  0  0  0  0  0  0  0
  152.7833  142.7518  162.1617 H   0  0  0  0  0  0  0  0  0  0  0  0
  154.2455  142.9445  161.1820 H   0  0  0  0  0  0  0  0  0  0  0  0
  149.7303  142.8555  156.0015 H   0  0  0  0  0  0  0  0  0  0  0  0
  1  2  1  0  0  0  0
  1 25  1  0  0  0  0
  1 26  1  0  0  0  0
  1 27  1  0  0  0  0
  2 23  1  0  0  0  0
  2  3  2  0  0  0  0
  3  4  1  0  0  0  0
  3 28  1  0  0  0  0
  4 21  2  0  0  0  0
  4  5  1  0  0  0  0
  5  6  2  0  0  0  0
  5 47  1  0  0  0  0
  6  7  1  0  0  0  0
  6 29  1  0  0  0  0
  7  8  1  0  0  0  0
  7 21  1  0  0  0  0
  8  9  1  0  0  0  0
  8 30  1  0  0  0  0
  8 31  1  0  0  0  0
  9 10  1  0  0  0  0
  9 11  1  0  0  0  0
  9 32  1  0  0  0  0
 10 33  1  0  0  0  0
 11 12  1  0  0  0  0
 11 34  1  0  0  0  0
 11 35  1  0  0  0  0
 12 19  1  0  0  0  0
 12 13  1  0  0  0  0
 13 14  2  0  0  0  0
 13 36  1  0  0  0  0
 14 15  1  0  0  0  0
 15 16  1  0  0  0  0
 15 17  2  0  0  0  0
 16 37  1  0  0  0  0
 16 38  1  0  0  0  0
 16 39  1  0  0  0  0
 17 18  1  0  0  0  0
 17 19  1  0  0  0  0
 18 40  1  0  0  0  0
 18 41  1  0  0  0  0
 18 42  1  0  0  0  0
 19 20  2  0  0  0  0
 21 22  1  0  0  0  0
 22 23  2  0  0  0  0
 22 43  1  0  0  0  0
 23 24  1  0  0  0  0
 24 44  1  0  0  0  0
 24 45  1  0  0  0  0
 24 46  1  0  0  0  0
M  CHG  1   5   1
M  END
> <s_m_source_file>
AV-unprocessed.smi

> <i_m_source_file_index>
2410

> <i_lp_mmshare_version>
43012

> <i_f3d_flags>
0

> <s_epik_input>
W0NIM11jKFtjSF0xKWMoW0NIM10pW2NIXWMoYzEyKW4oW2NIXW4yKVtDSDJdW0NASF0oW09IXSlbQ0gyXW4zW2NIXW5jKFtDSDNdKWMoW0NIM10pYzM9Tw==

> <s_epik_cmdline>
J2VwaWtfcHl0aG9uJywgJy1waCcsICc3LjAnLCAnLXRuJywgJzgnLCAnLW1hJywgJzIwMCcsICctbWV0YWxfYmluZGluZycsICctaW1hZScsICc8aW5maWxlLm1hZT4nLCAnLW9tYWUnLCAnPG91dGZpbGUubWFlPic=

> <r_lp_tautomer_probability>
1

> <r_epik_Ionization_Penalty>
1.03571

> <r_epik_Ionization_Penalty_Charging>
1.03568

> <r_epik_Ionization_Penalty_Neutral>
3.18232e-05

> <r_epik_State_Penalty>
1.08724

> <r_epik_Charging_Adjusted_Penalty>
2.12292

> <i_epik_Tot_Q>
1

> <i_epik_Tot_abs_Q>
1

> <r_epik_Metal_State_Penalty>
1.18374

> <b_epik_Metal_Only>
0

> <s_lp_Force_Field>
OPLS_2005

> <r_lp_Energy>
24.5371

> <b_lp_Chiralities_Consistent>
1

> <s_lp_Variant>
AV-unprocessed.smi:2410-3

> <Gold.Version>
5.8.1

> <Gold.Id.Protein>
6NUR|6NUR_protein|mol2

> <Gold.PLP.Fitness>
54.6633

> <Gold.PLP.PLP>
-46.3418

> <Gold.PLP.part.hbond>
-4.4686

> <Gold.PLP.part.metal>
0.0000

> <Gold.PLP.part.buried>
-5.8009

> <Gold.PLP.part.nonpolar>
-36.3406

> <Gold.PLP.part.repulsive>
0.0553

> <Gold.PLP.ligand.clash>
0.0000

> <Gold.PLP.ligand.torsion>
1.3552

> <Gold.PLP.Chemscore.Hbond>
3.6603

> <Gold.PLP.Chemscore.CHOScore>
0.0000

> <Gold.PLP.Chemscore.Metal>
0.0000

> <Gold.Chemscore.Hbonds>
donor molecule, donor type, donor heavy atom, donor atom, acceptor molecule, acceptor atom, score
      L1  H     5    47       P1  8028  1.79
      P1  H  6931  6943       L1    20  0.91
      P1  H  6934  6947       L1    20  0.40

> <Gold.PLP.Chemscore.Internal.Correction>
0.0509

> <Gold.Rescore>
     Score         DG    S(hbond)    S(metal)    S(lipo)     H(rot)  DE(clash)    DE(int)     intcor
     18.64     -20.98       2.66        0.00     109.25       2.41       0.03       2.32       ----

> <Gold.Chemscore.Fitness>
18.6373

> <Gold.Chemscore.DG>
-20.9813

> <Gold.Chemscore.ZeroCoef>
-5.4800

> <Gold.Chemscore.Hbond>
2.6576

> <Gold.Chemscore.Metal>
0.0000

> <Gold.Chemscore.Lipo>
109.2499

> <Gold.Chemscore.Internal_Hbond>
0.0000

> <Gold.Chemscore.DEClash>
0.0260

> <Gold.Chemscore.DEInternal>
2.3180

> <Gold.Chemscore.Rot>
2.4052

> <Gold.Chemscore.Internal.Correction>
   9.000000E+99

> <Gold.Chemscore.Hbonds>
donor molecule, donor type, donor heavy atom, donor atom, acceptor molecule, acceptor atom, score
      L1  H     5    47       P1  8028  0.82
      P1  H  6931  6943       L1    20  0.88
      P1  H  6934  6947       L1    20  0.41

> <Gold.Chemscore.Hbond.Weighted>
-8.8764

> <Gold.Chemscore.Metal.Weighted>
-0.0000

> <Gold.Chemscore.Lipo.Weighted>
-12.7822

> <Gold.Chemscore.Internal_Hbond.Weighted>
0.0000

> <Gold.Chemscore.DEClash.Weighted>
0.0260

> <Gold.Chemscore.DEInternal.Weighted>
2.3180

> <Gold.Chemscore.Rot.Weighted>
6.1573

> <Gold.Chemscore.Internal.Correction.Weighted>
   9.000000E+99

> <Gold.Protein.RotatedTorsions>
[ 6907 6896 6895 6894 ] final  151.42 input  -60.11 | X-H torsion
[ 7974 7965 7964 7962 ] final  108.81 input  175.53 | X-H torsion
[ 8008 7997 7996 7995 ] final -177.42 input   59.86 | X-H torsion
[ 10167 10162 10161 10158 ] final    2.30 input  -65.29 | X-H torsion
[ 10718 10713 10712 10709 ] final   44.45 input   66.30 | X-H torsion
[ 10763 10752 10751 10750 ] final  -66.83 input  -60.55 | X-H torsion
[ 11005 11000 10999 10996 ] final  106.98 input  -57.11 | X-H torsion

> <Gold.Protein.ActiveResidues>
 VAL166  LYS551  ARG553  GLY616  TRP617  ASP618  TYR619  PRO620  LYS621  CYS622 
 ASP623  PHE694  ASN695  SER759  ASP760  ASP761  ALA762  ILE779  LEU786  VAL792 
 PHE793  MET794  SER795  GLU796  ALA797  LYS798  CYS799  TRP800  GLU811  SER814 

> <Gold.Protein.RotatedAtoms>
  152.1009  133.4249  159.4586 H   0  0  0  0  0  0  0  0  0  0  0  0  # atno 6907 bound_to 6896
  150.6864  134.2762  159.4617 H   0  0  0  0  0  0  0  0  0  0  0  0  # atno 6908 bound_to 6896
  152.0622  134.9587  160.0625 H   0  0  0  0  0  0  0  0  0  0  0  0  # atno 6909 bound_to 6896
  145.2758  139.2650  143.3942 H   0  0  0  0  0  0  0  0  0  0  0  0  # atno 7974 bound_to 7965
  156.0067  140.1232  157.0494 H   0  0  0  0  0  0  0  0  0  0  0  0  # atno 8008 bound_to 7997
  154.4261  140.1096  156.5841 H   0  0  0  0  0  0  0  0  0  0  0  0  # atno 8009 bound_to 7997
  155.6137  140.3471  155.4632 H   0  0  0  0  0  0  0  0  0  0  0  0  # atno 8010 bound_to 7997
  140.6641  143.7225  150.7794 H   0  0  0  0  0  0  0  0  0  0  0  0  # atno 10167 bound_to 10162
  157.4269  130.8002  149.7567 H   0  0  0  0  0  0  0  0  0  0  0  0  # atno 10718 bound_to 10713
  154.3656  135.6106  153.5713 H   0  0  0  0  0  0  0  0  0  0  0  0  # atno 10763 bound_to 10752
  152.9792  135.5825  154.4582 H   0  0  0  0  0  0  0  0  0  0  0  0  # atno 10764 bound_to 10752
  154.4327  135.2848  155.1879 H   0  0  0  0  0  0  0  0  0  0  0  0  # atno 10765 bound_to 10752
  139.8821  134.9386  156.5749 H   0  0  0  0  0  0  0  0  0  0  0  0  # atno 11005 bound_to 11000
  146.3232  140.3213  142.8633 LP  0  0  0  0  0  0  0  0  0  0  0  0  # atno 17320 bound_to 7965
  144.9295  140.7959  143.5698 LP  0  0  0  0  0  0  0  0  0  0  0  0  # atno 17321 bound_to 7965
  140.0899  143.4887  152.2484 LP  0  0  0  0  0  0  0  0  0  0  0  0  # atno 17342 bound_to 10162
  139.5884  144.7540  151.3461 LP  0  0  0  0  0  0  0  0  0  0  0  0  # atno 17343 bound_to 10162
  155.9899  130.3948  150.3050 LP  0  0  0  0  0  0  0  0  0  0  0  0  # atno 17370 bound_to 10713
  157.1203  131.0245  151.3012 LP  0  0  0  0  0  0  0  0  0  0  0  0  # atno 17371 bound_to 10713
  140.8070  133.8459  155.8777 LP  0  0  0  0  0  0  0  0  0  0  0  0  # atno 17394 bound_to 11000
  140.9541  134.1741  157.4705 LP  0  0  0  0  0  0  0  0  0  0  0  0  # atno 17395 bound_to 11000

$$$$
