AV-unprocessed.smi:3183|AV-procd|sdf|12156|dock1
  -GOLD-   2272017593D 1   1.00000     0.00000
 Structure written by MMmdl.
 43 44  0  0  0  0  0  0  0  0  2 V2000
  153.1041  142.8402  161.5032 C   0  0  0  0  0  0  0  0  0  0  0  0
  152.7536  142.8481  160.0062 C   0  0  1  0  0  0  0  0  0  0  0  0
  151.9520  141.5963  159.5995 C   0  0  0  0  0  0  0  0  0  0  0  0
  151.6823  141.5705  158.0870 C   0  0  0  0  0  0  0  0  0  0  0  0
  150.9655  142.8470  157.6117 C   0  0  2  0  0  0  0  0  0  0  0  0
  150.7644  142.7875  156.1467 N   0  3  0  0  0  0  0  0  0  0  0  0
  150.4194  141.4548  155.6084 C   0  0  0  0  0  0  0  0  0  0  0  0
  148.9316  141.1428  155.8265 C   0  0  0  0  0  0  0  0  0  0  0  0
  148.2921  140.3806  154.7057 C   0  0  0  0  0  0  0  0  0  0  0  0
  148.5107  139.1140  154.2357 C   0  0  0  0  0  0  0  0  0  0  0  0
  147.5911  138.9779  153.1596 C   0  0  0  0  0  0  0  0  0  0  0  0
  146.8630  140.0649  152.9751 N   0  0  0  0  0  0  0  0  0  0  0  0
  147.2901  140.9256  153.9230 N   0  0  0  0  0  0  0  0  0  0  0  0
  146.6911  142.2440  154.0039 C   0  0  0  0  0  0  0  0  0  0  0  0
  151.7714  144.0987  158.0277 C   0  0  0  0  0  0  0  0  0  0  0  0
  152.0487  144.1497  159.5455 C   0  0  1  0  0  0  0  0  0  0  0  0
  150.7759  144.4964  160.3446 C   0  0  0  0  0  0  0  0  0  0  0  0
  152.2120  142.7949  162.1283 H   0  0  0  0  0  0  0  0  0  0  0  0
  153.6650  143.7330  161.7815 H   0  0  0  0  0  0  0  0  0  0  0  0
  153.7196  141.9756  161.7530 H   0  0  0  0  0  0  0  0  0  0  0  0
  153.7046  142.8017  159.4726 H   0  0  0  0  0  0  0  0  0  0  0  0
  152.5007  140.6973  159.8827 H   0  0  0  0  0  0  0  0  0  0  0  0
  151.0078  141.5589  160.1437 H   0  0  0  0  0  0  0  0  0  0  0  0
  152.6287  141.4588  157.5557 H   0  0  0  0  0  0  0  0  0  0  0  0
  151.0852  140.6918  157.8396 H   0  0  0  0  0  0  0  0  0  0  0  0
  149.9815  142.8750  158.0818 H   0  0  0  0  0  0  0  0  0  0  0  0
  150.0457  143.4482  155.8876 H   0  0  0  0  0  0  0  0  0  0  0  0
  150.6504  141.4264  154.5427 H   0  0  0  0  0  0  0  0  0  0  0  0
  151.0292  140.6937  156.0952 H   0  0  0  0  0  0  0  0  0  0  0  0
  148.8169  140.5747  156.7505 H   0  0  0  0  0  0  0  0  0  0  0  0
  148.3879  142.0767  155.9745 H   0  0  0  0  0  0  0  0  0  0  0  0
  149.2216  138.3885  154.6024 H   0  0  0  0  0  0  0  0  0  0  0  0
  147.4328  138.1284  152.5118 H   0  0  0  0  0  0  0  0  0  0  0  0
  146.3841  142.4483  155.0298 H   0  0  0  0  0  0  0  0  0  0  0  0
  145.8148  142.3095  153.3572 H   0  0  0  0  0  0  0  0  0  0  0  0
  147.4173  142.9949  153.6918 H   0  0  0  0  0  0  0  0  0  0  0  0
  152.7226  144.1060  157.4934 H   0  0  0  0  0  0  0  0  0  0  0  0
  151.2538  145.0101  157.7286 H   0  0  0  0  0  0  0  0  0  0  0  0
  152.7455  144.9725  159.7116 H   0  0  0  0  0  0  0  0  0  0  0  0
  150.0304  143.7033  160.2996 H   0  0  0  0  0  0  0  0  0  0  0  0
  150.3112  145.4047  159.9603 H   0  0  0  0  0  0  0  0  0  0  0  0
  151.0010  144.6782  161.3953 H   0  0  0  0  0  0  0  0  0  0  0  0
  151.6306  143.0707  155.7111 H   0  0  0  0  0  0  0  0  0  0  0  0
  1  2  1  0  0  0  0
  1 18  1  0  0  0  0
  1 19  1  0  0  0  0
  1 20  1  0  0  0  0
  2 16  1  0  0  0  0
  2  3  1  0  0  0  0
  2 21  1  0  0  0  0
  3  4  1  0  0  0  0
  3 22  1  0  0  0  0
  3 23  1  0  0  0  0
  4  5  1  0  0  0  0
  4 24  1  0  0  0  0
  4 25  1  0  0  0  0
  5  6  1  0  0  0  0
  5 15  1  0  0  0  0
  5 26  1  0  0  0  0
  6  7  1  0  0  0  0
  6 27  1  0  0  0  0
  6 43  1  0  0  0  0
  7  8  1  0  0  0  0
  7 28  1  0  0  0  0
  7 29  1  0  0  0  0
  8  9  1  0  0  0  0
  8 30  1  0  0  0  0
  8 31  1  0  0  0  0
  9 13  1  0  0  0  0
  9 10  2  0  0  0  0
 10 11  1  0  0  0  0
 10 32  1  0  0  0  0
 11 12  2  0  0  0  0
 11 33  1  0  0  0  0
 12 13  1  0  0  0  0
 13 14  1  0  0  0  0
 14 34  1  0  0  0  0
 14 35  1  0  0  0  0
 14 36  1  0  0  0  0
 15 16  1  0  0  0  0
 15 37  1  0  0  0  0
 15 38  1  0  0  0  0
 16 17  1  0  0  0  0
 16 39  1  0  0  0  0
 17 40  1  0  0  0  0
 17 41  1  0  0  0  0
 17 42  1  0  0  0  0
M  CHG  1   6   1
M  END
> <s_m_source_file>
AV-unprocessed.smi

> <i_m_source_file_index>
3183

> <i_lp_mmshare_version>
43012

> <i_f3d_flags>
0

> <s_epik_input>
W0NIM11bQ0BASF0xW0NIMl1bQ0gyXVtDQEhdKFtDSDJdW0NASF0xW0NIM10pW05IXVtDSDJdW0NIMl1jMltjSF1bY0hdbm4yW0NIM10=

> <s_epik_cmdline>
J2VwaWtfcHl0aG9uJywgJy1waCcsICc3LjAnLCAnLXRuJywgJzgnLCAnLW1hJywgJzIwMCcsICctbWV0YWxfYmluZGluZycsICctaW1hZScsICc8aW5maWxlLm1hZT4nLCAnLW9tYWUnLCAnPG91dGZpbGUubWFlPic=

> <r_lp_tautomer_probability>
1

> <r_epik_Ionization_Penalty>
0.000327718

> <r_epik_Ionization_Penalty_Charging>
0.000294043

> <r_epik_Ionization_Penalty_Neutral>
3.36755e-05

> <r_epik_State_Penalty>
-0

> <r_epik_Charging_Adjusted_Penalty>
0.000294043

> <i_epik_Tot_Q>
1

> <i_epik_Tot_abs_Q>
1

> <r_epik_Metal_State_Penalty>
-0

> <b_epik_Metal_Only>
0

> <s_lp_Force_Field>
OPLS_2005

> <r_lp_Energy>
13.9595

> <b_lp_Chiralities_Consistent>
1

> <s_lp_Variant>
AV-unprocessed.smi:3183-4

> <Gold.Version>
5.8.1

> <Gold.Id.Protein>
6NUR|6NUR_protein|mol2

> <Gold.PLP.Fitness>
48.2760

> <Gold.PLP.PLP>
-40.3899

> <Gold.PLP.part.hbond>
-1.0000

> <Gold.PLP.part.metal>
0.0000

> <Gold.PLP.part.buried>
-3.6778

> <Gold.PLP.part.nonpolar>
-35.9421

> <Gold.PLP.part.repulsive>
0.3554

> <Gold.PLP.ligand.clash>
0.0000

> <Gold.PLP.ligand.torsion>
0.5691

> <Gold.PLP.Chemscore.Hbond>
2.0000

> <Gold.PLP.Chemscore.CHOScore>
0.9987

> <Gold.PLP.Chemscore.Metal>
0.0000

> <Gold.Chemscore.Hbonds>
donor molecule, donor type, donor heavy atom, donor atom, acceptor molecule, acceptor atom, score
      L1  H     6    27       P1  8028  2.00
      L1  C    11    33       P1  7948  1.00

> <Gold.PLP.Chemscore.Internal.Correction>
0.0282

> <Gold.Rescore>
     Score         DG    S(hbond)    S(metal)    S(lipo)     H(rot)  DE(clash)    DE(int)     intcor
     18.76     -19.31       0.99        0.00     120.09       1.38       0.07       0.49       ----

> <Gold.Chemscore.Fitness>
18.7569

> <Gold.Chemscore.DG>
-19.3106

> <Gold.Chemscore.ZeroCoef>
-5.4800

> <Gold.Chemscore.Hbond>
0.9893

> <Gold.Chemscore.Metal>
0.0000

> <Gold.Chemscore.Lipo>
120.0934

> <Gold.Chemscore.Internal_Hbond>
0.0000

> <Gold.Chemscore.DEClash>
0.0675

> <Gold.Chemscore.DEInternal>
0.4862

> <Gold.Chemscore.Rot>
1.3768

> <Gold.Chemscore.Internal.Correction>
   9.000000E+99

> <Gold.Chemscore.Hbonds>
donor molecule, donor type, donor heavy atom, donor atom, acceptor molecule, acceptor atom, score
      L1  H     6    27       P1  8028  1.00

> <Gold.Chemscore.Hbond.Weighted>
-3.3044

> <Gold.Chemscore.Metal.Weighted>
-0.0000

> <Gold.Chemscore.Lipo.Weighted>
-14.0509

> <Gold.Chemscore.Internal_Hbond.Weighted>
0.0000

> <Gold.Chemscore.DEClash.Weighted>
0.0675

> <Gold.Chemscore.DEInternal.Weighted>
0.4862

> <Gold.Chemscore.Rot.Weighted>
3.5247

> <Gold.Chemscore.Internal.Correction.Weighted>
   9.000000E+99

> <Gold.Protein.RotatedTorsions>
[ 6907 6896 6895 6894 ] final -149.08 input  -60.11 | X-H torsion
[ 7974 7965 7964 7962 ] final  -56.10 input  175.53 | X-H torsion
[ 8008 7997 7996 7995 ] final  -50.59 input   59.86 | X-H torsion
[ 10167 10162 10161 10158 ] final  -65.78 input  -65.29 | X-H torsion
[ 10718 10713 10712 10709 ] final   34.86 input   66.30 | X-H torsion
[ 10763 10752 10751 10750 ] final  -12.21 input  -60.55 | X-H torsion
[ 11005 11000 10999 10996 ] final  -43.13 input  -57.11 | X-H torsion

> <Gold.Protein.ActiveResidues>
 VAL166  LYS551  ARG553  GLY616  TRP617  ASP618  TYR619  PRO620  LYS621  CYS622 
 ASP623  PHE694  ASN695  SER759  ASP760  ASP761  ALA762  ILE779  LEU786  VAL792 
 PHE793  MET794  SER795  GLU796  ALA797  LYS798  CYS799  TRP800  GLU811  SER814 

> <Gold.Protein.RotatedAtoms>
  151.1790  133.4737  159.2593 H   0  0  0  0  0  0  0  0  0  0  0  0  # atno 6907 bound_to 6896
  151.1278  135.0114  159.8579 H   0  0  0  0  0  0  0  0  0  0  0  0  # atno 6908 bound_to 6896
  152.5459  134.1695  159.8644 H   0  0  0  0  0  0  0  0  0  0  0  0  # atno 6909 bound_to 6896
  145.8665  140.8247  142.9910 H   0  0  0  0  0  0  0  0  0  0  0  0  # atno 7974 bound_to 7965
  154.4065  140.1268  156.4690 H   0  0  0  0  0  0  0  0  0  0  0  0  # atno 8008 bound_to 7997
  155.7198  140.3493  155.4991 H   0  0  0  0  0  0  0  0  0  0  0  0  # atno 8009 bound_to 7997
  155.9225  140.1055  157.1186 H   0  0  0  0  0  0  0  0  0  0  0  0  # atno 8010 bound_to 7997
  140.5705  143.2317  151.6548 H   0  0  0  0  0  0  0  0  0  0  0  0  # atno 10167 bound_to 10162
  157.3156  130.7421  149.6752 H   0  0  0  0  0  0  0  0  0  0  0  0  # atno 10718 bound_to 10713
  153.4951  135.7017  153.5863 H   0  0  0  0  0  0  0  0  0  0  0  0  # atno 10763 bound_to 10752
  153.4018  135.3870  155.1993 H   0  0  0  0  0  0  0  0  0  0  0  0  # atno 10764 bound_to 10752
  154.8714  135.3883  154.4415 H   0  0  0  0  0  0  0  0  0  0  0  0  # atno 10765 bound_to 10752
  141.0363  133.6798  156.2690 H   0  0  0  0  0  0  0  0  0  0  0  0  # atno 11005 bound_to 11000
  144.6726  140.1174  143.7452 LP  0  0  0  0  0  0  0  0  0  0  0  0  # atno 17320 bound_to 7965
  145.9187  139.2532  143.1394 LP  0  0  0  0  0  0  0  0  0  0  0  0  # atno 17321 bound_to 7965
  139.5115  144.3507  152.0655 LP  0  0  0  0  0  0  0  0  0  0  0  0  # atno 17342 bound_to 10162
  140.2644  144.4032  150.6174 LP  0  0  0  0  0  0  0  0  0  0  0  0  # atno 17343 bound_to 10162
  155.9681  130.4238  150.4580 LP  0  0  0  0  0  0  0  0  0  0  0  0  # atno 17370 bound_to 10713
  157.2587  131.0562  151.2334 LP  0  0  0  0  0  0  0  0  0  0  0  0  # atno 17371 bound_to 10713
  140.6316  134.5258  157.5560 LP  0  0  0  0  0  0  0  0  0  0  0  0  # atno 17394 bound_to 11000
  139.9243  134.8087  156.1116 LP  0  0  0  0  0  0  0  0  0  0  0  0  # atno 17395 bound_to 11000

$$$$
