AV-unprocessed.smi:1381|AV-procd|sdf|5611|dock7
  -GOLD-   22720 5223D 1   1.00000     0.00000
 Structure written by MMmdl.
 41 42  0  0  0  0  0  0  0  0  2 V2000
  143.7606  135.1254  162.9879 C   0  0  0  0  0  0  0  0  0  0  0  0
  145.0044  135.4782  162.2472 C   0  0  0  0  0  0  0  0  0  0  0  0
  145.7036  136.6430  162.1044 C   0  0  0  0  0  0  0  0  0  0  0  0
  146.7940  136.2674  161.2733 C   0  0  0  0  0  0  0  0  0  0  0  0
  147.7694  137.0805  160.8386 N   0  5  0  0  0  0  0  0  0  0  0  0
  148.5381  136.7178  159.7856 C   0  0  0  0  0  0  0  0  0  0  0  0
  148.7699  135.5653  159.4127 O   0  0  0  0  0  0  0  0  0  0  0  0
  149.0750  137.7546  159.1260 N   0  0  0  0  0  0  0  0  0  0  0  0
  149.9461  137.6661  157.9593 C   0  0  0  0  0  0  0  0  0  0  0  0
  151.2732  138.4132  158.1908 C   0  0  0  0  0  0  0  0  0  0  0  0
  151.1380  139.8441  158.4600 N   0  0  0  0  0  0  0  0  0  0  0  0
  150.7776  140.5692  157.2464 C   0  0  0  0  0  0  0  0  0  0  0  0
  150.6245  142.0856  157.4782 C   0  0  1  0  0  0  0  0  0  0  0  0
  149.3422  142.4597  158.2410 C   0  0  0  0  0  0  0  0  0  0  0  0
  151.7924  142.6075  158.1142 O   0  0  0  0  0  0  0  0  0  0  0  0
  152.1882  141.9315  159.3065 C   0  0  2  0  0  0  0  0  0  0  0  0
  153.4898  142.5682  159.8047 C   0  0  0  0  0  0  0  0  0  0  0  0
  152.3534  140.4282  159.0178 C   0  0  0  0  0  0  0  0  0  0  0  0
  146.7489  134.9920  160.9257 N   0  0  0  0  0  0  0  0  0  0  0  0
  145.6077  134.4770  161.5524 O   0  0  0  0  0  0  0  0  0  0  0  0
  142.9442  134.9203  162.2958 H   0  0  0  0  0  0  0  0  0  0  0  0
  143.4533  135.9410  163.6427 H   0  0  0  0  0  0  0  0  0  0  0  0
  143.9152  134.2390  163.6032 H   0  0  0  0  0  0  0  0  0  0  0  0
  145.4761  137.6091  162.5297 H   0  0  0  0  0  0  0  0  0  0  0  0
  148.8575  138.6806  159.4639 H   0  0  0  0  0  0  0  0  0  0  0  0
  150.1328  136.6200  157.7105 H   0  0  0  0  0  0  0  0  0  0  0  0
  149.4009  138.0946  157.1193 H   0  0  0  0  0  0  0  0  0  0  0  0
  151.8246  137.9355  159.0019 H   0  0  0  0  0  0  0  0  0  0  0  0
  151.8875  138.2863  157.2984 H   0  0  0  0  0  0  0  0  0  0  0  0
  151.5453  140.4065  156.4883 H   0  0  0  0  0  0  0  0  0  0  0  0
  149.8507  140.1692  156.8332 H   0  0  0  0  0  0  0  0  0  0  0  0
  150.5654  142.5687  156.5025 H   0  0  0  0  0  0  0  0  0  0  0  0
  148.4569  142.1495  157.6856 H   0  0  0  0  0  0  0  0  0  0  0  0
  149.2782  143.5377  158.3891 H   0  0  0  0  0  0  0  0  0  0  0  0
  149.2942  141.9839  159.2203 H   0  0  0  0  0  0  0  0  0  0  0  0
  151.4242  142.0720  160.0716 H   0  0  0  0  0  0  0  0  0  0  0  0
  153.8311  142.0944  160.7255 H   0  0  0  0  0  0  0  0  0  0  0  0
  153.3499  143.6299  160.0096 H   0  0  0  0  0  0  0  0  0  0  0  0
  154.2845  142.4737  159.0640 H   0  0  0  0  0  0  0  0  0  0  0  0
  152.6215  139.9261  159.9465 H   0  0  0  0  0  0  0  0  0  0  0  0
  153.1856  140.2764  158.3285 H   0  0  0  0  0  0  0  0  0  0  0  0
  1  2  1  0  0  0  0
  1 21  1  0  0  0  0
  1 22  1  0  0  0  0
  1 23  1  0  0  0  0
  2 20  1  0  0  0  0
  2  3  2  0  0  0  0
  3  4  1  0  0  0  0
  3 24  1  0  0  0  0
  4  5  1  0  0  0  0
  4 19  2  0  0  0  0
  5  6  1  0  0  0  0
  6  7  2  0  0  0  0
  6  8  1  0  0  0  0
  8  9  1  0  0  0  0
  8 25  1  0  0  0  0
  9 10  1  0  0  0  0
  9 26  1  0  0  0  0
  9 27  1  0  0  0  0
 10 11  1  0  0  0  0
 10 28  1  0  0  0  0
 10 29  1  0  0  0  0
 11 18  1  0  0  0  0
 11 12  1  0  0  0  0
 12 13  1  0  0  0  0
 12 30  1  0  0  0  0
 12 31  1  0  0  0  0
 13 14  1  0  0  0  0
 13 15  1  0  0  0  0
 13 32  1  0  0  0  0
 14 33  1  0  0  0  0
 14 34  1  0  0  0  0
 14 35  1  0  0  0  0
 15 16  1  0  0  0  0
 16 17  1  0  0  0  0
 16 18  1  0  0  0  0
 16 36  1  0  0  0  0
 17 37  1  0  0  0  0
 17 38  1  0  0  0  0
 17 39  1  0  0  0  0
 18 40  1  0  0  0  0
 18 41  1  0  0  0  0
 19 20  1  0  0  0  0
M  CHG  1   5  -1
M  END
> <s_m_source_file>
AV-unprocessed.smi

> <i_m_source_file_index>
1381

> <i_lp_mmshare_version>
43012

> <i_f3d_flags>
0

> <s_epik_input>
W0NIM11jMVtjSF1jKG5vMSlbTkhdQyg9TylbTkhdW0NIMl1bQ0gyXU4yW0NIMl1bQ0BASF0oW0NIM10pT1tDQEBIXShbQ0gzXSlbQ0gyXTI=

> <s_epik_cmdline>
J2VwaWtfcHl0aG9uJywgJy1waCcsICc3LjAnLCAnLXRuJywgJzgnLCAnLW1hJywgJzIwMCcsICctbWV0YWxfYmluZGluZycsICctaW1hZScsICc8aW5maWxlLm1hZT4nLCAnLW9tYWUnLCAnPG91dGZpbGUubWFlPic=

> <r_epik_Ionization_Penalty>
6.88366

> <r_epik_Ionization_Penalty_Charging>
6.57198

> <r_epik_Ionization_Penalty_Neutral>
0.311678

> <r_epik_State_Penalty>
6.77619

> <r_epik_Charging_Adjusted_Penalty>
13.3482

> <i_epik_Tot_Q>
-1

> <i_epik_Tot_abs_Q>
1

> <r_epik_Metal_State_Penalty>
2.70524

> <b_epik_Metal_Only>
1

> <s_lp_Force_Field>
OPLS_2005

> <r_lp_Energy>
15.952

> <b_lp_Chiralities_Consistent>
1

> <s_lp_Variant>
AV-unprocessed.smi:1381-10

> <Gold.Version>
5.8.1

> <Gold.Id.Protein>
6NUR|6NUR_protein|mol2

> <Gold.PLP.Fitness>
42.8303

> <Gold.PLP.PLP>
-29.8179

> <Gold.PLP.part.hbond>
-3.0000

> <Gold.PLP.part.metal>
0.0000

> <Gold.PLP.part.buried>
-6.3965

> <Gold.PLP.part.nonpolar>
-21.6237

> <Gold.PLP.part.repulsive>
0.4214

> <Gold.PLP.ligand.clash>
0.0000

> <Gold.PLP.ligand.torsion>
0.3143

> <Gold.PLP.Chemscore.Hbond>
4.5374

> <Gold.PLP.Chemscore.CHOScore>
0.0000

> <Gold.PLP.Chemscore.Metal>
0.0000

> <Gold.Chemscore.Hbonds>
donor molecule, donor type, donor heavy atom, donor atom, acceptor molecule, acceptor atom, score
      P1  H  6896  6907       L1     7  0.73
      P1  H  6931  6943       L1     5  1.82
      P1  H  6934  6947       L1     5  1.79

> <Gold.PLP.Chemscore.Internal.Correction>
0.0286

> <Gold.Rescore>
     Score         DG    S(hbond)    S(metal)    S(lipo)     H(rot)  DE(clash)    DE(int)     intcor
     14.55     -16.45       1.97        0.00      71.27       1.54       0.00       1.89       ----

> <Gold.Chemscore.Fitness>
14.5539

> <Gold.Chemscore.DG>
-16.4471

> <Gold.Chemscore.ZeroCoef>
-5.4800

> <Gold.Chemscore.Hbond>
1.9679

> <Gold.Chemscore.Metal>
0.0000

> <Gold.Chemscore.Lipo>
71.2719

> <Gold.Chemscore.Internal_Hbond>
0.0000

> <Gold.Chemscore.DEClash>
0.0000

> <Gold.Chemscore.DEInternal>
1.8933

> <Gold.Chemscore.Rot>
1.5409

> <Gold.Chemscore.Internal.Correction>
   9.000000E+99

> <Gold.Chemscore.Hbonds>
donor molecule, donor type, donor heavy atom, donor atom, acceptor molecule, acceptor atom, score
      P1  H  6896  6907       L1     7  0.72
      P1  H  6931  6943       L1     5  0.29
      P1  H  6934  6947       L1     5  0.60

> <Gold.Chemscore.Hbond.Weighted>
-6.5729

> <Gold.Chemscore.Metal.Weighted>
-0.0000

> <Gold.Chemscore.Lipo.Weighted>
-8.3388

> <Gold.Chemscore.Internal_Hbond.Weighted>
0.0000

> <Gold.Chemscore.DEClash.Weighted>
0.0000

> <Gold.Chemscore.DEInternal.Weighted>
1.8933

> <Gold.Chemscore.Rot.Weighted>
3.9446

> <Gold.Chemscore.Internal.Correction.Weighted>
   9.000000E+99

> <Gold.Protein.RotatedTorsions>
[ 6907 6896 6895 6894 ] final  -68.46 input  -60.11 | X-H torsion
[ 7974 7965 7964 7962 ] final   50.98 input  175.53 | X-H torsion
[ 8008 7997 7996 7995 ] final   21.80 input   59.86 | X-H torsion
[ 10167 10162 10161 10158 ] final   75.26 input  -65.29 | X-H torsion
[ 10718 10713 10712 10709 ] final  -40.91 input   66.30 | X-H torsion
[ 10763 10752 10751 10750 ] final  152.20 input  -60.55 | X-H torsion
[ 11005 11000 10999 10996 ] final   29.36 input  -57.11 | X-H torsion

> <Gold.Protein.ActiveResidues>
 VAL166  LYS551  ARG553  GLY616  TRP617  ASP618  TYR619  PRO620  LYS621  CYS622 
 ASP623  PHE694  ASN695  SER759  ASP760  ASP761  ALA762  ILE779  LEU786  VAL792 
 PHE793  MET794  SER795  GLU796  ALA797  LYS798  CYS799  TRP800  GLU811  SER814 

> <Gold.Protein.RotatedAtoms>
  150.7355  134.5737  159.5902 H   0  0  0  0  0  0  0  0  0  0  0  0  # atno 6907 bound_to 6896
  152.3169  134.7426  160.0332 H   0  0  0  0  0  0  0  0  0  0  0  0  # atno 6908 bound_to 6896
  151.7955  133.3328  159.3548 H   0  0  0  0  0  0  0  0  0  0  0  0  # atno 6909 bound_to 6896
  145.9958  139.4387  143.0045 H   0  0  0  0  0  0  0  0  0  0  0  0  # atno 7974 bound_to 7965
  154.9561  140.3072  155.5052 H   0  0  0  0  0  0  0  0  0  0  0  0  # atno 8008 bound_to 7997
  156.2982  140.2310  156.4581 H   0  0  0  0  0  0  0  0  0  0  0  0  # atno 8009 bound_to 7997
  154.8009  140.0434  157.1260 H   0  0  0  0  0  0  0  0  0  0  0  0  # atno 8010 bound_to 7997
  140.0049  144.5658  150.7706 H   0  0  0  0  0  0  0  0  0  0  0  0  # atno 10167 bound_to 10162
  156.2761  130.4212  149.8386 H   0  0  0  0  0  0  0  0  0  0  0  0  # atno 10718 bound_to 10713
  154.1161  135.2836  155.3219 H   0  0  0  0  0  0  0  0  0  0  0  0  # atno 10763 bound_to 10752
  154.6456  135.5387  153.7843 H   0  0  0  0  0  0  0  0  0  0  0  0  # atno 10764 bound_to 10752
  153.0329  135.6497  154.1317 H   0  0  0  0  0  0  0  0  0  0  0  0  # atno 10765 bound_to 10752
  140.3057  134.2706  155.7744 H   0  0  0  0  0  0  0  0  0  0  0  0  # atno 11005 bound_to 11000
  145.7561  140.9953  143.1224 LP  0  0  0  0  0  0  0  0  0  0  0  0  # atno 17320 bound_to 7965
  144.6903  139.9274  143.7470 LP  0  0  0  0  0  0  0  0  0  0  0  0  # atno 17321 bound_to 7965
  140.7404  143.2804  151.3614 LP  0  0  0  0  0  0  0  0  0  0  0  0  # atno 17342 bound_to 10162
  139.6246  144.0840  152.2422 LP  0  0  0  0  0  0  0  0  0  0  0  0  # atno 17343 bound_to 10162
  156.5850  130.8482  151.3393 LP  0  0  0  0  0  0  0  0  0  0  0  0  # atno 17370 bound_to 10713
  157.7300  130.9679  150.1811 LP  0  0  0  0  0  0  0  0  0  0  0  0  # atno 17371 bound_to 10713
  141.2119  133.7675  156.9833 LP  0  0  0  0  0  0  0  0  0  0  0  0  # atno 17394 bound_to 11000
  140.1069  134.9501  157.2007 LP  0  0  0  0  0  0  0  0  0  0  0  0  # atno 17395 bound_to 11000

$$$$
