AV-unprocessed.smi:682|AV-procd|sdf|3329|dock7
  -GOLD-   22720 0293D 1   1.00000     0.00000
 Structure written by MMmdl.
 41 42  0  0  0  0  0  0  0  0  1 V2000
  151.1217  139.8967  156.7540 C   0  0  0  0  0  0  0  0  0  0  0  0
  150.1549  138.8618  156.8779 O   0  0  0  0  0  0  0  0  0  0  0  0
  148.8379  139.1663  156.4156 C   0  0  2  0  0  0  0  0  0  0  0  0
  148.2233  140.2817  157.2754 C   0  0  0  0  0  0  0  0  0  0  0  0
  147.9987  137.8983  156.1748 C   0  0  0  0  0  0  0  0  0  0  0  0
  147.5349  138.5580  154.8782 C   0  0  2  0  0  0  0  0  0  0  0  0
  147.3689  137.6007  153.7898 N   0  0  0  0  0  0  0  0  0  0  0  0
  146.2651  136.8686  153.5886 C   0  0  0  0  0  0  0  0  0  0  0  0
  145.2716  136.9240  154.3132 O   0  0  0  0  0  0  0  0  0  0  0  0
  146.3902  136.0846  152.5058 N   0  0  0  0  0  0  0  0  0  0  0  0
  145.4265  135.1879  151.9811 C   0  0  0  0  0  0  0  0  0  0  0  0
  144.1891  134.7633  152.5430 C   0  0  0  0  0  0  0  0  0  0  0  0
  143.5690  133.9132  151.7381 N   0  0  0  0  0  0  0  0  0  0  0  0
  144.3868  133.7828  150.6655 N   0  0  0  0  0  0  0  0  0  0  0  0
  143.9959  132.9101  149.5790 C   0  0  0  0  0  0  0  0  0  0  0  0
  145.5293  134.5488  150.7821 C   0  0  0  0  0  0  0  0  0  0  0  0
  148.8730  139.3414  154.8624 C   0  0  0  0  0  0  0  0  0  0  0  0
  148.8021  140.7753  154.3276 C   0  0  0  0  0  0  0  0  0  0  0  0
  150.0576  138.6782  154.1306 C   0  0  0  0  0  0  0  0  0  0  0  0
  152.0482  139.5776  157.2313 H   0  0  0  0  0  0  0  0  0  0  0  0
  150.8003  140.8167  157.2422 H   0  0  0  0  0  0  0  0  0  0  0  0
  151.3532  140.1141  155.7117 H   0  0  0  0  0  0  0  0  0  0  0  0
  147.2802  140.6392  156.8630 H   0  0  0  0  0  0  0  0  0  0  0  0
  148.8925  141.1392  157.3497 H   0  0  0  0  0  0  0  0  0  0  0  0
  148.0050  139.9417  158.2872 H   0  0  0  0  0  0  0  0  0  0  0  0
  148.5976  136.9987  156.0201 H   0  0  0  0  0  0  0  0  0  0  0  0
  147.2059  137.7290  156.9040 H   0  0  0  0  0  0  0  0  0  0  0  0
  146.6650  139.1993  155.0388 H   0  0  0  0  0  0  0  0  0  0  0  0
  148.1411  137.4955  153.1484 H   0  0  0  0  0  0  0  0  0  0  0  0
  147.2642  136.1370  152.0034 H   0  0  0  0  0  0  0  0  0  0  0  0
  143.7235  135.0302  153.4799 H   0  0  0  0  0  0  0  0  0  0  0  0
  144.7938  132.8541  148.8379 H   0  0  0  0  0  0  0  0  0  0  0  0
  143.0951  133.2974  149.1020 H   0  0  0  0  0  0  0  0  0  0  0  0
  143.7974  131.9082  149.9613 H   0  0  0  0  0  0  0  0  0  0  0  0
  146.2950  134.5712  150.0206 H   0  0  0  0  0  0  0  0  0  0  0  0
  148.7564  140.7953  153.2383 H   0  0  0  0  0  0  0  0  0  0  0  0
  149.6726  141.3571  154.6318 H   0  0  0  0  0  0  0  0  0  0  0  0
  147.9176  141.3021  154.6848 H   0  0  0  0  0  0  0  0  0  0  0  0
  149.9145  138.6782  153.0495 H   0  0  0  0  0  0  0  0  0  0  0  0
  150.2029  137.6408  154.4323 H   0  0  0  0  0  0  0  0  0  0  0  0
  150.9928  139.2020  154.3311 H   0  0  0  0  0  0  0  0  0  0  0  0
  1  2  1  0  0  0  0
  1 20  1  0  0  0  0
  1 21  1  0  0  0  0
  1 22  1  0  0  0  0
  2  3  1  0  0  0  0
  3 17  1  0  0  0  0
  3  4  1  0  0  0  0
  3  5  1  0  0  0  0
  4 23  1  0  0  0  0
  4 24  1  0  0  0  0
  4 25  1  0  0  0  0
  5  6  1  0  0  0  0
  5 26  1  0  0  0  0
  5 27  1  0  0  0  0
  6  7  1  0  0  0  0
  6 17  1  0  0  0  0
  6 28  1  0  0  0  0
  7  8  1  0  0  0  0
  7 29  1  0  0  0  0
  8  9  2  0  0  0  0
  8 10  1  0  0  0  0
 10 11  1  0  0  0  0
 10 30  1  0  0  0  0
 11 16  2  0  0  0  0
 11 12  1  0  0  0  0
 12 13  2  0  0  0  0
 12 31  1  0  0  0  0
 13 14  1  0  0  0  0
 14 15  1  0  0  0  0
 14 16  1  0  0  0  0
 15 32  1  0  0  0  0
 15 33  1  0  0  0  0
 15 34  1  0  0  0  0
 16 35  1  0  0  0  0
 17 18  1  0  0  0  0
 17 19  1  0  0  0  0
 18 36  1  0  0  0  0
 18 37  1  0  0  0  0
 18 38  1  0  0  0  0
 19 39  1  0  0  0  0
 19 40  1  0  0  0  0
 19 41  1  0  0  0  0
M  END
> <s_m_source_file>
AV-unprocessed.smi

> <i_m_source_file_index>
682

> <i_lp_mmshare_version>
43012

> <i_f3d_flags>
0

> <s_epik_input>
W0NIM11PW0NAQF0xKFtDSDNdKVtDSDJdW0NASF0oQzEoW0NIM10pW0NIM10pW05IXUMoPU8pW05IXWMyW2NIXW5uKFtDSDNdKVtjSF0y

> <s_epik_cmdline>
J2VwaWtfcHl0aG9uJywgJy1waCcsICc3LjAnLCAnLXRuJywgJzgnLCAnLW1hJywgJzIwMCcsICctbWV0YWxfYmluZGluZycsICctaW1hZScsICc8aW5maWxlLm1hZT4nLCAnLW9tYWUnLCAnPG91dGZpbGUubWFlPic=

> <r_lp_tautomer_probability>
1

> <r_epik_Ionization_Penalty>
0.000192302

> <r_epik_Ionization_Penalty_Charging>
0

> <r_epik_Ionization_Penalty_Neutral>
0.000192302

> <r_epik_State_Penalty>
-0

> <r_epik_Charging_Adjusted_Penalty>
0

> <i_epik_Tot_Q>
0

> <i_epik_Tot_abs_Q>
0

> <r_epik_Metal_State_Penalty>
-0

> <b_epik_Metal_Only>
0

> <s_lp_Force_Field>
OPLS_2005

> <r_lp_Energy>
23.9348

> <b_lp_Chiralities_Consistent>
1

> <s_lp_Variant>
AV-unprocessed.smi:682-4

> <Gold.Version>
5.8.1

> <Gold.Id.Protein>
6NUR|6NUR_protein|mol2

> <Gold.PLP.Fitness>
32.1734

> <Gold.PLP.PLP>
-23.7988

> <Gold.PLP.part.hbond>
-2.0000

> <Gold.PLP.part.metal>
0.0000

> <Gold.PLP.part.buried>
-3.9811

> <Gold.PLP.part.nonpolar>
-18.4178

> <Gold.PLP.part.repulsive>
0.2415

> <Gold.PLP.ligand.clash>
0.0000

> <Gold.PLP.ligand.torsion>
0.2910

> <Gold.PLP.Chemscore.Hbond>
1.8640

> <Gold.PLP.Chemscore.CHOScore>
0.9978

> <Gold.PLP.Chemscore.Metal>
0.0000

> <Gold.Chemscore.Hbonds>
donor molecule, donor type, donor heavy atom, donor atom, acceptor molecule, acceptor atom, score
      L1  H     7    29       P1  7948  0.86
      L1  H    10    30       P1  7948  1.00
      L1  C    16    35       P1  7921  1.00

> <Gold.PLP.Chemscore.Internal.Correction>
0.3713

> <Gold.Rescore>
     Score         DG    S(hbond)    S(metal)    S(lipo)     H(rot)  DE(clash)    DE(int)     intcor
     14.01     -15.41       1.92        0.00      56.96       1.23       0.01       1.38       ----

> <Gold.Chemscore.Fitness>
14.0127

> <Gold.Chemscore.DG>
-15.4061

> <Gold.Chemscore.ZeroCoef>
-5.4800

> <Gold.Chemscore.Hbond>
1.9222

> <Gold.Chemscore.Metal>
0.0000

> <Gold.Chemscore.Lipo>
56.9590

> <Gold.Chemscore.Internal_Hbond>
0.0000

> <Gold.Chemscore.DEClash>
0.0097

> <Gold.Chemscore.DEInternal>
1.3837

> <Gold.Chemscore.Rot>
1.2336

> <Gold.Chemscore.Internal.Correction>
   9.000000E+99

> <Gold.Chemscore.Hbonds>
donor molecule, donor type, donor heavy atom, donor atom, acceptor molecule, acceptor atom, score
      L1  H     7    29       P1  7948  0.83
      L1  H    10    30       P1  7948  0.99

> <Gold.Chemscore.Hbond.Weighted>
-6.4200

> <Gold.Chemscore.Metal.Weighted>
-0.0000

> <Gold.Chemscore.Lipo.Weighted>
-6.6642

> <Gold.Chemscore.Internal_Hbond.Weighted>
0.0000

> <Gold.Chemscore.DEClash.Weighted>
0.0097

> <Gold.Chemscore.DEInternal.Weighted>
1.3837

> <Gold.Chemscore.Rot.Weighted>
3.1581

> <Gold.Chemscore.Internal.Correction.Weighted>
   9.000000E+99

> <Gold.Protein.RotatedTorsions>
[ 6907 6896 6895 6894 ] final -178.43 input  -60.11 | X-H torsion
[ 7974 7965 7964 7962 ] final  148.48 input  175.53 | X-H torsion
[ 8008 7997 7996 7995 ] final  -88.19 input   59.86 | X-H torsion
[ 10167 10162 10161 10158 ] final   71.11 input  -65.29 | X-H torsion
[ 10718 10713 10712 10709 ] final   48.94 input   66.30 | X-H torsion
[ 10763 10752 10751 10750 ] final  -71.87 input  -60.55 | X-H torsion
[ 11005 11000 10999 10996 ] final -114.46 input  -57.11 | X-H torsion

> <Gold.Protein.ActiveResidues>
 VAL166  LYS551  ARG553  GLY616  TRP617  ASP618  TYR619  PRO620  LYS621  CYS622 
 ASP623  PHE694  ASN695  SER759  ASP760  ASP761  ALA762  ILE779  LEU786  VAL792 
 PHE793  MET794  SER795  GLU796  ALA797  LYS798  CYS799  TRP800  GLU811  SER814 

> <Gold.Protein.RotatedAtoms>
  151.6372  133.3328  159.3121 H   0  0  0  0  0  0  0  0  0  0  0  0  # atno 6907 bound_to 6896
  150.8026  134.7134  159.6626 H   0  0  0  0  0  0  0  0  0  0  0  0  # atno 6908 bound_to 6896
  152.4120  134.6112  160.0077 H   0  0  0  0  0  0  0  0  0  0  0  0  # atno 6909 bound_to 6896
  144.8511  139.6159  143.5973 H   0  0  0  0  0  0  0  0  0  0  0  0  # atno 7974 bound_to 7965
  154.6720  140.0556  157.0175 H   0  0  0  0  0  0  0  0  0  0  0  0  # atno 8008 bound_to 7997
  155.1075  140.3235  155.4512 H   0  0  0  0  0  0  0  0  0  0  0  0  # atno 8009 bound_to 7997
  156.2661  140.2020  156.6200 H   0  0  0  0  0  0  0  0  0  0  0  0  # atno 8010 bound_to 7997
  140.0496  144.5322  150.7373 H   0  0  0  0  0  0  0  0  0  0  0  0  # atno 10167 bound_to 10162
  157.4737  130.8271  149.8015 H   0  0  0  0  0  0  0  0  0  0  0  0  # atno 10718 bound_to 10713
  154.4379  135.5948  153.6110 H   0  0  0  0  0  0  0  0  0  0  0  0  # atno 10763 bound_to 10752
  152.9803  135.5991  154.3759 H   0  0  0  0  0  0  0  0  0  0  0  0  # atno 10764 bound_to 10752
  154.3605  135.2841  155.2301 H   0  0  0  0  0  0  0  0  0  0  0  0  # atno 10765 bound_to 10752
  141.0550  133.9627  157.2770 H   0  0  0  0  0  0  0  0  0  0  0  0  # atno 11005 bound_to 11000
  146.2785  139.6816  142.9246 LP  0  0  0  0  0  0  0  0  0  0  0  0  # atno 17320 bound_to 7965
  145.4498  141.0427  143.2811 LP  0  0  0  0  0  0  0  0  0  0  0  0  # atno 17321 bound_to 7965
  140.7223  143.2600  151.4239 LP  0  0  0  0  0  0  0  0  0  0  0  0  # atno 17342 bound_to 10162
  139.5961  144.1394  152.2145 LP  0  0  0  0  0  0  0  0  0  0  0  0  # atno 17343 bound_to 10162
  156.0086  130.3844  150.2344 LP  0  0  0  0  0  0  0  0  0  0  0  0  # atno 17370 bound_to 10713
  157.0527  131.0067  151.3248 LP  0  0  0  0  0  0  0  0  0  0  0  0  # atno 17371 bound_to 10713
  139.9382  135.0194  156.8625 LP  0  0  0  0  0  0  0  0  0  0  0  0  # atno 17394 bound_to 11000
  140.5981  134.0198  155.7526 LP  0  0  0  0  0  0  0  0  0  0  0  0  # atno 17395 bound_to 11000

$$$$
