AV-unprocessed.smi:1623|AV-procd|sdf|6502|dock9
  -GOLD-   22720 7173D 1   1.00000     0.00000
 Structure written by MMmdl.
 42 43  0  0  0  0  0  0  0  0  1 V2000
  151.3712  137.7702  154.1437 C   0  0  0  0  0  0  0  0  0  0  0  0
  150.5668  137.6477  155.4097 C   0  0  0  0  0  0  0  0  0  0  0  0
  150.0958  138.7442  155.9068 N   0  0  0  0  0  0  0  0  0  0  0  0
  149.3440  138.7433  157.0642 N   0  0  0  0  0  0  0  0  0  0  0  0
  148.9093  140.0770  157.4929 C   0  0  0  0  0  0  0  0  0  0  0  0
  149.2422  141.1566  156.4384 C   0  0  1  0  0  0  0  0  0  0  0  0
  148.2781  142.1866  156.5221 O   0  0  0  0  0  0  0  0  0  0  0  0
  150.6167  141.7942  156.6835 C   0  0  0  0  0  0  0  0  0  0  0  0
  150.6180  142.3685  157.9822 O   0  0  0  0  0  0  0  0  0  0  0  0
  151.7432  143.1913  158.2518 C   0  0  0  0  0  0  0  0  0  0  0  0
  152.2071  143.1106  159.6990 C   0  0  0  0  0  0  0  0  0  0  0  0
  152.8449  141.9373  160.1564 C   0  0  0  0  0  0  0  0  0  0  0  0
  153.2838  141.8389  161.4905 C   0  0  0  0  0  0  0  0  0  0  0  0
  153.0841  142.9128  162.3776 C   0  0  0  0  0  0  0  0  0  0  0  0
  152.4439  144.0837  161.9298 C   0  0  0  0  0  0  0  0  0  0  0  0
  152.0032  144.1877  160.5951 C   0  0  0  0  0  0  0  0  0  0  0  0
  151.2186  145.6423  160.0872 Cl  0  0  0  0  0  0  0  0  0  0  0  0
  149.0248  137.6299  157.7842 C   0  0  0  0  0  0  0  0  0  0  0  0
  148.3542  137.6774  158.8167 O   0  0  0  0  0  0  0  0  0  0  0  0
  149.5612  136.3912  157.2160 C   0  0  0  0  0  0  0  0  0  0  0  0
  149.2528  135.2007  157.9405 C   0  0  0  0  0  0  0  0  0  0  0  0
  149.0216  134.2366  158.5381 N   0  0  0  0  0  0  0  0  0  0  0  0
  150.3040  136.3783  156.0806 C   0  0  0  0  0  0  0  0  0  0  0  0
  150.8870  135.1201  155.4518 C   0  0  0  0  0  0  0  0  0  0  0  0
  152.3855  137.3987  154.2916 H   0  0  0  0  0  0  0  0  0  0  0  0
  151.4463  138.8058  153.8081 H   0  0  0  0  0  0  0  0  0  0  0  0
  150.9137  137.1961  153.3375 H   0  0  0  0  0  0  0  0  0  0  0  0
  147.8441  140.0862  157.7332 H   0  0  0  0  0  0  0  0  0  0  0  0
  149.4012  140.3130  158.4382 H   0  0  0  0  0  0  0  0  0  0  0  0
  149.2210  140.7450  155.4284 H   0  0  0  0  0  0  0  0  0  0  0  0
  148.7297  143.0164  156.5498 H   0  0  0  0  0  0  0  0  0  0  0  0
  151.4033  141.0396  156.6318 H   0  0  0  0  0  0  0  0  0  0  0  0
  150.8264  142.5396  155.9147 H   0  0  0  0  0  0  0  0  0  0  0  0
  152.5639  142.8625  157.6137 H   0  0  0  0  0  0  0  0  0  0  0  0
  151.5305  144.2227  157.9667 H   0  0  0  0  0  0  0  0  0  0  0  0
  153.0039  141.1077  159.4830 H   0  0  0  0  0  0  0  0  0  0  0  0
  153.7732  140.9391  161.8328 H   0  0  0  0  0  0  0  0  0  0  0  0
  153.4204  142.8382  163.4011 H   0  0  0  0  0  0  0  0  0  0  0  0
  152.2903  144.9051  162.6142 H   0  0  0  0  0  0  0  0  0  0  0  0
  150.6435  134.2234  156.0209 H   0  0  0  0  0  0  0  0  0  0  0  0
  151.9741  135.1873  155.3979 H   0  0  0  0  0  0  0  0  0  0  0  0
  150.4995  134.9820  154.4420 H   0  0  0  0  0  0  0  0  0  0  0  0
  1  2  1  0  0  0  0
  1 25  1  0  0  0  0
  1 26  1  0  0  0  0
  1 27  1  0  0  0  0
  2 23  1  0  0  0  0
  2  3  2  0  0  0  0
  3  4  1  0  0  0  0
  4  5  1  0  0  0  0
  4 18  1  0  0  0  0
  5  6  1  0  0  0  0
  5 28  1  0  0  0  0
  5 29  1  0  0  0  0
  6  7  1  0  0  0  0
  6  8  1  0  0  0  0
  6 30  1  0  0  0  0
  7 31  1  0  0  0  0
  8  9  1  0  0  0  0
  8 32  1  0  0  0  0
  8 33  1  0  0  0  0
  9 10  1  0  0  0  0
 10 11  1  0  0  0  0
 10 34  1  0  0  0  0
 10 35  1  0  0  0  0
 11 16  1  0  0  0  0
 11 12  2  0  0  0  0
 12 13  1  0  0  0  0
 12 36  1  0  0  0  0
 13 14  2  0  0  0  0
 13 37  1  0  0  0  0
 14 15  1  0  0  0  0
 14 38  1  0  0  0  0
 15 16  2  0  0  0  0
 15 39  1  0  0  0  0
 16 17  1  0  0  0  0
 18 19  2  0  0  0  0
 18 20  1  0  0  0  0
 20 21  1  0  0  0  0
 20 23  2  0  0  0  0
 21 22  3  0  0  0  0
 23 24  1  0  0  0  0
 24 40  1  0  0  0  0
 24 41  1  0  0  0  0
 24 42  1  0  0  0  0
M  END
> <s_m_source_file>
AV-unprocessed.smi

> <i_m_source_file_index>
1623

> <i_lp_mmshare_version>
43012

> <i_f3d_flags>
0

> <s_epik_input>
TiNDYyhjMVtDSDNdKWMoPU8pbihuYzFbQ0gzXSlbQ0gyXVtDQEhdKFtPSF0pW0NIMl1PW0NIMl1jMltjSF1bY0hdW2NIXVtjSF1jMkNs

> <s_epik_cmdline>
J2VwaWtfcHl0aG9uJywgJy1waCcsICc3LjAnLCAnLXRuJywgJzgnLCAnLW1hJywgJzIwMCcsICctbWV0YWxfYmluZGluZycsICctaW1hZScsICc8aW5maWxlLm1hZT4nLCAnLW9tYWUnLCAnPG91dGZpbGUubWFlPic=

> <r_lp_tautomer_probability>
1

> <r_epik_Ionization_Penalty>
6.50533e-08

> <r_epik_Ionization_Penalty_Charging>
2.19172e-10

> <r_epik_Ionization_Penalty_Neutral>
6.48342e-08

> <r_epik_State_Penalty>
-0

> <r_epik_Charging_Adjusted_Penalty>
2.19172e-10

> <i_epik_Tot_Q>
0

> <i_epik_Tot_abs_Q>
0

> <r_epik_Metal_State_Penalty>
-0

> <b_epik_Metal_Only>
0

> <s_lp_Force_Field>
OPLS_2005

> <r_lp_Energy>
29.8059

> <b_lp_Chiralities_Consistent>
1

> <s_lp_Variant>
AV-unprocessed.smi:1623-2

> <Gold.Version>
5.8.1

> <Gold.Id.Protein>
6NUR|6NUR_protein|mol2

> <Gold.PLP.Fitness>
48.7573

> <Gold.PLP.PLP>
-45.0146

> <Gold.PLP.part.hbond>
-2.0873

> <Gold.PLP.part.metal>
0.0000

> <Gold.PLP.part.buried>
-4.9184

> <Gold.PLP.part.nonpolar>
-37.3901

> <Gold.PLP.part.repulsive>
0.0931

> <Gold.PLP.ligand.clash>
0.0000

> <Gold.PLP.ligand.torsion>
0.8200

> <Gold.PLP.Chemscore.Hbond>
1.7520

> <Gold.PLP.Chemscore.CHOScore>
0.0000

> <Gold.PLP.Chemscore.Metal>
0.0000

> <Gold.Chemscore.Hbonds>
donor molecule, donor type, donor heavy atom, donor atom, acceptor molecule, acceptor atom, score
      L1  H     7    31       P1  8028  0.86
      P1  H  6896  6907       L1    22  0.90

> <Gold.PLP.Chemscore.Internal.Correction>
0.1266

> <Gold.Rescore>
     Score         DG    S(hbond)    S(metal)    S(lipo)     H(rot)  DE(clash)    DE(int)     intcor
     17.02     -18.61       1.29        0.00     129.65       2.48       0.71       0.88       ----

> <Gold.Chemscore.Fitness>
17.0183

> <Gold.Chemscore.DG>
-18.6068

> <Gold.Chemscore.ZeroCoef>
-5.4800

> <Gold.Chemscore.Hbond>
1.2875

> <Gold.Chemscore.Metal>
0.0000

> <Gold.Chemscore.Lipo>
129.6532

> <Gold.Chemscore.Internal_Hbond>
0.0000

> <Gold.Chemscore.DEClash>
0.7103

> <Gold.Chemscore.DEInternal>
0.8782

> <Gold.Chemscore.Rot>
2.4777

> <Gold.Chemscore.Internal.Correction>
   9.000000E+99

> <Gold.Chemscore.Hbonds>
donor molecule, donor type, donor heavy atom, donor atom, acceptor molecule, acceptor atom, score
      L1  H     7    31       P1  8028  0.78
      P1  H  6896  6907       L1    22  0.26

> <Gold.Chemscore.Hbond.Weighted>
-4.3003

> <Gold.Chemscore.Metal.Weighted>
-0.0000

> <Gold.Chemscore.Lipo.Weighted>
-15.1694

> <Gold.Chemscore.Internal_Hbond.Weighted>
0.0000

> <Gold.Chemscore.DEClash.Weighted>
0.7103

> <Gold.Chemscore.DEInternal.Weighted>
0.8782

> <Gold.Chemscore.Rot.Weighted>
6.3428

> <Gold.Chemscore.Internal.Correction.Weighted>
   9.000000E+99

> <Gold.Protein.RotatedTorsions>
[ 6907 6896 6895 6894 ] final -119.81 input  -60.11 | X-H torsion
[ 7974 7965 7964 7962 ] final  -18.61 input  175.53 | X-H torsion
[ 8008 7997 7996 7995 ] final -148.56 input   59.86 | X-H torsion
[ 10167 10162 10161 10158 ] final  -21.04 input  -65.29 | X-H torsion
[ 10718 10713 10712 10709 ] final  -99.06 input   66.30 | X-H torsion
[ 10763 10752 10751 10750 ] final   43.39 input  -60.55 | X-H torsion
[ 11005 11000 10999 10996 ] final  -65.99 input  -57.11 | X-H torsion

> <Gold.Protein.ActiveResidues>
 VAL166  LYS551  ARG553  GLY616  TRP617  ASP618  TYR619  PRO620  LYS621  CYS622 
 ASP623  PHE694  ASN695  SER759  ASP760  ASP761  ALA762  ILE779  LEU786  VAL792 
 PHE793  MET794  SER795  GLU796  ALA797  LYS798  CYS799  TRP800  GLU811  SER814 

> <Gold.Protein.RotatedAtoms>
  150.8338  133.8048  159.3087 H   0  0  0  0  0  0  0  0  0  0  0  0  # atno 6907 bound_to 6896
  151.5770  135.1058  160.0018 H   0  0  0  0  0  0  0  0  0  0  0  0  # atno 6908 bound_to 6896
  152.4413  133.7412  159.6698 H   0  0  0  0  0  0  0  0  0  0  0  0  # atno 6909 bound_to 6896
  146.1883  140.3946  142.8468 H   0  0  0  0  0  0  0  0  0  0  0  0  # atno 7974 bound_to 7965
  155.5936  140.0655  157.2752 H   0  0  0  0  0  0  0  0  0  0  0  0  # atno 8008 bound_to 7997
  154.4298  140.1831  156.1147 H   0  0  0  0  0  0  0  0  0  0  0  0  # atno 8009 bound_to 7997
  156.0214  140.3316  155.7046 H   0  0  0  0  0  0  0  0  0  0  0  0  # atno 8010 bound_to 7997
  140.7280  143.4665  151.0306 H   0  0  0  0  0  0  0  0  0  0  0  0  # atno 10167 bound_to 10162
  156.0124  130.5266  150.6615 H   0  0  0  0  0  0  0  0  0  0  0  0  # atno 10718 bound_to 10713
  152.9862  135.6103  154.3104 H   0  0  0  0  0  0  0  0  0  0  0  0  # atno 10763 bound_to 10752
  154.2819  135.2777  155.2695 H   0  0  0  0  0  0  0  0  0  0  0  0  # atno 10764 bound_to 10752
  154.5030  135.5862  153.6602 H   0  0  0  0  0  0  0  0  0  0  0  0  # atno 10765 bound_to 10752
  141.1470  133.6691  156.6070 H   0  0  0  0  0  0  0  0  0  0  0  0  # atno 11005 bound_to 11000
  144.8439  140.6899  143.6212 LP  0  0  0  0  0  0  0  0  0  0  0  0  # atno 17320 bound_to 7965
  145.3870  139.1624  143.4249 LP  0  0  0  0  0  0  0  0  0  0  0  0  # atno 17321 bound_to 7965
  139.8354  143.7635  152.3180 LP  0  0  0  0  0  0  0  0  0  0  0  0  # atno 17342 bound_to 10162
  139.7765  144.7459  151.0149 LP  0  0  0  0  0  0  0  0  0  0  0  0  # atno 17343 bound_to 10162
  157.4356  131.0855  151.0995 LP  0  0  0  0  0  0  0  0  0  0  0  0  # atno 17370 bound_to 10713
  157.1554  130.6202  149.5595 LP  0  0  0  0  0  0  0  0  0  0  0  0  # atno 17371 bound_to 10713
  140.3644  134.7660  157.4556 LP  0  0  0  0  0  0  0  0  0  0  0  0  # atno 17394 bound_to 11000
  140.0760  134.5797  155.8591 LP  0  0  0  0  0  0  0  0  0  0  0  0  # atno 17395 bound_to 11000

$$$$
