AV-unprocessed.smi:1347|AV-procd|sdf|5516|dock1
  -GOLD-   22720 5103D 1   1.00000     0.00000
 Structure written by MMmdl.
 38 39  0  0  0  0  0  0  0  0  1 V2000
  153.2795  136.7929  164.1327 C   0  0  0  0  0  0  0  0  0  0  0  0
  153.4707  136.5941  162.7433 O   0  0  0  0  0  0  0  0  0  0  0  0
  153.8631  137.7829  162.0767 C   0  0  0  0  0  0  0  0  0  0  0  0
  152.9698  137.9874  160.8542 C   0  0  0  0  0  0  0  0  0  0  0  0
  152.2736  137.0641  160.4323 O   0  0  0  0  0  0  0  0  0  0  0  0
  152.9899  139.2091  160.3014 N   0  0  0  0  0  0  0  0  0  0  0  0
  152.1713  139.6343  159.1710 C   0  0  0  0  0  0  0  0  0  0  0  0
  152.0953  141.1487  159.0049 C   0  0  0  0  0  0  0  0  0  0  0  0
  152.6240  141.9841  160.0118 C   0  0  0  0  0  0  0  0  0  0  0  0
  152.5541  143.3801  159.8536 C   0  0  0  0  0  0  0  0  0  0  0  0
  151.9529  143.8903  158.6884 C   0  0  0  0  0  0  0  0  0  0  0  0
  151.4405  143.1061  157.7171 N   0  0  0  0  0  0  0  0  0  0  0  0
  151.5084  141.7611  157.8668 C   0  0  0  0  0  0  0  0  0  0  0  0
  150.9693  140.9716  156.8389 N   0  0  0  0  0  0  0  0  0  0  0  0
  150.1693  141.7104  155.8720 C   0  0  0  0  0  0  0  0  0  0  0  0
  149.4900  140.7280  154.9019 C   0  0  0  0  0  0  0  0  0  0  0  0
  150.4756  139.9039  154.2843 O   0  0  0  0  0  0  0  0  0  0  0  0
  151.2085  139.1355  155.2352 C   0  0  0  0  0  0  0  0  0  0  0  0
  151.9336  140.0789  156.2093 C   0  0  0  0  0  0  0  0  0  0  0  0
  152.9751  135.8558  164.5987 H   0  0  0  0  0  0  0  0  0  0  0  0
  152.4997  137.5318  164.3217 H   0  0  0  0  0  0  0  0  0  0  0  0
  154.2006  137.1246  164.6138 H   0  0  0  0  0  0  0  0  0  0  0  0
  153.7578  138.6446  162.7376 H   0  0  0  0  0  0  0  0  0  0  0  0
  154.9102  137.7195  161.7746 H   0  0  0  0  0  0  0  0  0  0  0  0
  153.5945  139.9053  160.7124 H   0  0  0  0  0  0  0  0  0  0  0  0
  152.5963  139.2077  158.2621 H   0  0  0  0  0  0  0  0  0  0  0  0
  151.1700  139.2117  159.2663 H   0  0  0  0  0  0  0  0  0  0  0  0
  153.0824  141.5627  160.8944 H   0  0  0  0  0  0  0  0  0  0  0  0
  152.9531  144.0432  160.6066 H   0  0  0  0  0  0  0  0  0  0  0  0
  151.8808  144.9564  158.5326 H   0  0  0  0  0  0  0  0  0  0  0  0
  149.4178  142.3060  156.3915 H   0  0  0  0  0  0  0  0  0  0  0  0
  150.8056  142.4013  155.3174 H   0  0  0  0  0  0  0  0  0  0  0  0
  148.7601  140.1080  155.4249 H   0  0  0  0  0  0  0  0  0  0  0  0
  148.9487  141.2747  154.1297 H   0  0  0  0  0  0  0  0  0  0  0  0
  150.5367  138.4645  155.7730 H   0  0  0  0  0  0  0  0  0  0  0  0
  151.9300  138.5104  154.7087 H   0  0  0  0  0  0  0  0  0  0  0  0
  152.6822  140.6629  155.6721 H   0  0  0  0  0  0  0  0  0  0  0  0
  152.4581  139.5016  156.9717 H   0  0  0  0  0  0  0  0  0  0  0  0
  1  2  1  0  0  0  0
  1 20  1  0  0  0  0
  1 21  1  0  0  0  0
  1 22  1  0  0  0  0
  2  3  1  0  0  0  0
  3  4  1  0  0  0  0
  3 23  1  0  0  0  0
  3 24  1  0  0  0  0
  4  5  2  0  0  0  0
  4  6  1  0  0  0  0
  6  7  1  0  0  0  0
  6 25  1  0  0  0  0
  7  8  1  0  0  0  0
  7 26  1  0  0  0  0
  7 27  1  0  0  0  0
  8 13  1  0  0  0  0
  8  9  2  0  0  0  0
  9 10  1  0  0  0  0
  9 28  1  0  0  0  0
 10 11  2  0  0  0  0
 10 29  1  0  0  0  0
 11 12  1  0  0  0  0
 11 30  1  0  0  0  0
 12 13  2  0  0  0  0
 13 14  1  0  0  0  0
 14 19  1  0  0  0  0
 14 15  1  0  0  0  0
 15 16  1  0  0  0  0
 15 31  1  0  0  0  0
 15 32  1  0  0  0  0
 16 17  1  0  0  0  0
 16 33  1  0  0  0  0
 16 34  1  0  0  0  0
 17 18  1  0  0  0  0
 18 19  1  0  0  0  0
 18 35  1  0  0  0  0
 18 36  1  0  0  0  0
 19 37  1  0  0  0  0
 19 38  1  0  0  0  0
M  END
> <s_m_source_file>
AV-unprocessed.smi

> <i_m_source_file_index>
1347

> <i_lp_mmshare_version>
43012

> <i_f3d_flags>
0

> <s_epik_input>
W0NIM11PW0NIMl1DKD1PKVtOSF1bQ0gyXWMxW2NIXVtjSF1bY0hdbmMxTjJbQ0gyXVtDSDJdT1tDSDJdW0NIMl0y

> <s_epik_cmdline>
J2VwaWtfcHl0aG9uJywgJy1waCcsICc3LjAnLCAnLXRuJywgJzgnLCAnLW1hJywgJzIwMCcsICctbWV0YWxfYmluZGluZycsICctaW1hZScsICc8aW5maWxlLm1hZT4nLCAnLW9tYWUnLCAnPG91dGZpbGUubWFlPic=

> <r_lp_tautomer_probability>
1

> <r_epik_Ionization_Penalty>
0.00422298

> <r_epik_Ionization_Penalty_Charging>
0

> <r_epik_Ionization_Penalty_Neutral>
0.00422298

> <r_epik_State_Penalty>
0.00303469

> <r_epik_Charging_Adjusted_Penalty>
0.00303469

> <i_epik_Tot_Q>
0

> <i_epik_Tot_abs_Q>
0

> <r_epik_Metal_State_Penalty>
-0

> <b_epik_Metal_Only>
0

> <s_lp_Force_Field>
OPLS_2005

> <r_lp_Energy>
19.5871

> <b_lp_Chiralities_Consistent>
1

> <s_lp_Variant>
AV-unprocessed.smi:1347-1

> <Gold.Version>
5.8.1

> <Gold.Id.Protein>
6NUR|6NUR_protein|mol2

> <Gold.PLP.Fitness>
44.2767

> <Gold.PLP.PLP>
-39.7368

> <Gold.PLP.part.hbond>
-1.9812

> <Gold.PLP.part.metal>
0.0000

> <Gold.PLP.part.buried>
-5.8936

> <Gold.PLP.part.nonpolar>
-32.8491

> <Gold.PLP.part.repulsive>
0.3254

> <Gold.PLP.ligand.clash>
0.0000

> <Gold.PLP.ligand.torsion>
0.8473

> <Gold.PLP.Chemscore.Hbond>
1.9913

> <Gold.PLP.Chemscore.CHOScore>
0.0000

> <Gold.PLP.Chemscore.Metal>
0.0000

> <Gold.Chemscore.Hbonds>
donor molecule, donor type, donor heavy atom, donor atom, acceptor molecule, acceptor atom, score
      P1  H  6896  6909       L1     5  1.00
      P1  H  7989  7998       L1    17  1.00

> <Gold.PLP.Chemscore.Internal.Correction>
0.2608

> <Gold.Rescore>
     Score         DG    S(hbond)    S(metal)    S(lipo)     H(rot)  DE(clash)    DE(int)     intcor
     13.46     -14.78       0.98        0.00      93.85       1.94       0.33       0.99       ----

> <Gold.Chemscore.Fitness>
13.4649

> <Gold.Chemscore.DG>
-14.7827

> <Gold.Chemscore.ZeroCoef>
-5.4800

> <Gold.Chemscore.Hbond>
0.9834

> <Gold.Chemscore.Metal>
0.0000

> <Gold.Chemscore.Lipo>
93.8538

> <Gold.Chemscore.Internal_Hbond>
0.0000

> <Gold.Chemscore.DEClash>
0.3315

> <Gold.Chemscore.DEInternal>
0.9863

> <Gold.Chemscore.Rot>
1.9385

> <Gold.Chemscore.Internal.Correction>
   9.000000E+99

> <Gold.Chemscore.Hbonds>
donor molecule, donor type, donor heavy atom, donor atom, acceptor molecule, acceptor atom, score
      P1  H  6896  6909       L1     5  0.94
      P1  H  7989  7998       L1    17  0.41

> <Gold.Chemscore.Hbond.Weighted>
-3.2845

> <Gold.Chemscore.Metal.Weighted>
-0.0000

> <Gold.Chemscore.Lipo.Weighted>
-10.9809

> <Gold.Chemscore.Internal_Hbond.Weighted>
0.0000

> <Gold.Chemscore.DEClash.Weighted>
0.3315

> <Gold.Chemscore.DEInternal.Weighted>
0.9863

> <Gold.Chemscore.Rot.Weighted>
4.9627

> <Gold.Chemscore.Internal.Correction.Weighted>
   9.000000E+99

> <Gold.Protein.RotatedTorsions>
[ 6907 6896 6895 6894 ] final  135.89 input  -60.11 | X-H torsion
[ 7974 7965 7964 7962 ] final   81.15 input  175.53 | X-H torsion
[ 8008 7997 7996 7995 ] final  -25.77 input   59.86 | X-H torsion
[ 10167 10162 10161 10158 ] final  163.04 input  -65.29 | X-H torsion
[ 10718 10713 10712 10709 ] final  -88.00 input   66.30 | X-H torsion
[ 10763 10752 10751 10750 ] final  117.40 input  -60.55 | X-H torsion
[ 11005 11000 10999 10996 ] final -155.90 input  -57.11 | X-H torsion

> <Gold.Protein.ActiveResidues>
 VAL166  LYS551  ARG553  GLY616  TRP617  ASP618  TYR619  PRO620  LYS621  CYS622 
 ASP623  PHE694  ASN695  SER759  ASP760  ASP761  ALA762  ILE779  LEU786  VAL792 
 PHE793  MET794  SER795  GLU796  ALA797  LYS798  CYS799  TRP800  GLU811  SER814 

> <Gold.Protein.RotatedAtoms>
  152.2955  133.5603  159.5584 H   0  0  0  0  0  0  0  0  0  0  0  0  # atno 6907 bound_to 6896
  150.7254  134.0367  159.3761 H   0  0  0  0  0  0  0  0  0  0  0  0  # atno 6908 bound_to 6896
  151.8270  135.0634  160.0483 H   0  0  0  0  0  0  0  0  0  0  0  0  # atno 6909 bound_to 6896
  145.6420  139.2427  143.2025 H   0  0  0  0  0  0  0  0  0  0  0  0  # atno 7974 bound_to 7965
  154.4459  140.1917  156.0671 H   0  0  0  0  0  0  0  0  0  0  0  0  # atno 8008 bound_to 7997
  156.0539  140.3305  155.7356 H   0  0  0  0  0  0  0  0  0  0  0  0  # atno 8009 bound_to 7997
  155.5515  140.0595  157.2839 H   0  0  0  0  0  0  0  0  0  0  0  0  # atno 8010 bound_to 7997
  139.4868  144.4377  151.8992 H   0  0  0  0  0  0  0  0  0  0  0  0  # atno 10167 bound_to 10162
  155.9984  130.4820  150.4952 H   0  0  0  0  0  0  0  0  0  0  0  0  # atno 10718 bound_to 10713
  153.5518  135.3538  155.2762 H   0  0  0  0  0  0  0  0  0  0  0  0  # atno 10763 bound_to 10752
  154.8706  135.4115  154.2929 H   0  0  0  0  0  0  0  0  0  0  0  0  # atno 10764 bound_to 10752
  153.3656  135.7062  153.6746 H   0  0  0  0  0  0  0  0  0  0  0  0  # atno 10765 bound_to 10752
  140.6814  134.4140  157.5226 H   0  0  0  0  0  0  0  0  0  0  0  0  # atno 11005 bound_to 11000
  146.1273  140.7231  142.9429 LP  0  0  0  0  0  0  0  0  0  0  0  0  # atno 17320 bound_to 7965
  144.7154  140.4190  143.7048 LP  0  0  0  0  0  0  0  0  0  0  0  0  # atno 17321 bound_to 7965
  140.3827  144.2716  150.5907 LP  0  0  0  0  0  0  0  0  0  0  0  0  # atno 17342 bound_to 10162
  140.5218  143.2264  151.8376 LP  0  0  0  0  0  0  0  0  0  0  0  0  # atno 17343 bound_to 10162
  157.2943  131.0632  151.2112 LP  0  0  0  0  0  0  0  0  0  0  0  0  # atno 17370 bound_to 10713
  157.3114  130.6891  149.6218 LP  0  0  0  0  0  0  0  0  0  0  0  0  # atno 17371 bound_to 10713
  139.8950  134.8692  156.2149 LP  0  0  0  0  0  0  0  0  0  0  0  0  # atno 17394 bound_to 11000
  141.0314  133.6986  156.1437 LP  0  0  0  0  0  0  0  0  0  0  0  0  # atno 17395 bound_to 11000

$$$$
