AV-unprocessed.smi:2060|AV-procd|sdf|8355|dock6
  -GOLD-   2272011 23D 1   1.00000     0.00000
 Structure written by MMmdl.
 45 46  0  0  0  0  0  0  0  0  1 V2000
  152.6258  138.4500  154.3923 C   0  0  0  0  0  0  0  0  0  0  0  0
  151.4002  137.5296  154.5384 C   0  0  0  0  0  0  0  0  0  0  0  0
  150.3970  137.9132  155.6725 C   0  0  2  0  0  0  0  0  0  0  0  0
  151.2512  138.1789  156.9416 C   0  0  0  0  0  0  0  0  0  0  0  0
  149.4698  136.6877  155.9580 C   0  0  0  0  0  0  0  0  0  0  0  0
  148.9154  136.0690  154.7534 N   0  0  0  0  0  0  0  0  0  0  0  0
  148.1540  134.9652  154.7201 C   0  0  0  0  0  0  0  0  0  0  0  0
  147.8204  134.3359  155.7246 O   0  0  0  0  0  0  0  0  0  0  0  0
  147.8059  134.6520  153.4604 N   0  0  0  0  0  0  0  0  0  0  0  0
  147.0113  133.5590  153.0300 C   0  0  0  0  0  0  0  0  0  0  0  0
  146.7093  133.3748  151.6546 C   0  0  0  0  0  0  0  0  0  0  0  0
  145.9462  132.2411  151.6558 C   0  0  0  0  0  0  0  0  0  0  0  0
  145.2842  131.4639  150.5701 C   0  0  0  0  0  0  0  0  0  0  0  0
  145.7962  131.7725  152.9246 O   0  0  0  0  0  0  0  0  0  0  0  0
  146.4806  132.6225  153.8014 N   0  0  0  0  0  0  0  0  0  0  0  0
  149.6166  139.1284  155.3027 N   0  0  0  0  0  0  0  0  0  0  0  0
  148.8270  139.0176  154.0703 C   0  0  0  0  0  0  0  0  0  0  0  0
  147.9425  140.2551  153.8397 C   0  0  0  0  0  0  0  0  0  0  0  0
  148.7501  141.4259  153.8143 O   0  0  0  0  0  0  0  0  0  0  0  0
  149.4919  141.6005  155.0156 C   0  0  0  0  0  0  0  0  0  0  0  0
  150.3906  140.3750  155.2507 C   0  0  0  0  0  0  0  0  0  0  0  0
  153.2645  138.1057  153.5788 H   0  0  0  0  0  0  0  0  0  0  0  0
  153.2332  138.4628  155.2967 H   0  0  0  0  0  0  0  0  0  0  0  0
  152.3388  139.4768  154.1657 H   0  0  0  0  0  0  0  0  0  0  0  0
  150.8841  137.4761  153.5798 H   0  0  0  0  0  0  0  0  0  0  0  0
  151.7757  136.5189  154.6997 H   0  0  0  0  0  0  0  0  0  0  0  0
  152.0030  137.4051  157.0998 H   0  0  0  0  0  0  0  0  0  0  0  0
  150.6418  138.2041  157.8452 H   0  0  0  0  0  0  0  0  0  0  0  0
  151.7797  139.1305  156.8796 H   0  0  0  0  0  0  0  0  0  0  0  0
  150.0249  135.9009  156.4671 H   0  0  0  0  0  0  0  0  0  0  0  0
  148.6609  136.9612  156.6358 H   0  0  0  0  0  0  0  0  0  0  0  0
  149.1329  136.5198  153.8768 H   0  0  0  0  0  0  0  0  0  0  0  0
  148.1464  135.2598  152.7302 H   0  0  0  0  0  0  0  0  0  0  0  0
  147.0025  133.9733  150.8048 H   0  0  0  0  0  0  0  0  0  0  0  0
  145.0977  132.0936  149.7000 H   0  0  0  0  0  0  0  0  0  0  0  0
  144.3278  131.0622  150.9058 H   0  0  0  0  0  0  0  0  0  0  0  0
  145.9112  130.6293  150.2561 H   0  0  0  0  0  0  0  0  0  0  0  0
  149.4832  138.8926  153.2093 H   0  0  0  0  0  0  0  0  0  0  0  0
  148.1752  138.1462  154.1015 H   0  0  0  0  0  0  0  0  0  0  0  0
  147.4110  140.1695  152.8919 H   0  0  0  0  0  0  0  0  0  0  0  0
  147.1882  140.3418  154.6234 H   0  0  0  0  0  0  0  0  0  0  0  0
  150.0969  142.5034  154.9324 H   0  0  0  0  0  0  0  0  0  0  0  0
  148.8113  141.7467  155.8560 H   0  0  0  0  0  0  0  0  0  0  0  0
  150.9382  140.5357  156.1773 H   0  0  0  0  0  0  0  0  0  0  0  0
  151.1294  140.3290  154.4507 H   0  0  0  0  0  0  0  0  0  0  0  0
  1  2  1  0  0  0  0
  1 22  1  0  0  0  0
  1 23  1  0  0  0  0
  1 24  1  0  0  0  0
  2  3  1  0  0  0  0
  2 25  1  0  0  0  0
  2 26  1  0  0  0  0
  3  4  1  0  0  0  0
  3  5  1  0  0  0  0
  3 16  1  0  0  0  0
  4 27  1  0  0  0  0
  4 28  1  0  0  0  0
  4 29  1  0  0  0  0
  5  6  1  0  0  0  0
  5 30  1  0  0  0  0
  5 31  1  0  0  0  0
  6  7  1  0  0  0  0
  6 32  1  0  0  0  0
  7  8  2  0  0  0  0
  7  9  1  0  0  0  0
  9 10  1  0  0  0  0
  9 33  1  0  0  0  0
 10 15  2  0  0  0  0
 10 11  1  0  0  0  0
 11 12  2  0  0  0  0
 11 34  1  0  0  0  0
 12 13  1  0  0  0  0
 12 14  1  0  0  0  0
 13 35  1  0  0  0  0
 13 36  1  0  0  0  0
 13 37  1  0  0  0  0
 14 15  1  0  0  0  0
 16 21  1  0  0  0  0
 16 17  1  0  0  0  0
 17 18  1  0  0  0  0
 17 38  1  0  0  0  0
 17 39  1  0  0  0  0
 18 19  1  0  0  0  0
 18 40  1  0  0  0  0
 18 41  1  0  0  0  0
 19 20  1  0  0  0  0
 20 21  1  0  0  0  0
 20 42  1  0  0  0  0
 20 43  1  0  0  0  0
 21 44  1  0  0  0  0
 21 45  1  0  0  0  0
M  END
> <s_m_source_file>
AV-unprocessed.smi

> <i_m_source_file_index>
2060

> <i_lp_mmshare_version>
43012

> <i_f3d_flags>
0

> <s_epik_input>
W0NIMl0xW0NIMl1PW0NIMl1bQ0gyXU4xW0NAQF0oW0NIM10pKFtDSDJdW0NIM10pW0NIMl1bTkhdQyg9TylbTkhdYzJbY0hdYyhbQ0gzXSlvbjI=

> <s_epik_cmdline>
J2VwaWtfcHl0aG9uJywgJy1waCcsICc3LjAnLCAnLXRuJywgJzgnLCAnLW1hJywgJzIwMCcsICctbWV0YWxfYmluZGluZycsICctaW1hZScsICc8aW5maWxlLm1hZT4nLCAnLW9tYWUnLCAnPG91dGZpbGUubWFlPic=

> <r_epik_Ionization_Penalty>
0.289127

> <r_epik_Ionization_Penalty_Charging>
0

> <r_epik_Ionization_Penalty_Neutral>
0.289127

> <r_epik_State_Penalty>
0.282056

> <r_epik_Charging_Adjusted_Penalty>
0.282056

> <i_epik_Tot_Q>
0

> <i_epik_Tot_abs_Q>
0

> <r_epik_Metal_State_Penalty>
0.284526

> <b_epik_Metal_Only>
0

> <s_lp_Force_Field>
OPLS_2005

> <r_lp_Energy>
40.1787

> <b_lp_Chiralities_Consistent>
1

> <s_lp_Variant>
AV-unprocessed.smi:2060-2

> <Gold.Version>
5.8.1

> <Gold.Id.Protein>
6NUR|6NUR_protein|mol2

> <Gold.PLP.Fitness>
36.5301

> <Gold.PLP.PLP>
-29.5341

> <Gold.PLP.part.hbond>
-2.9436

> <Gold.PLP.part.metal>
0.0000

> <Gold.PLP.part.buried>
-2.2846

> <Gold.PLP.part.nonpolar>
-23.8766

> <Gold.PLP.part.repulsive>
0.7399

> <Gold.PLP.ligand.clash>
0.0000

> <Gold.PLP.ligand.torsion>
0.4080

> <Gold.PLP.Chemscore.Hbond>
2.5687

> <Gold.PLP.Chemscore.CHOScore>
0.0000

> <Gold.PLP.Chemscore.Metal>
0.0000

> <Gold.Chemscore.Hbonds>
donor molecule, donor type, donor heavy atom, donor atom, acceptor molecule, acceptor atom, score
      L1  H     6    32       P1  7948  0.82
      L1  H     9    33       P1  7948  0.94
      P1  H  8011  8017       L1    19  0.70

> <Gold.PLP.Chemscore.Internal.Correction>
0.1060

> <Gold.Rescore>
     Score         DG    S(hbond)    S(metal)    S(lipo)     H(rot)  DE(clash)    DE(int)     intcor
     16.27     -18.09       2.33        0.00      78.82       1.71       0.02       1.80       ----

> <Gold.Chemscore.Fitness>
16.2704

> <Gold.Chemscore.DG>
-18.0944

> <Gold.Chemscore.ZeroCoef>
-5.4800

> <Gold.Chemscore.Hbond>
2.3296

> <Gold.Chemscore.Metal>
0.0000

> <Gold.Chemscore.Lipo>
78.8202

> <Gold.Chemscore.Internal_Hbond>
0.0000

> <Gold.Chemscore.DEClash>
0.0199

> <Gold.Chemscore.DEInternal>
1.8041

> <Gold.Chemscore.Rot>
1.7143

> <Gold.Chemscore.Internal.Correction>
   9.000000E+99

> <Gold.Chemscore.Hbonds>
donor molecule, donor type, donor heavy atom, donor atom, acceptor molecule, acceptor atom, score
      L1  H     6    32       P1  7948  0.75
      L1  H     9    33       P1  7948  0.88
      P1  H  8011  8017       L1    19  0.39

> <Gold.Chemscore.Hbond.Weighted>
-7.7810

> <Gold.Chemscore.Metal.Weighted>
-0.0000

> <Gold.Chemscore.Lipo.Weighted>
-9.2220

> <Gold.Chemscore.Internal_Hbond.Weighted>
0.0000

> <Gold.Chemscore.DEClash.Weighted>
0.0199

> <Gold.Chemscore.DEInternal.Weighted>
1.8041

> <Gold.Chemscore.Rot.Weighted>
4.3885

> <Gold.Chemscore.Internal.Correction.Weighted>
   9.000000E+99

> <Gold.Protein.RotatedTorsions>
[ 6907 6896 6895 6894 ] final  104.66 input  -60.11 | X-H torsion
[ 7974 7965 7964 7962 ] final   54.87 input  175.53 | X-H torsion
[ 8008 7997 7996 7995 ] final  -31.15 input   59.86 | X-H torsion
[ 10167 10162 10161 10158 ] final   39.49 input  -65.29 | X-H torsion
[ 10718 10713 10712 10709 ] final    4.93 input   66.30 | X-H torsion
[ 10763 10752 10751 10750 ] final  -90.89 input  -60.55 | X-H torsion
[ 11005 11000 10999 10996 ] final   78.55 input  -57.11 | X-H torsion

> <Gold.Protein.ActiveResidues>
 VAL166  LYS551  ARG553  GLY616  TRP617  ASP618  TYR619  PRO620  LYS621  CYS622 
 ASP623  PHE694  ASN695  SER759  ASP760  ASP761  ALA762  ILE779  LEU786  VAL792 
 PHE793  MET794  SER795  GLU796  ALA797  LYS798  CYS799  TRP800  GLU811  SER814 

> <Gold.Protein.RotatedAtoms>
  152.5257  133.9644  159.7731 H   0  0  0  0  0  0  0  0  0  0  0  0  # atno 6907 bound_to 6896
  150.9928  133.6125  159.2713 H   0  0  0  0  0  0  0  0  0  0  0  0  # atno 6908 bound_to 6896
  151.3262  135.0837  159.9376 H   0  0  0  0  0  0  0  0  0  0  0  0  # atno 6909 bound_to 6896
  145.9563  139.4018  143.0275 H   0  0  0  0  0  0  0  0  0  0  0  0  # atno 7974 bound_to 7965
  154.4224  140.1772  156.1521 H   0  0  0  0  0  0  0  0  0  0  0  0  # atno 8008 bound_to 7997
  155.9906  140.3369  155.6725 H   0  0  0  0  0  0  0  0  0  0  0  0  # atno 8009 bound_to 7997
  155.6377  140.0676  157.2619 H   0  0  0  0  0  0  0  0  0  0  0  0  # atno 8010 bound_to 7997
  140.3835  144.1948  150.6130 H   0  0  0  0  0  0  0  0  0  0  0  0  # atno 10167 bound_to 10162
  156.9000  130.5718  149.5648 H   0  0  0  0  0  0  0  0  0  0  0  0  # atno 10718 bound_to 10713
  154.6705  135.5288  153.8132 H   0  0  0  0  0  0  0  0  0  0  0  0  # atno 10763 bound_to 10752
  153.0498  135.6528  154.0732 H   0  0  0  0  0  0  0  0  0  0  0  0  # atno 10764 bound_to 10752
  154.0632  135.2960  155.3301 H   0  0  0  0  0  0  0  0  0  0  0  0  # atno 10765 bound_to 10752
  139.9208  134.7772  156.1664 H   0  0  0  0  0  0  0  0  0  0  0  0  # atno 11005 bound_to 11000
  145.8101  140.9730  143.0953 LP  0  0  0  0  0  0  0  0  0  0  0  0  # atno 17320 bound_to 7965
  144.6806  139.9911  143.7484 LP  0  0  0  0  0  0  0  0  0  0  0  0  # atno 17321 bound_to 7965
  140.4913  143.2346  151.8814 LP  0  0  0  0  0  0  0  0  0  0  0  0  # atno 17342 bound_to 10162
  139.4793  144.5162  151.8864 LP  0  0  0  0  0  0  0  0  0  0  0  0  # atno 17343 bound_to 10162
  156.0587  130.5643  150.9146 LP  0  0  0  0  0  0  0  0  0  0  0  0  # atno 17370 bound_to 10713
  157.6032  131.0940  150.8924 LP  0  0  0  0  0  0  0  0  0  0  0  0  # atno 17371 bound_to 10713
  141.0727  133.6789  156.2172 LP  0  0  0  0  0  0  0  0  0  0  0  0  # atno 17394 bound_to 11000
  140.6481  134.5096  157.5575 LP  0  0  0  0  0  0  0  0  0  0  0  0  # atno 17395 bound_to 11000

$$$$
