AV-unprocessed.smi:1585|AV-procd|sdf|6369|dock1
  -GOLD-   22720 6593D 1   1.00000     0.00000
 Structure written by MMmdl.
 43 44  0  0  0  0  0  0  0  0  2 V2000
  153.5593  141.8606  160.9293 C   0  0  0  0  0  0  0  0  0  0  0  0
  152.7196  142.4224  159.8333 C   0  0  0  0  0  0  0  0  0  0  0  0
  151.7832  141.8715  159.0040 C   0  0  0  0  0  0  0  0  0  0  0  0
  151.3856  142.9699  158.1962 C   0  0  0  0  0  0  0  0  0  0  0  0
  150.4055  142.8120  157.1831 N   0  0  0  0  0  0  0  0  0  0  0  0
  149.6826  141.7125  156.9103 C   0  0  0  0  0  0  0  0  0  0  0  0
  149.7639  140.6412  157.5120 O   0  0  0  0  0  0  0  0  0  0  0  0
  148.8445  141.9179  155.8833 N   0  0  0  0  0  0  0  0  0  0  0  0
  147.9060  140.9281  155.3628 C   0  0  0  0  0  0  0  0  0  0  0  0
  148.4698  140.1776  154.1381 C   0  0  2  0  0  0  0  0  0  0  0  0
  149.2149  141.0978  153.3653 O   0  0  0  0  0  0  0  0  0  0  0  0
  147.3405  139.6232  153.2458 C   0  0  0  0  0  0  0  0  0  0  0  0
  147.2007  138.1477  153.3501 N   0  3  0  0  0  0  0  0  0  0  0  0
  145.9475  137.6549  152.7206 C   0  0  0  0  0  0  0  0  0  0  0  0
  145.8954  136.1177  152.7108 C   0  0  0  0  0  0  0  0  0  0  0  0
  146.0552  135.5512  154.1275 C   0  0  0  0  0  0  0  0  0  0  0  0
  147.3363  136.0996  154.7689 C   0  0  0  0  0  0  0  0  0  0  0  0
  147.3521  137.6371  154.7398 C   0  0  0  0  0  0  0  0  0  0  0  0
  152.0198  144.0906  158.5056 N   0  0  0  0  0  0  0  0  0  0  0  0
  152.8784  143.7454  159.5559 O   0  0  0  0  0  0  0  0  0  0  0  0
  153.0885  140.9802  161.3672 H   0  0  0  0  0  0  0  0  0  0  0  0
  153.7066  142.5936  161.7229 H   0  0  0  0  0  0  0  0  0  0  0  0
  154.5395  141.5686  160.5523 H   0  0  0  0  0  0  0  0  0  0  0  0
  151.4422  140.8471  158.9802 H   0  0  0  0  0  0  0  0  0  0  0  0
  150.2334  143.6247  156.6100 H   0  0  0  0  0  0  0  0  0  0  0  0
  148.8391  142.8272  155.4443 H   0  0  0  0  0  0  0  0  0  0  0  0
  147.6825  140.2211  156.1638 H   0  0  0  0  0  0  0  0  0  0  0  0
  146.9599  141.4151  155.1231 H   0  0  0  0  0  0  0  0  0  0  0  0
  149.1256  139.3707  154.4626 H   0  0  0  0  0  0  0  0  0  0  0  0
  149.4177  140.6955  152.5340 H   0  0  0  0  0  0  0  0  0  0  0  0
  146.3864  140.0883  153.4995 H   0  0  0  0  0  0  0  0  0  0  0  0
  147.5478  139.9048  152.2120 H   0  0  0  0  0  0  0  0  0  0  0  0
  145.0865  138.0588  153.2557 H   0  0  0  0  0  0  0  0  0  0  0  0
  145.8824  138.0182  151.6943 H   0  0  0  0  0  0  0  0  0  0  0  0
  144.9530  135.7793  152.2789 H   0  0  0  0  0  0  0  0  0  0  0  0
  146.6870  135.7287  152.0690 H   0  0  0  0  0  0  0  0  0  0  0  0
  145.1915  135.8248  154.7346 H   0  0  0  0  0  0  0  0  0  0  0  0
  146.0844  134.4617  154.0975 H   0  0  0  0  0  0  0  0  0  0  0  0
  147.4195  135.7449  155.7967 H   0  0  0  0  0  0  0  0  0  0  0  0
  148.2075  135.7144  154.2371 H   0  0  0  0  0  0  0  0  0  0  0  0
  148.2867  137.9857  155.1771 H   0  0  0  0  0  0  0  0  0  0  0  0
  146.5481  138.0312  155.3636 H   0  0  0  0  0  0  0  0  0  0  0  0
  147.9585  137.7574  152.8078 H   0  0  0  0  0  0  0  0  0  0  0  0
  1  2  1  0  0  0  0
  1 21  1  0  0  0  0
  1 22  1  0  0  0  0
  1 23  1  0  0  0  0
  2 20  1  0  0  0  0
  2  3  2  0  0  0  0
  3  4  1  0  0  0  0
  3 24  1  0  0  0  0
  4  5  1  0  0  0  0
  4 19  2  0  0  0  0
  5  6  1  0  0  0  0
  5 25  1  0  0  0  0
  6  7  2  0  0  0  0
  6  8  1  0  0  0  0
  8  9  1  0  0  0  0
  8 26  1  0  0  0  0
  9 10  1  0  0  0  0
  9 27  1  0  0  0  0
  9 28  1  0  0  0  0
 10 11  1  0  0  0  0
 10 12  1  0  0  0  0
 10 29  1  0  0  0  0
 11 30  1  0  0  0  0
 12 13  1  0  0  0  0
 12 31  1  0  0  0  0
 12 32  1  0  0  0  0
 13 18  1  0  0  0  0
 13 14  1  0  0  0  0
 13 43  1  0  0  0  0
 14 15  1  0  0  0  0
 14 33  1  0  0  0  0
 14 34  1  0  0  0  0
 15 16  1  0  0  0  0
 15 35  1  0  0  0  0
 15 36  1  0  0  0  0
 16 17  1  0  0  0  0
 16 37  1  0  0  0  0
 16 38  1  0  0  0  0
 17 18  1  0  0  0  0
 17 39  1  0  0  0  0
 17 40  1  0  0  0  0
 18 41  1  0  0  0  0
 18 42  1  0  0  0  0
 19 20  1  0  0  0  0
M  CHG  1  13   1
M  END
> <s_m_source_file>
AV-unprocessed.smi

> <i_m_source_file_index>
1585

> <i_lp_mmshare_version>
43012

> <i_f3d_flags>
0

> <s_epik_input>
W0NIM11jMVtjSF1jKG5vMSlbTkhdQyg9TylbTkhdW0NIMl1bQ0BIXShbT0hdKVtDSDJdTjJbQ0gyXVtDSDJdW0NIMl1bQ0gyXVtDSDJdMg==

> <s_epik_cmdline>
J2VwaWtfcHl0aG9uJywgJy1waCcsICc3LjAnLCAnLXRuJywgJzgnLCAnLW1hJywgJzIwMCcsICctbWV0YWxfYmluZGluZycsICctaW1hZScsICc8aW5maWxlLm1hZT4nLCAnLW9tYWUnLCAnPG91dGZpbGUubWFlPic=

> <r_epik_Ionization_Penalty>
0.00531443

> <r_epik_Ionization_Penalty_Charging>
0.0052814

> <r_epik_Ionization_Penalty_Neutral>
3.3027e-05

> <r_epik_State_Penalty>
0.00385383

> <r_epik_Charging_Adjusted_Penalty>
0.00913523

> <i_epik_Tot_Q>
1

> <i_epik_Tot_abs_Q>
1

> <r_epik_Metal_State_Penalty>
0.0139186

> <b_epik_Metal_Only>
0

> <s_lp_Force_Field>
OPLS_2005

> <r_lp_Energy>
15.3919

> <b_lp_Chiralities_Consistent>
1

> <s_lp_Variant>
AV-unprocessed.smi:1585-1

> <Gold.Version>
5.8.1

> <Gold.Id.Protein>
6NUR|6NUR_protein|mol2

> <Gold.PLP.Fitness>
43.8168

> <Gold.PLP.PLP>
-31.1018

> <Gold.PLP.part.hbond>
-5.8008

> <Gold.PLP.part.metal>
0.0000

> <Gold.PLP.part.buried>
-4.6110

> <Gold.PLP.part.nonpolar>
-21.1224

> <Gold.PLP.part.repulsive>
0.1899

> <Gold.PLP.ligand.clash>
0.0000

> <Gold.PLP.ligand.torsion>
1.2111

> <Gold.PLP.Chemscore.Hbond>
4.9753

> <Gold.PLP.Chemscore.CHOScore>
0.0000

> <Gold.PLP.Chemscore.Metal>
0.0000

> <Gold.Chemscore.Hbonds>
donor molecule, donor type, donor heavy atom, donor atom, acceptor molecule, acceptor atom, score
      L1  H     5    25       P1  8028  0.94
      L1  H     8    26       P1  8028  0.98
      L1  H    11    30       P1  7957  0.99
      L1  H    13    43       P1  7948  1.95

> <Gold.PLP.Chemscore.Internal.Correction>
0.2114

> <Gold.Rescore>
     Score         DG    S(hbond)    S(metal)    S(lipo)     H(rot)  DE(clash)    DE(int)     intcor
     16.38     -19.14       3.87        0.00      60.99       2.50       0.19       2.57       ----

> <Gold.Chemscore.Fitness>
16.3778

> <Gold.Chemscore.DG>
-19.1421

> <Gold.Chemscore.ZeroCoef>
-5.4800

> <Gold.Chemscore.Hbond>
3.8665

> <Gold.Chemscore.Metal>
0.0000

> <Gold.Chemscore.Lipo>
60.9908

> <Gold.Chemscore.Internal_Hbond>
0.0000

> <Gold.Chemscore.DEClash>
0.1941

> <Gold.Chemscore.DEInternal>
2.5701

> <Gold.Chemscore.Rot>
2.4953

> <Gold.Chemscore.Internal.Correction>
   9.000000E+99

> <Gold.Chemscore.Hbonds>
donor molecule, donor type, donor heavy atom, donor atom, acceptor molecule, acceptor atom, score
      L1  H     5    25       P1  8028  0.89
      L1  H     8    26       P1  8028  0.92
      L1  H    11    30       P1  7957  0.92
      L1  H    13    43       P1  7948  0.89

> <Gold.Chemscore.Hbond.Weighted>
-12.9142

> <Gold.Chemscore.Metal.Weighted>
-0.0000

> <Gold.Chemscore.Lipo.Weighted>
-7.1359

> <Gold.Chemscore.Internal_Hbond.Weighted>
0.0000

> <Gold.Chemscore.DEClash.Weighted>
0.1941

> <Gold.Chemscore.DEInternal.Weighted>
2.5701

> <Gold.Chemscore.Rot.Weighted>
6.3880

> <Gold.Chemscore.Internal.Correction.Weighted>
   9.000000E+99

> <Gold.Protein.RotatedTorsions>
[ 6907 6896 6895 6894 ] final -155.17 input  -60.11 | X-H torsion
[ 7974 7965 7964 7962 ] final -163.68 input  175.53 | X-H torsion
[ 8008 7997 7996 7995 ] final -157.37 input   59.86 | X-H torsion
[ 10167 10162 10161 10158 ] final -136.27 input  -65.29 | X-H torsion
[ 10718 10713 10712 10709 ] final   36.14 input   66.30 | X-H torsion
[ 10763 10752 10751 10750 ] final   47.43 input  -60.55 | X-H torsion
[ 11005 11000 10999 10996 ] final  -97.03 input  -57.11 | X-H torsion

> <Gold.Protein.ActiveResidues>
 VAL166  LYS551  ARG553  GLY616  TRP617  ASP618  TYR619  PRO620  LYS621  CYS622 
 ASP623  PHE694  ASN695  SER759  ASP760  ASP761  ALA762  ILE779  LEU786  VAL792 
 PHE793  MET794  SER795  GLU796  ALA797  LYS798  CYS799  TRP800  GLU811  SER814 

> <Gold.Protein.RotatedAtoms>
  151.2684  133.4267  159.2619 H   0  0  0  0  0  0  0  0  0  0  0  0  # atno 6907 bound_to 6896
  151.0467  134.9645  159.8200 H   0  0  0  0  0  0  0  0  0  0  0  0  # atno 6908 bound_to 6896
  152.5375  134.2640  159.8999 H   0  0  0  0  0  0  0  0  0  0  0  0  # atno 6909 bound_to 6896
  144.7319  140.3071  143.6194 H   0  0  0  0  0  0  0  0  0  0  0  0  # atno 7974 bound_to 7965
  155.7315  140.0802  157.2287 H   0  0  0  0  0  0  0  0  0  0  0  0  # atno 8008 bound_to 7997
  154.4032  140.1594  156.2568 H   0  0  0  0  0  0  0  0  0  0  0  0  # atno 8009 bound_to 7997
  155.9105  140.3404  155.6098 H   0  0  0  0  0  0  0  0  0  0  0  0  # atno 8010 bound_to 7997
  139.8694  143.6976  152.2641 H   0  0  0  0  0  0  0  0  0  0  0  0  # atno 10167 bound_to 10162
  157.3312  130.7499  149.6848 H   0  0  0  0  0  0  0  0  0  0  0  0  # atno 10718 bound_to 10713
  152.9800  135.5976  154.3762 H   0  0  0  0  0  0  0  0  0  0  0  0  # atno 10763 bound_to 10752
  154.3431  135.2767  155.2414 H   0  0  0  0  0  0  0  0  0  0  0  0  # atno 10764 bound_to 10752
  154.4487  135.5995  153.6232 H   0  0  0  0  0  0  0  0  0  0  0  0  # atno 10765 bound_to 10752
  141.1392  133.8141  157.0651 H   0  0  0  0  0  0  0  0  0  0  0  0  # atno 11005 bound_to 11000
  145.7702  139.1854  143.2217 LP  0  0  0  0  0  0  0  0  0  0  0  0  # atno 17320 bound_to 7965
  146.0917  140.7648  142.9592 LP  0  0  0  0  0  0  0  0  0  0  0  0  # atno 17321 bound_to 7965
  139.7298  144.7585  151.0821 LP  0  0  0  0  0  0  0  0  0  0  0  0  # atno 17342 bound_to 10162
  140.7763  143.5103  150.9661 LP  0  0  0  0  0  0  0  0  0  0  0  0  # atno 17343 bound_to 10162
  155.9696  130.4195  150.4376 LP  0  0  0  0  0  0  0  0  0  0  0  0  # atno 17370 bound_to 10713
  157.2408  131.0525  151.2437 LP  0  0  0  0  0  0  0  0  0  0  0  0  # atno 17371 bound_to 10713
  140.0547  134.9787  157.1198 LP  0  0  0  0  0  0  0  0  0  0  0  0  # atno 17394 bound_to 11000
  140.3938  134.2156  155.7165 LP  0  0  0  0  0  0  0  0  0  0  0  0  # atno 17395 bound_to 11000

$$$$
