AV-unprocessed.smi:37|AV-procd|sdf|318|dock9
  -GOLD-   2262016143D 1   1.00000     0.00000
 Structure written by MMmdl.
 44 45  0  0  0  0  0  0  0  0  1 V2000
  147.5277  133.9857  161.4739 C   0  0  0  0  0  0  0  0  0  0  0  0
  147.6112  135.5084  161.6571 C   0  0  0  0  0  0  0  0  0  0  0  0
  147.7646  136.2764  160.3427 C   0  0  0  0  0  0  0  0  0  0  0  0
  146.9207  137.0815  159.9448 O   0  0  0  0  0  0  0  0  0  0  0  0
  148.9028  135.9587  159.7084 O   0  0  0  0  0  0  0  0  0  0  0  0
  149.2651  136.6444  158.5192 C   0  0  0  0  0  0  0  0  0  0  0  0
  150.0967  137.8885  158.8577 C   0  0  1  0  0  0  0  0  0  0  0  0
  151.0837  137.5940  159.8455 O   0  0  0  0  0  0  0  0  0  0  0  0
  152.3267  138.0605  159.4152 C   0  0  2  0  0  0  0  0  0  0  0  0
  153.1186  138.5905  160.5874 N   0  0  0  0  0  0  0  0  0  0  0  0
  152.7579  138.3299  161.9041 C   0  0  0  0  0  0  0  0  0  0  0  0
  153.4552  138.8031  162.9639 C   0  0  0  0  0  0  0  0  0  0  0  0
  153.0442  138.5147  164.2103 F   0  0  0  0  0  0  0  0  0  0  0  0
  154.6442  139.6273  162.7658 C   0  0  0  0  0  0  0  0  0  0  0  0
  155.3424  140.0980  163.6615 O   0  0  0  0  0  0  0  0  0  0  0  0
  154.9636  139.8681  161.4261 N   0  0  0  0  0  0  0  0  0  0  0  0
  154.2524  139.3884  160.3251 C   0  0  0  0  0  0  0  0  0  0  0  0
  154.6183  139.6664  159.1838 O   0  0  0  0  0  0  0  0  0  0  0  0
  152.0499  139.1299  158.3531 C   0  0  2  0  0  0  0  0  0  0  0  0
  151.5613  140.8881  159.1750 Br  0  0  0  0  0  0  0  0  0  0  0  0
  150.8421  138.5108  157.6697 C   0  0  2  0  0  0  0  0  0  0  0  0
  150.0420  139.4577  156.9735 O   0  0  0  0  0  0  0  0  0  0  0  0
  150.5400  140.1076  155.9072 C   0  0  0  0  0  0  0  0  0  0  0  0
  151.4015  139.6729  155.1408 O   0  0  0  0  0  0  0  0  0  0  0  0
  149.9110  141.4918  155.7363 C   0  0  0  0  0  0  0  0  0  0  0  0
  150.1467  142.4258  156.9325 C   0  0  0  0  0  0  0  0  0  0  0  0
  155.7758  140.4381  161.2403 H   0  0  0  0  0  0  0  0  0  0  0  0
  147.4267  133.4886  162.4388 H   0  0  0  0  0  0  0  0  0  0  0  0
  148.4250  133.5932  160.9938 H   0  0  0  0  0  0  0  0  0  0  0  0
  146.6673  133.7034  160.8662 H   0  0  0  0  0  0  0  0  0  0  0  0
  146.7152  135.8668  162.1642 H   0  0  0  0  0  0  0  0  0  0  0  0
  148.4566  135.7538  162.3002 H   0  0  0  0  0  0  0  0  0  0  0  0
  149.8527  135.9875  157.8760 H   0  0  0  0  0  0  0  0  0  0  0  0
  148.3670  136.9240  157.9670 H   0  0  0  0  0  0  0  0  0  0  0  0
  149.4415  138.6388  159.3028 H   0  0  0  0  0  0  0  0  0  0  0  0
  152.8863  137.2067  159.0264 H   0  0  0  0  0  0  0  0  0  0  0  0
  151.8807  137.7358  162.1146 H   0  0  0  0  0  0  0  0  0  0  0  0
  152.9055  139.2750  157.6930 H   0  0  0  0  0  0  0  0  0  0  0  0
  151.1804  137.7189  156.9998 H   0  0  0  0  0  0  0  0  0  0  0  0
  150.3170  141.9453  154.8319 H   0  0  0  0  0  0  0  0  0  0  0  0
  148.8402  141.3675  155.5739 H   0  0  0  0  0  0  0  0  0  0  0  0
  149.6743  143.3932  156.7622 H   0  0  0  0  0  0  0  0  0  0  0  0
  151.2101  142.6029  157.0961 H   0  0  0  0  0  0  0  0  0  0  0  0
  149.7266  142.0116  157.8497 H   0  0  0  0  0  0  0  0  0  0  0  0
  1  2  1  0  0  0  0
  1 28  1  0  0  0  0
  1 29  1  0  0  0  0
  1 30  1  0  0  0  0
  2  3  1  0  0  0  0
  2 31  1  0  0  0  0
  2 32  1  0  0  0  0
  3  4  2  0  0  0  0
  3  5  1  0  0  0  0
  5  6  1  0  0  0  0
  6  7  1  0  0  0  0
  6 33  1  0  0  0  0
  6 34  1  0  0  0  0
  7 21  1  0  0  0  0
  7  8  1  0  0  0  0
  7 35  1  0  0  0  0
  8  9  1  0  0  0  0
  9 10  1  0  0  0  0
  9 19  1  0  0  0  0
  9 36  1  0  0  0  0
 10 17  1  0  0  0  0
 10 11  1  0  0  0  0
 11 12  2  0  0  0  0
 11 37  1  0  0  0  0
 12 13  1  0  0  0  0
 12 14  1  0  0  0  0
 14 15  2  0  0  0  0
 14 16  1  0  0  0  0
 16 27  1  0  0  0  0
 16 17  1  0  0  0  0
 17 18  2  0  0  0  0
 19 20  1  0  0  0  0
 19 21  1  0  0  0  0
 19 38  1  0  0  0  0
 21 22  1  0  0  0  0
 21 39  1  0  0  0  0
 22 23  1  0  0  0  0
 23 24  2  0  0  0  0
 23 25  1  0  0  0  0
 25 26  1  0  0  0  0
 25 40  1  0  0  0  0
 25 41  1  0  0  0  0
 26 42  1  0  0  0  0
 26 43  1  0  0  0  0
 26 44  1  0  0  0  0
M  END
> <s_m_source_file>
AV-unprocessed.smi

> <i_m_source_file_index>
37

> <i_lp_mmshare_version>
43012

> <i_f3d_flags>
0

> <s_epik_input>
W0NIM11bQ0gyXUMoPU8pT1tDSDJdW0NAQEhdMU9bQ0BASF0objJbY0hdYyhGKWMoPU8pW25IXWMyPU8pW0NAQEhdKEJyKVtDQEhdMU9DKD1PKVtDSDJdW0NIM10=

> <s_epik_cmdline>
J2VwaWtfcHl0aG9uJywgJy1waCcsICc3LjAnLCAnLXRuJywgJzgnLCAnLW1hJywgJzIwMCcsICctbWV0YWxfYmluZGluZycsICctaW1hZScsICc8aW5maWxlLm1hZT4nLCAnLW9tYWUnLCAnPG91dGZpbGUubWFlPic=

> <r_lp_tautomer_probability>
0.999537

> <r_epik_Ionization_Penalty>
0.104106

> <r_epik_Ionization_Penalty_Charging>
0.104106

> <r_epik_Ionization_Penalty_Neutral>
3.94675e-16

> <r_epik_State_Penalty>
0.0940182

> <r_epik_Charging_Adjusted_Penalty>
0.198124

> <i_epik_Tot_Q>
0

> <i_epik_Tot_abs_Q>
0

> <r_epik_Metal_State_Penalty>
3.05314

> <b_epik_Metal_Only>
0

> <s_epik_Chemistry_Notes>
This compound has an ester and may undergo hydrolysis at high or low pH. This compound contains an acetal/aminal-like group ( X-CH(R)-Y where X, Y are N, S, or O) that may be acid/base labile, releasing an aldehyde.

> <s_lp_Force_Field>
OPLS_2005

> <r_lp_Energy>
25.1984

> <b_lp_Chiralities_Consistent>
1

> <s_lp_Variant>
AV-unprocessed.smi:37-16

> <Gold.Version>
5.8.1

> <Gold.Id.Protein>
6NUR|6NUR_protein|mol2

> <Gold.PLP.Fitness>
50.4822

> <Gold.PLP.PLP>
-40.4715

> <Gold.PLP.part.hbond>
-5.0449

> <Gold.PLP.part.metal>
0.0000

> <Gold.PLP.part.buried>
-6.4138

> <Gold.PLP.part.nonpolar>
-30.1076

> <Gold.PLP.part.repulsive>
0.0367

> <Gold.PLP.ligand.clash>
0.0000

> <Gold.PLP.ligand.torsion>
1.0391

> <Gold.PLP.Chemscore.Hbond>
3.9913

> <Gold.PLP.Chemscore.CHOScore>
0.0000

> <Gold.PLP.Chemscore.Metal>
0.0000

> <Gold.Chemscore.Hbonds>
donor molecule, donor type, donor heavy atom, donor atom, acceptor molecule, acceptor atom, score
      P1  H  6934  6947       L1     4  0.62
      P1  H  7989  7998       L1    24  0.98
      P1  H  7997  8009       L1    18  1.00

> <Gold.PLP.Chemscore.Internal.Correction>
0.1152

> <Gold.Rescore>
     Score         DG    S(hbond)    S(metal)    S(lipo)     H(rot)  DE(clash)    DE(int)     intcor
     13.30     -16.03       3.43        0.00      65.21       3.33       0.12       2.62       ----

> <Gold.Chemscore.Fitness>
13.2958

> <Gold.Chemscore.DG>
-16.0339

> <Gold.Chemscore.ZeroCoef>
-5.4800

> <Gold.Chemscore.Hbond>
3.4281

> <Gold.Chemscore.Metal>
0.0000

> <Gold.Chemscore.Lipo>
65.2110

> <Gold.Chemscore.Internal_Hbond>
0.0000

> <Gold.Chemscore.DEClash>
0.1214

> <Gold.Chemscore.DEInternal>
2.6167

> <Gold.Chemscore.Rot>
3.3303

> <Gold.Chemscore.Internal.Correction>
   9.000000E+99

> <Gold.Chemscore.Hbonds>
donor molecule, donor type, donor heavy atom, donor atom, acceptor molecule, acceptor atom, score
      P1  H  6896  6908       L1     8  0.01
      P1  H  6934  6947       L1     4  0.47
      P1  H  7989  7998       L1    24  0.75
      P1  H  7997  8009       L1    18  0.99

> <Gold.Chemscore.Hbond.Weighted>
-11.4498

> <Gold.Chemscore.Metal.Weighted>
-0.0000

> <Gold.Chemscore.Lipo.Weighted>
-7.6297

> <Gold.Chemscore.Internal_Hbond.Weighted>
0.0000

> <Gold.Chemscore.DEClash.Weighted>
0.1214

> <Gold.Chemscore.DEInternal.Weighted>
2.6167

> <Gold.Chemscore.Rot.Weighted>
8.5256

> <Gold.Chemscore.Internal.Correction.Weighted>
   9.000000E+99

> <Gold.Protein.RotatedTorsions>
[ 6907 6896 6895 6894 ] final -139.30 input  -60.11 | X-H torsion
[ 7974 7965 7964 7962 ] final  108.32 input  175.53 | X-H torsion
[ 8008 7997 7996 7995 ] final  122.48 input   59.86 | X-H torsion
[ 10167 10162 10161 10158 ] final -133.93 input  -65.29 | X-H torsion
[ 10718 10713 10712 10709 ] final -146.93 input   66.30 | X-H torsion
[ 10763 10752 10751 10750 ] final  133.23 input  -60.55 | X-H torsion
[ 11005 11000 10999 10996 ] final -120.98 input  -57.11 | X-H torsion

> <Gold.Protein.ActiveResidues>
 VAL166  LYS551  ARG553  GLY616  TRP617  ASP618  TYR619  PRO620  LYS621  CYS622 
 ASP623  PHE694  ASN695  SER759  ASP760  ASP761  ALA762  ILE779  LEU786  VAL792 
 PHE793  MET794  SER795  GLU796  ALA797  LYS798  CYS799  TRP800  GLU811  SER814 

> <Gold.Protein.RotatedAtoms>
  151.0460  133.5665  159.2646 H   0  0  0  0  0  0  0  0  0  0  0  0  # atno 6907 bound_to 6896
  151.2693  135.0679  159.9138 H   0  0  0  0  0  0  0  0  0  0  0  0  # atno 6908 bound_to 6896
  152.5373  134.0193  159.8028 H   0  0  0  0  0  0  0  0  0  0  0  0  # atno 6909 bound_to 6896
  145.2821  139.2629  143.3910 H   0  0  0  0  0  0  0  0  0  0  0  0  # atno 7974 bound_to 7965
  156.2729  140.2785  156.1474 H   0  0  0  0  0  0  0  0  0  0  0  0  # atno 8008 bound_to 7997
  155.0889  140.0388  157.2680 H   0  0  0  0  0  0  0  0  0  0  0  0  # atno 8009 bound_to 7997
  154.6905  140.2628  155.6823 H   0  0  0  0  0  0  0  0  0  0  0  0  # atno 8010 bound_to 7997
  139.8932  143.6697  152.2608 H   0  0  0  0  0  0  0  0  0  0  0  0  # atno 10167 bound_to 10162
  156.4011  130.7934  151.2145 H   0  0  0  0  0  0  0  0  0  0  0  0  # atno 10718 bound_to 10713
  153.8037  135.3138  155.3393 H   0  0  0  0  0  0  0  0  0  0  0  0  # atno 10763 bound_to 10752
  154.8079  135.4686  154.0442 H   0  0  0  0  0  0  0  0  0  0  0  0  # atno 10764 bound_to 10752
  153.1798  135.6892  153.8581 H   0  0  0  0  0  0  0  0  0  0  0  0  # atno 10765 bound_to 10752
  141.0104  134.0273  157.3422 H   0  0  0  0  0  0  0  0  0  0  0  0  # atno 11005 bound_to 11000
  146.3213  140.3291  142.8639 LP  0  0  0  0  0  0  0  0  0  0  0  0  # atno 17320 bound_to 7965
  144.9244  140.7904  143.5728 LP  0  0  0  0  0  0  0  0  0  0  0  0  # atno 17321 bound_to 7965
  139.7091  144.7623  151.1142 LP  0  0  0  0  0  0  0  0  0  0  0  0  # atno 17342 bound_to 10162
  140.7722  143.5354  150.9374 LP  0  0  0  0  0  0  0  0  0  0  0  0  # atno 17343 bound_to 10162
  157.7504  131.0286  150.4058 LP  0  0  0  0  0  0  0  0  0  0  0  0  # atno 17370 bound_to 10713
  156.4338  130.3977  149.6743 LP  0  0  0  0  0  0  0  0  0  0  0  0  # atno 17371 bound_to 10713
  139.9086  135.0185  156.7596 LP  0  0  0  0  0  0  0  0  0  0  0  0  # atno 17394 bound_to 11000
  140.6743  133.9531  155.7874 LP  0  0  0  0  0  0  0  0  0  0  0  0  # atno 17395 bound_to 11000

$$$$
