AV-unprocessed.smi:2191|AV-procd|sdf|8893|dock2
  -GOLD-   2272012103D 1   1.00000     0.00000
 Structure written by MMmdl.
 36 38  0  0  0  0  0  0  0  0  1 V2000
  153.1099  139.2211  156.1921 O   0  0  0  0  0  0  0  0  0  0  0  0
  151.9437  139.9914  155.9738 C   0  0  1  0  0  0  0  0  0  0  0  0
  151.0708  139.2635  154.9398 C   0  0  0  0  0  0  0  0  0  0  0  0
  150.4116  140.2309  154.1335 O   0  0  0  0  0  0  0  0  0  0  0  0
  149.0927  140.5228  154.4090 C   0  0  0  0  0  0  0  0  0  0  0  0
  148.5704  141.7074  153.8496 C   0  0  0  0  0  0  0  0  0  0  0  0
  147.2335  142.0855  154.0796 C   0  0  0  0  0  0  0  0  0  0  0  0
  146.4013  141.2774  154.8759 C   0  0  0  0  0  0  0  0  0  0  0  0
  146.9084  140.0917  155.4393 C   0  0  0  0  0  0  0  0  0  0  0  0
  148.2461  139.7142  155.2098 C   0  0  0  0  0  0  0  0  0  0  0  0
  151.2071  140.1819  157.3141 C   0  0  0  0  0  0  0  0  0  0  0  0
  151.3309  141.5324  157.8343 N   0  0  0  0  0  0  0  0  0  0  0  0
  150.8570  142.6620  157.2745 C   0  0  0  0  0  0  0  0  0  0  0  0
  151.0783  143.8028  157.9214 N   0  0  0  0  0  0  0  0  0  0  0  0
  151.7772  143.3623  159.0323 C   0  0  0  0  0  0  0  0  0  0  0  0
  152.3093  144.0829  160.1257 C   0  0  0  0  0  0  0  0  0  0  0  0
  152.9919  143.4101  161.1606 C   0  0  0  0  0  0  0  0  0  0  0  0
  153.1551  142.0100  161.1176 C   0  0  0  0  0  0  0  0  0  0  0  0
  152.6354  141.2710  160.0375 C   0  0  0  0  0  0  0  0  0  0  0  0
  151.9521  141.9455  159.0083 C   0  0  0  0  0  0  0  0  0  0  0  0
  153.1470  138.5433  155.5344 H   0  0  0  0  0  0  0  0  0  0  0  0
  152.2328  140.9696  155.5871 H   0  0  0  0  0  0  0  0  0  0  0  0
  151.6737  138.5793  154.3396 H   0  0  0  0  0  0  0  0  0  0  0  0
  150.3122  138.6740  155.4575 H   0  0  0  0  0  0  0  0  0  0  0  0
  149.2026  142.3336  153.2370 H   0  0  0  0  0  0  0  0  0  0  0  0
  146.8474  142.9955  153.6450 H   0  0  0  0  0  0  0  0  0  0  0  0
  145.3759  141.5661  155.0539 H   0  0  0  0  0  0  0  0  0  0  0  0
  146.2704  139.4700  156.0498 H   0  0  0  0  0  0  0  0  0  0  0  0
  148.5983  138.7986  155.6600 H   0  0  0  0  0  0  0  0  0  0  0  0
  150.1453  139.9618  157.1947 H   0  0  0  0  0  0  0  0  0  0  0  0
  151.5865  139.4827  158.0602 H   0  0  0  0  0  0  0  0  0  0  0  0
  150.3190  142.6453  156.3379 H   0  0  0  0  0  0  0  0  0  0  0  0
  152.1909  145.1555  160.1688 H   0  0  0  0  0  0  0  0  0  0  0  0
  153.3927  143.9715  161.9918 H   0  0  0  0  0  0  0  0  0  0  0  0
  153.6805  141.5033  161.9139 H   0  0  0  0  0  0  0  0  0  0  0  0
  152.7613  140.1993  159.9996 H   0  0  0  0  0  0  0  0  0  0  0  0
  1  2  1  0  0  0  0
  1 21  1  0  0  0  0
  2  3  1  0  0  0  0
  2 11  1  0  0  0  0
  2 22  1  0  0  0  0
  3  4  1  0  0  0  0
  3 23  1  0  0  0  0
  3 24  1  0  0  0  0
  4  5  1  0  0  0  0
  5 10  1  0  0  0  0
  5  6  2  0  0  0  0
  6  7  1  0  0  0  0
  6 25  1  0  0  0  0
  7  8  2  0  0  0  0
  7 26  1  0  0  0  0
  8  9  1  0  0  0  0
  8 27  1  0  0  0  0
  9 10  2  0  0  0  0
  9 28  1  0  0  0  0
 10 29  1  0  0  0  0
 11 12  1  0  0  0  0
 11 30  1  0  0  0  0
 11 31  1  0  0  0  0
 12 20  1  0  0  0  0
 12 13  1  0  0  0  0
 13 14  2  0  0  0  0
 13 32  1  0  0  0  0
 14 15  1  0  0  0  0
 15 20  2  0  0  0  0
 15 16  1  0  0  0  0
 16 17  2  0  0  0  0
 16 33  1  0  0  0  0
 17 18  1  0  0  0  0
 17 34  1  0  0  0  0
 18 19  2  0  0  0  0
 18 35  1  0  0  0  0
 19 20  1  0  0  0  0
 19 36  1  0  0  0  0
M  END
> <s_m_source_file>
AV-unprocessed.smi

> <i_m_source_file_index>
2191

> <i_lp_mmshare_version>
43012

> <i_f3d_flags>
0

> <s_epik_input>
W2NIXTFbY0hdW2NIXVtjSF1jKGMxMiluKFtjSF1uMilbQ0gyXVtDQEhdKFtPSF0pW0NIMl1PYzNbY0hdW2NIXVtjSF1bY0hdW2NIXTM=

> <s_epik_cmdline>
J2VwaWtfcHl0aG9uJywgJy1waCcsICc3LjAnLCAnLXRuJywgJzgnLCAnLW1hJywgJzIwMCcsICctbWV0YWxfYmluZGluZycsICctaW1hZScsICc8aW5maWxlLm1hZT4nLCAnLW9tYWUnLCAnPG91dGZpbGUubWFlPic=

> <r_lp_tautomer_probability>
1

> <r_epik_Ionization_Penalty>
0.0640132

> <r_epik_Ionization_Penalty_Charging>
0

> <r_epik_Ionization_Penalty_Neutral>
0.0640132

> <r_epik_State_Penalty>
0.0557325

> <r_epik_Charging_Adjusted_Penalty>
0.0557325

> <i_epik_Tot_Q>
0

> <i_epik_Tot_abs_Q>
0

> <r_epik_Metal_State_Penalty>
5.8435e-05

> <b_epik_Metal_Only>
0

> <s_lp_Force_Field>
OPLS_2005

> <r_lp_Energy>
16.2786

> <b_lp_Chiralities_Consistent>
1

> <s_lp_Variant>
AV-unprocessed.smi:2191-2

> <Gold.Version>
5.8.1

> <Gold.Id.Protein>
6NUR|6NUR_protein|mol2

> <Gold.PLP.Fitness>
47.2216

> <Gold.PLP.PLP>
-42.4324

> <Gold.PLP.part.hbond>
-1.8583

> <Gold.PLP.part.metal>
0.0000

> <Gold.PLP.part.buried>
-3.9713

> <Gold.PLP.part.nonpolar>
-36.7408

> <Gold.PLP.part.repulsive>
0.4317

> <Gold.PLP.ligand.clash>
0.0000

> <Gold.PLP.ligand.torsion>
1.6426

> <Gold.PLP.Chemscore.Hbond>
2.0000

> <Gold.PLP.Chemscore.CHOScore>
0.6669

> <Gold.PLP.Chemscore.Metal>
0.0000

> <Gold.Chemscore.Hbonds>
donor molecule, donor type, donor heavy atom, donor atom, acceptor molecule, acceptor atom, score
      P1  H  7989  7998       L1     4  0.94
      P1  H  7997  8010       L1     1  0.99
      L1  C    13    32       P1  8028  0.62

> <Gold.PLP.Chemscore.Internal.Correction>
0.0737

> <Gold.Rescore>
     Score         DG    S(hbond)    S(metal)    S(lipo)     H(rot)  DE(clash)    DE(int)     intcor
     15.17     -17.76       1.42        0.00     112.93       2.22       0.93       1.66       ----

> <Gold.Chemscore.Fitness>
15.1700

> <Gold.Chemscore.DG>
-17.7569

> <Gold.Chemscore.ZeroCoef>
-5.4800

> <Gold.Chemscore.Hbond>
1.4212

> <Gold.Chemscore.Metal>
0.0000

> <Gold.Chemscore.Lipo>
112.9347

> <Gold.Chemscore.Internal_Hbond>
0.0000

> <Gold.Chemscore.DEClash>
0.9268

> <Gold.Chemscore.DEInternal>
1.6601

> <Gold.Chemscore.Rot>
2.2200

> <Gold.Chemscore.Internal.Correction>
   9.000000E+99

> <Gold.Chemscore.Hbonds>
donor molecule, donor type, donor heavy atom, donor atom, acceptor molecule, acceptor atom, score
      P1  H  7989  7998       L1     4  0.22
      P1  H  7997  8010       L1     1  0.73

> <Gold.Chemscore.Hbond.Weighted>
-4.7467

> <Gold.Chemscore.Metal.Weighted>
-0.0000

> <Gold.Chemscore.Lipo.Weighted>
-13.2134

> <Gold.Chemscore.Internal_Hbond.Weighted>
0.0000

> <Gold.Chemscore.DEClash.Weighted>
0.9268

> <Gold.Chemscore.DEInternal.Weighted>
1.6601

> <Gold.Chemscore.Rot.Weighted>
5.6832

> <Gold.Chemscore.Internal.Correction.Weighted>
   9.000000E+99

> <Gold.Protein.RotatedTorsions>
[ 6907 6896 6895 6894 ] final -120.40 input  -60.11 | X-H torsion
[ 7974 7965 7964 7962 ] final  -31.40 input  175.53 | X-H torsion
[ 8008 7997 7996 7995 ] final   73.75 input   59.86 | X-H torsion
[ 10167 10162 10161 10158 ] final  -29.51 input  -65.29 | X-H torsion
[ 10718 10713 10712 10709 ] final  130.73 input   66.30 | X-H torsion
[ 10763 10752 10751 10750 ] final  144.12 input  -60.55 | X-H torsion
[ 11005 11000 10999 10996 ] final   87.82 input  -57.11 | X-H torsion

> <Gold.Protein.ActiveResidues>
 VAL166  LYS551  ARG553  GLY616  TRP617  ASP618  TYR619  PRO620  LYS621  CYS622 
 ASP623  PHE694  ASN695  SER759  ASP760  ASP761  ALA762  ILE779  LEU786  VAL792 
 PHE793  MET794  SER795  GLU796  ALA797  LYS798  CYS799  TRP800  GLU811  SER814 

> <Gold.Protein.RotatedAtoms>
  150.8390  133.7966  159.3068 H   0  0  0  0  0  0  0  0  0  0  0  0  # atno 6907 bound_to 6896
  151.5673  135.1062  159.9996 H   0  0  0  0  0  0  0  0  0  0  0  0  # atno 6908 bound_to 6896
  152.4457  133.7490  159.6739 H   0  0  0  0  0  0  0  0  0  0  0  0  # atno 6909 bound_to 6896
  146.1070  140.5662  142.8795 H   0  0  0  0  0  0  0  0  0  0  0  0  # atno 7974 bound_to 7965
  155.7883  140.3480  155.5335 H   0  0  0  0  0  0  0  0  0  0  0  0  # atno 8008 bound_to 7997
  155.8659  140.0979  157.1603 H   0  0  0  0  0  0  0  0  0  0  0  0  # atno 8009 bound_to 7997
  154.4014  140.1349  156.4006 H   0  0  0  0  0  0  0  0  0  0  0  0  # atno 8010 bound_to 7997
  140.7259  143.3922  151.1409 H   0  0  0  0  0  0  0  0  0  0  0  0  # atno 10167 bound_to 10162
  157.5035  131.1095  150.9394 H   0  0  0  0  0  0  0  0  0  0  0  0  # atno 10718 bound_to 10713
  153.9836  135.2939  155.3418 H   0  0  0  0  0  0  0  0  0  0  0  0  # atno 10763 bound_to 10752
  154.7255  135.5091  153.8882 H   0  0  0  0  0  0  0  0  0  0  0  0  # atno 10764 bound_to 10752
  153.0843  135.6688  154.0097 H   0  0  0  0  0  0  0  0  0  0  0  0  # atno 10765 bound_to 10752
  139.8910  134.8448  156.2914 H   0  0  0  0  0  0  0  0  0  0  0  0  # atno 11005 bound_to 11000
  144.7479  140.5116  143.6822 LP  0  0  0  0  0  0  0  0  0  0  0  0  # atno 17320 bound_to 7965
  145.5740  139.1485  143.3272 LP  0  0  0  0  0  0  0  0  0  0  0  0  # atno 17321 bound_to 7965
  139.7529  143.8751  152.3081 LP  0  0  0  0  0  0  0  0  0  0  0  0  # atno 17342 bound_to 10162
  139.8611  144.7117  150.9099 LP  0  0  0  0  0  0  0  0  0  0  0  0  # atno 17343 bound_to 10162
  157.0057  130.5617  149.5316 LP  0  0  0  0  0  0  0  0  0  0  0  0  # atno 17370 bound_to 10713
  156.0244  130.5338  150.8365 LP  0  0  0  0  0  0  0  0  0  0  0  0  # atno 17371 bound_to 10713
  140.9974  133.7172  156.0906 LP  0  0  0  0  0  0  0  0  0  0  0  0  # atno 17394 bound_to 11000
  140.7544  134.4009  157.5536 LP  0  0  0  0  0  0  0  0  0  0  0  0  # atno 17395 bound_to 11000

$$$$
