AV-unprocessed.smi:701|AV-procd|sdf|3414|dock9
  -GOLD-   22720 0393D 1   1.00000     0.00000
 Structure written by MMmdl.
 48 50  0  0  0  0  0  0  0  0  2 V2000
  148.5748  141.3946  154.2918 C   0  0  0  0  0  0  0  0  0  0  0  0
  149.7337  141.6862  155.2475 C   0  0  0  0  0  0  0  0  0  0  0  0
  150.3321  140.4569  155.6197 O   0  0  0  0  0  0  0  0  0  0  0  0
  151.5379  140.6158  156.3563 C   0  0  2  0  0  0  0  0  0  0  0  0
  152.2300  139.2726  156.6193 C   0  0  0  0  0  0  0  0  0  0  0  0
  151.4860  139.2092  157.9574 C   0  0  2  0  0  0  0  0  0  0  0  0
  150.2497  138.4381  157.8303 N   0  0  0  0  0  0  0  0  0  0  0  0
  149.9328  137.3730  158.5799 C   0  0  0  0  0  0  0  0  0  0  0  0
  150.6813  136.9049  159.4387 O   0  0  0  0  0  0  0  0  0  0  0  0
  148.5684  136.7313  158.3017 C   0  0  0  0  0  0  0  0  0  0  0  0
  148.2254  135.6992  159.2922 N   0  0  0  0  0  0  0  0  0  0  0  0
  148.2830  134.3547  158.8849 C   0  0  0  0  0  0  0  0  0  0  0  0
  147.9920  133.3446  159.7265 C   0  0  0  0  0  0  0  0  0  0  0  0
  147.6083  133.6740  161.0938 C   0  0  0  0  0  0  0  0  0  0  0  0
  147.3332  132.7647  161.8742 O   0  0  0  0  0  0  0  0  0  0  0  0
  147.5727  134.9934  161.4426 N   0  5  0  0  0  0  0  0  0  0  0  0
  147.8742  136.0102  160.5766 C   0  0  0  0  0  0  0  0  0  0  0  0
  147.8383  137.1945  160.9130 O   0  0  0  0  0  0  0  0  0  0  0  0
  151.2877  140.7508  157.8820 C   0  0  0  0  0  0  0  0  0  0  0  0
  152.3663  141.5485  158.6453 C   0  0  0  0  0  0  0  0  0  0  0  0
  152.2980  143.0652  158.3933 C   0  0  0  0  0  0  0  0  0  0  0  0
  150.9159  143.6277  158.7456 C   0  0  0  0  0  0  0  0  0  0  0  0
  149.8050  142.8437  158.0377 C   0  0  0  0  0  0  0  0  0  0  0  0
  149.9251  141.3369  158.3168 C   0  0  0  0  0  0  0  0  0  0  0  0
  148.0772  142.3158  153.9886 H   0  0  0  0  0  0  0  0  0  0  0  0
  147.8312  140.7515  154.7634 H   0  0  0  0  0  0  0  0  0  0  0  0
  148.9284  140.8924  153.3909 H   0  0  0  0  0  0  0  0  0  0  0  0
  150.4610  142.3373  154.7614 H   0  0  0  0  0  0  0  0  0  0  0  0
  149.3660  142.2052  156.1338 H   0  0  0  0  0  0  0  0  0  0  0  0
  152.1926  141.3862  155.9471 H   0  0  0  0  0  0  0  0  0  0  0  0
  151.9884  138.4751  155.9157 H   0  0  0  0  0  0  0  0  0  0  0  0
  153.3088  139.3751  156.7434 H   0  0  0  0  0  0  0  0  0  0  0  0
  152.1265  138.8859  158.7798 H   0  0  0  0  0  0  0  0  0  0  0  0
  149.5728  138.7638  157.1555 H   0  0  0  0  0  0  0  0  0  0  0  0
  147.7901  137.4965  158.2694 H   0  0  0  0  0  0  0  0  0  0  0  0
  148.5919  136.3051  157.2980 H   0  0  0  0  0  0  0  0  0  0  0  0
  148.5826  134.1976  157.8591 H   0  0  0  0  0  0  0  0  0  0  0  0
  148.0452  132.3168  159.3990 H   0  0  0  0  0  0  0  0  0  0  0  0
  152.2713  141.3632  159.7163 H   0  0  0  0  0  0  0  0  0  0  0  0
  153.3636  141.1973  158.3792 H   0  0  0  0  0  0  0  0  0  0  0  0
  153.0642  143.5738  158.9792 H   0  0  0  0  0  0  0  0  0  0  0  0
  152.5219  143.2769  157.3475 H   0  0  0  0  0  0  0  0  0  0  0  0
  150.7663  143.5717  159.8246 H   0  0  0  0  0  0  0  0  0  0  0  0
  150.8604  144.6834  158.4791 H   0  0  0  0  0  0  0  0  0  0  0  0
  148.8296  143.2052  158.3646 H   0  0  0  0  0  0  0  0  0  0  0  0
  149.8565  143.0214  156.9627 H   0  0  0  0  0  0  0  0  0  0  0  0
  149.1002  140.8347  157.8114 H   0  0  0  0  0  0  0  0  0  0  0  0
  149.7644  141.1555  159.3804 H   0  0  0  0  0  0  0  0  0  0  0  0
  1  2  1  0  0  0  0
  1 25  1  0  0  0  0
  1 26  1  0  0  0  0
  1 27  1  0  0  0  0
  2  3  1  0  0  0  0
  2 28  1  0  0  0  0
  2 29  1  0  0  0  0
  3  4  1  0  0  0  0
  4 19  1  0  0  0  0
  4  5  1  0  0  0  0
  4 30  1  0  0  0  0
  5  6  1  0  0  0  0
  5 31  1  0  0  0  0
  5 32  1  0  0  0  0
  6  7  1  0  0  0  0
  6 19  1  0  0  0  0
  6 33  1  0  0  0  0
  7  8  1  0  0  0  0
  7 34  1  0  0  0  0
  8  9  2  0  0  0  0
  8 10  1  0  0  0  0
 10 11  1  0  0  0  0
 10 35  1  0  0  0  0
 10 36  1  0  0  0  0
 11 17  1  0  0  0  0
 11 12  1  0  0  0  0
 12 13  2  0  0  0  0
 12 37  1  0  0  0  0
 13 14  1  0  0  0  0
 13 38  1  0  0  0  0
 14 15  2  0  0  0  0
 14 16  1  0  0  0  0
 16 17  1  0  0  0  0
 17 18  2  0  0  0  0
 19 24  1  0  0  0  0
 19 20  1  0  0  0  0
 20 21  1  0  0  0  0
 20 39  1  0  0  0  0
 20 40  1  0  0  0  0
 21 22  1  0  0  0  0
 21 41  1  0  0  0  0
 21 42  1  0  0  0  0
 22 23  1  0  0  0  0
 22 43  1  0  0  0  0
 22 44  1  0  0  0  0
 23 24  1  0  0  0  0
 23 45  1  0  0  0  0
 23 46  1  0  0  0  0
 24 47  1  0  0  0  0
 24 48  1  0  0  0  0
M  CHG  1  16  -1
M  END
> <s_m_source_file>
AV-unprocessed.smi

> <i_m_source_file_index>
701

> <i_lp_mmshare_version>
43012

> <i_f3d_flags>
0

> <s_epik_input>
W0NIMl0xW0NIMl1bQ0gyXVtDSDJdW0NIMl1DMTJbQ0BIXShPW0NIMl1bQ0gzXSlbQ0gyXVtDQEhdMltOSF1DKD1PKVtDSDJdbjNbY0hdW2NIXWMoPU8pW25IXWMzPU8=

> <s_epik_cmdline>
J2VwaWtfcHl0aG9uJywgJy1waCcsICc3LjAnLCAnLXRuJywgJzgnLCAnLW1hJywgJzIwMCcsICctbWV0YWxfYmluZGluZycsICctaW1hZScsICc8aW5maWxlLm1hZT4nLCAnLW9tYWUnLCAnPG91dGZpbGUubWFlPic=

> <r_lp_tautomer_probability>
0.999537

> <r_epik_Ionization_Penalty>
3.12423

> <r_epik_Ionization_Penalty_Charging>
2.92877e-08

> <r_epik_Ionization_Penalty_Neutral>
3.12423

> <r_epik_State_Penalty>
3.12332

> <r_epik_Charging_Adjusted_Penalty>
3.12332

> <i_epik_Tot_Q>
-1

> <i_epik_Tot_abs_Q>
1

> <r_epik_Metal_State_Penalty>
0.463873

> <b_epik_Metal_Only>
1

> <s_lp_Force_Field>
OPLS_2005

> <r_lp_Energy>
38.2445

> <b_lp_Chiralities_Consistent>
1

> <s_lp_Variant>
AV-unprocessed.smi:701-7

> <Gold.Version>
5.8.1

> <Gold.Id.Protein>
6NUR|6NUR_protein|mol2

> <Gold.PLP.Fitness>
43.7602

> <Gold.PLP.PLP>
-36.2818

> <Gold.PLP.part.hbond>
-3.0000

> <Gold.PLP.part.metal>
0.0000

> <Gold.PLP.part.buried>
-4.0027

> <Gold.PLP.part.nonpolar>
-28.2467

> <Gold.PLP.part.repulsive>
0.1077

> <Gold.PLP.ligand.clash>
0.0000

> <Gold.PLP.ligand.torsion>
0.5264

> <Gold.PLP.Chemscore.Hbond>
2.7280

> <Gold.PLP.Chemscore.CHOScore>
0.0000

> <Gold.PLP.Chemscore.Metal>
0.0000

> <Gold.Chemscore.Hbonds>
donor molecule, donor type, donor heavy atom, donor atom, acceptor molecule, acceptor atom, score
      P1  H  6896  6908       L1     9  1.00
      P1  H  6931  6943       L1    18  0.88
      P1  H  6934  6947       L1    18  0.83

> <Gold.PLP.Chemscore.Internal.Correction>
0.3472

> <Gold.Rescore>
     Score         DG    S(hbond)    S(metal)    S(lipo)     H(rot)  DE(clash)    DE(int)     intcor
     18.27     -19.19       2.71        0.00      84.38       2.04       0.09       0.83       ----

> <Gold.Chemscore.Fitness>
18.2680

> <Gold.Chemscore.DG>
-19.1923

> <Gold.Chemscore.ZeroCoef>
-5.4800

> <Gold.Chemscore.Hbond>
2.7133

> <Gold.Chemscore.Metal>
0.0000

> <Gold.Chemscore.Lipo>
84.3766

> <Gold.Chemscore.Internal_Hbond>
0.0000

> <Gold.Chemscore.DEClash>
0.0920

> <Gold.Chemscore.DEInternal>
0.8322

> <Gold.Chemscore.Rot>
2.0399

> <Gold.Chemscore.Internal.Correction>
   9.000000E+99

> <Gold.Chemscore.Hbonds>
donor molecule, donor type, donor heavy atom, donor atom, acceptor molecule, acceptor atom, score
      P1  H  6896  6908       L1     9  1.00
      P1  H  6931  6943       L1    18  0.86
      P1  H  6934  6947       L1    18  0.81

> <Gold.Chemscore.Hbond.Weighted>
-9.0624

> <Gold.Chemscore.Metal.Weighted>
-0.0000

> <Gold.Chemscore.Lipo.Weighted>
-9.8721

> <Gold.Chemscore.Internal_Hbond.Weighted>
0.0000

> <Gold.Chemscore.DEClash.Weighted>
0.0920

> <Gold.Chemscore.DEInternal.Weighted>
0.8322

> <Gold.Chemscore.Rot.Weighted>
5.2222

> <Gold.Chemscore.Internal.Correction.Weighted>
   9.000000E+99

> <Gold.Protein.RotatedTorsions>
[ 6907 6896 6895 6894 ] final -147.68 input  -60.11 | X-H torsion
[ 7974 7965 7964 7962 ] final  -17.02 input  175.53 | X-H torsion
[ 8008 7997 7996 7995 ] final  -74.31 input   59.86 | X-H torsion
[ 10167 10162 10161 10158 ] final   18.15 input  -65.29 | X-H torsion
[ 10718 10713 10712 10709 ] final  151.73 input   66.30 | X-H torsion
[ 10763 10752 10751 10750 ] final  -44.88 input  -60.55 | X-H torsion
[ 11005 11000 10999 10996 ] final   79.69 input  -57.11 | X-H torsion

> <Gold.Protein.ActiveResidues>
 VAL166  LYS551  ARG553  GLY616  TRP617  ASP618  TYR619  PRO620  LYS621  CYS622 
 ASP623  PHE694  ASN695  SER759  ASP760  ASP761  ALA762  ILE779  LEU786  VAL792 
 PHE793  MET794  SER795  GLU796  ALA797  LYS798  CYS799  TRP800  GLU811  SER814 

> <Gold.Protein.RotatedAtoms>
  151.1591  133.4857  159.2594 H   0  0  0  0  0  0  0  0  0  0  0  0  # atno 6907 bound_to 6896
  151.1473  135.0209  159.8662 H   0  0  0  0  0  0  0  0  0  0  0  0  # atno 6908 bound_to 6896
  152.5463  134.1479  159.8559 H   0  0  0  0  0  0  0  0  0  0  0  0  # atno 6909 bound_to 6896
  146.1960  140.3720  142.8440 H   0  0  0  0  0  0  0  0  0  0  0  0  # atno 7974 bound_to 7965
  154.5320  140.0763  156.8362 H   0  0  0  0  0  0  0  0  0  0  0  0  # atno 8008 bound_to 7997
  155.3355  140.3404  155.4221 H   0  0  0  0  0  0  0  0  0  0  0  0  # atno 8009 bound_to 7997
  156.1791  140.1646  156.8294 H   0  0  0  0  0  0  0  0  0  0  0  0  # atno 8010 bound_to 7997
  140.5674  143.9225  150.6687 H   0  0  0  0  0  0  0  0  0  0  0  0  # atno 10167 bound_to 10162
  157.2669  131.0809  151.1627 H   0  0  0  0  0  0  0  0  0  0  0  0  # atno 10718 bound_to 10713
  154.0193  135.6671  153.4771 H   0  0  0  0  0  0  0  0  0  0  0  0  # atno 10763 bound_to 10752
  153.0587  135.5041  154.8038 H   0  0  0  0  0  0  0  0  0  0  0  0  # atno 10764 bound_to 10752
  154.6947  135.3068  154.9393 H   0  0  0  0  0  0  0  0  0  0  0  0  # atno 10765 bound_to 10752
  139.9163  134.7862  156.1811 H   0  0  0  0  0  0  0  0  0  0  0  0  # atno 11005 bound_to 11000
  144.8582  140.7101  143.6124 LP  0  0  0  0  0  0  0  0  0  0  0  0  # atno 17320 bound_to 7965
  145.3640  139.1674  143.4368 LP  0  0  0  0  0  0  0  0  0  0  0  0  # atno 17321 bound_to 7965
  140.2691  143.3468  152.1254 LP  0  0  0  0  0  0  0  0  0  0  0  0  # atno 17342 bound_to 10162
  139.5100  144.6876  151.5845 LP  0  0  0  0  0  0  0  0  0  0  0  0  # atno 17343 bound_to 10162
  157.3114  130.6891  149.6218 LP  0  0  0  0  0  0  0  0  0  0  0  0  # atno 17370 bound_to 10713
  155.9663  130.4362  150.5125 LP  0  0  0  0  0  0  0  0  0  0  0  0  # atno 17371 bound_to 10713
  141.0641  133.6827  156.2011 LP  0  0  0  0  0  0  0  0  0  0  0  0  # atno 17394 bound_to 11000
  140.6613  134.4965  157.5583 LP  0  0  0  0  0  0  0  0  0  0  0  0  # atno 17395 bound_to 11000

$$$$
