AV-unprocessed.smi:2973|AV-procd|sdf|11348|dock5
  -GOLD-   2272016263D 1   1.00000     0.00000
 Structure written by MMmdl.
 48 50  0  0  0  0  0  0  0  0  2 V2000
  150.8275  140.0092  154.6048 C   0  0  0  0  0  0  0  0  0  0  0  0
  151.3012  140.7107  155.8970 C   0  0  1  0  0  0  0  0  0  0  0  0
  150.2155  141.6932  156.3902 C   0  0  0  0  0  0  0  0  0  0  0  0
  150.6696  142.4754  157.6310 C   0  0  0  0  0  0  0  0  0  0  0  0
  151.0768  141.5279  158.7661 C   0  0  0  0  0  0  0  0  0  0  0  0
  152.1676  140.5476  158.3010 C   0  0  0  0  0  0  0  0  0  0  0  0
  151.7764  139.7424  157.0322 C   0  0  2  0  0  0  0  0  0  0  0  0
  152.9352  138.9827  156.5955 N   0  5  0  0  0  0  0  0  0  0  0  0
  152.6542  137.6614  156.6690 C   0  0  0  0  0  0  0  0  0  0  0  0
  153.4094  136.7322  156.3848 O   0  0  0  0  0  0  0  0  0  0  0  0
  151.3971  137.4586  157.1052 N   0  0  0  0  0  0  0  0  0  0  0  0
  150.7843  136.1401  157.3128 C   0  0  0  0  0  0  0  0  0  0  0  0
  150.2935  135.4916  156.0112 C   0  0  0  0  0  0  0  0  0  0  0  0
  150.9981  135.4836  155.0010 O   0  0  0  0  0  0  0  0  0  0  0  0
  149.0772  134.9284  156.0610 N   0  0  0  0  0  0  0  0  0  0  0  0
  148.4179  134.2593  154.9462 C   0  0  0  0  0  0  0  0  0  0  0  0
  147.2302  135.0786  154.4142 C   0  0  0  0  0  0  0  0  0  0  0  0
  146.6815  134.5144  153.1179 C   0  0  0  0  0  0  0  0  0  0  0  0
  145.7646  135.2549  152.3413 C   0  0  0  0  0  0  0  0  0  0  0  0
  145.2921  134.6897  151.1409 C   0  0  0  0  0  0  0  0  0  0  0  0
  145.7536  133.4134  150.7644 C   0  0  0  0  0  0  0  0  0  0  0  0
  146.6708  132.7564  151.6087 C   0  0  0  0  0  0  0  0  0  0  0  0
  147.1302  133.2895  152.7615 N   0  0  0  0  0  0  0  0  0  0  0  0
  150.7886  138.6229  157.3563 C   0  0  0  0  0  0  0  0  0  0  0  0
  149.6402  138.7875  157.7707 O   0  0  0  0  0  0  0  0  0  0  0  0
  149.9323  139.4100  154.7724 H   0  0  0  0  0  0  0  0  0  0  0  0
  151.5968  139.3534  154.1971 H   0  0  0  0  0  0  0  0  0  0  0  0
  150.5887  140.7405  153.8324 H   0  0  0  0  0  0  0  0  0  0  0  0
  152.1638  141.3174  155.6155 H   0  0  0  0  0  0  0  0  0  0  0  0
  149.9694  142.3986  155.5959 H   0  0  0  0  0  0  0  0  0  0  0  0
  149.2925  141.1574  156.6127 H   0  0  0  0  0  0  0  0  0  0  0  0
  151.5126  143.1164  157.3702 H   0  0  0  0  0  0  0  0  0  0  0  0
  149.8704  143.1365  157.9673 H   0  0  0  0  0  0  0  0  0  0  0  0
  151.4414  142.1062  159.6152 H   0  0  0  0  0  0  0  0  0  0  0  0
  150.2037  140.9828  159.1244 H   0  0  0  0  0  0  0  0  0  0  0  0
  153.0793  141.1142  158.1037 H   0  0  0  0  0  0  0  0  0  0  0  0
  152.4130  139.8708  159.1216 H   0  0  0  0  0  0  0  0  0  0  0  0
  151.4947  135.4616  157.7875 H   0  0  0  0  0  0  0  0  0  0  0  0
  149.9511  136.2307  158.0121 H   0  0  0  0  0  0  0  0  0  0  0  0
  148.5681  134.9784  156.9314 H   0  0  0  0  0  0  0  0  0  0  0  0
  149.1550  134.1200  154.1550 H   0  0  0  0  0  0  0  0  0  0  0  0
  148.0933  133.2619  155.2481 H   0  0  0  0  0  0  0  0  0  0  0  0
  146.4273  135.1055  155.1525 H   0  0  0  0  0  0  0  0  0  0  0  0
  147.5329  136.1144  154.2549 H   0  0  0  0  0  0  0  0  0  0  0  0
  145.4318  136.2335  152.6555 H   0  0  0  0  0  0  0  0  0  0  0  0
  144.5894  135.2256  150.5201 H   0  0  0  0  0  0  0  0  0  0  0  0
  145.4136  132.9490  149.8505 H   0  0  0  0  0  0  0  0  0  0  0  0
  147.0456  131.7767  151.3511 H   0  0  0  0  0  0  0  0  0  0  0  0
  1  2  1  0  0  0  0
  1 26  1  0  0  0  0
  1 27  1  0  0  0  0
  1 28  1  0  0  0  0
  2  7  1  0  0  0  0
  2  3  1  0  0  0  0
  2 29  1  0  0  0  0
  3  4  1  0  0  0  0
  3 30  1  0  0  0  0
  3 31  1  0  0  0  0
  4  5  1  0  0  0  0
  4 32  1  0  0  0  0
  4 33  1  0  0  0  0
  5  6  1  0  0  0  0
  5 34  1  0  0  0  0
  5 35  1  0  0  0  0
  6  7  1  0  0  0  0
  6 36  1  0  0  0  0
  6 37  1  0  0  0  0
  7 24  1  0  0  0  0
  7  8  1  0  0  0  0
  8  9  1  0  0  0  0
  9 10  2  0  0  0  0
  9 11  1  0  0  0  0
 11 12  1  0  0  0  0
 11 24  1  0  0  0  0
 12 13  1  0  0  0  0
 12 38  1  0  0  0  0
 12 39  1  0  0  0  0
 13 14  2  0  0  0  0
 13 15  1  0  0  0  0
 15 16  1  0  0  0  0
 15 40  1  0  0  0  0
 16 17  1  0  0  0  0
 16 41  1  0  0  0  0
 16 42  1  0  0  0  0
 17 18  1  0  0  0  0
 17 43  1  0  0  0  0
 17 44  1  0  0  0  0
 18 23  1  0  0  0  0
 18 19  2  0  0  0  0
 19 20  1  0  0  0  0
 19 45  1  0  0  0  0
 20 21  2  0  0  0  0
 20 46  1  0  0  0  0
 21 22  1  0  0  0  0
 21 47  1  0  0  0  0
 22 23  2  0  0  0  0
 22 48  1  0  0  0  0
 24 25  2  0  0  0  0
M  CHG  1   8  -1
M  END
> <s_m_source_file>
AV-unprocessed.smi

> <i_m_source_file_index>
2973

> <i_lp_mmshare_version>
43012

> <i_f3d_flags>
0

> <s_epik_input>
W0NIMl0xW0NIMl1bQ0gyXVtDSDJdW0NAQEhdKFtDSDNdKVtDQF0xMltOSF1DKD1PKU4oQzI9TylbQ0gyXUMoPU8pW05IXVtDSDJdW0NIMl1jM1tjSF1bY0hdW2NIXVtjSF1uMw==

> <s_epik_cmdline>
J2VwaWtfcHl0aG9uJywgJy1waCcsICc3LjAnLCAnLXRuJywgJzgnLCAnLW1hJywgJzIwMCcsICctbWV0YWxfYmluZGluZycsICctaW1hZScsICc8aW5maWxlLm1hZT4nLCAnLW9tYWUnLCAnPG91dGZpbGUubWFlPic=

> <r_lp_tautomer_probability>
1

> <r_epik_Ionization_Penalty>
6.04175

> <r_epik_Ionization_Penalty_Charging>
6.01728

> <r_epik_Ionization_Penalty_Neutral>
0.0244696

> <r_epik_State_Penalty>
6.03712

> <r_epik_Charging_Adjusted_Penalty>
12.0544

> <i_epik_Tot_Q>
-1

> <i_epik_Tot_abs_Q>
1

> <r_epik_Metal_State_Penalty>
2.01153

> <b_epik_Metal_Only>
1

> <s_lp_Force_Field>
OPLS_2005

> <r_lp_Energy>
9.40787

> <b_lp_Chiralities_Consistent>
1

> <s_lp_Variant>
AV-unprocessed.smi:2973-12

> <Gold.Version>
5.8.1

> <Gold.Id.Protein>
6NUR|6NUR_protein|mol2

> <Gold.PLP.Fitness>
41.5270

> <Gold.PLP.PLP>
-30.1821

> <Gold.PLP.part.hbond>
-3.0000

> <Gold.PLP.part.metal>
0.0000

> <Gold.PLP.part.buried>
0.2084

> <Gold.PLP.part.nonpolar>
-27.5884

> <Gold.PLP.part.repulsive>
0.2947

> <Gold.PLP.ligand.clash>
0.0000

> <Gold.PLP.ligand.torsion>
0.6433

> <Gold.PLP.Chemscore.Hbond>
3.2000

> <Gold.PLP.Chemscore.CHOScore>
1.0000

> <Gold.PLP.Chemscore.Metal>
0.0000

> <Gold.Chemscore.Hbonds>
donor molecule, donor type, donor heavy atom, donor atom, acceptor molecule, acceptor atom, score
      P1  H  7997  8009       L1     8  2.00
      P1  H 10752 10763       L1    14  0.98
      P1  H 10752 10764       L1    10  0.22
      L1  C    22    48       P1 10747  1.00

> <Gold.PLP.Chemscore.Internal.Correction>
0.0315

> <Gold.Rescore>
     Score         DG    S(hbond)    S(metal)    S(lipo)     H(rot)  DE(clash)    DE(int)     intcor
     15.22     -17.45       2.12        0.00      81.46       1.81       1.54       0.69       ----

> <Gold.Chemscore.Fitness>
15.2209

> <Gold.Chemscore.DG>
-17.4465

> <Gold.Chemscore.ZeroCoef>
-5.4800

> <Gold.Chemscore.Hbond>
2.1157

> <Gold.Chemscore.Metal>
0.0000

> <Gold.Chemscore.Lipo>
81.4624

> <Gold.Chemscore.Internal_Hbond>
0.0000

> <Gold.Chemscore.DEClash>
1.5365

> <Gold.Chemscore.DEInternal>
0.6890

> <Gold.Chemscore.Rot>
1.8090

> <Gold.Chemscore.Internal.Correction>
   9.000000E+99

> <Gold.Chemscore.Hbonds>
donor molecule, donor type, donor heavy atom, donor atom, acceptor molecule, acceptor atom, score
      P1  H  7997  8009       L1     8  0.70
      P1  H 10752 10763       L1    14  0.89
      P1  H 10752 10764       L1    10  0.21

> <Gold.Chemscore.Hbond.Weighted>
-7.0664

> <Gold.Chemscore.Metal.Weighted>
-0.0000

> <Gold.Chemscore.Lipo.Weighted>
-9.5311

> <Gold.Chemscore.Internal_Hbond.Weighted>
0.0000

> <Gold.Chemscore.DEClash.Weighted>
1.5365

> <Gold.Chemscore.DEInternal.Weighted>
0.6890

> <Gold.Chemscore.Rot.Weighted>
4.6310

> <Gold.Chemscore.Internal.Correction.Weighted>
   9.000000E+99

> <Gold.Protein.RotatedTorsions>
[ 6907 6896 6895 6894 ] final -111.06 input  -60.11 | X-H torsion
[ 7974 7965 7964 7962 ] final  -76.93 input  175.53 | X-H torsion
[ 8008 7997 7996 7995 ] final -176.84 input   59.86 | X-H torsion
[ 10167 10162 10161 10158 ] final   50.84 input  -65.29 | X-H torsion
[ 10718 10713 10712 10709 ] final  112.23 input   66.30 | X-H torsion
[ 10763 10752 10751 10750 ] final   48.31 input  -60.55 | X-H torsion
[ 11005 11000 10999 10996 ] final -100.81 input  -57.11 | X-H torsion

> <Gold.Protein.ActiveResidues>
 VAL166  LYS551  ARG553  GLY616  TRP617  ASP618  TYR619  PRO620  LYS621  CYS622 
 ASP623  PHE694  ASN695  SER759  ASP760  ASP761  ALA762  ILE779  LEU786  VAL792 
 PHE793  MET794  SER795  GLU796  ALA797  LYS798  CYS799  TRP800  GLU811  SER814 

> <Gold.Protein.RotatedAtoms>
  150.7665  133.9290  159.3420 H   0  0  0  0  0  0  0  0  0  0  0  0  # atno 6907 bound_to 6896
  151.7187  135.0896  160.0289 H   0  0  0  0  0  0  0  0  0  0  0  0  # atno 6908 bound_to 6896
  152.3664  133.6324  159.6089 H   0  0  0  0  0  0  0  0  0  0  0  0  # atno 6909 bound_to 6896
  145.6064  140.9397  143.1213 H   0  0  0  0  0  0  0  0  0  0  0  0  # atno 7974 bound_to 7965
  155.9997  140.1218  157.0559 H   0  0  0  0  0  0  0  0  0  0  0  0  # atno 8008 bound_to 7997
  154.4238  140.1109  156.5748 H   0  0  0  0  0  0  0  0  0  0  0  0  # atno 8009 bound_to 7997
  155.6230  140.3472  155.4660 H   0  0  0  0  0  0  0  0  0  0  0  0  # atno 8010 bound_to 7997
  140.2682  144.3296  150.6298 H   0  0  0  0  0  0  0  0  0  0  0  0  # atno 10167 bound_to 10162
  157.6403  131.0964  150.6865 H   0  0  0  0  0  0  0  0  0  0  0  0  # atno 10718 bound_to 10713
  152.9793  135.5948  154.3905 H   0  0  0  0  0  0  0  0  0  0  0  0  # atno 10763 bound_to 10752
  154.3560  135.2767  155.2348 H   0  0  0  0  0  0  0  0  0  0  0  0  # atno 10764 bound_to 10752
  154.4366  135.6023  153.6157 H   0  0  0  0  0  0  0  0  0  0  0  0  # atno 10765 bound_to 10752
  141.1256  133.8428  157.1151 H   0  0  0  0  0  0  0  0  0  0  0  0  # atno 11005 bound_to 11000
  144.7288  139.7790  143.7355 LP  0  0  0  0  0  0  0  0  0  0  0  0  # atno 17320 bound_to 7965
  146.1538  139.4629  143.0032 LP  0  0  0  0  0  0  0  0  0  0  0  0  # atno 17321 bound_to 7965
  140.5911  143.2168  151.7250 LP  0  0  0  0  0  0  0  0  0  0  0  0  # atno 17342 bound_to 10162
  139.4996  144.3937  152.0253 LP  0  0  0  0  0  0  0  0  0  0  0  0  # atno 17343 bound_to 10162
  156.7190  130.4675  149.5527 LP  0  0  0  0  0  0  0  0  0  0  0  0  # atno 17370 bound_to 10713
  156.1678  130.6417  151.0800 LP  0  0  0  0  0  0  0  0  0  0  0  0  # atno 17371 bound_to 10713
  140.0251  134.9928  157.0670 LP  0  0  0  0  0  0  0  0  0  0  0  0  # atno 17394 bound_to 11000
  140.4376  134.1715  155.7171 LP  0  0  0  0  0  0  0  0  0  0  0  0  # atno 17395 bound_to 11000

$$$$
