AV-unprocessed.smi:1410|AV-procd|sdf|5735|dock5
  -GOLD-   22720 5373D 1   1.00000     0.00000
 Structure written by MMmdl.
 39 40  0  0  0  0  0  0  0  0  3 V2000
  146.4699  136.5357  152.1060 N   0  5  0  0  0  0  0  0  0  0  0  0
  146.2404  137.8341  151.8322 C   0  0  0  0  0  0  0  0  0  0  0  0
  146.6641  138.4926  150.8844 O   0  0  0  0  0  0  0  0  0  0  0  0
  145.3581  138.5086  152.8883 C   0  0  0  0  0  0  0  0  0  0  0  0
  146.1509  139.4941  153.6647 N   0  3  2  0  0  0  0  0  0  0  0  0
  146.8418  140.4951  152.8078 C   0  0  0  0  0  0  0  0  0  0  0  0
  147.5314  141.5716  153.6613 C   0  0  0  0  0  0  0  0  0  0  0  0
  148.5212  140.9415  154.6533 C   0  0  1  0  0  0  0  0  0  0  0  0
  149.1005  141.9799  155.5000 N   0  0  0  0  0  0  0  0  0  0  0  0
  149.9410  141.7633  156.5220 C   0  0  0  0  0  0  0  0  0  0  0  0
  150.2999  140.6410  156.8778 O   0  0  0  0  0  0  0  0  0  0  0  0
  150.3092  142.9197  157.1003 N   0  0  0  0  0  0  0  0  0  0  0  0
  151.2126  143.1253  158.1783 C   0  0  0  0  0  0  0  0  0  0  0  0
  151.4518  144.4524  158.5909 C   0  0  0  0  0  0  0  0  0  0  0  0
  152.3575  144.6828  159.6455 C   0  0  0  0  0  0  0  0  0  0  0  0
  153.0225  143.6954  160.2813 N   0  0  0  0  0  0  0  0  0  0  0  0
  152.8036  142.4267  159.8750 C   0  0  0  0  0  0  0  0  0  0  0  0
  151.9185  142.0870  158.8321 C   0  0  0  0  0  0  0  0  0  0  0  0
  147.7961  139.8804  155.5009 C   0  0  0  0  0  0  0  0  0  0  0  0
  147.0930  138.8424  154.6098 C   0  0  0  0  0  0  0  0  0  0  0  0
  147.2611  136.0675  151.6478 H   0  0  0  0  0  0  0  0  0  0  0  0
  144.5561  139.0162  152.3509 H   0  0  0  0  0  0  0  0  0  0  0  0
  144.8770  137.7927  153.5585 H   0  0  0  0  0  0  0  0  0  0  0  0
  147.5741  139.9907  152.1753 H   0  0  0  0  0  0  0  0  0  0  0  0
  146.1293  140.9782  152.1388 H   0  0  0  0  0  0  0  0  0  0  0  0
  148.0496  142.2787  153.0126 H   0  0  0  0  0  0  0  0  0  0  0  0
  146.7748  142.1437  154.2007 H   0  0  0  0  0  0  0  0  0  0  0  0
  149.3166  140.4588  154.0816 H   0  0  0  0  0  0  0  0  0  0  0  0
  148.8533  142.9345  155.2832 H   0  0  0  0  0  0  0  0  0  0  0  0
  149.8587  143.7534  156.7525 H   0  0  0  0  0  0  0  0  0  0  0  0
  150.9496  145.2819  158.1151 H   0  0  0  0  0  0  0  0  0  0  0  0
  152.5547  145.6889  159.9849 H   0  0  0  0  0  0  0  0  0  0  0  0
  153.3565  141.6568  160.3924 H   0  0  0  0  0  0  0  0  0  0  0  0
  151.8117  141.0508  158.5510 H   0  0  0  0  0  0  0  0  0  0  0  0
  148.5035  139.3764  156.1608 H   0  0  0  0  0  0  0  0  0  0  0  0
  147.0592  140.3605  156.1467 H   0  0  0  0  0  0  0  0  0  0  0  0
  146.5525  138.1376  155.2428 H   0  0  0  0  0  0  0  0  0  0  0  0
  147.8303  138.2649  154.0495 H   0  0  0  0  0  0  0  0  0  0  0  0
  145.4829  139.9995  154.2290 H   0  0  0  0  0  0  0  0  0  0  0  0
  1  2  1  0  0  0  0
  1 21  1  0  0  0  0
  2  3  2  0  0  0  0
  2  4  1  0  0  0  0
  4  5  1  0  0  0  0
  4 22  1  0  0  0  0
  4 23  1  0  0  0  0
  5 20  1  0  0  0  0
  5  6  1  0  0  0  0
  5 39  1  0  0  0  0
  6  7  1  0  0  0  0
  6 24  1  0  0  0  0
  6 25  1  0  0  0  0
  7  8  1  0  0  0  0
  7 26  1  0  0  0  0
  7 27  1  0  0  0  0
  8  9  1  0  0  0  0
  8 19  1  0  0  0  0
  8 28  1  0  0  0  0
  9 10  1  0  0  0  0
  9 29  1  0  0  0  0
 10 11  2  0  0  0  0
 10 12  1  0  0  0  0
 12 13  1  0  0  0  0
 12 30  1  0  0  0  0
 13 18  1  0  0  0  0
 13 14  2  0  0  0  0
 14 15  1  0  0  0  0
 14 31  1  0  0  0  0
 15 16  2  0  0  0  0
 15 32  1  0  0  0  0
 16 17  1  0  0  0  0
 17 18  2  0  0  0  0
 17 33  1  0  0  0  0
 18 34  1  0  0  0  0
 19 20  1  0  0  0  0
 19 35  1  0  0  0  0
 19 36  1  0  0  0  0
 20 37  1  0  0  0  0
 20 38  1  0  0  0  0
M  CHG  1   1  -1
M  CHG  1   5   1
M  END
> <s_m_source_file>
AV-unprocessed.smi

> <i_m_source_file_index>
1410

> <i_lp_mmshare_version>
43012

> <i_f3d_flags>
0

> <s_epik_input>
W05IMl1DKD1PKVtDSDJdTjFbQ0gyXVtDSDJdW0NIXShbQ0gyXVtDSDJdMSlbTkhdQyg9TylbTkhdYzJbY0hdW2NIXW5bY0hdW2NIXTI=

> <s_epik_cmdline>
J2VwaWtfcHl0aG9uJywgJy1waCcsICc3LjAnLCAnLXRuJywgJzgnLCAnLW1hJywgJzIwMCcsICctbWV0YWxfYmluZGluZycsICctaW1hZScsICc8aW5maWxlLm1hZT4nLCAnLW9tYWUnLCAnPG91dGZpbGUubWFlPic=

> <r_epik_Ionization_Penalty>
5.8279

> <r_epik_Ionization_Penalty_Charging>
5.7288

> <r_epik_Ionization_Penalty_Neutral>
0.0990993

> <r_epik_State_Penalty>
6.63321

> <r_epik_Charging_Adjusted_Penalty>
12.362

> <i_epik_Tot_Q>
0

> <i_epik_Tot_abs_Q>
2

> <r_epik_Metal_State_Penalty>
2.69435

> <b_epik_Metal_Only>
1

> <s_lp_Force_Field>
OPLS_2005

> <r_lp_Energy>
12.3591

> <b_lp_Chiralities_Consistent>
1

> <s_lp_Variant>
AV-unprocessed.smi:1410-7

> <Gold.Version>
5.8.1

> <Gold.Id.Protein>
6NUR|6NUR_protein|mol2

> <Gold.PLP.Fitness>
42.7507

> <Gold.PLP.PLP>
-31.9018

> <Gold.PLP.part.hbond>
-4.6689

> <Gold.PLP.part.metal>
0.0000

> <Gold.PLP.part.buried>
-0.0441

> <Gold.PLP.part.nonpolar>
-28.3816

> <Gold.PLP.part.repulsive>
0.5674

> <Gold.PLP.ligand.clash>
0.0000

> <Gold.PLP.ligand.torsion>
0.1424

> <Gold.PLP.Chemscore.Hbond>
3.7040

> <Gold.PLP.Chemscore.CHOScore>
0.0000

> <Gold.PLP.Chemscore.Metal>
0.0000

> <Gold.Chemscore.Hbonds>
donor molecule, donor type, donor heavy atom, donor atom, acceptor molecule, acceptor atom, score
      L1  H     1    21       P1  7948  0.66
      L1  H     9    29       P1  8028  1.00
      L1  H    12    30       P1  8028  1.00
      P1  H  7954  7966       L1     3  0.99

> <Gold.PLP.Chemscore.Internal.Correction>
0.0217

> <Gold.Rescore>
     Score         DG    S(hbond)    S(metal)    S(lipo)     H(rot)  DE(clash)    DE(int)     intcor
     17.92     -23.17       3.58        0.00      91.51       1.94       2.48       2.78       ----

> <Gold.Chemscore.Fitness>
17.9167

> <Gold.Chemscore.DG>
-23.1744

> <Gold.Chemscore.ZeroCoef>
-5.4800

> <Gold.Chemscore.Hbond>
3.5761

> <Gold.Chemscore.Metal>
0.0000

> <Gold.Chemscore.Lipo>
91.5100

> <Gold.Chemscore.Internal_Hbond>
0.0000

> <Gold.Chemscore.DEClash>
2.4764

> <Gold.Chemscore.DEInternal>
2.7812

> <Gold.Chemscore.Rot>
1.9361

> <Gold.Chemscore.Internal.Correction>
   9.000000E+99

> <Gold.Chemscore.Hbonds>
donor molecule, donor type, donor heavy atom, donor atom, acceptor molecule, acceptor atom, score
      L1  H     1    21       P1  7948  0.66
      L1  H     9    29       P1  8028  0.96
      L1  H    12    30       P1  8028  0.99
      P1  H  7954  7966       L1     3  0.92

> <Gold.Chemscore.Hbond.Weighted>
-11.9440

> <Gold.Chemscore.Metal.Weighted>
-0.0000

> <Gold.Chemscore.Lipo.Weighted>
-10.7067

> <Gold.Chemscore.Internal_Hbond.Weighted>
0.0000

> <Gold.Chemscore.DEClash.Weighted>
2.4764

> <Gold.Chemscore.DEInternal.Weighted>
2.7812

> <Gold.Chemscore.Rot.Weighted>
4.9563

> <Gold.Chemscore.Internal.Correction.Weighted>
   9.000000E+99

> <Gold.Protein.RotatedTorsions>
[ 6907 6896 6895 6894 ] final   95.97 input  -60.11 | X-H torsion
[ 7974 7965 7964 7962 ] final   71.41 input  175.53 | X-H torsion
[ 8008 7997 7996 7995 ] final   21.52 input   59.86 | X-H torsion
[ 10167 10162 10161 10158 ] final   13.30 input  -65.29 | X-H torsion
[ 10718 10713 10712 10709 ] final  176.00 input   66.30 | X-H torsion
[ 10763 10752 10751 10750 ] final  111.57 input  -60.55 | X-H torsion
[ 11005 11000 10999 10996 ] final  -63.35 input  -57.11 | X-H torsion

> <Gold.Protein.ActiveResidues>
 VAL166  LYS551  ARG553  GLY616  TRP617  ASP618  TYR619  PRO620  LYS621  CYS622 
 ASP623  PHE694  ASN695  SER759  ASP760  ASP761  ALA762  ILE779  LEU786  VAL792 
 PHE793  MET794  SER795  GLU796  ALA797  LYS798  CYS799  TRP800  GLU811  SER814 

> <Gold.Protein.RotatedAtoms>
  152.5439  134.0958  159.8296 H   0  0  0  0  0  0  0  0  0  0  0  0  # atno 6907 bound_to 6896
  151.1042  133.5214  159.2616 H   0  0  0  0  0  0  0  0  0  0  0  0  # atno 6908 bound_to 6896
  151.1957  135.0430  159.8905 H   0  0  0  0  0  0  0  0  0  0  0  0  # atno 6909 bound_to 6896
  145.7662  139.2822  143.1348 H   0  0  0  0  0  0  0  0  0  0  0  0  # atno 7974 bound_to 7965
  154.9519  140.3067  155.5071 H   0  0  0  0  0  0  0  0  0  0  0  0  # atno 8008 bound_to 7997
  156.2986  140.2317  156.4535 H   0  0  0  0  0  0  0  0  0  0  0  0  # atno 8009 bound_to 7997
  154.8047  140.0432  157.1287 H   0  0  0  0  0  0  0  0  0  0  0  0  # atno 8010 bound_to 7997
  140.6012  143.8601  150.6967 H   0  0  0  0  0  0  0  0  0  0  0  0  # atno 10167 bound_to 10162
  156.9266  130.9957  151.2995 H   0  0  0  0  0  0  0  0  0  0  0  0  # atno 10718 bound_to 10713
  153.4653  135.3713  155.2361 H   0  0  0  0  0  0  0  0  0  0  0  0  # atno 10763 bound_to 10752
  154.8757  135.3918  154.3876 H   0  0  0  0  0  0  0  0  0  0  0  0  # atno 10764 bound_to 10752
  153.4456  135.7085  153.6206 H   0  0  0  0  0  0  0  0  0  0  0  0  # atno 10765 bound_to 10752
  141.1390  133.6651  156.5667 H   0  0  0  0  0  0  0  0  0  0  0  0  # atno 11005 bound_to 11000
  146.0216  140.8343  142.9921 LP  0  0  0  0  0  0  0  0  0  0  0  0  # atno 17320 bound_to 7965
  144.6821  140.2636  143.7315 LP  0  0  0  0  0  0  0  0  0  0  0  0  # atno 17321 bound_to 7965
  140.2148  143.3855  152.1690 LP  0  0  0  0  0  0  0  0  0  0  0  0  # atno 17342 bound_to 10162
  139.5292  144.7139  151.5117 LP  0  0  0  0  0  0  0  0  0  0  0  0  # atno 17343 bound_to 10162
  157.5874  130.8419  149.8609 LP  0  0  0  0  0  0  0  0  0  0  0  0  # atno 17370 bound_to 10713
  156.0466  130.3726  150.1302 LP  0  0  0  0  0  0  0  0  0  0  0  0  # atno 17371 bound_to 10713
  140.3945  134.7411  157.4742 LP  0  0  0  0  0  0  0  0  0  0  0  0  # atno 17394 bound_to 11000
  140.0541  134.6088  155.8826 LP  0  0  0  0  0  0  0  0  0  0  0  0  # atno 17395 bound_to 11000

$$$$
