AV-unprocessed.smi:820|AV-procd|sdf|3836|dock9
  -GOLD-   22720 1283D 1   1.00000     0.00000
 Structure written by MMmdl.
 32 33  0  0  0  0  0  0  0  0  1 V2000
  151.5550  143.6499  157.9376 C   0  0  0  0  0  0  0  0  0  0  0  0
  151.0126  142.2407  157.6838 C   0  0  0  0  0  0  0  0  0  0  0  0
  150.6313  141.9824  155.9284 S   0  0  0  0  0  0  0  0  0  0  0  0
  150.2509  140.2709  155.6969 C   0  0  0  0  0  0  0  0  0  0  0  0
  150.2181  139.3490  156.7642 C   0  0  0  0  0  0  0  0  0  0  0  0
  149.9055  138.0066  156.4746 C   0  0  0  0  0  0  0  0  0  0  0  0
  149.6303  137.6395  155.1348 C   0  0  0  0  0  0  0  0  0  0  0  0
  149.3237  136.3178  154.7113 N   0  0  0  0  0  0  0  0  0  0  0  0
  149.2977  135.1803  155.4323 C   0  0  0  0  0  0  0  0  0  0  0  0
  149.5276  135.1265  156.6410 O   0  0  0  0  0  0  0  0  0  0  0  0
  148.9408  134.0343  154.6042 C   0  0  0  0  0  0  0  0  0  0  0  0
  149.7867  132.9811  154.5247 C   0  0  0  0  0  0  0  0  0  0  0  0
  149.5217  131.8428  153.8053 O   0  0  0  0  0  0  0  0  0  0  0  0
  148.1789  131.7288  153.3495 C   0  0  0  0  0  0  0  0  0  0  0  0
  147.6683  133.0872  152.8479 C   0  0  0  0  0  0  0  0  0  0  0  0
  147.7685  134.0625  153.8802 O   0  0  0  0  0  0  0  0  0  0  0  0
  149.7058  138.6456  154.1482 C   0  0  0  0  0  0  0  0  0  0  0  0
  150.0035  139.9351  154.4141 N   0  0  0  0  0  0  0  0  0  0  0  0
  151.7845  143.7941  158.9936 H   0  0  0  0  0  0  0  0  0  0  0  0
  150.8277  144.4085  157.6475 H   0  0  0  0  0  0  0  0  0  0  0  0
  152.4691  143.8275  157.3703 H   0  0  0  0  0  0  0  0  0  0  0  0
  151.7459  141.4985  158.0005 H   0  0  0  0  0  0  0  0  0  0  0  0
  150.1092  142.0801  158.2727 H   0  0  0  0  0  0  0  0  0  0  0  0
  150.4285  139.6429  157.7807 H   0  0  0  0  0  0  0  0  0  0  0  0
  149.8982  137.2896  157.2803 H   0  0  0  0  0  0  0  0  0  0  0  0
  149.0352  136.2280  153.7475 H   0  0  0  0  0  0  0  0  0  0  0  0
  150.7307  132.9080  155.0460 H   0  0  0  0  0  0  0  0  0  0  0  0
  148.1334  130.9857  152.5534 H   0  0  0  0  0  0  0  0  0  0  0  0
  147.5526  131.3649  154.1652 H   0  0  0  0  0  0  0  0  0  0  0  0
  148.2460  133.4175  151.9832 H   0  0  0  0  0  0  0  0  0  0  0  0
  146.6287  133.0106  152.5295 H   0  0  0  0  0  0  0  0  0  0  0  0
  149.5178  138.4105  153.1106 H   0  0  0  0  0  0  0  0  0  0  0  0
  1  2  1  0  0  0  0
  1 19  1  0  0  0  0
  1 20  1  0  0  0  0
  1 21  1  0  0  0  0
  2  3  1  0  0  0  0
  2 22  1  0  0  0  0
  2 23  1  0  0  0  0
  3  4  1  0  0  0  0
  4 18  1  0  0  0  0
  4  5  2  0  0  0  0
  5  6  1  0  0  0  0
  5 24  1  0  0  0  0
  6  7  2  0  0  0  0
  6 25  1  0  0  0  0
  7  8  1  0  0  0  0
  7 17  1  0  0  0  0
  8  9  1  0  0  0  0
  8 26  1  0  0  0  0
  9 10  2  0  0  0  0
  9 11  1  0  0  0  0
 11 16  1  0  0  0  0
 11 12  2  0  0  0  0
 12 13  1  0  0  0  0
 12 27  1  0  0  0  0
 13 14  1  0  0  0  0
 14 15  1  0  0  0  0
 14 28  1  0  0  0  0
 14 29  1  0  0  0  0
 15 16  1  0  0  0  0
 15 30  1  0  0  0  0
 15 31  1  0  0  0  0
 17 18  2  0  0  0  0
 17 32  1  0  0  0  0
M  END
> <s_m_source_file>
AV-unprocessed.smi

> <i_m_source_file_index>
820

> <i_lp_mmshare_version>
43012

> <i_f3d_flags>
0

> <s_epik_input>
W0NIM11bQ0gyXVNjMVtjSF1bY0hdYyhbY0hdbjEpW05IXUMoPU8pQzI9W0NIXU9bQ0gyXVtDSDJdTzI=

> <s_epik_cmdline>
J2VwaWtfcHl0aG9uJywgJy1waCcsICc3LjAnLCAnLXRuJywgJzgnLCAnLW1hJywgJzIwMCcsICctbWV0YWxfYmluZGluZycsICctaW1hZScsICc8aW5maWxlLm1hZT4nLCAnLW9tYWUnLCAnPG91dGZpbGUubWFlPic=

> <r_lp_tautomer_probability>
1

> <r_epik_Ionization_Penalty>
8.32294e-05

> <r_epik_Ionization_Penalty_Charging>
0

> <r_epik_Ionization_Penalty_Neutral>
8.32294e-05

> <r_epik_State_Penalty>
-0

> <r_epik_Charging_Adjusted_Penalty>
0

> <i_epik_Tot_Q>
0

> <i_epik_Tot_abs_Q>
0

> <r_epik_Metal_State_Penalty>
0.0397586

> <b_epik_Metal_Only>
0

> <s_lp_Force_Field>
OPLS_2005

> <r_lp_Energy>
6.19244

> <b_lp_Chiralities_Consistent>
1

> <s_lp_Variant>
AV-unprocessed.smi:820-1

> <Gold.Version>
5.8.1

> <Gold.Id.Protein>
6NUR|6NUR_protein|mol2

> <Gold.PLP.Fitness>
36.6564

> <Gold.PLP.PLP>
-27.3485

> <Gold.PLP.part.hbond>
-2.0000

> <Gold.PLP.part.metal>
0.0000

> <Gold.PLP.part.buried>
-3.5287

> <Gold.PLP.part.nonpolar>
-22.1928

> <Gold.PLP.part.repulsive>
0.9326

> <Gold.PLP.ligand.clash>
0.0000

> <Gold.PLP.ligand.torsion>
1.0854

> <Gold.PLP.Chemscore.Hbond>
2.0000

> <Gold.PLP.Chemscore.CHOScore>
1.8250

> <Gold.PLP.Chemscore.Metal>
0.0000

> <Gold.Chemscore.Hbonds>
donor molecule, donor type, donor heavy atom, donor atom, acceptor molecule, acceptor atom, score
      L1  H     8    26       P1  7948  1.00
      P1  H  7989  7998       L1    18  0.88
      L1  C    17    32       P1  7948  0.99
      L1  C    17    32       P1  7957  0.94

> <Gold.PLP.Chemscore.Internal.Correction>
0.0038

> <Gold.Rescore>
     Score         DG    S(hbond)    S(metal)    S(lipo)     H(rot)  DE(clash)    DE(int)     intcor
     14.62     -17.30       1.91        0.00      71.36       1.14       0.24       2.44       ----

> <Gold.Chemscore.Fitness>
14.6182

> <Gold.Chemscore.DG>
-17.2970

> <Gold.Chemscore.ZeroCoef>
-5.4800

> <Gold.Chemscore.Hbond>
1.9143

> <Gold.Chemscore.Metal>
0.0000

> <Gold.Chemscore.Lipo>
71.3592

> <Gold.Chemscore.Internal_Hbond>
0.0000

> <Gold.Chemscore.DEClash>
0.2370

> <Gold.Chemscore.DEInternal>
2.4418

> <Gold.Chemscore.Rot>
1.1429

> <Gold.Chemscore.Internal.Correction>
   9.000000E+99

> <Gold.Chemscore.Hbonds>
donor molecule, donor type, donor heavy atom, donor atom, acceptor molecule, acceptor atom, score
      L1  H     8    26       P1  7948  0.98
      P1  H  7989  7998       L1    18  0.21

> <Gold.Chemscore.Hbond.Weighted>
-6.3938

> <Gold.Chemscore.Metal.Weighted>
-0.0000

> <Gold.Chemscore.Lipo.Weighted>
-8.3490

> <Gold.Chemscore.Internal_Hbond.Weighted>
0.0000

> <Gold.Chemscore.DEClash.Weighted>
0.2370

> <Gold.Chemscore.DEInternal.Weighted>
2.4418

> <Gold.Chemscore.Rot.Weighted>
2.9259

> <Gold.Chemscore.Internal.Correction.Weighted>
   9.000000E+99

> <Gold.Protein.RotatedTorsions>
[ 6907 6896 6895 6894 ] final -124.78 input  -60.11 | X-H torsion
[ 7974 7965 7964 7962 ] final  154.40 input  175.53 | X-H torsion
[ 8008 7997 7996 7995 ] final  -20.67 input   59.86 | X-H torsion
[ 10167 10162 10161 10158 ] final  103.17 input  -65.29 | X-H torsion
[ 10718 10713 10712 10709 ] final  171.36 input   66.30 | X-H torsion
[ 10763 10752 10751 10750 ] final -133.72 input  -60.55 | X-H torsion
[ 11005 11000 10999 10996 ] final  -43.60 input  -57.11 | X-H torsion

> <Gold.Protein.ActiveResidues>
 VAL166  LYS551  ARG553  GLY616  TRP617  ASP618  TYR619  PRO620  LYS621  CYS622 
 ASP623  PHE694  ASN695  SER759  ASP760  ASP761  ALA762  ILE779  LEU786  VAL792 
 PHE793  MET794  SER795  GLU796  ALA797  LYS798  CYS799  TRP800  GLU811  SER814 

> <Gold.Protein.RotatedAtoms>
  150.8802  133.7383  159.2934 H   0  0  0  0  0  0  0  0  0  0  0  0  # atno 6907 bound_to 6896
  151.4967  135.1058  159.9827 H   0  0  0  0  0  0  0  0  0  0  0  0  # atno 6908 bound_to 6896
  152.4754  133.8081  159.7044 H   0  0  0  0  0  0  0  0  0  0  0  0  # atno 6909 bound_to 6896
  144.8091  139.6928  143.6149 H   0  0  0  0  0  0  0  0  0  0  0  0  # atno 7974 bound_to 7965
  154.4755  140.2055  155.9889 H   0  0  0  0  0  0  0  0  0  0  0  0  # atno 8008 bound_to 7997
  156.1082  140.3233  155.8005 H   0  0  0  0  0  0  0  0  0  0  0  0  # atno 8009 bound_to 7997
  155.4681  140.0529  157.2973 H   0  0  0  0  0  0  0  0  0  0  0  0  # atno 8010 bound_to 7997
  139.7286  144.7041  151.0758 H   0  0  0  0  0  0  0  0  0  0  0  0  # atno 10167 bound_to 10162
  156.9947  131.0158  151.2847 H   0  0  0  0  0  0  0  0  0  0  0  0  # atno 10718 bound_to 10713
  154.8729  135.3757  154.4619 H   0  0  0  0  0  0  0  0  0  0  0  0  # atno 10763 bound_to 10752
  153.5286  135.7028  153.5700 H   0  0  0  0  0  0  0  0  0  0  0  0  # atno 10764 bound_to 10752
  153.3914  135.3971  155.1891 H   0  0  0  0  0  0  0  0  0  0  0  0  # atno 10765 bound_to 10752
  141.0395  133.6786  156.2756 H   0  0  0  0  0  0  0  0  0  0  0  0  # atno 11005 bound_to 11000
  146.2387  139.5958  142.9506 LP  0  0  0  0  0  0  0  0  0  0  0  0  # atno 17320 bound_to 7965
  145.5366  141.0423  143.2353 LP  0  0  0  0  0  0  0  0  0  0  0  0  # atno 17321 bound_to 7965
  140.7767  143.5072  150.9697 LP  0  0  0  0  0  0  0  0  0  0  0  0  # atno 17342 bound_to 10162
  139.8760  143.7132  152.3162 LP  0  0  0  0  0  0  0  0  0  0  0  0  # atno 17343 bound_to 10162
  157.5433  130.8134  149.8055 LP  0  0  0  0  0  0  0  0  0  0  0  0  # atno 17370 bound_to 10713
  156.0193  130.3801  150.2010 LP  0  0  0  0  0  0  0  0  0  0  0  0  # atno 17371 bound_to 10713
  140.6261  134.5312  157.5554 LP  0  0  0  0  0  0  0  0  0  0  0  0  # atno 17394 bound_to 11000
  139.9265  134.8046  156.1054 LP  0  0  0  0  0  0  0  0  0  0  0  0  # atno 17395 bound_to 11000

$$$$
