AV-unprocessed.smi:3105|AV-procd|sdf|11821|dock2
  -GOLD-   2272017193D 1   1.00000     0.00000
 Structure written by MMmdl.
 34 34  0  0  0  0  0  0  0  0  2 V2000
  150.8406  141.9052  157.4067 C   0  0  0  0  0  0  0  0  0  0  0  0
  152.1342  141.2969  157.9891 C   0  0  2  0  0  0  0  0  0  0  0  0
  152.1265  139.8265  157.8134 N   0  3  0  0  0  0  0  0  0  0  0  0
  152.0267  139.3531  156.4143 C   0  0  0  0  0  0  0  0  0  0  0  0
  151.3159  137.9884  156.3158 C   0  0  0  0  0  0  0  0  0  0  0  0
  151.1012  137.4829  154.8825 C   0  0  0  0  0  0  0  0  0  0  0  0
  149.8366  137.2900  154.5005 N   0  0  0  0  0  0  0  0  0  0  0  0
  152.0492  137.2691  154.1286 O   0  0  0  0  0  0  0  0  0  0  0  0
  152.3397  141.6421  159.4888 C   0  0  1  0  0  0  0  0  0  0  0  0
  153.6739  141.1038  160.0417 C   0  0  0  0  0  0  0  0  0  0  0  0
  152.2326  143.0729  159.7477 N   0  0  0  0  0  0  0  0  0  0  0  0
  152.2087  143.7204  160.9660 C   0  0  0  0  0  0  0  0  0  0  0  0
  152.0954  145.0579  160.7160 C   0  0  0  0  0  0  0  0  0  0  0  0
  152.0582  145.1348  159.2960 C   0  0  0  0  0  0  0  0  0  0  0  0
  152.1396  143.9468  158.7193 N   0  0  0  0  0  0  0  0  0  0  0  0
  150.8455  142.9940  157.4575 H   0  0  0  0  0  0  0  0  0  0  0  0
  149.9621  141.5523  157.9481 H   0  0  0  0  0  0  0  0  0  0  0  0
  150.7059  141.6470  156.3569 H   0  0  0  0  0  0  0  0  0  0  0  0
  152.9819  141.7011  157.4332 H   0  0  0  0  0  0  0  0  0  0  0  0
  152.9927  139.4678  158.1893 H   0  0  0  0  0  0  0  0  0  0  0  0
  151.5033  140.0861  155.8000 H   0  0  0  0  0  0  0  0  0  0  0  0
  153.0331  139.2650  156.0034 H   0  0  0  0  0  0  0  0  0  0  0  0
  151.9091  137.2440  156.8483 H   0  0  0  0  0  0  0  0  0  0  0  0
  150.3511  138.0332  156.8229 H   0  0  0  0  0  0  0  0  0  0  0  0
  149.6312  136.9640  153.5669 H   0  0  0  0  0  0  0  0  0  0  0  0
  149.0840  137.4774  155.1478 H   0  0  0  0  0  0  0  0  0  0  0  0
  151.5364  141.1658  160.0536 H   0  0  0  0  0  0  0  0  0  0  0  0
  153.7277  140.0173  159.9747 H   0  0  0  0  0  0  0  0  0  0  0  0
  153.7956  141.3681  161.0928 H   0  0  0  0  0  0  0  0  0  0  0  0
  154.5271  141.5111  159.4982 H   0  0  0  0  0  0  0  0  0  0  0  0
  152.2717  143.1821  161.9004 H   0  0  0  0  0  0  0  0  0  0  0  0
  152.0468  145.8597  161.4379 H   0  0  0  0  0  0  0  0  0  0  0  0
  151.9742  146.0122  158.6717 H   0  0  0  0  0  0  0  0  0  0  0  0
  151.3614  139.4401  158.3483 H   0  0  0  0  0  0  0  0  0  0  0  0
  1  2  1  0  0  0  0
  1 16  1  0  0  0  0
  1 17  1  0  0  0  0
  1 18  1  0  0  0  0
  2  3  1  0  0  0  0
  2  9  1  0  0  0  0
  2 19  1  0  0  0  0
  3  4  1  0  0  0  0
  3 20  1  0  0  0  0
  3 34  1  0  0  0  0
  4  5  1  0  0  0  0
  4 21  1  0  0  0  0
  4 22  1  0  0  0  0
  5  6  1  0  0  0  0
  5 23  1  0  0  0  0
  5 24  1  0  0  0  0
  6  7  1  0  0  0  0
  6  8  2  0  0  0  0
  7 25  1  0  0  0  0
  7 26  1  0  0  0  0
  9 10  1  0  0  0  0
  9 11  1  0  0  0  0
  9 27  1  0  0  0  0
 10 28  1  0  0  0  0
 10 29  1  0  0  0  0
 10 30  1  0  0  0  0
 11 15  1  0  0  0  0
 11 12  1  0  0  0  0
 12 13  2  0  0  0  0
 12 31  1  0  0  0  0
 13 14  1  0  0  0  0
 13 32  1  0  0  0  0
 14 15  2  0  0  0  0
 14 33  1  0  0  0  0
M  CHG  1   3   1
M  END
> <s_m_source_file>
AV-unprocessed.smi

> <i_m_source_file_index>
3105

> <i_lp_mmshare_version>
43012

> <i_f3d_flags>
0

> <s_epik_input>
W05IMl1DKD1PKVtDSDJdW0NIMl1bTkhdW0NAQEhdKFtDSDNdKVtDQEhdKFtDSDNdKW4xW2NIXVtjSF1bY0hdbjE=

> <s_epik_cmdline>
J2VwaWtfcHl0aG9uJywgJy1waCcsICc3LjAnLCAnLXRuJywgJzgnLCAnLW1hJywgJzIwMCcsICctbWV0YWxfYmluZGluZycsICctaW1hZScsICc8aW5maWxlLm1hZT4nLCAnLW9tYWUnLCAnPG91dGZpbGUubWFlPic=

> <r_lp_tautomer_probability>
1

> <r_epik_Ionization_Penalty>
0.00475669

> <r_epik_Ionization_Penalty_Charging>
0.00474654

> <r_epik_Ionization_Penalty_Neutral>
1.01546e-05

> <r_epik_State_Penalty>
-0

> <r_epik_Charging_Adjusted_Penalty>
0.00474654

> <i_epik_Tot_Q>
1

> <i_epik_Tot_abs_Q>
1

> <r_epik_Metal_State_Penalty>
-0

> <b_epik_Metal_Only>
0

> <s_lp_Force_Field>
OPLS_2005

> <r_lp_Energy>
6.92169

> <b_lp_Chiralities_Consistent>
1

> <s_lp_Variant>
AV-unprocessed.smi:3105-3

> <Gold.Version>
5.8.1

> <Gold.Id.Protein>
6NUR|6NUR_protein|mol2

> <Gold.PLP.Fitness>
38.9323

> <Gold.PLP.PLP>
-33.6183

> <Gold.PLP.part.hbond>
-2.0000

> <Gold.PLP.part.metal>
0.0000

> <Gold.PLP.part.buried>
-6.5704

> <Gold.PLP.part.nonpolar>
-26.1325

> <Gold.PLP.part.repulsive>
0.5548

> <Gold.PLP.ligand.clash>
0.0000

> <Gold.PLP.ligand.torsion>
0.2847

> <Gold.PLP.Chemscore.Hbond>
1.8960

> <Gold.PLP.Chemscore.CHOScore>
0.0000

> <Gold.PLP.Chemscore.Metal>
0.0000

> <Gold.Chemscore.Hbonds>
donor molecule, donor type, donor heavy atom, donor atom, acceptor molecule, acceptor atom, score
      L1  H     7    25       P1  7948  1.00
      P1  H 10752 10765       L1     8  0.96

> <Gold.PLP.Chemscore.Internal.Correction>
0.1953

> <Gold.Rescore>
     Score         DG    S(hbond)    S(metal)    S(lipo)     H(rot)  DE(clash)    DE(int)     intcor
     11.81     -13.98       1.86        0.00      81.87       2.85       0.27       1.90       ----

> <Gold.Chemscore.Fitness>
11.8089

> <Gold.Chemscore.DG>
-13.9781

> <Gold.Chemscore.ZeroCoef>
-5.4800

> <Gold.Chemscore.Hbond>
1.8587

> <Gold.Chemscore.Metal>
0.0000

> <Gold.Chemscore.Lipo>
81.8729

> <Gold.Chemscore.Internal_Hbond>
0.0000

> <Gold.Chemscore.DEClash>
0.2661

> <Gold.Chemscore.DEInternal>
1.9032

> <Gold.Chemscore.Rot>
2.8473

> <Gold.Chemscore.Internal.Correction>
   9.000000E+99

> <Gold.Chemscore.Hbonds>
donor molecule, donor type, donor heavy atom, donor atom, acceptor molecule, acceptor atom, score
      L1  H     7    25       P1  7948  0.74
      P1  H 10752 10765       L1     8  0.92

> <Gold.Chemscore.Hbond.Weighted>
-6.2082

> <Gold.Chemscore.Metal.Weighted>
-0.0000

> <Gold.Chemscore.Lipo.Weighted>
-9.5791

> <Gold.Chemscore.Internal_Hbond.Weighted>
0.0000

> <Gold.Chemscore.DEClash.Weighted>
0.2661

> <Gold.Chemscore.DEInternal.Weighted>
1.9032

> <Gold.Chemscore.Rot.Weighted>
7.2892

> <Gold.Chemscore.Internal.Correction.Weighted>
   9.000000E+99

> <Gold.Protein.RotatedTorsions>
[ 6907 6896 6895 6894 ] final  -83.67 input  -60.11 | X-H torsion
[ 7974 7965 7964 7962 ] final  -46.04 input  175.53 | X-H torsion
[ 8008 7997 7996 7995 ] final  -83.96 input   59.86 | X-H torsion
[ 10167 10162 10161 10158 ] final  -71.59 input  -65.29 | X-H torsion
[ 10718 10713 10712 10709 ] final  -44.71 input   66.30 | X-H torsion
[ 10763 10752 10751 10750 ] final  150.43 input  -60.55 | X-H torsion
[ 11005 11000 10999 10996 ] final -153.55 input  -57.11 | X-H torsion

> <Gold.Protein.ActiveResidues>
 VAL166  LYS551  ARG553  GLY616  TRP617  ASP618  TYR619  PRO620  LYS621  CYS622 
 ASP623  PHE694  ASN695  SER759  ASP760  ASP761  ALA762  ILE779  LEU786  VAL792 
 PHE793  MET794  SER795  GLU796  ALA797  LYS798  CYS799  TRP800  GLU811  SER814 

> <Gold.Protein.RotatedAtoms>
  150.6883  134.3476  159.4894 H   0  0  0  0  0  0  0  0  0  0  0  0  # atno 6907 bound_to 6896
  152.1321  134.9124  160.0567 H   0  0  0  0  0  0  0  0  0  0  0  0  # atno 6908 bound_to 6896
  152.0290  133.3895  159.4326 H   0  0  0  0  0  0  0  0  0  0  0  0  # atno 6909 bound_to 6896
  145.9760  140.7334  142.9387 H   0  0  0  0  0  0  0  0  0  0  0  0  # atno 7974 bound_to 7965
  154.6247  140.0611  156.9658 H   0  0  0  0  0  0  0  0  0  0  0  0  # atno 8008 bound_to 7997
  155.1762  140.3295  155.4365 H   0  0  0  0  0  0  0  0  0  0  0  0  # atno 8009 bound_to 7997
  156.2450  140.1905  156.6861 H   0  0  0  0  0  0  0  0  0  0  0  0  # atno 8010 bound_to 7997
  140.5261  143.2326  151.7345 H   0  0  0  0  0  0  0  0  0  0  0  0  # atno 10167 bound_to 10162
  156.2358  130.4176  149.8820 H   0  0  0  0  0  0  0  0  0  0  0  0  # atno 10718 bound_to 10713
  154.0873  135.2855  155.3278 H   0  0  0  0  0  0  0  0  0  0  0  0  # atno 10763 bound_to 10752
  154.6644  135.5323  153.8061 H   0  0  0  0  0  0  0  0  0  0  0  0  # atno 10764 bound_to 10752
  153.0426  135.6542  154.1044 H   0  0  0  0  0  0  0  0  0  0  0  0  # atno 10765 bound_to 10752
  140.7070  134.3875  157.5203 H   0  0  0  0  0  0  0  0  0  0  0  0  # atno 11005 bound_to 11000
  144.6849  140.2828  143.7289 LP  0  0  0  0  0  0  0  0  0  0  0  0  # atno 17320 bound_to 7965
  145.7838  139.1901  143.2142 LP  0  0  0  0  0  0  0  0  0  0  0  0  # atno 17321 bound_to 7965
  139.4939  144.4184  152.0005 LP  0  0  0  0  0  0  0  0  0  0  0  0  # atno 17342 bound_to 10162
  140.3283  144.3346  150.5993 LP  0  0  0  0  0  0  0  0  0  0  0  0  # atno 17343 bound_to 10162
  156.6418  130.8708  151.3515 LP  0  0  0  0  0  0  0  0  0  0  0  0  # atno 17370 bound_to 10713
  157.7153  130.9490  150.1235 LP  0  0  0  0  0  0  0  0  0  0  0  0  # atno 17371 bound_to 10713
  139.8882  134.8863  156.2489 LP  0  0  0  0  0  0  0  0  0  0  0  0  # atno 17394 bound_to 11000
  141.0117  133.7092  156.1122 LP  0  0  0  0  0  0  0  0  0  0  0  0  # atno 17395 bound_to 11000

$$$$
