AV-unprocessed.smi:1648|AV-procd|sdf|6627|dock3
  -GOLD-   22720 7323D 1   1.00000     0.00000
 Structure written by MMmdl.
 42 42  0  0  0  0  0  0  0  0  2 V2000
  148.1714  141.5500  154.3093 C   0  0  0  0  0  0  0  0  0  0  0  0
  148.7525  140.1422  154.4545 C   0  0  0  0  0  0  0  0  0  0  0  0
  149.9694  139.9840  154.3954 O   0  0  0  0  0  0  0  0  0  0  0  0
  147.9215  139.1022  154.6415 N   0  0  0  0  0  0  0  0  0  0  0  0
  148.2857  137.6920  154.8007 C   0  0  2  0  0  0  0  0  0  0  0  0
  147.0319  136.8586  154.4797 C   0  0  0  0  0  0  0  0  0  0  0  0
  145.9728  137.0732  155.0713 O   0  0  0  0  0  0  0  0  0  0  0  0
  147.1658  135.9215  153.5276 N   0  0  0  0  0  0  0  0  0  0  0  0
  146.0988  135.0540  153.0299 C   0  0  2  0  0  0  0  0  0  0  0  0
  145.4467  134.3383  154.2203 C   0  0  0  0  0  0  0  0  0  0  0  0
  146.6428  134.0417  151.9968 C   0  0  0  0  0  0  0  0  0  0  0  0
  145.6142  133.5569  151.0685 N   0  0  0  0  0  0  0  0  0  0  0  0
  145.7627  132.6153  150.0822 C   0  0  0  0  0  0  0  0  0  0  0  0
  144.5353  132.4747  149.4875 C   0  0  0  0  0  0  0  0  0  0  0  0
  143.6925  133.3434  150.1271 N   0  3  0  0  0  0  0  0  0  0  0  0
  144.3529  134.0085  151.0802 C   0  0  0  0  0  0  0  0  0  0  0  0
  148.7271  137.4470  156.2735 C   0  0  0  0  0  0  0  0  0  0  0  0
  149.1372  135.9803  156.5107 C   0  0  0  0  0  0  0  0  0  0  0  0
  147.6417  137.8394  157.2976 C   0  0  0  0  0  0  0  0  0  0  0  0
  147.6005  141.6312  153.3840 H   0  0  0  0  0  0  0  0  0  0  0  0
  148.9689  142.2932  154.2788 H   0  0  0  0  0  0  0  0  0  0  0  0
  147.5170  141.7970  155.1446 H   0  0  0  0  0  0  0  0  0  0  0  0
  146.9314  139.3001  154.6214 H   0  0  0  0  0  0  0  0  0  0  0  0
  149.1059  137.4211  154.1334 H   0  0  0  0  0  0  0  0  0  0  0  0
  148.0757  135.8084  153.1044 H   0  0  0  0  0  0  0  0  0  0  0  0
  145.3237  135.6599  152.5569 H   0  0  0  0  0  0  0  0  0  0  0  0
  144.6210  133.7058  153.8932 H   0  0  0  0  0  0  0  0  0  0  0  0
  145.0459  135.0549  154.9380 H   0  0  0  0  0  0  0  0  0  0  0  0
  146.1625  133.7051  154.7455 H   0  0  0  0  0  0  0  0  0  0  0  0
  147.4599  134.4774  151.4190 H   0  0  0  0  0  0  0  0  0  0  0  0
  147.0485  133.1662  152.5051 H   0  0  0  0  0  0  0  0  0  0  0  0
  146.7033  132.1200  149.8898 H   0  0  0  0  0  0  0  0  0  0  0  0
  144.2071  131.8380  148.6789 H   0  0  0  0  0  0  0  0  0  0  0  0
  143.9420  134.7540  151.7369 H   0  0  0  0  0  0  0  0  0  0  0  0
  149.6058  138.0597  156.4830 H   0  0  0  0  0  0  0  0  0  0  0  0
  148.3139  135.2998  156.2909 H   0  0  0  0  0  0  0  0  0  0  0  0
  149.4323  135.8180  157.5479 H   0  0  0  0  0  0  0  0  0  0  0  0
  149.9849  135.6876  155.8913 H   0  0  0  0  0  0  0  0  0  0  0  0
  146.7154  137.2917  157.1206 H   0  0  0  0  0  0  0  0  0  0  0  0
  147.4107  138.9043  157.2662 H   0  0  0  0  0  0  0  0  0  0  0  0
  147.9658  137.6189  158.3152 H   0  0  0  0  0  0  0  0  0  0  0  0
  142.7110  133.4671  149.9112 H   0  0  0  0  0  0  0  0  0  0  0  0
  1  2  1  0  0  0  0
  1 20  1  0  0  0  0
  1 21  1  0  0  0  0
  1 22  1  0  0  0  0
  2  3  2  0  0  0  0
  2  4  1  0  0  0  0
  4  5  1  0  0  0  0
  4 23  1  0  0  0  0
  5  6  1  0  0  0  0
  5 17  1  0  0  0  0
  5 24  1  0  0  0  0
  6  7  2  0  0  0  0
  6  8  1  0  0  0  0
  8  9  1  0  0  0  0
  8 25  1  0  0  0  0
  9 10  1  0  0  0  0
  9 11  1  0  0  0  0
  9 26  1  0  0  0  0
 10 27  1  0  0  0  0
 10 28  1  0  0  0  0
 10 29  1  0  0  0  0
 11 12  1  0  0  0  0
 11 30  1  0  0  0  0
 11 31  1  0  0  0  0
 12 16  1  0  0  0  0
 12 13  1  0  0  0  0
 13 14  2  0  0  0  0
 13 32  1  0  0  0  0
 14 15  1  0  0  0  0
 14 33  1  0  0  0  0
 15 16  2  0  0  0  0
 15 42  1  0  0  0  0
 16 34  1  0  0  0  0
 17 18  1  0  0  0  0
 17 19  1  0  0  0  0
 17 35  1  0  0  0  0
 18 36  1  0  0  0  0
 18 37  1  0  0  0  0
 18 38  1  0  0  0  0
 19 39  1  0  0  0  0
 19 40  1  0  0  0  0
 19 41  1  0  0  0  0
M  CHG  1  15   1
M  END
> <s_m_source_file>
AV-unprocessed.smi

> <i_m_source_file_index>
1648

> <i_lp_mmshare_version>
43012

> <i_f3d_flags>
0

> <s_epik_input>
W0NIM11DKD1PKVtOSF1bQ0BASF0oW0NIXShbQ0gzXSlbQ0gzXSlDKD1PKVtOSF1bQ0BIXShbQ0gzXSlbQ0gyXW4xW2NIXVtjSF1uW2NIXTE=

> <s_epik_cmdline>
J2VwaWtfcHl0aG9uJywgJy1waCcsICc3LjAnLCAnLXRuJywgJzgnLCAnLW1hJywgJzIwMCcsICctbWV0YWxfYmluZGluZycsICctaW1hZScsICc8aW5maWxlLm1hZT4nLCAnLW9tYWUnLCAnPG91dGZpbGUubWFlPic=

> <r_lp_tautomer_probability>
1

> <r_epik_Ionization_Penalty>
0.251562

> <r_epik_Ionization_Penalty_Charging>
0

> <r_epik_Ionization_Penalty_Neutral>
0.251562

> <r_epik_State_Penalty>
0.242926

> <r_epik_Charging_Adjusted_Penalty>
0.242926

> <i_epik_Tot_Q>
1

> <i_epik_Tot_abs_Q>
1

> <r_epik_Metal_State_Penalty>
0.53388

> <b_epik_Metal_Only>
0

> <s_lp_Force_Field>
OPLS_2005

> <r_lp_Energy>
9.98337

> <b_lp_Chiralities_Consistent>
1

> <s_lp_Variant>
AV-unprocessed.smi:1648-1

> <Gold.Version>
5.8.1

> <Gold.Id.Protein>
6NUR|6NUR_protein|mol2

> <Gold.PLP.Fitness>
38.0177

> <Gold.PLP.PLP>
-24.7761

> <Gold.PLP.part.hbond>
-2.7860

> <Gold.PLP.part.metal>
0.0000

> <Gold.PLP.part.buried>
-3.5215

> <Gold.PLP.part.nonpolar>
-18.5404

> <Gold.PLP.part.repulsive>
0.2035

> <Gold.PLP.ligand.clash>
0.0000

> <Gold.PLP.ligand.torsion>
0.6229

> <Gold.PLP.Chemscore.Hbond>
3.8000

> <Gold.PLP.Chemscore.CHOScore>
0.9997

> <Gold.PLP.Chemscore.Metal>
0.0000

> <Gold.Chemscore.Hbonds>
donor molecule, donor type, donor heavy atom, donor atom, acceptor molecule, acceptor atom, score
      L1  H     8    25       P1  7948  0.88
      L1  H    15    42       P1 10186  2.00
      P1  H  7989  7998       L1     3  0.88
      L1  C    13    32       P1 10747  0.79

> <Gold.PLP.Chemscore.Internal.Correction>
0.0883

> <Gold.Rescore>
     Score         DG    S(hbond)    S(metal)    S(lipo)     H(rot)  DE(clash)    DE(int)     intcor
     10.17     -13.22       2.77        0.00      44.19       2.61       0.01       3.04       ----

> <Gold.Chemscore.Fitness>
10.1686

> <Gold.Chemscore.DG>
-13.2237

> <Gold.Chemscore.ZeroCoef>
-5.4800

> <Gold.Chemscore.Hbond>
2.7739

> <Gold.Chemscore.Metal>
0.0000

> <Gold.Chemscore.Lipo>
44.1853

> <Gold.Chemscore.Internal_Hbond>
0.0000

> <Gold.Chemscore.DEClash>
0.0126

> <Gold.Chemscore.DEInternal>
3.0426

> <Gold.Chemscore.Rot>
2.6135

> <Gold.Chemscore.Internal.Correction>
   9.000000E+99

> <Gold.Chemscore.Hbonds>
donor molecule, donor type, donor heavy atom, donor atom, acceptor molecule, acceptor atom, score
      L1  H     8    25       P1  7948  0.84
      L1  H    15    42       P1 10186  0.97
      P1  H  7989  7998       L1     3  0.82

> <Gold.Chemscore.Hbond.Weighted>
-9.2647

> <Gold.Chemscore.Metal.Weighted>
-0.0000

> <Gold.Chemscore.Lipo.Weighted>
-5.1697

> <Gold.Chemscore.Internal_Hbond.Weighted>
0.0000

> <Gold.Chemscore.DEClash.Weighted>
0.0126

> <Gold.Chemscore.DEInternal.Weighted>
3.0426

> <Gold.Chemscore.Rot.Weighted>
6.6906

> <Gold.Chemscore.Internal.Correction.Weighted>
   9.000000E+99

> <Gold.Protein.RotatedTorsions>
[ 6907 6896 6895 6894 ] final  150.21 input  -60.11 | X-H torsion
[ 7974 7965 7964 7962 ] final   41.35 input  175.53 | X-H torsion
[ 8008 7997 7996 7995 ] final   99.98 input   59.86 | X-H torsion
[ 10167 10162 10161 10158 ] final  163.08 input  -65.29 | X-H torsion
[ 10718 10713 10712 10709 ] final  -77.56 input   66.30 | X-H torsion
[ 10763 10752 10751 10750 ] final  -21.39 input  -60.55 | X-H torsion
[ 11005 11000 10999 10996 ] final -133.42 input  -57.11 | X-H torsion

> <Gold.Protein.ActiveResidues>
 VAL166  LYS551  ARG553  GLY616  TRP617  ASP618  TYR619  PRO620  LYS621  CYS622 
 ASP623  PHE694  ASN695  SER759  ASP760  ASP761  ALA762  ILE779  LEU786  VAL792 
 PHE793  MET794  SER795  GLU796  ALA797  LYS798  CYS799  TRP800  GLU811  SER814 

> <Gold.Protein.RotatedAtoms>
  152.1175  133.4335  159.4659 H   0  0  0  0  0  0  0  0  0  0  0  0  # atno 6907 bound_to 6896
  150.6870  134.2574  159.4545 H   0  0  0  0  0  0  0  0  0  0  0  0  # atno 6908 bound_to 6896
  152.0448  134.9689  160.0625 H   0  0  0  0  0  0  0  0  0  0  0  0  # atno 6909 bound_to 6896
  146.0831  139.5426  142.9524 H   0  0  0  0  0  0  0  0  0  0  0  0  # atno 7974 bound_to 7965
  156.1159  140.3220  155.8138 H   0  0  0  0  0  0  0  0  0  0  0  0  # atno 8008 bound_to 7997
  155.4591  140.0538  157.3010 H   0  0  0  0  0  0  0  0  0  0  0  0  # atno 8009 bound_to 7997
  154.4792  140.2046  155.9818 H   0  0  0  0  0  0  0  0  0  0  0  0  # atno 8010 bound_to 7997
  139.4869  144.4373  151.8996 H   0  0  0  0  0  0  0  0  0  0  0  0  # atno 10167 bound_to 10162
  156.0141  130.4494  150.3363 H   0  0  0  0  0  0  0  0  0  0  0  0  # atno 10718 bound_to 10713
  153.6354  135.6987  153.5260 H   0  0  0  0  0  0  0  0  0  0  0  0  # atno 10763 bound_to 10752
  153.2825  135.4181  155.1091 H   0  0  0  0  0  0  0  0  0  0  0  0  # atno 10764 bound_to 10752
  154.8512  135.3605  154.5898 H   0  0  0  0  0  0  0  0  0  0  0  0  # atno 10765 bound_to 10752
  140.9082  134.1602  157.4409 H   0  0  0  0  0  0  0  0  0  0  0  0  # atno 11005 bound_to 11000
  145.6181  141.0327  143.1929 LP  0  0  0  0  0  0  0  0  0  0  0  0  # atno 17320 bound_to 7965
  144.7306  139.7736  143.7348 LP  0  0  0  0  0  0  0  0  0  0  0  0  # atno 17321 bound_to 7965
  140.3823  144.2720  150.5907 LP  0  0  0  0  0  0  0  0  0  0  0  0  # atno 17342 bound_to 10162
  140.5222  143.2263  151.8371 LP  0  0  0  0  0  0  0  0  0  0  0  0  # atno 17343 bound_to 10162
  157.1460  131.0309  151.2906 LP  0  0  0  0  0  0  0  0  0  0  0  0  # atno 17370 bound_to 10713
  157.4432  130.7556  149.7087 LP  0  0  0  0  0  0  0  0  0  0  0  0  # atno 17371 bound_to 10713
  139.8753  134.9925  156.5601 LP  0  0  0  0  0  0  0  0  0  0  0  0  # atno 17394 bound_to 11000
  140.8144  133.8404  155.8838 LP  0  0  0  0  0  0  0  0  0  0  0  0  # atno 17395 bound_to 11000

$$$$
