AV-unprocessed.smi:2886|AV-procd|sdf|11098|dock3
  -GOLD-   2272015563D 1   1.00000     0.00000
 Structure written by MMmdl.
 27 29  0  0  0  0  0  0  0  0  2 V2000
  151.5462  138.2112  154.5540 O   0  0  0  0  0  0  0  0  0  0  0  0
  151.1957  139.2920  155.0247 C   0  0  0  0  0  0  0  0  0  0  0  0
  150.4227  140.1752  154.3226 N   0  5  0  0  0  0  0  0  0  0  0  0
  150.0274  141.4301  154.9223 N   0  0  0  0  0  0  0  0  0  0  0  0
  150.3953  141.7390  156.1028 C   0  0  0  0  0  0  0  0  0  0  0  0
  151.2467  140.8477  156.9289 C   0  0  0  0  0  0  0  0  0  0  0  0
  151.6486  141.1830  158.2160 N   0  0  0  0  0  0  0  0  0  0  0  0
  151.3496  142.3853  158.9810 C   0  0  1  0  0  0  0  0  0  0  0  0
  152.1887  142.4925  160.2567 C   0  0  0  0  0  0  0  0  0  0  0  0
  152.8655  143.8568  160.0725 C   0  0  2  0  0  0  0  0  0  0  0  0
  151.8695  145.0201  160.1765 C   0  0  0  0  0  0  0  0  0  0  0  0
  151.1128  144.9031  158.8532 C   0  0  0  0  0  0  0  0  0  0  0  0
  151.7610  143.6607  158.2275 C   0  0  1  0  0  0  0  0  0  0  0  0
  153.0963  143.8334  158.6748 O   0  0  0  0  0  0  0  0  0  0  0  0
  151.6146  139.6608  156.3822 C   0  0  0  0  0  0  0  0  0  0  0  0
  152.5998  138.5456  157.2722 Cl  0  0  0  0  0  0  0  0  0  0  0  0
  150.0893  142.6824  156.5601 H   0  0  0  0  0  0  0  0  0  0  0  0
  152.3416  140.5812  158.6377 H   0  0  0  0  0  0  0  0  0  0  0  0
  150.2838  142.4318  159.2024 H   0  0  0  0  0  0  0  0  0  0  0  0
  151.5840  142.4443  161.1628 H   0  0  0  0  0  0  0  0  0  0  0  0
  152.9397  141.7028  160.3088 H   0  0  0  0  0  0  0  0  0  0  0  0
  153.7653  143.9882  160.6739 H   0  0  0  0  0  0  0  0  0  0  0  0
  151.2188  144.9297  161.0470 H   0  0  0  0  0  0  0  0  0  0  0  0
  152.3902  145.9764  160.2358 H   0  0  0  0  0  0  0  0  0  0  0  0
  150.0365  144.7913  158.9876 H   0  0  0  0  0  0  0  0  0  0  0  0
  151.2899  145.7830  158.2337 H   0  0  0  0  0  0  0  0  0  0  0  0
  151.6456  143.6051  157.1443 H   0  0  0  0  0  0  0  0  0  0  0  0
  1  2  2  0  0  0  0
  2 15  1  0  0  0  0
  2  3  1  0  0  0  0
  3  4  1  0  0  0  0
  4  5  2  0  0  0  0
  5  6  1  0  0  0  0
  5 17  1  0  0  0  0
  6  7  1  0  0  0  0
  6 15  2  0  0  0  0
  7  8  1  0  0  0  0
  7 18  1  0  0  0  0
  8 13  1  0  0  0  0
  8  9  1  0  0  0  0
  8 19  1  0  0  0  0
  9 10  1  0  0  0  0
  9 20  1  0  0  0  0
  9 21  1  0  0  0  0
 10 14  1  0  0  0  0
 10 11  1  0  0  0  0
 10 22  1  0  0  0  0
 11 12  1  0  0  0  0
 11 23  1  0  0  0  0
 11 24  1  0  0  0  0
 12 13  1  0  0  0  0
 12 25  1  0  0  0  0
 12 26  1  0  0  0  0
 13 14  1  0  0  0  0
 13 27  1  0  0  0  0
 15 16  1  0  0  0  0
M  CHG  1   3  -1
M  END
> <s_m_source_file>
AV-unprocessed.smi

> <i_m_source_file_index>
2886

> <i_lp_mmshare_version>
43012

> <i_f3d_flags>
0

> <s_epik_input>
Tz1jMVtuSF1uW2NIXWMoYzFDbClbTkhdW0NASF0oW0NIMl1bQ0BASF0yMylbQ0BASF0oTzMpW0NIMl1bQ0gyXTI=

> <s_epik_cmdline>
J2VwaWtfcHl0aG9uJywgJy1waCcsICc3LjAnLCAnLXRuJywgJzgnLCAnLW1hJywgJzIwMCcsICctbWV0YWxfYmluZGluZycsICctaW1hZScsICc8aW5maWxlLm1hZT4nLCAnLW9tYWUnLCAnPG91dGZpbGUubWFlPic=

> <r_lp_tautomer_probability>
0.986175

> <r_epik_Ionization_Penalty>
3.84253

> <r_epik_Ionization_Penalty_Charging>
0.0129711

> <r_epik_Ionization_Penalty_Neutral>
3.82956

> <r_epik_State_Penalty>
3.8249

> <r_epik_Charging_Adjusted_Penalty>
3.83787

> <i_epik_Tot_Q>
-1

> <i_epik_Tot_abs_Q>
1

> <r_epik_Metal_State_Penalty>
0.57612

> <b_epik_Metal_Only>
1

> <s_lp_Force_Field>
OPLS_2005

> <r_lp_Energy>
60.5374

> <b_lp_Chiralities_Consistent>
1

> <s_lp_Variant>
AV-unprocessed.smi:2886-12

> <Gold.Version>
5.8.1

> <Gold.Id.Protein>
6NUR|6NUR_protein|mol2

> <Gold.PLP.Fitness>
38.2016

> <Gold.PLP.PLP>
-33.5549

> <Gold.PLP.part.hbond>
-2.0000

> <Gold.PLP.part.metal>
0.0000

> <Gold.PLP.part.buried>
-4.6421

> <Gold.PLP.part.nonpolar>
-27.6811

> <Gold.PLP.part.repulsive>
0.4883

> <Gold.PLP.ligand.clash>
0.0000

> <Gold.PLP.ligand.torsion>
0.0639

> <Gold.PLP.Chemscore.Hbond>
0.5850

> <Gold.PLP.Chemscore.CHOScore>
1.0000

> <Gold.PLP.Chemscore.Metal>
0.0000

> <Gold.Chemscore.Hbonds>
donor molecule, donor type, donor heavy atom, donor atom, acceptor molecule, acceptor atom, score
      P1  H  7989  7998       L1     3  0.51
      L1  C     5    17       P1  8028  1.00

> <Gold.PLP.Chemscore.Internal.Correction>
0.0196

> <Gold.Rescore>
     Score         DG    S(hbond)    S(metal)    S(lipo)     H(rot)  DE(clash)    DE(int)     intcor
     13.55     -13.61       0.00        0.00      91.31       1.00       0.04       0.02       ----

> <Gold.Chemscore.Fitness>
13.5514

> <Gold.Chemscore.DG>
-13.6050

> <Gold.Chemscore.ZeroCoef>
-5.4800

> <Gold.Chemscore.Hbond>
0.0004

> <Gold.Chemscore.Metal>
0.0000

> <Gold.Chemscore.Lipo>
91.3141

> <Gold.Chemscore.Internal_Hbond>
0.0000

> <Gold.Chemscore.DEClash>
0.0354

> <Gold.Chemscore.DEInternal>
0.0182

> <Gold.Chemscore.Rot>
1.0000

> <Gold.Chemscore.Internal.Correction>
   9.000000E+99

> <Gold.Chemscore.Hbonds>
donor molecule, donor type, donor heavy atom, donor atom, acceptor molecule, acceptor atom, score
      P1  H  7989  7998       L1     3  0.01

> <Gold.Chemscore.Hbond.Weighted>
-0.0013

> <Gold.Chemscore.Metal.Weighted>
-0.0000

> <Gold.Chemscore.Lipo.Weighted>
-10.6837

> <Gold.Chemscore.Internal_Hbond.Weighted>
0.0000

> <Gold.Chemscore.DEClash.Weighted>
0.0354

> <Gold.Chemscore.DEInternal.Weighted>
0.0182

> <Gold.Chemscore.Rot.Weighted>
2.5600

> <Gold.Chemscore.Internal.Correction.Weighted>
   9.000000E+99

> <Gold.Protein.RotatedTorsions>
[ 6907 6896 6895 6894 ] final -112.62 input  -60.11 | X-H torsion
[ 7974 7965 7964 7962 ] final  108.29 input  175.53 | X-H torsion
[ 8008 7997 7996 7995 ] final -147.99 input   59.86 | X-H torsion
[ 10167 10162 10161 10158 ] final    9.30 input  -65.29 | X-H torsion
[ 10718 10713 10712 10709 ] final  -49.46 input   66.30 | X-H torsion
[ 10763 10752 10751 10750 ] final   62.02 input  -60.55 | X-H torsion
[ 11005 11000 10999 10996 ] final  162.70 input  -57.11 | X-H torsion

> <Gold.Protein.ActiveResidues>
 VAL166  LYS551  ARG553  GLY616  TRP617  ASP618  TYR619  PRO620  LYS621  CYS622 
 ASP623  PHE694  ASN695  SER759  ASP760  ASP761  ALA762  ILE779  LEU786  VAL792 
 PHE793  MET794  SER795  GLU796  ALA797  LYS798  CYS799  TRP800  GLU811  SER814 

> <Gold.Protein.RotatedAtoms>
  150.7771  133.9063  159.3356 H   0  0  0  0  0  0  0  0  0  0  0  0  # atno 6907 bound_to 6896
  151.6935  135.0940  160.0247 H   0  0  0  0  0  0  0  0  0  0  0  0  # atno 6908 bound_to 6896
  152.3810  133.6508  159.6197 H   0  0  0  0  0  0  0  0  0  0  0  0  # atno 6909 bound_to 6896
  145.2825  139.2627  143.3908 H   0  0  0  0  0  0  0  0  0  0  0  0  # atno 7974 bound_to 7965
  155.5844  140.0646  157.2775 H   0  0  0  0  0  0  0  0  0  0  0  0  # atno 8008 bound_to 7997
  154.4323  140.1846  156.1056 H   0  0  0  0  0  0  0  0  0  0  0  0  # atno 8009 bound_to 7997
  156.0281  140.3309  155.7113 H   0  0  0  0  0  0  0  0  0  0  0  0  # atno 8010 bound_to 7997
  140.6263  143.8093  150.7238 H   0  0  0  0  0  0  0  0  0  0  0  0  # atno 10167 bound_to 10162
  156.1891  130.4152  149.9397 H   0  0  0  0  0  0  0  0  0  0  0  0  # atno 10718 bound_to 10713
  152.9969  135.5480  154.6126 H   0  0  0  0  0  0  0  0  0  0  0  0  # atno 10763 bound_to 10752
  154.5444  135.2822  155.1069 H   0  0  0  0  0  0  0  0  0  0  0  0  # atno 10764 bound_to 10752
  154.2333  135.6429  153.5235 H   0  0  0  0  0  0  0  0  0  0  0  0  # atno 10765 bound_to 10752
  140.2283  134.8143  157.3291 H   0  0  0  0  0  0  0  0  0  0  0  0  # atno 11005 bound_to 11000
  146.3211  140.3296  142.8639 LP  0  0  0  0  0  0  0  0  0  0  0  0  # atno 17320 bound_to 7965
  144.9241  140.7901  143.5730 LP  0  0  0  0  0  0  0  0  0  0  0  0  # atno 17321 bound_to 7965
  140.1695  143.4207  152.2011 LP  0  0  0  0  0  0  0  0  0  0  0  0  # atno 17342 bound_to 10162
  139.5483  144.7317  151.4514 LP  0  0  0  0  0  0  0  0  0  0  0  0  # atno 17343 bound_to 10162
  156.7143  130.8982  151.3612 LP  0  0  0  0  0  0  0  0  0  0  0  0  # atno 17370 bound_to 10713
  157.6917  130.9241  150.0533 LP  0  0  0  0  0  0  0  0  0  0  0  0  # atno 17371 bound_to 10713
  140.1777  134.4529  155.7792 LP  0  0  0  0  0  0  0  0  0  0  0  0  # atno 17394 bound_to 11000
  141.2219  133.6969  156.7815 LP  0  0  0  0  0  0  0  0  0  0  0  0  # atno 17395 bound_to 11000

$$$$
