AV-unprocessed.smi:39|AV-procd|sdf|362|dock5
  -GOLD-   2262016203D 1   1.00000     0.00000
 Structure written by MMmdl.
 31 32  0  0  0  0  0  0  0  0  4 V2000
  152.2021  142.4460  160.0269 C   0  0  0  0  0  0  0  0  0  0  0  0
  151.8670  141.9520  158.6305 C   0  0  0  0  0  0  0  0  0  0  0  0
  152.1529  140.6955  158.2223 C   0  0  0  0  0  0  0  0  0  0  0  0
  151.8455  140.2484  156.9474 N   0  0  0  0  0  0  0  0  0  0  0  0
  152.1795  138.8410  156.4900 C   0  0  2  0  0  0  0  0  0  0  0  0
  150.9832  137.8950  156.7103 C   0  0  0  0  0  0  0  0  0  0  0  0
  151.6036  136.7278  157.4658 C   0  0  1  0  0  0  0  0  0  0  0  0
  152.1312  135.7139  156.5415 N   0  0  0  0  0  0  0  0  0  0  0  0
  151.7027  134.5610  156.6804 N   0  3  0  0  0  0  0  0  0  0  0  0
  151.4260  133.4690  156.8418 N   0  5  0  0  0  0  0  0  0  0  0  0
  152.7195  137.4449  158.2347 C   0  0  1  0  0  0  0  0  0  0  0  0
  153.8242  136.5315  158.7933 C   0  0  0  0  0  0  0  0  0  0  0  0
  153.2574  135.5257  159.6060 O   0  0  0  0  0  0  0  0  0  0  0  0
  153.2382  138.3294  157.2480 O   0  0  0  0  0  0  0  0  0  0  0  0
  151.2288  141.1359  156.0265 C   0  0  0  0  0  0  0  0  0  0  0  0
  150.9837  140.7151  154.8953 O   0  0  0  0  0  0  0  0  0  0  0  0
  150.9345  142.4044  156.4301 N   0  5  0  0  0  0  0  0  0  0  0  0
  151.2156  142.8642  157.6829 C   0  0  0  0  0  0  0  0  0  0  0  0
  150.9415  144.0111  158.0355 O   0  0  0  0  0  0  0  0  0  0  0  0
  152.4904  138.9358  155.4483 H   0  0  0  0  0  0  0  0  0  0  0  0
  150.8904  136.2834  158.1627 H   0  0  0  0  0  0  0  0  0  0  0  0
  152.2655  138.0208  159.0439 H   0  0  0  0  0  0  0  0  0  0  0  0
  152.6669  141.6613  160.6245 H   0  0  0  0  0  0  0  0  0  0  0  0
  151.2986  142.7727  160.5429 H   0  0  0  0  0  0  0  0  0  0  0  0
  152.8941  143.2871  159.9759 H   0  0  0  0  0  0  0  0  0  0  0  0
  152.6377  140.0337  158.9231 H   0  0  0  0  0  0  0  0  0  0  0  0
  150.2304  138.3844  157.3307 H   0  0  0  0  0  0  0  0  0  0  0  0
  150.5221  137.6198  155.7610 H   0  0  0  0  0  0  0  0  0  0  0  0
  154.3481  136.0348  157.9761 H   0  0  0  0  0  0  0  0  0  0  0  0
  154.5642  137.1002  159.3574 H   0  0  0  0  0  0  0  0  0  0  0  0
  153.6774  135.5512  160.4521 H   0  0  0  0  0  0  0  0  0  0  0  0
  1  2  1  0  0  0  0
  1 23  1  0  0  0  0
  1 24  1  0  0  0  0
  1 25  1  0  0  0  0
  2 18  1  0  0  0  0
  2  3  2  0  0  0  0
  3  4  1  0  0  0  0
  3 26  1  0  0  0  0
  4  5  1  0  0  0  0
  4 15  1  0  0  0  0
  5 20  1  0  0  0  0
  5 14  1  0  0  0  0
  5  6  1  0  0  0  0
  6  7  1  0  0  0  0
  6 27  1  0  0  0  0
  6 28  1  0  0  0  0
  7 21  1  0  0  0  0
  7  8  1  0  0  0  0
  7 11  1  0  0  0  0
  8  9  2  0  0  0  0
  9 10  2  0  0  0  0
 11 22  1  0  0  0  0
 11 12  1  0  0  0  0
 11 14  1  0  0  0  0
 12 13  1  0  0  0  0
 12 29  1  0  0  0  0
 12 30  1  0  0  0  0
 13 31  1  0  0  0  0
 15 16  2  0  0  0  0
 15 17  1  0  0  0  0
 17 18  1  0  0  0  0
 18 19  2  0  0  0  0
M  CHG  1   9   1
M  CHG  1  10  -1
M  CHG  1  17  -1
M  END
> <s_m_source_file>
AV-unprocessed.smi

> <i_m_source_file_index>
39

> <i_lp_mmshare_version>
43012

> <i_f3d_flags>
0

> <s_epik_input>
Tz1jMVtuSF1jKD1PKW4oW2NIXWMxW0NIM10pW0NASF0yW0NIMl1bQ0BIXShOPVtOK109W04tXSlbQ0BIXShPMilbQ0gyXVtPSF0=

> <s_epik_cmdline>
J2VwaWtfcHl0aG9uJywgJy1waCcsICc3LjAnLCAnLXRuJywgJzgnLCAnLW1hJywgJzIwMCcsICctbWV0YWxfYmluZGluZycsICctaW1hZScsICc8aW5maWxlLm1hZT4nLCAnLW9tYWUnLCAnPG91dGZpbGUubWFlPic=

> <r_lp_tautomer_probability>
0.999537

> <r_epik_Ionization_Penalty>
3.6393

> <r_epik_Ionization_Penalty_Charging>
9.76484e-08

> <r_epik_Ionization_Penalty_Neutral>
3.6393

> <r_epik_State_Penalty>
3.63887

> <r_epik_Charging_Adjusted_Penalty>
3.63887

> <i_epik_Tot_Q>
-1

> <i_epik_Tot_abs_Q>
3

> <r_epik_Metal_State_Penalty>
0.225911

> <b_epik_Metal_Only>
1

> <s_epik_Chemistry_Notes>
This compound contains an acetal/aminal-like group ( X-CH(R)-Y where X, Y are N, S, or O) that may be acid/base labile, releasing an aldehyde.

> <s_lp_Force_Field>
OPLS_2005

> <r_lp_Energy>
37.741

> <b_lp_Chiralities_Consistent>
1

> <s_lp_Variant>
AV-unprocessed.smi:39-12

> <Gold.Version>
5.8.1

> <Gold.Id.Protein>
6NUR|6NUR_protein|mol2

> <Gold.PLP.Fitness>
38.5306

> <Gold.PLP.PLP>
-26.2883

> <Gold.PLP.part.hbond>
-6.4065

> <Gold.PLP.part.metal>
0.0000

> <Gold.PLP.part.buried>
-5.7868

> <Gold.PLP.part.nonpolar>
-15.8085

> <Gold.PLP.part.repulsive>
0.3510

> <Gold.PLP.ligand.clash>
0.0000

> <Gold.PLP.ligand.torsion>
0.7540

> <Gold.PLP.Chemscore.Hbond>
4.5680

> <Gold.PLP.Chemscore.CHOScore>
0.0000

> <Gold.PLP.Chemscore.Metal>
0.0000

> <Gold.Chemscore.Hbonds>
donor molecule, donor type, donor heavy atom, donor atom, acceptor molecule, acceptor atom, score
      P1  H  6896  6907       L1    10  0.06
      P1  H  6896  6909       L1    13  0.19
      P1  H  7989  7998       L1    16  0.90
      P1  H  7997  8010       L1    14  0.50
      P1  H 10752 10764       L1     8  0.95

> <Gold.PLP.Chemscore.Internal.Correction>
0.0464

> <Gold.Rescore>
     Score         DG    S(hbond)    S(metal)    S(lipo)     H(rot)  DE(clash)    DE(int)     intcor
     11.74     -13.92       3.25        0.00      38.85       2.72       1.50       0.67       ----

> <Gold.Chemscore.Fitness>
11.7425

> <Gold.Chemscore.DG>
-13.9151

> <Gold.Chemscore.ZeroCoef>
-5.4800

> <Gold.Chemscore.Hbond>
3.2459

> <Gold.Chemscore.Metal>
0.0000

> <Gold.Chemscore.Lipo>
38.8454

> <Gold.Chemscore.Internal_Hbond>
0.0000

> <Gold.Chemscore.DEClash>
1.4992

> <Gold.Chemscore.DEInternal>
0.6734

> <Gold.Chemscore.Rot>
2.7153

> <Gold.Chemscore.Internal.Correction>
   9.000000E+99

> <Gold.Chemscore.Hbonds>
donor molecule, donor type, donor heavy atom, donor atom, acceptor molecule, acceptor atom, score
      P1  H  6896  6907       L1    10  0.02
      P1  H  6896  6909       L1    13  0.01
      P1  H  7989  7998       L1    16  0.83
      P1  H  7997  8010       L1    14  0.05
      P1  H 10752 10764       L1     8  0.22

> <Gold.Chemscore.Hbond.Weighted>
-10.8413

> <Gold.Chemscore.Metal.Weighted>
-0.0000

> <Gold.Chemscore.Lipo.Weighted>
-4.5449

> <Gold.Chemscore.Internal_Hbond.Weighted>
0.0000

> <Gold.Chemscore.DEClash.Weighted>
1.4992

> <Gold.Chemscore.DEInternal.Weighted>
0.6734

> <Gold.Chemscore.Rot.Weighted>
6.9512

> <Gold.Chemscore.Internal.Correction.Weighted>
   9.000000E+99

> <Gold.Protein.RotatedTorsions>
[ 6907 6896 6895 6894 ] final -173.40 input  -60.11 | X-H torsion
[ 7974 7965 7964 7962 ] final   -5.99 input  175.53 | X-H torsion
[ 8008 7997 7996 7995 ] final   42.63 input   59.86 | X-H torsion
[ 10167 10162 10161 10158 ] final -179.80 input  -65.29 | X-H torsion
[ 10718 10713 10712 10709 ] final  174.65 input   66.30 | X-H torsion
[ 10763 10752 10751 10750 ] final  -21.53 input  -60.55 | X-H torsion
[ 11005 11000 10999 10996 ] final   62.57 input  -57.11 | X-H torsion

> <Gold.Protein.ActiveResidues>
 VAL166  LYS551  ARG553  GLY616  TRP617  ASP618  TYR619  PRO620  LYS621  CYS622 
 ASP623  PHE694  ASN695  SER759  ASP760  ASP761  ALA762  ILE779  LEU786  VAL792 
 PHE793  MET794  SER795  GLU796  ALA797  LYS798  CYS799  TRP800  GLU811  SER814 

> <Gold.Protein.RotatedAtoms>
  151.5555  133.3411  159.2960 H   0  0  0  0  0  0  0  0  0  0  0  0  # atno 6907 bound_to 6896
  150.8453  134.7763  159.6977 H   0  0  0  0  0  0  0  0  0  0  0  0  # atno 6908 bound_to 6896
  152.4512  134.5397  159.9887 H   0  0  0  0  0  0  0  0  0  0  0  0  # atno 6909 bound_to 6896
  146.2341  140.2104  142.8335 H   0  0  0  0  0  0  0  0  0  0  0  0  # atno 7974 bound_to 7965
  155.2894  140.3378  155.4253 H   0  0  0  0  0  0  0  0  0  0  0  0  # atno 8008 bound_to 7997
  156.2053  140.1748  156.7853 H   0  0  0  0  0  0  0  0  0  0  0  0  # atno 8009 bound_to 7997
  154.5612  140.0687  156.8806 H   0  0  0  0  0  0  0  0  0  0  0  0  # atno 8010 bound_to 7997
  139.5370  144.2469  152.0815 H   0  0  0  0  0  0  0  0  0  0  0  0  # atno 10167 bound_to 10162
  156.9465  131.0018  151.2957 H   0  0  0  0  0  0  0  0  0  0  0  0  # atno 10718 bound_to 10713
  153.6376  135.6986  153.5253 H   0  0  0  0  0  0  0  0  0  0  0  0  # atno 10763 bound_to 10752
  153.2809  135.4186  155.1077 H   0  0  0  0  0  0  0  0  0  0  0  0  # atno 10764 bound_to 10752
  154.8507  135.3601  154.5919 H   0  0  0  0  0  0  0  0  0  0  0  0  # atno 10765 bound_to 10752
  140.0083  134.6335  155.9820 H   0  0  0  0  0  0  0  0  0  0  0  0  # atno 11005 bound_to 11000
  144.9711  140.8369  143.5455 LP  0  0  0  0  0  0  0  0  0  0  0  0  # atno 17320 bound_to 7965
  145.2086  139.2216  143.5155 LP  0  0  0  0  0  0  0  0  0  0  0  0  # atno 17321 bound_to 7965
  140.1942  144.4722  150.6464 LP  0  0  0  0  0  0  0  0  0  0  0  0  # atno 17342 bound_to 10162
  140.6581  143.2244  151.5920 LP  0  0  0  0  0  0  0  0  0  0  0  0  # atno 17343 bound_to 10162
  157.5750  130.8337  149.8443 LP  0  0  0  0  0  0  0  0  0  0  0  0  # atno 17370 bound_to 10713
  156.0381  130.3746  150.1506 LP  0  0  0  0  0  0  0  0  0  0  0  0  # atno 17371 bound_to 10713
  141.1693  133.6537  156.4592 LP  0  0  0  0  0  0  0  0  0  0  0  0  # atno 17394 bound_to 11000
  140.4601  134.6849  157.5081 LP  0  0  0  0  0  0  0  0  0  0  0  0  # atno 17395 bound_to 11000

$$$$
