AV-unprocessed.smi:1554|AV-procd|sdf|6241|dock7
  -GOLD-   22720 6423D 1   1.00000     0.00000
 Structure written by MMmdl.
 47 49  0  0  0  0  0  0  0  0  1 V2000
  153.3428  142.6051  162.1147 C   0  0  0  0  0  0  0  0  0  0  0  0
  152.7598  142.3368  160.7385 C   0  0  0  0  0  0  0  0  0  0  0  0
  153.1295  141.1573  160.0535 C   0  0  0  0  0  0  0  0  0  0  0  0
  152.6070  140.8692  158.7737 C   0  0  0  0  0  0  0  0  0  0  0  0
  152.8247  139.7880  157.9367 N   0  0  0  0  0  0  0  0  0  0  0  0
  152.0573  140.0964  156.8955 C   0  0  0  0  0  0  0  0  0  0  0  0
  151.3665  141.2509  156.9586 N   0  0  0  0  0  0  0  0  0  0  0  0
  150.4730  141.7884  155.9475 C   0  0  0  0  0  0  0  0  0  0  0  0
  149.0060  141.3786  156.1774 C   0  0  1  0  0  0  0  0  0  0  0  0
  148.4043  142.2947  157.0718 O   0  0  0  0  0  0  0  0  0  0  0  0
  148.2073  141.3816  154.8578 C   0  0  0  0  0  0  0  0  0  0  0  0
  147.7167  140.0771  154.4082 N   0  0  0  0  0  0  0  0  0  0  0  0
  146.5364  139.6778  155.1668 C   0  0  0  0  0  0  0  0  0  0  0  0
  145.9993  138.3086  154.7184 C   0  0  0  0  0  0  0  0  0  0  0  0
  145.7129  138.3458  153.3245 O   0  0  0  0  0  0  0  0  0  0  0  0
  146.8501  138.6814  152.5344 C   0  0  1  0  0  0  0  0  0  0  0  0
  146.4318  138.6764  151.0602 C   0  0  0  0  0  0  0  0  0  0  0  0
  147.3918  140.0535  152.9826 C   0  0  0  0  0  0  0  0  0  0  0  0
  151.6991  141.8018  158.1918 C   0  0  0  0  0  0  0  0  0  0  0  0
  151.3235  142.9785  158.8635 C   0  0  0  0  0  0  0  0  0  0  0  0
  151.8537  143.2503  160.1422 C   0  0  0  0  0  0  0  0  0  0  0  0
  151.4394  144.5220  160.8609 C   0  0  0  0  0  0  0  0  0  0  0  0
  154.0297  141.8141  162.4172 H   0  0  0  0  0  0  0  0  0  0  0  0
  152.5497  142.6628  162.8606 H   0  0  0  0  0  0  0  0  0  0  0  0
  153.8937  143.5460  162.1209 H   0  0  0  0  0  0  0  0  0  0  0  0
  153.8186  140.4607  160.5076 H   0  0  0  0  0  0  0  0  0  0  0  0
  151.9918  139.4450  156.0362 H   0  0  0  0  0  0  0  0  0  0  0  0
  150.5715  142.8747  155.9336 H   0  0  0  0  0  0  0  0  0  0  0  0
  150.8126  141.4344  154.9733 H   0  0  0  0  0  0  0  0  0  0  0  0
  148.9961  140.3912  156.6367 H   0  0  0  0  0  0  0  0  0  0  0  0
  148.5989  143.1717  156.7785 H   0  0  0  0  0  0  0  0  0  0  0  0
  147.3633  142.0627  154.9780 H   0  0  0  0  0  0  0  0  0  0  0  0
  148.8233  141.8162  154.0690 H   0  0  0  0  0  0  0  0  0  0  0  0
  146.7760  139.6371  156.2301 H   0  0  0  0  0  0  0  0  0  0  0  0
  145.7514  140.4271  155.0520 H   0  0  0  0  0  0  0  0  0  0  0  0
  146.7239  137.5203  154.9282 H   0  0  0  0  0  0  0  0  0  0  0  0
  145.0885  138.0609  155.2636 H   0  0  0  0  0  0  0  0  0  0  0  0
  147.6186  137.9208  152.6824 H   0  0  0  0  0  0  0  0  0  0  0  0
  147.2757  138.9152  150.4125 H   0  0  0  0  0  0  0  0  0  0  0  0
  145.6459  139.4080  150.8704 H   0  0  0  0  0  0  0  0  0  0  0  0
  146.0541  137.6971  150.7660 H   0  0  0  0  0  0  0  0  0  0  0  0
  146.6537  140.8260  152.7602 H   0  0  0  0  0  0  0  0  0  0  0  0
  148.2741  140.2842  152.3877 H   0  0  0  0  0  0  0  0  0  0  0  0
  150.6303  143.6643  158.3992 H   0  0  0  0  0  0  0  0  0  0  0  0
  150.7513  145.1141  160.2568 H   0  0  0  0  0  0  0  0  0  0  0  0
  152.3107  145.1407  161.0776 H   0  0  0  0  0  0  0  0  0  0  0  0
  150.9403  144.2836  161.8003 H   0  0  0  0  0  0  0  0  0  0  0  0
  1  2  1  0  0  0  0
  1 23  1  0  0  0  0
  1 24  1  0  0  0  0
  1 25  1  0  0  0  0
  2 21  1  0  0  0  0
  2  3  2  0  0  0  0
  3  4  1  0  0  0  0
  3 26  1  0  0  0  0
  4 19  2  0  0  0  0
  4  5  1  0  0  0  0
  5  6  2  0  0  0  0
  6  7  1  0  0  0  0
  6 27  1  0  0  0  0
  7  8  1  0  0  0  0
  7 19  1  0  0  0  0
  8  9  1  0  0  0  0
  8 28  1  0  0  0  0
  8 29  1  0  0  0  0
  9 10  1  0  0  0  0
  9 11  1  0  0  0  0
  9 30  1  0  0  0  0
 10 31  1  0  0  0  0
 11 12  1  0  0  0  0
 11 32  1  0  0  0  0
 11 33  1  0  0  0  0
 12 18  1  0  0  0  0
 12 13  1  0  0  0  0
 13 14  1  0  0  0  0
 13 34  1  0  0  0  0
 13 35  1  0  0  0  0
 14 15  1  0  0  0  0
 14 36  1  0  0  0  0
 14 37  1  0  0  0  0
 15 16  1  0  0  0  0
 16 17  1  0  0  0  0
 16 18  1  0  0  0  0
 16 38  1  0  0  0  0
 17 39  1  0  0  0  0
 17 40  1  0  0  0  0
 17 41  1  0  0  0  0
 18 42  1  0  0  0  0
 18 43  1  0  0  0  0
 19 20  1  0  0  0  0
 20 21  2  0  0  0  0
 20 44  1  0  0  0  0
 21 22  1  0  0  0  0
 22 45  1  0  0  0  0
 22 46  1  0  0  0  0
 22 47  1  0  0  0  0
M  END
> <s_m_source_file>
AV-unprocessed.smi

> <i_m_source_file_index>
1554

> <i_lp_mmshare_version>
43012

> <i_f3d_flags>
0

> <s_epik_input>
W0NIM11jKFtjSF0xKWMoW0NIM10pW2NIXWMoYzEyKW4oW2NIXW4yKVtDSDJdW0NASF0oW09IXSlbQ0gyXU4zW0NIMl1bQ0gyXU9bQ0BASF0oW0NIM10pW0NIMl0z

> <s_epik_cmdline>
J2VwaWtfcHl0aG9uJywgJy1waCcsICc3LjAnLCAnLXRuJywgJzgnLCAnLW1hJywgJzIwMCcsICctbWV0YWxfYmluZGluZycsICctaW1hZScsICc8aW5maWxlLm1hZT4nLCAnLW9tYWUnLCAnPG91dGZpbGUubWFlPic=

> <r_epik_Ionization_Penalty>
0.345108

> <r_epik_Ionization_Penalty_Charging>
0

> <r_epik_Ionization_Penalty_Neutral>
0.345108

> <r_epik_State_Penalty>
0.314544

> <r_epik_Charging_Adjusted_Penalty>
0.314544

> <i_epik_Tot_Q>
0

> <i_epik_Tot_abs_Q>
0

> <r_epik_Metal_State_Penalty>
0.239719

> <b_epik_Metal_Only>
0

> <s_lp_Force_Field>
OPLS_2005

> <r_lp_Energy>
29.8053

> <b_lp_Chiralities_Consistent>
1

> <s_lp_Variant>
AV-unprocessed.smi:1554-2

> <Gold.Version>
5.8.1

> <Gold.Id.Protein>
6NUR|6NUR_protein|mol2

> <Gold.PLP.Fitness>
44.0116

> <Gold.PLP.PLP>
-41.1112

> <Gold.PLP.part.hbond>
-2.0000

> <Gold.PLP.part.metal>
0.0000

> <Gold.PLP.part.buried>
0.2794

> <Gold.PLP.part.nonpolar>
-40.5988

> <Gold.PLP.part.repulsive>
1.0229

> <Gold.PLP.ligand.clash>
0.0000

> <Gold.PLP.ligand.torsion>
1.5618

> <Gold.PLP.Chemscore.Hbond>
2.0000

> <Gold.PLP.Chemscore.CHOScore>
0.0000

> <Gold.PLP.Chemscore.Metal>
0.0000

> <Gold.Chemscore.Hbonds>
donor molecule, donor type, donor heavy atom, donor atom, acceptor molecule, acceptor atom, score
      L1  H    10    31       P1  8028  1.00
      P1  H  7997  8010       L1     5  0.99

> <Gold.PLP.Chemscore.Internal.Correction>
0.0239

> <Gold.Rescore>
     Score         DG    S(hbond)    S(metal)    S(lipo)     H(rot)  DE(clash)    DE(int)     intcor
     15.04     -19.04       1.04        0.00     129.57       1.98       2.52       1.48       ----

> <Gold.Chemscore.Fitness>
15.0395

> <Gold.Chemscore.DG>
-19.0417

> <Gold.Chemscore.ZeroCoef>
-5.4800

> <Gold.Chemscore.Hbond>
1.0428

> <Gold.Chemscore.Metal>
0.0000

> <Gold.Chemscore.Lipo>
129.5713

> <Gold.Chemscore.Internal_Hbond>
0.0000

> <Gold.Chemscore.DEClash>
2.5216

> <Gold.Chemscore.DEInternal>
1.4805

> <Gold.Chemscore.Rot>
1.9848

> <Gold.Chemscore.Internal.Correction>
   9.000000E+99

> <Gold.Chemscore.Hbonds>
donor molecule, donor type, donor heavy atom, donor atom, acceptor molecule, acceptor atom, score
      L1  H    10    31       P1  8028  0.65
      P1  H  7997  8010       L1     5  0.13

> <Gold.Chemscore.Hbond.Weighted>
-3.4829

> <Gold.Chemscore.Metal.Weighted>
-0.0000

> <Gold.Chemscore.Lipo.Weighted>
-15.1598

> <Gold.Chemscore.Internal_Hbond.Weighted>
0.0000

> <Gold.Chemscore.DEClash.Weighted>
2.5216

> <Gold.Chemscore.DEInternal.Weighted>
1.4805

> <Gold.Chemscore.Rot.Weighted>
5.0810

> <Gold.Chemscore.Internal.Correction.Weighted>
   9.000000E+99

> <Gold.Protein.RotatedTorsions>
[ 6907 6896 6895 6894 ] final  -50.06 input  -60.11 | X-H torsion
[ 7974 7965 7964 7962 ] final   79.57 input  175.53 | X-H torsion
[ 8008 7997 7996 7995 ] final   27.75 input   59.86 | X-H torsion
[ 10167 10162 10161 10158 ] final   47.83 input  -65.29 | X-H torsion
[ 10718 10713 10712 10709 ] final   83.84 input   66.30 | X-H torsion
[ 10763 10752 10751 10750 ] final  -82.58 input  -60.55 | X-H torsion
[ 11005 11000 10999 10996 ] final   67.00 input  -57.11 | X-H torsion

> <Gold.Protein.ActiveResidues>
 VAL166  LYS551  ARG553  GLY616  TRP617  ASP618  TYR619  PRO620  LYS621  CYS622 
 ASP623  PHE694  ASN695  SER759  ASP760  ASP761  ALA762  ILE779  LEU786  VAL792 
 PHE793  MET794  SER795  GLU796  ALA797  LYS798  CYS799  TRP800  GLU811  SER814 

> <Gold.Protein.RotatedAtoms>
  150.8743  134.8123  159.7178 H   0  0  0  0  0  0  0  0  0  0  0  0  # atno 6907 bound_to 6896
  152.4736  134.4896  159.9701 H   0  0  0  0  0  0  0  0  0  0  0  0  # atno 6908 bound_to 6896
  151.4980  133.3472  159.2900 H   0  0  0  0  0  0  0  0  0  0  0  0  # atno 6909 bound_to 6896
  145.6624  139.2475  143.1915 H   0  0  0  0  0  0  0  0  0  0  0  0  # atno 7974 bound_to 7965
  155.0478  140.3176  155.4702 H   0  0  0  0  0  0  0  0  0  0  0  0  # atno 8008 bound_to 7997
  156.2841  140.2151  156.5546 H   0  0  0  0  0  0  0  0  0  0  0  0  # atno 8009 bound_to 7997
  154.7236  140.0487  157.0650 H   0  0  0  0  0  0  0  0  0  0  0  0  # atno 8010 bound_to 7997
  140.2996  144.2949  150.6222 H   0  0  0  0  0  0  0  0  0  0  0  0  # atno 10167 bound_to 10162
  157.6887  131.0108  150.2584 H   0  0  0  0  0  0  0  0  0  0  0  0  # atno 10718 bound_to 10713
  154.5775  135.5586  153.7153 H   0  0  0  0  0  0  0  0  0  0  0  0  # atno 10763 bound_to 10752
  153.0070  135.6312  154.2029 H   0  0  0  0  0  0  0  0  0  0  0  0  # atno 10764 bound_to 10752
  154.1969  135.2879  155.2983 H   0  0  0  0  0  0  0  0  0  0  0  0  # atno 10765 bound_to 10752
  139.9797  134.6764  156.0285 H   0  0  0  0  0  0  0  0  0  0  0  0  # atno 11005 bound_to 11000
  146.1114  140.7424  142.9501 LP  0  0  0  0  0  0  0  0  0  0  0  0  # atno 17320 bound_to 7965
  144.7084  140.3944  143.7100 LP  0  0  0  0  0  0  0  0  0  0  0  0  # atno 17321 bound_to 7965
  140.5662  143.2186  151.7679 LP  0  0  0  0  0  0  0  0  0  0  0  0  # atno 17342 bound_to 10162
  139.4918  144.4280  151.9904 LP  0  0  0  0  0  0  0  0  0  0  0  0  # atno 17343 bound_to 10162
  156.3168  130.3780  149.7611 LP  0  0  0  0  0  0  0  0  0  0  0  0  # atno 17370 bound_to 10713
  156.5194  130.8208  151.3198 LP  0  0  0  0  0  0  0  0  0  0  0  0  # atno 17371 bound_to 10713
  141.1471  133.6554  156.3899 LP  0  0  0  0  0  0  0  0  0  0  0  0  # atno 17394 bound_to 11000
  140.5121  134.6385  157.5288 LP  0  0  0  0  0  0  0  0  0  0  0  0  # atno 17395 bound_to 11000

$$$$
