AV-unprocessed.smi:3045|AV-procd|sdf|11609|dock6
  -GOLD-   2272016593D 1   1.00000     0.00000
 Structure written by MMmdl.
 35 36  0  0  0  0  0  0  0  0  1 V2000
  145.8170  143.2887  154.1095 C   0  0  0  0  0  0  0  0  0  0  0  0
  146.5732  142.0810  154.4110 N   0  0  0  0  0  0  0  0  0  0  0  0
  147.7065  141.6823  153.5946 C   0  0  0  0  0  0  0  0  0  0  0  0
  148.3287  140.4655  154.3143 C   0  0  1  0  0  0  0  0  0  0  0  0
  149.7038  140.7871  154.9203 C   0  0  0  0  0  0  0  0  0  0  0  0
  150.6920  140.1230  154.6050 O   0  0  0  0  0  0  0  0  0  0  0  0
  149.7505  141.8048  155.7935 N   0  0  0  0  0  0  0  0  0  0  0  0
  150.9513  142.2580  156.4847 C   0  0  0  0  0  0  0  0  0  0  0  0
  150.9370  141.8512  157.9671 C   0  0  0  0  0  0  0  0  0  0  0  0
  151.3146  143.0022  158.8778 C   0  0  0  0  0  0  0  0  0  0  0  0
  152.0951  142.7844  160.0318 C   0  0  0  0  0  0  0  0  0  0  0  0
  152.4233  143.8854  160.8460 C   0  0  0  0  0  0  0  0  0  0  0  0
  151.9561  145.1607  160.4696 C   0  0  0  0  0  0  0  0  0  0  0  0
  151.2095  145.3811  159.3660 N   0  0  0  0  0  0  0  0  0  0  0  0
  150.8987  144.3198  158.5911 C   0  0  0  0  0  0  0  0  0  0  0  0
  147.3070  140.0746  155.4019 C   0  0  0  0  0  0  0  0  0  0  0  0
  146.3018  141.2139  155.3900 C   0  0  0  0  0  0  0  0  0  0  0  0
  145.3767  141.2973  156.1964 O   0  0  0  0  0  0  0  0  0  0  0  0
  144.8086  143.0346  153.7816 H   0  0  0  0  0  0  0  0  0  0  0  0
  146.2959  143.8653  153.3178 H   0  0  0  0  0  0  0  0  0  0  0  0
  145.7421  143.9253  154.9918 H   0  0  0  0  0  0  0  0  0  0  0  0
  147.3547  141.4058  152.5998 H   0  0  0  0  0  0  0  0  0  0  0  0
  148.4043  142.5137  153.4778 H   0  0  0  0  0  0  0  0  0  0  0  0
  148.4374  139.6435  153.6044 H   0  0  0  0  0  0  0  0  0  0  0  0
  148.8932  142.2984  155.9960 H   0  0  0  0  0  0  0  0  0  0  0  0
  151.8396  141.8648  155.9871 H   0  0  0  0  0  0  0  0  0  0  0  0
  151.0016  143.3437  156.3977 H   0  0  0  0  0  0  0  0  0  0  0  0
  149.9476  141.4859  158.2457 H   0  0  0  0  0  0  0  0  0  0  0  0
  151.6291  141.0263  158.1418 H   0  0  0  0  0  0  0  0  0  0  0  0
  152.4379  141.7927  160.2884 H   0  0  0  0  0  0  0  0  0  0  0  0
  153.0188  143.7560  161.7375 H   0  0  0  0  0  0  0  0  0  0  0  0
  152.1893  146.0270  161.0707 H   0  0  0  0  0  0  0  0  0  0  0  0
  150.3019  144.5297  157.7154 H   0  0  0  0  0  0  0  0  0  0  0  0
  146.8019  139.1418  155.1498 H   0  0  0  0  0  0  0  0  0  0  0  0
  147.7435  139.9624  156.3959 H   0  0  0  0  0  0  0  0  0  0  0  0
  1  2  1  0  0  0  0
  1 19  1  0  0  0  0
  1 20  1  0  0  0  0
  1 21  1  0  0  0  0
  2 17  1  0  0  0  0
  2  3  1  0  0  0  0
  3  4  1  0  0  0  0
  3 22  1  0  0  0  0
  3 23  1  0  0  0  0
  4  5  1  0  0  0  0
  4 16  1  0  0  0  0
  4 24  1  0  0  0  0
  5  6  2  0  0  0  0
  5  7  1  0  0  0  0
  7  8  1  0  0  0  0
  7 25  1  0  0  0  0
  8  9  1  0  0  0  0
  8 26  1  0  0  0  0
  8 27  1  0  0  0  0
  9 10  1  0  0  0  0
  9 28  1  0  0  0  0
  9 29  1  0  0  0  0
 10 15  1  0  0  0  0
 10 11  2  0  0  0  0
 11 12  1  0  0  0  0
 11 30  1  0  0  0  0
 12 13  2  0  0  0  0
 12 31  1  0  0  0  0
 13 14  1  0  0  0  0
 13 32  1  0  0  0  0
 14 15  2  0  0  0  0
 15 33  1  0  0  0  0
 16 17  1  0  0  0  0
 16 34  1  0  0  0  0
 16 35  1  0  0  0  0
 17 18  2  0  0  0  0
M  END
> <s_m_source_file>
AV-unprocessed.smi

> <i_m_source_file_index>
3045

> <i_lp_mmshare_version>
43012

> <i_f3d_flags>
0

> <s_epik_input>
W0NIM11OMVtDSDJdW0NASF0oW0NIMl1DMT1PKUMoPU8pW05IXVtDSDJdW0NIMl1jMltjSF1bY0hdW2NIXW5bY0hdMg==

> <s_epik_cmdline>
J2VwaWtfcHl0aG9uJywgJy1waCcsICc3LjAnLCAnLXRuJywgJzgnLCAnLW1hJywgJzIwMCcsICctbWV0YWxfYmluZGluZycsICctaW1hZScsICc8aW5maWxlLm1hZT4nLCAnLW9tYWUnLCAnPG91dGZpbGUubWFlPic=

> <r_epik_Ionization_Penalty>
0.0130932

> <r_epik_Ionization_Penalty_Charging>
0

> <r_epik_Ionization_Penalty_Neutral>
0.0130932

> <r_epik_State_Penalty>
0.0101714

> <r_epik_Charging_Adjusted_Penalty>
0.0101714

> <i_epik_Tot_Q>
0

> <i_epik_Tot_abs_Q>
0

> <r_epik_Metal_State_Penalty>
0.00995082

> <b_epik_Metal_Only>
0

> <s_lp_Force_Field>
OPLS_2005

> <r_lp_Energy>
9.14953

> <b_lp_Chiralities_Consistent>
1

> <s_lp_Variant>
AV-unprocessed.smi:3045-1

> <Gold.Version>
5.8.1

> <Gold.Id.Protein>
6NUR|6NUR_protein|mol2

> <Gold.PLP.Fitness>
44.5350

> <Gold.PLP.PLP>
-39.6072

> <Gold.PLP.part.hbond>
-2.9198

> <Gold.PLP.part.metal>
0.0000

> <Gold.PLP.part.buried>
-6.0603

> <Gold.PLP.part.nonpolar>
-31.0274

> <Gold.PLP.part.repulsive>
0.4337

> <Gold.PLP.ligand.clash>
0.0000

> <Gold.PLP.ligand.torsion>
0.7454

> <Gold.PLP.Chemscore.Hbond>
1.0811

> <Gold.PLP.Chemscore.CHOScore>
1.0543

> <Gold.PLP.Chemscore.Metal>
0.0000

> <Gold.Chemscore.Hbonds>
donor molecule, donor type, donor heavy atom, donor atom, acceptor molecule, acceptor atom, score
      P1  H  7989  7998       L1     6  1.00
      L1  C    15    33       P1  8028  1.00
      L1  C    15    33       P1  8029  0.07

> <Gold.PLP.Chemscore.Internal.Correction>
0.0124

> <Gold.Rescore>
     Score         DG    S(hbond)    S(metal)    S(lipo)     H(rot)  DE(clash)    DE(int)     intcor
     14.80     -15.94       1.02        0.00      95.80       1.62       0.46       0.69       ----

> <Gold.Chemscore.Fitness>
14.7959

> <Gold.Chemscore.DG>
-15.9399

> <Gold.Chemscore.ZeroCoef>
-5.4800

> <Gold.Chemscore.Hbond>
1.0183

> <Gold.Chemscore.Metal>
0.0000

> <Gold.Chemscore.Lipo>
95.7997

> <Gold.Chemscore.Internal_Hbond>
0.0000

> <Gold.Chemscore.DEClash>
0.4580

> <Gold.Chemscore.DEInternal>
0.6860

> <Gold.Chemscore.Rot>
1.6210

> <Gold.Chemscore.Internal.Correction>
   9.000000E+99

> <Gold.Chemscore.Hbonds>
donor molecule, donor type, donor heavy atom, donor atom, acceptor molecule, acceptor atom, score
      L1  H     7    25       P1  8028  0.02
      P1  H  7989  7998       L1     6  0.85

> <Gold.Chemscore.Hbond.Weighted>
-3.4012

> <Gold.Chemscore.Metal.Weighted>
-0.0000

> <Gold.Chemscore.Lipo.Weighted>
-11.2086

> <Gold.Chemscore.Internal_Hbond.Weighted>
0.0000

> <Gold.Chemscore.DEClash.Weighted>
0.4580

> <Gold.Chemscore.DEInternal.Weighted>
0.6860

> <Gold.Chemscore.Rot.Weighted>
4.1498

> <Gold.Chemscore.Internal.Correction.Weighted>
   9.000000E+99

> <Gold.Protein.RotatedTorsions>
[ 6907 6896 6895 6894 ] final  -31.36 input  -60.11 | X-H torsion
[ 7974 7965 7964 7962 ] final  121.56 input  175.53 | X-H torsion
[ 8008 7997 7996 7995 ] final   75.46 input   59.86 | X-H torsion
[ 10167 10162 10161 10158 ] final  -19.34 input  -65.29 | X-H torsion
[ 10718 10713 10712 10709 ] final   60.66 input   66.30 | X-H torsion
[ 10763 10752 10751 10750 ] final -169.51 input  -60.55 | X-H torsion
[ 11005 11000 10999 10996 ] final  155.08 input  -57.11 | X-H torsion

> <Gold.Protein.ActiveResidues>
 VAL166  LYS551  ARG553  GLY616  TRP617  ASP618  TYR619  PRO620  LYS621  CYS622 
 ASP623  PHE694  ASN695  SER759  ASP760  ASP761  ALA762  ILE779  LEU786  VAL792 
 PHE793  MET794  SER795  GLU796  ALA797  LYS798  CYS799  TRP800  GLU811  SER814 

> <Gold.Protein.RotatedAtoms>
  151.0932  134.9928  159.8412 H   0  0  0  0  0  0  0  0  0  0  0  0  # atno 6907 bound_to 6896
  152.5431  134.2040  159.8733 H   0  0  0  0  0  0  0  0  0  0  0  0  # atno 6908 bound_to 6896
  151.2078  133.4529  159.2631 H   0  0  0  0  0  0  0  0  0  0  0  0  # atno 6909 bound_to 6896
  145.1179  139.3409  143.4729 H   0  0  0  0  0  0  0  0  0  0  0  0  # atno 7974 bound_to 7965
  155.8133  140.3472  155.5470 H   0  0  0  0  0  0  0  0  0  0  0  0  # atno 8008 bound_to 7997
  155.8418  140.0943  157.1750 H   0  0  0  0  0  0  0  0  0  0  0  0  # atno 8009 bound_to 7997
  154.4005  140.1393  156.3725 H   0  0  0  0  0  0  0  0  0  0  0  0  # atno 8010 bound_to 7997
  140.7267  143.4828  151.0095 H   0  0  0  0  0  0  0  0  0  0  0  0  # atno 10167 bound_to 10162
  157.5769  130.8951  149.9363 H   0  0  0  0  0  0  0  0  0  0  0  0  # atno 10718 bound_to 10713
  154.6515  135.2912  154.9981 H   0  0  0  0  0  0  0  0  0  0  0  0  # atno 10763 bound_to 10752
  154.1072  135.6568  153.4882 H   0  0  0  0  0  0  0  0  0  0  0  0  # atno 10764 bound_to 10752
  153.0379  135.5256  154.7425 H   0  0  0  0  0  0  0  0  0  0  0  0  # atno 10765 bound_to 10752
  140.1548  134.8650  157.2500 H   0  0  0  0  0  0  0  0  0  0  0  0  # atno 11005 bound_to 11000
  146.3523  140.1126  142.8603 LP  0  0  0  0  0  0  0  0  0  0  0  0  # atno 17320 bound_to 7965
  145.0773  140.9197  143.4846 LP  0  0  0  0  0  0  0  0  0  0  0  0  # atno 17321 bound_to 7965
  139.8528  143.7416  152.3177 LP  0  0  0  0  0  0  0  0  0  0  0  0  # atno 17342 bound_to 10162
  139.7604  144.7508  151.0372 LP  0  0  0  0  0  0  0  0  0  0  0  0  # atno 17343 bound_to 10162
  156.0814  130.3672  150.0573 LP  0  0  0  0  0  0  0  0  0  0  0  0  # atno 17370 bound_to 10713
  156.8718  130.9527  151.3608 LP  0  0  0  0  0  0  0  0  0  0  0  0  # atno 17371 bound_to 10713
  140.2561  134.3626  155.7424 LP  0  0  0  0  0  0  0  0  0  0  0  0  # atno 17394 bound_to 11000
  141.2203  133.7343  156.9009 LP  0  0  0  0  0  0  0  0  0  0  0  0  # atno 17395 bound_to 11000

$$$$
