AV-unprocessed.smi:273|AV-procd|sdf|2057|dock5
  -GOLD-   2262021303D 1   1.00000     0.00000
 Structure written by MMmdl.
 59 62  0  0  0  0  0  0  0  0  1 V2000
  146.4611  133.2340  150.6832 C   0  0  0  0  0  0  0  0  0  0  0  0
  146.4711  132.5364  152.0497 C   0  0  0  0  0  0  0  0  0  0  0  0
  147.7785  132.6330  152.6879 N   0  0  0  0  0  0  0  0  0  0  0  0
  148.0168  132.4465  153.9956 C   0  0  0  0  0  0  0  0  0  0  0  0
  147.1266  132.1852  154.8048 O   0  0  0  0  0  0  0  0  0  0  0  0
  149.4849  132.5712  154.4444 C   0  0  0  0  0  0  0  0  0  0  0  0
  149.6722  132.2844  155.9513 C   0  0  0  0  0  0  0  0  0  0  0  0
  149.2189  133.4499  156.8504 C   0  0  0  0  0  0  0  0  0  0  0  0
  149.8488  134.7041  156.4399 N   0  0  0  0  0  0  0  0  0  0  0  0
  149.7868  135.6966  157.3649 C   0  0  0  0  0  0  0  0  0  0  0  0
  149.1345  135.4887  158.5407 N   0  0  0  0  0  0  0  0  0  0  0  0
  149.0739  136.4550  159.4614 C   0  0  0  0  0  0  0  0  0  0  0  0
  149.5853  137.6862  159.4135 N   0  0  0  0  0  0  0  0  0  0  0  0
  150.2369  137.9040  158.2359 C   0  0  0  0  0  0  0  0  0  0  0  0
  150.3821  136.9750  157.1666 C   0  0  0  0  0  0  0  0  0  0  0  0
  151.0917  137.5632  156.1254 N   0  0  0  0  0  0  0  0  0  0  0  0
  151.3598  138.7648  156.5586 C   0  0  0  0  0  0  0  0  0  0  0  0
  150.8915  139.0502  157.8211 N   0  0  0  0  0  0  0  0  0  0  0  0
  151.0390  140.3024  158.5438 C   0  0  0  0  0  0  0  0  0  0  0  0
  151.1025  141.5493  157.6238 C   0  0  1  0  0  0  0  0  0  0  0  0
  149.9479  141.5423  156.5886 C   0  0  0  0  0  0  0  0  0  0  0  0
  150.1568  142.4868  155.5600 O   0  0  0  0  0  0  0  0  0  0  0  0
  151.1211  142.8488  158.4758 C   0  0  1  0  0  0  0  0  0  0  0  0
  152.0688  142.8223  159.6641 C   0  0  0  0  0  0  0  0  0  0  0  0
  152.2081  144.3009  160.0082 C   0  0  0  0  0  0  0  0  0  0  0  0
  152.0823  144.9957  158.7736 O   0  0  0  0  0  0  0  0  0  0  0  0
  151.6317  144.1044  157.7587 C   0  0  0  0  0  0  0  0  0  0  0  0
  149.6451  135.0723  155.0376 C   0  0  0  0  0  0  0  0  0  0  0  0
  150.1040  133.9434  154.0957 C   0  0  0  0  0  0  0  0  0  0  0  0
  145.4716  133.1823  150.2289 H   0  0  0  0  0  0  0  0  0  0  0  0
  147.1658  132.7684  149.9938 H   0  0  0  0  0  0  0  0  0  0  0  0
  146.7289  134.2868  150.7768 H   0  0  0  0  0  0  0  0  0  0  0  0
  145.7364  133.0035  152.7058 H   0  0  0  0  0  0  0  0  0  0  0  0
  146.1739  131.4916  151.9456 H   0  0  0  0  0  0  0  0  0  0  0  0
  148.5635  132.8457  152.0896 H   0  0  0  0  0  0  0  0  0  0  0  0
  150.0484  131.8134  153.8973 H   0  0  0  0  0  0  0  0  0  0  0  0
  149.1407  131.3748  156.2344 H   0  0  0  0  0  0  0  0  0  0  0  0
  150.7272  132.0844  156.1424 H   0  0  0  0  0  0  0  0  0  0  0  0
  148.1363  133.5690  156.8058 H   0  0  0  0  0  0  0  0  0  0  0  0
  149.4539  133.2073  157.8859 H   0  0  0  0  0  0  0  0  0  0  0  0
  148.5406  136.2048  160.3667 H   0  0  0  0  0  0  0  0  0  0  0  0
  151.9138  139.4783  155.9662 H   0  0  0  0  0  0  0  0  0  0  0  0
  150.2096  140.3980  159.2457 H   0  0  0  0  0  0  0  0  0  0  0  0
  151.9446  140.2165  159.1439 H   0  0  0  0  0  0  0  0  0  0  0  0
  152.0429  141.4934  157.0732 H   0  0  0  0  0  0  0  0  0  0  0  0
  149.8582  140.5764  156.0935 H   0  0  0  0  0  0  0  0  0  0  0  0
  148.9911  141.7355  157.0743 H   0  0  0  0  0  0  0  0  0  0  0  0
  149.8371  143.3267  155.8525 H   0  0  0  0  0  0  0  0  0  0  0  0
  150.1147  143.0491  158.8474 H   0  0  0  0  0  0  0  0  0  0  0  0
  151.6933  142.2401  160.5057 H   0  0  0  0  0  0  0  0  0  0  0  0
  153.0368  142.4136  159.3698 H   0  0  0  0  0  0  0  0  0  0  0  0
  151.3978  144.6162  160.6667 H   0  0  0  0  0  0  0  0  0  0  0  0
  153.1539  144.5278  160.5009 H   0  0  0  0  0  0  0  0  0  0  0  0
  152.4805  143.8653  157.1167 H   0  0  0  0  0  0  0  0  0  0  0  0
  150.8648  144.5766  157.1446 H   0  0  0  0  0  0  0  0  0  0  0  0
  148.5930  135.3047  154.8722 H   0  0  0  0  0  0  0  0  0  0  0  0
  150.2084  135.9776  154.8071 H   0  0  0  0  0  0  0  0  0  0  0  0
  151.1901  133.8614  154.1508 H   0  0  0  0  0  0  0  0  0  0  0  0
  149.8783  134.2123  153.0631 H   0  0  0  0  0  0  0  0  0  0  0  0
  1  2  1  0  0  0  0
  1 30  1  0  0  0  0
  1 31  1  0  0  0  0
  1 32  1  0  0  0  0
  2  3  1  0  0  0  0
  2 33  1  0  0  0  0
  2 34  1  0  0  0  0
  3  4  1  0  0  0  0
  3 35  1  0  0  0  0
  4  5  2  0  0  0  0
  4  6  1  0  0  0  0
  6 29  1  0  0  0  0
  6  7  1  0  0  0  0
  6 36  1  0  0  0  0
  7  8  1  0  0  0  0
  7 37  1  0  0  0  0
  7 38  1  0  0  0  0
  8  9  1  0  0  0  0
  8 39  1  0  0  0  0
  8 40  1  0  0  0  0
  9 10  1  0  0  0  0
  9 28  1  0  0  0  0
 10 15  1  0  0  0  0
 10 11  2  0  0  0  0
 11 12  1  0  0  0  0
 12 13  2  0  0  0  0
 12 41  1  0  0  0  0
 13 14  1  0  0  0  0
 14 18  1  0  0  0  0
 14 15  2  0  0  0  0
 15 16  1  0  0  0  0
 16 17  2  0  0  0  0
 17 18  1  0  0  0  0
 17 42  1  0  0  0  0
 18 19  1  0  0  0  0
 19 20  1  0  0  0  0
 19 43  1  0  0  0  0
 19 44  1  0  0  0  0
 20 21  1  0  0  0  0
 20 23  1  0  0  0  0
 20 45  1  0  0  0  0
 21 22  1  0  0  0  0
 21 46  1  0  0  0  0
 21 47  1  0  0  0  0
 22 48  1  0  0  0  0
 23 27  1  0  0  0  0
 23 24  1  0  0  0  0
 23 49  1  0  0  0  0
 24 25  1  0  0  0  0
 24 50  1  0  0  0  0
 24 51  1  0  0  0  0
 25 26  1  0  0  0  0
 25 52  1  0  0  0  0
 25 53  1  0  0  0  0
 26 27  1  0  0  0  0
 27 54  1  0  0  0  0
 27 55  1  0  0  0  0
 28 29  1  0  0  0  0
 28 56  1  0  0  0  0
 28 57  1  0  0  0  0
 29 58  1  0  0  0  0
 29 59  1  0  0  0  0
M  END
> <s_m_source_file>
AV-unprocessed.smi

> <i_m_source_file_index>
273

> <i_lp_mmshare_version>
43012

> <i_f3d_flags>
0

> <s_epik_input>
W0NIM11bQ0gyXVtOSF1DKD1PKVtDSF0xW0NIMl1bQ0gyXU4oW0NIMl1bQ0gyXTEpYyhuW2NIXW4yKWMoYzIzKW5bY0hdbjNbQ0gyXVtDQEhdKFtDSDJdW09IXSlbQ0BASF00W0NIMl1bQ0gyXU9bQ0gyXTQ=

> <s_epik_cmdline>
J2VwaWtfcHl0aG9uJywgJy1waCcsICc3LjAnLCAnLXRuJywgJzgnLCAnLW1hJywgJzIwMCcsICctbWV0YWxfYmluZGluZycsICctaW1hZScsICc8aW5maWxlLm1hZT4nLCAnLW9tYWUnLCAnPG91dGZpbGUubWFlPic=

> <r_lp_tautomer_probability>
1

> <r_epik_Ionization_Penalty>
0.00226556

> <r_epik_Ionization_Penalty_Charging>
0

> <r_epik_Ionization_Penalty_Neutral>
0.00226556

> <r_epik_State_Penalty>
0.00139883

> <r_epik_Charging_Adjusted_Penalty>
0.00139883

> <i_epik_Tot_Q>
0

> <i_epik_Tot_abs_Q>
0

> <r_epik_Metal_State_Penalty>
-0

> <b_epik_Metal_Only>
0

> <s_lp_Force_Field>
OPLS_2005

> <r_lp_Energy>
41.2023

> <b_lp_Chiralities_Consistent>
1

> <s_lp_Variant>
AV-unprocessed.smi:273-4

> <Gold.Version>
5.8.1

> <Gold.Id.Protein>
6NUR|6NUR_protein|mol2

> <Gold.PLP.Fitness>
46.2753

> <Gold.PLP.PLP>
-42.5851

> <Gold.PLP.part.hbond>
-2.8274

> <Gold.PLP.part.metal>
0.0000

> <Gold.PLP.part.buried>
-7.1123

> <Gold.PLP.part.nonpolar>
-33.6053

> <Gold.PLP.part.repulsive>
0.0827

> <Gold.PLP.ligand.clash>
0.0000

> <Gold.PLP.ligand.torsion>
1.0788

> <Gold.PLP.Chemscore.Hbond>
1.7500

> <Gold.PLP.Chemscore.CHOScore>
0.0000

> <Gold.PLP.Chemscore.Metal>
0.0000

> <Gold.Chemscore.Hbonds>
donor molecule, donor type, donor heavy atom, donor atom, acceptor molecule, acceptor atom, score
      L1  H    22    48       P1  8028  1.00
      P1  H  6896  6908       L1    11  0.42

> <Gold.PLP.Chemscore.Internal.Correction>
0.5978

> <Gold.Rescore>
     Score         DG    S(hbond)    S(metal)    S(lipo)     H(rot)  DE(clash)    DE(int)     intcor
     11.10     -12.38       0.95        0.00     102.41       3.22       0.18       1.10       ----

> <Gold.Chemscore.Fitness>
11.0959

> <Gold.Chemscore.DG>
-12.3761

> <Gold.Chemscore.ZeroCoef>
-5.4800

> <Gold.Chemscore.Hbond>
0.9488

> <Gold.Chemscore.Metal>
0.0000

> <Gold.Chemscore.Lipo>
102.4076

> <Gold.Chemscore.Internal_Hbond>
0.0000

> <Gold.Chemscore.DEClash>
0.1766

> <Gold.Chemscore.DEInternal>
1.1037

> <Gold.Chemscore.Rot>
3.2244

> <Gold.Chemscore.Internal.Correction>
   9.000000E+99

> <Gold.Chemscore.Hbonds>
donor molecule, donor type, donor heavy atom, donor atom, acceptor molecule, acceptor atom, score
      L1  H    22    48       P1  8028  0.96

> <Gold.Chemscore.Hbond.Weighted>
-3.1690

> <Gold.Chemscore.Metal.Weighted>
-0.0000

> <Gold.Chemscore.Lipo.Weighted>
-11.9817

> <Gold.Chemscore.Internal_Hbond.Weighted>
0.0000

> <Gold.Chemscore.DEClash.Weighted>
0.1766

> <Gold.Chemscore.DEInternal.Weighted>
1.1037

> <Gold.Chemscore.Rot.Weighted>
8.2545

> <Gold.Chemscore.Internal.Correction.Weighted>
   9.000000E+99

> <Gold.Protein.RotatedTorsions>
[ 6907 6896 6895 6894 ] final  172.72 input  -60.11 | X-H torsion
[ 7974 7965 7964 7962 ] final   88.67 input  175.53 | X-H torsion
[ 8008 7997 7996 7995 ] final  -38.07 input   59.86 | X-H torsion
[ 10167 10162 10161 10158 ] final  157.20 input  -65.29 | X-H torsion
[ 10718 10713 10712 10709 ] final   62.14 input   66.30 | X-H torsion
[ 10763 10752 10751 10750 ] final -156.80 input  -60.55 | X-H torsion
[ 11005 11000 10999 10996 ] final   -5.59 input  -57.11 | X-H torsion

> <Gold.Protein.ActiveResidues>
 VAL166  LYS551  ARG553  GLY616  TRP617  ASP618  TYR619  PRO620  LYS621  CYS622 
 ASP623  PHE694  ASN695  SER759  ASP760  ASP761  ALA762  ILE779  LEU786  VAL792 
 PHE793  MET794  SER795  GLU796  ALA797  LYS798  CYS799  TRP800  GLU811  SER814 

> <Gold.Protein.RotatedAtoms>
  151.7798  133.3348  159.3468 H   0  0  0  0  0  0  0  0  0  0  0  0  # atno 6907 bound_to 6896
  150.7430  134.5941  159.6012 H   0  0  0  0  0  0  0  0  0  0  0  0  # atno 6908 bound_to 6896
  152.3284  134.7293  160.0347 H   0  0  0  0  0  0  0  0  0  0  0  0  # atno 6909 bound_to 6896
  145.5426  139.2289  143.2557 H   0  0  0  0  0  0  0  0  0  0  0  0  # atno 7974 bound_to 7965
  154.4043  140.1587  156.2640 H   0  0  0  0  0  0  0  0  0  0  0  0  # atno 8008 bound_to 7997
  155.9012  140.3433  155.6005 H   0  0  0  0  0  0  0  0  0  0  0  0  # atno 8009 bound_to 7997
  155.7446  140.0797  157.2220 H   0  0  0  0  0  0  0  0  0  0  0  0  # atno 8010 bound_to 7997
  139.4822  144.4939  151.8268 H   0  0  0  0  0  0  0  0  0  0  0  0  # atno 10167 bound_to 10162
  157.5879  130.9034  149.9550 H   0  0  0  0  0  0  0  0  0  0  0  0  # atno 10718 bound_to 10713
  154.7685  135.3138  154.8238 H   0  0  0  0  0  0  0  0  0  0  0  0  # atno 10763 bound_to 10752
  153.8979  135.6818  153.4761 H   0  0  0  0  0  0  0  0  0  0  0  0  # atno 10764 bound_to 10752
  153.1295  135.4786  154.9259 H   0  0  0  0  0  0  0  0  0  0  0  0  # atno 10765 bound_to 10752
  140.6928  133.9056  155.8630 H   0  0  0  0  0  0  0  0  0  0  0  0  # atno 11005 bound_to 11000
  146.1971  140.6246  142.9119 LP  0  0  0  0  0  0  0  0  0  0  0  0  # atno 17320 bound_to 7965
  144.7569  140.5330  143.6762 LP  0  0  0  0  0  0  0  0  0  0  0  0  # atno 17321 bound_to 7965
  140.4426  144.1966  150.5892 LP  0  0  0  0  0  0  0  0  0  0  0  0  # atno 17342 bound_to 10162
  140.4668  143.2428  151.9145 LP  0  0  0  0  0  0  0  0  0  0  0  0  # atno 17343 bound_to 10162
  156.0930  130.3662  150.0359 LP  0  0  0  0  0  0  0  0  0  0  0  0  # atno 17370 bound_to 10713
  156.8487  130.9451  151.3627 LP  0  0  0  0  0  0  0  0  0  0  0  0  # atno 17371 bound_to 10713
  141.0227  134.0866  157.4102 LP  0  0  0  0  0  0  0  0  0  0  0  0  # atno 17394 bound_to 11000
  139.8918  135.0121  156.6814 LP  0  0  0  0  0  0  0  0  0  0  0  0  # atno 17395 bound_to 11000

$$$$
