AV-unprocessed.smi:1565|AV-procd|sdf|6297|dock4
  -GOLD-   22720 6493D 1   1.00000     0.00000
 Structure written by MMmdl.
 40 41  0  0  0  0  0  0  0  0  1 V2000
  150.6343  144.4709  159.4642 C   0  0  0  0  0  0  0  0  0  0  0  0
  152.0876  144.0497  159.1824 C   0  0  2  0  0  0  0  0  0  0  0  0
  152.2025  142.8554  158.2148 C   0  0  0  0  0  0  0  0  0  0  0  0
  151.8538  141.6045  158.8827 N   0  0  0  0  0  0  0  0  0  0  0  0
  151.6367  140.4996  158.0322 C   0  0  0  0  0  0  0  0  0  0  0  0
  150.9213  139.3730  158.5012 C   0  0  0  0  0  0  0  0  0  0  0  0
  150.7115  138.2826  157.6354 C   0  0  0  0  0  0  0  0  0  0  0  0
  151.2140  138.3431  156.3189 C   0  0  0  0  0  0  0  0  0  0  0  0
  151.0269  137.1912  155.3744 C   0  0  0  0  0  0  0  0  0  0  0  0
  151.6677  137.1257  154.3253 O   0  0  0  0  0  0  0  0  0  0  0  0
  150.1756  136.2376  155.7846 N   0  0  0  0  0  0  0  0  0  0  0  0
  149.8809  135.0054  155.0607 C   0  0  0  0  0  0  0  0  0  0  0  0
  150.1542  133.7558  155.9147 C   0  0  0  0  0  0  0  0  0  0  0  0
  149.9908  132.6687  155.1620 F   0  0  0  0  0  0  0  0  0  0  0  0
  151.4014  133.7630  156.3853 F   0  0  0  0  0  0  0  0  0  0  0  0
  149.2997  133.6995  156.9366 F   0  0  0  0  0  0  0  0  0  0  0  0
  151.9317  139.5014  155.9464 C   0  0  0  0  0  0  0  0  0  0  0  0
  152.1359  140.5485  156.7728 N   0  0  0  0  0  0  0  0  0  0  0  0
  152.5993  141.3857  160.1189 C   0  0  0  0  0  0  0  0  0  0  0  0
  152.4357  142.5897  161.0631 C   0  0  1  0  0  0  0  0  0  0  0  0
  153.3085  142.4563  162.3154 C   0  0  0  0  0  0  0  0  0  0  0  0
  152.8167  143.7852  160.3833 O   0  0  0  0  0  0  0  0  0  0  0  0
  150.1433  144.7977  158.5473 H   0  0  0  0  0  0  0  0  0  0  0  0
  150.5998  145.3007  160.1703 H   0  0  0  0  0  0  0  0  0  0  0  0
  150.0391  143.6559  159.8751 H   0  0  0  0  0  0  0  0  0  0  0  0
  152.5768  144.9036  158.7131 H   0  0  0  0  0  0  0  0  0  0  0  0
  151.5827  143.0390  157.3381 H   0  0  0  0  0  0  0  0  0  0  0  0
  153.2296  142.7732  157.8571 H   0  0  0  0  0  0  0  0  0  0  0  0
  150.5465  139.3268  159.5129 H   0  0  0  0  0  0  0  0  0  0  0  0
  150.1695  137.4156  157.9848 H   0  0  0  0  0  0  0  0  0  0  0  0
  149.7141  136.3633  156.6738 H   0  0  0  0  0  0  0  0  0  0  0  0
  148.8285  135.0310  154.7765 H   0  0  0  0  0  0  0  0  0  0  0  0
  150.4479  134.9621  154.1293 H   0  0  0  0  0  0  0  0  0  0  0  0
  152.3616  139.5998  154.9603 H   0  0  0  0  0  0  0  0  0  0  0  0
  152.2439  140.4842  160.6198 H   0  0  0  0  0  0  0  0  0  0  0  0
  153.6528  141.2329  159.8799 H   0  0  0  0  0  0  0  0  0  0  0  0
  151.3965  142.6643  161.3837 H   0  0  0  0  0  0  0  0  0  0  0  0
  153.0475  141.5621  162.8820 H   0  0  0  0  0  0  0  0  0  0  0  0
  153.1796  143.3159  162.9733 H   0  0  0  0  0  0  0  0  0  0  0  0
  154.3655  142.3916  162.0551 H   0  0  0  0  0  0  0  0  0  0  0  0
  1  2  1  0  0  0  0
  1 23  1  0  0  0  0
  1 24  1  0  0  0  0
  1 25  1  0  0  0  0
  2 22  1  0  0  0  0
  2  3  1  0  0  0  0
  2 26  1  0  0  0  0
  3  4  1  0  0  0  0
  3 27  1  0  0  0  0
  3 28  1  0  0  0  0
  4  5  1  0  0  0  0
  4 19  1  0  0  0  0
  5 18  1  0  0  0  0
  5  6  2  0  0  0  0
  6  7  1  0  0  0  0
  6 29  1  0  0  0  0
  7  8  2  0  0  0  0
  7 30  1  0  0  0  0
  8  9  1  0  0  0  0
  8 17  1  0  0  0  0
  9 10  2  0  0  0  0
  9 11  1  0  0  0  0
 11 12  1  0  0  0  0
 11 31  1  0  0  0  0
 12 13  1  0  0  0  0
 12 32  1  0  0  0  0
 12 33  1  0  0  0  0
 13 14  1  0  0  0  0
 13 15  1  0  0  0  0
 13 16  1  0  0  0  0
 17 18  2  0  0  0  0
 17 34  1  0  0  0  0
 19 20  1  0  0  0  0
 19 35  1  0  0  0  0
 19 36  1  0  0  0  0
 20 21  1  0  0  0  0
 20 22  1  0  0  0  0
 20 37  1  0  0  0  0
 21 38  1  0  0  0  0
 21 39  1  0  0  0  0
 21 40  1  0  0  0  0
M  END
> <s_m_source_file>
AV-unprocessed.smi

> <i_m_source_file_index>
1565

> <i_lp_mmshare_version>
43012

> <i_f3d_flags>
0

> <s_epik_input>
W0NIM11bQ0BASF0xW0NIMl1OKFtDSDJdW0NASF0oTzEpW0NIM10pYzJbY0hdW2NIXWMoW2NIXW4yKUMoPU8pW05IXVtDSDJdQyhGKShGKUY=

> <s_epik_cmdline>
J2VwaWtfcHl0aG9uJywgJy1waCcsICc3LjAnLCAnLXRuJywgJzgnLCAnLW1hJywgJzIwMCcsICctbWV0YWxfYmluZGluZycsICctaW1hZScsICc8aW5maWxlLm1hZT4nLCAnLW9tYWUnLCAnPG91dGZpbGUubWFlPic=

> <r_lp_tautomer_probability>
1

> <r_epik_Ionization_Penalty>
1.48031e-05

> <r_epik_Ionization_Penalty_Charging>
0

> <r_epik_Ionization_Penalty_Neutral>
1.48031e-05

> <r_epik_State_Penalty>
-0

> <r_epik_Charging_Adjusted_Penalty>
0

> <i_epik_Tot_Q>
0

> <i_epik_Tot_abs_Q>
0

> <r_epik_Metal_State_Penalty>
0.00620302

> <b_epik_Metal_Only>
0

> <s_lp_Force_Field>
OPLS_2005

> <r_lp_Energy>
19.6517

> <b_lp_Chiralities_Consistent>
1

> <s_lp_Variant>
AV-unprocessed.smi:1565-1

> <Gold.Version>
5.8.1

> <Gold.Id.Protein>
6NUR|6NUR_protein|mol2

> <Gold.PLP.Fitness>
40.6403

> <Gold.PLP.PLP>
-37.5609

> <Gold.PLP.part.hbond>
-1.6308

> <Gold.PLP.part.metal>
0.0000

> <Gold.PLP.part.buried>
-4.7594

> <Gold.PLP.part.nonpolar>
-30.8804

> <Gold.PLP.part.repulsive>
0.2559

> <Gold.PLP.ligand.clash>
0.0000

> <Gold.PLP.ligand.torsion>
0.3571

> <Gold.PLP.Chemscore.Hbond>
1.1514

> <Gold.PLP.Chemscore.CHOScore>
0.0000

> <Gold.PLP.Chemscore.Metal>
0.0000

> <Gold.Chemscore.Hbonds>
donor molecule, donor type, donor heavy atom, donor atom, acceptor molecule, acceptor atom, score
      P1  H  7997  8009       L1    18  0.13
      P1  H 10752 10765       L1    10  1.00

> <Gold.PLP.Chemscore.Internal.Correction>
0.3392

> <Gold.Rescore>
     Score         DG    S(hbond)    S(metal)    S(lipo)     H(rot)  DE(clash)    DE(int)     intcor
     15.70     -16.07       0.99        0.00      90.84       1.31       0.00       0.37       ----

> <Gold.Chemscore.Fitness>
15.6954

> <Gold.Chemscore.DG>
-16.0713

> <Gold.Chemscore.ZeroCoef>
-5.4800

> <Gold.Chemscore.Hbond>
0.9894

> <Gold.Chemscore.Metal>
0.0000

> <Gold.Chemscore.Lipo>
90.8373

> <Gold.Chemscore.Internal_Hbond>
0.0000

> <Gold.Chemscore.DEClash>
0.0009

> <Gold.Chemscore.DEInternal>
0.3750

> <Gold.Chemscore.Rot>
1.3052

> <Gold.Chemscore.Internal.Correction>
   9.000000E+99

> <Gold.Chemscore.Hbonds>
donor molecule, donor type, donor heavy atom, donor atom, acceptor molecule, acceptor atom, score
      P1  H 10752 10765       L1    10  0.93

> <Gold.Chemscore.Hbond.Weighted>
-3.3047

> <Gold.Chemscore.Metal.Weighted>
-0.0000

> <Gold.Chemscore.Lipo.Weighted>
-10.6280

> <Gold.Chemscore.Internal_Hbond.Weighted>
0.0000

> <Gold.Chemscore.DEClash.Weighted>
0.0009

> <Gold.Chemscore.DEInternal.Weighted>
0.3750

> <Gold.Chemscore.Rot.Weighted>
3.3414

> <Gold.Chemscore.Internal.Correction.Weighted>
   9.000000E+99

> <Gold.Protein.RotatedTorsions>
[ 6907 6896 6895 6894 ] final  -76.20 input  -60.11 | X-H torsion
[ 7974 7965 7964 7962 ] final  -76.32 input  175.53 | X-H torsion
[ 8008 7997 7996 7995 ] final -179.42 input   59.86 | X-H torsion
[ 10167 10162 10161 10158 ] final -109.25 input  -65.29 | X-H torsion
[ 10718 10713 10712 10709 ] final  -74.92 input   66.30 | X-H torsion
[ 10763 10752 10751 10750 ] final  153.10 input  -60.55 | X-H torsion
[ 11005 11000 10999 10996 ] final  -30.57 input  -57.11 | X-H torsion

> <Gold.Protein.ActiveResidues>
 VAL166  LYS551  ARG553  GLY616  TRP617  ASP618  TYR619  PRO620  LYS621  CYS622 
 ASP623  PHE694  ASN695  SER759  ASP760  ASP761  ALA762  ILE779  LEU786  VAL792 
 PHE793  MET794  SER795  GLU796  ALA797  LYS798  CYS799  TRP800  GLU811  SER814 

> <Gold.Protein.RotatedAtoms>
  150.7035  134.4608  159.5379 H   0  0  0  0  0  0  0  0  0  0  0  0  # atno 6907 bound_to 6896
  152.2283  134.8344  160.0486 H   0  0  0  0  0  0  0  0  0  0  0  0  # atno 6908 bound_to 6896
  151.9169  133.3540  159.3920 H   0  0  0  0  0  0  0  0  0  0  0  0  # atno 6909 bound_to 6896
  145.6144  140.9379  143.1172 H   0  0  0  0  0  0  0  0  0  0  0  0  # atno 7974 bound_to 7965
  156.0303  140.1280  157.0265 H   0  0  0  0  0  0  0  0  0  0  0  0  # atno 8008 bound_to 7997
  154.4347  140.1051  156.6160 H   0  0  0  0  0  0  0  0  0  0  0  0  # atno 8009 bound_to 7997
  155.5817  140.3468  155.4544 H   0  0  0  0  0  0  0  0  0  0  0  0  # atno 8010 bound_to 7997
  140.1574  143.4149  152.1451 H   0  0  0  0  0  0  0  0  0  0  0  0  # atno 10167 bound_to 10162
  156.0225  130.4428  150.2964 H   0  0  0  0  0  0  0  0  0  0  0  0  # atno 10718 bound_to 10713
  154.1308  135.2827  155.3185 H   0  0  0  0  0  0  0  0  0  0  0  0  # atno 10763 bound_to 10752
  154.6357  135.5420  153.7734 H   0  0  0  0  0  0  0  0  0  0  0  0  # atno 10764 bound_to 10752
  153.0282  135.6473  154.1458 H   0  0  0  0  0  0  0  0  0  0  0  0  # atno 10765 bound_to 10752
  140.9394  133.7288  156.1053 H   0  0  0  0  0  0  0  0  0  0  0  0  # atno 11005 bound_to 11000
  144.7257  139.7885  143.7366 LP  0  0  0  0  0  0  0  0  0  0  0  0  # atno 17320 bound_to 7965
  146.1480  139.4555  143.0067 LP  0  0  0  0  0  0  0  0  0  0  0  0  # atno 17321 bound_to 7965
  139.5397  144.7245  151.4774 LP  0  0  0  0  0  0  0  0  0  0  0  0  # atno 17342 bound_to 10162
  140.6665  143.8387  150.6948 LP  0  0  0  0  0  0  0  0  0  0  0  0  # atno 17343 bound_to 10162
  157.1067  131.0210  151.3064 LP  0  0  0  0  0  0  0  0  0  0  0  0  # atno 17370 bound_to 10713
  157.4737  130.7723  149.7347 LP  0  0  0  0  0  0  0  0  0  0  0  0  # atno 17371 bound_to 10713
  140.7755  134.3785  157.5499 LP  0  0  0  0  0  0  0  0  0  0  0  0  # atno 17394 bound_to 11000
  139.8816  134.9049  156.2887 LP  0  0  0  0  0  0  0  0  0  0  0  0  # atno 17395 bound_to 11000

$$$$
