AV-unprocessed.smi:692|AV-procd|sdf|3368|dock8
  -GOLD-   22720 0343D 1   1.00000     0.00000
 Structure written by MMmdl.
 37 38  0  0  0  0  0  0  0  0  1 V2000
  155.3336  141.7711  158.8182 C   0  0  0  0  0  0  0  0  0  0  0  0
  154.2879  141.7910  159.9388 C   0  0  0  0  0  0  0  0  0  0  0  0
  153.0525  142.5457  159.5520 C   0  0  0  0  0  0  0  0  0  0  0  0
  152.6071  143.7284  160.0906 C   0  0  0  0  0  0  0  0  0  0  0  0
  151.1290  144.2724  159.3435 S   0  0  0  0  0  0  0  0  0  0  0  0
  151.1713  142.8492  158.3147 C   0  0  0  0  0  0  0  0  0  0  0  0
  150.1699  142.5966  157.3407 N   0  0  0  0  0  0  0  0  0  0  0  0
  150.1888  141.6943  156.3439 C   0  0  0  0  0  0  0  0  0  0  0  0
  151.1059  140.9052  156.1145 O   0  0  0  0  0  0  0  0  0  0  0  0
  149.0639  141.7519  155.6164 N   0  0  0  0  0  0  0  0  0  0  0  0
  148.7599  140.9013  154.4695 C   0  0  2  0  0  0  0  0  0  0  0  0
  147.3034  141.0993  154.0464 C   0  0  0  0  0  0  0  0  0  0  0  0
  146.9818  140.2401  152.8177 C   0  0  0  0  0  0  0  0  0  0  0  0
  147.4567  138.7842  152.9413 C   0  0  0  0  0  0  0  0  0  0  0  0
  146.9537  137.9450  152.1934 O   0  0  0  0  0  0  0  0  0  0  0  0
  148.4261  138.4746  153.8361 N   0  0  0  0  0  0  0  0  0  0  0  0
  148.9177  137.1000  153.9453 C   0  0  0  0  0  0  0  0  0  0  0  0
  149.0067  139.4175  154.8053 C   0  0  0  0  0  0  0  0  0  0  0  0
  152.2235  142.0539  158.5386 N   0  0  0  0  0  0  0  0  0  0  0  0
  156.2227  141.2208  159.1268 H   0  0  0  0  0  0  0  0  0  0  0  0
  155.6430  142.7818  158.5504 H   0  0  0  0  0  0  0  0  0  0  0  0
  154.9407  141.2916  157.9210 H   0  0  0  0  0  0  0  0  0  0  0  0
  154.0297  140.7658  160.2065 H   0  0  0  0  0  0  0  0  0  0  0  0
  154.7299  142.2311  160.8333 H   0  0  0  0  0  0  0  0  0  0  0  0
  153.0602  144.3122  160.8781 H   0  0  0  0  0  0  0  0  0  0  0  0
  149.3417  143.1691  157.4127 H   0  0  0  0  0  0  0  0  0  0  0  0
  148.3636  142.4311  155.8762 H   0  0  0  0  0  0  0  0  0  0  0  0
  149.3978  141.1896  153.6312 H   0  0  0  0  0  0  0  0  0  0  0  0
  146.6332  140.8365  154.8666 H   0  0  0  0  0  0  0  0  0  0  0  0
  147.1167  142.1489  153.8162 H   0  0  0  0  0  0  0  0  0  0  0  0
  145.9087  140.2564  152.6242 H   0  0  0  0  0  0  0  0  0  0  0  0
  147.4628  140.6692  151.9381 H   0  0  0  0  0  0  0  0  0  0  0  0
  149.4193  136.7998  153.0244 H   0  0  0  0  0  0  0  0  0  0  0  0
  148.0948  136.4071  154.1283 H   0  0  0  0  0  0  0  0  0  0  0  0
  149.6292  136.9808  154.7636 H   0  0  0  0  0  0  0  0  0  0  0  0
  150.0804  139.2433  154.8910 H   0  0  0  0  0  0  0  0  0  0  0  0
  148.5755  139.1849  155.7803 H   0  0  0  0  0  0  0  0  0  0  0  0
  1  2  1  0  0  0  0
  1 20  1  0  0  0  0
  1 21  1  0  0  0  0
  1 22  1  0  0  0  0
  2  3  1  0  0  0  0
  2 23  1  0  0  0  0
  2 24  1  0  0  0  0
  3 19  1  0  0  0  0
  3  4  2  0  0  0  0
  4  5  1  0  0  0  0
  4 25  1  0  0  0  0
  5  6  1  0  0  0  0
  6  7  1  0  0  0  0
  6 19  2  0  0  0  0
  7  8  1  0  0  0  0
  7 26  1  0  0  0  0
  8  9  2  0  0  0  0
  8 10  1  0  0  0  0
 10 11  1  0  0  0  0
 10 27  1  0  0  0  0
 11 18  1  0  0  0  0
 11 12  1  0  0  0  0
 11 28  1  0  0  0  0
 12 13  1  0  0  0  0
 12 29  1  0  0  0  0
 12 30  1  0  0  0  0
 13 14  1  0  0  0  0
 13 31  1  0  0  0  0
 13 32  1  0  0  0  0
 14 15  2  0  0  0  0
 14 16  1  0  0  0  0
 16 17  1  0  0  0  0
 16 18  1  0  0  0  0
 17 33  1  0  0  0  0
 17 34  1  0  0  0  0
 17 35  1  0  0  0  0
 18 36  1  0  0  0  0
 18 37  1  0  0  0  0
M  END
> <s_m_source_file>
AV-unprocessed.smi

> <i_m_source_file_index>
692

> <i_lp_mmshare_version>
43012

> <i_f3d_flags>
0

> <s_epik_input>
W0NIM11bQ0gyXWMxW2NIXXNjKG4xKVtOSF1DKD1PKVtOSF1bQ0BASF0yW0NIMl1bQ0gyXUMoPU8pTihbQ0gzXSlbQ0gyXTI=

> <s_epik_cmdline>
J2VwaWtfcHl0aG9uJywgJy1waCcsICc3LjAnLCAnLXRuJywgJzgnLCAnLW1hJywgJzIwMCcsICctbWV0YWxfYmluZGluZycsICctaW1hZScsICc8aW5maWxlLm1hZT4nLCAnLW9tYWUnLCAnPG91dGZpbGUubWFlPic=

> <r_lp_tautomer_probability>
1

> <r_epik_Ionization_Penalty>
0.000165573

> <r_epik_Ionization_Penalty_Charging>
0

> <r_epik_Ionization_Penalty_Neutral>
0.000165573

> <r_epik_State_Penalty>
-0

> <r_epik_Charging_Adjusted_Penalty>
0

> <i_epik_Tot_Q>
0

> <i_epik_Tot_abs_Q>
0

> <r_epik_Metal_State_Penalty>
0.031163

> <b_epik_Metal_Only>
0

> <s_lp_Force_Field>
OPLS_2005

> <r_lp_Energy>
8.08929

> <b_lp_Chiralities_Consistent>
1

> <s_lp_Variant>
AV-unprocessed.smi:692-1

> <Gold.Version>
5.8.1

> <Gold.Id.Protein>
6NUR|6NUR_protein|mol2

> <Gold.PLP.Fitness>
43.2760

> <Gold.PLP.PLP>
-37.6250

> <Gold.PLP.part.hbond>
-2.0000

> <Gold.PLP.part.metal>
0.0000

> <Gold.PLP.part.buried>
-4.5133

> <Gold.PLP.part.nonpolar>
-31.7257

> <Gold.PLP.part.repulsive>
0.4996

> <Gold.PLP.ligand.clash>
0.0000

> <Gold.PLP.ligand.torsion>
0.1752

> <Gold.PLP.Chemscore.Hbond>
2.0000

> <Gold.PLP.Chemscore.CHOScore>
0.0000

> <Gold.PLP.Chemscore.Metal>
0.0000

> <Gold.Chemscore.Hbonds>
donor molecule, donor type, donor heavy atom, donor atom, acceptor molecule, acceptor atom, score
      L1  H     7    26       P1  8028  0.06
      L1  H    10    27       P1  8028  0.08

> <Gold.PLP.Chemscore.Internal.Correction>
0.0014

> <Gold.Rescore>
     Score         DG    S(hbond)    S(metal)    S(lipo)     H(rot)  DE(clash)    DE(int)     intcor
     14.81     -17.84       1.89        0.00      78.88       1.24       0.05       2.99       ----

> <Gold.Chemscore.Fitness>
14.8054

> <Gold.Chemscore.DG>
-17.8411

> <Gold.Chemscore.ZeroCoef>
-5.4800

> <Gold.Chemscore.Hbond>
1.8872

> <Gold.Chemscore.Metal>
0.0000

> <Gold.Chemscore.Lipo>
78.8783

> <Gold.Chemscore.Internal_Hbond>
0.0000

> <Gold.Chemscore.DEClash>
0.0465

> <Gold.Chemscore.DEInternal>
2.9891

> <Gold.Chemscore.Rot>
1.2386

> <Gold.Chemscore.Internal.Correction>
   9.000000E+99

> <Gold.Chemscore.Hbonds>
donor molecule, donor type, donor heavy atom, donor atom, acceptor molecule, acceptor atom, score
      L1  H     7    26       P1  8028  0.05
      L1  H    10    27       P1  8028  0.08

> <Gold.Chemscore.Hbond.Weighted>
-6.3031

> <Gold.Chemscore.Metal.Weighted>
-0.0000

> <Gold.Chemscore.Lipo.Weighted>
-9.2288

> <Gold.Chemscore.Internal_Hbond.Weighted>
0.0000

> <Gold.Chemscore.DEClash.Weighted>
0.0465

> <Gold.Chemscore.DEInternal.Weighted>
2.9891

> <Gold.Chemscore.Rot.Weighted>
3.1708

> <Gold.Chemscore.Internal.Correction.Weighted>
   9.000000E+99

> <Gold.Protein.RotatedTorsions>
[ 6907 6896 6895 6894 ] final   38.19 input  -60.11 | X-H torsion
[ 7974 7965 7964 7962 ] final   31.04 input  175.53 | X-H torsion
[ 8008 7997 7996 7995 ] final -151.53 input   59.86 | X-H torsion
[ 10167 10162 10161 10158 ] final    8.04 input  -65.29 | X-H torsion
[ 10718 10713 10712 10709 ] final  -69.65 input   66.30 | X-H torsion
[ 10763 10752 10751 10750 ] final -173.00 input  -60.55 | X-H torsion
[ 11005 11000 10999 10996 ] final   36.74 input  -57.11 | X-H torsion

> <Gold.Protein.ActiveResidues>
 VAL166  LYS551  ARG553  GLY616  TRP617  ASP618  TYR619  PRO620  LYS621  CYS622 
 ASP623  PHE694  ASN695  SER759  ASP760  ASP761  ALA762  ILE779  LEU786  VAL792 
 PHE793  MET794  SER795  GLU796  ALA797  LYS798  CYS799  TRP800  GLU811  SER814 

> <Gold.Protein.RotatedAtoms>
  152.1531  134.8972  160.0546 H   0  0  0  0  0  0  0  0  0  0  0  0  # atno 6907 bound_to 6896
  151.9996  133.3815  159.4185 H   0  0  0  0  0  0  0  0  0  0  0  0  # atno 6908 bound_to 6896
  150.6878  134.3770  159.5061 H   0  0  0  0  0  0  0  0  0  0  0  0  # atno 6909 bound_to 6896
  146.1575  139.6709  142.9056 H   0  0  0  0  0  0  0  0  0  0  0  0  # atno 7974 bound_to 7965
  155.6408  140.0701  157.2619 H   0  0  0  0  0  0  0  0  0  0  0  0  # atno 8008 bound_to 7997
  154.4184  140.1750  156.1621 H   0  0  0  0  0  0  0  0  0  0  0  0  # atno 8009 bound_to 7997
  155.9857  140.3350  155.6708 H   0  0  0  0  0  0  0  0  0  0  0  0  # atno 8010 bound_to 7997
  140.6337  143.7934  150.7330 H   0  0  0  0  0  0  0  0  0  0  0  0  # atno 10167 bound_to 10162
  156.0445  130.4316  150.2179 H   0  0  0  0  0  0  0  0  0  0  0  0  # atno 10718 bound_to 10713
  154.6128  135.2866  155.0413 H   0  0  0  0  0  0  0  0  0  0  0  0  # atno 10763 bound_to 10752
  154.1636  135.6484  153.4996 H   0  0  0  0  0  0  0  0  0  0  0  0  # atno 10764 bound_to 10752
  153.0202  135.5384  154.6888 H   0  0  0  0  0  0  0  0  0  0  0  0  # atno 10765 bound_to 10752
  140.2296  134.3544  155.7970 H   0  0  0  0  0  0  0  0  0  0  0  0  # atno 11005 bound_to 11000
  145.4672  141.0435  143.2719 LP  0  0  0  0  0  0  0  0  0  0  0  0  # atno 17320 bound_to 7965
  144.7982  139.6192  143.7083 LP  0  0  0  0  0  0  0  0  0  0  0  0  # atno 17321 bound_to 7965
  140.1551  143.4324  152.2105 LP  0  0  0  0  0  0  0  0  0  0  0  0  # atno 17342 bound_to 10162
  139.5549  144.7365  151.4323 LP  0  0  0  0  0  0  0  0  0  0  0  0  # atno 17343 bound_to 10162
  157.0270  130.9996  151.3323 LP  0  0  0  0  0  0  0  0  0  0  0  0  # atno 17370 bound_to 10713
  157.5304  130.8055  149.7910 LP  0  0  0  0  0  0  0  0  0  0  0  0  # atno 17371 bound_to 10713
  141.2218  133.7238  156.8709 LP  0  0  0  0  0  0  0  0  0  0  0  0  # atno 17394 bound_to 11000
  140.1765  134.9063  157.2896 LP  0  0  0  0  0  0  0  0  0  0  0  0  # atno 17395 bound_to 11000

$$$$
