AV-unprocessed.smi:1417|AV-procd|sdf|5766|dock2
  -GOLD-   22720 5403D 1   1.00000     0.00000
 Structure written by MMmdl.
 40 41  0  0  0  0  0  0  0  0  2 V2000
  138.4625  137.1278  154.5959 C   0  0  0  0  0  0  0  0  0  0  0  0
  139.9448  137.2782  154.5624 C   0  0  0  0  0  0  0  0  0  0  0  0
  140.7684  138.2667  154.1025 C   0  0  0  0  0  0  0  0  0  0  0  0
  142.0688  137.7575  154.3884 C   0  0  0  0  0  0  0  0  0  0  0  0
  143.3033  138.3981  154.1079 N   0  0  0  0  0  0  0  0  0  0  0  0
  144.5055  138.1731  154.6639 C   0  0  0  0  0  0  0  0  0  0  0  0
  144.7452  137.3336  155.5316 O   0  0  0  0  0  0  0  0  0  0  0  0
  145.4375  138.9909  154.1530 N   0  0  0  0  0  0  0  0  0  0  0  0
  146.8440  139.0080  154.5438 C   0  0  2  0  0  0  0  0  0  0  0  0
  147.6925  139.7656  153.5055 C   0  0  0  0  0  0  0  0  0  0  0  0
  149.1878  139.6940  153.8523 C   0  0  0  0  0  0  0  0  0  0  0  0
  149.6412  138.2824  153.9648 N   0  3  1  0  0  0  0  0  0  0  0  0
  151.1097  138.1541  154.1474 C   0  0  0  0  0  0  0  0  0  0  0  0
  151.6740  139.1668  155.1495 C   0  0  0  0  0  0  0  0  0  0  0  0
  151.1343  139.1730  156.3702 N   0  0  0  0  0  0  0  0  0  0  0  0
  152.5921  139.9221  154.8350 O   0  0  0  0  0  0  0  0  0  0  0  0
  148.8701  137.5446  154.9973 C   0  0  0  0  0  0  0  0  0  0  0  0
  147.3641  137.5680  154.6844 C   0  0  0  0  0  0  0  0  0  0  0  0
  142.0348  136.5710  154.9665 N   0  0  0  0  0  0  0  0  0  0  0  0
  140.6759  136.2559  155.0826 O   0  0  0  0  0  0  0  0  0  0  0  0
  137.9815  137.8682  153.9564 H   0  0  0  0  0  0  0  0  0  0  0  0
  138.0845  137.2603  155.6097 H   0  0  0  0  0  0  0  0  0  0  0  0
  138.1648  136.1380  154.2496 H   0  0  0  0  0  0  0  0  0  0  0  0
  140.4702  139.1953  153.6400 H   0  0  0  0  0  0  0  0  0  0  0  0
  143.2622  139.1179  153.4013 H   0  0  0  0  0  0  0  0  0  0  0  0
  145.1528  139.6492  153.4421 H   0  0  0  0  0  0  0  0  0  0  0  0
  146.9394  139.5028  155.5126 H   0  0  0  0  0  0  0  0  0  0  0  0
  147.5310  139.3427  152.5125 H   0  0  0  0  0  0  0  0  0  0  0  0
  147.3808  140.8093  153.4503 H   0  0  0  0  0  0  0  0  0  0  0  0
  149.7580  140.2131  153.0812 H   0  0  0  0  0  0  0  0  0  0  0  0
  149.3800  140.2162  154.7910 H   0  0  0  0  0  0  0  0  0  0  0  0
  151.3634  137.1349  154.4443 H   0  0  0  0  0  0  0  0  0  0  0  0
  151.6160  138.3399  153.1992 H   0  0  0  0  0  0  0  0  0  0  0  0
  151.4651  139.8211  157.0706 H   0  0  0  0  0  0  0  0  0  0  0  0
  150.3897  138.5266  156.5901 H   0  0  0  0  0  0  0  0  0  0  0  0
  149.2085  136.5087  155.0405 H   0  0  0  0  0  0  0  0  0  0  0  0
  149.0598  137.9823  155.9786 H   0  0  0  0  0  0  0  0  0  0  0  0
  146.8172  137.0477  155.4718 H   0  0  0  0  0  0  0  0  0  0  0  0
  147.1794  137.0145  153.7622 H   0  0  0  0  0  0  0  0  0  0  0  0
  149.4327  137.8362  153.0827 H   0  0  0  0  0  0  0  0  0  0  0  0
  1  2  1  0  0  0  0
  1 21  1  0  0  0  0
  1 22  1  0  0  0  0
  1 23  1  0  0  0  0
  2 20  1  0  0  0  0
  2  3  2  0  0  0  0
  3  4  1  0  0  0  0
  3 24  1  0  0  0  0
  4  5  1  0  0  0  0
  4 19  2  0  0  0  0
  5  6  1  0  0  0  0
  5 25  1  0  0  0  0
  6  7  2  0  0  0  0
  6  8  1  0  0  0  0
  8  9  1  0  0  0  0
  8 26  1  0  0  0  0
  9 18  1  0  0  0  0
  9 10  1  0  0  0  0
  9 27  1  0  0  0  0
 10 11  1  0  0  0  0
 10 28  1  0  0  0  0
 10 29  1  0  0  0  0
 11 12  1  0  0  0  0
 11 30  1  0  0  0  0
 11 31  1  0  0  0  0
 12 13  1  0  0  0  0
 12 17  1  0  0  0  0
 12 40  1  0  0  0  0
 13 14  1  0  0  0  0
 13 32  1  0  0  0  0
 13 33  1  0  0  0  0
 14 15  1  0  0  0  0
 14 16  2  0  0  0  0
 15 34  1  0  0  0  0
 15 35  1  0  0  0  0
 17 18  1  0  0  0  0
 17 36  1  0  0  0  0
 17 37  1  0  0  0  0
 18 38  1  0  0  0  0
 18 39  1  0  0  0  0
 19 20  1  0  0  0  0
M  CHG  1  12   1
M  END
> <s_m_source_file>
AV-unprocessed.smi

> <i_m_source_file_index>
1417

> <i_lp_mmshare_version>
43012

> <i_f3d_flags>
0

> <s_epik_input>
W0NIM11jMVtjSF1jKG5vMSlbTkhdQyg9TylbTkhdW0NIXTJbQ0gyXVtDSDJdTihbQ0gyXVtDSDJdMilbQ0gyXUMoPU8pW05IMl0=

> <s_epik_cmdline>
J2VwaWtfcHl0aG9uJywgJy1waCcsICc3LjAnLCAnLXRuJywgJzgnLCAnLW1hJywgJzIwMCcsICctbWV0YWxfYmluZGluZycsICctaW1hZScsICc8aW5maWxlLm1hZT4nLCAnLW9tYWUnLCAnPG91dGZpbGUubWFlPic=

> <r_epik_Ionization_Penalty>
0.867698

> <r_epik_Ionization_Penalty_Charging>
0.867623

> <r_epik_Ionization_Penalty_Neutral>
7.46743e-05

> <r_epik_State_Penalty>
0.904669

> <r_epik_Charging_Adjusted_Penalty>
1.77229

> <i_epik_Tot_Q>
1

> <i_epik_Tot_abs_Q>
1

> <r_epik_Metal_State_Penalty>
0.930696

> <b_epik_Metal_Only>
0

> <s_lp_Force_Field>
OPLS_2005

> <r_lp_Energy>
11.2149

> <b_lp_Chiralities_Consistent>
1

> <s_lp_Variant>
AV-unprocessed.smi:1417-2

> <Gold.Version>
5.8.1

> <Gold.Id.Protein>
6NUR|6NUR_protein|mol2

> <Gold.PLP.Fitness>
43.5307

> <Gold.PLP.PLP>
-26.6311

> <Gold.PLP.part.hbond>
-5.6079

> <Gold.PLP.part.metal>
0.0000

> <Gold.PLP.part.buried>
-1.6353

> <Gold.PLP.part.nonpolar>
-19.7683

> <Gold.PLP.part.repulsive>
0.2047

> <Gold.PLP.ligand.clash>
0.0000

> <Gold.PLP.ligand.torsion>
0.5350

> <Gold.PLP.Chemscore.Hbond>
5.9808

> <Gold.PLP.Chemscore.CHOScore>
0.0000

> <Gold.PLP.Chemscore.Metal>
0.0000

> <Gold.Chemscore.Hbonds>
donor molecule, donor type, donor heavy atom, donor atom, acceptor molecule, acceptor atom, score
      L1  H     5    25       P1 10175  1.00
      L1  H     8    26       P1 10175  0.94
      L1  H    12    40       P1  7948  1.98
      P1  H  7989  7998       L1    16  0.48
      P1  H  7997  8008       L1    16  0.59
      P1  H 11000 11005       L1    20  0.51

> <Gold.PLP.Chemscore.Internal.Correction>
0.0273

> <Gold.Rescore>
     Score         DG    S(hbond)    S(metal)    S(lipo)     H(rot)  DE(clash)    DE(int)     intcor
     17.34     -20.50       4.54        0.00      43.63       2.05       0.86       2.30       ----

> <Gold.Chemscore.Fitness>
17.3406

> <Gold.Chemscore.DG>
-20.4996

> <Gold.Chemscore.ZeroCoef>
-5.4800

> <Gold.Chemscore.Hbond>
4.5364

> <Gold.Chemscore.Metal>
0.0000

> <Gold.Chemscore.Lipo>
43.6342

> <Gold.Chemscore.Internal_Hbond>
0.0000

> <Gold.Chemscore.DEClash>
0.8553

> <Gold.Chemscore.DEInternal>
2.3037

> <Gold.Chemscore.Rot>
2.0457

> <Gold.Chemscore.Internal.Correction>
   9.000000E+99

> <Gold.Chemscore.Hbonds>
donor molecule, donor type, donor heavy atom, donor atom, acceptor molecule, acceptor atom, score
      L1  H     5    25       P1 10175  1.00
      L1  H     8    26       P1 10175  0.90
      L1  H    12    40       P1  7948  0.84
      P1  H  7989  7998       L1    16  0.09
      P1  H  7997  8008       L1    16  0.57
      P1  H 11000 11005       L1    20  0.48

> <Gold.Chemscore.Hbond.Weighted>
-15.1515

> <Gold.Chemscore.Metal.Weighted>
-0.0000

> <Gold.Chemscore.Lipo.Weighted>
-5.1052

> <Gold.Chemscore.Internal_Hbond.Weighted>
0.0000

> <Gold.Chemscore.DEClash.Weighted>
0.8553

> <Gold.Chemscore.DEInternal.Weighted>
2.3037

> <Gold.Chemscore.Rot.Weighted>
5.2371

> <Gold.Chemscore.Internal.Correction.Weighted>
   9.000000E+99

> <Gold.Protein.RotatedTorsions>
[ 6907 6896 6895 6894 ] final -113.69 input  -60.11 | X-H torsion
[ 7974 7965 7964 7962 ] final  123.43 input  175.53 | X-H torsion
[ 8008 7997 7996 7995 ] final  -30.16 input   59.86 | X-H torsion
[ 10167 10162 10161 10158 ] final -171.55 input  -65.29 | X-H torsion
[ 10718 10713 10712 10709 ] final -177.65 input   66.30 | X-H torsion
[ 10763 10752 10751 10750 ] final  -16.79 input  -60.55 | X-H torsion
[ 11005 11000 10999 10996 ] final   40.25 input  -57.11 | X-H torsion

> <Gold.Protein.ActiveResidues>
 VAL166  LYS551  ARG553  GLY616  TRP617  ASP618  TYR619  PRO620  LYS621  CYS622 
 ASP623  PHE694  ASN695  SER759  ASP760  ASP761  ALA762  ILE779  LEU786  VAL792 
 PHE793  MET794  SER795  GLU796  ALA797  LYS798  CYS799  TRP800  GLU811  SER814 

> <Gold.Protein.RotatedAtoms>
  150.7848  133.8908  159.3312 H   0  0  0  0  0  0  0  0  0  0  0  0  # atno 6907 bound_to 6896
  151.6761  135.0967  160.0216 H   0  0  0  0  0  0  0  0  0  0  0  0  # atno 6908 bound_to 6896
  152.3909  133.6638  159.6272 H   0  0  0  0  0  0  0  0  0  0  0  0  # atno 6909 bound_to 6896
  145.0961  139.3552  143.4836 H   0  0  0  0  0  0  0  0  0  0  0  0  # atno 7974 bound_to 7965
  154.4261  140.1798  156.1363 H   0  0  0  0  0  0  0  0  0  0  0  0  # atno 8008 bound_to 7997
  156.0027  140.3358  155.6837 H   0  0  0  0  0  0  0  0  0  0  0  0  # atno 8009 bound_to 7997
  155.6220  140.0661  157.2666 H   0  0  0  0  0  0  0  0  0  0  0  0  # atno 8010 bound_to 7997
  139.5795  144.1454  152.1496 H   0  0  0  0  0  0  0  0  0  0  0  0  # atno 10167 bound_to 10162
  156.8327  130.9659  151.3105 H   0  0  0  0  0  0  0  0  0  0  0  0  # atno 10718 bound_to 10713
  153.5639  135.7009  153.5535 H   0  0  0  0  0  0  0  0  0  0  0  0  # atno 10763 bound_to 10752
  153.3405  135.4022  155.1567 H   0  0  0  0  0  0  0  0  0  0  0  0  # atno 10764 bound_to 10752
  154.8643  135.3741  154.5157 H   0  0  0  0  0  0  0  0  0  0  0  0  # atno 10765 bound_to 10752
  140.1949  134.3941  155.8126 H   0  0  0  0  0  0  0  0  0  0  0  0  # atno 11005 bound_to 11000
  146.3530  140.0817  142.8617 LP  0  0  0  0  0  0  0  0  0  0  0  0  # atno 17320 bound_to 7965
  145.1010  140.9345  143.4713 LP  0  0  0  0  0  0  0  0  0  0  0  0  # atno 17321 bound_to 7965
  140.1005  144.5544  150.6992 LP  0  0  0  0  0  0  0  0  0  0  0  0  # atno 17342 bound_to 10162
  140.7075  143.2479  151.4682 LP  0  0  0  0  0  0  0  0  0  0  0  0  # atno 17343 bound_to 10162
  157.6398  130.8796  149.9427 LP  0  0  0  0  0  0  0  0  0  0  0  0  # atno 17370 bound_to 10713
  156.0925  130.3662  150.0368 LP  0  0  0  0  0  0  0  0  0  0  0  0  # atno 17371 bound_to 10713
  141.2227  133.7065  156.8159 LP  0  0  0  0  0  0  0  0  0  0  0  0  # atno 17394 bound_to 11000
  140.2118  134.8821  157.3283 LP  0  0  0  0  0  0  0  0  0  0  0  0  # atno 17395 bound_to 11000

$$$$
