AV-unprocessed.smi:3000|AV-procd|sdf|11429|dock5
  -GOLD-   2272016353D 1   1.00000     0.00000
 Structure written by MMmdl.
 44 45  0  0  0  0  0  0  0  0  1 V2000
  143.8153  142.3741  161.7609 C   0  0  0  0  0  0  0  0  0  0  0  0
  144.7214  142.8137  160.7215 N   0  0  0  0  0  0  0  0  0  0  0  0
  146.0858  143.0093  160.8000 C   0  0  0  0  0  0  0  0  0  0  0  0
  146.4736  143.4188  159.5597 C   0  0  0  0  0  0  0  0  0  0  0  0
  147.8059  143.7321  159.1919 N   0  0  0  0  0  0  0  0  0  0  0  0
  148.8698  143.8412  160.0035 C   0  0  0  0  0  0  0  0  0  0  0  0
  148.8435  143.6776  161.2227 O   0  0  0  0  0  0  0  0  0  0  0  0
  149.9750  144.1508  159.3052 N   0  0  0  0  0  0  0  0  0  0  0  0
  151.3495  144.3542  159.7892 C   0  0  1  0  0  0  0  0  0  0  0  0
  152.2087  144.9978  158.6708 C   0  0  0  0  0  0  0  0  0  0  0  0
  151.3254  145.3186  161.0117 C   0  0  0  0  0  0  0  0  0  0  0  0
  151.1634  146.6694  160.6277 O   0  0  0  0  0  0  0  0  0  0  0  0
  151.9228  142.9442  160.1765 C   0  0  0  0  0  0  0  0  0  0  0  0
  152.7047  142.9384  161.5186 C   0  0  0  0  0  0  0  0  0  0  0  0
  153.2065  141.5351  161.8953 C   0  0  0  0  0  0  0  0  0  0  0  0
  154.0788  140.9378  160.7845 C   0  0  0  0  0  0  0  0  0  0  0  0
  153.3174  140.9136  159.4537 C   0  0  0  0  0  0  0  0  0  0  0  0
  152.8144  142.3146  159.0715 C   0  0  0  0  0  0  0  0  0  0  0  0
  145.2879  143.4504  158.7725 C   0  0  0  0  0  0  0  0  0  0  0  0
  144.2342  143.0811  159.4857 N   0  0  0  0  0  0  0  0  0  0  0  0
  144.3247  142.3719  162.7249 H   0  0  0  0  0  0  0  0  0  0  0  0
  143.4661  141.3649  161.5412 H   0  0  0  0  0  0  0  0  0  0  0  0
  142.9582  143.0463  161.8159 H   0  0  0  0  0  0  0  0  0  0  0  0
  146.6464  142.8433  161.7082 H   0  0  0  0  0  0  0  0  0  0  0  0
  147.9664  143.8872  158.2077 H   0  0  0  0  0  0  0  0  0  0  0  0
  149.8578  144.2580  158.3083 H   0  0  0  0  0  0  0  0  0  0  0  0
  153.2685  144.9794  158.9265 H   0  0  0  0  0  0  0  0  0  0  0  0
  151.9431  146.0415  158.5028 H   0  0  0  0  0  0  0  0  0  0  0  0
  152.0900  144.4883  157.7151 H   0  0  0  0  0  0  0  0  0  0  0  0
  150.5082  145.0739  161.6901 H   0  0  0  0  0  0  0  0  0  0  0  0
  152.2372  145.2326  161.6027 H   0  0  0  0  0  0  0  0  0  0  0  0
  151.9949  147.1089  160.7200 H   0  0  0  0  0  0  0  0  0  0  0  0
  151.0736  142.2739  160.3171 H   0  0  0  0  0  0  0  0  0  0  0  0
  153.5564  143.6174  161.4652 H   0  0  0  0  0  0  0  0  0  0  0  0
  152.0768  143.2960  162.3333 H   0  0  0  0  0  0  0  0  0  0  0  0
  153.7721  141.5806  162.8264 H   0  0  0  0  0  0  0  0  0  0  0  0
  152.3544  140.8807  162.0840 H   0  0  0  0  0  0  0  0  0  0  0  0
  154.9913  141.5256  160.6761 H   0  0  0  0  0  0  0  0  0  0  0  0
  154.3892  139.9284  161.0556 H   0  0  0  0  0  0  0  0  0  0  0  0
  153.9619  140.5233  158.6656 H   0  0  0  0  0  0  0  0  0  0  0  0
  152.4711  140.2294  159.5277 H   0  0  0  0  0  0  0  0  0  0  0  0
  152.2656  142.2263  158.1350 H   0  0  0  0  0  0  0  0  0  0  0  0
  153.6718  142.9564  158.8663 H   0  0  0  0  0  0  0  0  0  0  0  0
  145.1479  143.7177  157.7358 H   0  0  0  0  0  0  0  0  0  0  0  0
  1  2  1  0  0  0  0
  1 21  1  0  0  0  0
  1 22  1  0  0  0  0
  1 23  1  0  0  0  0
  2 20  1  0  0  0  0
  2  3  1  0  0  0  0
  3  4  2  0  0  0  0
  3 24  1  0  0  0  0
  4  5  1  0  0  0  0
  4 19  1  0  0  0  0
  5  6  1  0  0  0  0
  5 25  1  0  0  0  0
  6  7  2  0  0  0  0
  6  8  1  0  0  0  0
  8  9  1  0  0  0  0
  8 26  1  0  0  0  0
  9 10  1  0  0  0  0
  9 11  1  0  0  0  0
  9 13  1  0  0  0  0
 10 27  1  0  0  0  0
 10 28  1  0  0  0  0
 10 29  1  0  0  0  0
 11 12  1  0  0  0  0
 11 30  1  0  0  0  0
 11 31  1  0  0  0  0
 12 32  1  0  0  0  0
 13 18  1  0  0  0  0
 13 14  1  0  0  0  0
 13 33  1  0  0  0  0
 14 15  1  0  0  0  0
 14 34  1  0  0  0  0
 14 35  1  0  0  0  0
 15 16  1  0  0  0  0
 15 36  1  0  0  0  0
 15 37  1  0  0  0  0
 16 17  1  0  0  0  0
 16 38  1  0  0  0  0
 16 39  1  0  0  0  0
 17 18  1  0  0  0  0
 17 40  1  0  0  0  0
 17 41  1  0  0  0  0
 18 42  1  0  0  0  0
 18 43  1  0  0  0  0
 19 20  2  0  0  0  0
 19 44  1  0  0  0  0
M  END
> <s_m_source_file>
AV-unprocessed.smi

> <i_m_source_file_index>
3000

> <i_lp_mmshare_version>
43012

> <i_f3d_flags>
0

> <s_epik_input>
W0NIM11uMVtjSF1jKFtjSF1uMSlbTkhdQyg9TylbTkhdW0NAQF0oW0NIM10pKFtDSDJdW09IXSlbQ0hdMltDSDJdW0NIMl1bQ0gyXVtDSDJdW0NIMl0y

> <s_epik_cmdline>
J2VwaWtfcHl0aG9uJywgJy1waCcsICc3LjAnLCAnLXRuJywgJzgnLCAnLW1hJywgJzIwMCcsICctbWV0YWxfYmluZGluZycsICctaW1hZScsICc8aW5maWxlLm1hZT4nLCAnLW9tYWUnLCAnPG91dGZpbGUubWFlPic=

> <r_lp_tautomer_probability>
1

> <r_epik_Ionization_Penalty>
0.000189471

> <r_epik_Ionization_Penalty_Charging>
0

> <r_epik_Ionization_Penalty_Neutral>
0.000189471

> <r_epik_State_Penalty>
-0

> <r_epik_Charging_Adjusted_Penalty>
0

> <i_epik_Tot_Q>
0

> <i_epik_Tot_abs_Q>
0

> <r_epik_Metal_State_Penalty>
-0

> <b_epik_Metal_Only>
0

> <s_lp_Force_Field>
OPLS_2005

> <r_lp_Energy>
20.4121

> <b_lp_Chiralities_Consistent>
1

> <s_lp_Variant>
AV-unprocessed.smi:3000-1

> <Gold.Version>
5.8.1

> <Gold.Id.Protein>
6NUR|6NUR_protein|mol2

> <Gold.PLP.Fitness>
45.6669

> <Gold.PLP.PLP>
-47.3987

> <Gold.PLP.part.hbond>
-4.7575

> <Gold.PLP.part.metal>
0.0000

> <Gold.PLP.part.buried>
-3.8565

> <Gold.PLP.part.nonpolar>
-37.8442

> <Gold.PLP.part.repulsive>
0.5820

> <Gold.PLP.ligand.clash>
0.0000

> <Gold.PLP.ligand.torsion>
2.1579

> <Gold.PLP.Chemscore.Hbond>
0.8531

> <Gold.PLP.Chemscore.CHOScore>
0.0000

> <Gold.PLP.Chemscore.Metal>
0.0000

> <Gold.Chemscore.Hbonds>
donor molecule, donor type, donor heavy atom, donor atom, acceptor molecule, acceptor atom, score
      L1  H     5    25       P1  8029  0.20
      P1  H  6933  6944       L1     7  0.35

> <Gold.PLP.Chemscore.Internal.Correction>
0.0246

> <Gold.Rescore>
     Score         DG    S(hbond)    S(metal)    S(lipo)     H(rot)  DE(clash)    DE(int)     intcor
      9.78     -17.68       1.14        0.00     115.87       2.02       3.71       4.19       ----

> <Gold.Chemscore.Fitness>
9.7816

> <Gold.Chemscore.DG>
-17.6782

> <Gold.Chemscore.ZeroCoef>
-5.4800

> <Gold.Chemscore.Hbond>
1.1389

> <Gold.Chemscore.Metal>
0.0000

> <Gold.Chemscore.Lipo>
115.8685

> <Gold.Chemscore.Internal_Hbond>
0.0000

> <Gold.Chemscore.DEClash>
3.7058

> <Gold.Chemscore.DEInternal>
4.1909

> <Gold.Chemscore.Rot>
2.0165

> <Gold.Chemscore.Internal.Correction>
   9.000000E+99

> <Gold.Chemscore.Hbonds>
donor molecule, donor type, donor heavy atom, donor atom, acceptor molecule, acceptor atom, score
      L1  H     5    25       P1  8029  0.05
      P1  H  6933  6944       L1     7  0.23

> <Gold.Chemscore.Hbond.Weighted>
-3.8038

> <Gold.Chemscore.Metal.Weighted>
-0.0000

> <Gold.Chemscore.Lipo.Weighted>
-13.5566

> <Gold.Chemscore.Internal_Hbond.Weighted>
0.0000

> <Gold.Chemscore.DEClash.Weighted>
3.7058

> <Gold.Chemscore.DEInternal.Weighted>
4.1909

> <Gold.Chemscore.Rot.Weighted>
5.1622

> <Gold.Chemscore.Internal.Correction.Weighted>
   9.000000E+99

> <Gold.Protein.RotatedTorsions>
[ 6907 6896 6895 6894 ] final  -15.50 input  -60.11 | X-H torsion
[ 7974 7965 7964 7962 ] final   19.13 input  175.53 | X-H torsion
[ 8008 7997 7996 7995 ] final -106.03 input   59.86 | X-H torsion
[ 10167 10162 10161 10158 ] final  126.04 input  -65.29 | X-H torsion
[ 10718 10713 10712 10709 ] final   96.87 input   66.30 | X-H torsion
[ 10763 10752 10751 10750 ] final   94.09 input  -60.55 | X-H torsion
[ 11005 11000 10999 10996 ] final  147.81 input  -57.11 | X-H torsion

> <Gold.Protein.ActiveResidues>
 VAL166  LYS551  ARG553  GLY616  TRP617  ASP618  TYR619  PRO620  LYS621  CYS622 
 ASP623  PHE694  ASN695  SER759  ASP760  ASP761  ALA762  ILE779  LEU786  VAL792 
 PHE793  MET794  SER795  GLU796  ALA797  LYS798  CYS799  TRP800  GLU811  SER814 

> <Gold.Protein.RotatedAtoms>
  151.3230  135.0823  159.9311 H   0  0  0  0  0  0  0  0  0  0  0  0  # atno 6907 bound_to 6896
  152.5252  133.9620  159.7732 H   0  0  0  0  0  0  0  0  0  0  0  0  # atno 6908 bound_to 6896
  150.9944  133.6065  159.2733 H   0  0  0  0  0  0  0  0  0  0  0  0  # atno 6909 bound_to 6896
  146.2160  139.8358  142.8651 H   0  0  0  0  0  0  0  0  0  0  0  0  # atno 7974 bound_to 7965
  154.9086  140.0410  157.1933 H   0  0  0  0  0  0  0  0  0  0  0  0  # atno 8008 bound_to 7997
  154.8371  140.2908  155.5662 H   0  0  0  0  0  0  0  0  0  0  0  0  # atno 8009 bound_to 7997
  156.2990  140.2490  156.3307 H   0  0  0  0  0  0  0  0  0  0  0  0  # atno 8010 bound_to 7997
  139.5653  144.6907  151.3929 H   0  0  0  0  0  0  0  0  0  0  0  0  # atno 10167 bound_to 10162
  157.6921  131.0591  150.4557 H   0  0  0  0  0  0  0  0  0  0  0  0  # atno 10718 bound_to 10713
  153.2376  135.4302  155.0664 H   0  0  0  0  0  0  0  0  0  0  0  0  # atno 10763 bound_to 10752
  154.8326  135.3395  154.6695 H   0  0  0  0  0  0  0  0  0  0  0  0  # atno 10764 bound_to 10752
  153.7120  135.7022  153.5091 H   0  0  0  0  0  0  0  0  0  0  0  0  # atno 10765 bound_to 10752
  140.0907  134.9043  157.1645 H   0  0  0  0  0  0  0  0  0  0  0  0  # atno 11005 bound_to 11000
  145.2950  141.0178  143.3641 LP  0  0  0  0  0  0  0  0  0  0  0  0  # atno 17320 bound_to 7965
  144.9049  139.4602  143.6615 LP  0  0  0  0  0  0  0  0  0  0  0  0  # atno 17321 bound_to 7965
  140.6936  143.7804  150.7292 LP  0  0  0  0  0  0  0  0  0  0  0  0  # atno 17342 bound_to 10162
  140.1293  143.4540  152.2264 LP  0  0  0  0  0  0  0  0  0  0  0  0  # atno 17343 bound_to 10162
  156.4905  130.4094  149.6409 LP  0  0  0  0  0  0  0  0  0  0  0  0  # atno 17370 bound_to 10713
  156.3422  130.7388  151.2335 LP  0  0  0  0  0  0  0  0  0  0  0  0  # atno 17371 bound_to 10713
  140.3357  134.2760  155.7220 LP  0  0  0  0  0  0  0  0  0  0  0  0  # atno 17394 bound_to 11000
  141.2077  133.7799  157.0105 LP  0  0  0  0  0  0  0  0  0  0  0  0  # atno 17395 bound_to 11000

$$$$
