AV-unprocessed.smi:2923|AV-procd|sdf|11202|dock1
  -GOLD-   2272016 93D 1   1.00000     0.00000
 Structure written by MMmdl.
 47 49  0  0  0  0  0  0  0  0  2 V2000
  143.6864  132.2361  150.2719 C   0  0  0  0  0  0  0  0  0  0  0  0
  144.5304  132.6324  151.3891 N   0  0  0  0  0  0  0  0  0  0  0  0
  145.9601  132.4262  151.2144 C   0  0  0  0  0  0  0  0  0  0  0  0
  144.2170  133.9064  151.8819 C   0  0  0  0  0  0  0  0  0  0  0  0
  144.5535  135.0726  151.1641 C   0  0  0  0  0  0  0  0  0  0  0  0
  144.2240  136.3341  151.7005 C   0  0  0  0  0  0  0  0  0  0  0  0
  143.5556  136.4158  152.9413 C   0  0  0  0  0  0  0  0  0  0  0  0
  143.2610  137.7093  153.4506 N   0  0  0  0  0  0  0  0  0  0  0  0
  142.6395  138.0354  154.5969 C   0  0  0  0  0  0  0  0  0  0  0  0
  142.1770  137.2353  155.4096 O   0  0  0  0  0  0  0  0  0  0  0  0
  142.5687  139.3645  154.7471 N   0  0  0  0  0  0  0  0  0  0  0  0
  141.9288  140.0432  155.8790 C   0  0  2  0  0  0  0  0  0  0  0  0
  140.4476  140.3351  155.6249 C   0  0  2  0  0  0  0  0  0  0  0  0
  139.4122  139.8419  154.6801 C   0  0  0  0  0  0  0  0  0  0  0  0
  138.7646  141.2182  154.3674 C   0  0  0  0  0  0  0  0  0  0  0  0
  139.6463  142.2154  154.9452 O   0  0  0  0  0  0  0  0  0  0  0  0
  140.9172  141.5962  154.9290 C   0  0  1  0  0  0  0  0  0  0  0  0
  142.1003  141.6144  155.9226 C   0  0  0  0  0  0  0  0  0  0  0  0
  141.8689  142.3116  157.2756 C   0  0  0  0  0  0  0  0  0  0  0  0
  143.4099  142.1930  155.3750 C   0  0  0  0  0  0  0  0  0  0  0  0
  143.2509  135.2115  153.6223 C   0  0  0  0  0  0  0  0  0  0  0  0
  143.5856  134.0232  153.0741 N   0  3  0  0  0  0  0  0  0  0  0  0
  142.6330  132.4001  150.5029 H   0  0  0  0  0  0  0  0  0  0  0  0
  143.8214  131.1762  150.0552 H   0  0  0  0  0  0  0  0  0  0  0  0
  143.9351  132.8023  149.3734 H   0  0  0  0  0  0  0  0  0  0  0  0
  146.5093  132.7385  152.1034 H   0  0  0  0  0  0  0  0  0  0  0  0
  146.3361  132.9899  150.3600 H   0  0  0  0  0  0  0  0  0  0  0  0
  146.1697  131.3698  151.0446 H   0  0  0  0  0  0  0  0  0  0  0  0
  145.0605  135.0038  150.2125 H   0  0  0  0  0  0  0  0  0  0  0  0
  144.4812  137.2317  151.1570 H   0  0  0  0  0  0  0  0  0  0  0  0
  143.5153  138.4804  152.8507 H   0  0  0  0  0  0  0  0  0  0  0  0
  142.9720  139.9515  154.0318 H   0  0  0  0  0  0  0  0  0  0  0  0
  142.1051  139.5606  156.8419 H   0  0  0  0  0  0  0  0  0  0  0  0
  139.9691  140.5356  156.5865 H   0  0  0  0  0  0  0  0  0  0  0  0
  139.8473  139.3826  153.7916 H   0  0  0  0  0  0  0  0  0  0  0  0
  138.7133  139.1433  155.1408 H   0  0  0  0  0  0  0  0  0  0  0  0
  138.6749  141.3685  153.2909 H   0  0  0  0  0  0  0  0  0  0  0  0
  137.7707  141.3108  154.8059 H   0  0  0  0  0  0  0  0  0  0  0  0
  141.2504  141.4405  153.8977 H   0  0  0  0  0  0  0  0  0  0  0  0
  141.7053  143.3816  157.1442 H   0  0  0  0  0  0  0  0  0  0  0  0
  142.7300  142.1929  157.9340 H   0  0  0  0  0  0  0  0  0  0  0  0
  141.0091  141.9287  157.8223 H   0  0  0  0  0  0  0  0  0  0  0  0
  143.3866  143.2828  155.3470 H   0  0  0  0  0  0  0  0  0  0  0  0
  143.6120  141.8585  154.3575 H   0  0  0  0  0  0  0  0  0  0  0  0
  144.2620  141.8975  155.9877 H   0  0  0  0  0  0  0  0  0  0  0  0
  142.7678  135.1453  154.5852 H   0  0  0  0  0  0  0  0  0  0  0  0
  143.3542  133.1725  153.5873 H   0  0  0  0  0  0  0  0  0  0  0  0
  1  2  1  0  0  0  0
  1 23  1  0  0  0  0
  1 24  1  0  0  0  0
  1 25  1  0  0  0  0
  2  3  1  0  0  0  0
  2  4  1  0  0  0  0
  3 26  1  0  0  0  0
  3 27  1  0  0  0  0
  3 28  1  0  0  0  0
  4 22  1  0  0  0  0
  4  5  2  0  0  0  0
  5  6  1  0  0  0  0
  5 29  1  0  0  0  0
  6  7  2  0  0  0  0
  6 30  1  0  0  0  0
  7  8  1  0  0  0  0
  7 21  1  0  0  0  0
  8  9  1  0  0  0  0
  8 31  1  0  0  0  0
  9 10  2  0  0  0  0
  9 11  1  0  0  0  0
 11 12  1  0  0  0  0
 11 32  1  0  0  0  0
 12 18  1  0  0  0  0
 12 13  1  0  0  0  0
 12 33  1  0  0  0  0
 13 17  1  0  0  0  0
 13 14  1  0  0  0  0
 13 34  1  0  0  0  0
 14 15  1  0  0  0  0
 14 35  1  0  0  0  0
 14 36  1  0  0  0  0
 15 16  1  0  0  0  0
 15 37  1  0  0  0  0
 15 38  1  0  0  0  0
 16 17  1  0  0  0  0
 17 18  1  0  0  0  0
 17 39  1  0  0  0  0
 18 19  1  0  0  0  0
 18 20  1  0  0  0  0
 19 40  1  0  0  0  0
 19 41  1  0  0  0  0
 19 42  1  0  0  0  0
 20 43  1  0  0  0  0
 20 44  1  0  0  0  0
 20 45  1  0  0  0  0
 21 22  2  0  0  0  0
 21 46  1  0  0  0  0
 22 47  1  0  0  0  0
M  CHG  1  22   1
M  END
> <s_m_source_file>
AV-unprocessed.smi

> <i_m_source_file_index>
2923

> <i_lp_mmshare_version>
43012

> <i_f3d_flags>
0

> <s_epik_input>
W0NIM11OKFtDSDNdKWMxW2NIXVtjSF1jKFtjSF1uMSlbTkhdQyg9TylbTkhdW0NASF0yQyhbQ0gzXSkoW0NIM10pW0NAQEhdKFtDQEhdMjMpT1tDSDJdW0NIMl0z

> <s_epik_cmdline>
J2VwaWtfcHl0aG9uJywgJy1waCcsICc3LjAnLCAnLXRuJywgJzgnLCAnLW1hJywgJzIwMCcsICctbWV0YWxfYmluZGluZycsICctaW1hZScsICc8aW5maWxlLm1hZT4nLCAnLW9tYWUnLCAnPG91dGZpbGUubWFlPic=

> <r_lp_tautomer_probability>
0.999994

> <r_epik_Ionization_Penalty>
0.252205

> <r_epik_Ionization_Penalty_Charging>
0.252185

> <r_epik_Ionization_Penalty_Neutral>
1.99479e-05

> <r_epik_State_Penalty>
0.243573

> <r_epik_Charging_Adjusted_Penalty>
0.495758

> <i_epik_Tot_Q>
1

> <i_epik_Tot_abs_Q>
1

> <r_epik_Metal_State_Penalty>
0.534372

> <b_epik_Metal_Only>
0

> <s_lp_Force_Field>
OPLS_2005

> <r_lp_Energy>
76.1272

> <b_lp_Chiralities_Consistent>
1

> <s_lp_Variant>
AV-unprocessed.smi:2923-1

> <Gold.Version>
5.8.1

> <Gold.Id.Protein>
6NUR|6NUR_protein|mol2

> <Gold.PLP.Fitness>
40.5597

> <Gold.PLP.PLP>
-28.4892

> <Gold.PLP.part.hbond>
-3.3239

> <Gold.PLP.part.metal>
0.0000

> <Gold.PLP.part.buried>
-3.3676

> <Gold.PLP.part.nonpolar>
-20.9609

> <Gold.PLP.part.repulsive>
0.2713

> <Gold.PLP.ligand.clash>
0.0000

> <Gold.PLP.ligand.torsion>
0.3549

> <Gold.PLP.Chemscore.Hbond>
4.1053

> <Gold.PLP.Chemscore.CHOScore>
0.0000

> <Gold.PLP.Chemscore.Metal>
0.0000

> <Gold.Chemscore.Hbonds>
donor molecule, donor type, donor heavy atom, donor atom, acceptor molecule, acceptor atom, score
      L1  H     8    31       P1 10175  1.00
      L1  H    11    32       P1 10175  1.00
      L1  H    22    47       P1 10957  2.00

> <Gold.PLP.Chemscore.Internal.Correction>
0.4644

> <Gold.Rescore>
     Score         DG    S(hbond)    S(metal)    S(lipo)     H(rot)  DE(clash)    DE(int)     intcor
     16.93     -18.60       2.83        0.00      57.69       1.20       0.10       1.57       ----

> <Gold.Chemscore.Fitness>
16.9279

> <Gold.Chemscore.DG>
-18.5979

> <Gold.Chemscore.ZeroCoef>
-5.4800

> <Gold.Chemscore.Hbond>
2.8303

> <Gold.Chemscore.Metal>
0.0000

> <Gold.Chemscore.Lipo>
57.6851

> <Gold.Chemscore.Internal_Hbond>
0.0000

> <Gold.Chemscore.DEClash>
0.0998

> <Gold.Chemscore.DEInternal>
1.5702

> <Gold.Chemscore.Rot>
1.2049

> <Gold.Chemscore.Internal.Correction>
   9.000000E+99

> <Gold.Chemscore.Hbonds>
donor molecule, donor type, donor heavy atom, donor atom, acceptor molecule, acceptor atom, score
      L1  H     8    31       P1 10175  0.92
      L1  H    11    32       P1 10175  1.00
      L1  H    22    47       P1 10957  0.95

> <Gold.Chemscore.Hbond.Weighted>
-9.4534

> <Gold.Chemscore.Metal.Weighted>
-0.0000

> <Gold.Chemscore.Lipo.Weighted>
-6.7492

> <Gold.Chemscore.Internal_Hbond.Weighted>
0.0000

> <Gold.Chemscore.DEClash.Weighted>
0.0998

> <Gold.Chemscore.DEInternal.Weighted>
1.5702

> <Gold.Chemscore.Rot.Weighted>
3.0846

> <Gold.Chemscore.Internal.Correction.Weighted>
   9.000000E+99

> <Gold.Protein.RotatedTorsions>
[ 6907 6896 6895 6894 ] final  119.40 input  -60.11 | X-H torsion
[ 7974 7965 7964 7962 ] final   73.48 input  175.53 | X-H torsion
[ 8008 7997 7996 7995 ] final -112.87 input   59.86 | X-H torsion
[ 10167 10162 10161 10158 ] final -128.78 input  -65.29 | X-H torsion
[ 10718 10713 10712 10709 ] final  -47.08 input   66.30 | X-H torsion
[ 10763 10752 10751 10750 ] final -104.66 input  -60.55 | X-H torsion
[ 11005 11000 10999 10996 ] final  138.11 input  -57.11 | X-H torsion

> <Gold.Protein.ActiveResidues>
 VAL166  LYS551  ARG553  GLY616  TRP617  ASP618  TYR619  PRO620  LYS621  CYS622 
 ASP623  PHE694  ASN695  SER759  ASP760  ASP761  ALA762  ILE779  LEU786  VAL792 
 PHE793  MET794  SER795  GLU796  ALA797  LYS798  CYS799  TRP800  GLU811  SER814 

> <Gold.Protein.RotatedAtoms>
  152.4475  133.7564  159.6722 H   0  0  0  0  0  0  0  0  0  0  0  0  # atno 6907 bound_to 6896
  150.8378  133.7975  159.3079 H   0  0  0  0  0  0  0  0  0  0  0  0  # atno 6908 bound_to 6896
  151.5609  135.1068  160.0024 H   0  0  0  0  0  0  0  0  0  0  0  0  # atno 6909 bound_to 6896
  145.7403  139.2718  143.1490 H   0  0  0  0  0  0  0  0  0  0  0  0  # atno 7974 bound_to 7965
  155.0118  140.0393  157.2402 H   0  0  0  0  0  0  0  0  0  0  0  0  # atno 8008 bound_to 7997
  154.7453  140.2756  155.6315 H   0  0  0  0  0  0  0  0  0  0  0  0  # atno 8009 bound_to 7997
  156.2873  140.2657  156.2192 H   0  0  0  0  0  0  0  0  0  0  0  0  # atno 8010 bound_to 7997
  139.9467  143.6102  152.2488 H   0  0  0  0  0  0  0  0  0  0  0  0  # atno 10167 bound_to 10162
  156.2119  130.4161  149.9104 H   0  0  0  0  0  0  0  0  0  0  0  0  # atno 10718 bound_to 10713
  154.7894  135.4778  154.0018 H   0  0  0  0  0  0  0  0  0  0  0  0  # atno 10763 bound_to 10752
  153.1608  135.6808  153.8753 H   0  0  0  0  0  0  0  0  0  0  0  0  # atno 10764 bound_to 10752
  153.8367  135.3184  155.3401 H   0  0  0  0  0  0  0  0  0  0  0  0  # atno 10765 bound_to 10752
  140.0160  134.9418  157.0377 H   0  0  0  0  0  0  0  0  0  0  0  0  # atno 11005 bound_to 11000
  146.0454  140.8123  142.9808 LP  0  0  0  0  0  0  0  0  0  0  0  0  # atno 17320 bound_to 7965
  144.6872  140.2972  143.7269 LP  0  0  0  0  0  0  0  0  0  0  0  0  # atno 17321 bound_to 7965
  139.6661  144.7662  151.1870 LP  0  0  0  0  0  0  0  0  0  0  0  0  # atno 17342 bound_to 10162
  140.7595  143.5935  150.8772 LP  0  0  0  0  0  0  0  0  0  0  0  0  # atno 17343 bound_to 10162
  156.6779  130.8846  151.3571 LP  0  0  0  0  0  0  0  0  0  0  0  0  # atno 17370 bound_to 10713
  157.7043  130.9367  150.0881 LP  0  0  0  0  0  0  0  0  0  0  0  0  # atno 17371 bound_to 10713
  140.4470  134.1622  155.7178 LP  0  0  0  0  0  0  0  0  0  0  0  0  # atno 17394 bound_to 11000
  141.1743  133.8545  157.1471 LP  0  0  0  0  0  0  0  0  0  0  0  0  # atno 17395 bound_to 11000

$$$$
