AV-unprocessed.smi:2524|AV-procd|sdf|9925|dock3
  -GOLD-   2272013563D 1   1.00000     0.00000
 Structure written by MMmdl.
 36 37  0  0  0  0  0  0  0  0  3 V2000
  146.9258  135.3637  162.6164 C   0  0  0  0  0  0  0  0  0  0  0  0
  147.0929  135.9886  161.4413 C   0  0  0  0  0  0  0  0  0  0  0  0
  148.4381  136.3106  160.8251 C   0  0  0  0  0  0  0  0  0  0  0  0
  148.2923  136.9871  159.4567 C   0  0  0  0  0  0  0  0  0  0  0  0
  149.9389  137.2002  158.6428 S   0  0  0  0  0  0  0  0  0  0  0  0
  150.7353  138.0553  159.5393 O   0  0  0  0  0  0  0  0  0  0  0  0
  150.4389  135.8344  158.4240 O   0  0  0  0  0  0  0  0  0  0  0  0
  149.5381  137.9107  157.2366 N   0  5  0  0  0  0  0  0  0  0  0  0
  150.0826  137.4382  155.9691 C   0  0  0  0  0  0  0  0  0  0  0  0
  151.1283  138.4035  155.3728 C   0  0  0  0  0  0  0  0  0  0  0  0
  150.6085  139.8229  155.3846 C   0  0  0  0  0  0  0  0  0  0  0  0
  151.1551  140.7932  156.2603 C   0  0  0  0  0  0  0  0  0  0  0  0
  150.6426  142.1062  156.2591 C   0  0  0  0  0  0  0  0  0  0  0  0
  149.6287  142.4310  155.4290 N   0  3  0  0  0  0  0  0  0  0  0  0
  149.0671  141.5427  154.5817 C   0  0  0  0  0  0  0  0  0  0  0  0
  149.5409  140.2159  154.5405 C   0  0  0  0  0  0  0  0  0  0  0  0
  152.6223  138.1962  155.5778 C   0  0  0  0  0  0  0  0  0  0  0  0
  152.0186  137.9943  154.2085 C   0  0  0  0  0  0  0  0  0  0  0  0
  147.7719  135.0458  163.2079 H   0  0  0  0  0  0  0  0  0  0  0  0
  145.9375  135.1622  163.0023 H   0  0  0  0  0  0  0  0  0  0  0  0
  146.2235  136.2920  160.8765 H   0  0  0  0  0  0  0  0  0  0  0  0
  149.0066  136.9533  161.4984 H   0  0  0  0  0  0  0  0  0  0  0  0
  149.0008  135.3820  160.7262 H   0  0  0  0  0  0  0  0  0  0  0  0
  147.6640  136.3897  158.7958 H   0  0  0  0  0  0  0  0  0  0  0  0
  147.8277  137.9665  159.5664 H   0  0  0  0  0  0  0  0  0  0  0  0
  150.5623  136.4649  156.0790 H   0  0  0  0  0  0  0  0  0  0  0  0
  149.2921  137.2975  155.2311 H   0  0  0  0  0  0  0  0  0  0  0  0
  151.9662  140.5312  156.9245 H   0  0  0  0  0  0  0  0  0  0  0  0
  151.0105  142.8997  156.8930 H   0  0  0  0  0  0  0  0  0  0  0  0
  148.2612  141.9163  153.9671 H   0  0  0  0  0  0  0  0  0  0  0  0
  149.0923  139.5034  153.8633 H   0  0  0  0  0  0  0  0  0  0  0  0
  153.2441  139.0781  155.7173 H   0  0  0  0  0  0  0  0  0  0  0  0
  152.9873  137.3002  156.0781 H   0  0  0  0  0  0  0  0  0  0  0  0
  151.9954  136.9704  153.8379 H   0  0  0  0  0  0  0  0  0  0  0  0
  152.2477  138.7448  153.4544 H   0  0  0  0  0  0  0  0  0  0  0  0
  149.2715  143.3867  155.4434 H   0  0  0  0  0  0  0  0  0  0  0  0
  1  2  2  0  0  0  0
  1 19  1  0  0  0  0
  1 20  1  0  0  0  0
  2  3  1  0  0  0  0
  2 21  1  0  0  0  0
  3  4  1  0  0  0  0
  3 22  1  0  0  0  0
  3 23  1  0  0  0  0
  4  5  1  0  0  0  0
  4 24  1  0  0  0  0
  4 25  1  0  0  0  0
  5  6  2  0  0  0  0
  5  7  2  0  0  0  0
  5  8  1  0  0  0  0
  8  9  1  0  0  0  0
  9 10  1  0  0  0  0
  9 26  1  0  0  0  0
  9 27  1  0  0  0  0
 10 18  1  0  0  0  0
 10 11  1  0  0  0  0
 10 17  1  0  0  0  0
 11 16  1  0  0  0  0
 11 12  2  0  0  0  0
 12 13  1  0  0  0  0
 12 28  1  0  0  0  0
 13 14  2  0  0  0  0
 13 29  1  0  0  0  0
 14 15  1  0  0  0  0
 14 36  1  0  0  0  0
 15 16  2  0  0  0  0
 15 30  1  0  0  0  0
 16 31  1  0  0  0  0
 17 18  1  0  0  0  0
 17 32  1  0  0  0  0
 17 33  1  0  0  0  0
 18 34  1  0  0  0  0
 18 35  1  0  0  0  0
M  CHG  1   8  -1
M  CHG  1  14   1
M  END
> <s_m_source_file>
AV-unprocessed.smi

> <i_m_source_file_index>
2524

> <i_lp_mmshare_version>
43012

> <i_f3d_flags>
0

> <s_epik_input>
W0NIMl09W0NIXVtDSDJdW0NIMl1TKD1PKSg9TylbTkhdW0NIMl1DMShbQ0gyXVtDSDJdMSljMltjSF1bY0hdbltjSF1bY0hdMg==

> <s_epik_cmdline>
J2VwaWtfcHl0aG9uJywgJy1waCcsICc3LjAnLCAnLXRuJywgJzgnLCAnLW1hJywgJzIwMCcsICctbWV0YWxfYmluZGluZycsICctaW1hZScsICc8aW5maWxlLm1hZT4nLCAnLW9tYWUnLCAnPG91dGZpbGUubWFlPic=

> <r_epik_Ionization_Penalty>
7.77019

> <r_epik_Ionization_Penalty_Charging>
7.77019

> <r_epik_Ionization_Penalty_Neutral>
0

> <r_epik_State_Penalty>
8.15763

> <r_epik_Charging_Adjusted_Penalty>
15.9278

> <i_epik_Tot_Q>
0

> <i_epik_Tot_abs_Q>
2

> <r_epik_Metal_State_Penalty>
4.11642

> <b_epik_Metal_Only>
1

> <s_lp_Force_Field>
OPLS_2005

> <r_lp_Energy>
17.0566

> <b_lp_Chiralities_Consistent>
1

> <s_lp_Variant>
AV-unprocessed.smi:2524-4

> <Gold.Version>
5.8.1

> <Gold.Id.Protein>
6NUR|6NUR_protein|mol2

> <Gold.PLP.Fitness>
43.1590

> <Gold.PLP.PLP>
-35.3951

> <Gold.PLP.part.hbond>
-2.9638

> <Gold.PLP.part.metal>
0.0000

> <Gold.PLP.part.buried>
-3.5290

> <Gold.PLP.part.nonpolar>
-29.9469

> <Gold.PLP.part.repulsive>
0.2106

> <Gold.PLP.ligand.clash>
0.0000

> <Gold.PLP.ligand.torsion>
1.6041

> <Gold.PLP.Chemscore.Hbond>
2.8320

> <Gold.PLP.Chemscore.CHOScore>
0.0000

> <Gold.PLP.Chemscore.Metal>
0.0000

> <Gold.Chemscore.Hbonds>
donor molecule, donor type, donor heavy atom, donor atom, acceptor molecule, acceptor atom, score
      L1  H    14    36       P1  8028  1.33
      P1  H  6896  6908       L1     7  0.83

> <Gold.PLP.Chemscore.Internal.Correction>
2.4761

> <Gold.Rescore>
     Score         DG    S(hbond)    S(metal)    S(lipo)     H(rot)  DE(clash)    DE(int)     intcor
     16.31     -17.92       1.92        0.00      88.83       1.70       0.07       1.54       ----

> <Gold.Chemscore.Fitness>
16.3102

> <Gold.Chemscore.DG>
-17.9201

> <Gold.Chemscore.ZeroCoef>
-5.4800

> <Gold.Chemscore.Hbond>
1.9175

> <Gold.Chemscore.Metal>
0.0000

> <Gold.Chemscore.Lipo>
88.8262

> <Gold.Chemscore.Internal_Hbond>
0.0000

> <Gold.Chemscore.DEClash>
0.0697

> <Gold.Chemscore.DEInternal>
1.5401

> <Gold.Chemscore.Rot>
1.7020

> <Gold.Chemscore.Internal.Correction>
   9.000000E+99

> <Gold.Chemscore.Hbonds>
donor molecule, donor type, donor heavy atom, donor atom, acceptor molecule, acceptor atom, score
      L1  H    14    36       P1  8028  0.67
      P1  H  6896  6908       L1     7  0.80

> <Gold.Chemscore.Hbond.Weighted>
-6.4046

> <Gold.Chemscore.Metal.Weighted>
-0.0000

> <Gold.Chemscore.Lipo.Weighted>
-10.3927

> <Gold.Chemscore.Internal_Hbond.Weighted>
0.0000

> <Gold.Chemscore.DEClash.Weighted>
0.0697

> <Gold.Chemscore.DEInternal.Weighted>
1.5401

> <Gold.Chemscore.Rot.Weighted>
4.3572

> <Gold.Chemscore.Internal.Correction.Weighted>
   9.000000E+99

> <Gold.Protein.RotatedTorsions>
[ 6907 6896 6895 6894 ] final -171.30 input  -60.11 | X-H torsion
[ 7974 7965 7964 7962 ] final  -63.55 input  175.53 | X-H torsion
[ 8008 7997 7996 7995 ] final  -25.05 input   59.86 | X-H torsion
[ 10167 10162 10161 10158 ] final  -61.76 input  -65.29 | X-H torsion
[ 10718 10713 10712 10709 ] final  142.89 input   66.30 | X-H torsion
[ 10763 10752 10751 10750 ] final  129.11 input  -60.55 | X-H torsion
[ 11005 11000 10999 10996 ] final   -2.55 input  -57.11 | X-H torsion

> <Gold.Protein.ActiveResidues>
 VAL166  LYS551  ARG553  GLY616  TRP617  ASP618  TYR619  PRO620  LYS621  CYS622 
 ASP623  PHE694  ASN695  SER759  ASP760  ASP761  ALA762  ILE779  LEU786  VAL792 
 PHE793  MET794  SER795  GLU796  ALA797  LYS798  CYS799  TRP800  GLU811  SER814 

> <Gold.Protein.RotatedAtoms>
  151.5216  133.3465  159.2902 H   0  0  0  0  0  0  0  0  0  0  0  0  # atno 6907 bound_to 6896
  150.8649  134.8012  159.7122 H   0  0  0  0  0  0  0  0  0  0  0  0  # atno 6908 bound_to 6896
  152.4656  134.5091  159.9800 H   0  0  0  0  0  0  0  0  0  0  0  0  # atno 6909 bound_to 6896
  145.7777  140.8779  143.0347 H   0  0  0  0  0  0  0  0  0  0  0  0  # atno 7974 bound_to 7965
  154.4496  140.1937  156.0560 H   0  0  0  0  0  0  0  0  0  0  0  0  # atno 8008 bound_to 7997
  156.0619  140.3295  155.7444 H   0  0  0  0  0  0  0  0  0  0  0  0  # atno 8009 bound_to 7997
  155.5399  140.0585  157.2863 H   0  0  0  0  0  0  0  0  0  0  0  0  # atno 8010 bound_to 7997
  140.5984  143.2356  151.5983 H   0  0  0  0  0  0  0  0  0  0  0  0  # atno 10167 bound_to 10162
  157.3753  131.0984  151.0790 H   0  0  0  0  0  0  0  0  0  0  0  0  # atno 10718 bound_to 10713
  153.7365  135.3230  155.3296 H   0  0  0  0  0  0  0  0  0  0  0  0  # atno 10763 bound_to 10752
  154.8309  135.4534  154.1070 H   0  0  0  0  0  0  0  0  0  0  0  0  # atno 10764 bound_to 10752
  153.2232  135.6951  153.8057 H   0  0  0  0  0  0  0  0  0  0  0  0  # atno 10765 bound_to 10752
  140.6596  133.9332  155.8428 H   0  0  0  0  0  0  0  0  0  0  0  0  # atno 11005 bound_to 11000
  144.6802  139.9944  143.7484 LP  0  0  0  0  0  0  0  0  0  0  0  0  # atno 17320 bound_to 7965
  146.0106  139.3167  143.0872 LP  0  0  0  0  0  0  0  0  0  0  0  0  # atno 17321 bound_to 7965
  139.5274  144.3017  152.1067 LP  0  0  0  0  0  0  0  0  0  0  0  0  # atno 17342 bound_to 10162
  140.2194  144.4482  150.6349 LP  0  0  0  0  0  0  0  0  0  0  0  0  # atno 17343 bound_to 10162
  157.1878  130.6338  149.5694 LP  0  0  0  0  0  0  0  0  0  0  0  0  # atno 17370 bound_to 10713
  155.9764  130.4732  150.6525 LP  0  0  0  0  0  0  0  0  0  0  0  0  # atno 17371 bound_to 10713
  141.0475  134.0532  157.3825 LP  0  0  0  0  0  0  0  0  0  0  0  0  # atno 17394 bound_to 11000
  139.9017  135.0167  156.7301 LP  0  0  0  0  0  0  0  0  0  0  0  0  # atno 17395 bound_to 11000

$$$$
