AV-unprocessed.smi:3037|AV-procd|sdf|11586|dock2
  -GOLD-   2272016563D 1   1.00000     0.00000
 Structure written by MMmdl.
 47 48  0  0  0  0  0  0  0  0  2 V2000
  142.8901  135.3895  153.0842 C   0  0  0  0  0  0  0  0  0  0  0  0
  144.2074  136.1083  153.0295 C   0  0  0  0  0  0  0  0  0  0  0  0
  145.4517  135.6958  153.5855 C   0  0  0  0  0  0  0  0  0  0  0  0
  146.4269  136.5615  153.3616 N   0  0  0  0  0  0  0  0  0  0  0  0
  145.8426  137.5529  152.6560 N   0  0  0  0  0  0  0  0  0  0  0  0
  146.6282  138.6970  152.2291 C   0  0  0  0  0  0  0  0  0  0  0  0
  147.4588  139.3193  153.3705 C   0  0  2  0  0  0  0  0  0  0  0  0
  147.3397  140.8557  153.4204 C   0  0  0  0  0  0  0  0  0  0  0  0
  148.8701  138.8961  153.2260 N   0  3  0  0  0  0  0  0  0  0  0  0
  149.6388  138.7983  154.4850 C   0  0  0  0  0  0  0  0  0  0  0  0
  150.2622  140.1572  154.8533 C   0  0  0  0  0  0  0  0  0  0  0  0
  151.3211  140.0718  155.9670 C   0  0  0  0  0  0  0  0  0  0  0  0
  152.4311  139.6116  155.6957 O   0  0  0  0  0  0  0  0  0  0  0  0
  151.0032  140.5032  157.2125 N   0  0  0  0  0  0  0  0  0  0  0  0
  151.9672  140.4990  158.3220 C   0  0  0  0  0  0  0  0  0  0  0  0
  152.3316  141.9526  158.6754 C   0  0  0  0  0  0  0  0  0  0  0  0
  151.0707  142.7716  159.0076 C   0  0  0  0  0  0  0  0  0  0  0  0
  149.9943  142.6218  157.9165 C   0  0  0  0  0  0  0  0  0  0  0  0
  149.7348  141.1375  157.6001 C   0  0  0  0  0  0  0  0  0  0  0  0
  144.5024  137.3071  152.4445 C   0  0  0  0  0  0  0  0  0  0  0  0
  143.0129  134.3378  153.3439 H   0  0  0  0  0  0  0  0  0  0  0  0
  142.3711  135.4243  152.1262 H   0  0  0  0  0  0  0  0  0  0  0  0
  142.2246  135.8282  153.8279 H   0  0  0  0  0  0  0  0  0  0  0  0
  145.6728  134.7976  154.1432 H   0  0  0  0  0  0  0  0  0  0  0  0
  147.2849  138.3684  151.4223 H   0  0  0  0  0  0  0  0  0  0  0  0
  145.9583  139.4434  151.7980 H   0  0  0  0  0  0  0  0  0  0  0  0
  147.0825  138.9126  154.3106 H   0  0  0  0  0  0  0  0  0  0  0  0
  146.3058  141.1716  153.5592 H   0  0  0  0  0  0  0  0  0  0  0  0
  147.7027  141.3102  152.4981 H   0  0  0  0  0  0  0  0  0  0  0  0
  147.9063  141.2820  154.2476 H   0  0  0  0  0  0  0  0  0  0  0  0
  148.8687  137.9773  152.8064 H   0  0  0  0  0  0  0  0  0  0  0  0
  148.9808  138.4636  155.2870 H   0  0  0  0  0  0  0  0  0  0  0  0
  150.4212  138.0465  154.3691 H   0  0  0  0  0  0  0  0  0  0  0  0
  150.7215  140.5952  153.9659 H   0  0  0  0  0  0  0  0  0  0  0  0
  149.4702  140.8328  155.1789 H   0  0  0  0  0  0  0  0  0  0  0  0
  151.5209  140.0033  159.1853 H   0  0  0  0  0  0  0  0  0  0  0  0
  152.8738  139.9366  158.0957 H   0  0  0  0  0  0  0  0  0  0  0  0
  153.0225  141.9725  159.5185 H   0  0  0  0  0  0  0  0  0  0  0  0
  152.8545  142.4112  157.8351 H   0  0  0  0  0  0  0  0  0  0  0  0
  150.6636  142.4281  159.9594 H   0  0  0  0  0  0  0  0  0  0  0  0
  151.3277  143.8224  159.1436 H   0  0  0  0  0  0  0  0  0  0  0  0
  149.0707  143.1054  158.2356 H   0  0  0  0  0  0  0  0  0  0  0  0
  150.3171  143.1368  157.0108 H   0  0  0  0  0  0  0  0  0  0  0  0
  148.9519  141.0555  156.8485 H   0  0  0  0  0  0  0  0  0  0  0  0
  149.3405  140.6333  158.4838 H   0  0  0  0  0  0  0  0  0  0  0  0
  143.8755  137.9977  151.8996 H   0  0  0  0  0  0  0  0  0  0  0  0
  149.3386  139.5332  152.5978 H   0  0  0  0  0  0  0  0  0  0  0  0
  1  2  1  0  0  0  0
  1 21  1  0  0  0  0
  1 22  1  0  0  0  0
  1 23  1  0  0  0  0
  2 20  2  0  0  0  0
  2  3  1  0  0  0  0
  3  4  2  0  0  0  0
  3 24  1  0  0  0  0
  4  5  1  0  0  0  0
  5  6  1  0  0  0  0
  5 20  1  0  0  0  0
  6  7  1  0  0  0  0
  6 25  1  0  0  0  0
  6 26  1  0  0  0  0
  7  8  1  0  0  0  0
  7  9  1  0  0  0  0
  7 27  1  0  0  0  0
  8 28  1  0  0  0  0
  8 29  1  0  0  0  0
  8 30  1  0  0  0  0
  9 10  1  0  0  0  0
  9 31  1  0  0  0  0
  9 47  1  0  0  0  0
 10 11  1  0  0  0  0
 10 32  1  0  0  0  0
 10 33  1  0  0  0  0
 11 12  1  0  0  0  0
 11 34  1  0  0  0  0
 11 35  1  0  0  0  0
 12 13  2  0  0  0  0
 12 14  1  0  0  0  0
 14 19  1  0  0  0  0
 14 15  1  0  0  0  0
 15 16  1  0  0  0  0
 15 36  1  0  0  0  0
 15 37  1  0  0  0  0
 16 17  1  0  0  0  0
 16 38  1  0  0  0  0
 16 39  1  0  0  0  0
 17 18  1  0  0  0  0
 17 40  1  0  0  0  0
 17 41  1  0  0  0  0
 18 19  1  0  0  0  0
 18 42  1  0  0  0  0
 18 43  1  0  0  0  0
 19 44  1  0  0  0  0
 19 45  1  0  0  0  0
 20 46  1  0  0  0  0
M  CHG  1   9   1
M  END
> <s_m_source_file>
AV-unprocessed.smi

> <i_m_source_file_index>
3037

> <i_lp_mmshare_version>
43012

> <i_f3d_flags>
0

> <s_epik_input>
W0NIM11jMVtjSF1ubihbY0hdMSlbQ0gyXVtDQEhdKFtDSDNdKVtOSF1bQ0gyXVtDSDJdQyg9TylOMltDSDJdW0NIMl1bQ0gyXVtDSDJdW0NIMl0y

> <s_epik_cmdline>
J2VwaWtfcHl0aG9uJywgJy1waCcsICc3LjAnLCAnLXRuJywgJzgnLCAnLW1hJywgJzIwMCcsICctbWV0YWxfYmluZGluZycsICctaW1hZScsICc8aW5maWxlLm1hZT4nLCAnLW9tYWUnLCAnPG91dGZpbGUubWFlPic=

> <r_lp_tautomer_probability>
1

> <r_epik_Ionization_Penalty>
0.00574983

> <r_epik_Ionization_Penalty_Charging>
0.00574185

> <r_epik_Ionization_Penalty_Neutral>
7.97936e-06

> <r_epik_State_Penalty>
0.00421386

> <r_epik_Charging_Adjusted_Penalty>
0.00995571

> <i_epik_Tot_Q>
1

> <i_epik_Tot_abs_Q>
1

> <r_epik_Metal_State_Penalty>
-0

> <b_epik_Metal_Only>
0

> <s_lp_Force_Field>
OPLS_2005

> <r_lp_Energy>
27.2307

> <b_lp_Chiralities_Consistent>
1

> <s_lp_Variant>
AV-unprocessed.smi:3037-1

> <Gold.Version>
5.8.1

> <Gold.Id.Protein>
6NUR|6NUR_protein|mol2

> <Gold.PLP.Fitness>
49.4078

> <Gold.PLP.PLP>
-34.1943

> <Gold.PLP.part.hbond>
-2.8779

> <Gold.PLP.part.metal>
0.0000

> <Gold.PLP.part.buried>
-3.3410

> <Gold.PLP.part.nonpolar>
-29.0061

> <Gold.PLP.part.repulsive>
1.3039

> <Gold.PLP.ligand.clash>
0.0000

> <Gold.PLP.ligand.torsion>
1.4402

> <Gold.PLP.Chemscore.Hbond>
4.0000

> <Gold.PLP.Chemscore.CHOScore>
1.9578

> <Gold.PLP.Chemscore.Metal>
0.0000

> <Gold.Chemscore.Hbonds>
donor molecule, donor type, donor heavy atom, donor atom, acceptor molecule, acceptor atom, score
      L1  H     9    31       P1  7948  2.00
      L1  H     9    47       P1  7957  0.99
      P1  H  7997  8009       L1    13  0.96
      L1  C    20    46       P1 10171  1.00
      L1  C    20    46       P1 10175  0.90

> <Gold.PLP.Chemscore.Internal.Correction>
0.2206

> <Gold.Rescore>
     Score         DG    S(hbond)    S(metal)    S(lipo)     H(rot)  DE(clash)    DE(int)     intcor
     18.05     -20.54       2.97        0.00      84.21       1.84       1.07       1.42       ----

> <Gold.Chemscore.Fitness>
18.0508

> <Gold.Chemscore.DG>
-20.5357

> <Gold.Chemscore.ZeroCoef>
-5.4800

> <Gold.Chemscore.Hbond>
2.9668

> <Gold.Chemscore.Metal>
0.0000

> <Gold.Chemscore.Lipo>
84.2103

> <Gold.Chemscore.Internal_Hbond>
0.0000

> <Gold.Chemscore.DEClash>
1.0674

> <Gold.Chemscore.DEInternal>
1.4175

> <Gold.Chemscore.Rot>
1.8383

> <Gold.Chemscore.Internal.Correction>
   9.000000E+99

> <Gold.Chemscore.Hbonds>
donor molecule, donor type, donor heavy atom, donor atom, acceptor molecule, acceptor atom, score
      L1  H     9    31       P1  7948  0.99
      L1  H     9    47       P1  7957  0.88
      P1  H  7997  8009       L1    13  0.90

> <Gold.Chemscore.Hbond.Weighted>
-9.9092

> <Gold.Chemscore.Metal.Weighted>
-0.0000

> <Gold.Chemscore.Lipo.Weighted>
-9.8526

> <Gold.Chemscore.Internal_Hbond.Weighted>
0.0000

> <Gold.Chemscore.DEClash.Weighted>
1.0674

> <Gold.Chemscore.DEInternal.Weighted>
1.4175

> <Gold.Chemscore.Rot.Weighted>
4.7062

> <Gold.Chemscore.Internal.Correction.Weighted>
   9.000000E+99

> <Gold.Protein.RotatedTorsions>
[ 6907 6896 6895 6894 ] final -120.22 input  -60.11 | X-H torsion
[ 7974 7965 7964 7962 ] final  -59.10 input  175.53 | X-H torsion
[ 8008 7997 7996 7995 ] final -150.90 input   59.86 | X-H torsion
[ 10167 10162 10161 10158 ] final   -8.61 input  -65.29 | X-H torsion
[ 10718 10713 10712 10709 ] final   -9.69 input   66.30 | X-H torsion
[ 10763 10752 10751 10750 ] final  169.92 input  -60.55 | X-H torsion
[ 11005 11000 10999 10996 ] final -148.55 input  -57.11 | X-H torsion

> <Gold.Protein.ActiveResidues>
 VAL166  LYS551  ARG553  GLY616  TRP617  ASP618  TYR619  PRO620  LYS621  CYS622 
 ASP623  PHE694  ASN695  SER759  ASP760  ASP761  ALA762  ILE779  LEU786  VAL792 
 PHE793  MET794  SER795  GLU796  ALA797  LYS798  CYS799  TRP800  GLU811  SER814 

> <Gold.Protein.RotatedAtoms>
  150.8374  133.7991  159.3074 H   0  0  0  0  0  0  0  0  0  0  0  0  # atno 6907 bound_to 6896
  151.5703  135.1061  160.0003 H   0  0  0  0  0  0  0  0  0  0  0  0  # atno 6908 bound_to 6896
  152.4444  133.7466  159.6727 H   0  0  0  0  0  0  0  0  0  0  0  0  # atno 6909 bound_to 6896
  145.8315  140.8476  143.0081 H   0  0  0  0  0  0  0  0  0  0  0  0  # atno 7974 bound_to 7965
  155.6309  140.0691  157.2649 H   0  0  0  0  0  0  0  0  0  0  0  0  # atno 8008 bound_to 7997
  154.4206  140.1767  156.1519 H   0  0  0  0  0  0  0  0  0  0  0  0  # atno 8009 bound_to 7997
  155.9934  140.3343  155.6778 H   0  0  0  0  0  0  0  0  0  0  0  0  # atno 8010 bound_to 7997
  140.7064  143.5950  150.8855 H   0  0  0  0  0  0  0  0  0  0  0  0  # atno 10167 bound_to 10162
  156.6844  130.5046  149.5962 H   0  0  0  0  0  0  0  0  0  0  0  0  # atno 10718 bound_to 10713
  154.3902  135.2754  155.2159 H   0  0  0  0  0  0  0  0  0  0  0  0  # atno 10763 bound_to 10752
  154.4229  135.5996  153.6024 H   0  0  0  0  0  0  0  0  0  0  0  0  # atno 10764 bound_to 10752
  152.9832  135.5977  154.4156 H   0  0  0  0  0  0  0  0  0  0  0  0  # atno 10765 bound_to 10752
  140.7601  134.3308  157.5104 H   0  0  0  0  0  0  0  0  0  0  0  0  # atno 11005 bound_to 11000
  144.6739  140.0679  143.7474 LP  0  0  0  0  0  0  0  0  0  0  0  0  # atno 17320 bound_to 7965
  145.9565  139.2770  143.1181 LP  0  0  0  0  0  0  0  0  0  0  0  0  # atno 17321 bound_to 7965
  139.9675  143.6094  152.2984 LP  0  0  0  0  0  0  0  0  0  0  0  0  # atno 17342 bound_to 10162
  139.6669  144.7662  151.1856 LP  0  0  0  0  0  0  0  0  0  0  0  0  # atno 17343 bound_to 10162
  156.1844  130.6519  151.0989 LP  0  0  0  0  0  0  0  0  0  0  0  0  # atno 17370 bound_to 10713
  157.7032  131.0767  150.6753 LP  0  0  0  0  0  0  0  0  0  0  0  0  # atno 17371 bound_to 10713
  139.8772  134.9196  156.3232 LP  0  0  0  0  0  0  0  0  0  0  0  0  # atno 17394 bound_to 11000
  140.9671  133.7351  156.0482 LP  0  0  0  0  0  0  0  0  0  0  0  0  # atno 17395 bound_to 11000

$$$$
