AV-unprocessed.smi:1225|AV-procd|sdf|5136|dock9
  -GOLD-   22720 4203D 1   1.00000     0.00000
 Structure written by MMmdl.
 48 50  0  0  0  0  0  0  0  0  1 V2000
  153.0922  131.0051  165.5520 C   0  0  0  0  0  0  0  0  0  0  0  0
  153.9661  132.1627  165.2093 C   0  0  0  0  0  0  0  0  0  0  0  0
  155.1807  132.3508  165.7306 N   0  0  0  0  0  0  0  0  0  0  0  0
  155.7953  133.5070  165.2448 C   0  0  0  0  0  0  0  0  0  0  0  0
  155.0318  134.2034  164.3403 C   0  0  0  0  0  0  0  0  0  0  0  0
  155.3875  135.4734  163.6367 C   0  0  0  0  0  0  0  0  0  0  0  0
  154.2432  136.1145  162.9816 N   0  0  0  0  0  0  0  0  0  0  0  0
  153.4250  136.8150  163.9680 C   0  0  0  0  0  0  0  0  0  0  0  0
  154.6603  137.0315  161.9145 C   0  0  0  0  0  0  0  0  0  0  0  0
  153.5302  137.5867  161.0163 C   0  0  2  0  0  0  0  0  0  0  0  0
  152.9873  136.5255  160.2548 O   0  0  0  0  0  0  0  0  0  0  0  0
  153.9029  138.7701  160.1012 C   0  0  0  0  0  0  0  0  0  0  0  0
  153.8625  140.0429  160.7979 N   0  0  0  0  0  0  0  0  0  0  0  0
  154.4429  140.3444  161.9755 C   0  0  0  0  0  0  0  0  0  0  0  0
  154.2759  141.5804  162.4373 N   0  0  0  0  0  0  0  0  0  0  0  0
  153.4914  142.1448  161.4459 C   0  0  0  0  0  0  0  0  0  0  0  0
  152.9569  143.4466  161.3296 C   0  0  0  0  0  0  0  0  0  0  0  0
  152.1681  143.8091  160.2144 C   0  0  0  0  0  0  0  0  0  0  0  0
  151.6093  145.2187  160.1327 C   0  0  0  0  0  0  0  0  0  0  0  0
  151.9053  142.8622  159.1917 C   0  0  0  0  0  0  0  0  0  0  0  0
  151.0594  143.2288  157.9853 C   0  0  0  0  0  0  0  0  0  0  0  0
  152.4335  141.5580  159.2914 C   0  0  0  0  0  0  0  0  0  0  0  0
  153.2147  141.2090  160.4068 C   0  0  0  0  0  0  0  0  0  0  0  0
  153.4981  133.4178  164.0688 S   0  0  0  0  0  0  0  0  0  0  0  0
  153.4206  130.5382  166.4812 H   0  0  0  0  0  0  0  0  0  0  0  0
  153.1291  130.2629  164.7545 H   0  0  0  0  0  0  0  0  0  0  0  0
  152.0615  131.3380  165.6749 H   0  0  0  0  0  0  0  0  0  0  0  0
  156.7844  133.7619  165.5958 H   0  0  0  0  0  0  0  0  0  0  0  0
  155.8452  136.1699  164.3407 H   0  0  0  0  0  0  0  0  0  0  0  0
  156.1678  135.2461  162.9151 H   0  0  0  0  0  0  0  0  0  0  0  0
  152.5470  137.2581  163.4969 H   0  0  0  0  0  0  0  0  0  0  0  0
  153.9887  137.6127  164.4536 H   0  0  0  0  0  0  0  0  0  0  0  0
  153.0654  136.1340  164.7398 H   0  0  0  0  0  0  0  0  0  0  0  0
  155.1638  137.8961  162.3507 H   0  0  0  0  0  0  0  0  0  0  0  0
  155.4188  136.5504  161.2951 H   0  0  0  0  0  0  0  0  0  0  0  0
  152.7320  137.9175  161.6820 H   0  0  0  0  0  0  0  0  0  0  0  0
  153.1563  136.6960  159.3408 H   0  0  0  0  0  0  0  0  0  0  0  0
  154.9083  138.6371  159.7007 H   0  0  0  0  0  0  0  0  0  0  0  0
  153.2212  138.8285  159.2516 H   0  0  0  0  0  0  0  0  0  0  0  0
  155.0231  139.6158  162.5230 H   0  0  0  0  0  0  0  0  0  0  0  0
  153.1575  144.1673  162.1088 H   0  0  0  0  0  0  0  0  0  0  0  0
  150.5193  145.1963  160.1181 H   0  0  0  0  0  0  0  0  0  0  0  0
  151.9581  145.7176  159.2282 H   0  0  0  0  0  0  0  0  0  0  0  0
  151.9199  145.8205  160.9873 H   0  0  0  0  0  0  0  0  0  0  0  0
  150.9535  142.3854  157.3023 H   0  0  0  0  0  0  0  0  0  0  0  0
  151.5164  144.0506  157.4339 H   0  0  0  0  0  0  0  0  0  0  0  0
  150.0606  143.5334  158.2980 H   0  0  0  0  0  0  0  0  0  0  0  0
  152.2421  140.8267  158.5201 H   0  0  0  0  0  0  0  0  0  0  0  0
  1  2  1  0  0  0  0
  1 25  1  0  0  0  0
  1 26  1  0  0  0  0
  1 27  1  0  0  0  0
  2 24  1  0  0  0  0
  2  3  2  0  0  0  0
  3  4  1  0  0  0  0
  4  5  2  0  0  0  0
  4 28  1  0  0  0  0
  5  6  1  0  0  0  0
  5 24  1  0  0  0  0
  6  7  1  0  0  0  0
  6 29  1  0  0  0  0
  6 30  1  0  0  0  0
  7  8  1  0  0  0  0
  7  9  1  0  0  0  0
  8 31  1  0  0  0  0
  8 32  1  0  0  0  0
  8 33  1  0  0  0  0
  9 10  1  0  0  0  0
  9 34  1  0  0  0  0
  9 35  1  0  0  0  0
 10 11  1  0  0  0  0
 10 12  1  0  0  0  0
 10 36  1  0  0  0  0
 11 37  1  0  0  0  0
 12 13  1  0  0  0  0
 12 38  1  0  0  0  0
 12 39  1  0  0  0  0
 13 23  1  0  0  0  0
 13 14  1  0  0  0  0
 14 15  2  0  0  0  0
 14 40  1  0  0  0  0
 15 16  1  0  0  0  0
 16 23  2  0  0  0  0
 16 17  1  0  0  0  0
 17 18  2  0  0  0  0
 17 41  1  0  0  0  0
 18 19  1  0  0  0  0
 18 20  1  0  0  0  0
 19 42  1  0  0  0  0
 19 43  1  0  0  0  0
 19 44  1  0  0  0  0
 20 21  1  0  0  0  0
 20 22  2  0  0  0  0
 21 45  1  0  0  0  0
 21 46  1  0  0  0  0
 21 47  1  0  0  0  0
 22 23  1  0  0  0  0
 22 48  1  0  0  0  0
M  END
> <s_m_source_file>
AV-unprocessed.smi

> <i_m_source_file_index>
1225

> <i_lp_mmshare_version>
43012

> <i_f3d_flags>
0

> <s_epik_input>
W0NIM11jMW5bY0hdYyhzMSlbQ0gyXU4oW0NIM10pW0NIMl1bQ0BIXShbT0hdKVtDSDJdbihbY0hdbjIpYyhjMjMpW2NIXWMoW0NIM10pYyhbY0hdMylbQ0gzXQ==

> <s_epik_cmdline>
J2VwaWtfcHl0aG9uJywgJy1waCcsICc3LjAnLCAnLXRuJywgJzgnLCAnLW1hJywgJzIwMCcsICctbWV0YWxfYmluZGluZycsICctaW1hZScsICc8aW5maWxlLm1hZT4nLCAnLW9tYWUnLCAnPG91dGZpbGUubWFlPic=

> <r_epik_Ionization_Penalty>
0.12717

> <r_epik_Ionization_Penalty_Charging>
0

> <r_epik_Ionization_Penalty_Neutral>
0.12717

> <r_epik_State_Penalty>
0.11216

> <r_epik_Charging_Adjusted_Penalty>
0.11216

> <i_epik_Tot_Q>
0

> <i_epik_Tot_abs_Q>
0

> <r_epik_Metal_State_Penalty>
0.099641

> <b_epik_Metal_Only>
0

> <s_lp_Force_Field>
OPLS_2005

> <r_lp_Energy>
23.0021

> <b_lp_Chiralities_Consistent>
1

> <s_lp_Variant>
AV-unprocessed.smi:1225-1

> <Gold.Version>
5.8.1

> <Gold.Id.Protein>
6NUR|6NUR_protein|mol2

> <Gold.PLP.Fitness>
51.0920

> <Gold.PLP.PLP>
-49.5760

> <Gold.PLP.part.hbond>
-2.0000

> <Gold.PLP.part.metal>
0.0000

> <Gold.PLP.part.buried>
-6.8070

> <Gold.PLP.part.nonpolar>
-40.7201

> <Gold.PLP.part.repulsive>
0.0626

> <Gold.PLP.ligand.clash>
0.0000

> <Gold.PLP.ligand.torsion>
0.7842

> <Gold.PLP.Chemscore.Hbond>
0.9913

> <Gold.PLP.Chemscore.CHOScore>
0.0000

> <Gold.PLP.Chemscore.Metal>
0.0000

> <Gold.Chemscore.Hbonds>
donor molecule, donor type, donor heavy atom, donor atom, acceptor molecule, acceptor atom, score
      P1  H  6896  6909       L1    11  0.90

> <Gold.PLP.Chemscore.Internal.Correction>
0.1106

> <Gold.Rescore>
     Score         DG    S(hbond)    S(metal)    S(lipo)     H(rot)  DE(clash)    DE(int)     intcor
     19.76     -20.35       0.94        0.00     150.15       2.28       0.07       0.52       ----

> <Gold.Chemscore.Fitness>
19.7567

> <Gold.Chemscore.DG>
-20.3476

> <Gold.Chemscore.ZeroCoef>
-5.4800

> <Gold.Chemscore.Hbond>
0.9426

> <Gold.Chemscore.Metal>
0.0000

> <Gold.Chemscore.Lipo>
150.1486

> <Gold.Chemscore.Internal_Hbond>
0.0000

> <Gold.Chemscore.DEClash>
0.0675

> <Gold.Chemscore.DEInternal>
0.5234

> <Gold.Chemscore.Rot>
2.2844

> <Gold.Chemscore.Internal.Correction>
   9.000000E+99

> <Gold.Chemscore.Hbonds>
donor molecule, donor type, donor heavy atom, donor atom, acceptor molecule, acceptor atom, score
      P1  H  6896  6909       L1    11  0.18

> <Gold.Chemscore.Hbond.Weighted>
-3.1483

> <Gold.Chemscore.Metal.Weighted>
-0.0000

> <Gold.Chemscore.Lipo.Weighted>
-17.5674

> <Gold.Chemscore.Internal_Hbond.Weighted>
0.0000

> <Gold.Chemscore.DEClash.Weighted>
0.0675

> <Gold.Chemscore.DEInternal.Weighted>
0.5234

> <Gold.Chemscore.Rot.Weighted>
5.8480

> <Gold.Chemscore.Internal.Correction.Weighted>
   9.000000E+99

> <Gold.Protein.RotatedTorsions>
[ 6907 6896 6895 6894 ] final  150.60 input  -60.11 | X-H torsion
[ 7974 7965 7964 7962 ] final -170.17 input  175.53 | X-H torsion
[ 8008 7997 7996 7995 ] final   99.19 input   59.86 | X-H torsion
[ 10167 10162 10161 10158 ] final -130.25 input  -65.29 | X-H torsion
[ 10718 10713 10712 10709 ] final -174.95 input   66.30 | X-H torsion
[ 10763 10752 10751 10750 ] final -112.36 input  -60.55 | X-H torsion
[ 11005 11000 10999 10996 ] final -132.36 input  -57.11 | X-H torsion

> <Gold.Protein.ActiveResidues>
 VAL166  LYS551  ARG553  GLY616  TRP617  ASP618  TYR619  PRO620  LYS621  CYS622 
 ASP623  PHE694  ASN695  SER759  ASP760  ASP761  ALA762  ILE779  LEU786  VAL792 
 PHE793  MET794  SER795  GLU796  ALA797  LYS798  CYS799  TRP800  GLU811  SER814 

> <Gold.Protein.RotatedAtoms>
  152.1121  133.4306  159.4635 H   0  0  0  0  0  0  0  0  0  0  0  0  # atno 6907 bound_to 6896
  150.6868  134.2635  159.4568 H   0  0  0  0  0  0  0  0  0  0  0  0  # atno 6908 bound_to 6896
  152.0505  134.9656  160.0625 H   0  0  0  0  0  0  0  0  0  0  0  0  # atno 6909 bound_to 6896
  144.7174  140.2112  143.6327 H   0  0  0  0  0  0  0  0  0  0  0  0  # atno 7974 bound_to 7965
  156.1080  140.3232  155.8032 H   0  0  0  0  0  0  0  0  0  0  0  0  # atno 8008 bound_to 7997
  155.4723  140.0547  157.2995 H   0  0  0  0  0  0  0  0  0  0  0  0  # atno 8009 bound_to 7997
  154.4740  140.2024  155.9938 H   0  0  0  0  0  0  0  0  0  0  0  0  # atno 8010 bound_to 7997
  139.9312  143.6269  152.2529 H   0  0  0  0  0  0  0  0  0  0  0  0  # atno 10167 bound_to 10162
  156.7927  130.9523  151.3120 H   0  0  0  0  0  0  0  0  0  0  0  0  # atno 10718 bound_to 10713
  154.8345  135.4494  154.1181 H   0  0  0  0  0  0  0  0  0  0  0  0  # atno 10763 bound_to 10752
  153.2425  135.6918  153.7774 H   0  0  0  0  0  0  0  0  0  0  0  0  # atno 10764 bound_to 10752
  153.7116  135.3355  155.3223 H   0  0  0  0  0  0  0  0  0  0  0  0  # atno 10765 bound_to 10752
  140.9177  134.1485  157.4339 H   0  0  0  0  0  0  0  0  0  0  0  0  # atno 11005 bound_to 11000
  145.8589  139.2212  143.1728 LP  0  0  0  0  0  0  0  0  0  0  0  0  # atno 17320 bound_to 7965
  146.0192  140.8364  142.9932 LP  0  0  0  0  0  0  0  0  0  0  0  0  # atno 17321 bound_to 7965
  139.6780  144.7657  151.1660 LP  0  0  0  0  0  0  0  0  0  0  0  0  # atno 17342 bound_to 10162
  140.7637  143.5766  150.8939 LP  0  0  0  0  0  0  0  0  0  0  0  0  # atno 17343 bound_to 10162
  157.6593  130.8952  149.9795 LP  0  0  0  0  0  0  0  0  0  0  0  0  # atno 17370 bound_to 10713
  156.1149  130.3648  149.9985 LP  0  0  0  0  0  0  0  0  0  0  0  0  # atno 17371 bound_to 10713
  139.8769  134.9960  156.5771 LP  0  0  0  0  0  0  0  0  0  0  0  0  # atno 17394 bound_to 11000
  140.8028  133.8491  155.8741 LP  0  0  0  0  0  0  0  0  0  0  0  0  # atno 17395 bound_to 11000

$$$$
