AV-unprocessed.smi:960|AV-procd|sdf|4271|dock4
  -GOLD-   22720 2183D 1   1.00000     0.00000
 Structure written by MMmdl.
 46 47  0  0  0  0  0  0  0  0  2 V2000
  148.0009  127.5675  150.7881 C   0  0  0  0  0  0  0  0  0  0  0  0
  147.5468  127.8039  152.0301 C   0  0  0  0  0  0  0  0  0  0  0  0
  147.9928  126.9717  153.2188 C   0  0  0  0  0  0  0  0  0  0  0  0
  146.5818  128.9419  152.3253 C   0  0  0  0  0  0  0  0  0  0  0  0
  147.2564  130.2638  152.4127 N   0  3  2  0  0  0  0  0  0  0  0  0
  148.2052  130.3165  153.5550 C   0  0  0  0  0  0  0  0  0  0  0  0
  149.0150  131.6227  153.5538 C   0  0  0  0  0  0  0  0  0  0  0  0
  148.0866  132.8503  153.5762 C   0  0  1  0  0  0  0  0  0  0  0  0
  148.8533  134.0891  153.4786 N   0  0  0  0  0  0  0  0  0  0  0  0
  149.8081  134.4747  154.3371 C   0  0  0  0  0  0  0  0  0  0  0  0
  150.1450  133.8169  155.3210 O   0  0  0  0  0  0  0  0  0  0  0  0
  150.3235  135.6652  153.9951 N   0  0  0  0  0  0  0  0  0  0  0  0
  151.3537  136.3700  154.6670 C   0  0  0  0  0  0  0  0  0  0  0  0
  152.4274  135.8698  155.4612 C   0  0  0  0  0  0  0  0  0  0  0  0
  152.8095  134.4643  155.8334 C   0  0  0  0  0  0  0  0  0  0  0  0
  153.1889  136.8733  155.8719 N   0  0  0  0  0  0  0  0  0  0  0  0
  152.6437  138.0444  155.3239 O   0  0  0  0  0  0  0  0  0  0  0  0
  151.5508  137.7169  154.5867 C   0  0  0  0  0  0  0  0  0  0  0  0
  150.8376  138.8318  153.8995 C   0  0  0  0  0  0  0  0  0  0  0  0
  147.0945  132.7584  152.4069 C   0  0  0  0  0  0  0  0  0  0  0  0
  146.3270  131.4252  152.4199 C   0  0  0  0  0  0  0  0  0  0  0  0
  148.6954  126.7646  150.5873 H   0  0  0  0  0  0  0  0  0  0  0  0
  147.6846  128.1741  149.9519 H   0  0  0  0  0  0  0  0  0  0  0  0
  148.5646  127.5899  153.9112 H   0  0  0  0  0  0  0  0  0  0  0  0
  148.6282  126.1425  152.9061 H   0  0  0  0  0  0  0  0  0  0  0  0
  147.1433  126.5591  153.7608 H   0  0  0  0  0  0  0  0  0  0  0  0
  145.7852  128.9678  151.5800 H   0  0  0  0  0  0  0  0  0  0  0  0
  146.1031  128.7241  153.2813 H   0  0  0  0  0  0  0  0  0  0  0  0
  147.6539  130.2182  154.4916 H   0  0  0  0  0  0  0  0  0  0  0  0
  148.8925  129.4711  153.5027 H   0  0  0  0  0  0  0  0  0  0  0  0
  149.6824  131.6369  154.4164 H   0  0  0  0  0  0  0  0  0  0  0  0
  149.6529  131.6541  152.6693 H   0  0  0  0  0  0  0  0  0  0  0  0
  147.5201  132.8557  154.5097 H   0  0  0  0  0  0  0  0  0  0  0  0
  148.6387  134.6993  152.7034 H   0  0  0  0  0  0  0  0  0  0  0  0
  149.8738  136.1564  153.2365 H   0  0  0  0  0  0  0  0  0  0  0  0
  152.5754  133.7665  155.0294 H   0  0  0  0  0  0  0  0  0  0  0  0
  152.2802  134.1383  156.7286 H   0  0  0  0  0  0  0  0  0  0  0  0
  153.8781  134.3803  156.0340 H   0  0  0  0  0  0  0  0  0  0  0  0
  150.0974  138.4502  153.1963 H   0  0  0  0  0  0  0  0  0  0  0  0
  151.5386  139.4557  153.3451 H   0  0  0  0  0  0  0  0  0  0  0  0
  150.3219  139.4626  154.6233 H   0  0  0  0  0  0  0  0  0  0  0  0
  146.3884  133.5885  152.4494 H   0  0  0  0  0  0  0  0  0  0  0  0
  147.6281  132.8557  151.4599 H   0  0  0  0  0  0  0  0  0  0  0  0
  145.6867  131.3999  151.5398 H   0  0  0  0  0  0  0  0  0  0  0  0
  145.6767  131.3700  153.2944 H   0  0  0  0  0  0  0  0  0  0  0  0
  147.8162  130.3488  151.5763 H   0  0  0  0  0  0  0  0  0  0  0  0
  1  2  2  0  0  0  0
  1 22  1  0  0  0  0
  1 23  1  0  0  0  0
  2  3  1  0  0  0  0
  2  4  1  0  0  0  0
  3 24  1  0  0  0  0
  3 25  1  0  0  0  0
  3 26  1  0  0  0  0
  4  5  1  0  0  0  0
  4 27  1  0  0  0  0
  4 28  1  0  0  0  0
  5 21  1  0  0  0  0
  5  6  1  0  0  0  0
  5 46  1  0  0  0  0
  6  7  1  0  0  0  0
  6 29  1  0  0  0  0
  6 30  1  0  0  0  0
  7  8  1  0  0  0  0
  7 31  1  0  0  0  0
  7 32  1  0  0  0  0
  8  9  1  0  0  0  0
  8 20  1  0  0  0  0
  8 33  1  0  0  0  0
  9 10  1  0  0  0  0
  9 34  1  0  0  0  0
 10 11  2  0  0  0  0
 10 12  1  0  0  0  0
 12 13  1  0  0  0  0
 12 35  1  0  0  0  0
 13 18  2  0  0  0  0
 13 14  1  0  0  0  0
 14 15  1  0  0  0  0
 14 16  2  0  0  0  0
 15 36  1  0  0  0  0
 15 37  1  0  0  0  0
 15 38  1  0  0  0  0
 16 17  1  0  0  0  0
 17 18  1  0  0  0  0
 18 19  1  0  0  0  0
 19 39  1  0  0  0  0
 19 40  1  0  0  0  0
 19 41  1  0  0  0  0
 20 21  1  0  0  0  0
 20 42  1  0  0  0  0
 20 43  1  0  0  0  0
 21 44  1  0  0  0  0
 21 45  1  0  0  0  0
M  CHG  1   5   1
M  END
> <s_m_source_file>
AV-unprocessed.smi

> <i_m_source_file_index>
960

> <i_lp_mmshare_version>
43012

> <i_f3d_flags>
0

> <s_epik_input>
W0NIMl09QyhbQ0gzXSlbQ0gyXU4xW0NIMl1bQ0gyXVtDSF0oW0NIMl1bQ0gyXTEpW05IXUMoPU8pW05IXWMyYyhbQ0gzXSlub2MyW0NIM10=

> <s_epik_cmdline>
J2VwaWtfcHl0aG9uJywgJy1waCcsICc3LjAnLCAnLXRuJywgJzgnLCAnLW1hJywgJzIwMCcsICctbWV0YWxfYmluZGluZycsICctaW1hZScsICc8aW5maWxlLm1hZT4nLCAnLW9tYWUnLCAnPG91dGZpbGUubWFlPic=

> <r_epik_Ionization_Penalty>
0.01938

> <r_epik_Ionization_Penalty_Charging>
0.0193505

> <r_epik_Ionization_Penalty_Neutral>
2.94909e-05

> <r_epik_State_Penalty>
0.0154499

> <r_epik_Charging_Adjusted_Penalty>
0.0348004

> <i_epik_Tot_Q>
1

> <i_epik_Tot_abs_Q>
1

> <r_epik_Metal_State_Penalty>
0.0154499

> <b_epik_Metal_Only>
0

> <s_lp_Force_Field>
OPLS_2005

> <r_lp_Energy>
20.2595

> <b_lp_Chiralities_Consistent>
1

> <s_lp_Variant>
AV-unprocessed.smi:960-1

> <Gold.Version>
5.8.1

> <Gold.Id.Protein>
6NUR|6NUR_protein|mol2

> <Gold.PLP.Fitness>
42.6518

> <Gold.PLP.PLP>
-34.3188

> <Gold.PLP.part.hbond>
-3.2716

> <Gold.PLP.part.metal>
0.0000

> <Gold.PLP.part.buried>
-1.2264

> <Gold.PLP.part.nonpolar>
-29.8891

> <Gold.PLP.part.repulsive>
0.0833

> <Gold.PLP.ligand.clash>
0.0000

> <Gold.PLP.ligand.torsion>
0.4572

> <Gold.PLP.Chemscore.Hbond>
2.9760

> <Gold.PLP.Chemscore.CHOScore>
0.0000

> <Gold.PLP.Chemscore.Metal>
0.0000

> <Gold.Chemscore.Hbonds>
donor molecule, donor type, donor heavy atom, donor atom, acceptor molecule, acceptor atom, score
      L1  H     5    46       P1 10747  1.00
      L1  H     9    34       P1  7948  0.77
      L1  H    12    35       P1  7948  0.55

> <Gold.PLP.Chemscore.Internal.Correction>
0.3195

> <Gold.Rescore>
     Score         DG    S(hbond)    S(metal)    S(lipo)     H(rot)  DE(clash)    DE(int)     intcor
     19.46     -20.88       2.64        0.00      85.71       1.35       0.00       1.42       ----

> <Gold.Chemscore.Fitness>
19.4587

> <Gold.Chemscore.DG>
-20.8844

> <Gold.Chemscore.ZeroCoef>
-5.4800

> <Gold.Chemscore.Hbond>
2.6427

> <Gold.Chemscore.Metal>
0.0000

> <Gold.Chemscore.Lipo>
85.7145

> <Gold.Chemscore.Internal_Hbond>
0.0000

> <Gold.Chemscore.DEClash>
0.0018

> <Gold.Chemscore.DEInternal>
1.4239

> <Gold.Chemscore.Rot>
1.3480

> <Gold.Chemscore.Internal.Correction>
   9.000000E+99

> <Gold.Chemscore.Hbonds>
donor molecule, donor type, donor heavy atom, donor atom, acceptor molecule, acceptor atom, score
      L1  H     5    46       P1 10747  1.00
      L1  H     9    34       P1  7948  0.11
      L1  H    12    35       P1  7948  0.03

> <Gold.Chemscore.Hbond.Weighted>
-8.8267

> <Gold.Chemscore.Metal.Weighted>
-0.0000

> <Gold.Chemscore.Lipo.Weighted>
-10.0286

> <Gold.Chemscore.Internal_Hbond.Weighted>
0.0000

> <Gold.Chemscore.DEClash.Weighted>
0.0018

> <Gold.Chemscore.DEInternal.Weighted>
1.4239

> <Gold.Chemscore.Rot.Weighted>
3.4509

> <Gold.Chemscore.Internal.Correction.Weighted>
   9.000000E+99

> <Gold.Protein.RotatedTorsions>
[ 6907 6896 6895 6894 ] final  -40.31 input  -60.11 | X-H torsion
[ 7974 7965 7964 7962 ] final   17.86 input  175.53 | X-H torsion
[ 8008 7997 7996 7995 ] final  -41.34 input   59.86 | X-H torsion
[ 10167 10162 10161 10158 ] final  -80.83 input  -65.29 | X-H torsion
[ 10718 10713 10712 10709 ] final -155.79 input   66.30 | X-H torsion
[ 10763 10752 10751 10750 ] final   46.04 input  -60.55 | X-H torsion
[ 11005 11000 10999 10996 ] final   79.85 input  -57.11 | X-H torsion

> <Gold.Protein.ActiveResidues>
 VAL166  LYS551  ARG553  GLY616  TRP617  ASP618  TYR619  PRO620  LYS621  CYS622 
 ASP623  PHE694  ASN695  SER759  ASP760  ASP761  ALA762  ILE779  LEU786  VAL792 
 PHE793  MET794  SER795  GLU796  ALA797  LYS798  CYS799  TRP800  GLU811  SER814 

> <Gold.Protein.RotatedAtoms>
  150.9800  134.9157  159.7838 H   0  0  0  0  0  0  0  0  0  0  0  0  # atno 6907 bound_to 6896
  152.5219  134.3423  159.9231 H   0  0  0  0  0  0  0  0  0  0  0  0  # atno 6908 bound_to 6896
  151.3431  133.3914  159.2707 H   0  0  0  0  0  0  0  0  0  0  0  0  # atno 6909 bound_to 6896
  146.2204  139.8541  142.8617 H   0  0  0  0  0  0  0  0  0  0  0  0  # atno 7974 bound_to 7965
  154.4005  140.1502  156.3174 H   0  0  0  0  0  0  0  0  0  0  0  0  # atno 8008 bound_to 7997
  155.8560  140.3455  155.5703 H   0  0  0  0  0  0  0  0  0  0  0  0  # atno 8009 bound_to 7997
  155.7932  140.0859  157.1988 H   0  0  0  0  0  0  0  0  0  0  0  0  # atno 8010 bound_to 7997
  140.4468  143.2496  151.8547 H   0  0  0  0  0  0  0  0  0  0  0  0  # atno 10167 bound_to 10162
  156.5177  130.8464  151.2670 H   0  0  0  0  0  0  0  0  0  0  0  0  # atno 10718 bound_to 10713
  152.9816  135.6020  154.3536 H   0  0  0  0  0  0  0  0  0  0  0  0  # atno 10763 bound_to 10752
  154.3223  135.2769  155.2515 H   0  0  0  0  0  0  0  0  0  0  0  0  # atno 10764 bound_to 10752
  154.4676  135.5950  153.6355 H   0  0  0  0  0  0  0  0  0  0  0  0  # atno 10765 bound_to 10752
  139.9157  134.7875  156.1832 H   0  0  0  0  0  0  0  0  0  0  0  0  # atno 11005 bound_to 11000
  145.2771  141.0127  143.3738 LP  0  0  0  0  0  0  0  0  0  0  0  0  # atno 17320 bound_to 7965
  144.9178  139.4448  143.6555 LP  0  0  0  0  0  0  0  0  0  0  0  0  # atno 17321 bound_to 7965
  139.4793  144.5166  151.8859 LP  0  0  0  0  0  0  0  0  0  0  0  0  # atno 17342 bound_to 10162
  140.4254  144.2187  150.5887 LP  0  0  0  0  0  0  0  0  0  0  0  0  # atno 17343 bound_to 10162
  157.7441  130.9928  150.2649 LP  0  0  0  0  0  0  0  0  0  0  0  0  # atno 17370 bound_to 10713
  156.3179  130.3781  149.7602 LP  0  0  0  0  0  0  0  0  0  0  0  0  # atno 17371 bound_to 10713
  141.0629  133.6833  156.1988 LP  0  0  0  0  0  0  0  0  0  0  0  0  # atno 17394 bound_to 11000
  140.6632  134.4946  157.5584 LP  0  0  0  0  0  0  0  0  0  0  0  0  # atno 17395 bound_to 11000

$$$$
