AV-unprocessed.smi:749|AV-procd|sdf|3585|dock1
  -GOLD-   22720 0583D 1   1.00000     0.00000
 Structure written by MMmdl.
 43 44  0  0  0  0  0  0  0  0  1 V2000
  148.4660  130.4134  153.2985 C   0  0  0  0  0  0  0  0  0  0  0  0
  149.1056  131.3502  154.2237 N   0  0  0  0  0  0  0  0  0  0  0  0
  148.9662  132.7687  153.8596 C   0  0  0  0  0  0  0  0  0  0  0  0
  149.3148  133.7485  154.9933 C   0  0  2  0  0  0  0  0  0  0  0  0
  149.4576  135.0955  154.4522 N   0  0  0  0  0  0  0  0  0  0  0  0
  149.7606  136.1974  155.1584 C   0  0  0  0  0  0  0  0  0  0  0  0
  149.9437  136.1800  156.3744 O   0  0  0  0  0  0  0  0  0  0  0  0
  149.8575  137.3455  154.4553 N   0  0  0  0  0  0  0  0  0  0  0  0
  150.1569  138.6732  154.8738 C   0  0  0  0  0  0  0  0  0  0  0  0
  150.1923  138.9965  156.2558 C   0  0  0  0  0  0  0  0  0  0  0  0
  150.5100  140.3275  156.2640 C   0  0  0  0  0  0  0  0  0  0  0  0
  150.7182  141.3346  157.3602 C   0  0  0  0  0  0  0  0  0  0  0  0
  151.1332  142.7000  156.7771 C   0  0  0  0  0  0  0  0  0  0  0  0
  151.8297  140.8552  158.3125 C   0  0  0  0  0  0  0  0  0  0  0  0
  149.4138  141.5230  158.1573 C   0  0  0  0  0  0  0  0  0  0  0  0
  150.6590  140.7753  154.9860 O   0  0  0  0  0  0  0  0  0  0  0  0
  150.4314  139.7146  154.1029 N   0  0  0  0  0  0  0  0  0  0  0  0
  150.6087  133.3023  155.6812 C   0  0  0  0  0  0  0  0  0  0  0  0
  150.4492  131.8914  156.2588 C   0  0  0  0  0  0  0  0  0  0  0  0
  149.8226  130.8892  155.2772 C   0  0  0  0  0  0  0  0  0  0  0  0
  149.9695  129.6877  155.5029 O   0  0  0  0  0  0  0  0  0  0  0  0
  147.6837  129.8490  153.8081 H   0  0  0  0  0  0  0  0  0  0  0  0
  149.1934  129.7052  152.8982 H   0  0  0  0  0  0  0  0  0  0  0  0
  148.0082  130.9219  152.4489 H   0  0  0  0  0  0  0  0  0  0  0  0
  149.6197  132.9471  153.0041 H   0  0  0  0  0  0  0  0  0  0  0  0
  147.9485  132.9666  153.5193 H   0  0  0  0  0  0  0  0  0  0  0  0
  148.5019  133.7349  155.7223 H   0  0  0  0  0  0  0  0  0  0  0  0
  149.3227  135.2006  153.4564 H   0  0  0  0  0  0  0  0  0  0  0  0
  149.6644  137.2512  153.4689 H   0  0  0  0  0  0  0  0  0  0  0  0
  150.0134  138.3548  157.1056 H   0  0  0  0  0  0  0  0  0  0  0  0
  151.2919  143.4383  157.5639 H   0  0  0  0  0  0  0  0  0  0  0  0
  150.3687  143.0964  156.1078 H   0  0  0  0  0  0  0  0  0  0  0  0
  152.0614  142.6247  156.2090 H   0  0  0  0  0  0  0  0  0  0  0  0
  152.7723  140.7169  157.7819 H   0  0  0  0  0  0  0  0  0  0  0  0
  151.5738  139.9032  158.7790 H   0  0  0  0  0  0  0  0  0  0  0  0
  152.0057  141.5731  159.1144 H   0  0  0  0  0  0  0  0  0  0  0  0
  149.5355  142.2588  158.9533 H   0  0  0  0  0  0  0  0  0  0  0  0
  149.0902  140.5911  158.6223 H   0  0  0  0  0  0  0  0  0  0  0  0
  148.6031  141.8663  157.5135 H   0  0  0  0  0  0  0  0  0  0  0  0
  151.4373  133.3198  154.9713 H   0  0  0  0  0  0  0  0  0  0  0  0
  150.8719  133.9945  156.4819 H   0  0  0  0  0  0  0  0  0  0  0  0
  151.4176  131.5163  156.5921 H   0  0  0  0  0  0  0  0  0  0  0  0
  149.8103  131.9304  157.1417 H   0  0  0  0  0  0  0  0  0  0  0  0
  1  2  1  0  0  0  0
  1 22  1  0  0  0  0
  1 23  1  0  0  0  0
  1 24  1  0  0  0  0
  2 20  1  0  0  0  0
  2  3  1  0  0  0  0
  3  4  1  0  0  0  0
  3 25  1  0  0  0  0
  3 26  1  0  0  0  0
  4  5  1  0  0  0  0
  4 18  1  0  0  0  0
  4 27  1  0  0  0  0
  5  6  1  0  0  0  0
  5 28  1  0  0  0  0
  6  7  2  0  0  0  0
  6  8  1  0  0  0  0
  8  9  1  0  0  0  0
  8 29  1  0  0  0  0
  9 17  2  0  0  0  0
  9 10  1  0  0  0  0
 10 11  2  0  0  0  0
 10 30  1  0  0  0  0
 11 12  1  0  0  0  0
 11 16  1  0  0  0  0
 12 13  1  0  0  0  0
 12 14  1  0  0  0  0
 12 15  1  0  0  0  0
 13 31  1  0  0  0  0
 13 32  1  0  0  0  0
 13 33  1  0  0  0  0
 14 34  1  0  0  0  0
 14 35  1  0  0  0  0
 14 36  1  0  0  0  0
 15 37  1  0  0  0  0
 15 38  1  0  0  0  0
 15 39  1  0  0  0  0
 16 17  1  0  0  0  0
 18 19  1  0  0  0  0
 18 40  1  0  0  0  0
 18 41  1  0  0  0  0
 19 20  1  0  0  0  0
 19 42  1  0  0  0  0
 19 43  1  0  0  0  0
 20 21  2  0  0  0  0
M  END
> <s_m_source_file>
AV-unprocessed.smi

> <i_m_source_file_index>
749

> <i_lp_mmshare_version>
43012

> <i_f3d_flags>
0

> <s_epik_input>
Tz1DMVtDSDJdW0NIMl1bQ0BASF0oW0NIMl1OMVtDSDNdKVtOSF1DKD1PKVtOSF1jMltjSF1jKG9uMilDKFtDSDNdKShbQ0gzXSlbQ0gzXQ==

> <s_epik_cmdline>
J2VwaWtfcHl0aG9uJywgJy1waCcsICc3LjAnLCAnLXRuJywgJzgnLCAnLW1hJywgJzIwMCcsICctbWV0YWxfYmluZGluZycsICctaW1hZScsICc8aW5maWxlLm1hZT4nLCAnLW9tYWUnLCAnPG91dGZpbGUubWFlPic=

> <r_lp_tautomer_probability>
1

> <r_epik_Ionization_Penalty>
2.91905e-05

> <r_epik_Ionization_Penalty_Charging>
0

> <r_epik_Ionization_Penalty_Neutral>
2.91905e-05

> <r_epik_State_Penalty>
-0

> <r_epik_Charging_Adjusted_Penalty>
0

> <i_epik_Tot_Q>
0

> <i_epik_Tot_abs_Q>
0

> <r_epik_Metal_State_Penalty>
0.0102923

> <b_epik_Metal_Only>
0

> <s_lp_Force_Field>
OPLS_2005

> <r_lp_Energy>
15.3042

> <b_lp_Chiralities_Consistent>
1

> <s_lp_Variant>
AV-unprocessed.smi:749-2

> <Gold.Version>
5.8.1

> <Gold.Id.Protein>
6NUR|6NUR_protein|mol2

> <Gold.PLP.Fitness>
36.3982

> <Gold.PLP.PLP>
-30.4963

> <Gold.PLP.part.hbond>
-4.0000

> <Gold.PLP.part.metal>
0.0000

> <Gold.PLP.part.buried>
-3.3893

> <Gold.PLP.part.nonpolar>
-23.7822

> <Gold.PLP.part.repulsive>
0.9266

> <Gold.PLP.ligand.clash>
0.0000

> <Gold.PLP.ligand.torsion>
0.0499

> <Gold.PLP.Chemscore.Hbond>
2.0000

> <Gold.PLP.Chemscore.CHOScore>
0.0000

> <Gold.PLP.Chemscore.Metal>
0.0000

> <Gold.Chemscore.Hbonds>
donor molecule, donor type, donor heavy atom, donor atom, acceptor molecule, acceptor atom, score
      L1  H     5    28       P1  7948  0.85
      L1  H     8    29       P1  7948  1.00

> <Gold.PLP.Chemscore.Internal.Correction>
0.0017

> <Gold.Rescore>
     Score         DG    S(hbond)    S(metal)    S(lipo)     H(rot)  DE(clash)    DE(int)     intcor
     12.99     -14.72       1.64        0.00      59.16       1.23       0.29       1.44       ----

> <Gold.Chemscore.Fitness>
12.9933

> <Gold.Chemscore.DG>
-14.7242

> <Gold.Chemscore.ZeroCoef>
-5.4800

> <Gold.Chemscore.Hbond>
1.6395

> <Gold.Chemscore.Metal>
0.0000

> <Gold.Chemscore.Lipo>
59.1554

> <Gold.Chemscore.Internal_Hbond>
0.0000

> <Gold.Chemscore.DEClash>
0.2893

> <Gold.Chemscore.DEInternal>
1.4415

> <Gold.Chemscore.Rot>
1.2317

> <Gold.Chemscore.Internal.Correction>
   9.000000E+99

> <Gold.Chemscore.Hbonds>
donor molecule, donor type, donor heavy atom, donor atom, acceptor molecule, acceptor atom, score
      L1  H     5    28       P1  7948  0.14
      L1  H     8    29       P1  7948  0.69

> <Gold.Chemscore.Hbond.Weighted>
-5.4760

> <Gold.Chemscore.Metal.Weighted>
-0.0000

> <Gold.Chemscore.Lipo.Weighted>
-6.9212

> <Gold.Chemscore.Internal_Hbond.Weighted>
0.0000

> <Gold.Chemscore.DEClash.Weighted>
0.2893

> <Gold.Chemscore.DEInternal.Weighted>
1.4415

> <Gold.Chemscore.Rot.Weighted>
3.1531

> <Gold.Chemscore.Internal.Correction.Weighted>
   9.000000E+99

> <Gold.Protein.RotatedTorsions>
[ 6907 6896 6895 6894 ] final -147.66 input  -60.11 | X-H torsion
[ 7974 7965 7964 7962 ] final   22.59 input  175.53 | X-H torsion
[ 8008 7997 7996 7995 ] final   43.83 input   59.86 | X-H torsion
[ 10167 10162 10161 10158 ] final  -28.87 input  -65.29 | X-H torsion
[ 10718 10713 10712 10709 ] final -143.25 input   66.30 | X-H torsion
[ 10763 10752 10751 10750 ] final  155.88 input  -60.55 | X-H torsion
[ 11005 11000 10999 10996 ] final   -7.09 input  -57.11 | X-H torsion

> <Gold.Protein.ActiveResidues>
 VAL166  LYS551  ARG553  GLY616  TRP617  ASP618  TYR619  PRO620  LYS621  CYS622 
 ASP623  PHE694  ASN695  SER759  ASP760  ASP761  ALA762  ILE779  LEU786  VAL792 
 PHE793  MET794  SER795  GLU796  ALA797  LYS798  CYS799  TRP800  GLU811  SER814 

> <Gold.Protein.RotatedAtoms>
  151.1588  133.4858  159.2594 H   0  0  0  0  0  0  0  0  0  0  0  0  # atno 6907 bound_to 6896
  151.1476  135.0211  159.8664 H   0  0  0  0  0  0  0  0  0  0  0  0  # atno 6908 bound_to 6896
  152.5463  134.1476  159.8558 H   0  0  0  0  0  0  0  0  0  0  0  0  # atno 6909 bound_to 6896
  146.2022  139.7864  142.8753 H   0  0  0  0  0  0  0  0  0  0  0  0  # atno 7974 bound_to 7965
  155.3093  140.3390  155.4244 H   0  0  0  0  0  0  0  0  0  0  0  0  # atno 8008 bound_to 7997
  156.1963  140.1716  156.8028 H   0  0  0  0  0  0  0  0  0  0  0  0  # atno 8009 bound_to 7997
  154.5503  140.0707  156.8641 H   0  0  0  0  0  0  0  0  0  0  0  0  # atno 8010 bound_to 7997
  140.7266  143.3974  151.1323 H   0  0  0  0  0  0  0  0  0  0  0  0  # atno 10167 bound_to 10162
  156.3556  130.7711  151.1871 H   0  0  0  0  0  0  0  0  0  0  0  0  # atno 10718 bound_to 10713
  154.1754  135.2802  155.3068 H   0  0  0  0  0  0  0  0  0  0  0  0  # atno 10763 bound_to 10752
  154.6043  135.5519  153.7410 H   0  0  0  0  0  0  0  0  0  0  0  0  # atno 10764 bound_to 10752
  153.0153  135.6399  154.1894 H   0  0  0  0  0  0  0  0  0  0  0  0  # atno 10765 bound_to 10752
  140.7090  133.8925  155.8737 H   0  0  0  0  0  0  0  0  0  0  0  0  # atno 11005 bound_to 11000
  145.3445  141.0294  143.3374 LP  0  0  0  0  0  0  0  0  0  0  0  0  # atno 17320 bound_to 7965
  144.8709  139.5039  143.6768 LP  0  0  0  0  0  0  0  0  0  0  0  0  # atno 17321 bound_to 7965
  139.7589  143.8665  152.3095 LP  0  0  0  0  0  0  0  0  0  0  0  0  # atno 17342 bound_to 10162
  139.8544  144.7148  150.9175 LP  0  0  0  0  0  0  0  0  0  0  0  0  # atno 17343 bound_to 10162
  157.7467  131.0415  150.4648 LP  0  0  0  0  0  0  0  0  0  0  0  0  # atno 17370 bound_to 10713
  156.4850  130.4082  149.6439 LP  0  0  0  0  0  0  0  0  0  0  0  0  # atno 17371 bound_to 10713
  141.0100  134.1033  157.4231 LP  0  0  0  0  0  0  0  0  0  0  0  0  # atno 17394 bound_to 11000
  139.8876  135.0091  156.6573 LP  0  0  0  0  0  0  0  0  0  0  0  0  # atno 17395 bound_to 11000

$$$$
