AV-unprocessed.smi:1133|AV-procd|sdf|4856|dock3
  -GOLD-   22720 3423D 1   1.00000     0.00000
 Structure written by MMmdl.
 41 42  0  0  0  0  0  0  0  0  1 V2000
  152.1620  144.5929  161.6211 C   0  0  0  0  0  0  0  0  0  0  0  0
  152.3387  143.1918  161.0312 C   0  0  0  0  0  0  0  0  0  0  0  0
  152.1370  142.2252  161.7666 O   0  0  0  0  0  0  0  0  0  0  0  0
  152.7019  143.0606  159.7326 N   0  0  0  0  0  0  0  0  0  0  0  0
  152.8076  141.7578  159.0656 C   0  0  0  0  0  0  0  0  0  0  0  0
  151.6450  141.6175  158.0663 C   0  0  0  0  0  0  0  0  0  0  0  0
  151.6252  142.7862  157.0573 C   0  0  0  0  0  0  0  0  0  0  0  0
  150.4076  142.7211  156.2549 N   0  0  0  0  0  0  0  0  0  0  0  0
  150.0881  141.7242  155.4179 C   0  0  0  0  0  0  0  0  0  0  0  0
  150.7848  140.7256  155.2348 O   0  0  0  0  0  0  0  0  0  0  0  0
  148.9222  141.9496  154.7965 N   0  0  0  0  0  0  0  0  0  0  0  0
  148.3140  141.0564  153.8177 C   0  0  0  0  0  0  0  0  0  0  0  0
  146.8506  140.7411  154.1702 C   0  0  0  0  0  0  0  0  0  0  0  0
  146.0971  141.9492  154.4356 N   0  0  0  0  0  0  0  0  0  0  0  0
  145.8479  142.9930  153.5546 C   0  0  0  0  0  0  0  0  0  0  0  0
  145.0962  143.9175  154.2442 C   0  0  0  0  0  0  0  0  0  0  0  0
  144.8746  143.4668  155.5434 N   0  0  0  0  0  0  0  0  0  0  0  0
  145.4970  142.2956  155.5826 C   0  0  0  0  0  0  0  0  0  0  0  0
  151.7301  144.1533  157.7732 C   0  0  0  0  0  0  0  0  0  0  0  0
  152.8886  144.1671  158.7862 C   0  0  0  0  0  0  0  0  0  0  0  0
  151.4108  145.1553  161.0655 H   0  0  0  0  0  0  0  0  0  0  0  0
  153.1037  145.1419  161.6018 H   0  0  0  0  0  0  0  0  0  0  0  0
  151.8324  144.5342  162.6590 H   0  0  0  0  0  0  0  0  0  0  0  0
  153.7628  141.6946  158.5423 H   0  0  0  0  0  0  0  0  0  0  0  0
  152.7980  140.9221  159.7665 H   0  0  0  0  0  0  0  0  0  0  0  0
  151.7224  140.6670  157.5372 H   0  0  0  0  0  0  0  0  0  0  0  0
  150.7043  141.5886  158.6186 H   0  0  0  0  0  0  0  0  0  0  0  0
  152.4922  142.6721  156.4037 H   0  0  0  0  0  0  0  0  0  0  0  0
  149.7680  143.4979  156.3353 H   0  0  0  0  0  0  0  0  0  0  0  0
  148.4220  142.7996  155.0119 H   0  0  0  0  0  0  0  0  0  0  0  0
  148.3832  141.4957  152.8208 H   0  0  0  0  0  0  0  0  0  0  0  0
  148.8969  140.1352  153.7924 H   0  0  0  0  0  0  0  0  0  0  0  0
  146.3683  140.2022  153.3534 H   0  0  0  0  0  0  0  0  0  0  0  0
  146.7925  140.1003  155.0512 H   0  0  0  0  0  0  0  0  0  0  0  0
  146.2154  142.9917  152.5390 H   0  0  0  0  0  0  0  0  0  0  0  0
  144.7019  144.8653  153.9085 H   0  0  0  0  0  0  0  0  0  0  0  0
  145.5188  141.6757  156.4672 H   0  0  0  0  0  0  0  0  0  0  0  0
  151.8674  144.9516  157.0430 H   0  0  0  0  0  0  0  0  0  0  0  0
  150.7971  144.3702  158.2959 H   0  0  0  0  0  0  0  0  0  0  0  0
  152.9535  145.1442  159.2627 H   0  0  0  0  0  0  0  0  0  0  0  0
  153.8384  144.0363  158.2656 H   0  0  0  0  0  0  0  0  0  0  0  0
  1  2  1  0  0  0  0
  1 21  1  0  0  0  0
  1 22  1  0  0  0  0
  1 23  1  0  0  0  0
  2  3  2  0  0  0  0
  2  4  1  0  0  0  0
  4 20  1  0  0  0  0
  4  5  1  0  0  0  0
  5  6  1  0  0  0  0
  5 24  1  0  0  0  0
  5 25  1  0  0  0  0
  6  7  1  0  0  0  0
  6 26  1  0  0  0  0
  6 27  1  0  0  0  0
  7  8  1  0  0  0  0
  7 19  1  0  0  0  0
  7 28  1  0  0  0  0
  8  9  1  0  0  0  0
  8 29  1  0  0  0  0
  9 10  2  0  0  0  0
  9 11  1  0  0  0  0
 11 12  1  0  0  0  0
 11 30  1  0  0  0  0
 12 13  1  0  0  0  0
 12 31  1  0  0  0  0
 12 32  1  0  0  0  0
 13 14  1  0  0  0  0
 13 33  1  0  0  0  0
 13 34  1  0  0  0  0
 14 18  1  0  0  0  0
 14 15  1  0  0  0  0
 15 16  2  0  0  0  0
 15 35  1  0  0  0  0
 16 17  1  0  0  0  0
 16 36  1  0  0  0  0
 17 18  2  0  0  0  0
 18 37  1  0  0  0  0
 19 20  1  0  0  0  0
 19 38  1  0  0  0  0
 19 39  1  0  0  0  0
 20 40  1  0  0  0  0
 20 41  1  0  0  0  0
M  END
> <s_m_source_file>
AV-unprocessed.smi

> <i_m_source_file_index>
1133

> <i_lp_mmshare_version>
43012

> <i_f3d_flags>
0

> <s_epik_input>
W0NIM11DKD1PKU4xW0NIMl1bQ0gyXVtDSF0oW0NIMl1bQ0gyXTEpW05IXUMoPU8pW05IXVtDSDJdW0NIMl1uMltjSF1bY0hdbltjSF0y

> <s_epik_cmdline>
J2VwaWtfcHl0aG9uJywgJy1waCcsICc3LjAnLCAnLXRuJywgJzgnLCAnLW1hJywgJzIwMCcsICctbWV0YWxfYmluZGluZycsICctaW1hZScsICc8aW5maWxlLm1hZT4nLCAnLW9tYWUnLCAnPG91dGZpbGUubWFlPic=

> <r_lp_tautomer_probability>
1

> <r_epik_Ionization_Penalty>
0.622276

> <r_epik_Ionization_Penalty_Charging>
0.622222

> <r_epik_Ionization_Penalty_Neutral>
5.3634e-05

> <r_epik_State_Penalty>
0.638348

> <r_epik_Charging_Adjusted_Penalty>
1.26057

> <i_epik_Tot_Q>
0

> <i_epik_Tot_abs_Q>
0

> <r_epik_Metal_State_Penalty>
0.307013

> <b_epik_Metal_Only>
0

> <s_lp_Force_Field>
OPLS_2005

> <r_lp_Energy>
21.3303

> <b_lp_Chiralities_Consistent>
1

> <s_lp_Variant>
AV-unprocessed.smi:1133-2

> <Gold.Version>
5.8.1

> <Gold.Id.Protein>
6NUR|6NUR_protein|mol2

> <Gold.PLP.Fitness>
54.9045

> <Gold.PLP.PLP>
-44.8235

> <Gold.PLP.part.hbond>
-4.0000

> <Gold.PLP.part.metal>
0.0000

> <Gold.PLP.part.buried>
-4.5422

> <Gold.PLP.part.nonpolar>
-35.8434

> <Gold.PLP.part.repulsive>
0.6385

> <Gold.PLP.ligand.clash>
0.0000

> <Gold.PLP.ligand.torsion>
0.0965

> <Gold.PLP.Chemscore.Hbond>
3.4150

> <Gold.PLP.Chemscore.CHOScore>
0.0000

> <Gold.PLP.Chemscore.Metal>
0.0000

> <Gold.Chemscore.Hbonds>
donor molecule, donor type, donor heavy atom, donor atom, acceptor molecule, acceptor atom, score
      L1  H     8    29       P1  8028  1.00
      L1  H    11    30       P1  8028  0.71
      P1  H  6933  6945       L1     3  0.49
      P1  H  7989  7998       L1    10  0.86

> <Gold.PLP.Chemscore.Internal.Correction>
0.0289

> <Gold.Rescore>
     Score         DG    S(hbond)    S(metal)    S(lipo)     H(rot)  DE(clash)    DE(int)     intcor
     20.14     -21.61       3.05        0.00      94.94       2.01       1.36       0.12       ----

> <Gold.Chemscore.Fitness>
20.1401

> <Gold.Chemscore.DG>
-21.6120

> <Gold.Chemscore.ZeroCoef>
-5.4800

> <Gold.Chemscore.Hbond>
3.0461

> <Gold.Chemscore.Metal>
0.0000

> <Gold.Chemscore.Lipo>
94.9444

> <Gold.Chemscore.Internal_Hbond>
0.0000

> <Gold.Chemscore.DEClash>
1.3563

> <Gold.Chemscore.DEInternal>
0.1156

> <Gold.Chemscore.Rot>
2.0119

> <Gold.Chemscore.Internal.Correction>
   9.000000E+99

> <Gold.Chemscore.Hbonds>
donor molecule, donor type, donor heavy atom, donor atom, acceptor molecule, acceptor atom, score
      L1  H     8    29       P1  8028  0.95
      L1  H    11    30       P1  8028  0.67
      P1  H  6933  6945       L1     3  0.46
      P1  H  7989  7998       L1    10  0.55

> <Gold.Chemscore.Hbond.Weighted>
-10.1739

> <Gold.Chemscore.Metal.Weighted>
-0.0000

> <Gold.Chemscore.Lipo.Weighted>
-11.1085

> <Gold.Chemscore.Internal_Hbond.Weighted>
0.0000

> <Gold.Chemscore.DEClash.Weighted>
1.3563

> <Gold.Chemscore.DEInternal.Weighted>
0.1156

> <Gold.Chemscore.Rot.Weighted>
5.1503

> <Gold.Chemscore.Internal.Correction.Weighted>
   9.000000E+99

> <Gold.Protein.RotatedTorsions>
[ 6907 6896 6895 6894 ] final  -12.63 input  -60.11 | X-H torsion
[ 7974 7965 7964 7962 ] final  -12.54 input  175.53 | X-H torsion
[ 8008 7997 7996 7995 ] final  177.30 input   59.86 | X-H torsion
[ 10167 10162 10161 10158 ] final -102.24 input  -65.29 | X-H torsion
[ 10718 10713 10712 10709 ] final  -34.58 input   66.30 | X-H torsion
[ 10763 10752 10751 10750 ] final -149.50 input  -60.55 | X-H torsion
[ 11005 11000 10999 10996 ] final   66.07 input  -57.11 | X-H torsion

> <Gold.Protein.ActiveResidues>
 VAL166  LYS551  ARG553  GLY616  TRP617  ASP618  TYR619  PRO620  LYS621  CYS622 
 ASP623  PHE694  ASN695  SER759  ASP760  ASP761  ALA762  ILE779  LEU786  VAL792 
 PHE793  MET794  SER795  GLU796  ALA797  LYS798  CYS799  TRP800  GLU811  SER814 

> <Gold.Protein.RotatedAtoms>
  151.3675  135.0916  159.9454 H   0  0  0  0  0  0  0  0  0  0  0  0  # atno 6907 bound_to 6896
  152.5145  133.9197  159.7539 H   0  0  0  0  0  0  0  0  0  0  0  0  # atno 6908 bound_to 6896
  150.9604  133.6396  159.2784 H   0  0  0  0  0  0  0  0  0  0  0  0  # atno 6909 bound_to 6896
  146.2148  140.3072  142.8379 H   0  0  0  0  0  0  0  0  0  0  0  0  # atno 7974 bound_to 7965
  156.0671  140.1362  156.9872 H   0  0  0  0  0  0  0  0  0  0  0  0  # atno 8008 bound_to 7997
  154.4512  140.0979  156.6675 H   0  0  0  0  0  0  0  0  0  0  0  0  # atno 8009 bound_to 7997
  155.5286  140.3458  155.4424 H   0  0  0  0  0  0  0  0  0  0  0  0  # atno 8010 bound_to 7997
  140.2327  143.3595  152.0872 H   0  0  0  0  0  0  0  0  0  0  0  0  # atno 10167 bound_to 10162
  156.3488  130.4305  149.7722 H   0  0  0  0  0  0  0  0  0  0  0  0  # atno 10718 bound_to 10713
  154.8174  135.3308  154.7138 H   0  0  0  0  0  0  0  0  0  0  0  0  # atno 10763 bound_to 10752
  153.7776  135.6921  153.4899 H   0  0  0  0  0  0  0  0  0  0  0  0  # atno 10764 bound_to 10752
  153.2002  135.4519  155.0205 H   0  0  0  0  0  0  0  0  0  0  0  0  # atno 10765 bound_to 10752
  139.9855  134.6675  156.0185 H   0  0  0  0  0  0  0  0  0  0  0  0  # atno 11005 bound_to 11000
  144.9014  140.7647  143.5864 LP  0  0  0  0  0  0  0  0  0  0  0  0  # atno 17320 bound_to 7965
  145.2998  139.1854  143.4695 LP  0  0  0  0  0  0  0  0  0  0  0  0  # atno 17321 bound_to 7965
  139.5104  144.6884  151.5826 LP  0  0  0  0  0  0  0  0  0  0  0  0  # atno 17342 bound_to 10162
  140.6173  143.9325  150.6498 LP  0  0  0  0  0  0  0  0  0  0  0  0  # atno 17343 bound_to 10162
  156.4930  130.8094  151.3102 LP  0  0  0  0  0  0  0  0  0  0  0  0  # atno 17370 bound_to 10713
  157.7458  130.9969  150.2797 LP  0  0  0  0  0  0  0  0  0  0  0  0  # atno 17371 bound_to 10713
  141.1520  133.6547  156.4044 LP  0  0  0  0  0  0  0  0  0  0  0  0  # atno 17394 bound_to 11000
  140.5012  134.6484  157.5249 LP  0  0  0  0  0  0  0  0  0  0  0  0  # atno 17395 bound_to 11000

$$$$
