AV-unprocessed.smi:3289|AV-procd|sdf|12608|dock7
  -GOLD-   2272018533D 1   1.00000     0.00000
 Structure written by MMmdl.
 40 41  0  0  0  0  0  0  0  0  2 V2000
  147.3472  140.7118  153.3251 C   0  0  0  0  0  0  0  0  0  0  0  0
  147.6079  139.2956  153.8634 C   0  0  0  0  0  0  0  0  0  0  0  0
  146.7150  138.9813  155.0719 C   0  0  0  0  0  0  0  0  0  0  0  0
  149.0594  139.0678  154.1868 C   0  0  0  0  0  0  0  0  0  0  0  0
  149.8342  138.1219  153.6400 N   0  3  0  0  0  0  0  0  0  0  0  0
  151.1106  138.2052  154.1233 C   0  0  0  0  0  0  0  0  0  0  0  0
  151.1250  139.2630  154.9928 C   0  0  0  0  0  0  0  0  0  0  0  0
  149.8552  139.7834  155.0051 N   0  0  0  0  0  0  0  0  0  0  0  0
  149.4092  140.9398  155.7965 C   0  0  0  0  0  0  0  0  0  0  0  0
  150.5746  141.5784  156.5545 C   0  0  0  0  0  0  0  0  0  0  0  0
  151.2553  140.8997  157.3234 O   0  0  0  0  0  0  0  0  0  0  0  0
  150.7683  142.8907  156.3534 N   0  0  0  0  0  0  0  0  0  0  0  0
  151.7317  143.7232  157.0649 C   0  0  0  0  0  0  0  0  0  0  0  0
  151.4853  143.6902  158.5833 C   0  0  1  0  0  0  0  0  0  0  0  0
  152.4866  144.4811  159.4221 C   0  0  0  0  0  0  0  0  0  0  0  0
  151.7281  144.6631  160.7192 C   0  0  0  0  0  0  0  0  0  0  0  0
  150.2679  144.7338  160.2631 C   0  0  0  0  0  0  0  0  0  0  0  0
  150.2486  144.3108  158.9014 O   0  0  0  0  0  0  0  0  0  0  0  0
  147.9589  140.9188  152.4467 H   0  0  0  0  0  0  0  0  0  0  0  0
  147.5690  141.4733  154.0733 H   0  0  0  0  0  0  0  0  0  0  0  0
  146.3038  140.8321  153.0323 H   0  0  0  0  0  0  0  0  0  0  0  0
  147.3585  138.6002  153.0637 H   0  0  0  0  0  0  0  0  0  0  0  0
  146.8519  137.9534  155.4086 H   0  0  0  0  0  0  0  0  0  0  0  0
  145.6605  139.1076  154.8244 H   0  0  0  0  0  0  0  0  0  0  0  0
  146.9404  139.6388  155.9122 H   0  0  0  0  0  0  0  0  0  0  0  0
  151.8931  137.5260  153.8176 H   0  0  0  0  0  0  0  0  0  0  0  0
  151.9261  139.6762  155.5886 H   0  0  0  0  0  0  0  0  0  0  0  0
  148.9761  141.6734  155.1155 H   0  0  0  0  0  0  0  0  0  0  0  0
  148.6143  140.6209  156.4721 H   0  0  0  0  0  0  0  0  0  0  0  0
  150.1691  143.3621  155.6915 H   0  0  0  0  0  0  0  0  0  0  0  0
  152.7563  143.4281  156.8329 H   0  0  0  0  0  0  0  0  0  0  0  0
  151.6185  144.7445  156.7011 H   0  0  0  0  0  0  0  0  0  0  0  0
  151.4459  142.6574  158.9345 H   0  0  0  0  0  0  0  0  0  0  0  0
  153.4386  143.9673  159.5536 H   0  0  0  0  0  0  0  0  0  0  0  0
  152.6820  145.4524  158.9649 H   0  0  0  0  0  0  0  0  0  0  0  0
  151.8760  143.7933  161.3606 H   0  0  0  0  0  0  0  0  0  0  0  0
  152.0438  145.5485  161.2718 H   0  0  0  0  0  0  0  0  0  0  0  0
  149.6342  144.0879  160.8715 H   0  0  0  0  0  0  0  0  0  0  0  0
  149.8767  145.7494  160.3278 H   0  0  0  0  0  0  0  0  0  0  0  0
  149.5142  137.4385  152.9653 H   0  0  0  0  0  0  0  0  0  0  0  0
  1  2  1  0  0  0  0
  1 19  1  0  0  0  0
  1 20  1  0  0  0  0
  1 21  1  0  0  0  0
  2  3  1  0  0  0  0
  2  4  1  0  0  0  0
  2 22  1  0  0  0  0
  3 23  1  0  0  0  0
  3 24  1  0  0  0  0
  3 25  1  0  0  0  0
  4  8  1  0  0  0  0
  4  5  2  0  0  0  0
  5  6  1  0  0  0  0
  5 40  1  0  0  0  0
  6  7  2  0  0  0  0
  6 26  1  0  0  0  0
  7  8  1  0  0  0  0
  7 27  1  0  0  0  0
  8  9  1  0  0  0  0
  9 10  1  0  0  0  0
  9 28  1  0  0  0  0
  9 29  1  0  0  0  0
 10 11  2  0  0  0  0
 10 12  1  0  0  0  0
 12 13  1  0  0  0  0
 12 30  1  0  0  0  0
 13 14  1  0  0  0  0
 13 31  1  0  0  0  0
 13 32  1  0  0  0  0
 14 18  1  0  0  0  0
 14 15  1  0  0  0  0
 14 33  1  0  0  0  0
 15 16  1  0  0  0  0
 15 34  1  0  0  0  0
 15 35  1  0  0  0  0
 16 17  1  0  0  0  0
 16 36  1  0  0  0  0
 16 37  1  0  0  0  0
 17 18  1  0  0  0  0
 17 38  1  0  0  0  0
 17 39  1  0  0  0  0
M  CHG  1   5   1
M  END
> <s_m_source_file>
AV-unprocessed.smi

> <i_m_source_file_index>
3289

> <i_lp_mmshare_version>
43012

> <i_f3d_flags>
0

> <s_epik_input>
W0NIM11bQ0hdKFtDSDNdKWMxbltjSF1bY0hdbjFbQ0gyXUMoPU8pW05IXVtDSDJdW0NAQEhdMltDSDJdW0NIMl1bQ0gyXU8y

> <s_epik_cmdline>
J2VwaWtfcHl0aG9uJywgJy1waCcsICc3LjAnLCAnLXRuJywgJzgnLCAnLW1hJywgJzIwMCcsICctbWV0YWxfYmluZGluZycsICctaW1hZScsICc8aW5maWxlLm1hZT4nLCAnLW9tYWUnLCAnPG91dGZpbGUubWFlPic=

> <r_lp_tautomer_probability>
1

> <r_epik_Ionization_Penalty>
0.274547

> <r_epik_Ionization_Penalty_Charging>
0

> <r_epik_Ionization_Penalty_Neutral>
0.274547

> <r_epik_State_Penalty>
0.266843

> <r_epik_Charging_Adjusted_Penalty>
0.266843

> <i_epik_Tot_Q>
1

> <i_epik_Tot_abs_Q>
1

> <r_epik_Metal_State_Penalty>
0.55046

> <b_epik_Metal_Only>
0

> <s_lp_Force_Field>
OPLS_2005

> <r_lp_Energy>
22.2551

> <b_lp_Chiralities_Consistent>
1

> <s_lp_Variant>
AV-unprocessed.smi:3289-2

> <Gold.Version>
5.8.1

> <Gold.Id.Protein>
6NUR|6NUR_protein|mol2

> <Gold.PLP.Fitness>
44.9947

> <Gold.PLP.PLP>
-36.8812

> <Gold.PLP.part.hbond>
-2.9919

> <Gold.PLP.part.metal>
0.0000

> <Gold.PLP.part.buried>
-4.5581

> <Gold.PLP.part.nonpolar>
-30.3249

> <Gold.PLP.part.repulsive>
0.3483

> <Gold.PLP.ligand.clash>
0.0000

> <Gold.PLP.ligand.torsion>
0.1287

> <Gold.PLP.Chemscore.Hbond>
2.7680

> <Gold.PLP.Chemscore.CHOScore>
0.0000

> <Gold.PLP.Chemscore.Metal>
0.0000

> <Gold.Chemscore.Hbonds>
donor molecule, donor type, donor heavy atom, donor atom, acceptor molecule, acceptor atom, score
      L1  H     5    40       P1  7948  2.00
      L1  H    12    30       P1  8028  0.78

> <Gold.PLP.Chemscore.Internal.Correction>
0.0668

> <Gold.Rescore>
     Score         DG    S(hbond)    S(metal)    S(lipo)     H(rot)  DE(clash)    DE(int)     intcor
     15.80     -18.28       1.84        0.00      95.90       1.78       0.96       1.52       ----

> <Gold.Chemscore.Fitness>
15.7979

> <Gold.Chemscore.DG>
-18.2774

> <Gold.Chemscore.ZeroCoef>
-5.4800

> <Gold.Chemscore.Hbond>
1.8392

> <Gold.Chemscore.Metal>
0.0000

> <Gold.Chemscore.Lipo>
95.9004

> <Gold.Chemscore.Internal_Hbond>
0.0000

> <Gold.Chemscore.DEClash>
0.9616

> <Gold.Chemscore.DEInternal>
1.5180

> <Gold.Chemscore.Rot>
1.7835

> <Gold.Chemscore.Internal.Correction>
   9.000000E+99

> <Gold.Chemscore.Hbonds>
donor molecule, donor type, donor heavy atom, donor atom, acceptor molecule, acceptor atom, score
      L1  H     5    40       P1  7948  0.78
      L1  H    12    30       P1  8028  0.80

> <Gold.Chemscore.Hbond.Weighted>
-6.1430

> <Gold.Chemscore.Metal.Weighted>
-0.0000

> <Gold.Chemscore.Lipo.Weighted>
-11.2203

> <Gold.Chemscore.Internal_Hbond.Weighted>
0.0000

> <Gold.Chemscore.DEClash.Weighted>
0.9616

> <Gold.Chemscore.DEInternal.Weighted>
1.5180

> <Gold.Chemscore.Rot.Weighted>
4.5659

> <Gold.Chemscore.Internal.Correction.Weighted>
   9.000000E+99

> <Gold.Protein.RotatedTorsions>
[ 6907 6896 6895 6894 ] final  -82.95 input  -60.11 | X-H torsion
[ 7974 7965 7964 7962 ] final  -53.26 input  175.53 | X-H torsion
[ 8008 7997 7996 7995 ] final  165.79 input   59.86 | X-H torsion
[ 10167 10162 10161 10158 ] final -172.45 input  -65.29 | X-H torsion
[ 10718 10713 10712 10709 ] final -130.41 input   66.30 | X-H torsion
[ 10763 10752 10751 10750 ] final   -5.37 input  -60.55 | X-H torsion
[ 11005 11000 10999 10996 ] final   57.23 input  -57.11 | X-H torsion

> <Gold.Protein.ActiveResidues>
 VAL166  LYS551  ARG553  GLY616  TRP617  ASP618  TYR619  PRO620  LYS621  CYS622 
 ASP623  PHE694  ASN695  SER759  ASP760  ASP761  ALA762  ILE779  LEU786  VAL792 
 PHE793  MET794  SER795  GLU796  ALA797  LYS798  CYS799  TRP800  GLU811  SER814 

> <Gold.Protein.RotatedAtoms>
  150.6891  134.3586  159.4940 H   0  0  0  0  0  0  0  0  0  0  0  0  # atno 6907 bound_to 6896
  152.1418  134.9054  160.0562 H   0  0  0  0  0  0  0  0  0  0  0  0  # atno 6908 bound_to 6896
  152.0184  133.3854  159.4285 H   0  0  0  0  0  0  0  0  0  0  0  0  # atno 6909 bound_to 6896
  145.8988  140.8011  142.9754 H   0  0  0  0  0  0  0  0  0  0  0  0  # atno 7974 bound_to 7965
  156.1771  140.1660  156.8342 H   0  0  0  0  0  0  0  0  0  0  0  0  # atno 8008 bound_to 7997
  154.5319  140.0755  156.8394 H   0  0  0  0  0  0  0  0  0  0  0  0  # atno 8009 bound_to 7997
  155.3389  140.3383  155.4241 H   0  0  0  0  0  0  0  0  0  0  0  0  # atno 8010 bound_to 7997
  139.5744  144.1567  152.1429 H   0  0  0  0  0  0  0  0  0  0  0  0  # atno 10167 bound_to 10162
  156.2142  130.6937  151.0683 H   0  0  0  0  0  0  0  0  0  0  0  0  # atno 10718 bound_to 10713
  153.3976  135.7004  153.6449 H   0  0  0  0  0  0  0  0  0  0  0  0  # atno 10763 bound_to 10752
  153.4996  135.3655  155.2534 H   0  0  0  0  0  0  0  0  0  0  0  0  # atno 10764 bound_to 10752
  154.8708  135.4109  154.3304 H   0  0  0  0  0  0  0  0  0  0  0  0  # atno 10765 bound_to 10752
  140.0468  134.5794  155.9313 H   0  0  0  0  0  0  0  0  0  0  0  0  # atno 11005 bound_to 11000
  144.6734  140.1644  143.7419 LP  0  0  0  0  0  0  0  0  0  0  0  0  # atno 17320 bound_to 7965
  145.8817  139.2326  143.1601 LP  0  0  0  0  0  0  0  0  0  0  0  0  # atno 17321 bound_to 7965
  140.1107  144.5459  150.6927 LP  0  0  0  0  0  0  0  0  0  0  0  0  # atno 17342 bound_to 10162
  140.7027  143.2446  151.4817 LP  0  0  0  0  0  0  0  0  0  0  0  0  # atno 17343 bound_to 10162
  157.7054  131.0758  150.6683 LP  0  0  0  0  0  0  0  0  0  0  0  0  # atno 17370 bound_to 10713
  156.6744  130.4549  149.5647 LP  0  0  0  0  0  0  0  0  0  0  0  0  # atno 17371 bound_to 10713
  141.1911  133.6570  156.5440 LP  0  0  0  0  0  0  0  0  0  0  0  0  # atno 17394 bound_to 11000
  140.3981  134.7381  157.4763 LP  0  0  0  0  0  0  0  0  0  0  0  0  # atno 17395 bound_to 11000

$$$$
