AV-unprocessed.smi:2823|AV-procd|sdf|10884|dock2
  -GOLD-   2272015323D 1   1.00000     0.00000
 Structure written by MMmdl.
 42 43  0  0  0  0  0  0  0  0  1 V2000
  141.9672  135.1164  153.1721 C   0  0  0  0  0  0  0  0  0  0  0  0
  143.3088  135.4333  152.6058 C   0  0  0  0  0  0  0  0  0  0  0  0
  143.6714  134.9800  151.4110 N   0  0  0  0  0  0  0  0  0  0  0  0
  144.9688  135.4887  151.2504 O   0  0  0  0  0  0  0  0  0  0  0  0
  145.2248  136.1912  152.3813 C   0  0  0  0  0  0  0  0  0  0  0  0
  146.4449  136.8698  152.6155 N   0  0  0  0  0  0  0  0  0  0  0  0
  146.6345  137.9350  153.4100 C   0  0  0  0  0  0  0  0  0  0  0  0
  145.7542  138.4926  154.0658 O   0  0  0  0  0  0  0  0  0  0  0  0
  147.9188  138.3205  153.4093 N   0  0  0  0  0  0  0  0  0  0  0  0
  148.4806  139.4246  154.1892 C   0  0  0  0  0  0  0  0  0  0  0  0
  149.7466  139.0214  155.0065 C   0  0  0  0  0  0  0  0  0  0  0  0
  150.4694  140.2749  155.6095 C   0  0  0  0  0  0  0  0  0  0  0  0
  151.6342  140.4878  155.2633 O   0  0  0  0  0  0  0  0  0  0  0  0
  149.8628  141.1248  156.4826 N   0  0  0  0  0  0  0  0  0  0  0  0
  150.6268  142.2417  157.0489 C   0  0  0  0  0  0  0  0  0  0  0  0
  148.4760  141.0986  156.9561 C   0  0  0  0  0  0  0  0  0  0  0  0
  149.4823  137.9194  156.0650 C   0  0  0  0  0  0  0  0  0  0  0  0
  150.8081  137.1762  156.2749 C   0  0  0  0  0  0  0  0  0  0  0  0
  151.6096  137.3808  154.9875 C   0  0  0  0  0  0  0  0  0  0  0  0
  150.7062  138.2225  154.0803 C   0  0  0  0  0  0  0  0  0  0  0  0
  144.2299  136.1921  153.2629 N   0  0  0  0  0  0  0  0  0  0  0  0
  141.8542  134.0390  153.2945 H   0  0  0  0  0  0  0  0  0  0  0  0
  141.1819  135.4755  152.5062 H   0  0  0  0  0  0  0  0  0  0  0  0
  141.8366  135.5896  154.1459 H   0  0  0  0  0  0  0  0  0  0  0  0
  147.2528  136.5025  152.1351 H   0  0  0  0  0  0  0  0  0  0  0  0
  148.5669  137.7995  152.8369 H   0  0  0  0  0  0  0  0  0  0  0  0
  148.6838  140.2285  153.4880 H   0  0  0  0  0  0  0  0  0  0  0  0
  147.7208  139.8366  154.8556 H   0  0  0  0  0  0  0  0  0  0  0  0
  151.5446  141.8873  157.5211 H   0  0  0  0  0  0  0  0  0  0  0  0
  150.0666  142.7854  157.8111 H   0  0  0  0  0  0  0  0  0  0  0  0
  150.8964  142.9549  156.2688 H   0  0  0  0  0  0  0  0  0  0  0  0
  147.8129  140.4255  156.4253 H   0  0  0  0  0  0  0  0  0  0  0  0
  148.0320  142.0912  156.8725 H   0  0  0  0  0  0  0  0  0  0  0  0
  148.4533  140.8139  158.0084 H   0  0  0  0  0  0  0  0  0  0  0  0
  149.0947  138.2642  157.0194 H   0  0  0  0  0  0  0  0  0  0  0  0
  148.7433  137.2177  155.6753 H   0  0  0  0  0  0  0  0  0  0  0  0
  151.3509  137.6030  157.1193 H   0  0  0  0  0  0  0  0  0  0  0  0
  150.6429  136.1205  156.4919 H   0  0  0  0  0  0  0  0  0  0  0  0
  152.5352  137.9151  155.2048 H   0  0  0  0  0  0  0  0  0  0  0  0
  151.8793  136.4354  154.5157 H   0  0  0  0  0  0  0  0  0  0  0  0
  150.1271  137.5411  153.4551 H   0  0  0  0  0  0  0  0  0  0  0  0
  151.2813  138.8381  153.3874 H   0  0  0  0  0  0  0  0  0  0  0  0
  1  2  1  0  0  0  0
  1 22  1  0  0  0  0
  1 23  1  0  0  0  0
  1 24  1  0  0  0  0
  2 21  1  0  0  0  0
  2  3  2  0  0  0  0
  3  4  1  0  0  0  0
  4  5  1  0  0  0  0
  5  6  1  0  0  0  0
  5 21  2  0  0  0  0
  6  7  1  0  0  0  0
  6 25  1  0  0  0  0
  7  8  2  0  0  0  0
  7  9  1  0  0  0  0
  9 10  1  0  0  0  0
  9 26  1  0  0  0  0
 10 11  1  0  0  0  0
 10 27  1  0  0  0  0
 10 28  1  0  0  0  0
 11 20  1  0  0  0  0
 11 12  1  0  0  0  0
 11 17  1  0  0  0  0
 12 13  2  0  0  0  0
 12 14  1  0  0  0  0
 14 15  1  0  0  0  0
 14 16  1  0  0  0  0
 15 29  1  0  0  0  0
 15 30  1  0  0  0  0
 15 31  1  0  0  0  0
 16 32  1  0  0  0  0
 16 33  1  0  0  0  0
 16 34  1  0  0  0  0
 17 18  1  0  0  0  0
 17 35  1  0  0  0  0
 17 36  1  0  0  0  0
 18 19  1  0  0  0  0
 18 37  1  0  0  0  0
 18 38  1  0  0  0  0
 19 20  1  0  0  0  0
 19 39  1  0  0  0  0
 19 40  1  0  0  0  0
 20 41  1  0  0  0  0
 20 42  1  0  0  0  0
M  END
> <s_m_source_file>
AV-unprocessed.smi

> <i_m_source_file_index>
2823

> <i_lp_mmshare_version>
43012

> <i_f3d_flags>
0

> <s_epik_input>
W0NIM11jMW5vYyhuMSlbTkhdQyg9TylbTkhdW0NIMl1DMihDKD1PKU4oW0NIM10pW0NIM10pW0NIMl1bQ0gyXVtDSDJdW0NIMl0y

> <s_epik_cmdline>
J2VwaWtfcHl0aG9uJywgJy1waCcsICc3LjAnLCAnLXRuJywgJzgnLCAnLW1hJywgJzIwMCcsICctbWV0YWxfYmluZGluZycsICctaW1hZScsICc8aW5maWxlLm1hZT4nLCAnLW9tYWUnLCAnPG91dGZpbGUubWFlPic=

> <r_lp_tautomer_probability>
1

> <r_epik_Ionization_Penalty>
4.1201e-05

> <r_epik_Ionization_Penalty_Charging>
0

> <r_epik_Ionization_Penalty_Neutral>
4.1201e-05

> <r_epik_State_Penalty>
-0

> <r_epik_Charging_Adjusted_Penalty>
0

> <i_epik_Tot_Q>
0

> <i_epik_Tot_abs_Q>
0

> <r_epik_Metal_State_Penalty>
0.0212056

> <b_epik_Metal_Only>
0

> <s_lp_Force_Field>
OPLS_2005

> <r_lp_Energy>
33.0432

> <b_lp_Chiralities_Consistent>
1

> <s_lp_Variant>
AV-unprocessed.smi:2823-1

> <Gold.Version>
5.8.1

> <Gold.Id.Protein>
6NUR|6NUR_protein|mol2

> <Gold.PLP.Fitness>
34.9761

> <Gold.PLP.PLP>
-27.0000

> <Gold.PLP.part.hbond>
-3.1375

> <Gold.PLP.part.metal>
0.0000

> <Gold.PLP.part.buried>
-4.9948

> <Gold.PLP.part.nonpolar>
-20.2791

> <Gold.PLP.part.repulsive>
0.7040

> <Gold.PLP.ligand.clash>
0.0000

> <Gold.PLP.ligand.torsion>
0.3386

> <Gold.PLP.Chemscore.Hbond>
2.8160

> <Gold.PLP.Chemscore.CHOScore>
0.0000

> <Gold.PLP.Chemscore.Metal>
0.0000

> <Gold.Chemscore.Hbonds>
donor molecule, donor type, donor heavy atom, donor atom, acceptor molecule, acceptor atom, score
      L1  H     6    25       P1  7948  1.00
      L1  H     9    26       P1  7948  0.99
      P1  H  7989  7998       L1    13  0.80

> <Gold.PLP.Chemscore.Internal.Correction>
0.2053

> <Gold.Rescore>
     Score         DG    S(hbond)    S(metal)    S(lipo)     H(rot)  DE(clash)    DE(int)     intcor
     14.20     -15.86       2.74        0.00      48.39       1.74       0.03       1.63       ----

> <Gold.Chemscore.Fitness>
14.1976

> <Gold.Chemscore.DG>
-15.8558

> <Gold.Chemscore.ZeroCoef>
-5.4800

> <Gold.Chemscore.Hbond>
2.7420

> <Gold.Chemscore.Metal>
0.0000

> <Gold.Chemscore.Lipo>
48.3904

> <Gold.Chemscore.Internal_Hbond>
0.0000

> <Gold.Chemscore.DEClash>
0.0255

> <Gold.Chemscore.DEInternal>
1.6327

> <Gold.Chemscore.Rot>
1.7360

> <Gold.Chemscore.Internal.Correction>
   9.000000E+99

> <Gold.Chemscore.Hbonds>
donor molecule, donor type, donor heavy atom, donor atom, acceptor molecule, acceptor atom, score
      L1  H     6    25       P1  7948  0.99
      L1  H     9    26       P1  7948  0.94
      P1  H  7989  7998       L1    13  0.56

> <Gold.Chemscore.Hbond.Weighted>
-9.1584

> <Gold.Chemscore.Metal.Weighted>
-0.0000

> <Gold.Chemscore.Lipo.Weighted>
-5.6617

> <Gold.Chemscore.Internal_Hbond.Weighted>
0.0000

> <Gold.Chemscore.DEClash.Weighted>
0.0255

> <Gold.Chemscore.DEInternal.Weighted>
1.6327

> <Gold.Chemscore.Rot.Weighted>
4.4443

> <Gold.Chemscore.Internal.Correction.Weighted>
   9.000000E+99

> <Gold.Protein.RotatedTorsions>
[ 6907 6896 6895 6894 ] final   54.40 input  -60.11 | X-H torsion
[ 7974 7965 7964 7962 ] final   -3.28 input  175.53 | X-H torsion
[ 8008 7997 7996 7995 ] final  -59.95 input   59.86 | X-H torsion
[ 10167 10162 10161 10158 ] final   91.94 input  -65.29 | X-H torsion
[ 10718 10713 10712 10709 ] final   10.62 input   66.30 | X-H torsion
[ 10763 10752 10751 10750 ] final   25.79 input  -60.55 | X-H torsion
[ 11005 11000 10999 10996 ] final -175.55 input  -57.11 | X-H torsion

> <Gold.Protein.ActiveResidues>
 VAL166  LYS551  ARG553  GLY616  TRP617  ASP618  TYR619  PRO620  LYS621  CYS622 
 ASP623  PHE694  ASN695  SER759  ASP760  ASP761  ALA762  ILE779  LEU786  VAL792 
 PHE793  MET794  SER795  GLU796  ALA797  LYS798  CYS799  TRP800  GLU811  SER814 

> <Gold.Protein.RotatedAtoms>
  152.3435  134.7102  160.0256 H   0  0  0  0  0  0  0  0  0  0  0  0  # atno 6907 bound_to 6896
  151.7479  133.3320  159.3391 H   0  0  0  0  0  0  0  0  0  0  0  0  # atno 6908 bound_to 6896
  150.7495  134.6151  159.6151 H   0  0  0  0  0  0  0  0  0  0  0  0  # atno 6909 bound_to 6896
  146.2392  140.1697  142.8332 H   0  0  0  0  0  0  0  0  0  0  0  0  # atno 7974 bound_to 7965
  154.4376  140.1050  156.6197 H   0  0  0  0  0  0  0  0  0  0  0  0  # atno 8008 bound_to 7997
  155.5721  140.3489  155.4499 H   0  0  0  0  0  0  0  0  0  0  0  0  # atno 8009 bound_to 7997
  156.0382  140.1276  157.0174 H   0  0  0  0  0  0  0  0  0  0  0  0  # atno 8010 bound_to 7997
  139.8325  144.6680  150.9382 H   0  0  0  0  0  0  0  0  0  0  0  0  # atno 10167 bound_to 10162
  156.9837  130.6015  149.5679 H   0  0  0  0  0  0  0  0  0  0  0  0  # atno 10718 bound_to 10713
  153.0667  135.6575  154.0338 H   0  0  0  0  0  0  0  0  0  0  0  0  # atno 10763 bound_to 10752
  153.9993  135.2938  155.3405 H   0  0  0  0  0  0  0  0  0  0  0  0  # atno 10764 bound_to 10752
  154.7027  135.5238  153.8620 H   0  0  0  0  0  0  0  0  0  0  0  0  # atno 10765 bound_to 10752
  140.4620  134.6246  157.4846 H   0  0  0  0  0  0  0  0  0  0  0  0  # atno 11005 bound_to 11000
  145.0021  140.8641  143.5275 LP  0  0  0  0  0  0  0  0  0  0  0  0  # atno 17320 bound_to 7965
  145.1718  139.2400  143.5338 LP  0  0  0  0  0  0  0  0  0  0  0  0  # atno 17321 bound_to 7965
  140.7805  143.3987  151.1185 LP  0  0  0  0  0  0  0  0  0  0  0  0  # atno 17342 bound_to 10162
  139.7640  143.8593  152.3106 LP  0  0  0  0  0  0  0  0  0  0  0  0  # atno 17343 bound_to 10162
  156.0234  130.5329  150.8340 LP  0  0  0  0  0  0  0  0  0  0  0  0  # atno 17370 bound_to 10713
  157.5508  131.0944  150.9698 LP  0  0  0  0  0  0  0  0  0  0  0  0  # atno 17371 bound_to 10713
  139.9939  134.6941  155.9642 LP  0  0  0  0  0  0  0  0  0  0  0  0  # atno 17394 bound_to 11000
  141.1617  133.6538  156.4340 LP  0  0  0  0  0  0  0  0  0  0  0  0  # atno 17395 bound_to 11000

$$$$
