AV-unprocessed.smi:1791|AV-procd|sdf|7220|dock9
  -GOLD-   22720 8463D 1   1.00000     0.00000
 Structure written by MMmdl.
 38 39  0  0  0  0  0  0  0  0  1 V2000
  152.2302  140.5199  158.3143 C   0  0  0  0  0  0  0  0  0  0  0  0
  152.2939  140.4664  156.8934 O   0  0  0  0  0  0  0  0  0  0  0  0
  151.6770  139.4137  156.2489 C   0  0  0  0  0  0  0  0  0  0  0  0
  151.5332  138.1926  156.9369 C   0  0  0  0  0  0  0  0  0  0  0  0
  150.8997  137.1151  156.2884 C   0  0  0  0  0  0  0  0  0  0  0  0
  150.4217  137.2969  154.9687 C   0  0  0  0  0  0  0  0  0  0  0  0
  149.7783  136.2876  154.2026 N   0  0  0  0  0  0  0  0  0  0  0  0
  149.3860  135.0627  154.5923 C   0  0  0  0  0  0  0  0  0  0  0  0
  149.5340  134.5938  155.7204 O   0  0  0  0  0  0  0  0  0  0  0  0
  148.7817  134.4102  153.5890 N   0  0  0  0  0  0  0  0  0  0  0  0
  148.2056  133.0677  153.6586 C   0  0  2  0  0  0  0  0  0  0  0  0
  149.2837  132.0691  154.1031 C   0  0  0  0  0  0  0  0  0  0  0  0
  147.5713  132.6731  152.3091 C   0  0  1  0  0  0  0  0  0  0  0  0
  146.8751  131.3098  152.2832 C   0  0  0  0  0  0  0  0  0  0  0  0
  145.9280  131.4809  151.1179 C   0  0  0  0  0  0  0  0  0  0  0  0
  145.4817  132.9304  151.2894 C   0  0  0  0  0  0  0  0  0  0  0  0
  146.5713  133.6089  151.9096 O   0  0  0  0  0  0  0  0  0  0  0  0
  150.6309  138.5526  154.3626 C   0  0  0  0  0  0  0  0  0  0  0  0
  151.2360  139.5898  154.9788 N   0  0  0  0  0  0  0  0  0  0  0  0
  152.7703  141.3985  158.6665 H   0  0  0  0  0  0  0  0  0  0  0  0
  152.6944  139.6429  158.7680 H   0  0  0  0  0  0  0  0  0  0  0  0
  151.2002  140.6022  158.6646 H   0  0  0  0  0  0  0  0  0  0  0  0
  151.9052  138.0831  157.9448 H   0  0  0  0  0  0  0  0  0  0  0  0
  150.8062  136.1756  156.8103 H   0  0  0  0  0  0  0  0  0  0  0  0
  149.5212  136.5563  153.2641 H   0  0  0  0  0  0  0  0  0  0  0  0
  148.7001  134.8836  152.7010 H   0  0  0  0  0  0  0  0  0  0  0  0
  147.4142  133.0383  154.4095 H   0  0  0  0  0  0  0  0  0  0  0  0
  148.8725  131.0635  154.1939 H   0  0  0  0  0  0  0  0  0  0  0  0
  149.6964  132.3440  155.0743 H   0  0  0  0  0  0  0  0  0  0  0  0
  150.1082  132.0282  153.3904 H   0  0  0  0  0  0  0  0  0  0  0  0
  148.3400  132.6749  151.5344 H   0  0  0  0  0  0  0  0  0  0  0  0
  147.5706  130.4805  152.1512 H   0  0  0  0  0  0  0  0  0  0  0  0
  146.3045  131.1328  153.1954 H   0  0  0  0  0  0  0  0  0  0  0  0
  146.4674  131.3618  150.1772 H   0  0  0  0  0  0  0  0  0  0  0  0
  145.0980  130.7740  151.1300 H   0  0  0  0  0  0  0  0  0  0  0  0
  145.2111  133.3958  150.3416 H   0  0  0  0  0  0  0  0  0  0  0  0
  144.6181  132.9867  151.9534 H   0  0  0  0  0  0  0  0  0  0  0  0
  150.2965  138.7360  153.3518 H   0  0  0  0  0  0  0  0  0  0  0  0
  1  2  1  0  0  0  0
  1 20  1  0  0  0  0
  1 21  1  0  0  0  0
  1 22  1  0  0  0  0
  2  3  1  0  0  0  0
  3 19  1  0  0  0  0
  3  4  2  0  0  0  0
  4  5  1  0  0  0  0
  4 23  1  0  0  0  0
  5  6  2  0  0  0  0
  5 24  1  0  0  0  0
  6  7  1  0  0  0  0
  6 18  1  0  0  0  0
  7  8  1  0  0  0  0
  7 25  1  0  0  0  0
  8  9  2  0  0  0  0
  8 10  1  0  0  0  0
 10 11  1  0  0  0  0
 10 26  1  0  0  0  0
 11 12  1  0  0  0  0
 11 13  1  0  0  0  0
 11 27  1  0  0  0  0
 12 28  1  0  0  0  0
 12 29  1  0  0  0  0
 12 30  1  0  0  0  0
 13 17  1  0  0  0  0
 13 14  1  0  0  0  0
 13 31  1  0  0  0  0
 14 15  1  0  0  0  0
 14 32  1  0  0  0  0
 14 33  1  0  0  0  0
 15 16  1  0  0  0  0
 15 34  1  0  0  0  0
 15 35  1  0  0  0  0
 16 17  1  0  0  0  0
 16 36  1  0  0  0  0
 16 37  1  0  0  0  0
 18 19  2  0  0  0  0
 18 38  1  0  0  0  0
M  END
> <s_m_source_file>
AV-unprocessed.smi

> <i_m_source_file_index>
1791

> <i_lp_mmshare_version>
43012

> <i_f3d_flags>
0

> <s_epik_input>
W0NIM11PYzFbY0hdW2NIXWMoW2NIXW4xKVtOSF1DKD1PKVtOSF1bQ0BIXShbQ0gzXSlbQ0BASF0yW0NIMl1bQ0gyXVtDSDJdTzI=

> <s_epik_cmdline>
J2VwaWtfcHl0aG9uJywgJy1waCcsICc3LjAnLCAnLXRuJywgJzgnLCAnLW1hJywgJzIwMCcsICctbWV0YWxfYmluZGluZycsICctaW1hZScsICc8aW5maWxlLm1hZT4nLCAnLW9tYWUnLCAnPG91dGZpbGUubWFlPic=

> <r_lp_tautomer_probability>
1

> <r_epik_Ionization_Penalty>
9.18737e-05

> <r_epik_Ionization_Penalty_Charging>
0

> <r_epik_Ionization_Penalty_Neutral>
9.18737e-05

> <r_epik_State_Penalty>
-0

> <r_epik_Charging_Adjusted_Penalty>
0

> <i_epik_Tot_Q>
0

> <i_epik_Tot_abs_Q>
0

> <r_epik_Metal_State_Penalty>
-0

> <b_epik_Metal_Only>
0

> <s_lp_Force_Field>
OPLS_2005

> <r_lp_Energy>
21.9226

> <b_lp_Chiralities_Consistent>
1

> <s_lp_Variant>
AV-unprocessed.smi:1791-3

> <Gold.Version>
5.8.1

> <Gold.Id.Protein>
6NUR|6NUR_protein|mol2

> <Gold.PLP.Fitness>
38.5859

> <Gold.PLP.PLP>
-25.5926

> <Gold.PLP.part.hbond>
-4.4690

> <Gold.PLP.part.metal>
0.0000

> <Gold.PLP.part.buried>
0.1889

> <Gold.PLP.part.nonpolar>
-21.3059

> <Gold.PLP.part.repulsive>
0.2433

> <Gold.PLP.ligand.clash>
0.0000

> <Gold.PLP.ligand.torsion>
0.3843

> <Gold.PLP.Chemscore.Hbond>
3.9040

> <Gold.PLP.Chemscore.CHOScore>
0.6755

> <Gold.PLP.Chemscore.Metal>
0.0000

> <Gold.Chemscore.Hbonds>
donor molecule, donor type, donor heavy atom, donor atom, acceptor molecule, acceptor atom, score
      L1  H     7    25       P1  7948  0.96
      L1  H    10    26       P1  7948  0.82
      P1  H  7989  7998       L1    19  1.00
      P1  H  7997  8008       L1     2  0.75
      L1  C    18    38       P1  7957  0.76

> <Gold.PLP.Chemscore.Internal.Correction>
0.0235

> <Gold.Rescore>
     Score         DG    S(hbond)    S(metal)    S(lipo)     H(rot)  DE(clash)    DE(int)     intcor
     14.02     -17.14       2.55        0.00      59.07       1.47       0.03       3.09       ----

> <Gold.Chemscore.Fitness>
14.0219

> <Gold.Chemscore.DG>
-17.1426

> <Gold.Chemscore.ZeroCoef>
-5.4800

> <Gold.Chemscore.Hbond>
2.5487

> <Gold.Chemscore.Metal>
0.0000

> <Gold.Chemscore.Lipo>
59.0715

> <Gold.Chemscore.Internal_Hbond>
0.0000

> <Gold.Chemscore.DEClash>
0.0324

> <Gold.Chemscore.DEInternal>
3.0882

> <Gold.Chemscore.Rot>
1.4693

> <Gold.Chemscore.Internal.Correction>
   9.000000E+99

> <Gold.Chemscore.Hbonds>
donor molecule, donor type, donor heavy atom, donor atom, acceptor molecule, acceptor atom, score
      L1  H     7    25       P1  7948  0.53
      L1  H    10    26       P1  7948  0.13
      P1  H  7989  7998       L1    19  0.43
      P1  H  7997  8008       L1     2  0.11

> <Gold.Chemscore.Hbond.Weighted>
-8.5125

> <Gold.Chemscore.Metal.Weighted>
-0.0000

> <Gold.Chemscore.Lipo.Weighted>
-6.9114

> <Gold.Chemscore.Internal_Hbond.Weighted>
0.0000

> <Gold.Chemscore.DEClash.Weighted>
0.0324

> <Gold.Chemscore.DEInternal.Weighted>
3.0882

> <Gold.Chemscore.Rot.Weighted>
3.7613

> <Gold.Chemscore.Internal.Correction.Weighted>
   9.000000E+99

> <Gold.Protein.RotatedTorsions>
[ 6907 6896 6895 6894 ] final  -54.27 input  -60.11 | X-H torsion
[ 7974 7965 7964 7962 ] final -134.75 input  175.53 | X-H torsion
[ 8008 7997 7996 7995 ] final  -53.19 input   59.86 | X-H torsion
[ 10167 10162 10161 10158 ] final -111.11 input  -65.29 | X-H torsion
[ 10718 10713 10712 10709 ] final  117.04 input   66.30 | X-H torsion
[ 10763 10752 10751 10750 ] final   94.96 input  -60.55 | X-H torsion
[ 11005 11000 10999 10996 ] final   57.18 input  -57.11 | X-H torsion

> <Gold.Protein.ActiveResidues>
 VAL166  LYS551  ARG553  GLY616  TRP617  ASP618  TYR619  PRO620  LYS621  CYS622 
 ASP623  PHE694  ASN695  SER759  ASP760  ASP761  ALA762  ILE779  LEU786  VAL792 
 PHE793  MET794  SER795  GLU796  ALA797  LYS798  CYS799  TRP800  GLU811  SER814 

> <Gold.Protein.RotatedAtoms>
  150.8352  134.7622  159.6886 H   0  0  0  0  0  0  0  0  0  0  0  0  # atno 6907 bound_to 6896
  152.4450  134.5510  159.9876 H   0  0  0  0  0  0  0  0  0  0  0  0  # atno 6908 bound_to 6896
  151.5661  133.3358  159.3016 H   0  0  0  0  0  0  0  0  0  0  0  0  # atno 6909 bound_to 6896
  144.9075  140.6851  143.5046 H   0  0  0  0  0  0  0  0  0  0  0  0  # atno 7974 bound_to 7965
  154.4126  140.1206  156.5113 H   0  0  0  0  0  0  0  0  0  0  0  0  # atno 8008 bound_to 7997
  155.6796  140.3496  155.4831 H   0  0  0  0  0  0  0  0  0  0  0  0  # atno 8009 bound_to 7997
  155.9563  140.1114  157.0924 H   0  0  0  0  0  0  0  0  0  0  0  0  # atno 8010 bound_to 7997
  140.1371  143.4311  152.1588 H   0  0  0  0  0  0  0  0  0  0  0  0  # atno 10167 bound_to 10162
  157.6122  131.1032  150.7558 H   0  0  0  0  0  0  0  0  0  0  0  0  # atno 10718 bound_to 10713
  153.2477  135.4271  155.0765 H   0  0  0  0  0  0  0  0  0  0  0  0  # atno 10763 bound_to 10752
  154.8368  135.3418  154.6557 H   0  0  0  0  0  0  0  0  0  0  0  0  # atno 10764 bound_to 10752
  153.6980  135.7030  153.5128 H   0  0  0  0  0  0  0  0  0  0  0  0  # atno 10765 bound_to 10752
  140.0472  134.5788  155.9308 H   0  0  0  0  0  0  0  0  0  0  0  0  # atno 11005 bound_to 11000
  145.3511  139.1706  143.4434 LP  0  0  0  0  0  0  0  0  0  0  0  0  # atno 17320 bound_to 7965
  146.3141  140.3563  142.8661 LP  0  0  0  0  0  0  0  0  0  0  0  0  # atno 17321 bound_to 7965
  139.5490  144.7322  151.4493 LP  0  0  0  0  0  0  0  0  0  0  0  0  # atno 17342 bound_to 10162
  140.6782  143.8141  150.7087 LP  0  0  0  0  0  0  0  0  0  0  0  0  # atno 17343 bound_to 10162
  156.7933  130.4897  149.5381 LP  0  0  0  0  0  0  0  0  0  0  0  0  # atno 17370 bound_to 10713
  156.1229  130.6123  151.0221 LP  0  0  0  0  0  0  0  0  0  0  0  0  # atno 17371 bound_to 10713
  141.1913  133.6571  156.5449 LP  0  0  0  0  0  0  0  0  0  0  0  0  # atno 17394 bound_to 11000
  140.3974  134.7386  157.4759 LP  0  0  0  0  0  0  0  0  0  0  0  0  # atno 17395 bound_to 11000

$$$$
