AV-unprocessed.smi:1715|AV-procd|sdf|6909|dock4
  -GOLD-   22720 8113D 1   1.00000     0.00000
 Structure written by MMmdl.
 40 41  0  0  0  0  0  0  0  0  1 V2000
  152.3938  138.4381  154.6275 C   0  0  0  0  0  0  0  0  0  0  0  0
  151.1955  139.2589  155.1152 C   0  0  2  0  0  0  0  0  0  0  0  0
  150.0161  139.2050  154.1276 C   0  0  0  0  0  0  0  0  0  0  0  0
  148.9079  140.0503  154.5531 N   0  0  0  0  0  0  0  0  0  0  0  0
  147.7878  139.9503  153.6192 C   0  0  0  0  0  0  0  0  0  0  0  0
  146.7423  138.8760  153.9725 C   0  0  0  0  0  0  0  0  0  0  0  0
  146.8217  137.7397  153.0631 N   0  0  0  0  0  0  0  0  0  0  0  0
  145.7723  137.0415  152.6076 C   0  0  0  0  0  0  0  0  0  0  0  0
  144.6058  137.2835  152.9183 O   0  0  0  0  0  0  0  0  0  0  0  0
  146.1641  136.0573  151.7821 N   0  0  0  0  0  0  0  0  0  0  0  0
  145.3405  135.1317  151.0933 C   0  0  0  0  0  0  0  0  0  0  0  0
  145.7218  133.8045  150.7568 C   0  0  0  0  0  0  0  0  0  0  0  0
  144.7522  133.1717  150.1119 N   0  0  0  0  0  0  0  0  0  0  0  0
  143.7561  134.0826  150.0328 N   0  0  0  0  0  0  0  0  0  0  0  0
  144.0692  135.2900  150.6172 C   0  0  0  0  0  0  0  0  0  0  0  0
  149.3897  141.4218  154.7056 C   0  0  0  0  0  0  0  0  0  0  0  0
  150.5973  141.5295  155.6585 C   0  0  1  0  0  0  0  0  0  0  0  0
  150.2200  141.3702  157.1411 C   0  0  0  0  0  0  0  0  0  0  0  0
  151.6205  140.6115  155.2705 O   0  0  0  0  0  0  0  0  0  0  0  0
  142.8784  133.8680  149.5813 H   0  0  0  0  0  0  0  0  0  0  0  0
  152.1269  137.3881  154.5064 H   0  0  0  0  0  0  0  0  0  0  0  0
  153.2177  138.4921  155.3395 H   0  0  0  0  0  0  0  0  0  0  0  0
  152.7588  138.8042  153.6674 H   0  0  0  0  0  0  0  0  0  0  0  0
  150.8805  138.8646  156.0817 H   0  0  0  0  0  0  0  0  0  0  0  0
  150.3549  139.5129  153.1370 H   0  0  0  0  0  0  0  0  0  0  0  0
  149.6764  138.1728  154.0331 H   0  0  0  0  0  0  0  0  0  0  0  0
  147.2985  140.9210  153.5261 H   0  0  0  0  0  0  0  0  0  0  0  0
  148.1812  139.7185  152.6284 H   0  0  0  0  0  0  0  0  0  0  0  0
  146.8692  138.5427  155.0039 H   0  0  0  0  0  0  0  0  0  0  0  0
  145.7321  139.2760  153.8957 H   0  0  0  0  0  0  0  0  0  0  0  0
  147.7440  137.4677  152.7559 H   0  0  0  0  0  0  0  0  0  0  0  0
  147.1566  135.9661  151.6216 H   0  0  0  0  0  0  0  0  0  0  0  0
  146.6506  133.2902  150.9547 H   0  0  0  0  0  0  0  0  0  0  0  0
  143.3786  136.1201  150.6360 H   0  0  0  0  0  0  0  0  0  0  0  0
  149.6779  141.8133  153.7287 H   0  0  0  0  0  0  0  0  0  0  0  0
  148.5949  142.0696  155.0737 H   0  0  0  0  0  0  0  0  0  0  0  0
  151.0235  142.5267  155.5457 H   0  0  0  0  0  0  0  0  0  0  0  0
  149.5228  142.1496  157.4492 H   0  0  0  0  0  0  0  0  0  0  0  0
  151.1023  141.4465  157.7766 H   0  0  0  0  0  0  0  0  0  0  0  0
  149.7443  140.4108  157.3431 H   0  0  0  0  0  0  0  0  0  0  0  0
  1  2  1  0  0  0  0
  1 21  1  0  0  0  0
  1 22  1  0  0  0  0
  1 23  1  0  0  0  0
  2 19  1  0  0  0  0
  2  3  1  0  0  0  0
  2 24  1  0  0  0  0
  3  4  1  0  0  0  0
  3 25  1  0  0  0  0
  3 26  1  0  0  0  0
  4  5  1  0  0  0  0
  4 16  1  0  0  0  0
  5  6  1  0  0  0  0
  5 27  1  0  0  0  0
  5 28  1  0  0  0  0
  6  7  1  0  0  0  0
  6 29  1  0  0  0  0
  6 30  1  0  0  0  0
  7  8  1  0  0  0  0
  7 31  1  0  0  0  0
  8  9  2  0  0  0  0
  8 10  1  0  0  0  0
 10 11  1  0  0  0  0
 10 32  1  0  0  0  0
 11 15  2  0  0  0  0
 11 12  1  0  0  0  0
 12 13  2  0  0  0  0
 12 33  1  0  0  0  0
 13 14  1  0  0  0  0
 14 20  1  0  0  0  0
 14 15  1  0  0  0  0
 15 34  1  0  0  0  0
 16 17  1  0  0  0  0
 16 35  1  0  0  0  0
 16 36  1  0  0  0  0
 17 18  1  0  0  0  0
 17 19  1  0  0  0  0
 17 37  1  0  0  0  0
 18 38  1  0  0  0  0
 18 39  1  0  0  0  0
 18 40  1  0  0  0  0
M  END
> <s_m_source_file>
AV-unprocessed.smi

> <i_m_source_file_index>
1715

> <i_lp_mmshare_version>
43012

> <i_f3d_flags>
0

> <s_epik_input>
W0NIM11bQ0BASF0xW0NIMl1OKFtDSDJdW0NASF0oTzEpW0NIM10pW0NIMl1bQ0gyXVtOSF1DKD1PKVtOSF1jMltjSF1uW25IXVtjSF0y

> <s_epik_cmdline>
J2VwaWtfcHl0aG9uJywgJy1waCcsICc3LjAnLCAnLXRuJywgJzgnLCAnLW1hJywgJzIwMCcsICctbWV0YWxfYmluZGluZycsICctaW1hZScsICc8aW5maWxlLm1hZT4nLCAnLW9tYWUnLCAnPG91dGZpbGUubWFlPic=

> <r_lp_tautomer_probability>
0.5

> <r_epik_Ionization_Penalty>
0.242771

> <r_epik_Ionization_Penalty_Charging>
0

> <r_epik_Ionization_Penalty_Neutral>
0.242771

> <r_epik_State_Penalty>
0.233765

> <r_epik_Charging_Adjusted_Penalty>
0.233765

> <i_epik_Tot_Q>
0

> <i_epik_Tot_abs_Q>
0

> <r_epik_Metal_State_Penalty>
0.233764

> <b_epik_Metal_Only>
0

> <s_lp_Force_Field>
OPLS_2005

> <r_lp_Energy>
24.9441

> <b_lp_Chiralities_Consistent>
1

> <s_lp_Variant>
AV-unprocessed.smi:1715-1

> <Gold.Version>
5.8.1

> <Gold.Id.Protein>
6NUR|6NUR_protein|mol2

> <Gold.PLP.Fitness>
43.5534

> <Gold.PLP.PLP>
-32.9120

> <Gold.PLP.part.hbond>
-4.1434

> <Gold.PLP.part.metal>
0.0000

> <Gold.PLP.part.buried>
-3.7566

> <Gold.PLP.part.nonpolar>
-26.3816

> <Gold.PLP.part.repulsive>
0.6010

> <Gold.PLP.ligand.clash>
0.0000

> <Gold.PLP.ligand.torsion>
1.1287

> <Gold.PLP.Chemscore.Hbond>
3.2894

> <Gold.PLP.Chemscore.CHOScore>
1.0000

> <Gold.PLP.Chemscore.Metal>
0.0000

> <Gold.Chemscore.Hbonds>
donor molecule, donor type, donor heavy atom, donor atom, acceptor molecule, acceptor atom, score
      L1  H     7    31       P1  7948  1.00
      L1  H    10    32       P1  7948  1.00
      L1  H    14    20       P1 10186  0.83
      P1  H  7989  7998       L1    19  0.49
      L1  C    15    34       P1 10171  0.72

> <Gold.PLP.Chemscore.Internal.Correction>
0.0306

> <Gold.Rescore>
     Score         DG    S(hbond)    S(metal)    S(lipo)     H(rot)  DE(clash)    DE(int)     intcor
     17.69     -19.45       2.85        0.00      73.77       1.63       0.53       1.23       ----

> <Gold.Chemscore.Fitness>
17.6896

> <Gold.Chemscore.DG>
-19.4486

> <Gold.Chemscore.ZeroCoef>
-5.4800

> <Gold.Chemscore.Hbond>
2.8466

> <Gold.Chemscore.Metal>
0.0000

> <Gold.Chemscore.Lipo>
73.7651

> <Gold.Chemscore.Internal_Hbond>
0.0000

> <Gold.Chemscore.DEClash>
0.5289

> <Gold.Chemscore.DEInternal>
1.2301

> <Gold.Chemscore.Rot>
1.6287

> <Gold.Chemscore.Internal.Correction>
   9.000000E+99

> <Gold.Chemscore.Hbonds>
donor molecule, donor type, donor heavy atom, donor atom, acceptor molecule, acceptor atom, score
      L1  H     7    31       P1  7948  0.95
      L1  H    10    32       P1  7948  1.00
      L1  H    14    20       P1 10186  0.81
      P1  H  7989  7998       L1    19  0.01

> <Gold.Chemscore.Hbond.Weighted>
-9.5076

> <Gold.Chemscore.Metal.Weighted>
-0.0000

> <Gold.Chemscore.Lipo.Weighted>
-8.6305

> <Gold.Chemscore.Internal_Hbond.Weighted>
0.0000

> <Gold.Chemscore.DEClash.Weighted>
0.5289

> <Gold.Chemscore.DEInternal.Weighted>
1.2301

> <Gold.Chemscore.Rot.Weighted>
4.1695

> <Gold.Chemscore.Internal.Correction.Weighted>
   9.000000E+99

> <Gold.Protein.RotatedTorsions>
[ 6907 6896 6895 6894 ] final -108.84 input  -60.11 | X-H torsion
[ 7974 7965 7964 7962 ] final   53.78 input  175.53 | X-H torsion
[ 8008 7997 7996 7995 ] final  168.98 input   59.86 | X-H torsion
[ 10167 10162 10161 10158 ] final  139.62 input  -65.29 | X-H torsion
[ 10718 10713 10712 10709 ] final -100.59 input   66.30 | X-H torsion
[ 10763 10752 10751 10750 ] final  -72.24 input  -60.55 | X-H torsion
[ 11005 11000 10999 10996 ] final  147.27 input  -57.11 | X-H torsion

> <Gold.Protein.ActiveResidues>
 VAL166  LYS551  ARG553  GLY616  TRP617  ASP618  TYR619  PRO620  LYS621  CYS622 
 ASP623  PHE694  ASN695  SER759  ASP760  ASP761  ALA762  ILE779  LEU786  VAL792 
 PHE793  MET794  SER795  GLU796  ALA797  LYS798  CYS799  TRP800  GLU811  SER814 

> <Gold.Protein.RotatedAtoms>
  150.7526  133.9618  159.3517 H   0  0  0  0  0  0  0  0  0  0  0  0  # atno 6907 bound_to 6896
  151.7544  135.0823  160.0345 H   0  0  0  0  0  0  0  0  0  0  0  0  # atno 6908 bound_to 6896
  152.3445  133.6068  159.5936 H   0  0  0  0  0  0  0  0  0  0  0  0  # atno 6909 bound_to 6896
  145.9677  139.4119  143.0209 H   0  0  0  0  0  0  0  0  0  0  0  0  # atno 7974 bound_to 7965
  156.1498  140.1576  156.8787 H   0  0  0  0  0  0  0  0  0  0  0  0  # atno 8008 bound_to 7997
  154.5061  140.0812  156.7934 H   0  0  0  0  0  0  0  0  0  0  0  0  # atno 8009 bound_to 7997
  155.3917  140.3410  155.4254 H   0  0  0  0  0  0  0  0  0  0  0  0  # atno 8010 bound_to 7997
  139.5073  144.6284  151.5880 H   0  0  0  0  0  0  0  0  0  0  0  0  # atno 10167 bound_to 10162
  156.0168  130.5335  150.6840 H   0  0  0  0  0  0  0  0  0  0  0  0  # atno 10718 bound_to 10713
  154.4430  135.5936  153.6141 H   0  0  0  0  0  0  0  0  0  0  0  0  # atno 10763 bound_to 10752
  152.9807  135.6002  154.3699 H   0  0  0  0  0  0  0  0  0  0  0  0  # atno 10764 bound_to 10752
  154.3551  135.2841  155.2329 H   0  0  0  0  0  0  0  0  0  0  0  0  # atno 10765 bound_to 10752
  140.0862  134.9068  157.1579 H   0  0  0  0  0  0  0  0  0  0  0  0  # atno 11005 bound_to 11000
  145.7951  140.9797  143.1028 LP  0  0  0  0  0  0  0  0  0  0  0  0  # atno 17320 bound_to 7965
  144.6829  139.9731  143.7482 LP  0  0  0  0  0  0  0  0  0  0  0  0  # atno 17321 bound_to 7965
  140.6008  143.9613  150.6385 LP  0  0  0  0  0  0  0  0  0  0  0  0  # atno 17342 bound_to 10162
  140.2824  143.3380  152.1139 LP  0  0  0  0  0  0  0  0  0  0  0  0  # atno 17343 bound_to 10162
  157.4536  131.0875  151.0820 LP  0  0  0  0  0  0  0  0  0  0  0  0  # atno 17370 bound_to 10713
  157.1328  130.6110  149.5534 LP  0  0  0  0  0  0  0  0  0  0  0  0  # atno 17371 bound_to 10713
  140.3417  134.2697  155.7211 LP  0  0  0  0  0  0  0  0  0  0  0  0  # atno 17394 bound_to 11000
  141.2063  133.7836  157.0183 LP  0  0  0  0  0  0  0  0  0  0  0  0  # atno 17395 bound_to 11000

$$$$
