AV-unprocessed.smi:2603|AV-procd|sdf|10188|dock7
  -GOLD-   2272014203D 1   1.00000     0.00000
 Structure written by MMmdl.
 35 36  0  0  0  0  0  0  0  0  1 V2000
  153.5657  141.9989  161.3129 C   0  0  0  0  0  0  0  0  0  0  0  0
  152.4889  142.7998  160.5773 C   0  0  0  0  0  0  0  0  0  0  0  0
  152.5447  142.4876  159.1963 O   0  0  0  0  0  0  0  0  0  0  0  0
  151.3870  142.9255  158.5089 C   0  0  1  0  0  0  0  0  0  0  0  0
  151.6212  144.1671  157.6971 C   0  0  0  0  0  0  0  0  0  0  0  0
  151.5004  142.8202  157.0056 C   0  0  2  0  0  0  0  0  0  0  0  0
  150.3038  142.5474  156.2807 N   0  0  0  0  0  0  0  0  0  0  0  0
  150.0918  141.4786  155.4992 C   0  0  0  0  0  0  0  0  0  0  0  0
  150.9296  140.5987  155.3020 O   0  0  0  0  0  0  0  0  0  0  0  0
  148.7130  141.3801  154.8472 C   0  0  0  0  0  0  0  0  0  0  0  0
  147.6462  141.4248  155.9112 C   0  0  0  0  0  0  0  0  0  0  0  0
  147.5901  140.7048  157.1403 C   0  0  0  0  0  0  0  0  0  0  0  0
  148.5704  139.7115  157.6956 C   0  0  0  0  0  0  0  0  0  0  0  0
  146.4970  140.9877  157.8284 N   0  0  0  0  0  0  0  0  0  0  0  0
  145.7908  141.9193  157.0613 O   0  0  0  0  0  0  0  0  0  0  0  0
  146.4933  142.1604  155.9255 C   0  0  0  0  0  0  0  0  0  0  0  0
  145.8990  143.1297  154.9603 C   0  0  0  0  0  0  0  0  0  0  0  0
  153.5479  142.2122  162.3818 H   0  0  0  0  0  0  0  0  0  0  0  0
  154.5597  142.2448  160.9391 H   0  0  0  0  0  0  0  0  0  0  0  0
  153.4134  140.9273  161.1826 H   0  0  0  0  0  0  0  0  0  0  0  0
  151.5040  142.5555  160.9784 H   0  0  0  0  0  0  0  0  0  0  0  0
  152.6504  143.8682  160.7275 H   0  0  0  0  0  0  0  0  0  0  0  0
  150.4350  142.7814  159.0177 H   0  0  0  0  0  0  0  0  0  0  0  0
  150.7919  144.8647  157.5980 H   0  0  0  0  0  0  0  0  0  0  0  0
  152.6086  144.6221  157.7413 H   0  0  0  0  0  0  0  0  0  0  0  0
  152.4274  142.4009  156.6160 H   0  0  0  0  0  0  0  0  0  0  0  0
  149.5517  143.2130  156.3815 H   0  0  0  0  0  0  0  0  0  0  0  0
  148.5955  142.1886  154.1252 H   0  0  0  0  0  0  0  0  0  0  0  0
  148.6593  140.4550  154.2719 H   0  0  0  0  0  0  0  0  0  0  0  0
  148.2678  138.6918  157.4566 H   0  0  0  0  0  0  0  0  0  0  0  0
  148.6467  139.7916  158.7804 H   0  0  0  0  0  0  0  0  0  0  0  0
  149.5683  139.8654  157.2857 H   0  0  0  0  0  0  0  0  0  0  0  0
  145.8959  142.7159  153.9518 H   0  0  0  0  0  0  0  0  0  0  0  0
  146.4722  144.0566  154.9437 H   0  0  0  0  0  0  0  0  0  0  0  0
  144.8705  143.3723  155.2282 H   0  0  0  0  0  0  0  0  0  0  0  0
  1  2  1  0  0  0  0
  1 18  1  0  0  0  0
  1 19  1  0  0  0  0
  1 20  1  0  0  0  0
  2  3  1  0  0  0  0
  2 21  1  0  0  0  0
  2 22  1  0  0  0  0
  3  4  1  0  0  0  0
  4  6  1  0  0  0  0
  4  5  1  0  0  0  0
  4 23  1  0  0  0  0
  5  6  1  0  0  0  0
  5 24  1  0  0  0  0
  5 25  1  0  0  0  0
  6  7  1  0  0  0  0
  6 26  1  0  0  0  0
  7  8  1  0  0  0  0
  7 27  1  0  0  0  0
  8  9  2  0  0  0  0
  8 10  1  0  0  0  0
 10 11  1  0  0  0  0
 10 28  1  0  0  0  0
 10 29  1  0  0  0  0
 11 16  2  0  0  0  0
 11 12  1  0  0  0  0
 12 13  1  0  0  0  0
 12 14  2  0  0  0  0
 13 30  1  0  0  0  0
 13 31  1  0  0  0  0
 13 32  1  0  0  0  0
 14 15  1  0  0  0  0
 15 16  1  0  0  0  0
 16 17  1  0  0  0  0
 17 33  1  0  0  0  0
 17 34  1  0  0  0  0
 17 35  1  0  0  0  0
M  END
> <s_m_source_file>
AV-unprocessed.smi

> <i_m_source_file_index>
2603

> <i_lp_mmshare_version>
43012

> <i_f3d_flags>
0

> <s_epik_input>
W0NIM11bQ0gyXU9bQ0BASF0xW0NIMl1bQ0BIXTFbTkhdQyg9TylbQ0gyXWMyYyhbQ0gzXSlub2MyW0NIM10=

> <s_epik_cmdline>
J2VwaWtfcHl0aG9uJywgJy1waCcsICc3LjAnLCAnLXRuJywgJzgnLCAnLW1hJywgJzIwMCcsICctbWV0YWxfYmluZGluZycsICctaW1hZScsICc8aW5maWxlLm1hZT4nLCAnLW9tYWUnLCAnPG91dGZpbGUubWFlPic=

> <r_lp_tautomer_probability>
1

> <r_epik_Ionization_Penalty>
2.37325e-08

> <r_epik_Ionization_Penalty_Charging>
0

> <r_epik_Ionization_Penalty_Neutral>
2.37325e-08

> <r_epik_State_Penalty>
-0

> <r_epik_Charging_Adjusted_Penalty>
0

> <i_epik_Tot_Q>
0

> <i_epik_Tot_abs_Q>
0

> <r_epik_Metal_State_Penalty>
-0

> <b_epik_Metal_Only>
0

> <s_lp_Force_Field>
OPLS_2005

> <r_lp_Energy>
9.74593

> <b_lp_Chiralities_Consistent>
1

> <s_lp_Variant>
AV-unprocessed.smi:2603-4

> <Gold.Version>
5.8.1

> <Gold.Id.Protein>
6NUR|6NUR_protein|mol2

> <Gold.PLP.Fitness>
35.6913

> <Gold.PLP.PLP>
-30.8730

> <Gold.PLP.part.hbond>
-2.0000

> <Gold.PLP.part.metal>
0.0000

> <Gold.PLP.part.buried>
-5.9967

> <Gold.PLP.part.nonpolar>
-23.1942

> <Gold.PLP.part.repulsive>
0.2036

> <Gold.PLP.ligand.clash>
0.0000

> <Gold.PLP.ligand.torsion>
0.5886

> <Gold.PLP.Chemscore.Hbond>
1.7760

> <Gold.PLP.Chemscore.CHOScore>
0.0000

> <Gold.PLP.Chemscore.Metal>
0.0000

> <Gold.Chemscore.Hbonds>
donor molecule, donor type, donor heavy atom, donor atom, acceptor molecule, acceptor atom, score
      L1  H     7    27       P1  8028  0.85
      P1  H  7989  7998       L1     9  0.93

> <Gold.PLP.Chemscore.Internal.Correction>
0.6676

> <Gold.Rescore>
     Score         DG    S(hbond)    S(metal)    S(lipo)     H(rot)  DE(clash)    DE(int)     intcor
     13.89     -14.64       1.41        0.00      75.08       1.69       0.24       0.51       ----

> <Gold.Chemscore.Fitness>
13.8851

> <Gold.Chemscore.DG>
-14.6447

> <Gold.Chemscore.ZeroCoef>
-5.4800

> <Gold.Chemscore.Hbond>
1.4115

> <Gold.Chemscore.Metal>
0.0000

> <Gold.Chemscore.Lipo>
75.0849

> <Gold.Chemscore.Internal_Hbond>
0.0000

> <Gold.Chemscore.DEClash>
0.2447

> <Gold.Chemscore.DEInternal>
0.5149

> <Gold.Chemscore.Rot>
1.6933

> <Gold.Chemscore.Internal.Correction>
   9.000000E+99

> <Gold.Chemscore.Hbonds>
donor molecule, donor type, donor heavy atom, donor atom, acceptor molecule, acceptor atom, score
      L1  H     7    27       P1  8028  0.83
      P1  H  7989  7998       L1     9  0.53

> <Gold.Chemscore.Hbond.Weighted>
-4.7146

> <Gold.Chemscore.Metal.Weighted>
-0.0000

> <Gold.Chemscore.Lipo.Weighted>
-8.7849

> <Gold.Chemscore.Internal_Hbond.Weighted>
0.0000

> <Gold.Chemscore.DEClash.Weighted>
0.2447

> <Gold.Chemscore.DEInternal.Weighted>
0.5149

> <Gold.Chemscore.Rot.Weighted>
4.3348

> <Gold.Chemscore.Internal.Correction.Weighted>
   9.000000E+99

> <Gold.Protein.RotatedTorsions>
[ 6907 6896 6895 6894 ] final   41.61 input  -60.11 | X-H torsion
[ 7974 7965 7964 7962 ] final  -18.19 input  175.53 | X-H torsion
[ 8008 7997 7996 7995 ] final  -83.81 input   59.86 | X-H torsion
[ 10167 10162 10161 10158 ] final  -48.52 input  -65.29 | X-H torsion
[ 10718 10713 10712 10709 ] final  -33.47 input   66.30 | X-H torsion
[ 10763 10752 10751 10750 ] final  142.03 input  -60.55 | X-H torsion
[ 11005 11000 10999 10996 ] final  -52.54 input  -57.11 | X-H torsion

> <Gold.Protein.ActiveResidues>
 VAL166  LYS551  ARG553  GLY616  TRP617  ASP618  TYR619  PRO620  LYS621  CYS622 
 ASP623  PHE694  ASN695  SER759  ASP760  ASP761  ALA762  ILE779  LEU786  VAL792 
 PHE793  MET794  SER795  GLU796  ALA797  LYS798  CYS799  TRP800  GLU811  SER814 

> <Gold.Protein.RotatedAtoms>
  152.1975  134.8617  160.0511 H   0  0  0  0  0  0  0  0  0  0  0  0  # atno 6907 bound_to 6896
  151.9483  133.3653  159.3999 H   0  0  0  0  0  0  0  0  0  0  0  0  # atno 6908 bound_to 6896
  150.6948  134.4291  159.5284 H   0  0  0  0  0  0  0  0  0  0  0  0  # atno 6909 bound_to 6896
  146.1905  140.3885  142.8460 H   0  0  0  0  0  0  0  0  0  0  0  0  # atno 7974 bound_to 7965
  154.6231  140.0613  156.9640 H   0  0  0  0  0  0  0  0  0  0  0  0  # atno 8008 bound_to 7997
  155.1785  140.3297  155.4361 H   0  0  0  0  0  0  0  0  0  0  0  0  # atno 8009 bound_to 7997
  156.2442  140.1901  156.6883 H   0  0  0  0  0  0  0  0  0  0  0  0  # atno 8010 bound_to 7997
  140.6727  143.2737  151.4082 H   0  0  0  0  0  0  0  0  0  0  0  0  # atno 10167 bound_to 10162
  156.3622  130.4325  149.7614 H   0  0  0  0  0  0  0  0  0  0  0  0  # atno 10718 bound_to 10713
  153.9490  135.2972  155.3439 H   0  0  0  0  0  0  0  0  0  0  0  0  # atno 10763 bound_to 10752
  154.7436  135.5013  153.9169 H   0  0  0  0  0  0  0  0  0  0  0  0  # atno 10764 bound_to 10752
  153.1003  135.6732  153.9793 H   0  0  0  0  0  0  0  0  0  0  0  0  # atno 10765 bound_to 10752
  141.0930  133.6629  156.4040 H   0  0  0  0  0  0  0  0  0  0  0  0  # atno 11005 bound_to 11000
  144.8477  140.6954  143.6188 LP  0  0  0  0  0  0  0  0  0  0  0  0  # atno 17320 bound_to 7965
  145.3808  139.1637  143.4281 LP  0  0  0  0  0  0  0  0  0  0  0  0  # atno 17321 bound_to 7965
  139.6003  144.1309  152.2191 LP  0  0  0  0  0  0  0  0  0  0  0  0  # atno 17342 bound_to 10162
  140.0691  144.5794  150.7205 LP  0  0  0  0  0  0  0  0  0  0  0  0  # atno 17343 bound_to 10162
  156.4773  130.8024  151.3040 LP  0  0  0  0  0  0  0  0  0  0  0  0  # atno 17370 bound_to 10713
  157.7475  131.0017  150.2972 LP  0  0  0  0  0  0  0  0  0  0  0  0  # atno 17371 bound_to 10713
  140.5207  134.6306  157.5317 LP  0  0  0  0  0  0  0  0  0  0  0  0  # atno 17394 bound_to 11000
  139.9760  134.7215  155.9950 LP  0  0  0  0  0  0  0  0  0  0  0  0  # atno 17395 bound_to 11000

$$$$
