AV-unprocessed.smi:1406|AV-procd|sdf|5715|dock6
  -GOLD-   22720 5343D 1   1.00000     0.00000
 Structure written by MMmdl.
 41 43  0  0  0  0  0  0  0  0  2 V2000
  149.2650  140.0213  156.8187 C   0  0  0  0  0  0  0  0  0  0  0  0
  149.8433  140.2920  155.4150 C   0  0  2  0  0  0  0  0  0  0  0  0
  148.7596  140.4339  154.3337 C   0  0  0  0  0  0  0  0  0  0  0  0
  148.6001  141.4964  153.7320 O   0  0  0  0  0  0  0  0  0  0  0  0
  147.9932  139.3515  154.1215 N   0  0  0  0  0  0  0  0  0  0  0  0
  146.8230  139.3012  153.2485 C   0  0  1  0  0  0  0  0  0  0  0  0
  147.1540  139.6368  151.7814 C   0  0  0  0  0  0  0  0  0  0  0  0
  146.3472  138.6256  150.9600 C   0  0  0  0  0  0  0  0  0  0  0  0
  146.3391  137.4362  151.8193 N   0  3  2  0  0  0  0  0  0  0  0  0
  145.4421  136.3165  151.4681 C   0  0  0  0  0  0  0  0  0  0  0  0
  145.7543  135.1294  152.4043 C   0  0  0  0  0  0  0  0  0  0  0  0
  145.7166  135.5341  153.8954 C   0  0  0  0  0  0  0  0  0  0  0  0
  146.5724  136.7888  154.1712 C   0  0  0  0  0  0  0  0  0  0  0  0
  146.1488  137.9083  153.2016 C   0  0  1  0  0  0  0  0  0  0  0  0
  150.8098  139.2736  155.0198 N   0  0  0  0  0  0  0  0  0  0  0  0
  150.6775  137.9473  154.9454 C   0  0  0  0  0  0  0  0  0  0  0  0
  151.7912  137.3130  154.6073 N   0  0  0  0  0  0  0  0  0  0  0  0
  152.6327  138.3816  154.4791 C   0  0  0  0  0  0  0  0  0  0  0  0
  152.0993  139.5773  154.7274 N   0  0  0  0  0  0  0  0  0  0  0  0
  148.5903  140.8205  157.1274 H   0  0  0  0  0  0  0  0  0  0  0  0
  150.0613  139.9631  157.5613 H   0  0  0  0  0  0  0  0  0  0  0  0
  148.7084  139.0843  156.8585 H   0  0  0  0  0  0  0  0  0  0  0  0
  150.3767  141.2428  155.4603 H   0  0  0  0  0  0  0  0  0  0  0  0
  148.2021  138.5175  154.6508 H   0  0  0  0  0  0  0  0  0  0  0  0
  146.0867  140.0273  153.5994 H   0  0  0  0  0  0  0  0  0  0  0  0
  146.9148  140.6687  151.5219 H   0  0  0  0  0  0  0  0  0  0  0  0
  148.2177  139.4880  151.5884 H   0  0  0  0  0  0  0  0  0  0  0  0
  145.3261  138.9795  150.8098 H   0  0  0  0  0  0  0  0  0  0  0  0
  146.7920  138.4227  149.9855 H   0  0  0  0  0  0  0  0  0  0  0  0
  144.4000  136.6250  151.5630 H   0  0  0  0  0  0  0  0  0  0  0  0
  145.6020  136.0278  150.4288 H   0  0  0  0  0  0  0  0  0  0  0  0
  145.0541  134.3139  152.2204 H   0  0  0  0  0  0  0  0  0  0  0  0
  146.7456  134.7403  152.1683 H   0  0  0  0  0  0  0  0  0  0  0  0
  144.6843  135.7327  154.1865 H   0  0  0  0  0  0  0  0  0  0  0  0
  146.0564  134.7056  154.5176 H   0  0  0  0  0  0  0  0  0  0  0  0
  146.4369  137.1041  155.2060 H   0  0  0  0  0  0  0  0  0  0  0  0
  147.6306  136.5544  154.0458 H   0  0  0  0  0  0  0  0  0  0  0  0
  145.0800  138.0829  153.3431 H   0  0  0  0  0  0  0  0  0  0  0  0
  149.7502  137.4341  155.1538 H   0  0  0  0  0  0  0  0  0  0  0  0
  153.6717  138.2744  154.2045 H   0  0  0  0  0  0  0  0  0  0  0  0
  147.2796  137.0704  151.7783 H   0  0  0  0  0  0  0  0  0  0  0  0
  1  2  1  0  0  0  0
  1 20  1  0  0  0  0
  1 21  1  0  0  0  0
  1 22  1  0  0  0  0
  2  3  1  0  0  0  0
  2 15  1  0  0  0  0
  2 23  1  0  0  0  0
  3  4  2  0  0  0  0
  3  5  1  0  0  0  0
  5  6  1  0  0  0  0
  5 24  1  0  0  0  0
  6 14  1  0  0  0  0
  6  7  1  0  0  0  0
  6 25  1  0  0  0  0
  7  8  1  0  0  0  0
  7 26  1  0  0  0  0
  7 27  1  0  0  0  0
  8  9  1  0  0  0  0
  8 28  1  0  0  0  0
  8 29  1  0  0  0  0
  9 14  1  0  0  0  0
  9 10  1  0  0  0  0
  9 41  1  0  0  0  0
 10 11  1  0  0  0  0
 10 30  1  0  0  0  0
 10 31  1  0  0  0  0
 11 12  1  0  0  0  0
 11 32  1  0  0  0  0
 11 33  1  0  0  0  0
 12 13  1  0  0  0  0
 12 34  1  0  0  0  0
 12 35  1  0  0  0  0
 13 14  1  0  0  0  0
 13 36  1  0  0  0  0
 13 37  1  0  0  0  0
 14 38  1  0  0  0  0
 15 19  1  0  0  0  0
 15 16  1  0  0  0  0
 16 17  2  0  0  0  0
 16 39  1  0  0  0  0
 17 18  1  0  0  0  0
 18 19  2  0  0  0  0
 18 40  1  0  0  0  0
M  CHG  1   9   1
M  END
> <s_m_source_file>
AV-unprocessed.smi

> <i_m_source_file_index>
1406

> <i_lp_mmshare_version>
43012

> <i_f3d_flags>
0

> <s_epik_input>
bjFbY0hdbltjSF1uMVtDQEhdKFtDSDNdKUMoPU8pW05IXVtDQEhdKFtDSDJdW0NIMl0yKVtDQEBIXShOMjMpW0NIMl1bQ0gyXVtDSDJdW0NIMl0z

> <s_epik_cmdline>
J2VwaWtfcHl0aG9uJywgJy1waCcsICc3LjAnLCAnLXRuJywgJzgnLCAnLW1hJywgJzIwMCcsICctbWV0YWxfYmluZGluZycsICctaW1hZScsICc8aW5maWxlLm1hZT4nLCAnLW9tYWUnLCAnPG91dGZpbGUubWFlPic=

> <r_lp_tautomer_probability>
1

> <r_epik_Ionization_Penalty>
0.00197066

> <r_epik_Ionization_Penalty_Charging>
0.00196223

> <r_epik_Ionization_Penalty_Neutral>
8.43107e-06

> <r_epik_State_Penalty>
0.00133866

> <r_epik_Charging_Adjusted_Penalty>
0.00330089

> <i_epik_Tot_Q>
1

> <i_epik_Tot_abs_Q>
1

> <r_epik_Metal_State_Penalty>
-0

> <b_epik_Metal_Only>
0

> <s_lp_Force_Field>
OPLS_2005

> <r_lp_Energy>
45.8752

> <b_lp_Chiralities_Consistent>
1

> <s_lp_Variant>
AV-unprocessed.smi:1406-7

> <Gold.Version>
5.8.1

> <Gold.Id.Protein>
6NUR|6NUR_protein|mol2

> <Gold.PLP.Fitness>
41.8059

> <Gold.PLP.PLP>
-28.9371

> <Gold.PLP.part.hbond>
-4.0000

> <Gold.PLP.part.metal>
0.0000

> <Gold.PLP.part.buried>
2.8111

> <Gold.PLP.part.nonpolar>
-28.8173

> <Gold.PLP.part.repulsive>
0.6161

> <Gold.PLP.ligand.clash>
0.0000

> <Gold.PLP.ligand.torsion>
0.1037

> <Gold.PLP.Chemscore.Hbond>
4.3258

> <Gold.PLP.Chemscore.CHOScore>
0.0000

> <Gold.PLP.Chemscore.Metal>
0.0000

> <Gold.Chemscore.Hbonds>
donor molecule, donor type, donor heavy atom, donor atom, acceptor molecule, acceptor atom, score
      L1  H     9    41       P1  7948  2.00
      P1  H  7989  7998       L1    19  0.64
      P1  H  8011  8017       L1     4  0.66
      P1  H 10752 10763       L1    17  0.99

> <Gold.PLP.Chemscore.Internal.Correction>
0.0987

> <Gold.Rescore>
     Score         DG    S(hbond)    S(metal)    S(lipo)     H(rot)  DE(clash)    DE(int)     intcor
     12.09     -15.51       2.49        0.00      55.94       1.89       3.31       0.11       ----

> <Gold.Chemscore.Fitness>
12.0923

> <Gold.Chemscore.DG>
-15.5123

> <Gold.Chemscore.ZeroCoef>
-5.4800

> <Gold.Chemscore.Hbond>
2.4900

> <Gold.Chemscore.Metal>
0.0000

> <Gold.Chemscore.Lipo>
55.9436

> <Gold.Chemscore.Internal_Hbond>
0.0000

> <Gold.Chemscore.DEClash>
3.3056

> <Gold.Chemscore.DEInternal>
0.1144

> <Gold.Chemscore.Rot>
1.8865

> <Gold.Chemscore.Internal.Correction>
   9.000000E+99

> <Gold.Chemscore.Hbonds>
donor molecule, donor type, donor heavy atom, donor atom, acceptor molecule, acceptor atom, score
      L1  H     9    41       P1  7948  1.00
      P1  H  7989  7998       L1    19  0.08
      P1  H  8011  8017       L1     4  0.63
      P1  H 10752 10763       L1    17  0.49

> <Gold.Chemscore.Hbond.Weighted>
-8.3165

> <Gold.Chemscore.Metal.Weighted>
-0.0000

> <Gold.Chemscore.Lipo.Weighted>
-6.5454

> <Gold.Chemscore.Internal_Hbond.Weighted>
0.0000

> <Gold.Chemscore.DEClash.Weighted>
3.3056

> <Gold.Chemscore.DEInternal.Weighted>
0.1144

> <Gold.Chemscore.Rot.Weighted>
4.8295

> <Gold.Chemscore.Internal.Correction.Weighted>
   9.000000E+99

> <Gold.Protein.RotatedTorsions>
[ 6907 6896 6895 6894 ] final   21.45 input  -60.11 | X-H torsion
[ 7974 7965 7964 7962 ] final -112.27 input  175.53 | X-H torsion
[ 8008 7997 7996 7995 ] final  -27.85 input   59.86 | X-H torsion
[ 10167 10162 10161 10158 ] final  164.80 input  -65.29 | X-H torsion
[ 10718 10713 10712 10709 ] final  146.94 input   66.30 | X-H torsion
[ 10763 10752 10751 10750 ] final   47.63 input  -60.55 | X-H torsion
[ 11005 11000 10999 10996 ] final   26.34 input  -57.11 | X-H torsion

> <Gold.Protein.ActiveResidues>
 VAL166  LYS551  ARG553  GLY616  TRP617  ASP618  TYR619  PRO620  LYS621  CYS622 
 ASP623  PHE694  ASN695  SER759  ASP760  ASP761  ALA762  ILE779  LEU786  VAL792 
 PHE793  MET794  SER795  GLU796  ALA797  LYS798  CYS799  TRP800  GLU811  SER814 

> <Gold.Protein.RotatedAtoms>
  151.9120  135.0335  160.0514 H   0  0  0  0  0  0  0  0  0  0  0  0  # atno 6907 bound_to 6896
  152.2271  133.5024  159.5203 H   0  0  0  0  0  0  0  0  0  0  0  0  # atno 6908 bound_to 6896
  150.7015  134.1182  159.4068 H   0  0  0  0  0  0  0  0  0  0  0  0  # atno 6909 bound_to 6896
  145.1460  140.8803  143.3674 H   0  0  0  0  0  0  0  0  0  0  0  0  # atno 7974 bound_to 7965
  154.4358  140.1861  156.0997 H   0  0  0  0  0  0  0  0  0  0  0  0  # atno 8008 bound_to 7997
  156.0302  140.3331  155.7105 H   0  0  0  0  0  0  0  0  0  0  0  0  # atno 8009 bound_to 7997
  155.5851  140.0625  157.2764 H   0  0  0  0  0  0  0  0  0  0  0  0  # atno 8010 bound_to 7997
  139.4895  144.4198  151.9201 H   0  0  0  0  0  0  0  0  0  0  0  0  # atno 10167 bound_to 10162
  157.3270  131.0914  151.1194 H   0  0  0  0  0  0  0  0  0  0  0  0  # atno 10718 bound_to 10713
  152.9798  135.5970  154.3794 H   0  0  0  0  0  0  0  0  0  0  0  0  # atno 10763 bound_to 10752
  154.3460  135.2767  155.2399 H   0  0  0  0  0  0  0  0  0  0  0  0  # atno 10764 bound_to 10752
  154.4460  135.6001  153.6215 H   0  0  0  0  0  0  0  0  0  0  0  0  # atno 10765 bound_to 10752
  140.3380  134.2364  155.7693 H   0  0  0  0  0  0  0  0  0  0  0  0  # atno 11005 bound_to 11000
  145.0481  139.3204  143.5942 LP  0  0  0  0  0  0  0  0  0  0  0  0  # atno 17320 bound_to 7965
  146.3500  139.9879  142.8688 LP  0  0  0  0  0  0  0  0  0  0  0  0  # atno 17321 bound_to 7965
  140.3641  144.2936  150.5929 LP  0  0  0  0  0  0  0  0  0  0  0  0  # atno 17342 bound_to 10162
  140.5377  143.2230  151.8136 LP  0  0  0  0  0  0  0  0  0  0  0  0  # atno 17343 bound_to 10162
  157.2457  130.6590  149.5909 LP  0  0  0  0  0  0  0  0  0  0  0  0  # atno 17370 bound_to 10713
  155.9691  130.4554  150.5887 LP  0  0  0  0  0  0  0  0  0  0  0  0  # atno 17371 bound_to 10713
  141.2046  133.7882  157.0278 LP  0  0  0  0  0  0  0  0  0  0  0  0  # atno 17394 bound_to 11000
  140.0804  134.9651  157.1615 LP  0  0  0  0  0  0  0  0  0  0  0  0  # atno 17395 bound_to 11000

$$$$
