AV-unprocessed.smi:504|AV-procd|sdf|2747|dock10
  -GOLD-   2262023213D 1   1.00000     0.00000
 Structure written by MMmdl.
 35 36  0  0  0  0  0  0  0  0  1 V2000
  153.2852  138.8681  156.6418 N   0  0  0  0  0  0  0  0  0  0  0  0
  152.6944  139.0734  157.6155 C   0  0  0  0  0  0  0  0  0  0  0  0
  151.9408  139.3345  158.8589 C   0  0  0  0  0  0  0  0  0  0  0  0
  150.5830  138.7919  158.7710 N   0  0  0  0  0  0  0  0  0  0  0  0
  150.2074  137.5182  158.9724 C   0  0  0  0  0  0  0  0  0  0  0  0
  150.9902  136.6234  159.2934 O   0  0  0  0  0  0  0  0  0  0  0  0
  148.7096  137.2268  158.7984 C   0  0  0  0  0  0  0  0  0  0  0  0
  148.1447  136.4012  159.8763 N   0  0  0  0  0  0  0  0  0  0  0  0
  147.3951  137.1114  160.7975 N   0  0  0  0  0  0  0  0  0  0  0  0
  146.8619  136.4922  161.7938 C   0  0  0  0  0  0  0  0  0  0  0  0
  147.0152  135.0671  161.9868 C   0  0  0  0  0  0  0  0  0  0  0  0
  146.2764  134.2917  163.3434 Cl  0  0  0  0  0  0  0  0  0  0  0  0
  147.7475  134.3791  161.0751 C   0  0  0  0  0  0  0  0  0  0  0  0
  147.9745  132.6715  161.2381 Cl  0  0  0  0  0  0  0  0  0  0  0  0
  148.3689  135.0517  159.9257 C   0  0  0  0  0  0  0  0  0  0  0  0
  149.0365  134.4630  159.0741 O   0  0  0  0  0  0  0  0  0  0  0  0
  152.6769  138.7269  160.0801 C   0  0  0  0  0  0  0  0  0  0  0  0
  154.0416  139.3925  160.3286 C   0  0  0  0  0  0  0  0  0  0  0  0
  153.8936  140.9101  160.5066 C   0  0  0  0  0  0  0  0  0  0  0  0
  153.1672  141.5414  159.3104 C   0  0  0  0  0  0  0  0  0  0  0  0
  151.8093  140.8608  159.0664 C   0  0  0  0  0  0  0  0  0  0  0  0
  149.8606  139.4495  158.5165 H   0  0  0  0  0  0  0  0  0  0  0  0
  148.1856  138.1826  158.7393 H   0  0  0  0  0  0  0  0  0  0  0  0
  148.5417  136.7416  157.8348 H   0  0  0  0  0  0  0  0  0  0  0  0
  146.2655  137.0101  162.5451 H   0  0  0  0  0  0  0  0  0  0  0  0
  152.0606  138.8358  160.9737 H   0  0  0  0  0  0  0  0  0  0  0  0
  152.8261  137.6555  159.9431 H   0  0  0  0  0  0  0  0  0  0  0  0
  154.5096  138.9597  161.2131 H   0  0  0  0  0  0  0  0  0  0  0  0
  154.7127  139.1846  159.4944 H   0  0  0  0  0  0  0  0  0  0  0  0
  153.3374  141.1173  161.4219 H   0  0  0  0  0  0  0  0  0  0  0  0
  154.8751  141.3682  160.6314 H   0  0  0  0  0  0  0  0  0  0  0  0
  153.0211  142.6074  159.4874 H   0  0  0  0  0  0  0  0  0  0  0  0
  153.7892  141.4612  158.4180 H   0  0  0  0  0  0  0  0  0  0  0  0
  151.3276  141.3150  158.1992 H   0  0  0  0  0  0  0  0  0  0  0  0
  151.1561  141.0636  159.9169 H   0  0  0  0  0  0  0  0  0  0  0  0
  1  2  3  0  0  0  0
  2  3  1  0  0  0  0
  3 21  1  0  0  0  0
  3  4  1  0  0  0  0
  3 17  1  0  0  0  0
  4  5  1  0  0  0  0
  4 22  1  0  0  0  0
  5  6  2  0  0  0  0
  5  7  1  0  0  0  0
  7  8  1  0  0  0  0
  7 23  1  0  0  0  0
  7 24  1  0  0  0  0
  8 15  1  0  0  0  0
  8  9  1  0  0  0  0
  9 10  2  0  0  0  0
 10 11  1  0  0  0  0
 10 25  1  0  0  0  0
 11 12  1  0  0  0  0
 11 13  2  0  0  0  0
 13 14  1  0  0  0  0
 13 15  1  0  0  0  0
 15 16  2  0  0  0  0
 17 18  1  0  0  0  0
 17 26  1  0  0  0  0
 17 27  1  0  0  0  0
 18 19  1  0  0  0  0
 18 28  1  0  0  0  0
 18 29  1  0  0  0  0
 19 20  1  0  0  0  0
 19 30  1  0  0  0  0
 19 31  1  0  0  0  0
 20 21  1  0  0  0  0
 20 32  1  0  0  0  0
 20 33  1  0  0  0  0
 21 34  1  0  0  0  0
 21 35  1  0  0  0  0
M  END
> <s_m_source_file>
AV-unprocessed.smi

> <i_m_source_file_index>
504

> <i_lp_mmshare_version>
43012

> <i_f3d_flags>
0

> <s_epik_input>
W0NIMl0xW0NIMl1bQ0gyXVtDSDJdW0NIMl1DMShDI04pW05IXUMoPU8pW0NIMl1uMm5bY0hdYyhDbCljKENsKWMyPU8=

> <s_epik_cmdline>
J2VwaWtfcHl0aG9uJywgJy1waCcsICc3LjAnLCAnLXRuJywgJzgnLCAnLW1hJywgJzIwMCcsICctbWV0YWxfYmluZGluZycsICctaW1hZScsICc8aW5maWxlLm1hZT4nLCAnLW9tYWUnLCAnPG91dGZpbGUubWFlPic=

> <r_lp_tautomer_probability>
1

> <r_epik_Ionization_Penalty>
4.52612e-07

> <r_epik_Ionization_Penalty_Charging>
2.33921e-11

> <r_epik_Ionization_Penalty_Neutral>
4.52589e-07

> <r_epik_State_Penalty>
-0

> <r_epik_Charging_Adjusted_Penalty>
2.33921e-11

> <i_epik_Tot_Q>
0

> <i_epik_Tot_abs_Q>
0

> <r_epik_Metal_State_Penalty>
-0

> <b_epik_Metal_Only>
0

> <s_lp_Force_Field>
OPLS_2005

> <r_lp_Energy>
21.394

> <b_lp_Chiralities_Consistent>
1

> <s_lp_Variant>
AV-unprocessed.smi:504-1

> <Gold.Version>
5.8.1

> <Gold.Id.Protein>
6NUR|6NUR_protein|mol2

> <Gold.PLP.Fitness>
42.6328

> <Gold.PLP.PLP>
-33.2954

> <Gold.PLP.part.hbond>
-4.9454

> <Gold.PLP.part.metal>
0.0000

> <Gold.PLP.part.buried>
-1.0122

> <Gold.PLP.part.nonpolar>
-28.1442

> <Gold.PLP.part.repulsive>
0.1865

> <Gold.PLP.ligand.clash>
0.0000

> <Gold.PLP.ligand.torsion>
0.8260

> <Gold.PLP.Chemscore.Hbond>
3.6613

> <Gold.PLP.Chemscore.CHOScore>
0.0000

> <Gold.PLP.Chemscore.Metal>
0.0000

> <Gold.Chemscore.Hbonds>
donor molecule, donor type, donor heavy atom, donor atom, acceptor molecule, acceptor atom, score
      P1  H  6896  6907       L1    16  1.00
      P1  H  6896  6908       L1     6  0.15
      P1  H  6931  6943       L1     9  0.31
      P1  H  6934  6947       L1     9  1.00
      P1  H  7997  8008       L1     1  0.98

> <Gold.PLP.Chemscore.Internal.Correction>
0.0055

> <Gold.Rescore>
     Score         DG    S(hbond)    S(metal)    S(lipo)     H(rot)  DE(clash)    DE(int)     intcor
     16.19     -19.88       2.64        0.00      82.72       1.60       0.15       3.54       ----

> <Gold.Chemscore.Fitness>
16.1871

> <Gold.Chemscore.DG>
-19.8767

> <Gold.Chemscore.ZeroCoef>
-5.4800

> <Gold.Chemscore.Hbond>
2.6397

> <Gold.Chemscore.Metal>
0.0000

> <Gold.Chemscore.Lipo>
82.7179

> <Gold.Chemscore.Internal_Hbond>
0.0000

> <Gold.Chemscore.DEClash>
0.1489

> <Gold.Chemscore.DEInternal>
3.5407

> <Gold.Chemscore.Rot>
1.6007

> <Gold.Chemscore.Internal.Correction>
   9.000000E+99

> <Gold.Chemscore.Hbonds>
donor molecule, donor type, donor heavy atom, donor atom, acceptor molecule, acceptor atom, score
      P1  H  6896  6907       L1    16  0.88
      P1  H  6896  6908       L1     6  0.15
      P1  H  6931  6943       L1     9  0.02
      P1  H  6934  6947       L1     9  0.80
      P1  H  7997  8008       L1     1  0.73

> <Gold.Chemscore.Hbond.Weighted>
-8.8165

> <Gold.Chemscore.Metal.Weighted>
-0.0000

> <Gold.Chemscore.Lipo.Weighted>
-9.6780

> <Gold.Chemscore.Internal_Hbond.Weighted>
0.0000

> <Gold.Chemscore.DEClash.Weighted>
0.1489

> <Gold.Chemscore.DEInternal.Weighted>
3.5407

> <Gold.Chemscore.Rot.Weighted>
4.0978

> <Gold.Chemscore.Internal.Correction.Weighted>
   9.000000E+99

> <Gold.Protein.RotatedTorsions>
[ 6907 6896 6895 6894 ] final  -85.78 input  -60.11 | X-H torsion
[ 7974 7965 7964 7962 ] final   -1.61 input  175.53 | X-H torsion
[ 8008 7997 7996 7995 ] final  -41.63 input   59.86 | X-H torsion
[ 10167 10162 10161 10158 ] final -133.61 input  -65.29 | X-H torsion
[ 10718 10713 10712 10709 ] final -120.85 input   66.30 | X-H torsion
[ 10763 10752 10751 10750 ] final  -34.62 input  -60.55 | X-H torsion
[ 11005 11000 10999 10996 ] final   28.82 input  -57.11 | X-H torsion

> <Gold.Protein.ActiveResidues>
 VAL166  LYS551  ARG553  GLY616  TRP617  ASP618  TYR619  PRO620  LYS621  CYS622 
 ASP623  PHE694  ASN695  SER759  ASP760  ASP761  ALA762  ILE779  LEU786  VAL792 
 PHE793  MET794  SER795  GLU796  ALA797  LYS798  CYS799  TRP800  GLU811  SER814 

> <Gold.Protein.RotatedAtoms>
  150.6869  134.3152  159.4762 H   0  0  0  0  0  0  0  0  0  0  0  0  # atno 6907 bound_to 6896
  152.1034  134.9323  160.0578 H   0  0  0  0  0  0  0  0  0  0  0  0  # atno 6908 bound_to 6896
  152.0594  133.4020  159.4448 H   0  0  0  0  0  0  0  0  0  0  0  0  # atno 6909 bound_to 6896
  146.2415  140.1447  142.8335 H   0  0  0  0  0  0  0  0  0  0  0  0  # atno 7974 bound_to 7965
  154.4003  140.1494  156.3223 H   0  0  0  0  0  0  0  0  0  0  0  0  # atno 8008 bound_to 7997
  155.8518  140.3457  155.5677 H   0  0  0  0  0  0  0  0  0  0  0  0  # atno 8009 bound_to 7997
  155.7975  140.0865  157.1965 H   0  0  0  0  0  0  0  0  0  0  0  0  # atno 8010 bound_to 7997
  139.8965  143.6659  152.2603 H   0  0  0  0  0  0  0  0  0  0  0  0  # atno 10167 bound_to 10162
  156.1291  130.6381  150.9591 H   0  0  0  0  0  0  0  0  0  0  0  0  # atno 10718 bound_to 10713
  153.8496  135.6850  153.4794 H   0  0  0  0  0  0  0  0  0  0  0  0  # atno 10763 bound_to 10752
  153.1405  135.4659  154.9486 H   0  0  0  0  0  0  0  0  0  0  0  0  # atno 10764 bound_to 10752
  154.7808  135.3268  154.7941 H   0  0  0  0  0  0  0  0  0  0  0  0  # atno 10765 bound_to 10752
  140.3115  134.2644  155.7733 H   0  0  0  0  0  0  0  0  0  0  0  0  # atno 11005 bound_to 11000
  145.0217  140.8799  143.5162 LP  0  0  0  0  0  0  0  0  0  0  0  0  # atno 17320 bound_to 7965
  145.1496  139.2522  143.5447 LP  0  0  0  0  0  0  0  0  0  0  0  0  # atno 17321 bound_to 7965
  139.7063  144.7627  151.1187 LP  0  0  0  0  0  0  0  0  0  0  0  0  # atno 17342 bound_to 10162
  140.7716  143.5390  150.9335 LP  0  0  0  0  0  0  0  0  0  0  0  0  # atno 17343 bound_to 10162
  157.6470  131.0902  150.8132 LP  0  0  0  0  0  0  0  0  0  0  0  0  # atno 17370 bound_to 10713
  156.8219  130.4987  149.5342 LP  0  0  0  0  0  0  0  0  0  0  0  0  # atno 17371 bound_to 10713
  141.2107  133.7712  156.9915 LP  0  0  0  0  0  0  0  0  0  0  0  0  # atno 17394 bound_to 11000
  140.1020  134.9529  157.1938 LP  0  0  0  0  0  0  0  0  0  0  0  0  # atno 17395 bound_to 11000

$$$$
