AV-unprocessed.smi:1976|AV-procd|sdf|7986|dock9
  -GOLD-   2272010163D 1   1.00000     0.00000
 Structure written by MMmdl.
 45 47  0  0  0  0  0  0  0  0  2 V2000
  146.2917  137.7324  154.5909 O   0  0  0  0  0  0  0  0  0  0  0  0
  145.8956  138.0396  153.4656 C   0  0  0  0  0  0  0  0  0  0  0  0
  146.4956  139.2350  152.7110 C   0  0  0  0  0  0  0  0  0  0  0  0
  147.5992  139.8902  153.4331 N   0  0  0  0  0  0  0  0  0  0  0  0
  148.6957  139.0830  153.7950 C   0  0  0  0  0  0  0  0  0  0  0  0
  149.7696  139.5582  154.4544 C   0  0  0  0  0  0  0  0  0  0  0  0
  150.9095  138.6491  154.8865 C   0  0  0  0  0  0  0  0  0  0  0  0
  151.4888  138.1093  153.8150 F   0  0  0  0  0  0  0  0  0  0  0  0
  151.8362  139.3291  155.5618 F   0  0  0  0  0  0  0  0  0  0  0  0
  150.4680  137.6584  155.6627 F   0  0  0  0  0  0  0  0  0  0  0  0
  149.7364  140.9623  154.8142 C   0  0  0  0  0  0  0  0  0  0  0  0
  148.6896  141.7453  154.4871 C   0  0  0  0  0  0  0  0  0  0  0  0
  147.5375  141.2177  153.7529 C   0  0  0  0  0  0  0  0  0  0  0  0
  146.5752  141.9226  153.4475 O   0  0  0  0  0  0  0  0  0  0  0  0
  144.9426  137.3540  152.8166 N   0  0  0  0  0  0  0  0  0  0  0  0
  144.2415  136.1927  153.3574 C   0  0  1  0  0  0  0  0  0  0  0  0
  142.7250  136.3085  153.2775 C   0  0  0  0  0  0  0  0  0  0  0  0
  142.2605  134.8582  153.4469 C   0  0  0  0  0  0  0  0  0  0  0  0
  143.3630  133.9934  152.9587 N   0  3  1  0  0  0  0  0  0  0  0  0
  142.9568  133.0406  151.8909 C   0  0  0  0  0  0  0  0  0  0  0  0
  144.1850  132.4699  151.1665 C   0  0  0  0  0  0  0  0  0  0  0  0
  144.9976  133.5791  150.4713 C   0  0  0  0  0  0  0  0  0  0  0  0
  144.7669  134.9645  151.1050 C   0  0  0  0  0  0  0  0  0  0  0  0
  144.5286  134.8635  152.6318 C   0  0  1  0  0  0  0  0  0  0  0  0
  146.8349  138.8868  151.7343 H   0  0  0  0  0  0  0  0  0  0  0  0
  145.7044  139.9559  152.4961 H   0  0  0  0  0  0  0  0  0  0  0  0
  148.6021  138.0449  153.5108 H   0  0  0  0  0  0  0  0  0  0  0  0
  150.5660  141.3950  155.3535 H   0  0  0  0  0  0  0  0  0  0  0  0
  148.6986  142.7871  154.7722 H   0  0  0  0  0  0  0  0  0  0  0  0
  144.6760  137.6654  151.8936 H   0  0  0  0  0  0  0  0  0  0  0  0
  144.5094  136.0820  154.4105 H   0  0  0  0  0  0  0  0  0  0  0  0
  142.3083  136.9752  154.0332 H   0  0  0  0  0  0  0  0  0  0  0  0
  142.4249  136.6811  152.2969 H   0  0  0  0  0  0  0  0  0  0  0  0
  142.1067  134.6369  154.5037 H   0  0  0  0  0  0  0  0  0  0  0  0
  141.3132  134.6782  152.9367 H   0  0  0  0  0  0  0  0  0  0  0  0
  142.3661  132.2392  152.3361 H   0  0  0  0  0  0  0  0  0  0  0  0
  142.3136  133.5404  151.1643 H   0  0  0  0  0  0  0  0  0  0  0  0
  144.8163  131.9561  151.8928 H   0  0  0  0  0  0  0  0  0  0  0  0
  143.8844  131.7160  150.4383 H   0  0  0  0  0  0  0  0  0  0  0  0
  146.0564  133.3209  150.5134 H   0  0  0  0  0  0  0  0  0  0  0  0
  144.7396  133.6271  149.4127 H   0  0  0  0  0  0  0  0  0  0  0  0
  145.6210  135.6027  150.8784 H   0  0  0  0  0  0  0  0  0  0  0  0
  143.9031  135.4377  150.6354 H   0  0  0  0  0  0  0  0  0  0  0  0
  145.4184  134.4106  153.0716 H   0  0  0  0  0  0  0  0  0  0  0  0
  143.6532  133.4339  153.7482 H   0  0  0  0  0  0  0  0  0  0  0  0
  1  2  2  0  0  0  0
  2  3  1  0  0  0  0
  2 15  1  0  0  0  0
  3  4  1  0  0  0  0
  3 25  1  0  0  0  0
  3 26  1  0  0  0  0
  4 13  1  0  0  0  0
  4  5  1  0  0  0  0
  5  6  2  0  0  0  0
  5 27  1  0  0  0  0
  6  7  1  0  0  0  0
  6 11  1  0  0  0  0
  7  8  1  0  0  0  0
  7  9  1  0  0  0  0
  7 10  1  0  0  0  0
 11 12  2  0  0  0  0
 11 28  1  0  0  0  0
 12 13  1  0  0  0  0
 12 29  1  0  0  0  0
 13 14  2  0  0  0  0
 15 16  1  0  0  0  0
 15 30  1  0  0  0  0
 16 24  1  0  0  0  0
 16 17  1  0  0  0  0
 16 31  1  0  0  0  0
 17 18  1  0  0  0  0
 17 32  1  0  0  0  0
 17 33  1  0  0  0  0
 18 19  1  0  0  0  0
 18 34  1  0  0  0  0
 18 35  1  0  0  0  0
 19 24  1  0  0  0  0
 19 20  1  0  0  0  0
 19 45  1  0  0  0  0
 20 21  1  0  0  0  0
 20 36  1  0  0  0  0
 20 37  1  0  0  0  0
 21 22  1  0  0  0  0
 21 38  1  0  0  0  0
 21 39  1  0  0  0  0
 22 23  1  0  0  0  0
 22 40  1  0  0  0  0
 22 41  1  0  0  0  0
 23 24  1  0  0  0  0
 23 42  1  0  0  0  0
 23 43  1  0  0  0  0
 24 44  1  0  0  0  0
M  CHG  1  19   1
M  END
> <s_m_source_file>
AV-unprocessed.smi

> <i_m_source_file_index>
1976

> <i_lp_mmshare_version>
43012

> <i_f3d_flags>
0

> <s_epik_input>
W0NIMl0xW0NIMl1bQ0gyXVtDSDJdW0NASF0oTjEyKVtDQEBIXShbQ0gyXVtDSDJdMilbTkhdQyg9TylbQ0gyXW4zW2NIXWMoQyhGKShGKUYpW2NIXVtjSF1jMz1P

> <s_epik_cmdline>
J2VwaWtfcHl0aG9uJywgJy1waCcsICc3LjAnLCAnLXRuJywgJzgnLCAnLW1hJywgJzIwMCcsICctbWV0YWxfYmluZGluZycsICctaW1hZScsICc8aW5maWxlLm1hZT4nLCAnLW9tYWUnLCAnPG91dGZpbGUubWFlPic=

> <r_lp_tautomer_probability>
1

> <r_epik_Ionization_Penalty>
0.00171506

> <r_epik_Ionization_Penalty_Charging>
0.00171498

> <r_epik_Ionization_Penalty_Neutral>
7.81737e-08

> <r_epik_State_Penalty>
0.00115937

> <r_epik_Charging_Adjusted_Penalty>
0.00287436

> <i_epik_Tot_Q>
1

> <i_epik_Tot_abs_Q>
1

> <r_epik_Metal_State_Penalty>
-0

> <b_epik_Metal_Only>
0

> <s_lp_Force_Field>
OPLS_2005

> <r_lp_Energy>
52.608

> <b_lp_Chiralities_Consistent>
1

> <s_lp_Variant>
AV-unprocessed.smi:1976-4

> <Gold.Version>
5.8.1

> <Gold.Id.Protein>
6NUR|6NUR_protein|mol2

> <Gold.PLP.Fitness>
46.5197

> <Gold.PLP.PLP>
-39.6011

> <Gold.PLP.part.hbond>
-1.5536

> <Gold.PLP.part.metal>
0.0000

> <Gold.PLP.part.buried>
2.7325

> <Gold.PLP.part.nonpolar>
-40.6516

> <Gold.PLP.part.repulsive>
0.2990

> <Gold.PLP.ligand.clash>
0.0000

> <Gold.PLP.ligand.torsion>
0.0907

> <Gold.PLP.Chemscore.Hbond>
1.3533

> <Gold.PLP.Chemscore.CHOScore>
1.0000

> <Gold.PLP.Chemscore.Metal>
0.0000

> <Gold.Chemscore.Hbonds>
donor molecule, donor type, donor heavy atom, donor atom, acceptor molecule, acceptor atom, score
      L1  H    15    30       P1 10171  0.05
      L1  H    19    45       P1 10957  0.73
      L1  C     5    27       P1  7948  1.00

> <Gold.PLP.Chemscore.Internal.Correction>
0.0401

> <Gold.Rescore>
     Score         DG    S(hbond)    S(metal)    S(lipo)     H(rot)  DE(clash)    DE(int)     intcor
     12.24     -15.83       1.26        0.00      87.22       1.58       2.00       1.59       ----

> <Gold.Chemscore.Fitness>
12.2356

> <Gold.Chemscore.DG>
-15.8304

> <Gold.Chemscore.ZeroCoef>
-5.4800

> <Gold.Chemscore.Hbond>
1.2570

> <Gold.Chemscore.Metal>
0.0000

> <Gold.Chemscore.Lipo>
87.2156

> <Gold.Chemscore.Internal_Hbond>
0.0000

> <Gold.Chemscore.DEClash>
2.0038

> <Gold.Chemscore.DEInternal>
1.5910

> <Gold.Chemscore.Rot>
1.5830

> <Gold.Chemscore.Internal.Correction>
   9.000000E+99

> <Gold.Chemscore.Hbonds>
donor molecule, donor type, donor heavy atom, donor atom, acceptor molecule, acceptor atom, score
      L1  H    15    30       P1 10171  0.09
      L1  H    19    45       P1 10957  0.36

> <Gold.Chemscore.Hbond.Weighted>
-4.1985

> <Gold.Chemscore.Metal.Weighted>
-0.0000

> <Gold.Chemscore.Lipo.Weighted>
-10.2042

> <Gold.Chemscore.Internal_Hbond.Weighted>
0.0000

> <Gold.Chemscore.DEClash.Weighted>
2.0038

> <Gold.Chemscore.DEInternal.Weighted>
1.5910

> <Gold.Chemscore.Rot.Weighted>
4.0524

> <Gold.Chemscore.Internal.Correction.Weighted>
   9.000000E+99

> <Gold.Protein.RotatedTorsions>
[ 6907 6896 6895 6894 ] final -114.30 input  -60.11 | X-H torsion
[ 7974 7965 7964 7962 ] final  -53.36 input  175.53 | X-H torsion
[ 8008 7997 7996 7995 ] final   87.21 input   59.86 | X-H torsion
[ 10167 10162 10161 10158 ] final  138.84 input  -65.29 | X-H torsion
[ 10718 10713 10712 10709 ] final -178.74 input   66.30 | X-H torsion
[ 10763 10752 10751 10750 ] final -112.87 input  -60.55 | X-H torsion
[ 11005 11000 10999 10996 ] final  -25.97 input  -57.11 | X-H torsion

> <Gold.Protein.ActiveResidues>
 VAL166  LYS551  ARG553  GLY616  TRP617  ASP618  TYR619  PRO620  LYS621  CYS622 
 ASP623  PHE694  ASN695  SER759  ASP760  ASP761  ALA762  ILE779  LEU786  VAL792 
 PHE793  MET794  SER795  GLU796  ALA797  LYS798  CYS799  TRP800  GLU811  SER814 

> <Gold.Protein.RotatedAtoms>
  150.7892  133.8821  159.3288 H   0  0  0  0  0  0  0  0  0  0  0  0  # atno 6907 bound_to 6896
  151.6663  135.0980  160.0199 H   0  0  0  0  0  0  0  0  0  0  0  0  # atno 6908 bound_to 6896
  152.3963  133.6712  159.6314 H   0  0  0  0  0  0  0  0  0  0  0  0  # atno 6909 bound_to 6896
  145.8977  140.8019  142.9759 H   0  0  0  0  0  0  0  0  0  0  0  0  # atno 7974 bound_to 7965
  155.9725  140.3384  155.6588 H   0  0  0  0  0  0  0  0  0  0  0  0  # atno 8008 bound_to 7997
  155.6656  140.0721  157.2557 H   0  0  0  0  0  0  0  0  0  0  0  0  # atno 8009 bound_to 7997
  154.4170  140.1701  156.1811 H   0  0  0  0  0  0  0  0  0  0  0  0  # atno 8010 bound_to 7997
  139.5098  144.6330  151.5769 H   0  0  0  0  0  0  0  0  0  0  0  0  # atno 10167 bound_to 10162
  156.8488  130.9712  151.3094 H   0  0  0  0  0  0  0  0  0  0  0  0  # atno 10718 bound_to 10713
  154.8370  135.4475  154.1261 H   0  0  0  0  0  0  0  0  0  0  0  0  # atno 10763 bound_to 10752
  153.2484  135.6924  153.7712 H   0  0  0  0  0  0  0  0  0  0  0  0  # atno 10764 bound_to 10752
  153.7034  135.3368  155.3206 H   0  0  0  0  0  0  0  0  0  0  0  0  # atno 10765 bound_to 10752
  140.8987  133.7539  156.0515 H   0  0  0  0  0  0  0  0  0  0  0  0  # atno 11005 bound_to 11000
  144.6734  140.1628  143.7421 LP  0  0  0  0  0  0  0  0  0  0  0  0  # atno 17320 bound_to 7965
  145.8830  139.2333  143.1594 LP  0  0  0  0  0  0  0  0  0  0  0  0  # atno 17321 bound_to 7965
  140.6069  143.9508  150.6425 LP  0  0  0  0  0  0  0  0  0  0  0  0  # atno 17342 bound_to 10162
  140.2738  143.3437  152.1214 LP  0  0  0  0  0  0  0  0  0  0  0  0  # atno 17343 bound_to 10162
  157.6315  130.8733  149.9282 LP  0  0  0  0  0  0  0  0  0  0  0  0  # atno 17370 bound_to 10713
  156.0839  130.3670  150.0525 LP  0  0  0  0  0  0  0  0  0  0  0  0  # atno 17371 bound_to 10713
  140.8257  134.3237  157.5366 LP  0  0  0  0  0  0  0  0  0  0  0  0  # atno 17394 bound_to 11000
  139.8739  134.9335  156.3581 LP  0  0  0  0  0  0  0  0  0  0  0  0  # atno 17395 bound_to 11000

$$$$
