AV-unprocessed.smi:2991|AV-procd|sdf|11398|dock3
  -GOLD-   2272016323D 1   1.00000     0.00000
 Structure written by MMmdl.
 37 38  0  0  0  0  0  0  0  0  1 V2000
  150.4047  141.2388  155.5458 C   0  0  0  0  0  0  0  0  0  0  0  0
  149.0279  140.8132  155.0715 C   0  0  0  0  0  0  0  0  0  0  0  0
  148.0197  141.6629  155.3656 N   0  0  0  0  0  0  0  0  0  0  0  0
  146.7757  141.3354  154.9610 C   0  0  0  0  0  0  0  0  0  0  0  0
  146.4757  140.1541  154.2560 C   0  0  0  0  0  0  0  0  0  0  0  0
  147.5271  139.2539  153.9587 C   0  0  0  0  0  0  0  0  0  0  0  0
  147.3431  138.0439  153.2328 N   0  0  0  0  0  0  0  0  0  0  0  0
  146.2164  137.3379  153.0382 C   0  0  0  0  0  0  0  0  0  0  0  0
  145.1064  137.6246  153.4867 O   0  0  0  0  0  0  0  0  0  0  0  0
  146.4546  136.2495  152.2923 N   0  0  0  0  0  0  0  0  0  0  0  0
  145.4673  135.2391  151.9094 C   0  0  1  0  0  0  0  0  0  0  0  0
  146.0938  134.2344  150.9164 C   0  0  0  0  0  0  0  0  0  0  0  0
  145.0666  133.4902  150.0487 C   0  0  0  0  0  0  0  0  0  0  0  0
  144.0927  132.5939  150.8278 C   0  0  0  0  0  0  0  0  0  0  0  0
  143.1506  133.3711  151.7633 C   0  0  0  0  0  0  0  0  0  0  0  0
  143.7962  133.7617  153.0104 N   0  0  0  0  0  0  0  0  0  0  0  0
  144.8434  134.5875  153.1581 C   0  0  0  0  0  0  0  0  0  0  0  0
  145.3048  134.8155  154.2763 O   0  0  0  0  0  0  0  0  0  0  0  0
  148.8365  139.6011  154.3673 C   0  0  0  0  0  0  0  0  0  0  0  0
  150.1781  138.5623  154.0183 Cl  0  0  0  0  0  0  0  0  0  0  0  0
  150.8148  140.4973  156.2317 H   0  0  0  0  0  0  0  0  0  0  0  0
  150.3720  142.1969  156.0663 H   0  0  0  0  0  0  0  0  0  0  0  0
  151.0834  141.3396  154.6986 H   0  0  0  0  0  0  0  0  0  0  0  0
  145.9941  142.0411  155.2008 H   0  0  0  0  0  0  0  0  0  0  0  0
  145.4573  139.9726  153.9496 H   0  0  0  0  0  0  0  0  0  0  0  0
  148.1895  137.6319  152.8677 H   0  0  0  0  0  0  0  0  0  0  0  0
  147.4005  136.0881  151.9775 H   0  0  0  0  0  0  0  0  0  0  0  0
  144.6560  135.7658  151.4031 H   0  0  0  0  0  0  0  0  0  0  0  0
  146.7664  134.7619  150.2385 H   0  0  0  0  0  0  0  0  0  0  0  0
  146.7197  133.5191  151.4518 H   0  0  0  0  0  0  0  0  0  0  0  0
  144.5033  134.2107  149.4542 H   0  0  0  0  0  0  0  0  0  0  0  0
  145.6062  132.8720  149.3307 H   0  0  0  0  0  0  0  0  0  0  0  0
  143.4837  132.0518  150.1036 H   0  0  0  0  0  0  0  0  0  0  0  0
  144.6398  131.8330  151.3859 H   0  0  0  0  0  0  0  0  0  0  0  0
  142.7279  134.2436  151.2634 H   0  0  0  0  0  0  0  0  0  0  0  0
  142.3072  132.7334  152.0289 H   0  0  0  0  0  0  0  0  0  0  0  0
  143.4155  133.3541  153.8523 H   0  0  0  0  0  0  0  0  0  0  0  0
  1  2  1  0  0  0  0
  1 21  1  0  0  0  0
  1 22  1  0  0  0  0
  1 23  1  0  0  0  0
  2 19  1  0  0  0  0
  2  3  2  0  0  0  0
  3  4  1  0  0  0  0
  4  5  2  0  0  0  0
  4 24  1  0  0  0  0
  5  6  1  0  0  0  0
  5 25  1  0  0  0  0
  6  7  1  0  0  0  0
  6 19  2  0  0  0  0
  7  8  1  0  0  0  0
  7 26  1  0  0  0  0
  8  9  2  0  0  0  0
  8 10  1  0  0  0  0
 10 11  1  0  0  0  0
 10 27  1  0  0  0  0
 11 17  1  0  0  0  0
 11 12  1  0  0  0  0
 11 28  1  0  0  0  0
 12 13  1  0  0  0  0
 12 29  1  0  0  0  0
 12 30  1  0  0  0  0
 13 14  1  0  0  0  0
 13 31  1  0  0  0  0
 13 32  1  0  0  0  0
 14 15  1  0  0  0  0
 14 33  1  0  0  0  0
 14 34  1  0  0  0  0
 15 16  1  0  0  0  0
 15 35  1  0  0  0  0
 15 36  1  0  0  0  0
 16 17  1  0  0  0  0
 16 37  1  0  0  0  0
 17 18  2  0  0  0  0
 19 20  1  0  0  0  0
M  END
> <s_m_source_file>
AV-unprocessed.smi

> <i_m_source_file_index>
2991

> <i_lp_mmshare_version>
43012

> <i_f3d_flags>
0

> <s_epik_input>
W0NIM11jMW5bY0hdW2NIXWMoYzFDbClbTkhdQyg9TylbTkhdW0NAQEhdMltDSDJdW0NIMl1bQ0gyXVtDSDJdW05IXUMyPU8=

> <s_epik_cmdline>
J2VwaWtfcHl0aG9uJywgJy1waCcsICc3LjAnLCAnLXRuJywgJzgnLCAnLW1hJywgJzIwMCcsICctbWV0YWxfYmluZGluZycsICctaW1hZScsICc8aW5maWxlLm1hZT4nLCAnLW9tYWUnLCAnPG91dGZpbGUubWFlPic=

> <r_epik_Ionization_Penalty>
0.00809016

> <r_epik_Ionization_Penalty_Charging>
0

> <r_epik_Ionization_Penalty_Neutral>
0.00809016

> <r_epik_State_Penalty>
0.00605324

> <r_epik_Charging_Adjusted_Penalty>
0.00605324

> <i_epik_Tot_Q>
0

> <i_epik_Tot_abs_Q>
0

> <r_epik_Metal_State_Penalty>
0.00597181

> <b_epik_Metal_Only>
0

> <s_lp_Force_Field>
OPLS_2005

> <r_lp_Energy>
16.2223

> <b_lp_Chiralities_Consistent>
1

> <s_lp_Variant>
AV-unprocessed.smi:2991-2

> <Gold.Version>
5.8.1

> <Gold.Id.Protein>
6NUR|6NUR_protein|mol2

> <Gold.PLP.Fitness>
36.9608

> <Gold.PLP.PLP>
-28.5820

> <Gold.PLP.part.hbond>
-2.9641

> <Gold.PLP.part.metal>
0.0000

> <Gold.PLP.part.buried>
-2.5869

> <Gold.PLP.part.nonpolar>
-23.6088

> <Gold.PLP.part.repulsive>
0.4327

> <Gold.PLP.ligand.clash>
0.0000

> <Gold.PLP.ligand.torsion>
0.1080

> <Gold.PLP.Chemscore.Hbond>
2.8560

> <Gold.PLP.Chemscore.CHOScore>
0.0000

> <Gold.PLP.Chemscore.Metal>
0.0000

> <Gold.Chemscore.Hbonds>
donor molecule, donor type, donor heavy atom, donor atom, acceptor molecule, acceptor atom, score
      L1  H     7    26       P1  7948  0.94
      L1  H    10    27       P1  7948  1.00
      L1  H    16    37       P1 10957  0.96

> <Gold.PLP.Chemscore.Internal.Correction>
0.0270

> <Gold.Rescore>
     Score         DG    S(hbond)    S(metal)    S(lipo)     H(rot)  DE(clash)    DE(int)     intcor
     19.34     -21.07       2.80        0.00      75.07       1.00       0.39       1.33       ----

> <Gold.Chemscore.Fitness>
19.3378

> <Gold.Chemscore.DG>
-21.0658

> <Gold.Chemscore.ZeroCoef>
-5.4800

> <Gold.Chemscore.Hbond>
2.8031

> <Gold.Chemscore.Metal>
0.0000

> <Gold.Chemscore.Lipo>
75.0724

> <Gold.Chemscore.Internal_Hbond>
0.0000

> <Gold.Chemscore.DEClash>
0.3949

> <Gold.Chemscore.DEInternal>
1.3330

> <Gold.Chemscore.Rot>
1.0000

> <Gold.Chemscore.Internal.Correction>
   9.000000E+99

> <Gold.Chemscore.Hbonds>
donor molecule, donor type, donor heavy atom, donor atom, acceptor molecule, acceptor atom, score
      L1  H     7    26       P1  7948  0.91
      L1  H    10    27       P1  7948  0.94
      L1  H    16    37       P1 10957  0.90

> <Gold.Chemscore.Hbond.Weighted>
-9.3623

> <Gold.Chemscore.Metal.Weighted>
-0.0000

> <Gold.Chemscore.Lipo.Weighted>
-8.7835

> <Gold.Chemscore.Internal_Hbond.Weighted>
0.0000

> <Gold.Chemscore.DEClash.Weighted>
0.3949

> <Gold.Chemscore.DEInternal.Weighted>
1.3330

> <Gold.Chemscore.Rot.Weighted>
2.5600

> <Gold.Chemscore.Internal.Correction.Weighted>
   9.000000E+99

> <Gold.Protein.RotatedTorsions>
[ 6907 6896 6895 6894 ] final   87.26 input  -60.11 | X-H torsion
[ 7974 7965 7964 7962 ] final -144.34 input  175.53 | X-H torsion
[ 8008 7997 7996 7995 ] final  121.91 input   59.86 | X-H torsion
[ 10167 10162 10161 10158 ] final   35.11 input  -65.29 | X-H torsion
[ 10718 10713 10712 10709 ] final   94.50 input   66.30 | X-H torsion
[ 10763 10752 10751 10750 ] final -124.44 input  -60.55 | X-H torsion
[ 11005 11000 10999 10996 ] final -120.13 input  -57.11 | X-H torsion

> <Gold.Protein.ActiveResidues>
 VAL166  LYS551  ARG553  GLY616  TRP617  ASP618  TYR619  PRO620  LYS621  CYS622 
 ASP623  PHE694  ASN695  SER759  ASP760  ASP761  ALA762  ILE779  LEU786  VAL792 
 PHE793  MET794  SER795  GLU796  ALA797  LYS798  CYS799  TRP800  GLU811  SER814 

> <Gold.Protein.RotatedAtoms>
  152.5408  134.2304  159.8822 H   0  0  0  0  0  0  0  0  0  0  0  0  # atno 6907 bound_to 6896
  151.2276  133.4461  159.2610 H   0  0  0  0  0  0  0  0  0  0  0  0  # atno 6908 bound_to 6896
  151.0746  134.9833  159.8382 H   0  0  0  0  0  0  0  0  0  0  0  0  # atno 6909 bound_to 6896
  144.8305  140.5722  143.5518 H   0  0  0  0  0  0  0  0  0  0  0  0  # atno 7974 bound_to 7965
  156.2706  140.2798  156.1383 H   0  0  0  0  0  0  0  0  0  0  0  0  # atno 8008 bound_to 7997
  155.0980  140.0389  157.2706 H   0  0  0  0  0  0  0  0  0  0  0  0  # atno 8009 bound_to 7997
  154.6837  140.2614  155.6888 H   0  0  0  0  0  0  0  0  0  0  0  0  # atno 8010 bound_to 7997
  140.4252  144.1403  150.6152 H   0  0  0  0  0  0  0  0  0  0  0  0  # atno 10167 bound_to 10162
  157.6947  131.0514  150.4196 H   0  0  0  0  0  0  0  0  0  0  0  0  # atno 10718 bound_to 10713
  154.8723  135.4063  154.3106 H   0  0  0  0  0  0  0  0  0  0  0  0  # atno 10763 bound_to 10752
  153.3951  135.7016  153.6472 H   0  0  0  0  0  0  0  0  0  0  0  0  # atno 10764 bound_to 10752
  153.5239  135.3681  155.2615 H   0  0  0  0  0  0  0  0  0  0  0  0  # atno 10765 bound_to 10752
  141.0166  134.0186  157.3341 H   0  0  0  0  0  0  0  0  0  0  0  0  # atno 11005 bound_to 11000
  145.4907  139.1489  143.3711 LP  0  0  0  0  0  0  0  0  0  0  0  0  # atno 17320 bound_to 7965
  146.2608  140.5045  142.8854 LP  0  0  0  0  0  0  0  0  0  0  0  0  # atno 17321 bound_to 7965
  140.4489  143.2495  151.9374 LP  0  0  0  0  0  0  0  0  0  0  0  0  # atno 17342 bound_to 10162
  139.4783  144.5582  151.8281 LP  0  0  0  0  0  0  0  0  0  0  0  0  # atno 17343 bound_to 10162
  156.4572  130.4024  149.6599 LP  0  0  0  0  0  0  0  0  0  0  0  0  # atno 17370 bound_to 10713
  156.3727  130.7539  151.2523 LP  0  0  0  0  0  0  0  0  0  0  0  0  # atno 17371 bound_to 10713
  139.9120  135.0191  156.7732 LP  0  0  0  0  0  0  0  0  0  0  0  0  # atno 17394 bound_to 11000
  140.6644  133.9615  155.7822 LP  0  0  0  0  0  0  0  0  0  0  0  0  # atno 17395 bound_to 11000

$$$$
