AV-unprocessed.smi:880|AV-procd|sdf|4034|dock7
  -GOLD-   22720 1523D 1   1.00000     0.00000
 Structure written by MMmdl.
 32 33  0  0  0  0  0  0  0  0  1 V2000
  153.1406  142.9807  159.9698 C   0  0  0  0  0  0  0  0  0  0  0  0
  152.3371  143.2956  158.6982 C   0  0  0  0  0  0  0  0  0  0  0  0
  152.0883  144.8043  158.5549 C   0  0  0  0  0  0  0  0  0  0  0  0
  151.0360  142.5334  158.6473 C   0  0  0  0  0  0  0  0  0  0  0  0
  150.8182  141.1252  158.7039 C   0  0  0  0  0  0  0  0  0  0  0  0
  149.4608  140.9949  158.6415 C   0  0  0  0  0  0  0  0  0  0  0  0
  148.9321  142.2646  158.5556 N   0  0  0  0  0  0  0  0  0  0  0  0
  147.5360  142.6589  158.4861 C   0  0  0  0  0  0  0  0  0  0  0  0
  147.1099  143.4221  159.7420 C   0  0  0  0  0  0  0  0  0  0  0  0
  146.5157  142.8346  160.6457 O   0  0  0  0  0  0  0  0  0  0  0  0
  147.4165  144.7277  159.7800 N   0  0  0  0  0  0  0  0  0  0  0  0
  147.1291  145.6194  160.8555 C   0  0  0  0  0  0  0  0  0  0  0  0
  148.2900  146.0936  161.7026 C   0  0  0  0  0  0  0  0  0  0  0  0
  147.3131  145.0980  162.2645 C   0  0  0  0  0  0  0  0  0  0  0  0
  149.8985  143.2079  158.5582 N   0  0  0  0  0  0  0  0  0  0  0  0
  153.3455  141.9128  160.0501 H   0  0  0  0  0  0  0  0  0  0  0  0
  152.6061  143.2884  160.8691 H   0  0  0  0  0  0  0  0  0  0  0  0
  154.0997  143.4990  159.9637 H   0  0  0  0  0  0  0  0  0  0  0  0
  152.9518  142.9868  157.8512 H   0  0  0  0  0  0  0  0  0  0  0  0
  151.5777  145.0324  157.6187 H   0  0  0  0  0  0  0  0  0  0  0  0
  153.0264  145.3602  158.5614 H   0  0  0  0  0  0  0  0  0  0  0  0
  151.4713  145.1828  159.3704 H   0  0  0  0  0  0  0  0  0  0  0  0
  151.5459  140.3312  158.7841 H   0  0  0  0  0  0  0  0  0  0  0  0
  148.8337  140.1156  158.6572 H   0  0  0  0  0  0  0  0  0  0  0  0
  147.3744  143.2782  157.6023 H   0  0  0  0  0  0  0  0  0  0  0  0
  146.9254  141.7629  158.3670 H   0  0  0  0  0  0  0  0  0  0  0  0
  147.9083  145.1157  158.9877 H   0  0  0  0  0  0  0  0  0  0  0  0
  146.3181  146.3319  160.7120 H   0  0  0  0  0  0  0  0  0  0  0  0
  149.2855  145.7329  161.4505 H   0  0  0  0  0  0  0  0  0  0  0  0
  148.2476  147.1107  162.0867 H   0  0  0  0  0  0  0  0  0  0  0  0
  146.6188  145.4503  163.0250 H   0  0  0  0  0  0  0  0  0  0  0  0
  147.6551  144.0720  162.3868 H   0  0  0  0  0  0  0  0  0  0  0  0
  1  2  1  0  0  0  0
  1 16  1  0  0  0  0
  1 17  1  0  0  0  0
  1 18  1  0  0  0  0
  2  3  1  0  0  0  0
  2  4  1  0  0  0  0
  2 19  1  0  0  0  0
  3 20  1  0  0  0  0
  3 21  1  0  0  0  0
  3 22  1  0  0  0  0
  4 15  2  0  0  0  0
  4  5  1  0  0  0  0
  5  6  2  0  0  0  0
  5 23  1  0  0  0  0
  6  7  1  0  0  0  0
  6 24  1  0  0  0  0
  7  8  1  0  0  0  0
  7 15  1  0  0  0  0
  8  9  1  0  0  0  0
  8 25  1  0  0  0  0
  8 26  1  0  0  0  0
  9 10  2  0  0  0  0
  9 11  1  0  0  0  0
 11 12  1  0  0  0  0
 11 27  1  0  0  0  0
 12 14  1  0  0  0  0
 12 13  1  0  0  0  0
 12 28  1  0  0  0  0
 13 14  1  0  0  0  0
 13 29  1  0  0  0  0
 13 30  1  0  0  0  0
 14 31  1  0  0  0  0
 14 32  1  0  0  0  0
M  END
> <s_m_source_file>
AV-unprocessed.smi

> <i_m_source_file_index>
880

> <i_lp_mmshare_version>
43012

> <i_f3d_flags>
0

> <s_epik_input>
W0NIM11bQ0hdKFtDSDNdKWMxW2NIXVtjSF1uKG4xKVtDSDJdQyg9TylbTkhdW0NIXTJbQ0gyXVtDSDJdMg==

> <s_epik_cmdline>
J2VwaWtfcHl0aG9uJywgJy1waCcsICc3LjAnLCAnLXRuJywgJzgnLCAnLW1hJywgJzIwMCcsICctbWV0YWxfYmluZGluZycsICctaW1hZScsICc8aW5maWxlLm1hZT4nLCAnLW9tYWUnLCAnPG91dGZpbGUubWFlPic=

> <r_lp_tautomer_probability>
1

> <r_epik_Ionization_Penalty>
5.52855e-05

> <r_epik_Ionization_Penalty_Charging>
0

> <r_epik_Ionization_Penalty_Neutral>
5.52855e-05

> <r_epik_State_Penalty>
-0

> <r_epik_Charging_Adjusted_Penalty>
0

> <i_epik_Tot_Q>
0

> <i_epik_Tot_abs_Q>
0

> <r_epik_Metal_State_Penalty>
-0

> <b_epik_Metal_Only>
0

> <s_lp_Force_Field>
OPLS_2005

> <r_lp_Energy>
12.9381

> <b_lp_Chiralities_Consistent>
1

> <s_lp_Variant>
AV-unprocessed.smi:880-1

> <Gold.Version>
5.8.1

> <Gold.Id.Protein>
6NUR|6NUR_protein|mol2

> <Gold.PLP.Fitness>
38.2986

> <Gold.PLP.PLP>
-33.4801

> <Gold.PLP.part.hbond>
-2.0000

> <Gold.PLP.part.metal>
0.0000

> <Gold.PLP.part.buried>
-5.5839

> <Gold.PLP.part.nonpolar>
-26.2228

> <Gold.PLP.part.repulsive>
0.2710

> <Gold.PLP.ligand.clash>
0.0000

> <Gold.PLP.ligand.torsion>
0.5625

> <Gold.PLP.Chemscore.Hbond>
1.9600

> <Gold.PLP.Chemscore.CHOScore>
0.0000

> <Gold.PLP.Chemscore.Metal>
0.0000

> <Gold.Chemscore.Hbonds>
donor molecule, donor type, donor heavy atom, donor atom, acceptor molecule, acceptor atom, score
      L1  H    11    27       P1  8029  0.99
      P1  H  6933  6944       L1    10  0.19
      P1  H  6934  6946       L1    10  1.00

> <Gold.PLP.Chemscore.Internal.Correction>
0.0636

> <Gold.Rescore>
     Score         DG    S(hbond)    S(metal)    S(lipo)     H(rot)  DE(clash)    DE(int)     intcor
     15.26     -17.07       1.98        0.00      75.27       1.50       0.07       1.74       ----

> <Gold.Chemscore.Fitness>
15.2583

> <Gold.Chemscore.DG>
-17.0662

> <Gold.Chemscore.ZeroCoef>
-5.4800

> <Gold.Chemscore.Hbond>
1.9838

> <Gold.Chemscore.Metal>
0.0000

> <Gold.Chemscore.Lipo>
75.2734

> <Gold.Chemscore.Internal_Hbond>
0.0000

> <Gold.Chemscore.DEClash>
0.0696

> <Gold.Chemscore.DEInternal>
1.7382

> <Gold.Chemscore.Rot>
1.5026

> <Gold.Chemscore.Internal.Correction>
   9.000000E+99

> <Gold.Chemscore.Hbonds>
donor molecule, donor type, donor heavy atom, donor atom, acceptor molecule, acceptor atom, score
      L1  H    11    27       P1  8029  0.94
      P1  H  6934  6946       L1    10  0.80

> <Gold.Chemscore.Hbond.Weighted>
-6.6260

> <Gold.Chemscore.Metal.Weighted>
-0.0000

> <Gold.Chemscore.Lipo.Weighted>
-8.8070

> <Gold.Chemscore.Internal_Hbond.Weighted>
0.0000

> <Gold.Chemscore.DEClash.Weighted>
0.0696

> <Gold.Chemscore.DEInternal.Weighted>
1.7382

> <Gold.Chemscore.Rot.Weighted>
3.8468

> <Gold.Chemscore.Internal.Correction.Weighted>
   9.000000E+99

> <Gold.Protein.RotatedTorsions>
[ 6907 6896 6895 6894 ] final    5.22 input  -60.11 | X-H torsion
[ 7974 7965 7964 7962 ] final  176.99 input  175.53 | X-H torsion
[ 8008 7997 7996 7995 ] final  -83.53 input   59.86 | X-H torsion
[ 10167 10162 10161 10158 ] final   65.47 input  -65.29 | X-H torsion
[ 10718 10713 10712 10709 ] final  151.20 input   66.30 | X-H torsion
[ 10763 10752 10751 10750 ] final   45.36 input  -60.55 | X-H torsion
[ 11005 11000 10999 10996 ] final  -32.84 input  -57.11 | X-H torsion

> <Gold.Protein.ActiveResidues>
 VAL166  LYS551  ARG553  GLY616  TRP617  ASP618  TYR619  PRO620  LYS621  CYS622 
 ASP623  PHE694  ASN695  SER759  ASP760  ASP761  ALA762  ILE779  LEU786  VAL792 
 PHE793  MET794  SER795  GLU796  ALA797  LYS798  CYS799  TRP800  GLU811  SER814 

> <Gold.Protein.RotatedAtoms>
  151.6539  135.0998  160.0165 H   0  0  0  0  0  0  0  0  0  0  0  0  # atno 6907 bound_to 6896
  152.3985  133.6778  159.6305 H   0  0  0  0  0  0  0  0  0  0  0  0  # atno 6908 bound_to 6896
  150.7888  133.8749  159.3310 H   0  0  0  0  0  0  0  0  0  0  0  0  # atno 6909 bound_to 6896
  144.7176  140.0179  143.6440 H   0  0  0  0  0  0  0  0  0  0  0  0  # atno 7974 bound_to 7965
  154.6201  140.0617  156.9604 H   0  0  0  0  0  0  0  0  0  0  0  0  # atno 8008 bound_to 7997
  155.1831  140.3301  155.4353 H   0  0  0  0  0  0  0  0  0  0  0  0  # atno 8009 bound_to 7997
  156.2426  140.1894  156.6926 H   0  0  0  0  0  0  0  0  0  0  0  0  # atno 8010 bound_to 7997
  140.1109  144.4819  150.6978 H   0  0  0  0  0  0  0  0  0  0  0  0  # atno 10167 bound_to 10162
  157.2738  131.0822  151.1581 H   0  0  0  0  0  0  0  0  0  0  0  0  # atno 10718 bound_to 10713
  152.9826  135.6042  154.3424 H   0  0  0  0  0  0  0  0  0  0  0  0  # atno 10763 bound_to 10752
  154.3120  135.2771  155.2563 H   0  0  0  0  0  0  0  0  0  0  0  0  # atno 10764 bound_to 10752
  154.4769  135.5927  153.6417 H   0  0  0  0  0  0  0  0  0  0  0  0  # atno 10765 bound_to 10752
  140.9586  133.7178  156.1332 H   0  0  0  0  0  0  0  0  0  0  0  0  # atno 11005 bound_to 11000
  146.0205  139.3247  143.0816 LP  0  0  0  0  0  0  0  0  0  0  0  0  # atno 17320 bound_to 7965
  145.8574  140.9494  143.0718 LP  0  0  0  0  0  0  0  0  0  0  0  0  # atno 17321 bound_to 7965
  140.6926  143.2385  151.5089 LP  0  0  0  0  0  0  0  0  0  0  0  0  # atno 17342 bound_to 10162
  139.5620  144.2134  152.1706 LP  0  0  0  0  0  0  0  0  0  0  0  0  # atno 17343 bound_to 10162
  157.3042  130.6858  149.6180 LP  0  0  0  0  0  0  0  0  0  0  0  0  # atno 17370 bound_to 10713
  155.9663  130.4383  150.5210 LP  0  0  0  0  0  0  0  0  0  0  0  0  # atno 17371 bound_to 10713
  140.7500  134.4055  157.5542 LP  0  0  0  0  0  0  0  0  0  0  0  0  # atno 17394 bound_to 11000
  139.8870  134.8894  156.2551 LP  0  0  0  0  0  0  0  0  0  0  0  0  # atno 17395 bound_to 11000

$$$$
