AV-unprocessed.smi:2890|AV-procd|sdf|11116|dock6
  -GOLD-   2272015583D 1   1.00000     0.00000
 Structure written by MMmdl.
 38 39  0  0  0  0  0  0  0  0  1 V2000
  147.2795  141.0336  153.4081 C   0  0  0  0  0  0  0  0  0  0  0  0
  147.0975  140.0333  154.5547 C   0  0  0  0  0  0  0  0  0  0  0  0
  148.3851  139.3398  154.9069 C   0  0  0  0  0  0  0  0  0  0  0  0
  148.4276  138.0179  154.9224 N   0  0  0  0  0  0  0  0  0  0  0  0
  149.7356  137.6802  155.2814 O   0  0  0  0  0  0  0  0  0  0  0  0
  150.4380  138.8257  155.4738 C   0  0  0  0  0  0  0  0  0  0  0  0
  151.8701  138.6728  155.8672 C   0  0  0  0  0  0  0  0  0  0  0  0
  152.8443  139.1548  154.7878 C   0  0  0  0  0  0  0  0  0  0  0  0
  149.6399  139.9164  155.2593 C   0  0  0  0  0  0  0  0  0  0  0  0
  149.9962  141.3774  155.3682 C   0  0  0  0  0  0  0  0  0  0  0  0
  150.3225  141.7247  156.8206 C   0  0  0  0  0  0  0  0  0  0  0  0
  150.6466  140.8365  157.6079 O   0  0  0  0  0  0  0  0  0  0  0  0
  150.2360  143.0204  157.1605 N   0  0  0  0  0  0  0  0  0  0  0  0
  150.5430  143.5699  158.4771 C   0  0  0  0  0  0  0  0  0  0  0  0
  149.3606  143.7081  159.3501 C   0  0  0  0  0  0  0  0  0  0  0  0
  148.4343  143.8170  160.0344 N   0  0  0  0  0  0  0  0  0  0  0  0
  151.7214  142.8481  159.1502 C   0  0  0  0  0  0  0  0  0  0  0  0
  152.2080  144.2239  159.6246 C   0  0  0  0  0  0  0  0  0  0  0  0
  151.4450  144.8170  158.4332 C   0  0  0  0  0  0  0  0  0  0  0  0
  146.3361  141.5234  153.1666 H   0  0  0  0  0  0  0  0  0  0  0  0
  147.6372  140.5357  152.5062 H   0  0  0  0  0  0  0  0  0  0  0  0
  147.9991  141.8092  153.6715 H   0  0  0  0  0  0  0  0  0  0  0  0
  146.7029  140.5538  155.4282 H   0  0  0  0  0  0  0  0  0  0  0  0
  146.3396  139.3004  154.2780 H   0  0  0  0  0  0  0  0  0  0  0  0
  152.0495  139.2257  156.7894 H   0  0  0  0  0  0  0  0  0  0  0  0
  152.0769  137.6276  156.0982 H   0  0  0  0  0  0  0  0  0  0  0  0
  153.8775  139.0250  155.1106 H   0  0  0  0  0  0  0  0  0  0  0  0
  152.6952  140.2120  154.5653 H   0  0  0  0  0  0  0  0  0  0  0  0
  152.7115  138.5950  153.8616 H   0  0  0  0  0  0  0  0  0  0  0  0
  150.8512  141.6319  154.7412 H   0  0  0  0  0  0  0  0  0  0  0  0
  149.1754  142.0088  155.0259 H   0  0  0  0  0  0  0  0  0  0  0  0
  149.9631  143.6788  156.4456 H   0  0  0  0  0  0  0  0  0  0  0  0
  151.4442  142.1624  159.9518 H   0  0  0  0  0  0  0  0  0  0  0  0
  152.4108  142.3818  158.4434 H   0  0  0  0  0  0  0  0  0  0  0  0
  151.7905  144.5173  160.5894 H   0  0  0  0  0  0  0  0  0  0  0  0
  153.2889  144.3649  159.5903 H   0  0  0  0  0  0  0  0  0  0  0  0
  152.0587  144.8823  157.5327 H   0  0  0  0  0  0  0  0  0  0  0  0
  150.9358  145.7587  158.6411 H   0  0  0  0  0  0  0  0  0  0  0  0
  1  2  1  0  0  0  0
  1 20  1  0  0  0  0
  1 21  1  0  0  0  0
  1 22  1  0  0  0  0
  2  3  1  0  0  0  0
  2 23  1  0  0  0  0
  2 24  1  0  0  0  0
  3  9  1  0  0  0  0
  3  4  2  0  0  0  0
  4  5  1  0  0  0  0
  5  6  1  0  0  0  0
  6  7  1  0  0  0  0
  6  9  2  0  0  0  0
  7  8  1  0  0  0  0
  7 25  1  0  0  0  0
  7 26  1  0  0  0  0
  8 27  1  0  0  0  0
  8 28  1  0  0  0  0
  8 29  1  0  0  0  0
  9 10  1  0  0  0  0
 10 11  1  0  0  0  0
 10 30  1  0  0  0  0
 10 31  1  0  0  0  0
 11 12  2  0  0  0  0
 11 13  1  0  0  0  0
 13 14  1  0  0  0  0
 13 32  1  0  0  0  0
 14 19  1  0  0  0  0
 14 15  1  0  0  0  0
 14 17  1  0  0  0  0
 15 16  3  0  0  0  0
 17 18  1  0  0  0  0
 17 33  1  0  0  0  0
 17 34  1  0  0  0  0
 18 19  1  0  0  0  0
 18 35  1  0  0  0  0
 18 36  1  0  0  0  0
 19 37  1  0  0  0  0
 19 38  1  0  0  0  0
M  END
> <s_m_source_file>
AV-unprocessed.smi

> <i_m_source_file_index>
2890

> <i_lp_mmshare_version>
43012

> <i_f3d_flags>
0

> <s_epik_input>
W0NIM11bQ0gyXWMxbm9jKFtDSDJdW0NIM10pYzFbQ0gyXUMoPU8pW05IXUMyKEMjTilbQ0gyXVtDSDJdW0NIMl0y

> <s_epik_cmdline>
J2VwaWtfcHl0aG9uJywgJy1waCcsICc3LjAnLCAnLXRuJywgJzgnLCAnLW1hJywgJzIwMCcsICctbWV0YWxfYmluZGluZycsICctaW1hZScsICc8aW5maWxlLm1hZT4nLCAnLW9tYWUnLCAnPG91dGZpbGUubWFlPic=

> <r_lp_tautomer_probability>
1

> <r_epik_Ionization_Penalty>
5.40968e-07

> <r_epik_Ionization_Penalty_Charging>
0

> <r_epik_Ionization_Penalty_Neutral>
5.40968e-07

> <r_epik_State_Penalty>
-0

> <r_epik_Charging_Adjusted_Penalty>
0

> <i_epik_Tot_Q>
0

> <i_epik_Tot_abs_Q>
0

> <r_epik_Metal_State_Penalty>
-0

> <b_epik_Metal_Only>
0

> <s_lp_Force_Field>
OPLS_2005

> <r_lp_Energy>
4.95517

> <b_lp_Chiralities_Consistent>
1

> <s_lp_Variant>
AV-unprocessed.smi:2890-1

> <Gold.Version>
5.8.1

> <Gold.Id.Protein>
6NUR|6NUR_protein|mol2

> <Gold.PLP.Fitness>
36.7709

> <Gold.PLP.PLP>
-33.1352

> <Gold.PLP.part.hbond>
-2.0000

> <Gold.PLP.part.metal>
0.0000

> <Gold.PLP.part.buried>
-4.4131

> <Gold.PLP.part.nonpolar>
-28.0847

> <Gold.PLP.part.repulsive>
0.3659

> <Gold.PLP.ligand.clash>
0.0000

> <Gold.PLP.ligand.torsion>
0.8255

> <Gold.PLP.Chemscore.Hbond>
1.6784

> <Gold.PLP.Chemscore.CHOScore>
0.0000

> <Gold.PLP.Chemscore.Metal>
0.0000

> <Gold.Chemscore.Hbonds>
donor molecule, donor type, donor heavy atom, donor atom, acceptor molecule, acceptor atom, score
      L1  H    13    32       P1  8028  1.00
      P1  H  6933  6944       L1    16  0.85

> <Gold.PLP.Chemscore.Internal.Correction>
0.2515

> <Gold.Rescore>
     Score         DG    S(hbond)    S(metal)    S(lipo)     H(rot)  DE(clash)    DE(int)     intcor
     14.28     -17.62       1.66        0.00      94.03       1.72       0.01       3.33       ----

> <Gold.Chemscore.Fitness>
14.2796

> <Gold.Chemscore.DG>
-17.6195

> <Gold.Chemscore.ZeroCoef>
-5.4800

> <Gold.Chemscore.Hbond>
1.6592

> <Gold.Chemscore.Metal>
0.0000

> <Gold.Chemscore.Lipo>
94.0282

> <Gold.Chemscore.Internal_Hbond>
0.0000

> <Gold.Chemscore.DEClash>
0.0073

> <Gold.Chemscore.DEInternal>
3.3325

> <Gold.Chemscore.Rot>
1.7202

> <Gold.Chemscore.Internal.Correction>
   9.000000E+99

> <Gold.Chemscore.Hbonds>
donor molecule, donor type, donor heavy atom, donor atom, acceptor molecule, acceptor atom, score
      L1  H    13    32       P1  8028  0.98
      P1  H  6933  6944       L1    16  0.52

> <Gold.Chemscore.Hbond.Weighted>
-5.5419

> <Gold.Chemscore.Metal.Weighted>
-0.0000

> <Gold.Chemscore.Lipo.Weighted>
-11.0013

> <Gold.Chemscore.Internal_Hbond.Weighted>
0.0000

> <Gold.Chemscore.DEClash.Weighted>
0.0073

> <Gold.Chemscore.DEInternal.Weighted>
3.3325

> <Gold.Chemscore.Rot.Weighted>
4.4037

> <Gold.Chemscore.Internal.Correction.Weighted>
   9.000000E+99

> <Gold.Protein.RotatedTorsions>
[ 6907 6896 6895 6894 ] final  165.69 input  -60.11 | X-H torsion
[ 7974 7965 7964 7962 ] final    6.64 input  175.53 | X-H torsion
[ 8008 7997 7996 7995 ] final  -87.43 input   59.86 | X-H torsion
[ 10167 10162 10161 10158 ] final -147.46 input  -65.29 | X-H torsion
[ 10718 10713 10712 10709 ] final   27.39 input   66.30 | X-H torsion
[ 10763 10752 10751 10750 ] final  -66.68 input  -60.55 | X-H torsion
[ 11005 11000 10999 10996 ] final -173.52 input  -57.11 | X-H torsion

> <Gold.Protein.ActiveResidues>
 VAL166  LYS551  ARG553  GLY616  TRP617  ASP618  TYR619  PRO620  LYS621  CYS622 
 ASP623  PHE694  ASN695  SER759  ASP760  ASP761  ALA762  ILE779  LEU786  VAL792 
 PHE793  MET794  SER795  GLU796  ALA797  LYS798  CYS799  TRP800  GLU811  SER814 

> <Gold.Protein.RotatedAtoms>
  151.8905  133.3515  159.3796 H   0  0  0  0  0  0  0  0  0  0  0  0  # atno 6907 bound_to 6896
  150.7104  134.4928  159.5533 H   0  0  0  0  0  0  0  0  0  0  0  0  # atno 6908 bound_to 6896
  152.2497  134.8145  160.0499 H   0  0  0  0  0  0  0  0  0  0  0  0  # atno 6909 bound_to 6896
  146.2433  140.0203  142.8398 H   0  0  0  0  0  0  0  0  0  0  0  0  # atno 7974 bound_to 7965
  154.6632  140.0566  157.0085 H   0  0  0  0  0  0  0  0  0  0  0  0  # atno 8008 bound_to 7997
  155.1198  140.3246  155.4481 H   0  0  0  0  0  0  0  0  0  0  0  0  # atno 8009 bound_to 7997
  156.2627  140.1999  156.6320 H   0  0  0  0  0  0  0  0  0  0  0  0  # atno 8010 bound_to 7997
  139.7620  143.8363  152.2609 H   0  0  0  0  0  0  0  0  0  0  0  0  # atno 10167 bound_to 10162
  157.2196  130.6972  149.6264 H   0  0  0  0  0  0  0  0  0  0  0  0  # atno 10718 bound_to 10713
  154.3634  135.6111  153.5702 H   0  0  0  0  0  0  0  0  0  0  0  0  # atno 10763 bound_to 10752
  152.9792  135.5820  154.4607 H   0  0  0  0  0  0  0  0  0  0  0  0  # atno 10764 bound_to 10752
  154.4348  135.2848  155.1865 H   0  0  0  0  0  0  0  0  0  0  0  0  # atno 10765 bound_to 10752
  140.4849  134.6040  157.4933 H   0  0  0  0  0  0  0  0  0  0  0  0  # atno 11005 bound_to 11000
  145.1247  140.9483  143.4580 LP  0  0  0  0  0  0  0  0  0  0  0  0  # atno 17320 bound_to 7965
  145.0446  139.3231  143.5959 LP  0  0  0  0  0  0  0  0  0  0  0  0  # atno 17321 bound_to 7965
  139.8372  144.7227  150.9377 LP  0  0  0  0  0  0  0  0  0  0  0  0  # atno 17342 bound_to 10162
  140.7808  143.4016  151.1139 LP  0  0  0  0  0  0  0  0  0  0  0  0  # atno 17343 bound_to 10162
  155.9683  130.4524  150.5773 LP  0  0  0  0  0  0  0  0  0  0  0  0  # atno 17370 bound_to 10713
  157.3589  131.0746  151.1652 LP  0  0  0  0  0  0  0  0  0  0  0  0  # atno 17371 bound_to 10713
  139.9804  134.7146  155.9870 LP  0  0  0  0  0  0  0  0  0  0  0  0  # atno 17394 bound_to 11000
  141.1513  133.6548  156.4022 LP  0  0  0  0  0  0  0  0  0  0  0  0  # atno 17395 bound_to 11000

$$$$
