AV-unprocessed.smi:157|AV-procd|sdf|1322|dock1
  -GOLD-   2262019 13D 1   1.00000     0.00000
 Structure written by MMmdl.
 36 38  0  0  0  0  0  0  0  0  2 V2000
  151.0461  136.1584  158.1641 O   0  0  0  0  0  0  0  0  0  0  0  0
  150.6804  136.2481  156.8038 C   0  0  0  0  0  0  0  0  0  0  0  0
  151.6780  137.1339  156.0418 C   0  0  2  0  0  0  0  0  0  0  0  0
  151.8420  138.3521  156.7658 O   0  0  0  0  0  0  0  0  0  0  0  0
  152.0163  139.3765  155.8463 C   0  0  2  0  0  0  0  0  0  0  0  0
  151.6644  140.6788  156.4869 N   0  0  0  0  0  0  0  0  0  0  0  0
  150.7053  141.5420  156.0902 C   0  0  0  0  0  0  0  0  0  0  0  0
  150.6080  142.6284  156.8378 N   0  3  0  0  0  0  0  0  0  0  0  0
  151.5719  142.5170  157.8175 C   0  0  0  0  0  0  0  0  0  0  0  0
  152.2117  141.2965  157.5872 C   0  0  0  0  0  0  0  0  0  0  0  0
  153.2672  140.6874  158.2831 N   0  0  0  0  0  0  0  0  0  0  0  0
  153.6489  141.0668  159.4591 C   0  0  0  0  0  0  0  0  0  0  0  0
  153.2072  142.1366  160.2200 N   0  0  0  0  0  0  0  0  0  0  0  0
  153.0114  143.4713  159.6823 C   0  0  0  0  0  0  0  0  0  0  0  0
  151.7471  143.6106  158.8242 C   0  0  2  0  0  0  0  0  0  0  0  0
  150.6313  143.7454  159.6802 O   0  0  0  0  0  0  0  0  0  0  0  0
  151.0589  139.0543  154.7109 C   0  0  0  0  0  0  0  0  0  0  0  0
  151.2019  137.5437  154.6292 C   0  0  1  0  0  0  0  0  0  0  0  0
  152.1786  137.2022  153.6654 O   0  0  0  0  0  0  0  0  0  0  0  0
  152.6518  136.6420  155.9980 H   0  0  0  0  0  0  0  0  0  0  0  0
  153.0601  139.4597  155.5387 H   0  0  0  0  0  0  0  0  0  0  0  0
  151.8220  144.5520  158.2786 H   0  0  0  0  0  0  0  0  0  0  0  0
  150.2573  137.0754  154.3498 H   0  0  0  0  0  0  0  0  0  0  0  0
  150.8604  136.9860  158.5813 H   0  0  0  0  0  0  0  0  0  0  0  0
  150.6322  135.2494  156.3684 H   0  0  0  0  0  0  0  0  0  0  0  0
  149.6788  136.6749  156.7468 H   0  0  0  0  0  0  0  0  0  0  0  0
  150.0761  141.3596  155.2373 H   0  0  0  0  0  0  0  0  0  0  0  0
  154.4325  140.5019  159.9661 H   0  0  0  0  0  0  0  0  0  0  0  0
  153.4523  142.1656  161.1995 H   0  0  0  0  0  0  0  0  0  0  0  0
  153.0079  144.1967  160.4964 H   0  0  0  0  0  0  0  0  0  0  0  0
  153.8828  143.7079  159.0698 H   0  0  0  0  0  0  0  0  0  0  0  0
  150.7023  143.1109  160.3766 H   0  0  0  0  0  0  0  0  0  0  0  0
  150.0441  139.3230  155.0086 H   0  0  0  0  0  0  0  0  0  0  0  0
  151.3202  139.5913  153.7979 H   0  0  0  0  0  0  0  0  0  0  0  0
  151.7474  137.0722  152.8342 H   0  0  0  0  0  0  0  0  0  0  0  0
  149.9577  143.3927  156.7060 H   0  0  0  0  0  0  0  0  0  0  0  0
  1  2  1  0  0  0  0
  1 24  1  0  0  0  0
  2  3  1  0  0  0  0
  2 25  1  0  0  0  0
  2 26  1  0  0  0  0
  3 20  1  0  0  0  0
  3 18  1  0  0  0  0
  3  4  1  0  0  0  0
  4  5  1  0  0  0  0
  5 21  1  0  0  0  0
  5  6  1  0  0  0  0
  5 17  1  0  0  0  0
  6 10  1  0  0  0  0
  6  7  1  0  0  0  0
  7  8  2  0  0  0  0
  7 27  1  0  0  0  0
  8  9  1  0  0  0  0
  8 36  1  0  0  0  0
  9 15  1  0  0  0  0
  9 10  2  0  0  0  0
 10 11  1  0  0  0  0
 11 12  2  0  0  0  0
 12 13  1  0  0  0  0
 12 28  1  0  0  0  0
 13 14  1  0  0  0  0
 13 29  1  0  0  0  0
 14 15  1  0  0  0  0
 14 30  1  0  0  0  0
 14 31  1  0  0  0  0
 15 22  1  0  0  0  0
 15 16  1  0  0  0  0
 16 32  1  0  0  0  0
 17 18  1  0  0  0  0
 17 33  1  0  0  0  0
 17 34  1  0  0  0  0
 18 23  1  0  0  0  0
 18 19  1  0  0  0  0
 19 35  1  0  0  0  0
M  CHG  1   8   1
M  END
> <s_m_source_file>
AV-unprocessed.smi

> <i_m_source_file_index>
157

> <i_lp_mmshare_version>
43012

> <i_f3d_flags>
0

> <s_epik_input>
W09IXVtDSDJdW0NASF0xT1tDQEhdKFtDSDJdW0NAQEhdMVtPSF0pbihbY0hdbjIpYyhjMjMpTj1bQ0hdW05IXVtDSDJdW0NASF0zW09IXQ==

> <s_epik_cmdline>
J2VwaWtfcHl0aG9uJywgJy1waCcsICc3LjAnLCAnLXRuJywgJzgnLCAnLW1hJywgJzIwMCcsICctbWV0YWxfYmluZGluZycsICctaW1hZScsICc8aW5maWxlLm1hZT4nLCAnLW9tYWUnLCAnPG91dGZpbGUubWFlPic=

> <r_epik_Ionization_Penalty>
1.68594

> <r_epik_Ionization_Penalty_Charging>
0

> <r_epik_Ionization_Penalty_Neutral>
1.68594

> <r_epik_State_Penalty>
1.79006

> <r_epik_Charging_Adjusted_Penalty>
1.79006

> <i_epik_Tot_Q>
1

> <i_epik_Tot_abs_Q>
1

> <r_epik_Metal_State_Penalty>
5.85324

> <b_epik_Metal_Only>
0

> <s_epik_Chemistry_Notes>
This compound has an imine and may undergo hydrolysis. This compound contains an acetal/aminal-like group ( X-CH(R)-Y where X, Y are N, S, or O) that may be acid/base labile, releasing an aldehyde.

> <s_lp_Force_Field>
OPLS_2005

> <r_lp_Energy>
53.7485

> <b_lp_Chiralities_Consistent>
1

> <s_lp_Variant>
AV-unprocessed.smi:157-32

> <Gold.Version>
5.8.1

> <Gold.Id.Protein>
6NUR|6NUR_protein|mol2

> <Gold.PLP.Fitness>
50.9908

> <Gold.PLP.PLP>
-35.3643

> <Gold.PLP.part.hbond>
-5.3064

> <Gold.PLP.part.metal>
0.0000

> <Gold.PLP.part.buried>
-4.9913

> <Gold.PLP.part.nonpolar>
-24.3744

> <Gold.PLP.part.repulsive>
0.1083

> <Gold.PLP.ligand.clash>
0.0000

> <Gold.PLP.ligand.torsion>
0.0889

> <Gold.PLP.Chemscore.Hbond>
5.2598

> <Gold.PLP.Chemscore.CHOScore>
0.0000

> <Gold.PLP.Chemscore.Metal>
0.0000

> <Gold.Chemscore.Hbonds>
donor molecule, donor type, donor heavy atom, donor atom, acceptor molecule, acceptor atom, score
      L1  H     8    36       P1  8028  2.00
      L1  H    19    35       P1  7949  1.00
      P1  H  6896  6907       L1     1  0.54
      P1  H  7997  8010       L1    11  0.67
      P1  H 10752 10763       L1    19  1.00

> <Gold.PLP.Chemscore.Internal.Correction>
0.0250

> <Gold.Rescore>
     Score         DG    S(hbond)    S(metal)    S(lipo)     H(rot)  DE(clash)    DE(int)     intcor
     14.37     -14.68       3.63        0.00      55.14       3.67       0.20       0.11       ----

> <Gold.Chemscore.Fitness>
14.3725

> <Gold.Chemscore.DG>
-14.6790

> <Gold.Chemscore.ZeroCoef>
-5.4800

> <Gold.Chemscore.Hbond>
3.6323

> <Gold.Chemscore.Metal>
0.0000

> <Gold.Chemscore.Lipo>
55.1447

> <Gold.Chemscore.Internal_Hbond>
0.0000

> <Gold.Chemscore.DEClash>
0.1976

> <Gold.Chemscore.DEInternal>
0.1089

> <Gold.Chemscore.Rot>
3.6659

> <Gold.Chemscore.Internal.Correction>
   9.000000E+99

> <Gold.Chemscore.Hbonds>
donor molecule, donor type, donor heavy atom, donor atom, acceptor molecule, acceptor atom, score
      L1  H     8    36       P1  8028  0.95
      L1  H    19    35       P1  7949  0.95
      P1  H  6896  6907       L1     1  0.18
      P1  H  7997  8010       L1    11  0.48
      P1  H 10752 10763       L1    19  0.37

> <Gold.Chemscore.Hbond.Weighted>
-12.1319

> <Gold.Chemscore.Metal.Weighted>
-0.0000

> <Gold.Chemscore.Lipo.Weighted>
-6.4519

> <Gold.Chemscore.Internal_Hbond.Weighted>
0.0000

> <Gold.Chemscore.DEClash.Weighted>
0.1976

> <Gold.Chemscore.DEInternal.Weighted>
0.1089

> <Gold.Chemscore.Rot.Weighted>
9.3848

> <Gold.Chemscore.Internal.Correction.Weighted>
   9.000000E+99

> <Gold.Protein.RotatedTorsions>
[ 6907 6896 6895 6894 ] final  -45.55 input  -60.11 | X-H torsion
[ 7974 7965 7964 7962 ] final   28.42 input  175.53 | X-H torsion
[ 8008 7997 7996 7995 ] final   33.77 input   59.86 | X-H torsion
[ 10167 10162 10161 10158 ] final  168.16 input  -65.29 | X-H torsion
[ 10718 10713 10712 10709 ] final   14.40 input   66.30 | X-H torsion
[ 10763 10752 10751 10750 ] final   13.97 input  -60.55 | X-H torsion
[ 11005 11000 10999 10996 ] final -133.87 input  -57.11 | X-H torsion

> <Gold.Protein.ActiveResidues>
 VAL166  LYS551  ARG553  GLY616  TRP617  ASP618  TYR619  PRO620  LYS621  CYS622 
 ASP623  PHE694  ASN695  SER759  ASP760  ASP761  ALA762  ILE779  LEU786  VAL792 
 PHE793  MET794  SER795  GLU796  ALA797  LYS798  CYS799  TRP800  GLU811  SER814 

> <Gold.Protein.RotatedAtoms>
  150.9207  134.8624  159.7486 H   0  0  0  0  0  0  0  0  0  0  0  0  # atno 6907 bound_to 6896
  152.4991  134.4223  159.9494 H   0  0  0  0  0  0  0  0  0  0  0  0  # atno 6908 bound_to 6896
  151.4257  133.3645  159.2797 H   0  0  0  0  0  0  0  0  0  0  0  0  # atno 6909 bound_to 6896
  146.1729  139.7058  142.8954 H   0  0  0  0  0  0  0  0  0  0  0  0  # atno 7974 bound_to 7965
  155.1440  140.3268  155.4446 H   0  0  0  0  0  0  0  0  0  0  0  0  # atno 8008 bound_to 7997
  156.2596  140.1988  156.6504 H   0  0  0  0  0  0  0  0  0  0  0  0  # atno 8009 bound_to 7997
  154.6522  140.0557  156.9955 H   0  0  0  0  0  0  0  0  0  0  0  0  # atno 8010 bound_to 7997
  139.4961  144.3844  151.9587 H   0  0  0  0  0  0  0  0  0  0  0  0  # atno 10167 bound_to 10162
  157.0386  130.6222  149.5747 H   0  0  0  0  0  0  0  0  0  0  0  0  # atno 10718 bound_to 10713
  153.1668  135.6805  153.8664 H   0  0  0  0  0  0  0  0  0  0  0  0  # atno 10763 bound_to 10752
  153.8041  135.3152  155.3394 H   0  0  0  0  0  0  0  0  0  0  0  0  # atno 10764 bound_to 10752
  154.7971  135.4801  154.0277 H   0  0  0  0  0  0  0  0  0  0  0  0  # atno 10765 bound_to 10752
  140.9042  134.1651  157.4438 H   0  0  0  0  0  0  0  0  0  0  0  0  # atno 11005 bound_to 11000
  145.4290  141.0413  143.2921 LP  0  0  0  0  0  0  0  0  0  0  0  0  # atno 17320 bound_to 7965
  144.8191  139.5823  143.6995 LP  0  0  0  0  0  0  0  0  0  0  0  0  # atno 17321 bound_to 7965
  140.3281  144.3349  150.5994 LP  0  0  0  0  0  0  0  0  0  0  0  0  # atno 17342 bound_to 10162
  140.5668  143.2185  151.7670 LP  0  0  0  0  0  0  0  0  0  0  0  0  # atno 17343 bound_to 10162
  156.0045  130.5130  150.7783 LP  0  0  0  0  0  0  0  0  0  0  0  0  # atno 17370 bound_to 10713
  157.5122  131.0926  151.0184 LP  0  0  0  0  0  0  0  0  0  0  0  0  # atno 17371 bound_to 10713
  139.8747  134.9910  156.5529 LP  0  0  0  0  0  0  0  0  0  0  0  0  # atno 17394 bound_to 11000
  140.8192  133.8367  155.8880 LP  0  0  0  0  0  0  0  0  0  0  0  0  # atno 17395 bound_to 11000

$$$$
