AV-unprocessed.smi:1526|AV-procd|sdf|6146|dock6
  -GOLD-   22720 6293D 1   1.00000     0.00000
 Structure written by MMmdl.
 34 35  0  0  0  0  0  0  0  0  3 V2000
  151.7050  141.2530  157.4748 O   0  0  0  0  0  0  0  0  0  0  0  0
  150.7043  141.9539  157.3296 C   0  0  0  0  0  0  0  0  0  0  0  0
  149.3167  141.2884  157.3398 C   0  0  0  0  0  0  0  0  0  0  0  0
  148.5617  141.4046  156.0781 N   0  0  0  0  0  0  0  0  0  0  0  0
  147.2908  142.0088  156.1480 C   0  0  0  0  0  0  0  0  0  0  0  0
  146.5153  142.1744  155.0586 C   0  0  0  0  0  0  0  0  0  0  0  0
  145.2165  142.8048  155.1482 N   0  3  0  0  0  0  0  0  0  0  0  0
  144.8809  143.5889  154.2664 O   0  0  0  0  0  0  0  0  0  0  0  0
  144.4902  142.5389  156.1011 O   0  5  0  0  0  0  0  0  0  0  0  0
  147.0299  141.7037  153.7871 C   0  0  0  0  0  0  0  0  0  0  0  0
  148.2465  141.1288  153.7126 C   0  0  0  0  0  0  0  0  0  0  0  0
  149.0915  140.9561  154.8986 C   0  0  0  0  0  0  0  0  0  0  0  0
  150.2099  140.4461  154.8347 O   0  0  0  0  0  0  0  0  0  0  0  0
  150.7703  143.2836  157.1586 N   0  0  0  0  0  0  0  0  0  0  0  0
  152.0010  144.0565  157.0979 C   0  0  0  0  0  0  0  0  0  0  0  0
  152.3394  144.6060  158.4781 C   0  0  0  0  0  0  0  0  0  0  0  0
  152.4828  143.6450  159.6689 C   0  0  0  0  0  0  0  0  0  0  0  0
  151.8785  144.7338  160.5596 C   0  0  0  0  0  0  0  0  0  0  0  0
  151.2609  145.3343  159.2934 C   0  0  0  0  0  0  0  0  0  0  0  0
  149.4396  140.2387  157.6120 H   0  0  0  0  0  0  0  0  0  0  0  0
  148.7430  141.7223  158.1601 H   0  0  0  0  0  0  0  0  0  0  0  0
  147.0023  142.3306  157.1386 H   0  0  0  0  0  0  0  0  0  0  0  0
  146.4439  141.8085  152.8860 H   0  0  0  0  0  0  0  0  0  0  0  0
  148.6107  140.7855  152.7553 H   0  0  0  0  0  0  0  0  0  0  0  0
  149.9063  143.7936  157.0467 H   0  0  0  0  0  0  0  0  0  0  0  0
  152.8087  143.4219  156.7311 H   0  0  0  0  0  0  0  0  0  0  0  0
  151.8825  144.8696  156.3798 H   0  0  0  0  0  0  0  0  0  0  0  0
  153.2281  145.2401  158.4337 H   0  0  0  0  0  0  0  0  0  0  0  0
  151.8416  142.7659  159.5841 H   0  0  0  0  0  0  0  0  0  0  0  0
  153.5098  143.3704  159.9121 H   0  0  0  0  0  0  0  0  0  0  0  0
  151.1569  144.3758  161.2946 H   0  0  0  0  0  0  0  0  0  0  0  0
  152.6336  145.3797  161.0105 H   0  0  0  0  0  0  0  0  0  0  0  0
  151.3019  146.4225  159.2361 H   0  0  0  0  0  0  0  0  0  0  0  0
  150.2548  144.9593  159.0980 H   0  0  0  0  0  0  0  0  0  0  0  0
  1  2  2  0  0  0  0
  2  3  1  0  0  0  0
  2 14  1  0  0  0  0
  3  4  1  0  0  0  0
  3 20  1  0  0  0  0
  3 21  1  0  0  0  0
  4 12  1  0  0  0  0
  4  5  1  0  0  0  0
  5  6  2  0  0  0  0
  5 22  1  0  0  0  0
  6  7  1  0  0  0  0
  6 10  1  0  0  0  0
  7  8  2  0  0  0  0
  7  9  1  0  0  0  0
 10 11  2  0  0  0  0
 10 23  1  0  0  0  0
 11 12  1  0  0  0  0
 11 24  1  0  0  0  0
 12 13  2  0  0  0  0
 14 15  1  0  0  0  0
 14 25  1  0  0  0  0
 15 16  1  0  0  0  0
 15 26  1  0  0  0  0
 15 27  1  0  0  0  0
 16 19  1  0  0  0  0
 16 17  1  0  0  0  0
 16 28  1  0  0  0  0
 17 18  1  0  0  0  0
 17 29  1  0  0  0  0
 17 30  1  0  0  0  0
 18 19  1  0  0  0  0
 18 31  1  0  0  0  0
 18 32  1  0  0  0  0
 19 33  1  0  0  0  0
 19 34  1  0  0  0  0
M  CHG  1   7   1
M  CHG  1   9  -1
M  END
> <s_m_source_file>
AV-unprocessed.smi

> <i_m_source_file_index>
1526

> <i_lp_mmshare_version>
43012

> <i_f3d_flags>
0

> <s_epik_input>
W0NIMl0xW0NIMl1bQ0gyXVtDSF0xW0NIMl1bTkhdQyg9TylbQ0gyXW4yW2NIXWMoW04rXSg9TylbTy1dKVtjSF1bY0hdYzI9Tw==

> <s_epik_cmdline>
J2VwaWtfcHl0aG9uJywgJy1waCcsICc3LjAnLCAnLXRuJywgJzgnLCAnLW1hJywgJzIwMCcsICctbWV0YWxfYmluZGluZycsICctaW1hZScsICc8aW5maWxlLm1hZT4nLCAnLW9tYWUnLCAnPG91dGZpbGUubWFlPic=

> <r_lp_tautomer_probability>
1

> <r_epik_Ionization_Penalty>
1.93777e-08

> <r_epik_Ionization_Penalty_Charging>
7.59562e-11

> <r_epik_Ionization_Penalty_Neutral>
1.93017e-08

> <r_epik_State_Penalty>
-0

> <r_epik_Charging_Adjusted_Penalty>
7.59562e-11

> <i_epik_Tot_Q>
0

> <i_epik_Tot_abs_Q>
2

> <r_epik_Metal_State_Penalty>
-0

> <b_epik_Metal_Only>
0

> <s_lp_Force_Field>
OPLS_2005

> <r_lp_Energy>
24.467

> <b_lp_Chiralities_Consistent>
1

> <s_lp_Variant>
AV-unprocessed.smi:1526-1

> <Gold.Version>
5.8.1

> <Gold.Id.Protein>
6NUR|6NUR_protein|mol2

> <Gold.PLP.Fitness>
44.6833

> <Gold.PLP.PLP>
-40.8891

> <Gold.PLP.part.hbond>
-2.0000

> <Gold.PLP.part.metal>
0.0000

> <Gold.PLP.part.buried>
-5.9348

> <Gold.PLP.part.nonpolar>
-33.9315

> <Gold.PLP.part.repulsive>
0.3793

> <Gold.PLP.ligand.clash>
0.0000

> <Gold.PLP.ligand.torsion>
0.8670

> <Gold.PLP.Chemscore.Hbond>
1.8080

> <Gold.PLP.Chemscore.CHOScore>
0.0000

> <Gold.PLP.Chemscore.Metal>
0.0000

> <Gold.Chemscore.Hbonds>
donor molecule, donor type, donor heavy atom, donor atom, acceptor molecule, acceptor atom, score
      L1  H    14    25       P1  8028  0.82
      P1  H  7989  7998       L1    13  0.99

> <Gold.PLP.Chemscore.Internal.Correction>
0.1043

> <Gold.Rescore>
     Score         DG    S(hbond)    S(metal)    S(lipo)     H(rot)  DE(clash)    DE(int)     intcor
     14.20     -17.50       1.75        0.00      92.48       1.82       1.40       1.89       ----

> <Gold.Chemscore.Fitness>
14.2036

> <Gold.Chemscore.DG>
-17.4972

> <Gold.Chemscore.ZeroCoef>
-5.4800

> <Gold.Chemscore.Hbond>
1.7528

> <Gold.Chemscore.Metal>
0.0000

> <Gold.Chemscore.Lipo>
92.4753

> <Gold.Chemscore.Internal_Hbond>
0.0000

> <Gold.Chemscore.DEClash>
1.4003

> <Gold.Chemscore.DEInternal>
1.8933

> <Gold.Chemscore.Rot>
1.8190

> <Gold.Chemscore.Internal.Correction>
   9.000000E+99

> <Gold.Chemscore.Hbonds>
donor molecule, donor type, donor heavy atom, donor atom, acceptor molecule, acceptor atom, score
      L1  H    14    25       P1  8028  0.76
      P1  H  7989  7998       L1    13  0.90

> <Gold.Chemscore.Hbond.Weighted>
-5.8542

> <Gold.Chemscore.Metal.Weighted>
-0.0000

> <Gold.Chemscore.Lipo.Weighted>
-10.8196

> <Gold.Chemscore.Internal_Hbond.Weighted>
0.0000

> <Gold.Chemscore.DEClash.Weighted>
1.4003

> <Gold.Chemscore.DEInternal.Weighted>
1.8933

> <Gold.Chemscore.Rot.Weighted>
4.6567

> <Gold.Chemscore.Internal.Correction.Weighted>
   9.000000E+99

> <Gold.Protein.RotatedTorsions>
[ 6907 6896 6895 6894 ] final  -74.94 input  -60.11 | X-H torsion
[ 7974 7965 7964 7962 ] final -149.54 input  175.53 | X-H torsion
[ 8008 7997 7996 7995 ] final   41.33 input   59.86 | X-H torsion
[ 10167 10162 10161 10158 ] final -162.14 input  -65.29 | X-H torsion
[ 10718 10713 10712 10709 ] final   77.48 input   66.30 | X-H torsion
[ 10763 10752 10751 10750 ] final  153.78 input  -60.55 | X-H torsion
[ 11005 11000 10999 10996 ] final   29.04 input  -57.11 | X-H torsion

> <Gold.Protein.ActiveResidues>
 VAL166  LYS551  ARG553  GLY616  TRP617  ASP618  TYR619  PRO620  LYS621  CYS622 
 ASP623  PHE694  ASN695  SER759  ASP760  ASP761  ALA762  ILE779  LEU786  VAL792 
 PHE793  MET794  SER795  GLU796  ALA797  LYS798  CYS799  TRP800  GLU811  SER814 

> <Gold.Protein.RotatedAtoms>
  150.7076  134.4795  159.5463 H   0  0  0  0  0  0  0  0  0  0  0  0  # atno 6907 bound_to 6896
  152.2435  134.8202  160.0466 H   0  0  0  0  0  0  0  0  0  0  0  0  # atno 6908 bound_to 6896
  151.8975  133.3495  159.3856 H   0  0  0  0  0  0  0  0  0  0  0  0  # atno 6909 bound_to 6896
  144.7961  140.5051  143.5739 H   0  0  0  0  0  0  0  0  0  0  0  0  # atno 7974 bound_to 7965
  155.2678  140.3364  155.4267 H   0  0  0  0  0  0  0  0  0  0  0  0  # atno 8008 bound_to 7997
  156.2146  140.1784  156.7660 H   0  0  0  0  0  0  0  0  0  0  0  0  # atno 8009 bound_to 7997
  154.5735  140.0666  156.8984 H   0  0  0  0  0  0  0  0  0  0  0  0  # atno 8010 bound_to 7997
  139.6414  144.0253  152.2094 H   0  0  0  0  0  0  0  0  0  0  0  0  # atno 10167 bound_to 10162
  157.6712  130.9823  150.1647 H   0  0  0  0  0  0  0  0  0  0  0  0  # atno 10718 bound_to 10713
  154.1418  135.2820  155.3159 H   0  0  0  0  0  0  0  0  0  0  0  0  # atno 10763 bound_to 10752
  154.6281  135.5444  153.7653 H   0  0  0  0  0  0  0  0  0  0  0  0  # atno 10764 bound_to 10752
  153.0248  135.6456  154.1564 H   0  0  0  0  0  0  0  0  0  0  0  0  # atno 10765 bound_to 10752
  140.3092  134.2669  155.7738 H   0  0  0  0  0  0  0  0  0  0  0  0  # atno 11005 bound_to 11000
  145.5669  139.1481  143.3310 LP  0  0  0  0  0  0  0  0  0  0  0  0  # atno 17320 bound_to 7965
  146.2230  140.5804  142.9009 LP  0  0  0  0  0  0  0  0  0  0  0  0  # atno 17321 bound_to 7965
  139.9944  144.6338  150.7785 LP  0  0  0  0  0  0  0  0  0  0  0  0  # atno 17342 bound_to 10162
  140.7492  143.2935  151.3266 LP  0  0  0  0  0  0  0  0  0  0  0  0  # atno 17343 bound_to 10162
  156.2415  130.3691  149.8332 LP  0  0  0  0  0  0  0  0  0  0  0  0  # atno 17370 bound_to 10713
  156.6130  130.8595  151.3458 LP  0  0  0  0  0  0  0  0  0  0  0  0  # atno 17371 bound_to 10713
  141.2112  133.7697  156.9881 LP  0  0  0  0  0  0  0  0  0  0  0  0  # atno 17394 bound_to 11000
  140.1040  134.9518  157.1966 LP  0  0  0  0  0  0  0  0  0  0  0  0  # atno 17395 bound_to 11000

$$$$
