AV-unprocessed.smi:99|AV-procd|sdf|889|dock6
  -GOLD-   2262017373D 1   1.00000     0.00000
 Structure written by MMmdl.
 52 55  0  0  0  0  0  0  0  0  2 V2000
  147.2051  136.0460  157.9480 O   0  0  0  0  0  0  0  0  0  0  0  0
  147.4877  135.0139  158.5603 C   0  0  0  0  0  0  0  0  0  0  0  0
  147.8716  133.8712  157.9585 O   0  0  0  0  0  0  0  0  0  0  0  0
  148.2891  133.8896  156.6038 C   0  0  0  0  0  0  0  0  0  0  0  0
  149.8293  133.9348  156.5452 C   0  0  2  0  0  0  0  0  0  0  0  0
  150.2830  134.9265  157.4563 O   0  0  0  0  0  0  0  0  0  0  0  0
  150.3291  136.1695  156.8219 C   0  0  1  0  0  0  0  0  0  0  0  0
  151.5755  136.8886  157.2940 N   0  0  0  0  0  0  0  0  0  0  0  0
  151.4838  138.1808  157.7819 C   0  0  0  0  0  0  0  0  0  0  0  0
  152.5742  138.8503  158.2081 C   0  0  0  0  0  0  0  0  0  0  0  0
  153.8803  138.1997  158.1539 C   0  0  0  0  0  0  0  0  0  0  0  0
  154.8705  138.8198  158.5367 O   0  0  0  0  0  0  0  0  0  0  0  0
  153.9424  136.9221  157.6781 N   0  5  0  0  0  0  0  0  0  0  0  0
  152.8395  136.2389  157.2526 C   0  0  0  0  0  0  0  0  0  0  0  0
  152.8858  135.0792  156.8424 O   0  0  0  0  0  0  0  0  0  0  0  0
  150.3054  135.9292  155.2949 C   0  0  1  0  0  0  0  0  0  0  0  0
  151.3637  136.5442  154.5830 O   0  0  0  0  0  0  0  0  0  0  0  0
  150.4024  134.4107  155.2042 C   0  0  2  0  0  0  0  0  0  0  0  0
  149.6407  133.8903  154.1209 O   0  0  0  0  0  0  0  0  0  0  0  0
  149.5212  132.5611  153.9259 C   0  0  0  0  0  0  0  0  0  0  0  0
  150.2308  131.7195  154.4799 O   0  0  0  0  0  0  0  0  0  0  0  0
  148.4302  132.2172  152.9688 C   0  0  0  0  0  0  0  0  0  0  0  0
  147.9583  133.2029  152.0705 C   0  0  0  0  0  0  0  0  0  0  0  0
  146.9327  132.9047  151.1526 C   0  0  0  0  0  0  0  0  0  0  0  0
  146.3662  131.6173  151.1213 C   0  0  0  0  0  0  0  0  0  0  0  0
  146.8259  130.6279  152.0099 C   0  0  0  0  0  0  0  0  0  0  0  0
  147.8511  130.9241  152.9291 C   0  0  0  0  0  0  0  0  0  0  0  0
  147.4404  134.9001  160.0466 C   0  0  0  0  0  0  0  0  0  0  0  0
  147.3821  136.0761  160.8305 C   0  0  0  0  0  0  0  0  0  0  0  0
  147.3367  135.9999  162.2362 C   0  0  0  0  0  0  0  0  0  0  0  0
  147.3495  134.7465  162.8753 C   0  0  0  0  0  0  0  0  0  0  0  0
  147.4077  133.5691  162.1070 C   0  0  0  0  0  0  0  0  0  0  0  0
  147.4525  133.6434  160.7010 C   0  0  0  0  0  0  0  0  0  0  0  0
  147.9193  132.9841  156.1213 H   0  0  0  0  0  0  0  0  0  0  0  0
  147.8517  134.7409  156.0804 H   0  0  0  0  0  0  0  0  0  0  0  0
  150.2363  132.9580  156.8087 H   0  0  0  0  0  0  0  0  0  0  0  0
  149.4713  136.7467  157.1678 H   0  0  0  0  0  0  0  0  0  0  0  0
  150.5203  138.6661  157.8300 H   0  0  0  0  0  0  0  0  0  0  0  0
  152.4838  139.8575  158.5879 H   0  0  0  0  0  0  0  0  0  0  0  0
  149.3464  136.2818  154.9125 H   0  0  0  0  0  0  0  0  0  0  0  0
  151.0327  136.8350  153.7469 H   0  0  0  0  0  0  0  0  0  0  0  0
  151.4480  134.1015  155.1537 H   0  0  0  0  0  0  0  0  0  0  0  0
  148.3785  134.1983  152.0750 H   0  0  0  0  0  0  0  0  0  0  0  0
  146.5810  133.6652  150.4709 H   0  0  0  0  0  0  0  0  0  0  0  0
  145.5805  131.3886  150.4165 H   0  0  0  0  0  0  0  0  0  0  0  0
  146.3925  129.6390  151.9867 H   0  0  0  0  0  0  0  0  0  0  0  0
  148.1799  130.1406  153.5960 H   0  0  0  0  0  0  0  0  0  0  0  0
  147.3718  137.0500  160.3621 H   0  0  0  0  0  0  0  0  0  0  0  0
  147.2922  136.9048  162.8241 H   0  0  0  0  0  0  0  0  0  0  0  0
  147.3150  134.6885  163.9532 H   0  0  0  0  0  0  0  0  0  0  0  0
  147.4184  132.6063  162.5964 H   0  0  0  0  0  0  0  0  0  0  0  0
  147.4962  132.7202  160.1416 H   0  0  0  0  0  0  0  0  0  0  0  0
  1  2  2  0  0  0  0
  2  3  1  0  0  0  0
  2 28  1  0  0  0  0
  3  4  1  0  0  0  0
  4  5  1  0  0  0  0
  4 34  1  0  0  0  0
  4 35  1  0  0  0  0
  5 18  1  0  0  0  0
  5  6  1  0  0  0  0
  5 36  1  0  0  0  0
  6  7  1  0  0  0  0
  7  8  1  0  0  0  0
  7 16  1  0  0  0  0
  7 37  1  0  0  0  0
  8 14  1  0  0  0  0
  8  9  1  0  0  0  0
  9 10  2  0  0  0  0
  9 38  1  0  0  0  0
 10 11  1  0  0  0  0
 10 39  1  0  0  0  0
 11 12  2  0  0  0  0
 11 13  1  0  0  0  0
 13 14  1  0  0  0  0
 14 15  2  0  0  0  0
 16 17  1  0  0  0  0
 16 18  1  0  0  0  0
 16 40  1  0  0  0  0
 17 41  1  0  0  0  0
 18 19  1  0  0  0  0
 18 42  1  0  0  0  0
 19 20  1  0  0  0  0
 20 21  2  0  0  0  0
 20 22  1  0  0  0  0
 22 27  1  0  0  0  0
 22 23  2  0  0  0  0
 23 24  1  0  0  0  0
 23 43  1  0  0  0  0
 24 25  2  0  0  0  0
 24 44  1  0  0  0  0
 25 26  1  0  0  0  0
 25 45  1  0  0  0  0
 26 27  2  0  0  0  0
 26 46  1  0  0  0  0
 27 47  1  0  0  0  0
 28 33  1  0  0  0  0
 28 29  2  0  0  0  0
 29 30  1  0  0  0  0
 29 48  1  0  0  0  0
 30 31  2  0  0  0  0
 30 49  1  0  0  0  0
 31 32  1  0  0  0  0
 31 50  1  0  0  0  0
 32 33  2  0  0  0  0
 32 51  1  0  0  0  0
 33 52  1  0  0  0  0
M  CHG  1  13  -1
M  END
> <s_m_source_file>
AV-unprocessed.smi

> <i_m_source_file_index>
99

> <i_lp_mmshare_version>
43012

> <i_f3d_flags>
0

> <s_epik_input>
W2NIXTFbY0hdW2NIXVtjSF1bY0hdYzFDKD1PKU9bQ0gyXVtDQEBIXTJPW0NAQEhdKG4zW2NIXVtjSF1jKD1PKVtuSF1jMz1PKVtDQEBIXShbT0hdKVtDQEhdMk9DKD1PKWM0W2NIXVtjSF1bY0hdW2NIXVtjSF00

> <s_epik_cmdline>
J2VwaWtfcHl0aG9uJywgJy1waCcsICc3LjAnLCAnLXRuJywgJzgnLCAnLW1hJywgJzIwMCcsICctbWV0YWxfYmluZGluZycsICctaW1hZScsICc8aW5maWxlLm1hZT4nLCAnLW9tYWUnLCAnPG91dGZpbGUubWFlPic=

> <r_lp_tautomer_probability>
1

> <r_epik_Ionization_Penalty>
2.89159

> <r_epik_Ionization_Penalty_Charging>
2.1077e-08

> <r_epik_Ionization_Penalty_Neutral>
2.89159

> <r_epik_State_Penalty>
2.88671

> <r_epik_Charging_Adjusted_Penalty>
2.88671

> <i_epik_Tot_Q>
-1

> <i_epik_Tot_abs_Q>
1

> <r_epik_Metal_State_Penalty>
0.0727308

> <b_epik_Metal_Only>
1

> <s_epik_Chemistry_Notes>
This compound has an ester and may undergo hydrolysis at high or low pH. This compound contains an acetal/aminal-like group ( X-CH(R)-Y where X, Y are N, S, or O) that may be acid/base labile, releasing an aldehyde.

> <s_lp_Force_Field>
OPLS_2005

> <r_lp_Energy>
49.6514

> <b_lp_Chiralities_Consistent>
1

> <s_lp_Variant>
AV-unprocessed.smi:99-25

> <Gold.Version>
5.8.1

> <Gold.Id.Protein>
6NUR|6NUR_protein|mol2

> <Gold.PLP.Fitness>
57.7073

> <Gold.PLP.PLP>
-49.9518

> <Gold.PLP.part.hbond>
-4.2159

> <Gold.PLP.part.metal>
0.0000

> <Gold.PLP.part.buried>
-5.0682

> <Gold.PLP.part.nonpolar>
-39.3789

> <Gold.PLP.part.repulsive>
0.1627

> <Gold.PLP.ligand.clash>
0.0000

> <Gold.PLP.ligand.torsion>
1.2061

> <Gold.PLP.Chemscore.Hbond>
3.2272

> <Gold.PLP.Chemscore.CHOScore>
0.0000

> <Gold.PLP.Chemscore.Metal>
0.0000

> <Gold.Chemscore.Hbonds>
donor molecule, donor type, donor heavy atom, donor atom, acceptor molecule, acceptor atom, score
      L1  H    17    41       P1  7949  0.03
      P1  H  6896  6907       L1     6  0.59
      P1  H  7997  8010       L1    12  0.99
      P1  H 10752 10763       L1    17  0.94
      P1  H 10752 10764       L1    15  0.69

> <Gold.PLP.Chemscore.Internal.Correction>
0.4861

> <Gold.Rescore>
     Score         DG    S(hbond)    S(metal)    S(lipo)     H(rot)  DE(clash)    DE(int)     intcor
     11.77     -17.98       2.14        0.00     114.35       3.13       0.14       6.07       ----

> <Gold.Chemscore.Fitness>
11.7672

> <Gold.Chemscore.DG>
-17.9761

> <Gold.Chemscore.ZeroCoef>
-5.4800

> <Gold.Chemscore.Hbond>
2.1382

> <Gold.Chemscore.Metal>
0.0000

> <Gold.Chemscore.Lipo>
114.3520

> <Gold.Chemscore.Internal_Hbond>
0.0000

> <Gold.Chemscore.DEClash>
0.1382

> <Gold.Chemscore.DEInternal>
6.0707

> <Gold.Chemscore.Rot>
3.1346

> <Gold.Chemscore.Internal.Correction>
   9.000000E+99

> <Gold.Chemscore.Hbonds>
donor molecule, donor type, donor heavy atom, donor atom, acceptor molecule, acceptor atom, score
      L1  H    17    41       P1  7949  0.02
      P1  H  6896  6907       L1     6  0.50
      P1  H  7997  8010       L1    12  0.81
      P1  H 10752 10763       L1    17  0.27
      P1  H 10752 10764       L1    15  0.17

> <Gold.Chemscore.Hbond.Weighted>
-7.1415

> <Gold.Chemscore.Metal.Weighted>
-0.0000

> <Gold.Chemscore.Lipo.Weighted>
-13.3792

> <Gold.Chemscore.Internal_Hbond.Weighted>
0.0000

> <Gold.Chemscore.DEClash.Weighted>
0.1382

> <Gold.Chemscore.DEInternal.Weighted>
6.0707

> <Gold.Chemscore.Rot.Weighted>
8.0246

> <Gold.Chemscore.Internal.Correction.Weighted>
   9.000000E+99

> <Gold.Protein.RotatedTorsions>
[ 6907 6896 6895 6894 ] final  -95.64 input  -60.11 | X-H torsion
[ 7974 7965 7964 7962 ] final -118.64 input  175.53 | X-H torsion
[ 8008 7997 7996 7995 ] final  -19.83 input   59.86 | X-H torsion
[ 10167 10162 10161 10158 ] final   57.77 input  -65.29 | X-H torsion
[ 10718 10713 10712 10709 ] final  -15.91 input   66.30 | X-H torsion
[ 10763 10752 10751 10750 ] final   26.68 input  -60.55 | X-H torsion
[ 11005 11000 10999 10996 ] final  -24.44 input  -57.11 | X-H torsion

> <Gold.Protein.ActiveResidues>
 VAL166  LYS551  ARG553  GLY616  TRP617  ASP618  TYR619  PRO620  LYS621  CYS622 
 ASP623  PHE694  ASN695  SER759  ASP760  ASP761  ALA762  ILE779  LEU786  VAL792 
 PHE793  MET794  SER795  GLU796  ALA797  LYS798  CYS799  TRP800  GLU811  SER814 

> <Gold.Protein.RotatedAtoms>
  150.6969  134.1626  159.4181 H   0  0  0  0  0  0  0  0  0  0  0  0  # atno 6907 bound_to 6896
  151.9606  135.0123  160.0556 H   0  0  0  0  0  0  0  0  0  0  0  0  # atno 6908 bound_to 6896
  152.1930  133.4752  159.5055 H   0  0  0  0  0  0  0  0  0  0  0  0  # atno 6909 bound_to 6896
  145.0715  140.8362  143.4092 H   0  0  0  0  0  0  0  0  0  0  0  0  # atno 7974 bound_to 7965
  154.4810  140.2078  155.9763 H   0  0  0  0  0  0  0  0  0  0  0  0  # atno 8008 bound_to 7997
  156.1165  140.3220  155.8116 H   0  0  0  0  0  0  0  0  0  0  0  0  # atno 8009 bound_to 7997
  155.4543  140.0519  157.2988 H   0  0  0  0  0  0  0  0  0  0  0  0  # atno 8010 bound_to 7997
  140.1945  144.4052  150.6556 H   0  0  0  0  0  0  0  0  0  0  0  0  # atno 10167 bound_to 10162
  156.5951  130.4809  149.6263 H   0  0  0  0  0  0  0  0  0  0  0  0  # atno 10718 bound_to 10713
  153.0606  135.6554  154.0471 H   0  0  0  0  0  0  0  0  0  0  0  0  # atno 10763 bound_to 10752
  154.0140  135.2926  155.3390 H   0  0  0  0  0  0  0  0  0  0  0  0  # atno 10764 bound_to 10752
  154.6943  135.5270  153.8504 H   0  0  0  0  0  0  0  0  0  0  0  0  # atno 10765 bound_to 10752
  140.8846  133.7630  156.0344 H   0  0  0  0  0  0  0  0  0  0  0  0  # atno 11005 bound_to 11000
  145.1286  139.2646  143.5551 LP  0  0  0  0  0  0  0  0  0  0  0  0  # atno 17320 bound_to 7965
  146.3529  140.0931  142.8611 LP  0  0  0  0  0  0  0  0  0  0  0  0  # atno 17321 bound_to 7965
  140.6433  143.2208  151.6241 LP  0  0  0  0  0  0  0  0  0  0  0  0  # atno 17342 bound_to 10162
  139.5242  144.3110  152.0993 LP  0  0  0  0  0  0  0  0  0  0  0  0  # atno 17343 bound_to 10162
  156.2517  130.6911  151.1650 LP  0  0  0  0  0  0  0  0  0  0  0  0  # atno 17370 bound_to 10713
  157.7294  131.0624  150.5776 LP  0  0  0  0  0  0  0  0  0  0  0  0  # atno 17371 bound_to 10713
  140.8421  134.3054  157.5309 LP  0  0  0  0  0  0  0  0  0  0  0  0  # atno 17394 bound_to 11000
  139.8723  134.9422  156.3817 LP  0  0  0  0  0  0  0  0  0  0  0  0  # atno 17395 bound_to 11000

$$$$
