AV-unprocessed.smi:2243|AV-procd|sdf|9062|dock1
  -GOLD-   2272012263D 1   1.00000     0.00000
 Structure written by MMmdl.
 34 35  0  0  0  0  0  0  0  0  1 V2000
  148.1484  141.5443  154.6077 C   0  0  0  0  0  0  0  0  0  0  0  0
  148.6534  141.2557  156.0320 C   0  0  2  0  0  0  0  0  0  0  0  0
  148.1916  142.3379  156.9022 N   0  0  0  0  0  0  0  0  0  0  0  0
  147.4617  142.1961  158.0193 C   0  0  0  0  0  0  0  0  0  0  0  0
  147.0901  141.1088  158.4617 O   0  0  0  0  0  0  0  0  0  0  0  0
  147.1997  143.3881  158.5809 N   0  0  0  0  0  0  0  0  0  0  0  0
  146.4632  143.6417  159.7656 C   0  0  0  0  0  0  0  0  0  0  0  0
  145.6334  144.6633  159.9831 N   0  0  0  0  0  0  0  0  0  0  0  0
  145.1680  144.4668  161.2752 C   0  0  0  0  0  0  0  0  0  0  0  0
  145.7482  143.3271  161.7699 C   0  0  0  0  0  0  0  0  0  0  0  0
  146.5758  142.7913  160.8199 O   0  0  0  0  0  0  0  0  0  0  0  0
  150.1959  141.1083  156.1205 C   0  0  0  0  0  0  0  0  0  0  0  0
  150.7197  139.8855  155.3398 C   0  0  0  0  0  0  0  0  0  0  0  0
  152.2382  139.7191  155.5126 C   0  0  0  0  0  0  0  0  0  0  0  0
  152.5633  139.6077  156.8924 O   0  0  0  0  0  0  0  0  0  0  0  0
  152.2172  140.7724  157.6311 C   0  0  0  0  0  0  0  0  0  0  0  0
  150.6978  140.9983  157.5768 C   0  0  0  0  0  0  0  0  0  0  0  0
  148.3402  140.7105  153.9332 H   0  0  0  0  0  0  0  0  0  0  0  0
  148.6233  142.4323  154.1891 H   0  0  0  0  0  0  0  0  0  0  0  0
  147.0705  141.7114  154.6025 H   0  0  0  0  0  0  0  0  0  0  0  0
  148.2082  140.3111  156.3497 H   0  0  0  0  0  0  0  0  0  0  0  0
  148.4488  143.2741  156.6255 H   0  0  0  0  0  0  0  0  0  0  0  0
  147.5663  144.2029  158.1119 H   0  0  0  0  0  0  0  0  0  0  0  0
  144.4672  145.1465  161.7370 H   0  0  0  0  0  0  0  0  0  0  0  0
  145.6833  142.8000  162.7102 H   0  0  0  0  0  0  0  0  0  0  0  0
  150.6462  142.0006  155.6824 H   0  0  0  0  0  0  0  0  0  0  0  0
  150.2155  138.9821  155.6853 H   0  0  0  0  0  0  0  0  0  0  0  0
  150.4979  139.9810  154.2773 H   0  0  0  0  0  0  0  0  0  0  0  0
  152.5759  138.8190  154.9987 H   0  0  0  0  0  0  0  0  0  0  0  0
  152.7746  140.5588  155.0681 H   0  0  0  0  0  0  0  0  0  0  0  0
  152.5383  140.6411  158.6646 H   0  0  0  0  0  0  0  0  0  0  0  0
  152.7538  141.6379  157.2393 H   0  0  0  0  0  0  0  0  0  0  0  0
  150.4563  141.8998  158.1403 H   0  0  0  0  0  0  0  0  0  0  0  0
  150.1915  140.1734  158.0798 H   0  0  0  0  0  0  0  0  0  0  0  0
  1  2  1  0  0  0  0
  1 18  1  0  0  0  0
  1 19  1  0  0  0  0
  1 20  1  0  0  0  0
  2  3  1  0  0  0  0
  2 12  1  0  0  0  0
  2 21  1  0  0  0  0
  3  4  1  0  0  0  0
  3 22  1  0  0  0  0
  4  5  2  0  0  0  0
  4  6  1  0  0  0  0
  6  7  1  0  0  0  0
  6 23  1  0  0  0  0
  7 11  1  0  0  0  0
  7  8  2  0  0  0  0
  8  9  1  0  0  0  0
  9 10  2  0  0  0  0
  9 24  1  0  0  0  0
 10 11  1  0  0  0  0
 10 25  1  0  0  0  0
 12 17  1  0  0  0  0
 12 13  1  0  0  0  0
 12 26  1  0  0  0  0
 13 14  1  0  0  0  0
 13 27  1  0  0  0  0
 13 28  1  0  0  0  0
 14 15  1  0  0  0  0
 14 29  1  0  0  0  0
 14 30  1  0  0  0  0
 15 16  1  0  0  0  0
 16 17  1  0  0  0  0
 16 31  1  0  0  0  0
 16 32  1  0  0  0  0
 17 33  1  0  0  0  0
 17 34  1  0  0  0  0
M  END
> <s_m_source_file>
AV-unprocessed.smi

> <i_m_source_file_index>
2243

> <i_lp_mmshare_version>
43012

> <i_f3d_flags>
0

> <s_epik_input>
W0NIMl0xW0NIMl1PW0NIMl1bQ0gyXVtDSF0xW0NASF0oW0NIM10pW05IXUMoPU8pW05IXWMybltjSF1bY0hdbzI=

> <s_epik_cmdline>
J2VwaWtfcHl0aG9uJywgJy1waCcsICc3LjAnLCAnLXRuJywgJzgnLCAnLW1hJywgJzIwMCcsICctbWV0YWxfYmluZGluZycsICctaW1hZScsICc8aW5maWxlLm1hZT4nLCAnLW9tYWUnLCAnPG91dGZpbGUubWFlPic=

> <r_lp_tautomer_probability>
0.785861

> <r_epik_Ionization_Penalty>
5.17761e-05

> <r_epik_Ionization_Penalty_Charging>
0

> <r_epik_Ionization_Penalty_Neutral>
5.17761e-05

> <r_epik_State_Penalty>
0.0447104

> <r_epik_Charging_Adjusted_Penalty>
0.0447104

> <i_epik_Tot_Q>
0

> <i_epik_Tot_abs_Q>
0

> <r_epik_Metal_State_Penalty>
0.0593601

> <b_epik_Metal_Only>
0

> <s_lp_Force_Field>
OPLS_2005

> <r_lp_Energy>
10.6877

> <b_lp_Chiralities_Consistent>
1

> <s_lp_Variant>
AV-unprocessed.smi:2243-1

> <Gold.Version>
5.8.1

> <Gold.Id.Protein>
6NUR|6NUR_protein|mol2

> <Gold.PLP.Fitness>
40.5799

> <Gold.PLP.PLP>
-27.9938

> <Gold.PLP.part.hbond>
-6.0000

> <Gold.PLP.part.metal>
0.0000

> <Gold.PLP.part.buried>
-1.7927

> <Gold.PLP.part.nonpolar>
-19.9467

> <Gold.PLP.part.repulsive>
0.2199

> <Gold.PLP.ligand.clash>
0.0000

> <Gold.PLP.ligand.torsion>
0.3670

> <Gold.PLP.Chemscore.Hbond>
4.4350

> <Gold.PLP.Chemscore.CHOScore>
0.0000

> <Gold.PLP.Chemscore.Metal>
0.0000

> <Gold.Chemscore.Hbonds>
donor molecule, donor type, donor heavy atom, donor atom, acceptor molecule, acceptor atom, score
      L1  H     3    22       P1  8028  1.00
      L1  H     6    23       P1  8029  1.00
      P1  H  6933  6944       L1    11  0.80
      P1  H  6934  6946       L1    11  0.93
      P1  H  7997  8010       L1    15  0.52

> <Gold.PLP.Chemscore.Internal.Correction>
0.0151

> <Gold.Rescore>
     Score         DG    S(hbond)    S(metal)    S(lipo)     H(rot)  DE(clash)    DE(int)     intcor
     15.73     -17.28       2.58        0.00      56.07       1.32       0.03       1.52       ----

> <Gold.Chemscore.Fitness>
15.7328

> <Gold.Chemscore.DG>
-17.2770

> <Gold.Chemscore.ZeroCoef>
-5.4800

> <Gold.Chemscore.Hbond>
2.5796

> <Gold.Chemscore.Metal>
0.0000

> <Gold.Chemscore.Lipo>
56.0720

> <Gold.Chemscore.Internal_Hbond>
0.0000

> <Gold.Chemscore.DEClash>
0.0265

> <Gold.Chemscore.DEInternal>
1.5178

> <Gold.Chemscore.Rot>
1.3201

> <Gold.Chemscore.Internal.Correction>
   9.000000E+99

> <Gold.Chemscore.Hbonds>
donor molecule, donor type, donor heavy atom, donor atom, acceptor molecule, acceptor atom, score
      L1  H     3    22       P1  8028  0.50
      L1  H     6    23       P1  8029  0.34
      P1  H  6933  6944       L1    11  0.65
      P1  H  6934  6946       L1    11  0.88
      P1  H  7997  8010       L1    15  0.01

> <Gold.Chemscore.Hbond.Weighted>
-8.6160

> <Gold.Chemscore.Metal.Weighted>
-0.0000

> <Gold.Chemscore.Lipo.Weighted>
-6.5604

> <Gold.Chemscore.Internal_Hbond.Weighted>
0.0000

> <Gold.Chemscore.DEClash.Weighted>
0.0265

> <Gold.Chemscore.DEInternal.Weighted>
1.5178

> <Gold.Chemscore.Rot.Weighted>
3.3794

> <Gold.Chemscore.Internal.Correction.Weighted>
   9.000000E+99

> <Gold.Protein.RotatedTorsions>
[ 6907 6896 6895 6894 ] final  -59.01 input  -60.11 | X-H torsion
[ 7974 7965 7964 7962 ] final  168.50 input  175.53 | X-H torsion
[ 8008 7997 7996 7995 ] final   62.30 input   59.86 | X-H torsion
[ 10167 10162 10161 10158 ] final  -18.60 input  -65.29 | X-H torsion
[ 10718 10713 10712 10709 ] final   82.73 input   66.30 | X-H torsion
[ 10763 10752 10751 10750 ] final  -69.42 input  -60.55 | X-H torsion
[ 11005 11000 10999 10996 ] final -172.71 input  -57.11 | X-H torsion

> <Gold.Protein.ActiveResidues>
 VAL166  LYS551  ARG553  GLY616  TRP617  ASP618  TYR619  PRO620  LYS621  CYS622 
 ASP623  PHE694  ASN695  SER759  ASP760  ASP761  ALA762  ILE779  LEU786  VAL792 
 PHE793  MET794  SER795  GLU796  ALA797  LYS798  CYS799  TRP800  GLU811  SER814 

> <Gold.Protein.RotatedAtoms>
  150.7963  134.7025  159.6557 H   0  0  0  0  0  0  0  0  0  0  0  0  # atno 6907 bound_to 6896
  152.4075  134.6178  160.0052 H   0  0  0  0  0  0  0  0  0  0  0  0  # atno 6908 bound_to 6896
  151.6430  133.3288  159.3171 H   0  0  0  0  0  0  0  0  0  0  0  0  # atno 6909 bound_to 6896
  144.7387  139.8916  143.6403 H   0  0  0  0  0  0  0  0  0  0  0  0  # atno 7974 bound_to 7965
  155.6121  140.3495  155.4625 H   0  0  0  0  0  0  0  0  0  0  0  0  # atno 8008 bound_to 7997
  156.0146  140.1240  157.0444 H   0  0  0  0  0  0  0  0  0  0  0  0  # atno 8009 bound_to 7997
  154.4293  140.1075  156.5863 H   0  0  0  0  0  0  0  0  0  0  0  0  # atno 8010 bound_to 7997
  140.7260  143.4900  151.0004 H   0  0  0  0  0  0  0  0  0  0  0  0  # atno 10167 bound_to 10162
  157.6863  131.0060  150.2417 H   0  0  0  0  0  0  0  0  0  0  0  0  # atno 10718 bound_to 10713
  154.4031  135.6026  153.5908 H   0  0  0  0  0  0  0  0  0  0  0  0  # atno 10763 bound_to 10752
  152.9788  135.5911  154.4160 H   0  0  0  0  0  0  0  0  0  0  0  0  # atno 10764 bound_to 10752
  154.3962  135.2842  155.2103 H   0  0  0  0  0  0  0  0  0  0  0  0  # atno 10765 bound_to 10752
  140.4939  134.5958  157.4964 H   0  0  0  0  0  0  0  0  0  0  0  0  # atno 11005 bound_to 11000
  146.1138  139.4146  143.0271 LP  0  0  0  0  0  0  0  0  0  0  0  0  # atno 17320 bound_to 7965
  145.7405  141.0010  143.1303 LP  0  0  0  0  0  0  0  0  0  0  0  0  # atno 17321 bound_to 7965
  139.8604  143.7322  152.3173 LP  0  0  0  0  0  0  0  0  0  0  0  0  # atno 17342 bound_to 10162
  139.7535  144.7527  151.0470 LP  0  0  0  0  0  0  0  0  0  0  0  0  # atno 17343 bound_to 10162
  156.3030  130.3761  149.7732 LP  0  0  0  0  0  0  0  0  0  0  0  0  # atno 17370 bound_to 10713
  156.5356  130.8277  151.3252 LP  0  0  0  0  0  0  0  0  0  0  0  0  # atno 17371 bound_to 10713
  139.9753  134.7226  155.9962 LP  0  0  0  0  0  0  0  0  0  0  0  0  # atno 17394 bound_to 11000
  141.1470  133.6554  156.3898 LP  0  0  0  0  0  0  0  0  0  0  0  0  # atno 17395 bound_to 11000

$$$$
