AV-unprocessed.smi:2164|AV-procd|sdf|8809|dock10
  -GOLD-   2272011593D 1   1.00000     0.00000
 Structure written by MMmdl.
 40 42  0  0  0  0  0  0  0  0  2 V2000
  145.8461  136.1134  155.4537 O   0  0  0  0  0  0  0  0  0  0  0  0
  146.7399  136.1989  154.6099 C   0  0  0  0  0  0  0  0  0  0  0  0
  146.4738  136.1885  153.2913 N   0  0  0  0  0  0  0  0  0  0  0  0
  145.1492  136.0724  152.6846 C   0  0  0  0  0  0  0  0  0  0  0  0
  145.2149  135.8035  151.1684 C   0  0  0  0  0  0  0  0  0  0  0  0
  145.3480  134.3327  150.8132 C   0  0  0  0  0  0  0  0  0  0  0  0
  144.2611  133.6318  150.2450 C   0  0  0  0  0  0  0  0  0  0  0  0
  144.4184  132.2735  149.8992 C   0  0  0  0  0  0  0  0  0  0  0  0
  145.6592  131.6456  150.1309 C   0  0  0  0  0  0  0  0  0  0  0  0
  146.6753  132.3467  150.6803 N   0  3  0  0  0  0  0  0  0  0  0  0
  146.5646  133.6481  151.0259 C   0  0  0  0  0  0  0  0  0  0  0  0
  148.1641  136.3343  154.9236 C   0  0  0  0  0  0  0  0  0  0  0  0
  148.7926  137.5014  154.6860 C   0  0  0  0  0  0  0  0  0  0  0  0
  150.1454  137.7196  154.9546 N   0  0  0  0  0  0  0  0  0  0  0  0
  150.7240  138.9993  154.5612 C   0  0  0  0  0  0  0  0  0  0  0  0
  151.6798  139.4997  155.6321 C   0  0  0  0  0  0  0  0  0  0  0  0
  153.0329  138.2667  155.7310 S   0  0  0  0  0  0  0  0  0  0  0  0
  153.6856  138.2006  154.4140 O   0  0  0  0  0  0  0  0  0  0  0  0
  153.8404  138.5690  156.9223 O   0  0  0  0  0  0  0  0  0  0  0  0
  152.1538  136.8611  155.9797 N   0  0  0  0  0  0  0  0  0  0  0  0
  150.9280  136.7137  155.5775 C   0  0  0  0  0  0  0  0  0  0  0  0
  150.2633  135.4390  155.7978 C   0  0  0  0  0  0  0  0  0  0  0  0
  148.9622  135.2561  155.4925 C   0  0  0  0  0  0  0  0  0  0  0  0
  147.2557  136.2600  152.6563 H   0  0  0  0  0  0  0  0  0  0  0  0
  144.6306  135.2478  153.1744 H   0  0  0  0  0  0  0  0  0  0  0  0
  144.5535  136.9642  152.8868 H   0  0  0  0  0  0  0  0  0  0  0  0
  144.3252  136.2099  150.6854 H   0  0  0  0  0  0  0  0  0  0  0  0
  146.0621  136.3404  150.7401 H   0  0  0  0  0  0  0  0  0  0  0  0
  143.3201  134.1313  150.0657 H   0  0  0  0  0  0  0  0  0  0  0  0
  143.5996  131.7230  149.4593 H   0  0  0  0  0  0  0  0  0  0  0  0
  145.8682  130.6123  149.8949 H   0  0  0  0  0  0  0  0  0  0  0  0
  147.4498  134.1004  151.4489 H   0  0  0  0  0  0  0  0  0  0  0  0
  148.2814  138.3563  154.2652 H   0  0  0  0  0  0  0  0  0  0  0  0
  151.2373  138.8843  153.6059 H   0  0  0  0  0  0  0  0  0  0  0  0
  149.9419  139.7437  154.4087 H   0  0  0  0  0  0  0  0  0  0  0  0
  152.1069  140.4681  155.3717 H   0  0  0  0  0  0  0  0  0  0  0  0
  151.1958  139.5859  156.6057 H   0  0  0  0  0  0  0  0  0  0  0  0
  150.7953  134.6010  156.2251 H   0  0  0  0  0  0  0  0  0  0  0  0
  148.5320  134.2846  155.6861 H   0  0  0  0  0  0  0  0  0  0  0  0
  147.5651  131.8731  150.8396 H   0  0  0  0  0  0  0  0  0  0  0  0
  1  2  2  0  0  0  0
  2  3  1  0  0  0  0
  2 12  1  0  0  0  0
  3  4  1  0  0  0  0
  3 24  1  0  0  0  0
  4  5  1  0  0  0  0
  4 25  1  0  0  0  0
  4 26  1  0  0  0  0
  5  6  1  0  0  0  0
  5 27  1  0  0  0  0
  5 28  1  0  0  0  0
  6 11  1  0  0  0  0
  6  7  2  0  0  0  0
  7  8  1  0  0  0  0
  7 29  1  0  0  0  0
  8  9  2  0  0  0  0
  8 30  1  0  0  0  0
  9 10  1  0  0  0  0
  9 31  1  0  0  0  0
 10 11  2  0  0  0  0
 10 40  1  0  0  0  0
 11 32  1  0  0  0  0
 12 23  1  0  0  0  0
 12 13  2  0  0  0  0
 13 14  1  0  0  0  0
 13 33  1  0  0  0  0
 14 21  1  0  0  0  0
 14 15  1  0  0  0  0
 15 16  1  0  0  0  0
 15 34  1  0  0  0  0
 15 35  1  0  0  0  0
 16 17  1  0  0  0  0
 16 36  1  0  0  0  0
 16 37  1  0  0  0  0
 17 18  2  0  0  0  0
 17 19  2  0  0  0  0
 17 20  1  0  0  0  0
 20 21  2  0  0  0  0
 21 22  1  0  0  0  0
 22 23  2  0  0  0  0
 22 38  1  0  0  0  0
 23 39  1  0  0  0  0
M  CHG  1  10   1
M  END
> <s_m_source_file>
AV-unprocessed.smi

> <i_m_source_file_index>
2164

> <i_lp_mmshare_version>
43012

> <i_f3d_flags>
0

> <s_epik_input>
W0NIMl0xW0NIMl1TKD1PKSg9TylOPUMoTjEyKVtDSF09W0NIXUMoPVtDSF0yKUMoPU8pW05IXVtDSDJdW0NIMl1jM1tjSF1bY0hdW2NIXW5bY0hdMw==

> <s_epik_cmdline>
J2VwaWtfcHl0aG9uJywgJy1waCcsICc3LjAnLCAnLXRuJywgJzgnLCAnLW1hJywgJzIwMCcsICctbWV0YWxfYmluZGluZycsICctaW1hZScsICc8aW5maWxlLm1hZT4nLCAnLW9tYWUnLCAnPG91dGZpbGUubWFlPic=

> <r_epik_Ionization_Penalty>
2.45963

> <r_epik_Ionization_Penalty_Charging>
2.45946

> <r_epik_Ionization_Penalty_Neutral>
0.000170278

> <r_epik_State_Penalty>
2.62155

> <r_epik_Charging_Adjusted_Penalty>
5.08101

> <i_epik_Tot_Q>
1

> <i_epik_Tot_abs_Q>
1

> <r_epik_Metal_State_Penalty>
2.85721

> <b_epik_Metal_Only>
0

> <s_lp_Force_Field>
OPLS_2005

> <r_lp_Energy>
29.3092

> <b_lp_Chiralities_Consistent>
1

> <s_lp_Variant>
AV-unprocessed.smi:2164-2

> <Gold.Version>
5.8.1

> <Gold.Id.Protein>
6NUR|6NUR_protein|mol2

> <Gold.PLP.Fitness>
45.5268

> <Gold.PLP.PLP>
-37.3782

> <Gold.PLP.part.hbond>
-4.5912

> <Gold.PLP.part.metal>
0.0000

> <Gold.PLP.part.buried>
-4.1854

> <Gold.PLP.part.nonpolar>
-29.3092

> <Gold.PLP.part.repulsive>
0.1146

> <Gold.PLP.ligand.clash>
0.0000

> <Gold.PLP.ligand.torsion>
1.6712

> <Gold.PLP.Chemscore.Hbond>
3.8240

> <Gold.PLP.Chemscore.CHOScore>
0.0000

> <Gold.PLP.Chemscore.Metal>
0.0000

> <Gold.Chemscore.Hbonds>
donor molecule, donor type, donor heavy atom, donor atom, acceptor molecule, acceptor atom, score
      L1  H     3    24       P1  7948  1.00
      L1  H    10    40       P1 10747  1.00
      P1  H  7997  8009       L1    19  0.78
      P1  H 10752 10763       L1    20  1.00

> <Gold.PLP.Chemscore.Internal.Correction>
0.0190

> <Gold.Rescore>
     Score         DG    S(hbond)    S(metal)    S(lipo)     H(rot)  DE(clash)    DE(int)     intcor
     19.93     -22.17       3.23        0.00      83.88       1.54       0.53       1.71       ----

> <Gold.Chemscore.Fitness>
19.9270

> <Gold.Chemscore.DG>
-22.1662

> <Gold.Chemscore.ZeroCoef>
-5.4800

> <Gold.Chemscore.Hbond>
3.2343

> <Gold.Chemscore.Metal>
0.0000

> <Gold.Chemscore.Lipo>
83.8841

> <Gold.Chemscore.Internal_Hbond>
0.0000

> <Gold.Chemscore.DEClash>
0.5274

> <Gold.Chemscore.DEInternal>
1.7119

> <Gold.Chemscore.Rot>
1.5355

> <Gold.Chemscore.Internal.Correction>
   9.000000E+99

> <Gold.Chemscore.Hbonds>
donor molecule, donor type, donor heavy atom, donor atom, acceptor molecule, acceptor atom, score
      L1  H     3    24       P1  7948  1.00
      L1  H    10    40       P1 10747  0.96
      P1  H  7997  8009       L1    19  0.57
      P1  H 10752 10763       L1    20  0.21

> <Gold.Chemscore.Hbond.Weighted>
-10.8027

> <Gold.Chemscore.Metal.Weighted>
-0.0000

> <Gold.Chemscore.Lipo.Weighted>
-9.8144

> <Gold.Chemscore.Internal_Hbond.Weighted>
0.0000

> <Gold.Chemscore.DEClash.Weighted>
0.5274

> <Gold.Chemscore.DEInternal.Weighted>
1.7119

> <Gold.Chemscore.Rot.Weighted>
3.9309

> <Gold.Chemscore.Internal.Correction.Weighted>
   9.000000E+99

> <Gold.Protein.RotatedTorsions>
[ 6907 6896 6895 6894 ] final -179.26 input  -60.11 | X-H torsion
[ 7974 7965 7964 7962 ] final -159.95 input  175.53 | X-H torsion
[ 8008 7997 7996 7995 ] final  168.66 input   59.86 | X-H torsion
[ 10167 10162 10161 10158 ] final   84.02 input  -65.29 | X-H torsion
[ 10718 10713 10712 10709 ] final  151.92 input   66.30 | X-H torsion
[ 10763 10752 10751 10750 ] final   89.33 input  -60.55 | X-H torsion
[ 11005 11000 10999 10996 ] final -171.84 input  -57.11 | X-H torsion

> <Gold.Protein.ActiveResidues>
 VAL166  LYS551  ARG553  GLY616  TRP617  ASP618  TYR619  PRO620  LYS621  CYS622 
 ASP623  PHE694  ASN695  SER759  ASP760  ASP761  ALA762  ILE779  LEU786  VAL792 
 PHE793  MET794  SER795  GLU796  ALA797  LYS798  CYS799  TRP800  GLU811  SER814 

> <Gold.Protein.RotatedAtoms>
  151.6506  133.3321  159.3150 H   0  0  0  0  0  0  0  0  0  0  0  0  # atno 6907 bound_to 6896
  150.7962  134.7027  159.6569 H   0  0  0  0  0  0  0  0  0  0  0  0  # atno 6908 bound_to 6896
  152.4049  134.6227  160.0106 H   0  0  0  0  0  0  0  0  0  0  0  0  # atno 6909 bound_to 6896
  144.7445  140.3612  143.6095 H   0  0  0  0  0  0  0  0  0  0  0  0  # atno 7974 bound_to 7965
  156.1527  140.1584  156.8743 H   0  0  0  0  0  0  0  0  0  0  0  0  # atno 8008 bound_to 7997
  154.5086  140.0807  156.7981 H   0  0  0  0  0  0  0  0  0  0  0  0  # atno 8009 bound_to 7997
  155.3864  140.3407  155.4251 H   0  0  0  0  0  0  0  0  0  0  0  0  # atno 8010 bound_to 7997
  139.9124  144.6264  150.8524 H   0  0  0  0  0  0  0  0  0  0  0  0  # atno 10167 bound_to 10162
  157.2644  131.0804  151.1643 H   0  0  0  0  0  0  0  0  0  0  0  0  # atno 10718 bound_to 10713
  153.1860  135.4474  155.0088 H   0  0  0  0  0  0  0  0  0  0  0  0  # atno 10763 bound_to 10752
  154.8060  135.3274  154.7432 H   0  0  0  0  0  0  0  0  0  0  0  0  # atno 10764 bound_to 10752
  153.7891  135.6971  153.4930 H   0  0  0  0  0  0  0  0  0  0  0  0  # atno 10765 bound_to 10752
  140.5037  134.5869  157.4996 H   0  0  0  0  0  0  0  0  0  0  0  0  # atno 11005 bound_to 11000
  145.7175  139.1701  143.2503 LP  0  0  0  0  0  0  0  0  0  0  0  0  # atno 17320 bound_to 7965
  146.1301  140.7196  142.9416 LP  0  0  0  0  0  0  0  0  0  0  0  0  # atno 17321 bound_to 7965
  140.7682  143.3356  151.2316 LP  0  0  0  0  0  0  0  0  0  0  0  0  # atno 17342 bound_to 10162
  139.6931  143.9658  152.2869 LP  0  0  0  0  0  0  0  0  0  0  0  0  # atno 17343 bound_to 10162
  157.3140  130.6904  149.6231 LP  0  0  0  0  0  0  0  0  0  0  0  0  # atno 17370 bound_to 10713
  155.9663  130.4355  150.5094 LP  0  0  0  0  0  0  0  0  0  0  0  0  # atno 17371 bound_to 10713
  139.9699  134.7311  156.0063 LP  0  0  0  0  0  0  0  0  0  0  0  0  # atno 17394 bound_to 11000
  141.1422  133.6562  156.3763 LP  0  0  0  0  0  0  0  0  0  0  0  0  # atno 17395 bound_to 11000

$$$$
