AV-unprocessed.smi:3048|AV-procd|sdf|11626|dock1
  -GOLD-   2272017 13D 1   1.00000     0.00000
 Structure written by MMmdl.
 38 39  0  0  0  0  0  0  0  0  2 V2000
  154.7979  140.0107  160.6061 C   0  0  0  0  0  0  0  0  0  0  0  0
  154.2573  141.1012  159.7265 C   0  0  0  0  0  0  0  0  0  0  0  0
  154.9836  142.1318  159.0646 C   0  0  0  0  0  0  0  0  0  0  0  0
  154.2056  142.9378  158.3605 N   0  0  0  0  0  0  0  0  0  0  0  0
  152.9592  142.4536  158.5485 N   0  0  0  0  0  0  0  0  0  0  0  0
  151.8280  143.0982  157.9048 C   0  0  0  0  0  0  0  0  0  0  0  0
  150.4909  142.4371  158.2774 C   0  0  0  0  0  0  0  0  0  0  0  0
  149.4347  143.4415  158.5138 N   0  3  0  0  0  0  0  0  0  0  0  0
  148.1257  142.8713  158.8864 C   0  0  0  0  0  0  0  0  0  0  0  0
  148.3025  141.5871  159.7088 C   0  0  1  0  0  0  0  0  0  0  0  0
  149.1580  141.8214  160.9689 C   0  0  0  0  0  0  0  0  0  0  0  0
  149.2457  140.5398  161.8055 C   0  0  0  0  0  0  0  0  0  0  0  0
  147.8360  140.0129  162.0936 C   0  0  0  0  0  0  0  0  0  0  0  0
  147.0355  139.8819  160.7879 C   0  0  0  0  0  0  0  0  0  0  0  0
  147.0103  141.1325  160.1060 O   0  0  0  0  0  0  0  0  0  0  0  0
  152.9613  141.3459  159.3696 C   0  0  0  0  0  0  0  0  0  0  0  0
  155.8648  140.1330  160.7951 H   0  0  0  0  0  0  0  0  0  0  0  0
  154.6627  139.0271  160.1562 H   0  0  0  0  0  0  0  0  0  0  0  0
  154.3007  139.9926  161.5761 H   0  0  0  0  0  0  0  0  0  0  0  0
  156.0481  142.3153  159.0736 H   0  0  0  0  0  0  0  0  0  0  0  0
  151.8173  144.1457  158.2080 H   0  0  0  0  0  0  0  0  0  0  0  0
  151.9781  143.0894  156.8240 H   0  0  0  0  0  0  0  0  0  0  0  0
  150.1786  141.7552  157.4853 H   0  0  0  0  0  0  0  0  0  0  0  0
  150.6166  141.8406  159.1817 H   0  0  0  0  0  0  0  0  0  0  0  0
  149.7368  144.0617  159.2518 H   0  0  0  0  0  0  0  0  0  0  0  0
  147.5790  143.6110  159.4729 H   0  0  0  0  0  0  0  0  0  0  0  0
  147.5391  142.6732  157.9882 H   0  0  0  0  0  0  0  0  0  0  0  0
  148.7792  140.8288  159.0845 H   0  0  0  0  0  0  0  0  0  0  0  0
  150.1591  142.1530  160.6917 H   0  0  0  0  0  0  0  0  0  0  0  0
  148.7188  142.6194  161.5695 H   0  0  0  0  0  0  0  0  0  0  0  0
  149.8168  139.7850  161.2631 H   0  0  0  0  0  0  0  0  0  0  0  0
  149.7800  140.7281  162.7372 H   0  0  0  0  0  0  0  0  0  0  0  0
  147.8891  139.0502  162.6028 H   0  0  0  0  0  0  0  0  0  0  0  0
  147.3200  140.6965  162.7691 H   0  0  0  0  0  0  0  0  0  0  0  0
  147.4643  139.1132  160.1433 H   0  0  0  0  0  0  0  0  0  0  0  0
  146.0113  139.5787  161.0059 H   0  0  0  0  0  0  0  0  0  0  0  0
  152.0500  140.8266  159.6285 H   0  0  0  0  0  0  0  0  0  0  0  0
  149.3207  143.9831  157.6684 H   0  0  0  0  0  0  0  0  0  0  0  0
  1  2  1  0  0  0  0
  1 17  1  0  0  0  0
  1 18  1  0  0  0  0
  1 19  1  0  0  0  0
  2 16  2  0  0  0  0
  2  3  1  0  0  0  0
  3  4  2  0  0  0  0
  3 20  1  0  0  0  0
  4  5  1  0  0  0  0
  5  6  1  0  0  0  0
  5 16  1  0  0  0  0
  6  7  1  0  0  0  0
  6 21  1  0  0  0  0
  6 22  1  0  0  0  0
  7  8  1  0  0  0  0
  7 23  1  0  0  0  0
  7 24  1  0  0  0  0
  8  9  1  0  0  0  0
  8 25  1  0  0  0  0
  8 38  1  0  0  0  0
  9 10  1  0  0  0  0
  9 26  1  0  0  0  0
  9 27  1  0  0  0  0
 10 15  1  0  0  0  0
 10 11  1  0  0  0  0
 10 28  1  0  0  0  0
 11 12  1  0  0  0  0
 11 29  1  0  0  0  0
 11 30  1  0  0  0  0
 12 13  1  0  0  0  0
 12 31  1  0  0  0  0
 12 32  1  0  0  0  0
 13 14  1  0  0  0  0
 13 33  1  0  0  0  0
 13 34  1  0  0  0  0
 14 15  1  0  0  0  0
 14 35  1  0  0  0  0
 14 36  1  0  0  0  0
 16 37  1  0  0  0  0
M  CHG  1   8   1
M  END
> <s_m_source_file>
AV-unprocessed.smi

> <i_m_source_file_index>
3048

> <i_lp_mmshare_version>
43012

> <i_f3d_flags>
0

> <s_epik_input>
W0NIM11jMVtjSF1ubihbY0hdMSlbQ0gyXVtDSDJdW05IXVtDSDJdW0NAQEhdMltDSDJdW0NIMl1bQ0gyXVtDSDJdTzI=

> <s_epik_cmdline>
J2VwaWtfcHl0aG9uJywgJy1waCcsICc3LjAnLCAnLXRuJywgJzgnLCAnLW1hJywgJzIwMCcsICctbWV0YWxfYmluZGluZycsICctaW1hZScsICc8aW5maWxlLm1hZT4nLCAnLW9tYWUnLCAnPG91dGZpbGUubWFlPic=

> <r_lp_tautomer_probability>
1

> <r_epik_Ionization_Penalty>
0.0084937

> <r_epik_Ionization_Penalty_Charging>
0.00848754

> <r_epik_Ionization_Penalty_Neutral>
6.1613e-06

> <r_epik_State_Penalty>
0.00639836

> <r_epik_Charging_Adjusted_Penalty>
0.0148859

> <i_epik_Tot_Q>
1

> <i_epik_Tot_abs_Q>
1

> <r_epik_Metal_State_Penalty>
0.00642541

> <b_epik_Metal_Only>
0

> <s_lp_Force_Field>
OPLS_2005

> <r_lp_Energy>
10.7756

> <b_lp_Chiralities_Consistent>
1

> <s_lp_Variant>
AV-unprocessed.smi:3048-2

> <Gold.Version>
5.8.1

> <Gold.Id.Protein>
6NUR|6NUR_protein|mol2

> <Gold.PLP.Fitness>
47.8678

> <Gold.PLP.PLP>
-39.6959

> <Gold.PLP.part.hbond>
-2.0000

> <Gold.PLP.part.metal>
0.0000

> <Gold.PLP.part.buried>
-4.8245

> <Gold.PLP.part.nonpolar>
-32.5444

> <Gold.PLP.part.repulsive>
0.2322

> <Gold.PLP.ligand.clash>
0.0134

> <Gold.PLP.ligand.torsion>
0.4589

> <Gold.PLP.Chemscore.Hbond>
3.0000

> <Gold.PLP.Chemscore.CHOScore>
0.0000

> <Gold.PLP.Chemscore.Metal>
0.0000

> <Gold.Chemscore.Hbonds>
donor molecule, donor type, donor heavy atom, donor atom, acceptor molecule, acceptor atom, score
      L1  H     8    38       P1  8028  1.09

> <Gold.PLP.Chemscore.Internal.Correction>
0.1031

> <Gold.Rescore>
     Score         DG    S(hbond)    S(metal)    S(lipo)     H(rot)  DE(clash)    DE(int)     intcor
     18.03     -18.94       1.89        0.00      96.49       1.61       0.00       0.90       ----

> <Gold.Chemscore.Fitness>
18.0344

> <Gold.Chemscore.DG>
-18.9400

> <Gold.Chemscore.ZeroCoef>
-5.4800

> <Gold.Chemscore.Hbond>
1.8875

> <Gold.Chemscore.Metal>
0.0000

> <Gold.Chemscore.Lipo>
96.4946

> <Gold.Chemscore.Internal_Hbond>
0.0000

> <Gold.Chemscore.DEClash>
0.0038

> <Gold.Chemscore.DEInternal>
0.9018

> <Gold.Chemscore.Rot>
1.6149

> <Gold.Chemscore.Internal.Correction>
   9.000000E+99

> <Gold.Chemscore.Hbonds>
donor molecule, donor type, donor heavy atom, donor atom, acceptor molecule, acceptor atom, score
      L1  H     8    38       P1  8028  0.08

> <Gold.Chemscore.Hbond.Weighted>
-6.3043

> <Gold.Chemscore.Metal.Weighted>
-0.0000

> <Gold.Chemscore.Lipo.Weighted>
-11.2899

> <Gold.Chemscore.Internal_Hbond.Weighted>
0.0000

> <Gold.Chemscore.DEClash.Weighted>
0.0038

> <Gold.Chemscore.DEInternal.Weighted>
0.9018

> <Gold.Chemscore.Rot.Weighted>
4.1341

> <Gold.Chemscore.Internal.Correction.Weighted>
   9.000000E+99

> <Gold.Protein.RotatedTorsions>
[ 6907 6896 6895 6894 ] final   54.30 input  -60.11 | X-H torsion
[ 7974 7965 7964 7962 ] final -111.96 input  175.53 | X-H torsion
[ 8008 7997 7996 7995 ] final -117.64 input   59.86 | X-H torsion
[ 10167 10162 10161 10158 ] final -131.41 input  -65.29 | X-H torsion
[ 10718 10713 10712 10709 ] final   38.23 input   66.30 | X-H torsion
[ 10763 10752 10751 10750 ] final  174.30 input  -60.55 | X-H torsion
[ 11005 11000 10999 10996 ] final   25.81 input  -57.11 | X-H torsion

> <Gold.Protein.ActiveResidues>
 VAL166  LYS551  ARG553  GLY616  TRP617  ASP618  TYR619  PRO620  LYS621  CYS622 
 ASP623  PHE694  ASN695  SER759  ASP760  ASP761  ALA762  ILE779  LEU786  VAL792 
 PHE793  MET794  SER795  GLU796  ALA797  LYS798  CYS799  TRP800  GLU811  SER814 

> <Gold.Protein.RotatedAtoms>
  152.3425  134.7116  160.0259 H   0  0  0  0  0  0  0  0  0  0  0  0  # atno 6907 bound_to 6896
  151.7496  133.3321  159.3396 H   0  0  0  0  0  0  0  0  0  0  0  0  # atno 6908 bound_to 6896
  150.7488  134.6136  159.6144 H   0  0  0  0  0  0  0  0  0  0  0  0  # atno 6909 bound_to 6896
  145.1498  140.8823  143.3653 H   0  0  0  0  0  0  0  0  0  0  0  0  # atno 7974 bound_to 7965
  155.0869  140.0394  157.2656 H   0  0  0  0  0  0  0  0  0  0  0  0  # atno 8008 bound_to 7997
  154.6862  140.2643  155.6833 H   0  0  0  0  0  0  0  0  0  0  0  0  # atno 8009 bound_to 7997
  156.2713  140.2768  156.1425 H   0  0  0  0  0  0  0  0  0  0  0  0  # atno 8010 bound_to 7997
  139.9192  143.6402  152.2557 H   0  0  0  0  0  0  0  0  0  0  0  0  # atno 10167 bound_to 10162
  157.3563  130.7625  149.7015 H   0  0  0  0  0  0  0  0  0  0  0  0  # atno 10718 bound_to 10713
  154.4520  135.2765  155.1774 H   0  0  0  0  0  0  0  0  0  0  0  0  # atno 10763 bound_to 10752
  154.3597  135.6132  153.5688 H   0  0  0  0  0  0  0  0  0  0  0  0  # atno 10764 bound_to 10752
  152.9848  135.5831  154.4866 H   0  0  0  0  0  0  0  0  0  0  0  0  # atno 10765 bound_to 10752
  140.3438  134.2303  155.7687 H   0  0  0  0  0  0  0  0  0  0  0  0  # atno 11005 bound_to 11000
  145.0443  139.3234  143.5961 LP  0  0  0  0  0  0  0  0  0  0  0  0  # atno 17320 bound_to 7965
  146.3496  139.9828  142.8694 LP  0  0  0  0  0  0  0  0  0  0  0  0  # atno 17321 bound_to 7965
  139.6876  144.7650  151.1496 LP  0  0  0  0  0  0  0  0  0  0  0  0  # atno 17342 bound_to 10162
  140.7666  143.5635  150.9073 LP  0  0  0  0  0  0  0  0  0  0  0  0  # atno 17343 bound_to 10162
  155.9730  130.4126  150.4041 LP  0  0  0  0  0  0  0  0  0  0  0  0  # atno 17370 bound_to 10713
  157.2112  131.0461  151.2598 LP  0  0  0  0  0  0  0  0  0  0  0  0  # atno 17371 bound_to 10713
  141.2031  133.7920  157.0356 LP  0  0  0  0  0  0  0  0  0  0  0  0  # atno 17394 bound_to 11000
  140.0759  134.9676  157.1544 LP  0  0  0  0  0  0  0  0  0  0  0  0  # atno 17395 bound_to 11000

$$$$
