AV-unprocessed.smi:2764|AV-procd|sdf|10641|dock1
  -GOLD-   2272015 93D 1   1.00000     0.00000
 Structure written by MMmdl.
 47 49  0  0  0  0  0  0  0  0  2 V2000
  149.9032  136.7477  156.3232 O   0  0  0  0  0  0  0  0  0  0  0  0
  149.6615  136.6981  155.1168 C   0  0  0  0  0  0  0  0  0  0  0  0
  149.5977  135.5744  154.3808 N   0  0  0  0  0  0  0  0  0  0  0  0
  149.8176  134.2360  154.8033 C   0  0  0  0  0  0  0  0  0  0  0  0
  149.3303  133.2425  153.9238 C   0  0  0  0  0  0  0  0  0  0  0  0
  149.5032  131.8831  154.2496 C   0  0  0  0  0  0  0  0  0  0  0  0
  150.1583  131.5538  155.4495 C   0  0  0  0  0  0  0  0  0  0  0  0
  150.3472  130.2610  155.8051 F   0  0  0  0  0  0  0  0  0  0  0  0
  150.6122  132.6025  156.2706 C   0  0  0  0  0  0  0  0  0  0  0  0
  150.4482  133.9058  155.9587 N   0  0  0  0  0  0  0  0  0  0  0  0
  149.4271  137.7864  154.3681 N   0  0  0  0  0  0  0  0  0  0  0  0
  149.4558  139.1608  154.8601 C   0  0  2  0  0  0  0  0  0  0  0  0
  150.8353  139.5127  155.4449 C   0  0  0  0  0  0  0  0  0  0  0  0
  150.8390  140.9318  156.0386 C   0  0  0  0  0  0  0  0  0  0  0  0
  149.7779  141.0909  157.0674 N   0  3  1  0  0  0  0  0  0  0  0  0
  149.8365  142.4085  157.7533 C   0  0  0  0  0  0  0  0  0  0  0  0
  151.2768  142.9448  157.8640 C   0  0  1  0  0  0  0  0  0  0  0  0
  151.3550  144.4588  157.8581 C   0  0  0  0  0  0  0  0  0  0  0  0
  152.7493  144.7111  158.4228 C   0  0  0  0  0  0  0  0  0  0  0  0
  153.0046  143.6321  159.3164 O   0  0  0  0  0  0  0  0  0  0  0  0
  151.9996  142.6334  159.1761 C   0  0  0  0  0  0  0  0  0  0  0  0
  148.4326  140.7827  156.5136 C   0  0  0  0  0  0  0  0  0  0  0  0
  148.3798  139.3575  155.9388 C   0  0  0  0  0  0  0  0  0  0  0  0
  149.3838  135.6896  153.4011 H   0  0  0  0  0  0  0  0  0  0  0  0
  148.8296  133.5138  153.0056 H   0  0  0  0  0  0  0  0  0  0  0  0
  149.1398  131.1086  153.5903 H   0  0  0  0  0  0  0  0  0  0  0  0
  151.1195  132.3915  157.2003 H   0  0  0  0  0  0  0  0  0  0  0  0
  149.2337  137.6555  153.3859 H   0  0  0  0  0  0  0  0  0  0  0  0
  149.2364  139.8384  154.0325 H   0  0  0  0  0  0  0  0  0  0  0  0
  151.1054  138.7937  156.2199 H   0  0  0  0  0  0  0  0  0  0  0  0
  151.6035  139.4384  154.6742 H   0  0  0  0  0  0  0  0  0  0  0  0
  151.8156  141.1261  156.4842 H   0  0  0  0  0  0  0  0  0  0  0  0
  150.6960  141.6711  155.2487 H   0  0  0  0  0  0  0  0  0  0  0  0
  149.2623  143.1383  157.1803 H   0  0  0  0  0  0  0  0  0  0  0  0
  149.3542  142.3599  158.7307 H   0  0  0  0  0  0  0  0  0  0  0  0
  151.8727  142.5697  157.0300 H   0  0  0  0  0  0  0  0  0  0  0  0
  151.2156  144.8929  156.8676 H   0  0  0  0  0  0  0  0  0  0  0  0
  150.6023  144.8825  158.5247 H   0  0  0  0  0  0  0  0  0  0  0  0
  153.4937  144.6852  157.6263 H   0  0  0  0  0  0  0  0  0  0  0  0
  152.8256  145.6744  158.9277 H   0  0  0  0  0  0  0  0  0  0  0  0
  151.3173  142.7149  160.0235 H   0  0  0  0  0  0  0  0  0  0  0  0
  152.4371  141.6349  159.1859 H   0  0  0  0  0  0  0  0  0  0  0  0
  147.6728  140.8828  157.2871 H   0  0  0  0  0  0  0  0  0  0  0  0
  148.1845  141.5069  155.7357 H   0  0  0  0  0  0  0  0  0  0  0  0
  147.3910  139.1665  155.5202 H   0  0  0  0  0  0  0  0  0  0  0  0
  148.5201  138.6350  156.7445 H   0  0  0  0  0  0  0  0  0  0  0  0
  149.9727  140.3955  157.7736 H   0  0  0  0  0  0  0  0  0  0  0  0
  1  2  2  0  0  0  0
  2  3  1  0  0  0  0
  2 11  1  0  0  0  0
  3  4  1  0  0  0  0
  3 24  1  0  0  0  0
  4 10  1  0  0  0  0
  4  5  2  0  0  0  0
  5  6  1  0  0  0  0
  5 25  1  0  0  0  0
  6  7  2  0  0  0  0
  6 26  1  0  0  0  0
  7  8  1  0  0  0  0
  7  9  1  0  0  0  0
  9 10  2  0  0  0  0
  9 27  1  0  0  0  0
 11 12  1  0  0  0  0
 11 28  1  0  0  0  0
 12 23  1  0  0  0  0
 12 13  1  0  0  0  0
 12 29  1  0  0  0  0
 13 14  1  0  0  0  0
 13 30  1  0  0  0  0
 13 31  1  0  0  0  0
 14 15  1  0  0  0  0
 14 32  1  0  0  0  0
 14 33  1  0  0  0  0
 15 16  1  0  0  0  0
 15 22  1  0  0  0  0
 15 47  1  0  0  0  0
 16 17  1  0  0  0  0
 16 34  1  0  0  0  0
 16 35  1  0  0  0  0
 17 21  1  0  0  0  0
 17 18  1  0  0  0  0
 17 36  1  0  0  0  0
 18 19  1  0  0  0  0
 18 37  1  0  0  0  0
 18 38  1  0  0  0  0
 19 20  1  0  0  0  0
 19 39  1  0  0  0  0
 19 40  1  0  0  0  0
 20 21  1  0  0  0  0
 21 41  1  0  0  0  0
 21 42  1  0  0  0  0
 22 23  1  0  0  0  0
 22 43  1  0  0  0  0
 22 44  1  0  0  0  0
 23 45  1  0  0  0  0
 23 46  1  0  0  0  0
M  CHG  1  15   1
M  END
> <s_m_source_file>
AV-unprocessed.smi

> <i_m_source_file_index>
2764

> <i_lp_mmshare_version>
43012

> <i_f3d_flags>
0

> <s_epik_input>
bjFbY0hdYyhGKVtjSF1bY0hdYzFbTkhdQyg9TylbTkhdW0NIXTJbQ0gyXVtDSDJdTihbQ0gyXVtDSDJdMilbQ0gyXVtDQEBIXTNbQ0gyXVtDSDJdT1tDSDJdMw==

> <s_epik_cmdline>
J2VwaWtfcHl0aG9uJywgJy1waCcsICc3LjAnLCAnLXRuJywgJzgnLCAnLW1hJywgJzIwMCcsICctbWV0YWxfYmluZGluZycsICctaW1hZScsICc8aW5maWxlLm1hZT4nLCAnLW9tYWUnLCAnPG91dGZpbGUubWFlPic=

> <r_epik_Ionization_Penalty>
0.0075076

> <r_epik_Ionization_Penalty_Charging>
0.00747775

> <r_epik_Ionization_Penalty_Neutral>
2.98483e-05

> <r_epik_State_Penalty>
0.00558817

> <r_epik_Charging_Adjusted_Penalty>
0.0130659

> <i_epik_Tot_Q>
1

> <i_epik_Tot_abs_Q>
1

> <r_epik_Metal_State_Penalty>
-0

> <b_epik_Metal_Only>
0

> <s_lp_Force_Field>
OPLS_2005

> <r_lp_Energy>
37.3143

> <b_lp_Chiralities_Consistent>
1

> <s_lp_Variant>
AV-unprocessed.smi:2764-2

> <Gold.Version>
5.8.1

> <Gold.Id.Protein>
6NUR|6NUR_protein|mol2

> <Gold.PLP.Fitness>
44.8172

> <Gold.PLP.PLP>
-40.5912

> <Gold.PLP.part.hbond>
-2.4374

> <Gold.PLP.part.metal>
0.0000

> <Gold.PLP.part.buried>
-4.6347

> <Gold.PLP.part.nonpolar>
-34.0485

> <Gold.PLP.part.repulsive>
0.1150

> <Gold.PLP.ligand.clash>
0.0000

> <Gold.PLP.ligand.torsion>
0.7577

> <Gold.PLP.Chemscore.Hbond>
1.8960

> <Gold.PLP.Chemscore.CHOScore>
0.0000

> <Gold.PLP.Chemscore.Metal>
0.0000

> <Gold.Chemscore.Hbonds>
donor molecule, donor type, donor heavy atom, donor atom, acceptor molecule, acceptor atom, score
      L1  H     3    24       P1  7948  1.00
      L1  H    11    28       P1  7948  0.80

> <Gold.PLP.Chemscore.Internal.Correction>
0.0533

> <Gold.Rescore>
     Score         DG    S(hbond)    S(metal)    S(lipo)     H(rot)  DE(clash)    DE(int)     intcor
     15.26     -18.30       1.53        0.00      98.43       1.49       0.01       3.02       ----

> <Gold.Chemscore.Fitness>
15.2643

> <Gold.Chemscore.DG>
-18.2993

> <Gold.Chemscore.ZeroCoef>
-5.4800

> <Gold.Chemscore.Hbond>
1.5314

> <Gold.Chemscore.Metal>
0.0000

> <Gold.Chemscore.Lipo>
98.4326

> <Gold.Chemscore.Internal_Hbond>
0.0000

> <Gold.Chemscore.DEClash>
0.0103

> <Gold.Chemscore.DEInternal>
3.0247

> <Gold.Chemscore.Rot>
1.4891

> <Gold.Chemscore.Internal.Correction>
   9.000000E+99

> <Gold.Chemscore.Hbonds>
donor molecule, donor type, donor heavy atom, donor atom, acceptor molecule, acceptor atom, score
      L1  H     3    24       P1  7948  0.30
      L1  H    11    28       P1  7948  0.75

> <Gold.Chemscore.Hbond.Weighted>
-5.1148

> <Gold.Chemscore.Metal.Weighted>
-0.0000

> <Gold.Chemscore.Lipo.Weighted>
-11.5166

> <Gold.Chemscore.Internal_Hbond.Weighted>
0.0000

> <Gold.Chemscore.DEClash.Weighted>
0.0103

> <Gold.Chemscore.DEInternal.Weighted>
3.0247

> <Gold.Chemscore.Rot.Weighted>
3.8121

> <Gold.Chemscore.Internal.Correction.Weighted>
   9.000000E+99

> <Gold.Protein.RotatedTorsions>
[ 6907 6896 6895 6894 ] final -118.72 input  -60.11 | X-H torsion
[ 7974 7965 7964 7962 ] final   22.71 input  175.53 | X-H torsion
[ 8008 7997 7996 7995 ] final  -65.49 input   59.86 | X-H torsion
[ 10167 10162 10161 10158 ] final   97.61 input  -65.29 | X-H torsion
[ 10718 10713 10712 10709 ] final  -42.72 input   66.30 | X-H torsion
[ 10763 10752 10751 10750 ] final   82.47 input  -60.55 | X-H torsion
[ 11005 11000 10999 10996 ] final -168.21 input  -57.11 | X-H torsion

> <Gold.Protein.ActiveResidues>
 VAL166  LYS551  ARG553  GLY616  TRP617  ASP618  TYR619  PRO620  LYS621  CYS622 
 ASP623  PHE694  ASN695  SER759  ASP760  ASP761  ALA762  ILE779  LEU786  VAL792 
 PHE793  MET794  SER795  GLU796  ALA797  LYS798  CYS799  TRP800  GLU811  SER814 

> <Gold.Protein.RotatedAtoms>
  150.8244  133.8197  159.3124 H   0  0  0  0  0  0  0  0  0  0  0  0  # atno 6907 bound_to 6896
  151.5946  135.1049  160.0056 H   0  0  0  0  0  0  0  0  0  0  0  0  # atno 6908 bound_to 6896
  152.4330  133.7270  159.6622 H   0  0  0  0  0  0  0  0  0  0  0  0  # atno 6909 bound_to 6896
  146.2017  139.7847  142.8756 H   0  0  0  0  0  0  0  0  0  0  0  0  # atno 7974 bound_to 7965
  154.4675  140.0932  156.7059 H   0  0  0  0  0  0  0  0  0  0  0  0  # atno 8008 bound_to 7997
  155.4816  140.3468  155.4322 H   0  0  0  0  0  0  0  0  0  0  0  0  # atno 8009 bound_to 7997
  156.0982  140.1415  156.9491 H   0  0  0  0  0  0  0  0  0  0  0  0  # atno 8010 bound_to 7997
  139.7785  144.6897  151.0055 H   0  0  0  0  0  0  0  0  0  0  0  0  # atno 10167 bound_to 10162
  156.2566  130.4193  149.8589 H   0  0  0  0  0  0  0  0  0  0  0  0  # atno 10718 bound_to 10713
  153.1206  135.4727  154.9189 H   0  0  0  0  0  0  0  0  0  0  0  0  # atno 10763 bound_to 10752
  154.7571  135.3121  154.8451 H   0  0  0  0  0  0  0  0  0  0  0  0  # atno 10764 bound_to 10752
  153.9016  135.6874  153.4808 H   0  0  0  0  0  0  0  0  0  0  0  0  # atno 10765 bound_to 10752
  140.5445  134.5489  157.5108 H   0  0  0  0  0  0  0  0  0  0  0  0  # atno 11005 bound_to 11000
  145.3461  141.0298  143.3365 LP  0  0  0  0  0  0  0  0  0  0  0  0  # atno 17320 bound_to 7965
  144.8698  139.5054  143.6773 LP  0  0  0  0  0  0  0  0  0  0  0  0  # atno 17321 bound_to 7965
  140.7817  143.4509  151.0414 LP  0  0  0  0  0  0  0  0  0  0  0  0  # atno 17342 bound_to 10162
  139.8190  143.7846  152.3176 LP  0  0  0  0  0  0  0  0  0  0  0  0  # atno 17343 bound_to 10162
  156.6119  130.8590  151.3456 LP  0  0  0  0  0  0  0  0  0  0  0  0  # atno 17370 bound_to 10713
  157.7235  130.9590  150.1535 LP  0  0  0  0  0  0  0  0  0  0  0  0  # atno 17371 bound_to 10713
  139.9487  134.7656  156.0501 LP  0  0  0  0  0  0  0  0  0  0  0  0  # atno 17394 bound_to 11000
  141.1208  133.6613  156.3209 LP  0  0  0  0  0  0  0  0  0  0  0  0  # atno 17395 bound_to 11000

$$$$
