AV-unprocessed.smi:415|AV-procd|sdf|2522|dock6
  -GOLD-   2262022473D 1   1.00000     0.00000
 Structure written by MMmdl.
 53 54  0  0  0  0  0  0  0  0  1 V2000
  150.0911  139.0546  154.3186 C   0  0  0  0  0  0  0  0  0  0  0  0
  150.1154  140.4708  154.3299 O   0  0  0  0  0  0  0  0  0  0  0  0
  149.6182  141.0160  155.5408 C   0  0  0  0  0  0  0  0  0  0  0  0
  150.5354  140.6242  156.7112 C   0  0  0  0  0  0  0  0  0  0  0  0
  150.3641  139.2456  157.1309 N   0  0  0  0  0  0  0  0  0  0  0  0
  151.3405  138.2706  156.9473 C   0  0  0  0  0  0  0  0  0  0  0  0
  152.5450  138.6121  156.3587 N   0  0  0  0  0  0  0  0  0  0  0  0
  151.1440  136.9929  157.3410 C   0  0  0  0  0  0  0  0  0  0  0  0
  149.9061  136.5664  157.9774 C   0  0  0  0  0  0  0  0  0  0  0  0
  149.6923  135.3997  158.3078 O   0  0  0  0  0  0  0  0  0  0  0  0
  148.9396  137.5781  158.1809 N   0  0  0  0  0  0  0  0  0  0  0  0
  147.6368  137.2029  158.7825 C   0  0  0  0  0  0  0  0  0  0  0  0
  147.6981  136.9084  160.2926 C   0  0  0  0  0  0  0  0  0  0  0  0
  148.7889  136.8723  160.8599 O   0  0  0  0  0  0  0  0  0  0  0  0
  146.5347  136.6979  160.9285 N   0  0  0  0  0  0  0  0  0  0  0  0
  146.3451  136.4037  162.3452 C   0  0  2  0  0  0  0  0  0  0  0  0
  147.3655  135.3502  162.8183 C   0  0  0  0  0  0  0  0  0  0  0  0
  147.1027  133.9789  162.1784 C   0  0  0  0  0  0  0  0  0  0  0  0
  145.6653  133.5138  162.4485 C   0  0  0  0  0  0  0  0  0  0  0  0
  144.6184  134.5422  161.9712 C   0  0  1  0  0  0  0  0  0  0  0  0
  143.2015  134.0159  162.2610 C   0  0  0  0  0  0  0  0  0  0  0  0
  144.8889  135.9372  162.6044 C   0  0  2  0  0  0  0  0  0  0  0  0
  143.8733  137.0077  162.1532 C   0  0  0  0  0  0  0  0  0  0  0  0
  149.1438  138.9175  157.7757 C   0  0  0  0  0  0  0  0  0  0  0  0
  148.2665  139.7637  157.9683 O   0  0  0  0  0  0  0  0  0  0  0  0
  150.4761  138.6899  153.3662 H   0  0  0  0  0  0  0  0  0  0  0  0
  149.0753  138.6758  154.4385 H   0  0  0  0  0  0  0  0  0  0  0  0
  150.7149  138.6434  155.1133 H   0  0  0  0  0  0  0  0  0  0  0  0
  149.5847  142.1033  155.4578 H   0  0  0  0  0  0  0  0  0  0  0  0
  148.5985  140.6737  155.7248 H   0  0  0  0  0  0  0  0  0  0  0  0
  151.5896  140.8040  156.4947 H   0  0  0  0  0  0  0  0  0  0  0  0
  150.3248  141.2363  157.5878 H   0  0  0  0  0  0  0  0  0  0  0  0
  152.7422  139.5550  156.0545 H   0  0  0  0  0  0  0  0  0  0  0  0
  153.2767  137.9323  156.2087 H   0  0  0  0  0  0  0  0  0  0  0  0
  151.9200  136.2581  157.1800 H   0  0  0  0  0  0  0  0  0  0  0  0
  146.8905  137.9819  158.6189 H   0  0  0  0  0  0  0  0  0  0  0  0
  147.2145  136.3300  158.2824 H   0  0  0  0  0  0  0  0  0  0  0  0
  145.6933  136.7499  160.3728 H   0  0  0  0  0  0  0  0  0  0  0  0
  146.5131  137.3213  162.9119 H   0  0  0  0  0  0  0  0  0  0  0  0
  148.3820  135.6771  162.5957 H   0  0  0  0  0  0  0  0  0  0  0  0
  147.3090  135.2569  163.9034 H   0  0  0  0  0  0  0  0  0  0  0  0
  147.2779  134.0289  161.1030 H   0  0  0  0  0  0  0  0  0  0  0  0
  147.8091  133.2466  162.5700 H   0  0  0  0  0  0  0  0  0  0  0  0
  145.4993  132.5560  161.9541 H   0  0  0  0  0  0  0  0  0  0  0  0
  145.5406  133.3321  163.5172 H   0  0  0  0  0  0  0  0  0  0  0  0
  144.7120  134.6320  160.8877 H   0  0  0  0  0  0  0  0  0  0  0  0
  143.0073  133.9676  163.3329 H   0  0  0  0  0  0  0  0  0  0  0  0
  143.0665  133.0130  161.8547 H   0  0  0  0  0  0  0  0  0  0  0  0
  142.4359  134.6448  161.8076 H   0  0  0  0  0  0  0  0  0  0  0  0
  144.7779  135.8341  163.6851 H   0  0  0  0  0  0  0  0  0  0  0  0
  143.8195  137.0815  161.0663 H   0  0  0  0  0  0  0  0  0  0  0  0
  144.1446  137.9908  162.5386 H   0  0  0  0  0  0  0  0  0  0  0  0
  142.8709  136.7910  162.5209 H   0  0  0  0  0  0  0  0  0  0  0  0
  1  2  1  0  0  0  0
  1 26  1  0  0  0  0
  1 27  1  0  0  0  0
  1 28  1  0  0  0  0
  2  3  1  0  0  0  0
  3  4  1  0  0  0  0
  3 29  1  0  0  0  0
  3 30  1  0  0  0  0
  4  5  1  0  0  0  0
  4 31  1  0  0  0  0
  4 32  1  0  0  0  0
  5 24  1  0  0  0  0
  5  6  1  0  0  0  0
  6  7  1  0  0  0  0
  6  8  2  0  0  0  0
  7 33  1  0  0  0  0
  7 34  1  0  0  0  0
  8  9  1  0  0  0  0
  8 35  1  0  0  0  0
  9 10  2  0  0  0  0
  9 11  1  0  0  0  0
 11 12  1  0  0  0  0
 11 24  1  0  0  0  0
 12 13  1  0  0  0  0
 12 36  1  0  0  0  0
 12 37  1  0  0  0  0
 13 14  2  0  0  0  0
 13 15  1  0  0  0  0
 15 16  1  0  0  0  0
 15 38  1  0  0  0  0
 16 22  1  0  0  0  0
 16 17  1  0  0  0  0
 16 39  1  0  0  0  0
 17 18  1  0  0  0  0
 17 40  1  0  0  0  0
 17 41  1  0  0  0  0
 18 19  1  0  0  0  0
 18 42  1  0  0  0  0
 18 43  1  0  0  0  0
 19 20  1  0  0  0  0
 19 44  1  0  0  0  0
 19 45  1  0  0  0  0
 20 21  1  0  0  0  0
 20 22  1  0  0  0  0
 20 46  1  0  0  0  0
 21 47  1  0  0  0  0
 21 48  1  0  0  0  0
 21 49  1  0  0  0  0
 22 23  1  0  0  0  0
 22 50  1  0  0  0  0
 23 51  1  0  0  0  0
 23 52  1  0  0  0  0
 23 53  1  0  0  0  0
 24 25  2  0  0  0  0
M  END
> <s_m_source_file>
AV-unprocessed.smi

> <i_m_source_file_index>
415

> <i_lp_mmshare_version>
43012

> <i_f3d_flags>
0

> <s_epik_input>
W0NIM11PW0NIMl1bQ0gyXW4xYyhbTkgyXSlbY0hdYyg9TyluKGMxPU8pW0NIMl1DKD1PKVtOSF1bQ0BASF0yW0NIMl1bQ0gyXVtDSDJdW0NAQEhdKFtDSDNdKVtDQEhdMltDSDNd

> <s_epik_cmdline>
J2VwaWtfcHl0aG9uJywgJy1waCcsICc3LjAnLCAnLXRuJywgJzgnLCAnLW1hJywgJzIwMCcsICctbWV0YWxfYmluZGluZycsICctaW1hZScsICc8aW5maWxlLm1hZT4nLCAnLW9tYWUnLCAnPG91dGZpbGUubWFlPic=

> <r_lp_tautomer_probability>
1

> <r_epik_Ionization_Penalty>
8.6647e-06

> <r_epik_Ionization_Penalty_Charging>
1.81162e-08

> <r_epik_Ionization_Penalty_Neutral>
8.64658e-06

> <r_epik_State_Penalty>
-0

> <r_epik_Charging_Adjusted_Penalty>
1.81162e-08

> <i_epik_Tot_Q>
0

> <i_epik_Tot_abs_Q>
0

> <r_epik_Metal_State_Penalty>
-0

> <b_epik_Metal_Only>
0

> <s_lp_Force_Field>
OPLS_2005

> <r_lp_Energy>
19.7433

> <b_lp_Chiralities_Consistent>
1

> <s_lp_Variant>
AV-unprocessed.smi:415-5

> <Gold.Version>
5.8.1

> <Gold.Id.Protein>
6NUR|6NUR_protein|mol2

> <Gold.PLP.Fitness>
47.2015

> <Gold.PLP.PLP>
-39.4674

> <Gold.PLP.part.hbond>
-3.6708

> <Gold.PLP.part.metal>
0.0000

> <Gold.PLP.part.buried>
-6.0745

> <Gold.PLP.part.nonpolar>
-30.0238

> <Gold.PLP.part.repulsive>
0.4119

> <Gold.PLP.ligand.clash>
0.0000

> <Gold.PLP.ligand.torsion>
0.4943

> <Gold.PLP.Chemscore.Hbond>
2.8880

> <Gold.PLP.Chemscore.CHOScore>
0.0000

> <Gold.PLP.Chemscore.Metal>
0.0000

> <Gold.Chemscore.Hbonds>
donor molecule, donor type, donor heavy atom, donor atom, acceptor molecule, acceptor atom, score
      P1  H  6896  6908       L1    10  1.00
      P1  H  6931  6943       L1    14  0.96
      P1  H  7989  7998       L1     2  0.86

> <Gold.PLP.Chemscore.Internal.Correction>
0.0586

> <Gold.Rescore>
     Score         DG    S(hbond)    S(metal)    S(lipo)     H(rot)  DE(clash)    DE(int)     intcor
     15.67     -18.78       2.84        0.00      82.25       2.26       0.06       3.04       ----

> <Gold.Chemscore.Fitness>
15.6742

> <Gold.Chemscore.DG>
-18.7761

> <Gold.Chemscore.ZeroCoef>
-5.4800

> <Gold.Chemscore.Hbond>
2.8352

> <Gold.Chemscore.Metal>
0.0000

> <Gold.Chemscore.Lipo>
82.2550

> <Gold.Chemscore.Internal_Hbond>
0.0000

> <Gold.Chemscore.DEClash>
0.0580

> <Gold.Chemscore.DEInternal>
3.0440

> <Gold.Chemscore.Rot>
2.2645

> <Gold.Chemscore.Internal.Correction>
   9.000000E+99

> <Gold.Chemscore.Hbonds>
donor molecule, donor type, donor heavy atom, donor atom, acceptor molecule, acceptor atom, score
      P1  H  6896  6908       L1    10  0.98
      P1  H  6931  6943       L1    14  0.79
      P1  H  7989  7998       L1     2  0.39

> <Gold.Chemscore.Hbond.Weighted>
-9.4695

> <Gold.Chemscore.Metal.Weighted>
-0.0000

> <Gold.Chemscore.Lipo.Weighted>
-9.6238

> <Gold.Chemscore.Internal_Hbond.Weighted>
0.0000

> <Gold.Chemscore.DEClash.Weighted>
0.0580

> <Gold.Chemscore.DEInternal.Weighted>
3.0440

> <Gold.Chemscore.Rot.Weighted>
5.7972

> <Gold.Chemscore.Internal.Correction.Weighted>
   9.000000E+99

> <Gold.Protein.RotatedTorsions>
[ 6907 6896 6895 6894 ] final  168.08 input  -60.11 | X-H torsion
[ 7974 7965 7964 7962 ] final -124.92 input  175.53 | X-H torsion
[ 8008 7997 7996 7995 ] final  -45.19 input   59.86 | X-H torsion
[ 10167 10162 10161 10158 ] final   46.27 input  -65.29 | X-H torsion
[ 10718 10713 10712 10709 ] final  115.64 input   66.30 | X-H torsion
[ 10763 10752 10751 10750 ] final  143.15 input  -60.55 | X-H torsion
[ 11005 11000 10999 10996 ] final -147.28 input  -57.11 | X-H torsion

> <Gold.Protein.ActiveResidues>
 VAL166  LYS551  ARG553  GLY616  TRP617  ASP618  TYR619  PRO620  LYS621  CYS622 
 ASP623  PHE694  ASN695  SER759  ASP760  ASP761  ALA762  ILE779  LEU786  VAL792 
 PHE793  MET794  SER795  GLU796  ALA797  LYS798  CYS799  TRP800  GLU811  SER814 

> <Gold.Protein.RotatedAtoms>
  151.8532  133.3443  159.3679 H   0  0  0  0  0  0  0  0  0  0  0  0  # atno 6907 bound_to 6896
  150.7200  134.5278  159.5695 H   0  0  0  0  0  0  0  0  0  0  0  0  # atno 6908 bound_to 6896
  152.2776  134.7864  160.0453 H   0  0  0  0  0  0  0  0  0  0  0  0  # atno 6909 bound_to 6896
  145.0030  140.7837  143.4485 H   0  0  0  0  0  0  0  0  0  0  0  0  # atno 7974 bound_to 7965
  154.4000  140.1403  156.3807 H   0  0  0  0  0  0  0  0  0  0  0  0  # atno 8008 bound_to 7997
  155.8006  140.3476  155.5380 H   0  0  0  0  0  0  0  0  0  0  0  0  # atno 8009 bound_to 7997
  155.8487  140.0938  157.1679 H   0  0  0  0  0  0  0  0  0  0  0  0  # atno 8010 bound_to 7997
  140.3156  144.2768  150.6192 H   0  0  0  0  0  0  0  0  0  0  0  0  # atno 10167 bound_to 10162
  157.6210  131.1015  150.7358 H   0  0  0  0  0  0  0  0  0  0  0  0  # atno 10718 bound_to 10713
  153.9676  135.2954  155.3429 H   0  0  0  0  0  0  0  0  0  0  0  0  # atno 10763 bound_to 10752
  154.7340  135.5055  153.9014 H   0  0  0  0  0  0  0  0  0  0  0  0  # atno 10764 bound_to 10752
  153.0916  135.6709  153.9955 H   0  0  0  0  0  0  0  0  0  0  0  0  # atno 10765 bound_to 10752
  140.7733  134.3164  157.5068 H   0  0  0  0  0  0  0  0  0  0  0  0  # atno 11005 bound_to 11000
  145.2127  139.2197  143.5134 LP  0  0  0  0  0  0  0  0  0  0  0  0  # atno 17320 bound_to 7965
  146.3455  140.1968  142.8589 LP  0  0  0  0  0  0  0  0  0  0  0  0  # atno 17321 bound_to 7965
  140.5529  143.2203  151.7896 LP  0  0  0  0  0  0  0  0  0  0  0  0  # atno 17342 bound_to 10162
  139.4884  144.4452  151.9718 LP  0  0  0  0  0  0  0  0  0  0  0  0  # atno 17343 bound_to 10162
  156.7716  130.4830  149.5417 LP  0  0  0  0  0  0  0  0  0  0  0  0  # atno 17370 bound_to 10713
  156.1355  130.6208  151.0394 LP  0  0  0  0  0  0  0  0  0  0  0  0  # atno 17371 bound_to 10713
  139.8753  134.9274  156.3424 LP  0  0  0  0  0  0  0  0  0  0  0  0  # atno 17394 bound_to 11000
  140.9553  133.7424  156.0327 LP  0  0  0  0  0  0  0  0  0  0  0  0  # atno 17395 bound_to 11000

$$$$
