AV-unprocessed.smi:3228|AV-procd|sdf|12326|dock8
  -GOLD-   2272018173D 1   1.00000     0.00000
 Structure written by MMmdl.
 30 31  0  0  0  0  0  0  0  0  2 V2000
  148.9477  138.1982  159.0204 O   0  0  0  0  0  0  0  0  0  0  0  0
  149.5366  137.1265  159.1809 C   0  0  0  0  0  0  0  0  0  0  0  0
  150.8579  137.0547  158.9736 N   0  0  0  0  0  0  0  0  0  0  0  0
  151.7053  138.1651  158.5563 C   0  0  0  0  0  0  0  0  0  0  0  0
  151.4696  138.5131  157.0758 C   0  0  1  0  0  0  0  0  0  0  0  0
  151.8056  139.9675  156.7138 C   0  0  0  0  0  0  0  0  0  0  0  0
  152.1622  139.9673  155.2193 C   0  0  0  0  0  0  0  0  0  0  0  0
  152.2616  138.4954  154.7964 C   0  0  0  0  0  0  0  0  0  0  0  0
  152.3303  137.7015  156.1030 C   0  0  2  0  0  0  0  0  0  0  0  0
  151.8508  136.3838  155.9318 O   0  0  0  0  0  0  0  0  0  0  0  0
  148.9804  135.9538  159.5616 N   0  5  0  0  0  0  0  0  0  0  0  0
  148.0855  135.9286  160.5624 C   0  0  0  0  0  0  0  0  0  0  0  0
  147.6263  137.0352  161.1583 N   0  0  0  0  0  0  0  0  0  0  0  0
  146.6978  136.7774  162.1684 C   0  0  0  0  0  0  0  0  0  0  0  0
  146.4369  135.4438  162.3395 C   0  0  0  0  0  0  0  0  0  0  0  0
  147.3559  134.4659  161.2310 S   0  0  0  0  0  0  0  0  0  0  0  0
  151.3053  136.1607  159.1135 H   0  0  0  0  0  0  0  0  0  0  0  0
  151.5016  139.0322  159.1868 H   0  0  0  0  0  0  0  0  0  0  0  0
  152.7509  137.8952  158.7120 H   0  0  0  0  0  0  0  0  0  0  0  0
  150.4191  138.3409  156.8328 H   0  0  0  0  0  0  0  0  0  0  0  0
  150.9818  140.6453  156.9405 H   0  0  0  0  0  0  0  0  0  0  0  0
  152.6696  140.3056  157.2880 H   0  0  0  0  0  0  0  0  0  0  0  0
  151.4039  140.4852  154.6311 H   0  0  0  0  0  0  0  0  0  0  0  0
  153.1087  140.4844  155.0577 H   0  0  0  0  0  0  0  0  0  0  0  0
  151.3623  138.2250  154.2405 H   0  0  0  0  0  0  0  0  0  0  0  0
  153.1172  138.3024  154.1485 H   0  0  0  0  0  0  0  0  0  0  0  0
  153.3624  137.6668  156.4554 H   0  0  0  0  0  0  0  0  0  0  0  0
  151.5534  136.0622  156.7691 H   0  0  0  0  0  0  0  0  0  0  0  0
  146.2709  137.6054  162.7147 H   0  0  0  0  0  0  0  0  0  0  0  0
  145.7644  134.9789  163.0443 H   0  0  0  0  0  0  0  0  0  0  0  0
  1  2  2  0  0  0  0
  2  3  1  0  0  0  0
  2 11  1  0  0  0  0
  3  4  1  0  0  0  0
  3 17  1  0  0  0  0
  4  5  1  0  0  0  0
  4 18  1  0  0  0  0
  4 19  1  0  0  0  0
  5  9  1  0  0  0  0
  5  6  1  0  0  0  0
  5 20  1  0  0  0  0
  6  7  1  0  0  0  0
  6 21  1  0  0  0  0
  6 22  1  0  0  0  0
  7  8  1  0  0  0  0
  7 23  1  0  0  0  0
  7 24  1  0  0  0  0
  8  9  1  0  0  0  0
  8 25  1  0  0  0  0
  8 26  1  0  0  0  0
  9 10  1  0  0  0  0
  9 27  1  0  0  0  0
 10 28  1  0  0  0  0
 11 12  1  0  0  0  0
 12 16  1  0  0  0  0
 12 13  2  0  0  0  0
 13 14  1  0  0  0  0
 14 15  2  0  0  0  0
 14 29  1  0  0  0  0
 15 16  1  0  0  0  0
 15 30  1  0  0  0  0
M  CHG  1  11  -1
M  END
> <s_m_source_file>
AV-unprocessed.smi

> <i_m_source_file_index>
3228

> <i_lp_mmshare_version>
43012

> <i_f3d_flags>
0

> <s_epik_input>
czFbY0hdW2NIXW5jMVtOSF1DKD1PKVtOSF1bQ0gyXVtDQEBIXTJbQ0gyXVtDSDJdW0NIMl1bQ0BIXTJbT0hd

> <s_epik_cmdline>
J2VwaWtfcHl0aG9uJywgJy1waCcsICc3LjAnLCAnLXRuJywgJzgnLCAnLW1hJywgJzIwMCcsICctbWV0YWxfYmluZGluZycsICctaW1hZScsICc8aW5maWxlLm1hZT4nLCAnLW9tYWUnLCAnPG91dGZpbGUubWFlPic=

> <r_lp_tautomer_probability>
0.999

> <r_epik_Ionization_Penalty>
8.49756

> <r_epik_Ionization_Penalty_Charging>
6.79645

> <r_epik_Ionization_Penalty_Neutral>
1.70111

> <r_epik_State_Penalty>
6.79662

> <r_epik_Charging_Adjusted_Penalty>
13.5931

> <i_epik_Tot_Q>
-1

> <i_epik_Tot_abs_Q>
1

> <r_epik_Metal_State_Penalty>
2.71629

> <b_epik_Metal_Only>
1

> <s_lp_Force_Field>
OPLS_2005

> <r_lp_Energy>
17.8369

> <b_lp_Chiralities_Consistent>
1

> <s_lp_Variant>
AV-unprocessed.smi:3228-8

> <Gold.Version>
5.8.1

> <Gold.Id.Protein>
6NUR|6NUR_protein|mol2

> <Gold.PLP.Fitness>
41.0157

> <Gold.PLP.PLP>
-28.3179

> <Gold.PLP.part.hbond>
-5.4424

> <Gold.PLP.part.metal>
0.0000

> <Gold.PLP.part.buried>
-1.0661

> <Gold.PLP.part.nonpolar>
-22.8737

> <Gold.PLP.part.repulsive>
0.1624

> <Gold.PLP.ligand.clash>
0.0000

> <Gold.PLP.ligand.torsion>
0.7463

> <Gold.PLP.Chemscore.Hbond>
4.7208

> <Gold.PLP.Chemscore.CHOScore>
0.0000

> <Gold.PLP.Chemscore.Metal>
0.0000

> <Gold.Chemscore.Hbonds>
donor molecule, donor type, donor heavy atom, donor atom, acceptor molecule, acceptor atom, score
      P1  H  6896  6909       L1    11  1.39
      P1  H  6931  6943       L1    13  0.99
      P1  H  6934  6947       L1    13  0.74
      P1  H 10752 10765       L1    10  1.00

> <Gold.PLP.Chemscore.Internal.Correction>
0.0279

> <Gold.Rescore>
     Score         DG    S(hbond)    S(metal)    S(lipo)     H(rot)  DE(clash)    DE(int)     intcor
     13.13     -16.70       2.55        0.00      63.38       1.85       1.28       2.29       ----

> <Gold.Chemscore.Fitness>
13.1271

> <Gold.Chemscore.DG>
-16.6979

> <Gold.Chemscore.ZeroCoef>
-5.4800

> <Gold.Chemscore.Hbond>
2.5549

> <Gold.Chemscore.Metal>
0.0000

> <Gold.Chemscore.Lipo>
63.3814

> <Gold.Chemscore.Internal_Hbond>
0.0000

> <Gold.Chemscore.DEClash>
1.2817

> <Gold.Chemscore.DEInternal>
2.2891

> <Gold.Chemscore.Rot>
1.8481

> <Gold.Chemscore.Internal.Correction>
   9.000000E+99

> <Gold.Chemscore.Hbonds>
donor molecule, donor type, donor heavy atom, donor atom, acceptor molecule, acceptor atom, score
      P1  H  6896  6909       L1    11  0.15
      P1  H  6931  6943       L1    13  0.53
      P1  H  6934  6947       L1    13  0.12
      P1  H 10752 10765       L1    10  0.53

> <Gold.Chemscore.Hbond.Weighted>
-8.5335

> <Gold.Chemscore.Metal.Weighted>
-0.0000

> <Gold.Chemscore.Lipo.Weighted>
-7.4156

> <Gold.Chemscore.Internal_Hbond.Weighted>
0.0000

> <Gold.Chemscore.DEClash.Weighted>
1.2817

> <Gold.Chemscore.DEInternal.Weighted>
2.2891

> <Gold.Chemscore.Rot.Weighted>
4.7313

> <Gold.Chemscore.Internal.Correction.Weighted>
   9.000000E+99

> <Gold.Protein.RotatedTorsions>
[ 6907 6896 6895 6894 ] final   63.31 input  -60.11 | X-H torsion
[ 7974 7965 7964 7962 ] final   -1.42 input  175.53 | X-H torsion
[ 8008 7997 7996 7995 ] final  -49.98 input   59.86 | X-H torsion
[ 10167 10162 10161 10158 ] final   17.84 input  -65.29 | X-H torsion
[ 10718 10713 10712 10709 ] final   10.83 input   66.30 | X-H torsion
[ 10763 10752 10751 10750 ] final -145.59 input  -60.55 | X-H torsion
[ 11005 11000 10999 10996 ] final   89.81 input  -57.11 | X-H torsion

> <Gold.Protein.ActiveResidues>
 VAL166  LYS551  ARG553  GLY616  TRP617  ASP618  TYR619  PRO620  LYS621  CYS622 
 ASP623  PHE694  ASN695  SER759  ASP760  ASP761  ALA762  ILE779  LEU786  VAL792 
 PHE793  MET794  SER795  GLU796  ALA797  LYS798  CYS799  TRP800  GLU811  SER814 

> <Gold.Protein.RotatedAtoms>
  152.4243  134.5897  159.9970 H   0  0  0  0  0  0  0  0  0  0  0  0  # atno 6907 bound_to 6896
  151.6038  133.3348  159.3061 H   0  0  0  0  0  0  0  0  0  0  0  0  # atno 6908 bound_to 6896
  150.8132  134.7336  159.6772 H   0  0  0  0  0  0  0  0  0  0  0  0  # atno 6909 bound_to 6896
  146.2417  140.1417  142.8335 H   0  0  0  0  0  0  0  0  0  0  0  0  # atno 7974 bound_to 7965
  154.4053  140.1283  156.4591 H   0  0  0  0  0  0  0  0  0  0  0  0  # atno 8008 bound_to 7997
  155.7291  140.3491  155.5031 H   0  0  0  0  0  0  0  0  0  0  0  0  # atno 8009 bound_to 7997
  155.9144  140.1041  157.1245 H   0  0  0  0  0  0  0  0  0  0  0  0  # atno 8010 bound_to 7997
  140.5696  143.9185  150.6703 H   0  0  0  0  0  0  0  0  0  0  0  0  # atno 10167 bound_to 10162
  156.9867  130.6026  149.5682 H   0  0  0  0  0  0  0  0  0  0  0  0  # atno 10718 bound_to 10713
  154.8376  135.3409  154.6529 H   0  0  0  0  0  0  0  0  0  0  0  0  # atno 10763 bound_to 10752
  153.7142  135.6962  153.5034 H   0  0  0  0  0  0  0  0  0  0  0  0  # atno 10764 bound_to 10752
  153.2429  135.4378  155.0670 H   0  0  0  0  0  0  0  0  0  0  0  0  # atno 10765 bound_to 10752
  139.8868  134.8575  156.3196 H   0  0  0  0  0  0  0  0  0  0  0  0  # atno 11005 bound_to 11000
  145.0241  140.8818  143.5149 LP  0  0  0  0  0  0  0  0  0  0  0  0  # atno 17320 bound_to 7965
  145.1470  139.2537  143.5460 LP  0  0  0  0  0  0  0  0  0  0  0  0  # atno 17321 bound_to 7965
  140.2657  143.3492  152.1283 LP  0  0  0  0  0  0  0  0  0  0  0  0  # atno 17342 bound_to 10162
  139.5111  144.6895  151.5799 LP  0  0  0  0  0  0  0  0  0  0  0  0  # atno 17343 bound_to 10162
  156.0223  130.5318  150.8310 LP  0  0  0  0  0  0  0  0  0  0  0  0  # atno 17370 bound_to 10713
  157.5488  131.0943  150.9725 LP  0  0  0  0  0  0  0  0  0  0  0  0  # atno 17371 bound_to 10713
  140.9796  133.7276  156.0652 LP  0  0  0  0  0  0  0  0  0  0  0  0  # atno 17394 bound_to 11000
  140.7767  134.3772  157.5496 LP  0  0  0  0  0  0  0  0  0  0  0  0  # atno 17395 bound_to 11000

$$$$
