AV-unprocessed.smi:2066|AV-procd|sdf|8419|dock1
  -GOLD-   2272011113D 1   1.00000     0.00000
 Structure written by MMmdl.
 39 40  0  0  0  0  0  0  0  0  1 V2000
  147.4505  140.0291  152.1368 C   0  0  0  0  0  0  0  0  0  0  0  0
  147.2788  139.9427  153.6726 C   0  0  0  0  0  0  0  0  0  0  0  0
  146.4866  141.2008  154.1111 C   0  0  0  0  0  0  0  0  0  0  0  0
  146.3647  138.7149  153.9634 C   0  0  0  0  0  0  0  0  0  0  0  0
  146.6499  137.5722  153.0953 N   0  0  0  0  0  0  0  0  0  0  0  0
  145.7480  136.6949  152.6328 C   0  0  0  0  0  0  0  0  0  0  0  0
  144.5422  136.7672  152.8723 O   0  0  0  0  0  0  0  0  0  0  0  0
  146.3369  135.7395  151.8925 N   0  0  0  0  0  0  0  0  0  0  0  0
  145.7311  134.6250  151.2553 C   0  0  0  0  0  0  0  0  0  0  0  0
  144.4172  134.5055  151.0319 N   0  0  0  0  0  0  0  0  0  0  0  0
  144.1010  133.3053  150.3906 C   0  0  0  0  0  0  0  0  0  0  0  0
  145.1946  132.5171  150.1316 C   0  0  0  0  0  0  0  0  0  0  0  0
  146.6740  133.2559  150.6848 S   0  0  0  0  0  0  0  0  0  0  0  0
  148.5757  139.8469  154.4001 N   0  0  0  0  0  0  0  0  0  0  0  0
  149.1947  141.1348  154.7342 C   0  0  0  0  0  0  0  0  0  0  0  0
  150.4597  140.9624  155.5922 C   0  0  0  0  0  0  0  0  0  0  0  0
  151.3875  140.1223  154.9164 O   0  0  0  0  0  0  0  0  0  0  0  0
  150.8452  138.8405  154.6239 C   0  0  0  0  0  0  0  0  0  0  0  0
  149.5845  138.9968  153.7567 C   0  0  0  0  0  0  0  0  0  0  0  0
  146.4826  140.1114  151.6406 H   0  0  0  0  0  0  0  0  0  0  0  0
  147.9386  139.1455  151.7264 H   0  0  0  0  0  0  0  0  0  0  0  0
  148.0316  140.9000  151.8346 H   0  0  0  0  0  0  0  0  0  0  0  0
  145.4632  141.1810  153.7342 H   0  0  0  0  0  0  0  0  0  0  0  0
  146.9309  142.1217  153.7334 H   0  0  0  0  0  0  0  0  0  0  0  0
  146.4311  141.2848  155.1968 H   0  0  0  0  0  0  0  0  0  0  0  0
  146.4419  138.4246  155.0127 H   0  0  0  0  0  0  0  0  0  0  0  0
  145.3141  138.9733  153.8337 H   0  0  0  0  0  0  0  0  0  0  0  0
  147.6183  137.4267  152.8508 H   0  0  0  0  0  0  0  0  0  0  0  0
  147.3376  135.8103  151.7821 H   0  0  0  0  0  0  0  0  0  0  0  0
  143.0687  133.0922  150.1549 H   0  0  0  0  0  0  0  0  0  0  0  0
  145.2188  131.5505  149.6509 H   0  0  0  0  0  0  0  0  0  0  0  0
  149.4579  141.6740  153.8243 H   0  0  0  0  0  0  0  0  0  0  0  0
  148.5037  141.7669  155.2888 H   0  0  0  0  0  0  0  0  0  0  0  0
  150.9257  141.9301  155.7782 H   0  0  0  0  0  0  0  0  0  0  0  0
  150.2109  140.5342  156.5645 H   0  0  0  0  0  0  0  0  0  0  0  0
  151.5949  138.2480  154.0995 H   0  0  0  0  0  0  0  0  0  0  0  0
  150.6127  138.3145  155.5514 H   0  0  0  0  0  0  0  0  0  0  0  0
  149.1903  138.0010  153.5627 H   0  0  0  0  0  0  0  0  0  0  0  0
  149.8722  139.4170  152.7928 H   0  0  0  0  0  0  0  0  0  0  0  0
  1  2  1  0  0  0  0
  1 20  1  0  0  0  0
  1 21  1  0  0  0  0
  1 22  1  0  0  0  0
  2  3  1  0  0  0  0
  2  4  1  0  0  0  0
  2 14  1  0  0  0  0
  3 23  1  0  0  0  0
  3 24  1  0  0  0  0
  3 25  1  0  0  0  0
  4  5  1  0  0  0  0
  4 26  1  0  0  0  0
  4 27  1  0  0  0  0
  5  6  1  0  0  0  0
  5 28  1  0  0  0  0
  6  7  2  0  0  0  0
  6  8  1  0  0  0  0
  8  9  1  0  0  0  0
  8 29  1  0  0  0  0
  9 13  1  0  0  0  0
  9 10  2  0  0  0  0
 10 11  1  0  0  0  0
 11 12  2  0  0  0  0
 11 30  1  0  0  0  0
 12 13  1  0  0  0  0
 12 31  1  0  0  0  0
 14 19  1  0  0  0  0
 14 15  1  0  0  0  0
 15 16  1  0  0  0  0
 15 32  1  0  0  0  0
 15 33  1  0  0  0  0
 16 17  1  0  0  0  0
 16 34  1  0  0  0  0
 16 35  1  0  0  0  0
 17 18  1  0  0  0  0
 18 19  1  0  0  0  0
 18 36  1  0  0  0  0
 18 37  1  0  0  0  0
 19 38  1  0  0  0  0
 19 39  1  0  0  0  0
M  END
> <s_m_source_file>
AV-unprocessed.smi

> <i_m_source_file_index>
2066

> <i_lp_mmshare_version>
43012

> <i_f3d_flags>
0

> <s_epik_input>
W0NIMl0xW0NIMl1PW0NIMl1bQ0gyXU4xQyhbQ0gzXSkoW0NIM10pW0NIMl1bTkhdQyg9TylbTkhdYzJuW2NIXVtjSF1zMg==

> <s_epik_cmdline>
J2VwaWtfcHl0aG9uJywgJy1waCcsICc3LjAnLCAnLXRuJywgJzgnLCAnLW1hJywgJzIwMCcsICctbWV0YWxfYmluZGluZycsICctaW1hZScsICc8aW5maWxlLm1hZT4nLCAnLW9tYWUnLCAnPG91dGZpbGUubWFlPic=

> <r_lp_tautomer_probability>
0.999

> <r_epik_Ionization_Penalty>
0.219202

> <r_epik_Ionization_Penalty_Charging>
0

> <r_epik_Ionization_Penalty_Neutral>
0.219202

> <r_epik_State_Penalty>
0.209349

> <r_epik_Charging_Adjusted_Penalty>
0.209349

> <i_epik_Tot_Q>
0

> <i_epik_Tot_abs_Q>
0

> <r_epik_Metal_State_Penalty>
0.2479

> <b_epik_Metal_Only>
0

> <s_lp_Force_Field>
OPLS_2005

> <r_lp_Energy>
39.7757

> <b_lp_Chiralities_Consistent>
1

> <s_lp_Variant>
AV-unprocessed.smi:2066-1

> <Gold.Version>
5.8.1

> <Gold.Id.Protein>
6NUR|6NUR_protein|mol2

> <Gold.PLP.Fitness>
38.1439

> <Gold.PLP.PLP>
-29.1384

> <Gold.PLP.part.hbond>
-3.0000

> <Gold.PLP.part.metal>
0.0000

> <Gold.PLP.part.buried>
1.5017

> <Gold.PLP.part.nonpolar>
-28.7754

> <Gold.PLP.part.repulsive>
0.5748

> <Gold.PLP.ligand.clash>
0.0000

> <Gold.PLP.ligand.torsion>
1.4288

> <Gold.PLP.Chemscore.Hbond>
2.9199

> <Gold.PLP.Chemscore.CHOScore>
1.0000

> <Gold.PLP.Chemscore.Metal>
0.0000

> <Gold.Chemscore.Hbonds>
donor molecule, donor type, donor heavy atom, donor atom, acceptor molecule, acceptor atom, score
      L1  H     5    28       P1  7948  0.89
      L1  H     8    29       P1  7948  1.00
      P1  H  7989  7998       L1    17  1.00
      L1  C    11    30       P1 10186  1.00

> <Gold.PLP.Chemscore.Internal.Correction>
0.1035

> <Gold.Rescore>
     Score         DG    S(hbond)    S(metal)    S(lipo)     H(rot)  DE(clash)    DE(int)     intcor
     13.29     -17.81       2.19        0.00      77.61       1.58       1.91       2.61       ----

> <Gold.Chemscore.Fitness>
13.2902

> <Gold.Chemscore.DG>
-17.8135

> <Gold.Chemscore.ZeroCoef>
-5.4800

> <Gold.Chemscore.Hbond>
2.1856

> <Gold.Chemscore.Metal>
0.0000

> <Gold.Chemscore.Lipo>
77.6080

> <Gold.Chemscore.Internal_Hbond>
0.0000

> <Gold.Chemscore.DEClash>
1.9125

> <Gold.Chemscore.DEInternal>
2.6108

> <Gold.Chemscore.Rot>
1.5807

> <Gold.Chemscore.Internal.Correction>
   9.000000E+99

> <Gold.Chemscore.Hbonds>
donor molecule, donor type, donor heavy atom, donor atom, acceptor molecule, acceptor atom, score
      L1  H     5    28       P1  7948  0.82
      L1  H     8    29       P1  7948  1.00
      P1  H  7989  7998       L1    17  0.29

> <Gold.Chemscore.Hbond.Weighted>
-7.3000

> <Gold.Chemscore.Metal.Weighted>
-0.0000

> <Gold.Chemscore.Lipo.Weighted>
-9.0801

> <Gold.Chemscore.Internal_Hbond.Weighted>
0.0000

> <Gold.Chemscore.DEClash.Weighted>
1.9125

> <Gold.Chemscore.DEInternal.Weighted>
2.6108

> <Gold.Chemscore.Rot.Weighted>
4.0466

> <Gold.Chemscore.Internal.Correction.Weighted>
   9.000000E+99

> <Gold.Protein.RotatedTorsions>
[ 6907 6896 6895 6894 ] final  -78.89 input  -60.11 | X-H torsion
[ 7974 7965 7964 7962 ] final -152.48 input  175.53 | X-H torsion
[ 8008 7997 7996 7995 ] final   87.05 input   59.86 | X-H torsion
[ 10167 10162 10161 10158 ] final   87.31 input  -65.29 | X-H torsion
[ 10718 10713 10712 10709 ] final  143.20 input   66.30 | X-H torsion
[ 10763 10752 10751 10750 ] final  104.78 input  -60.55 | X-H torsion
[ 11005 11000 10999 10996 ] final  105.68 input  -57.11 | X-H torsion

> <Gold.Protein.ActiveResidues>
 VAL166  LYS551  ARG553  GLY616  TRP617  ASP618  TYR619  PRO620  LYS621  CYS622 
 ASP623  PHE694  ASN695  SER759  ASP760  ASP761  ALA762  ILE779  LEU786  VAL792 
 PHE793  MET794  SER795  GLU796  ALA797  LYS798  CYS799  TRP800  GLU811  SER814 

> <Gold.Protein.RotatedAtoms>
  150.6962  134.4203  159.5201 H   0  0  0  0  0  0  0  0  0  0  0  0  # atno 6907 bound_to 6896
  152.1947  134.8638  160.0523 H   0  0  0  0  0  0  0  0  0  0  0  0  # atno 6908 bound_to 6896
  151.9580  133.3651  159.4061 H   0  0  0  0  0  0  0  0  0  0  0  0  # atno 6909 bound_to 6896
  144.7792  140.4656  143.5851 H   0  0  0  0  0  0  0  0  0  0  0  0  # atno 7974 bound_to 7965
  155.9705  140.3386  155.6572 H   0  0  0  0  0  0  0  0  0  0  0  0  # atno 8008 bound_to 7997
  155.6680  140.0723  157.2548 H   0  0  0  0  0  0  0  0  0  0  0  0  # atno 8009 bound_to 7997
  154.4165  140.1696  156.1836 H   0  0  0  0  0  0  0  0  0  0  0  0  # atno 8010 bound_to 7997
  139.8787  144.6452  150.8867 H   0  0  0  0  0  0  0  0  0  0  0  0  # atno 10167 bound_to 10162
  157.3717  131.0980  151.0822 H   0  0  0  0  0  0  0  0  0  0  0  0  # atno 10718 bound_to 10713
  153.3705  135.3932  155.1785 H   0  0  0  0  0  0  0  0  0  0  0  0  # atno 10763 bound_to 10752
  154.8693  135.3701  154.4984 H   0  0  0  0  0  0  0  0  0  0  0  0  # atno 10764 bound_to 10752
  153.5451  135.7084  153.5678 H   0  0  0  0  0  0  0  0  0  0  0  0  # atno 10765 bound_to 10752
  139.8805  134.9344  156.5551 H   0  0  0  0  0  0  0  0  0  0  0  0  # atno 11005 bound_to 11000
  145.6099  139.1512  143.3082 LP  0  0  0  0  0  0  0  0  0  0  0  0  # atno 17320 bound_to 7965
  146.1990  140.6215  142.9111 LP  0  0  0  0  0  0  0  0  0  0  0  0  # atno 17321 bound_to 7965
  140.7748  143.3604  151.1840 LP  0  0  0  0  0  0  0  0  0  0  0  0  # atno 17342 bound_to 10162
  139.7216  143.9214  152.2987 LP  0  0  0  0  0  0  0  0  0  0  0  0  # atno 17343 bound_to 10162
  157.1924  130.6358  149.5709 LP  0  0  0  0  0  0  0  0  0  0  0  0  # atno 17370 bound_to 10713
  155.9757  130.4718  150.6476 LP  0  0  0  0  0  0  0  0  0  0  0  0  # atno 17371 bound_to 10713
  140.8211  133.8353  155.8896 LP  0  0  0  0  0  0  0  0  0  0  0  0  # atno 17394 bound_to 11000
  140.9417  134.1892  157.4792 LP  0  0  0  0  0  0  0  0  0  0  0  0  # atno 17395 bound_to 11000

$$$$
