AV-unprocessed.smi:35|AV-procd|sdf|267|dock2
  -GOLD-   2262016 33D 1   1.00000     0.00000
 Structure written by MMmdl.
 28 29  0  0  0  0  0  0  0  0  2 V2000
  153.0916  141.1260  158.7983 O   0  0  0  0  0  0  0  0  0  0  0  0
  152.3324  141.0783  157.8322 C   0  0  0  0  0  0  0  0  0  0  0  0
  152.4760  140.1742  156.8210 N   0  5  0  0  0  0  0  0  0  0  0  0
  151.6232  140.1177  155.7562 C   0  0  0  0  0  0  0  0  0  0  0  0
  151.7605  139.3199  154.8283 O   0  0  0  0  0  0  0  0  0  0  0  0
  150.5217  141.0177  155.7029 N   0  0  0  0  0  0  0  0  0  0  0  0
  149.5881  140.9548  154.5053 C   0  0  2  0  0  0  0  0  0  0  0  0
  148.6386  141.9760  154.5844 O   0  0  0  0  0  0  0  0  0  0  0  0
  147.4570  141.4801  155.2010 C   0  0  1  0  0  0  0  0  0  0  0  0
  146.2690  142.3950  154.8681 C   0  0  0  0  0  0  0  0  0  0  0  0
  145.8551  142.1849  153.5347 O   0  0  0  0  0  0  0  0  0  0  0  0
  147.3454  140.0819  154.5915 C   0  0  2  0  0  0  0  0  0  0  0  0
  146.6179  139.2262  155.4500 O   0  0  0  0  0  0  0  0  0  0  0  0
  148.7986  139.6269  154.4795 C   0  0  1  0  0  0  0  0  0  0  0  0
  149.0001  138.9257  153.2696 O   0  0  0  0  0  0  0  0  0  0  0  0
  150.3738  141.9707  156.6994 C   0  0  0  0  0  0  0  0  0  0  0  0
  151.2252  142.0258  157.7434 C   0  0  0  0  0  0  0  0  0  0  0  0
  150.8885  143.4374  159.0929 Br  0  0  0  0  0  0  0  0  0  0  0  0
  150.2340  141.1178  153.6405 H   0  0  0  0  0  0  0  0  0  0  0  0
  147.6014  141.4009  156.2804 H   0  0  0  0  0  0  0  0  0  0  0  0
  145.4379  142.2334  155.5551 H   0  0  0  0  0  0  0  0  0  0  0  0
  146.5651  143.4406  154.9575 H   0  0  0  0  0  0  0  0  0  0  0  0
  145.1743  141.5299  153.5309 H   0  0  0  0  0  0  0  0  0  0  0  0
  146.8727  140.1343  153.6090 H   0  0  0  0  0  0  0  0  0  0  0  0
  146.6896  139.5599  156.3313 H   0  0  0  0  0  0  0  0  0  0  0  0
  149.0865  139.0016  155.3263 H   0  0  0  0  0  0  0  0  0  0  0  0
  149.2590  139.5510  152.6088 H   0  0  0  0  0  0  0  0  0  0  0  0
  149.5742  142.6939  156.6567 H   0  0  0  0  0  0  0  0  0  0  0  0
  1  2  2  0  0  0  0
  2 17  1  0  0  0  0
  2  3  1  0  0  0  0
  3  4  1  0  0  0  0
  4  5  2  0  0  0  0
  4  6  1  0  0  0  0
  6  7  1  0  0  0  0
  6 16  1  0  0  0  0
  7 14  1  0  0  0  0
  7  8  1  0  0  0  0
  7 19  1  0  0  0  0
  8  9  1  0  0  0  0
  9 10  1  0  0  0  0
  9 12  1  0  0  0  0
  9 20  1  0  0  0  0
 10 11  1  0  0  0  0
 10 21  1  0  0  0  0
 10 22  1  0  0  0  0
 11 23  1  0  0  0  0
 12 13  1  0  0  0  0
 12 14  1  0  0  0  0
 12 24  1  0  0  0  0
 13 25  1  0  0  0  0
 14 15  1  0  0  0  0
 14 26  1  0  0  0  0
 15 27  1  0  0  0  0
 16 17  2  0  0  0  0
 16 28  1  0  0  0  0
 17 18  1  0  0  0  0
M  CHG  1   3  -1
M  END
> <s_m_source_file>
AV-unprocessed.smi

> <i_m_source_file_index>
35

> <i_lp_mmshare_version>
43012

> <i_f3d_flags>
0

> <s_epik_input>
Tz1jMVtuSF1jKD1PKW4oW2NIXWMxQnIpW0NAQEhdMk9bQ0BASF0oW0NIMl1bT0hdKVtDQEBIXShbT0hdKVtDQEhdMltPSF0=

> <s_epik_cmdline>
J2VwaWtfcHl0aG9uJywgJy1waCcsICc3LjAnLCAnLXRuJywgJzgnLCAnLW1hJywgJzIwMCcsICctbWV0YWxfYmluZGluZycsICctaW1hZScsICc8aW5maWxlLm1hZT4nLCAnLW9tYWUnLCAnPG91dGZpbGUubWFlPic=

> <r_epik_Ionization_Penalty>
1.06112

> <r_epik_Ionization_Penalty_Charging>
2.1796e-09

> <r_epik_Ionization_Penalty_Neutral>
1.06112

> <r_epik_State_Penalty>
1.11484

> <r_epik_Charging_Adjusted_Penalty>
1.11484

> <i_epik_Tot_Q>
-1

> <i_epik_Tot_abs_Q>
1

> <r_epik_Metal_State_Penalty>
0.0032876

> <b_epik_Metal_Only>
0

> <s_epik_Chemistry_Notes>
This compound contains an acetal/aminal-like group ( X-CH(R)-Y where X, Y are N, S, or O) that may be acid/base labile, releasing an aldehyde.

> <s_lp_Force_Field>
OPLS_2005

> <r_lp_Energy>
34.7757

> <b_lp_Chiralities_Consistent>
1

> <s_lp_Variant>
AV-unprocessed.smi:35-21

> <Gold.Version>
5.8.1

> <Gold.Id.Protein>
6NUR|6NUR_protein|mol2

> <Gold.PLP.Fitness>
42.6892

> <Gold.PLP.PLP>
-27.2765

> <Gold.PLP.part.hbond>
-5.3087

> <Gold.PLP.part.metal>
0.0000

> <Gold.PLP.part.buried>
-1.4638

> <Gold.PLP.part.nonpolar>
-21.3909

> <Gold.PLP.part.repulsive>
1.2865

> <Gold.PLP.ligand.clash>
0.0000

> <Gold.PLP.ligand.torsion>
0.1985

> <Gold.PLP.Chemscore.Hbond>
4.2598

> <Gold.PLP.Chemscore.CHOScore>
1.0000

> <Gold.PLP.Chemscore.Metal>
0.0000

> <Gold.Chemscore.Hbonds>
donor molecule, donor type, donor heavy atom, donor atom, acceptor molecule, acceptor atom, score
      L1  H    11    23       P1 10175  0.62
      L1  H    15    27       P1  7957  1.00
      P1  H  7989  7998       L1     5  0.50
      P1  H  7997  8009       L1     3  2.00
      L1  C    16    28       P1  8028  1.00

> <Gold.PLP.Chemscore.Internal.Correction>
0.0303

> <Gold.Rescore>
     Score         DG    S(hbond)    S(metal)    S(lipo)     H(rot)  DE(clash)    DE(int)     intcor
      4.55      -7.39       1.86        0.00      42.47       3.63       1.67       1.17       ----

> <Gold.Chemscore.Fitness>
4.5520

> <Gold.Chemscore.DG>
-7.3922

> <Gold.Chemscore.ZeroCoef>
-5.4800

> <Gold.Chemscore.Hbond>
1.8641

> <Gold.Chemscore.Metal>
0.0000

> <Gold.Chemscore.Lipo>
42.4700

> <Gold.Chemscore.Internal_Hbond>
0.0000

> <Gold.Chemscore.DEClash>
1.6697

> <Gold.Chemscore.DEInternal>
1.1705

> <Gold.Chemscore.Rot>
3.6261

> <Gold.Chemscore.Internal.Correction>
   9.000000E+99

> <Gold.Chemscore.Hbonds>
donor molecule, donor type, donor heavy atom, donor atom, acceptor molecule, acceptor atom, score
      L1  H    11    23       P1 10175  0.07
      L1  H    15    27       P1  7957  0.95
      P1  H  7989  7998       L1     5  0.02
      P1  H  7997  8009       L1     3  0.28

> <Gold.Chemscore.Hbond.Weighted>
-6.2260

> <Gold.Chemscore.Metal.Weighted>
-0.0000

> <Gold.Chemscore.Lipo.Weighted>
-4.9690

> <Gold.Chemscore.Internal_Hbond.Weighted>
0.0000

> <Gold.Chemscore.DEClash.Weighted>
1.6697

> <Gold.Chemscore.DEInternal.Weighted>
1.1705

> <Gold.Chemscore.Rot.Weighted>
9.2828

> <Gold.Chemscore.Internal.Correction.Weighted>
   9.000000E+99

> <Gold.Protein.RotatedTorsions>
[ 6907 6896 6895 6894 ] final  141.20 input  -60.11 | X-H torsion
[ 7974 7965 7964 7962 ] final -124.79 input  175.53 | X-H torsion
[ 8008 7997 7996 7995 ] final  177.08 input   59.86 | X-H torsion
[ 10167 10162 10161 10158 ] final -179.53 input  -65.29 | X-H torsion
[ 10718 10713 10712 10709 ] final   75.38 input   66.30 | X-H torsion
[ 10763 10752 10751 10750 ] final  -50.14 input  -60.55 | X-H torsion
[ 11005 11000 10999 10996 ] final   25.50 input  -57.11 | X-H torsion

> <Gold.Protein.ActiveResidues>
 VAL166  LYS551  ARG553  GLY616  TRP617  ASP618  TYR619  PRO620  LYS621  CYS622 
 ASP623  PHE694  ASN695  SER759  ASP760  ASP761  ALA762  ILE779  LEU786  VAL792 
 PHE793  MET794  SER795  GLU796  ALA797  LYS798  CYS799  TRP800  GLU811  SER814 

> <Gold.Protein.RotatedAtoms>
  152.2339  133.5080  159.5231 H   0  0  0  0  0  0  0  0  0  0  0  0  # atno 6907 bound_to 6896
  150.7045  134.1179  159.4033 H   0  0  0  0  0  0  0  0  0  0  0  0  # atno 6908 bound_to 6896
  151.9101  135.0342  160.0564 H   0  0  0  0  0  0  0  0  0  0  0  0  # atno 6909 bound_to 6896
  145.0044  140.7849  143.4477 H   0  0  0  0  0  0  0  0  0  0  0  0  # atno 7974 bound_to 7965
  156.0695  140.1367  156.9846 H   0  0  0  0  0  0  0  0  0  0  0  0  # atno 8008 bound_to 7997
  154.4524  140.0975  156.6709 H   0  0  0  0  0  0  0  0  0  0  0  0  # atno 8009 bound_to 7997
  155.5251  140.3457  155.4417 H   0  0  0  0  0  0  0  0  0  0  0  0  # atno 8010 bound_to 7997
  139.5382  144.2437  152.0840 H   0  0  0  0  0  0  0  0  0  0  0  0  # atno 10167 bound_to 10162
  157.6631  130.9723  150.1345 H   0  0  0  0  0  0  0  0  0  0  0  0  # atno 10718 bound_to 10713
  154.1055  135.6557  153.4876 H   0  0  0  0  0  0  0  0  0  0  0  0  # atno 10763 bound_to 10752
  153.0274  135.5235  154.7244 H   0  0  0  0  0  0  0  0  0  0  0  0  # atno 10764 bound_to 10752
  154.6408  135.2988  155.0075 H   0  0  0  0  0  0  0  0  0  0  0  0  # atno 10765 bound_to 10752
  140.3471  134.2269  155.7683 H   0  0  0  0  0  0  0  0  0  0  0  0  # atno 11005 bound_to 11000
  145.2109  139.2205  143.5143 LP  0  0  0  0  0  0  0  0  0  0  0  0  # atno 17320 bound_to 7965
  146.3458  140.1947  142.8589 LP  0  0  0  0  0  0  0  0  0  0  0  0  # atno 17321 bound_to 7965
  140.1911  144.4751  150.6478 LP  0  0  0  0  0  0  0  0  0  0  0  0  # atno 17342 bound_to 10162
  140.6599  143.2249  151.5880 LP  0  0  0  0  0  0  0  0  0  0  0  0  # atno 17343 bound_to 10162
  156.2183  130.3672  149.8586 LP  0  0  0  0  0  0  0  0  0  0  0  0  # atno 17370 bound_to 10713
  156.6446  130.8719  151.3520 LP  0  0  0  0  0  0  0  0  0  0  0  0  # atno 17371 bound_to 10713
  141.2022  133.7943  157.0401 LP  0  0  0  0  0  0  0  0  0  0  0  0  # atno 17394 bound_to 11000
  140.0733  134.9690  157.1503 LP  0  0  0  0  0  0  0  0  0  0  0  0  # atno 17395 bound_to 11000

$$$$
