AV-unprocessed.smi:1180|AV-procd|sdf|4960|dock2
  -GOLD-   22720 3553D 1   1.00000     0.00000
 Structure written by MMmdl.
 38 39  0  0  0  0  0  0  0  0  1 V2000
  146.3165  137.8137  152.8374 C   0  0  0  0  0  0  0  0  0  0  0  0
  147.1511  138.9483  153.3926 C   0  0  0  0  0  0  0  0  0  0  0  0
  146.6606  140.0756  153.7913 N   0  0  0  0  0  0  0  0  0  0  0  0
  147.5341  141.0524  154.2894 C   0  0  0  0  0  0  0  0  0  0  0  0
  146.8810  142.3465  154.7424 C   0  0  0  0  0  0  0  0  0  0  0  0
  148.8811  140.8400  154.3577 C   0  0  0  0  0  0  0  0  0  0  0  0
  149.8615  141.8803  154.8993 C   0  0  0  0  0  0  0  0  0  0  0  0
  150.7340  141.4421  156.0791 C   0  0  0  0  0  0  0  0  0  0  0  0
  151.3072  140.3522  156.0684 O   0  0  0  0  0  0  0  0  0  0  0  0
  150.8265  142.3121  157.0957 N   0  0  0  0  0  0  0  0  0  0  0  0
  151.6082  142.1030  158.3094 C   0  0  0  0  0  0  0  0  0  0  0  0
  151.2138  143.0844  159.4301 C   0  0  2  0  0  0  0  0  0  0  0  0
  151.2860  144.5513  159.0222 C   0  0  0  0  0  0  0  0  0  0  0  0
  151.8269  145.2671  160.2647 C   0  0  0  0  0  0  0  0  0  0  0  0
  151.8563  144.2823  161.2884 O   0  0  0  0  0  0  0  0  0  0  0  0
  152.1091  143.0342  160.6672 C   0  0  0  0  0  0  0  0  0  0  0  0
  149.4303  139.5486  153.9015 C   0  0  0  0  0  0  0  0  0  0  0  0
  150.6236  139.2504  153.9273 O   0  0  0  0  0  0  0  0  0  0  0  0
  148.5158  138.6676  153.4377 N   0  0  0  0  0  0  0  0  0  0  0  0
  148.8417  137.7682  153.1150 H   0  0  0  0  0  0  0  0  0  0  0  0
  145.6004  137.4745  153.5863 H   0  0  0  0  0  0  0  0  0  0  0  0
  146.9347  136.9635  152.5459 H   0  0  0  0  0  0  0  0  0  0  0  0
  145.7625  138.1496  151.9605 H   0  0  0  0  0  0  0  0  0  0  0  0
  147.2062  143.1778  154.1169 H   0  0  0  0  0  0  0  0  0  0  0  0
  147.1409  142.5674  155.7778 H   0  0  0  0  0  0  0  0  0  0  0  0
  145.7937  142.2854  154.6782 H   0  0  0  0  0  0  0  0  0  0  0  0
  150.5117  142.2335  154.0977 H   0  0  0  0  0  0  0  0  0  0  0  0
  149.3027  142.7626  155.2113 H   0  0  0  0  0  0  0  0  0  0  0  0
  150.3233  143.1845  157.0211 H   0  0  0  0  0  0  0  0  0  0  0  0
  151.4490  141.0757  158.6384 H   0  0  0  0  0  0  0  0  0  0  0  0
  152.6725  142.1931  158.0857 H   0  0  0  0  0  0  0  0  0  0  0  0
  150.1907  142.8787  159.7491 H   0  0  0  0  0  0  0  0  0  0  0  0
  151.9582  144.7072  158.1774 H   0  0  0  0  0  0  0  0  0  0  0  0
  150.3019  144.9243  158.7364 H   0  0  0  0  0  0  0  0  0  0  0  0
  152.8405  145.6290  160.0864 H   0  0  0  0  0  0  0  0  0  0  0  0
  151.2101  146.1163  160.5595 H   0  0  0  0  0  0  0  0  0  0  0  0
  151.8682  142.2019  161.3294 H   0  0  0  0  0  0  0  0  0  0  0  0
  153.1638  142.9667  160.3949 H   0  0  0  0  0  0  0  0  0  0  0  0
  1  2  1  0  0  0  0
  1 21  1  0  0  0  0
  1 22  1  0  0  0  0
  1 23  1  0  0  0  0
  2 19  1  0  0  0  0
  2  3  2  0  0  0  0
  3  4  1  0  0  0  0
  4  5  1  0  0  0  0
  4  6  2  0  0  0  0
  5 24  1  0  0  0  0
  5 25  1  0  0  0  0
  5 26  1  0  0  0  0
  6  7  1  0  0  0  0
  6 17  1  0  0  0  0
  7  8  1  0  0  0  0
  7 27  1  0  0  0  0
  7 28  1  0  0  0  0
  8  9  2  0  0  0  0
  8 10  1  0  0  0  0
 10 11  1  0  0  0  0
 10 29  1  0  0  0  0
 11 12  1  0  0  0  0
 11 30  1  0  0  0  0
 11 31  1  0  0  0  0
 12 16  1  0  0  0  0
 12 13  1  0  0  0  0
 12 32  1  0  0  0  0
 13 14  1  0  0  0  0
 13 33  1  0  0  0  0
 13 34  1  0  0  0  0
 14 15  1  0  0  0  0
 14 35  1  0  0  0  0
 14 36  1  0  0  0  0
 15 16  1  0  0  0  0
 16 37  1  0  0  0  0
 16 38  1  0  0  0  0
 17 18  2  0  0  0  0
 17 19  1  0  0  0  0
 19 20  1  0  0  0  0
M  END
> <s_m_source_file>
AV-unprocessed.smi

> <i_m_source_file_index>
1180

> <i_lp_mmshare_version>
43012

> <i_f3d_flags>
0

> <s_epik_input>
W0NIM11jMW5jKFtDSDNdKWMoYyg9TylbbkhdMSlbQ0gyXUMoPU8pW05IXVtDSDJdW0NAQEhdMltDSDJdW0NIMl1PW0NIMl0y

> <s_epik_cmdline>
J2VwaWtfcHl0aG9uJywgJy1waCcsICc3LjAnLCAnLXRuJywgJzgnLCAnLW1hJywgJzIwMCcsICctbWV0YWxfYmluZGluZycsICctaW1hZScsICc8aW5maWxlLm1hZT4nLCAnLW9tYWUnLCAnPG91dGZpbGUubWFlPic=

> <r_lp_tautomer_probability>
0.839158

> <r_epik_Ionization_Penalty>
0.000395459

> <r_epik_Ionization_Penalty_Charging>
0.000363703

> <r_epik_Ionization_Penalty_Neutral>
3.17556e-05

> <r_epik_State_Penalty>
0.0471244

> <r_epik_Charging_Adjusted_Penalty>
0.0474881

> <i_epik_Tot_Q>
0

> <i_epik_Tot_abs_Q>
0

> <r_epik_Metal_State_Penalty>
0.225307

> <b_epik_Metal_Only>
0

> <s_lp_Force_Field>
OPLS_2005

> <r_lp_Energy>
20.5307

> <b_lp_Chiralities_Consistent>
1

> <s_lp_Variant>
AV-unprocessed.smi:1180-1

> <Gold.Version>
5.8.1

> <Gold.Id.Protein>
6NUR|6NUR_protein|mol2

> <Gold.PLP.Fitness>
39.3048

> <Gold.PLP.PLP>
-33.8833

> <Gold.PLP.part.hbond>
-2.9210

> <Gold.PLP.part.metal>
0.0000

> <Gold.PLP.part.buried>
-1.5111

> <Gold.PLP.part.nonpolar>
-29.8968

> <Gold.PLP.part.repulsive>
0.5864

> <Gold.PLP.ligand.clash>
0.0000

> <Gold.PLP.ligand.torsion>
0.2926

> <Gold.PLP.Chemscore.Hbond>
2.0000

> <Gold.PLP.Chemscore.CHOScore>
0.0000

> <Gold.PLP.Chemscore.Metal>
0.0000

> <Gold.Chemscore.Hbonds>
donor molecule, donor type, donor heavy atom, donor atom, acceptor molecule, acceptor atom, score
      L1  H    19    20       P1  7948  1.00
      P1  H  7989  7998       L1    18  1.00

> <Gold.PLP.Chemscore.Internal.Correction>
0.0066

> <Gold.Rescore>
     Score         DG    S(hbond)    S(metal)    S(lipo)     H(rot)  DE(clash)    DE(int)     intcor
     13.33     -16.21       1.88        0.00      77.46       1.81       0.49       2.39       ----

> <Gold.Chemscore.Fitness>
13.3289

> <Gold.Chemscore.DG>
-16.2081

> <Gold.Chemscore.ZeroCoef>
-5.4800

> <Gold.Chemscore.Hbond>
1.8832

> <Gold.Chemscore.Metal>
0.0000

> <Gold.Chemscore.Lipo>
77.4596

> <Gold.Chemscore.Internal_Hbond>
0.0000

> <Gold.Chemscore.DEClash>
0.4912

> <Gold.Chemscore.DEInternal>
2.3880

> <Gold.Chemscore.Rot>
1.8065

> <Gold.Chemscore.Internal.Correction>
   9.000000E+99

> <Gold.Chemscore.Hbonds>
donor molecule, donor type, donor heavy atom, donor atom, acceptor molecule, acceptor atom, score
      L1  H    10    29       P1  8028  0.02
      L1  H    19    20       P1  7948  0.96
      P1  H  7989  7998       L1    18  0.59

> <Gold.Chemscore.Hbond.Weighted>
-6.2899

> <Gold.Chemscore.Metal.Weighted>
-0.0000

> <Gold.Chemscore.Lipo.Weighted>
-9.0628

> <Gold.Chemscore.Internal_Hbond.Weighted>
0.0000

> <Gold.Chemscore.DEClash.Weighted>
0.4912

> <Gold.Chemscore.DEInternal.Weighted>
2.3880

> <Gold.Chemscore.Rot.Weighted>
4.6246

> <Gold.Chemscore.Internal.Correction.Weighted>
   9.000000E+99

> <Gold.Protein.RotatedTorsions>
[ 6907 6896 6895 6894 ] final  173.45 input  -60.11 | X-H torsion
[ 7974 7965 7964 7962 ] final   84.10 input  175.53 | X-H torsion
[ 8008 7997 7996 7995 ] final   23.03 input   59.86 | X-H torsion
[ 10167 10162 10161 10158 ] final -103.66 input  -65.29 | X-H torsion
[ 10718 10713 10712 10709 ] final  -85.77 input   66.30 | X-H torsion
[ 10763 10752 10751 10750 ] final   66.11 input  -60.55 | X-H torsion
[ 11005 11000 10999 10996 ] final   11.88 input  -57.11 | X-H torsion

> <Gold.Protein.ActiveResidues>
 VAL166  LYS551  ARG553  GLY616  TRP617  ASP618  TYR619  PRO620  LYS621  CYS622 
 ASP623  PHE694  ASN695  SER759  ASP760  ASP761  ALA762  ILE779  LEU786  VAL792 
 PHE793  MET794  SER795  GLU796  ALA797  LYS798  CYS799  TRP800  GLU811  SER814 

> <Gold.Protein.RotatedAtoms>
  151.7682  133.3339  159.3436 H   0  0  0  0  0  0  0  0  0  0  0  0  # atno 6907 bound_to 6896
  150.7472  134.6043  159.6062 H   0  0  0  0  0  0  0  0  0  0  0  0  # atno 6908 bound_to 6896
  152.3359  134.7200  160.0328 H   0  0  0  0  0  0  0  0  0  0  0  0  # atno 6909 bound_to 6896
  145.6032  139.2356  143.2234 H   0  0  0  0  0  0  0  0  0  0  0  0  # atno 7974 bound_to 7965
  154.9748  140.3094  155.4972 H   0  0  0  0  0  0  0  0  0  0  0  0  # atno 8008 bound_to 7997
  156.2961  140.2277  156.4782 H   0  0  0  0  0  0  0  0  0  0  0  0  # atno 8009 bound_to 7997
  154.7844  140.0444  157.1140 H   0  0  0  0  0  0  0  0  0  0  0  0  # atno 8010 bound_to 7997
  140.2176  143.3700  152.0997 H   0  0  0  0  0  0  0  0  0  0  0  0  # atno 10167 bound_to 10162
  155.9994  130.4742  150.4613 H   0  0  0  0  0  0  0  0  0  0  0  0  # atno 10718 bound_to 10713
  153.0125  135.5332  154.6772 H   0  0  0  0  0  0  0  0  0  0  0  0  # atno 10763 bound_to 10752
  154.5941  135.2861  155.0606 H   0  0  0  0  0  0  0  0  0  0  0  0  # atno 10764 bound_to 10752
  154.1688  135.6535  153.5056 H   0  0  0  0  0  0  0  0  0  0  0  0  # atno 10765 bound_to 10752
  140.4983  134.0771  155.7787 H   0  0  0  0  0  0  0  0  0  0  0  0  # atno 11005 bound_to 11000
  146.1560  140.6857  142.9300 LP  0  0  0  0  0  0  0  0  0  0  0  0  # atno 17320 bound_to 7965
  144.7301  140.4645  143.6944 LP  0  0  0  0  0  0  0  0  0  0  0  0  # atno 17321 bound_to 7965
  139.5156  144.6965  151.5615 LP  0  0  0  0  0  0  0  0  0  0  0  0  # atno 17342 bound_to 10162
  140.6278  143.9134  150.6579 LP  0  0  0  0  0  0  0  0  0  0  0  0  # atno 17343 bound_to 10162
  157.2637  131.0572  151.2304 LP  0  0  0  0  0  0  0  0  0  0  0  0  # atno 17370 bound_to 10713
  157.3409  130.7033  149.6381 LP  0  0  0  0  0  0  0  0  0  0  0  0  # atno 17371 bound_to 10713
  141.1449  133.9073  157.2240 LP  0  0  0  0  0  0  0  0  0  0  0  0  # atno 17394 bound_to 11000
  139.9728  135.0123  156.9556 LP  0  0  0  0  0  0  0  0  0  0  0  0  # atno 17395 bound_to 11000

$$$$
