AV-unprocessed.smi:1692|AV-procd|sdf|6782|dock10
  -GOLD-   22720 7543D 1   1.00000     0.00000
 Structure written by MMmdl.
 45 46  0  0  0  0  0  0  0  0  1 V2000
  151.5744  138.0638  154.3391 C   0  0  0  0  0  0  0  0  0  0  0  0
  150.6579  139.0595  155.0582 C   0  0  2  0  0  0  0  0  0  0  0  0
  149.2787  139.1689  154.3838 C   0  0  0  0  0  0  0  0  0  0  0  0
  148.4361  140.1730  155.0208 N   0  0  0  0  0  0  0  0  0  0  0  0
  147.1201  140.2262  154.3857 C   0  0  0  0  0  0  0  0  0  0  0  0
  146.6015  138.8848  153.8397 C   0  0  0  0  0  0  0  0  0  0  0  0
  146.6603  138.8277  152.3048 C   0  0  0  0  0  0  0  0  0  0  0  0
  146.7890  137.4578  151.8209 N   0  0  0  0  0  0  0  0  0  0  0  0
  145.7812  136.5791  151.7188 C   0  0  0  0  0  0  0  0  0  0  0  0
  144.6173  136.8437  152.0217 O   0  0  0  0  0  0  0  0  0  0  0  0
  146.2140  135.3957  151.2490 N   0  0  0  0  0  0  0  0  0  0  0  0
  145.4612  134.2131  151.0187 C   0  0  0  0  0  0  0  0  0  0  0  0
  146.2192  133.0913  150.6132 C   0  0  0  0  0  0  0  0  0  0  0  0
  145.5671  131.8686  150.3613 C   0  0  0  0  0  0  0  0  0  0  0  0
  144.1719  131.7990  150.5219 C   0  0  0  0  0  0  0  0  0  0  0  0
  143.4923  132.9621  150.9284 C   0  0  0  0  0  0  0  0  0  0  0  0
  144.1153  134.1350  151.1702 N   0  0  0  0  0  0  0  0  0  0  0  0
  149.1267  141.4606  154.9902 C   0  0  0  0  0  0  0  0  0  0  0  0
  150.5332  141.4001  155.6203 C   0  0  1  0  0  0  0  0  0  0  0  0
  150.5098  141.3151  157.1558 C   0  0  0  0  0  0  0  0  0  0  0  0
  151.2926  140.3368  155.0431 O   0  0  0  0  0  0  0  0  0  0  0  0
  151.1372  137.0652  154.3284 H   0  0  0  0  0  0  0  0  0  0  0  0
  152.5426  137.9970  154.8358 H   0  0  0  0  0  0  0  0  0  0  0  0
  151.7502  138.3640  153.3058 H   0  0  0  0  0  0  0  0  0  0  0  0
  150.5341  138.7275  156.0894 H   0  0  0  0  0  0  0  0  0  0  0  0
  149.4073  139.4119  153.3277 H   0  0  0  0  0  0  0  0  0  0  0  0
  148.7849  138.1972  154.4210 H   0  0  0  0  0  0  0  0  0  0  0  0
  146.3907  140.6433  155.0819 H   0  0  0  0  0  0  0  0  0  0  0  0
  147.1666  140.9240  153.5485 H   0  0  0  0  0  0  0  0  0  0  0  0
  147.1945  138.0714  154.2602 H   0  0  0  0  0  0  0  0  0  0  0  0
  145.5728  138.7183  154.1589 H   0  0  0  0  0  0  0  0  0  0  0  0
  145.7472  139.2488  151.8838 H   0  0  0  0  0  0  0  0  0  0  0  0
  147.4838  139.4378  151.9298 H   0  0  0  0  0  0  0  0  0  0  0  0
  147.7135  137.1568  151.5500 H   0  0  0  0  0  0  0  0  0  0  0  0
  147.1988  135.3304  151.0385 H   0  0  0  0  0  0  0  0  0  0  0  0
  147.2909  133.1618  150.4951 H   0  0  0  0  0  0  0  0  0  0  0  0
  146.1286  130.9999  150.0507 H   0  0  0  0  0  0  0  0  0  0  0  0
  143.6361  130.8794  150.3384 H   0  0  0  0  0  0  0  0  0  0  0  0
  142.4209  132.9515  151.0630 H   0  0  0  0  0  0  0  0  0  0  0  0
  149.2195  141.7953  153.9559 H   0  0  0  0  0  0  0  0  0  0  0  0
  148.5427  142.2206  155.5081 H   0  0  0  0  0  0  0  0  0  0  0  0
  151.0543  142.3224  155.3621 H   0  0  0  0  0  0  0  0  0  0  0  0
  150.0272  142.1931  157.5849 H   0  0  0  0  0  0  0  0  0  0  0  0
  151.5221  141.2651  157.5575 H   0  0  0  0  0  0  0  0  0  0  0  0
  149.9658  140.4398  157.5098 H   0  0  0  0  0  0  0  0  0  0  0  0
  1  2  1  0  0  0  0
  1 22  1  0  0  0  0
  1 23  1  0  0  0  0
  1 24  1  0  0  0  0
  2 21  1  0  0  0  0
  2  3  1  0  0  0  0
  2 25  1  0  0  0  0
  3  4  1  0  0  0  0
  3 26  1  0  0  0  0
  3 27  1  0  0  0  0
  4  5  1  0  0  0  0
  4 18  1  0  0  0  0
  5  6  1  0  0  0  0
  5 28  1  0  0  0  0
  5 29  1  0  0  0  0
  6  7  1  0  0  0  0
  6 30  1  0  0  0  0
  6 31  1  0  0  0  0
  7  8  1  0  0  0  0
  7 32  1  0  0  0  0
  7 33  1  0  0  0  0
  8  9  1  0  0  0  0
  8 34  1  0  0  0  0
  9 10  2  0  0  0  0
  9 11  1  0  0  0  0
 11 12  1  0  0  0  0
 11 35  1  0  0  0  0
 12 17  1  0  0  0  0
 12 13  2  0  0  0  0
 13 14  1  0  0  0  0
 13 36  1  0  0  0  0
 14 15  2  0  0  0  0
 14 37  1  0  0  0  0
 15 16  1  0  0  0  0
 15 38  1  0  0  0  0
 16 17  2  0  0  0  0
 16 39  1  0  0  0  0
 18 19  1  0  0  0  0
 18 40  1  0  0  0  0
 18 41  1  0  0  0  0
 19 20  1  0  0  0  0
 19 21  1  0  0  0  0
 19 42  1  0  0  0  0
 20 43  1  0  0  0  0
 20 44  1  0  0  0  0
 20 45  1  0  0  0  0
M  END
> <s_m_source_file>
AV-unprocessed.smi

> <i_m_source_file_index>
1692

> <i_lp_mmshare_version>
43012

> <i_f3d_flags>
0

> <s_epik_input>
W0NIM11bQ0BASF0xW0NIMl1OKFtDSDJdW0NASF0oTzEpW0NIM10pW0NIMl1bQ0gyXVtDSDJdW05IXUMoPU8pW05IXWMyW2NIXVtjSF1bY0hdW2NIXW4y

> <s_epik_cmdline>
J2VwaWtfcHl0aG9uJywgJy1waCcsICc3LjAnLCAnLXRuJywgJzgnLCAnLW1hJywgJzIwMCcsICctbWV0YWxfYmluZGluZycsICctaW1hZScsICc8aW5maWxlLm1hZT4nLCAnLW9tYWUnLCAnPG91dGZpbGUubWFlPic=

> <r_epik_Ionization_Penalty>
0.594711

> <r_epik_Ionization_Penalty_Charging>
0

> <r_epik_Ionization_Penalty_Neutral>
0.594711

> <r_epik_State_Penalty>
0.608529

> <r_epik_Charging_Adjusted_Penalty>
0.608529

> <i_epik_Tot_Q>
0

> <i_epik_Tot_abs_Q>
0

> <r_epik_Metal_State_Penalty>
0.608528

> <b_epik_Metal_Only>
0

> <s_lp_Force_Field>
OPLS_2005

> <r_lp_Energy>
25.8915

> <b_lp_Chiralities_Consistent>
1

> <s_lp_Variant>
AV-unprocessed.smi:1692-5

> <Gold.Version>
5.8.1

> <Gold.Id.Protein>
6NUR|6NUR_protein|mol2

> <Gold.PLP.Fitness>
48.3172

> <Gold.PLP.PLP>
-39.9225

> <Gold.PLP.part.hbond>
-2.7408

> <Gold.PLP.part.metal>
0.0000

> <Gold.PLP.part.buried>
-5.7389

> <Gold.PLP.part.nonpolar>
-33.4152

> <Gold.PLP.part.repulsive>
2.0385

> <Gold.PLP.ligand.clash>
0.1206

> <Gold.PLP.ligand.torsion>
0.9279

> <Gold.PLP.Chemscore.Hbond>
2.6589

> <Gold.PLP.Chemscore.CHOScore>
0.7938

> <Gold.PLP.Chemscore.Metal>
0.0000

> <Gold.Chemscore.Hbonds>
donor molecule, donor type, donor heavy atom, donor atom, acceptor molecule, acceptor atom, score
      L1  H     8    34       P1  7948  0.99
      L1  H    11    35       P1  7948  0.63
      P1  H  7989  7998       L1    21  1.00
      L1  C    16    39       P1 10186  0.78

> <Gold.PLP.Chemscore.Internal.Correction>
0.0130

> <Gold.Rescore>
     Score         DG    S(hbond)    S(metal)    S(lipo)     H(rot)  DE(clash)    DE(int)     intcor
     16.37     -18.71       2.21        0.00      87.83       1.73       0.14       2.21       ----

> <Gold.Chemscore.Fitness>
16.3699

> <Gold.Chemscore.DG>
-18.7149

> <Gold.Chemscore.ZeroCoef>
-5.4800

> <Gold.Chemscore.Hbond>
2.2093

> <Gold.Chemscore.Metal>
0.0000

> <Gold.Chemscore.Lipo>
87.8282

> <Gold.Chemscore.Internal_Hbond>
0.0000

> <Gold.Chemscore.DEClash>
0.1383

> <Gold.Chemscore.DEInternal>
2.2067

> <Gold.Chemscore.Rot>
1.7266

> <Gold.Chemscore.Internal.Correction>
   9.000000E+99

> <Gold.Chemscore.Hbonds>
donor molecule, donor type, donor heavy atom, donor atom, acceptor molecule, acceptor atom, score
      L1  H     8    34       P1  7948  0.88
      L1  H    11    35       P1  7948  0.40
      P1  H  7989  7998       L1    21  0.37

> <Gold.Chemscore.Hbond.Weighted>
-7.3791

> <Gold.Chemscore.Metal.Weighted>
-0.0000

> <Gold.Chemscore.Lipo.Weighted>
-10.2759

> <Gold.Chemscore.Internal_Hbond.Weighted>
0.0000

> <Gold.Chemscore.DEClash.Weighted>
0.1383

> <Gold.Chemscore.DEInternal.Weighted>
2.2067

> <Gold.Chemscore.Rot.Weighted>
4.4200

> <Gold.Chemscore.Internal.Correction.Weighted>
   9.000000E+99

> <Gold.Protein.RotatedTorsions>
[ 6907 6896 6895 6894 ] final -116.33 input  -60.11 | X-H torsion
[ 7974 7965 7964 7962 ] final  167.72 input  175.53 | X-H torsion
[ 8008 7997 7996 7995 ] final   -1.81 input   59.86 | X-H torsion
[ 10167 10162 10161 10158 ] final  -29.10 input  -65.29 | X-H torsion
[ 10718 10713 10712 10709 ] final   28.53 input   66.30 | X-H torsion
[ 10763 10752 10751 10750 ] final   66.62 input  -60.55 | X-H torsion
[ 11005 11000 10999 10996 ] final  -16.03 input  -57.11 | X-H torsion

> <Gold.Protein.ActiveResidues>
 VAL166  LYS551  ARG553  GLY616  TRP617  ASP618  TYR619  PRO620  LYS621  CYS622 
 ASP623  PHE694  ASN695  SER759  ASP760  ASP761  ALA762  ILE779  LEU786  VAL792 
 PHE793  MET794  SER795  GLU796  ALA797  LYS798  CYS799  TRP800  GLU811  SER814 

> <Gold.Protein.RotatedAtoms>
  150.8047  133.8532  159.3210 H   0  0  0  0  0  0  0  0  0  0  0  0  # atno 6907 bound_to 6896
  151.6334  135.1019  160.0136 H   0  0  0  0  0  0  0  0  0  0  0  0  # atno 6908 bound_to 6896
  152.4137  133.6964  159.6455 H   0  0  0  0  0  0  0  0  0  0  0  0  # atno 6909 bound_to 6896
  144.7414  139.8802  143.6395 H   0  0  0  0  0  0  0  0  0  0  0  0  # atno 7974 bound_to 7965
  154.6427  140.2550  155.7304 H   0  0  0  0  0  0  0  0  0  0  0  0  # atno 8008 bound_to 7997
  156.2537  140.2884  156.0748 H   0  0  0  0  0  0  0  0  0  0  0  0  # atno 8009 bound_to 7997
  155.1572  140.0383  157.2824 H   0  0  0  0  0  0  0  0  0  0  0  0  # atno 8010 bound_to 7997
  140.7264  143.3956  151.1353 H   0  0  0  0  0  0  0  0  0  0  0  0  # atno 10167 bound_to 10162
  157.2346  130.7040  149.6329 H   0  0  0  0  0  0  0  0  0  0  0  0  # atno 10718 bound_to 10713
  153.0148  135.5314  154.6853 H   0  0  0  0  0  0  0  0  0  0  0  0  # atno 10763 bound_to 10752
  154.6002  135.2867  155.0546 H   0  0  0  0  0  0  0  0  0  0  0  0  # atno 10764 bound_to 10752
  154.1606  135.6548  153.5037 H   0  0  0  0  0  0  0  0  0  0  0  0  # atno 10765 bound_to 10752
  140.8026  133.8202  155.9485 H   0  0  0  0  0  0  0  0  0  0  0  0  # atno 11005 bound_to 11000
  146.1216  139.4236  143.0224 LP  0  0  0  0  0  0  0  0  0  0  0  0  # atno 17320 bound_to 7965
  145.7295  141.0047  143.1359 LP  0  0  0  0  0  0  0  0  0  0  0  0  # atno 17321 bound_to 7965
  139.7568  143.8695  152.3090 LP  0  0  0  0  0  0  0  0  0  0  0  0  # atno 17342 bound_to 10162
  139.8568  144.7137  150.9148 LP  0  0  0  0  0  0  0  0  0  0  0  0  # atno 17343 bound_to 10162
  155.9673  130.4478  150.5593 LP  0  0  0  0  0  0  0  0  0  0  0  0  # atno 17370 bound_to 10713
  157.3442  131.0722  151.1764 LP  0  0  0  0  0  0  0  0  0  0  0  0  # atno 17371 bound_to 10713
  140.9279  134.2059  157.4884 LP  0  0  0  0  0  0  0  0  0  0  0  0  # atno 17394 bound_to 11000
  139.8720  134.9820  156.5139 LP  0  0  0  0  0  0  0  0  0  0  0  0  # atno 17395 bound_to 11000

$$$$
