AV-unprocessed.smi:817|AV-procd|sdf|3830|dock8
  -GOLD-   22720 1273D 1   1.00000     0.00000
 Structure written by MMmdl.
 48 49  0  0  0  0  0  0  0  0  2 V2000
  143.7440  132.1717  149.3485 C   0  0  0  0  0  0  0  0  0  0  0  0
  144.5911  133.0991  150.2320 C   0  0  2  0  0  0  0  0  0  0  0  0
  145.9944  132.5132  150.4663 C   0  0  0  0  0  0  0  0  0  0  0  0
  146.8431  133.4160  151.3712 C   0  0  0  0  0  0  0  0  0  0  0  0
  146.1210  133.6946  152.7012 C   0  0  0  0  0  0  0  0  0  0  0  0
  144.6943  134.3132  152.5370 C   0  0  2  0  0  0  0  0  0  0  0  0
  144.8268  135.7386  151.9161 C   0  0  0  0  0  0  0  0  0  0  0  0
  146.0671  136.4099  152.3116 N   0  0  0  0  0  0  0  0  0  0  0  0
  146.1940  137.6187  152.8852 C   0  0  0  0  0  0  0  0  0  0  0  0
  145.2058  138.2972  153.1536 O   0  0  0  0  0  0  0  0  0  0  0  0
  147.4693  137.9753  153.1358 N   0  0  0  0  0  0  0  0  0  0  0  0
  147.9710  139.1696  153.7207 C   0  0  0  0  0  0  0  0  0  0  0  0
  147.1954  140.3245  153.9862 C   0  0  0  0  0  0  0  0  0  0  0  0
  147.8237  141.4488  154.5559 C   0  0  0  0  0  0  0  0  0  0  0  0
  149.2027  141.3813  154.8334 C   0  0  0  0  0  0  0  0  0  0  0  0
  149.9563  140.2920  154.5756 N   0  0  0  0  0  0  0  0  0  0  0  0
  149.3470  139.2181  154.0299 C   0  0  0  0  0  0  0  0  0  0  0  0
  144.0069  134.4386  153.8785 N   0  3  0  0  0  0  0  0  0  0  0  0
  142.6319  135.0033  153.8688 C   0  0  0  0  0  0  0  0  0  0  0  0
  144.8159  135.0728  154.9531 C   0  0  0  0  0  0  0  0  0  0  0  0
  143.8835  133.3928  151.5749 C   0  0  0  0  0  0  0  0  0  0  0  0
  143.5899  131.2015  149.8219 H   0  0  0  0  0  0  0  0  0  0  0  0
  144.2258  131.9988  148.3859 H   0  0  0  0  0  0  0  0  0  0  0  0
  142.7633  132.6051  149.1509 H   0  0  0  0  0  0  0  0  0  0  0  0
  144.7030  134.0350  149.6847 H   0  0  0  0  0  0  0  0  0  0  0  0
  145.9085  131.5252  150.9209 H   0  0  0  0  0  0  0  0  0  0  0  0
  146.5045  132.3687  149.5133 H   0  0  0  0  0  0  0  0  0  0  0  0
  147.7974  132.9287  151.5732 H   0  0  0  0  0  0  0  0  0  0  0  0
  147.0915  134.3430  150.8558 H   0  0  0  0  0  0  0  0  0  0  0  0
  146.0648  132.7278  153.1998 H   0  0  0  0  0  0  0  0  0  0  0  0
  146.7459  134.3251  153.3347 H   0  0  0  0  0  0  0  0  0  0  0  0
  144.7933  135.7099  150.8287 H   0  0  0  0  0  0  0  0  0  0  0  0
  143.9767  136.3581  152.2018 H   0  0  0  0  0  0  0  0  0  0  0  0
  146.9248  135.9136  152.1176 H   0  0  0  0  0  0  0  0  0  0  0  0
  148.1689  137.2807  152.9182 H   0  0  0  0  0  0  0  0  0  0  0  0
  146.1432  140.3808  153.7570 H   0  0  0  0  0  0  0  0  0  0  0  0
  147.2609  142.3449  154.7720 H   0  0  0  0  0  0  0  0  0  0  0  0
  149.7150  142.2263  155.2692 H   0  0  0  0  0  0  0  0  0  0  0  0
  149.9819  138.3660  153.8352 H   0  0  0  0  0  0  0  0  0  0  0  0
  142.5987  135.9812  153.3888 H   0  0  0  0  0  0  0  0  0  0  0  0
  142.2544  135.1220  154.8849 H   0  0  0  0  0  0  0  0  0  0  0  0
  141.9276  134.3392  153.3688 H   0  0  0  0  0  0  0  0  0  0  0  0
  144.9509  136.1402  154.7769 H   0  0  0  0  0  0  0  0  0  0  0  0
  145.7962  134.6148  155.0689 H   0  0  0  0  0  0  0  0  0  0  0  0
  144.3132  134.9632  155.9147 H   0  0  0  0  0  0  0  0  0  0  0  0
  142.9120  133.8368  151.3564 H   0  0  0  0  0  0  0  0  0  0  0  0
  143.6743  132.4417  152.0652 H   0  0  0  0  0  0  0  0  0  0  0  0
  143.8805  133.4850  154.1857 H   0  0  0  0  0  0  0  0  0  0  0  0
  1  2  1  0  0  0  0
  1 22  1  0  0  0  0
  1 23  1  0  0  0  0
  1 24  1  0  0  0  0
  2 21  1  0  0  0  0
  2  3  1  0  0  0  0
  2 25  1  0  0  0  0
  3  4  1  0  0  0  0
  3 26  1  0  0  0  0
  3 27  1  0  0  0  0
  4  5  1  0  0  0  0
  4 28  1  0  0  0  0
  4 29  1  0  0  0  0
  5  6  1  0  0  0  0
  5 30  1  0  0  0  0
  5 31  1  0  0  0  0
  6  7  1  0  0  0  0
  6 18  1  0  0  0  0
  6 21  1  0  0  0  0
  7  8  1  0  0  0  0
  7 32  1  0  0  0  0
  7 33  1  0  0  0  0
  8  9  1  0  0  0  0
  8 34  1  0  0  0  0
  9 10  2  0  0  0  0
  9 11  1  0  0  0  0
 11 12  1  0  0  0  0
 11 35  1  0  0  0  0
 12 17  1  0  0  0  0
 12 13  2  0  0  0  0
 13 14  1  0  0  0  0
 13 36  1  0  0  0  0
 14 15  2  0  0  0  0
 14 37  1  0  0  0  0
 15 16  1  0  0  0  0
 15 38  1  0  0  0  0
 16 17  2  0  0  0  0
 17 39  1  0  0  0  0
 18 19  1  0  0  0  0
 18 20  1  0  0  0  0
 18 48  1  0  0  0  0
 19 40  1  0  0  0  0
 19 41  1  0  0  0  0
 19 42  1  0  0  0  0
 20 43  1  0  0  0  0
 20 44  1  0  0  0  0
 20 45  1  0  0  0  0
 21 46  1  0  0  0  0
 21 47  1  0  0  0  0
M  CHG  1  18   1
M  END
> <s_m_source_file>
AV-unprocessed.smi

> <i_m_source_file_index>
817

> <i_lp_mmshare_version>
43012

> <i_f3d_flags>
0

> <s_epik_input>
W0NIM11bQ0BASF0oW0NIMl0xKVtDSDJdW0NIMl1bQ0gyXVtDQF0xKE4oW0NIM10pW0NIM10pW0NIMl1bTkhdQyg9TylbTkhdYzJbY0hdW2NIXVtjSF1uW2NIXTI=

> <s_epik_cmdline>
J2VwaWtfcHl0aG9uJywgJy1waCcsICc3LjAnLCAnLXRuJywgJzgnLCAnLW1hJywgJzIwMCcsICctbWV0YWxfYmluZGluZycsICctaW1hZScsICc8aW5maWxlLm1hZT4nLCAnLW9tYWUnLCAnPG91dGZpbGUubWFlPic=

> <r_lp_tautomer_probability>
1

> <r_epik_Ionization_Penalty>
0.00584939

> <r_epik_Ionization_Penalty_Charging>
0.00160539

> <r_epik_Ionization_Penalty_Neutral>
0.004244

> <r_epik_State_Penalty>
-0

> <r_epik_Charging_Adjusted_Penalty>
0.00160539

> <i_epik_Tot_Q>
1

> <i_epik_Tot_abs_Q>
1

> <r_epik_Metal_State_Penalty>
-0

> <b_epik_Metal_Only>
0

> <s_lp_Force_Field>
OPLS_2005

> <r_lp_Energy>
49.7529

> <b_lp_Chiralities_Consistent>
1

> <s_lp_Variant>
AV-unprocessed.smi:817-3

> <Gold.Version>
5.8.1

> <Gold.Id.Protein>
6NUR|6NUR_protein|mol2

> <Gold.PLP.Fitness>
46.2827

> <Gold.PLP.PLP>
-34.2013

> <Gold.PLP.part.hbond>
-3.4935

> <Gold.PLP.part.metal>
0.0000

> <Gold.PLP.part.buried>
-3.1473

> <Gold.PLP.part.nonpolar>
-31.6581

> <Gold.PLP.part.repulsive>
3.1532

> <Gold.PLP.ligand.clash>
0.2304

> <Gold.PLP.ligand.torsion>
0.6698

> <Gold.PLP.Chemscore.Hbond>
3.8028

> <Gold.PLP.Chemscore.CHOScore>
0.7117

> <Gold.PLP.Chemscore.Metal>
0.0000

> <Gold.Chemscore.Hbonds>
donor molecule, donor type, donor heavy atom, donor atom, acceptor molecule, acceptor atom, score
      L1  H     8    34       P1  7948  0.81
      L1  H    11    35       P1  7948  1.00
      L1  H    18    48       P1 10957  1.20
      P1  H  7989  7998       L1    16  0.87
      L1  C    15    38       P1  8028  0.70

> <Gold.PLP.Chemscore.Internal.Correction>
0.1080

> <Gold.Rescore>
     Score         DG    S(hbond)    S(metal)    S(lipo)     H(rot)  DE(clash)    DE(int)     intcor
     19.19     -21.41       2.84        0.00      86.61       1.44       0.36       1.87       ----

> <Gold.Chemscore.Fitness>
19.1876

> <Gold.Chemscore.DG>
-21.4116

> <Gold.Chemscore.ZeroCoef>
-5.4800

> <Gold.Chemscore.Hbond>
2.8402

> <Gold.Chemscore.Metal>
0.0000

> <Gold.Chemscore.Lipo>
86.6066

> <Gold.Chemscore.Internal_Hbond>
0.0000

> <Gold.Chemscore.DEClash>
0.3561

> <Gold.Chemscore.DEInternal>
1.8679

> <Gold.Chemscore.Rot>
1.4405

> <Gold.Chemscore.Internal.Correction>
   9.000000E+99

> <Gold.Chemscore.Hbonds>
donor molecule, donor type, donor heavy atom, donor atom, acceptor molecule, acceptor atom, score
      L1  H     8    34       P1  7948  0.76
      L1  H    11    35       P1  7948  0.96
      L1  H    18    48       P1 10957  0.59
      P1  H  7989  7998       L1    16  0.43

> <Gold.Chemscore.Hbond.Weighted>
-9.4864

> <Gold.Chemscore.Metal.Weighted>
-0.0000

> <Gold.Chemscore.Lipo.Weighted>
-10.1330

> <Gold.Chemscore.Internal_Hbond.Weighted>
0.0000

> <Gold.Chemscore.DEClash.Weighted>
0.3561

> <Gold.Chemscore.DEInternal.Weighted>
1.8679

> <Gold.Chemscore.Rot.Weighted>
3.6878

> <Gold.Chemscore.Internal.Correction.Weighted>
   9.000000E+99

> <Gold.Protein.RotatedTorsions>
[ 6907 6896 6895 6894 ] final  131.54 input  -60.11 | X-H torsion
[ 7974 7965 7964 7962 ] final    2.26 input  175.53 | X-H torsion
[ 8008 7997 7996 7995 ] final  -99.40 input   59.86 | X-H torsion
[ 10167 10162 10161 10158 ] final   83.43 input  -65.29 | X-H torsion
[ 10718 10713 10712 10709 ] final  -84.23 input   66.30 | X-H torsion
[ 10763 10752 10751 10750 ] final   98.76 input  -60.55 | X-H torsion
[ 11005 11000 10999 10996 ] final  100.70 input  -57.11 | X-H torsion

> <Gold.Protein.ActiveResidues>
 VAL166  LYS551  ARG553  GLY616  TRP617  ASP618  TYR619  PRO620  LYS621  CYS622 
 ASP623  PHE694  ASN695  SER759  ASP760  ASP761  ALA762  ILE779  LEU786  VAL792 
 PHE793  MET794  SER795  GLU796  ALA797  LYS798  CYS799  TRP800  GLU811  SER814 

> <Gold.Protein.RotatedAtoms>
  152.3415  133.6073  159.5879 H   0  0  0  0  0  0  0  0  0  0  0  0  # atno 6907 bound_to 6896
  150.7481  133.9714  159.3556 H   0  0  0  0  0  0  0  0  0  0  0  0  # atno 6908 bound_to 6896
  151.7578  135.0818  160.0392 H   0  0  0  0  0  0  0  0  0  0  0  0  # atno 6909 bound_to 6896
  146.2443  140.0863  142.8354 H   0  0  0  0  0  0  0  0  0  0  0  0  # atno 7974 bound_to 7965
  154.8143  140.0448  157.1365 H   0  0  0  0  0  0  0  0  0  0  0  0  # atno 8008 bound_to 7997
  154.9332  140.3042  155.5137 H   0  0  0  0  0  0  0  0  0  0  0  0  # atno 8009 bound_to 7997
  156.2974  140.2319  156.4394 H   0  0  0  0  0  0  0  0  0  0  0  0  # atno 8010 bound_to 7997
  139.9185  144.6228  150.8464 H   0  0  0  0  0  0  0  0  0  0  0  0  # atno 10167 bound_to 10162
  156.0008  130.4691  150.4378 H   0  0  0  0  0  0  0  0  0  0  0  0  # atno 10718 bound_to 10713
  153.2930  135.4137  155.1184 H   0  0  0  0  0  0  0  0  0  0  0  0  # atno 10763 bound_to 10752
  154.8526  135.3523  154.5955 H   0  0  0  0  0  0  0  0  0  0  0  0  # atno 10764 bound_to 10752
  153.6378  135.7058  153.5310 H   0  0  0  0  0  0  0  0  0  0  0  0  # atno 10765 bound_to 10752
  139.8771  134.9152  156.4796 H   0  0  0  0  0  0  0  0  0  0  0  0  # atno 11005 bound_to 11000
  145.0689  140.9141  143.4894 LP  0  0  0  0  0  0  0  0  0  0  0  0  # atno 17320 bound_to 7965
  145.0993  139.2834  143.5694 LP  0  0  0  0  0  0  0  0  0  0  0  0  # atno 17321 bound_to 7965
  140.7668  143.3314  151.2402 LP  0  0  0  0  0  0  0  0  0  0  0  0  # atno 17342 bound_to 10162
  139.6882  143.9738  152.2845 LP  0  0  0  0  0  0  0  0  0  0  0  0  # atno 17343 bound_to 10162
  157.2422  131.0528  151.2430 LP  0  0  0  0  0  0  0  0  0  0  0  0  # atno 17370 bound_to 10713
  157.3609  130.7131  149.6501 LP  0  0  0  0  0  0  0  0  0  0  0  0  # atno 17371 bound_to 10713
  140.8737  133.7969  155.9391 LP  0  0  0  0  0  0  0  0  0  0  0  0  # atno 17394 bound_to 11000
  140.8926  134.2476  157.5086 LP  0  0  0  0  0  0  0  0  0  0  0  0  # atno 17395 bound_to 11000

$$$$
