AV-unprocessed.smi:1006|AV-procd|sdf|4391|dock7
  -GOLD-   22720 2323D 1   1.00000     0.00000
 Structure written by MMmdl.
 45 47  0  0  0  0  0  0  0  0  1 V2000
  144.1144  139.4526  160.2559 C   0  0  0  0  0  0  0  0  0  0  0  0
  144.5233  139.7229  158.8233 C   0  0  0  0  0  0  0  0  0  0  0  0
  143.5635  139.9228  157.8082 C   0  0  0  0  0  0  0  0  0  0  0  0
  144.0678  140.1687  156.5136 C   0  0  0  0  0  0  0  0  0  0  0  0
  143.2051  140.3790  155.4409 N   0  0  0  0  0  0  0  0  0  0  0  0
  145.3940  140.2102  156.2612 N   0  0  0  0  0  0  0  0  0  0  0  0
  146.2065  140.0076  157.3012 C   0  0  0  0  0  0  0  0  0  0  0  0
  147.9531  140.0629  156.9268 S   0  0  0  0  0  0  0  0  0  0  0  0
  147.9573  140.3899  155.1370 C   0  0  0  0  0  0  0  0  0  0  0  0
  149.3540  140.7502  154.5982 C   0  0  1  0  0  0  0  0  0  0  0  0
  149.2422  141.1791  153.2564 O   0  0  0  0  0  0  0  0  0  0  0  0
  150.0498  141.8722  155.3957 C   0  0  0  0  0  0  0  0  0  0  0  0
  150.9861  141.3642  156.3827 N   0  0  0  0  0  0  0  0  0  0  0  0
  151.6733  140.2076  156.3265 C   0  0  0  0  0  0  0  0  0  0  0  0
  152.4747  139.9253  157.3497 N   0  0  0  0  0  0  0  0  0  0  0  0
  152.2848  141.0273  158.1658 C   0  0  0  0  0  0  0  0  0  0  0  0
  152.8427  141.3444  159.4237 C   0  0  0  0  0  0  0  0  0  0  0  0
  152.4948  142.5407  160.0907 C   0  0  0  0  0  0  0  0  0  0  0  0
  153.1175  142.8404  161.4429 C   0  0  0  0  0  0  0  0  0  0  0  0
  151.5746  143.4425  159.4986 C   0  0  0  0  0  0  0  0  0  0  0  0
  151.1812  144.7314  160.1979 C   0  0  0  0  0  0  0  0  0  0  0  0
  151.0113  143.1434  158.2408 C   0  0  0  0  0  0  0  0  0  0  0  0
  151.3634  141.9485  157.5878 C   0  0  0  0  0  0  0  0  0  0  0  0
  145.8486  139.7683  158.5668 N   0  0  0  0  0  0  0  0  0  0  0  0
  143.9430  140.3918  160.7817 H   0  0  0  0  0  0  0  0  0  0  0  0
  144.8891  138.8977  160.7866 H   0  0  0  0  0  0  0  0  0  0  0  0
  143.1958  138.8666  160.2903 H   0  0  0  0  0  0  0  0  0  0  0  0
  142.5033  139.8894  158.0128 H   0  0  0  0  0  0  0  0  0  0  0  0
  142.2023  140.3620  155.5563 H   0  0  0  0  0  0  0  0  0  0  0  0
  143.5579  140.5543  154.5112 H   0  0  0  0  0  0  0  0  0  0  0  0
  147.5655  139.5181  154.6114 H   0  0  0  0  0  0  0  0  0  0  0  0
  147.2687  141.2153  154.9580 H   0  0  0  0  0  0  0  0  0  0  0  0
  149.9826  139.8589  154.6144 H   0  0  0  0  0  0  0  0  0  0  0  0
  149.4325  140.4450  152.6920 H   0  0  0  0  0  0  0  0  0  0  0  0
  150.5897  142.5373  154.7202 H   0  0  0  0  0  0  0  0  0  0  0  0
  149.3103  142.4871  155.9101 H   0  0  0  0  0  0  0  0  0  0  0  0
  151.5759  139.5326  155.4886 H   0  0  0  0  0  0  0  0  0  0  0  0
  153.5413  140.6558  159.8757 H   0  0  0  0  0  0  0  0  0  0  0  0
  153.6459  143.7939  161.4185 H   0  0  0  0  0  0  0  0  0  0  0  0
  153.8333  142.0700  161.7315 H   0  0  0  0  0  0  0  0  0  0  0  0
  152.3482  142.8895  162.2139 H   0  0  0  0  0  0  0  0  0  0  0  0
  150.4161  145.2697  159.6378 H   0  0  0  0  0  0  0  0  0  0  0  0
  152.0460  145.3869  160.3019 H   0  0  0  0  0  0  0  0  0  0  0  0
  150.7820  144.5234  161.1908 H   0  0  0  0  0  0  0  0  0  0  0  0
  150.3070  143.8199  157.7799 H   0  0  0  0  0  0  0  0  0  0  0  0
  1  2  1  0  0  0  0
  1 25  1  0  0  0  0
  1 26  1  0  0  0  0
  1 27  1  0  0  0  0
  2 24  1  0  0  0  0
  2  3  2  0  0  0  0
  3  4  1  0  0  0  0
  3 28  1  0  0  0  0
  4  5  1  0  0  0  0
  4  6  2  0  0  0  0
  5 29  1  0  0  0  0
  5 30  1  0  0  0  0
  6  7  1  0  0  0  0
  7  8  1  0  0  0  0
  7 24  2  0  0  0  0
  8  9  1  0  0  0  0
  9 10  1  0  0  0  0
  9 31  1  0  0  0  0
  9 32  1  0  0  0  0
 10 11  1  0  0  0  0
 10 12  1  0  0  0  0
 10 33  1  0  0  0  0
 11 34  1  0  0  0  0
 12 13  1  0  0  0  0
 12 35  1  0  0  0  0
 12 36  1  0  0  0  0
 13 23  1  0  0  0  0
 13 14  1  0  0  0  0
 14 15  2  0  0  0  0
 14 37  1  0  0  0  0
 15 16  1  0  0  0  0
 16 23  2  0  0  0  0
 16 17  1  0  0  0  0
 17 18  2  0  0  0  0
 17 38  1  0  0  0  0
 18 19  1  0  0  0  0
 18 20  1  0  0  0  0
 19 39  1  0  0  0  0
 19 40  1  0  0  0  0
 19 41  1  0  0  0  0
 20 21  1  0  0  0  0
 20 22  2  0  0  0  0
 21 42  1  0  0  0  0
 21 43  1  0  0  0  0
 21 44  1  0  0  0  0
 22 23  1  0  0  0  0
 22 45  1  0  0  0  0
M  END
> <s_m_source_file>
AV-unprocessed.smi

> <i_m_source_file_index>
1006

> <i_lp_mmshare_version>
43012

> <i_f3d_flags>
0

> <s_epik_input>
W0NIM11jMVtjSF1jKFtOSDJdKW5jKG4xKVNbQ0gyXVtDQEhdKFtPSF0pW0NIMl1uKFtjSF1uMiljKGMyMylbY0hdYyhbQ0gzXSljKFtjSF0zKVtDSDNd

> <s_epik_cmdline>
J2VwaWtfcHl0aG9uJywgJy1waCcsICc3LjAnLCAnLXRuJywgJzgnLCAnLW1hJywgJzIwMCcsICctbWV0YWxfYmluZGluZycsICctaW1hZScsICc8aW5maWxlLm1hZT4nLCAnLW9tYWUnLCAnPG91dGZpbGUubWFlPic=

> <r_lp_tautomer_probability>
1

> <r_epik_Ionization_Penalty>
0.490208

> <r_epik_Ionization_Penalty_Charging>
0

> <r_epik_Ionization_Penalty_Neutral>
0.490208

> <r_epik_State_Penalty>
0.473203

> <r_epik_Charging_Adjusted_Penalty>
0.473203

> <i_epik_Tot_Q>
0

> <i_epik_Tot_abs_Q>
0

> <r_epik_Metal_State_Penalty>
0.354099

> <b_epik_Metal_Only>
0

> <s_lp_Force_Field>
OPLS_2005

> <r_lp_Energy>
2.6746

> <b_lp_Chiralities_Consistent>
1

> <s_lp_Variant>
AV-unprocessed.smi:1006-2

> <Gold.Version>
5.8.1

> <Gold.Id.Protein>
6NUR|6NUR_protein|mol2

> <Gold.PLP.Fitness>
49.8812

> <Gold.PLP.PLP>
-40.3757

> <Gold.PLP.part.hbond>
-5.4882

> <Gold.PLP.part.metal>
0.0000

> <Gold.PLP.part.buried>
-4.8785

> <Gold.PLP.part.nonpolar>
-29.5686

> <Gold.PLP.part.repulsive>
0.0428

> <Gold.PLP.ligand.clash>
0.0000

> <Gold.PLP.ligand.torsion>
0.9699

> <Gold.PLP.Chemscore.Hbond>
3.8000

> <Gold.PLP.Chemscore.CHOScore>
0.0000

> <Gold.PLP.Chemscore.Metal>
0.0000

> <Gold.Chemscore.Hbonds>
donor molecule, donor type, donor heavy atom, donor atom, acceptor molecule, acceptor atom, score
      L1  H     5    30       P1 10175  1.00
      L1  H    11    34       P1  7957  0.83
      P1  H  7997  8010       L1    15  0.98
      P1  H  8011  8017       L1    11  1.00

> <Gold.PLP.Chemscore.Internal.Correction>
0.0453

> <Gold.Rescore>
     Score         DG    S(hbond)    S(metal)    S(lipo)     H(rot)  DE(clash)    DE(int)     intcor
     18.71     -20.20       3.10        0.00      99.09       2.82       0.44       1.06       ----

> <Gold.Chemscore.Fitness>
18.7091

> <Gold.Chemscore.DG>
-20.2042

> <Gold.Chemscore.ZeroCoef>
-5.4800

> <Gold.Chemscore.Hbond>
3.0995

> <Gold.Chemscore.Metal>
0.0000

> <Gold.Chemscore.Lipo>
99.0898

> <Gold.Chemscore.Internal_Hbond>
0.0000

> <Gold.Chemscore.DEClash>
0.4370

> <Gold.Chemscore.DEInternal>
1.0582

> <Gold.Chemscore.Rot>
2.8209

> <Gold.Chemscore.Internal.Correction>
   9.000000E+99

> <Gold.Chemscore.Hbonds>
donor molecule, donor type, donor heavy atom, donor atom, acceptor molecule, acceptor atom, score
      L1  H     5    30       P1 10175  0.95
      L1  H    11    34       P1  7957  0.82
      P1  H  7997  8010       L1    15  0.22
      P1  H  8011  8017       L1    11  0.25

> <Gold.Chemscore.Hbond.Weighted>
-10.3522

> <Gold.Chemscore.Metal.Weighted>
-0.0000

> <Gold.Chemscore.Lipo.Weighted>
-11.5935

> <Gold.Chemscore.Internal_Hbond.Weighted>
0.0000

> <Gold.Chemscore.DEClash.Weighted>
0.4370

> <Gold.Chemscore.DEInternal.Weighted>
1.0582

> <Gold.Chemscore.Rot.Weighted>
7.2215

> <Gold.Chemscore.Internal.Correction.Weighted>
   9.000000E+99

> <Gold.Protein.RotatedTorsions>
[ 6907 6896 6895 6894 ] final  148.26 input  -60.11 | X-H torsion
[ 7974 7965 7964 7962 ] final  -54.85 input  175.53 | X-H torsion
[ 8008 7997 7996 7995 ] final   64.51 input   59.86 | X-H torsion
[ 10167 10162 10161 10158 ] final  -52.39 input  -65.29 | X-H torsion
[ 10718 10713 10712 10709 ] final  100.29 input   66.30 | X-H torsion
[ 10763 10752 10751 10750 ] final   43.76 input  -60.55 | X-H torsion
[ 11005 11000 10999 10996 ] final  -97.64 input  -57.11 | X-H torsion

> <Gold.Protein.ActiveResidues>
 VAL166  LYS551  ARG553  GLY616  TRP617  ASP618  TYR619  PRO620  LYS621  CYS622 
 ASP623  PHE694  ASN695  SER759  ASP760  ASP761  ALA762  ILE779  LEU786  VAL792 
 PHE793  MET794  SER795  GLU796  ALA797  LYS798  CYS799  TRP800  GLU811  SER814 

> <Gold.Protein.RotatedAtoms>
  152.1438  133.4480  159.4779 H   0  0  0  0  0  0  0  0  0  0  0  0  # atno 6907 bound_to 6896
  150.6888  134.2272  159.4429 H   0  0  0  0  0  0  0  0  0  0  0  0  # atno 6908 bound_to 6896
  152.0165  134.9846  160.0620 H   0  0  0  0  0  0  0  0  0  0  0  0  # atno 6909 bound_to 6896
  145.8809  140.8145  142.9840 H   0  0  0  0  0  0  0  0  0  0  0  0  # atno 7974 bound_to 7965
  155.6472  140.3497  155.4735 H   0  0  0  0  0  0  0  0  0  0  0  0  # atno 8008 bound_to 7997
  155.9878  140.1187  157.0690 H   0  0  0  0  0  0  0  0  0  0  0  0  # atno 8009 bound_to 7997
  154.4210  140.1125  156.5509 H   0  0  0  0  0  0  0  0  0  0  0  0  # atno 8010 bound_to 7997
  140.6540  143.2586  151.4640 H   0  0  0  0  0  0  0  0  0  0  0  0  # atno 10167 bound_to 10162
  157.6857  131.0694  150.5079 H   0  0  0  0  0  0  0  0  0  0  0  0  # atno 10718 bound_to 10713
  152.9854  135.6091  154.3163 H   0  0  0  0  0  0  0  0  0  0  0  0  # atno 10763 bound_to 10752
  154.2876  135.2775  155.2671 H   0  0  0  0  0  0  0  0  0  0  0  0  # atno 10764 bound_to 10752
  154.4982  135.5874  153.6567 H   0  0  0  0  0  0  0  0  0  0  0  0  # atno 10765 bound_to 10752
  141.1372  133.8186  157.0733 H   0  0  0  0  0  0  0  0  0  0  0  0  # atno 11005 bound_to 11000
  144.6727  140.1382  143.7439 LP  0  0  0  0  0  0  0  0  0  0  0  0  # atno 17320 bound_to 7965
  145.9025  139.2439  143.1485 LP  0  0  0  0  0  0  0  0  0  0  0  0  # atno 17321 bound_to 7965
  139.5759  144.1820  152.1902 LP  0  0  0  0  0  0  0  0  0  0  0  0  # atno 17342 bound_to 10162
  140.1130  144.5440  150.6912 LP  0  0  0  0  0  0  0  0  0  0  0  0  # atno 17343 bound_to 10162
  156.5397  130.4205  149.6160 LP  0  0  0  0  0  0  0  0  0  0  0  0  # atno 17370 bound_to 10713
  156.2996  130.7169  151.2038 LP  0  0  0  0  0  0  0  0  0  0  0  0  # atno 17371 bound_to 10713
  140.0497  134.9812  157.1114 LP  0  0  0  0  0  0  0  0  0  0  0  0  # atno 17394 bound_to 11000
  140.4008  134.2084  155.7163 LP  0  0  0  0  0  0  0  0  0  0  0  0  # atno 17395 bound_to 11000

$$$$
