AV-unprocessed.smi:2217|AV-procd|sdf|8974|dock7
  -GOLD-   2272012183D 1   1.00000     0.00000
 Structure written by MMmdl.
 45 48  0  0  0  0  0  0  0  0  1 V2000
  143.8303  132.5280  149.5257 C   0  0  0  0  0  0  0  0  0  0  0  0
  144.5710  133.5680  150.3397 C   0  0  0  0  0  0  0  0  0  0  0  0
  145.6211  133.2064  151.2046 C   0  0  0  0  0  0  0  0  0  0  0  0
  146.2732  134.2153  151.9394 C   0  0  0  0  0  0  0  0  0  0  0  0
  145.8655  135.5608  151.7944 C   0  0  0  0  0  0  0  0  0  0  0  0
  146.5933  136.4890  152.5969 N   0  0  0  0  0  0  0  0  0  0  0  0
  146.9985  137.7536  152.3514 C   0  0  0  0  0  0  0  0  0  0  0  0
  146.7511  138.3067  151.2812 O   0  0  0  0  0  0  0  0  0  0  0  0
  147.6758  138.3581  153.3385 N   0  0  0  0  0  0  0  0  0  0  0  0
  148.2334  139.7120  153.2779 C   0  0  2  0  0  0  0  0  0  0  0  0
  149.5380  139.8798  154.0627 C   0  0  2  0  0  0  0  0  0  0  0  0
  150.5979  138.9676  154.5665 C   0  0  0  0  0  0  0  0  0  0  0  0
  150.7758  139.6235  155.9614 C   0  0  0  0  0  0  0  0  0  0  0  0
  149.6895  140.5749  156.0961 O   0  0  0  0  0  0  0  0  0  0  0  0
  148.6599  140.0406  155.2864 C   0  0  1  0  0  0  0  0  0  0  0  0
  147.6304  140.7075  154.3428 C   0  0  0  0  0  0  0  0  0  0  0  0
  147.7917  142.2207  154.0917 C   0  0  0  0  0  0  0  0  0  0  0  0
  146.4111  142.8720  154.1813 C   0  0  0  0  0  0  0  0  0  0  0  0
  145.6080  141.9308  155.0665 C   0  0  0  0  0  0  0  0  0  0  0  0
  146.1479  140.5495  154.7069 C   0  0  0  0  0  0  0  0  0  0  0  0
  144.8481  135.8958  150.9599 N   0  0  0  0  0  0  0  0  0  0  0  0
  144.2230  134.9295  150.2555 C   0  0  0  0  0  0  0  0  0  0  0  0
  144.3422  131.5656  149.5540 H   0  0  0  0  0  0  0  0  0  0  0  0
  143.7560  132.8426  148.4842 H   0  0  0  0  0  0  0  0  0  0  0  0
  142.8218  132.3914  149.9165 H   0  0  0  0  0  0  0  0  0  0  0  0
  145.9248  132.1748  151.3071 H   0  0  0  0  0  0  0  0  0  0  0  0
  147.0806  133.9532  152.6078 H   0  0  0  0  0  0  0  0  0  0  0  0
  146.8104  136.1551  153.5246 H   0  0  0  0  0  0  0  0  0  0  0  0
  147.8359  137.8347  154.1880 H   0  0  0  0  0  0  0  0  0  0  0  0
  148.2708  140.1288  152.2701 H   0  0  0  0  0  0  0  0  0  0  0  0
  149.9983  140.8249  153.7572 H   0  0  0  0  0  0  0  0  0  0  0  0
  150.2536  137.9354  154.6424 H   0  0  0  0  0  0  0  0  0  0  0  0
  151.5074  139.0005  153.9664 H   0  0  0  0  0  0  0  0  0  0  0  0
  150.7240  138.8729  156.7512 H   0  0  0  0  0  0  0  0  0  0  0  0
  151.7305  140.1428  156.0498 H   0  0  0  0  0  0  0  0  0  0  0  0
  148.2952  139.0980  155.7083 H   0  0  0  0  0  0  0  0  0  0  0  0
  148.4408  142.6595  154.8506 H   0  0  0  0  0  0  0  0  0  0  0  0
  148.2529  142.4343  153.1269 H   0  0  0  0  0  0  0  0  0  0  0  0
  146.4483  143.8899  154.5706 H   0  0  0  0  0  0  0  0  0  0  0  0
  145.9609  142.9107  153.1884 H   0  0  0  0  0  0  0  0  0  0  0  0
  145.8157  142.1456  156.1156 H   0  0  0  0  0  0  0  0  0  0  0  0
  144.5323  142.0184  154.9120 H   0  0  0  0  0  0  0  0  0  0  0  0
  145.5929  140.1659  153.8497 H   0  0  0  0  0  0  0  0  0  0  0  0
  145.9915  139.8427  155.5226 H   0  0  0  0  0  0  0  0  0  0  0  0
  143.4223  135.2546  149.6076 H   0  0  0  0  0  0  0  0  0  0  0  0
  1  2  1  0  0  0  0
  1 23  1  0  0  0  0
  1 24  1  0  0  0  0
  1 25  1  0  0  0  0
  2 22  1  0  0  0  0
  2  3  2  0  0  0  0
  3  4  1  0  0  0  0
  3 26  1  0  0  0  0
  4  5  2  0  0  0  0
  4 27  1  0  0  0  0
  5  6  1  0  0  0  0
  5 21  1  0  0  0  0
  6  7  1  0  0  0  0
  6 28  1  0  0  0  0
  7  8  2  0  0  0  0
  7  9  1  0  0  0  0
  9 10  1  0  0  0  0
  9 29  1  0  0  0  0
 10 16  1  0  0  0  0
 10 11  1  0  0  0  0
 10 30  1  0  0  0  0
 11 15  1  0  0  0  0
 11 12  1  0  0  0  0
 11 31  1  0  0  0  0
 12 13  1  0  0  0  0
 12 32  1  0  0  0  0
 12 33  1  0  0  0  0
 13 14  1  0  0  0  0
 13 34  1  0  0  0  0
 13 35  1  0  0  0  0
 14 15  1  0  0  0  0
 15 16  1  0  0  0  0
 15 36  1  0  0  0  0
 16 20  1  0  0  0  0
 16 17  1  0  0  0  0
 17 18  1  0  0  0  0
 17 37  1  0  0  0  0
 17 38  1  0  0  0  0
 18 19  1  0  0  0  0
 18 39  1  0  0  0  0
 18 40  1  0  0  0  0
 19 20  1  0  0  0  0
 19 41  1  0  0  0  0
 19 42  1  0  0  0  0
 20 43  1  0  0  0  0
 20 44  1  0  0  0  0
 21 22  2  0  0  0  0
 22 45  1  0  0  0  0
M  END
> <s_m_source_file>
AV-unprocessed.smi

> <i_m_source_file_index>
2217

> <i_lp_mmshare_version>
43012

> <i_f3d_flags>
0

> <s_epik_input>
W0NIM11jMVtjSF1bY0hdYyhuW2NIXTEpW05IXUMoPU8pW05IXVtDQEBIXTJbQ0BASF0oW0NIMl1bQ0gyXU8zKVtDQEhdM0MyNFtDSDJdW0NIMl1bQ0gyXVtDSDJdNA==

> <s_epik_cmdline>
J2VwaWtfcHl0aG9uJywgJy1waCcsICc3LjAnLCAnLXRuJywgJzgnLCAnLW1hJywgJzIwMCcsICctbWV0YWxfYmluZGluZycsICctaW1hZScsICc8aW5maWxlLm1hZT4nLCAnLW9tYWUnLCAnPG91dGZpbGUubWFlPic=

> <r_lp_tautomer_probability>
1

> <r_epik_Ionization_Penalty>
6.14796e-05

> <r_epik_Ionization_Penalty_Charging>
0

> <r_epik_Ionization_Penalty_Neutral>
6.14796e-05

> <r_epik_State_Penalty>
-0

> <r_epik_Charging_Adjusted_Penalty>
0

> <i_epik_Tot_Q>
0

> <i_epik_Tot_abs_Q>
0

> <r_epik_Metal_State_Penalty>
-0

> <b_epik_Metal_Only>
0

> <s_lp_Force_Field>
OPLS_2005

> <r_lp_Energy>
82.2768

> <b_lp_Chiralities_Consistent>
1

> <s_lp_Variant>
AV-unprocessed.smi:2217-7

> <Gold.Version>
5.8.1

> <Gold.Id.Protein>
6NUR|6NUR_protein|mol2

> <Gold.PLP.Fitness>
37.2715

> <Gold.PLP.PLP>
-31.9283

> <Gold.PLP.part.hbond>
-2.7205

> <Gold.PLP.part.metal>
0.0000

> <Gold.PLP.part.buried>
6.9643

> <Gold.PLP.part.nonpolar>
-37.5831

> <Gold.PLP.part.repulsive>
1.3408

> <Gold.PLP.ligand.clash>
0.0000

> <Gold.PLP.ligand.torsion>
0.4521

> <Gold.PLP.Chemscore.Hbond>
0.9913

> <Gold.PLP.Chemscore.CHOScore>
1.0000

> <Gold.PLP.Chemscore.Metal>
0.0000

> <Gold.Chemscore.Hbonds>
donor molecule, donor type, donor heavy atom, donor atom, acceptor molecule, acceptor atom, score
      P1  H  7954  7966       L1     8  1.00
      L1  C    22    45       P1 10186  0.97

> <Gold.PLP.Chemscore.Internal.Correction>
0.2736

> <Gold.Rescore>
     Score         DG    S(hbond)    S(metal)    S(lipo)     H(rot)  DE(clash)    DE(int)     intcor
     12.02     -17.04       0.92        0.00      94.53       1.00       4.54       0.48       ----

> <Gold.Chemscore.Fitness>
12.0226

> <Gold.Chemscore.DG>
-17.0382

> <Gold.Chemscore.ZeroCoef>
-5.4800

> <Gold.Chemscore.Hbond>
0.9157

> <Gold.Chemscore.Metal>
0.0000

> <Gold.Chemscore.Lipo>
94.5284

> <Gold.Chemscore.Internal_Hbond>
0.0000

> <Gold.Chemscore.DEClash>
4.5395

> <Gold.Chemscore.DEInternal>
0.4760

> <Gold.Chemscore.Rot>
1.0000

> <Gold.Chemscore.Internal.Correction>
   9.000000E+99

> <Gold.Chemscore.Hbonds>
donor molecule, donor type, donor heavy atom, donor atom, acceptor molecule, acceptor atom, score
      P1  H  7954  7966       L1     8  0.73

> <Gold.Chemscore.Hbond.Weighted>
-3.0584

> <Gold.Chemscore.Metal.Weighted>
-0.0000

> <Gold.Chemscore.Lipo.Weighted>
-11.0598

> <Gold.Chemscore.Internal_Hbond.Weighted>
0.0000

> <Gold.Chemscore.DEClash.Weighted>
4.5395

> <Gold.Chemscore.DEInternal.Weighted>
0.4760

> <Gold.Chemscore.Rot.Weighted>
2.5600

> <Gold.Chemscore.Internal.Correction.Weighted>
   9.000000E+99

> <Gold.Protein.RotatedTorsions>
[ 6907 6896 6895 6894 ] final  154.96 input  -60.11 | X-H torsion
[ 7974 7965 7964 7962 ] final -179.95 input  175.53 | X-H torsion
[ 8008 7997 7996 7995 ] final -163.30 input   59.86 | X-H torsion
[ 10167 10162 10161 10158 ] final   -9.18 input  -65.29 | X-H torsion
[ 10718 10713 10712 10709 ] final  -78.75 input   66.30 | X-H torsion
[ 10763 10752 10751 10750 ] final -150.76 input  -60.55 | X-H torsion
[ 11005 11000 10999 10996 ] final  -31.21 input  -57.11 | X-H torsion

> <Gold.Protein.ActiveResidues>
 VAL166  LYS551  ARG553  GLY616  TRP617  ASP618  TYR619  PRO620  LYS621  CYS622 
 ASP623  PHE694  ASN695  SER759  ASP760  ASP761  ALA762  ILE779  LEU786  VAL792 
 PHE793  MET794  SER795  GLU796  ALA797  LYS798  CYS799  TRP800  GLU811  SER814 

> <Gold.Protein.RotatedAtoms>
  152.0511  133.4019  159.4376 H   0  0  0  0  0  0  0  0  0  0  0  0  # atno 6907 bound_to 6896
  150.6870  134.3307  159.4835 H   0  0  0  0  0  0  0  0  0  0  0  0  # atno 6908 bound_to 6896
  152.1117  134.9269  160.0617 H   0  0  0  0  0  0  0  0  0  0  0  0  # atno 6909 bound_to 6896
  144.7140  140.0641  143.6431 H   0  0  0  0  0  0  0  0  0  0  0  0  # atno 7974 bound_to 7965
  155.8193  140.0917  157.1858 H   0  0  0  0  0  0  0  0  0  0  0  0  # atno 8008 bound_to 7997
  154.3979  140.1440  156.3540 H   0  0  0  0  0  0  0  0  0  0  0  0  # atno 8009 bound_to 7997
  155.8283  140.3443  155.5559 H   0  0  0  0  0  0  0  0  0  0  0  0  # atno 8010 bound_to 7997
  140.7080  143.5887  150.8916 H   0  0  0  0  0  0  0  0  0  0  0  0  # atno 10167 bound_to 10162
  156.0109  130.4526  150.3544 H   0  0  0  0  0  0  0  0  0  0  0  0  # atno 10718 bound_to 10713
  154.8099  135.3276  154.7332 H   0  0  0  0  0  0  0  0  0  0  0  0  # atno 10763 bound_to 10752
  153.7983  135.6905  153.4864 H   0  0  0  0  0  0  0  0  0  0  0  0  # atno 10764 bound_to 10752
  153.1871  135.4565  155.0048 H   0  0  0  0  0  0  0  0  0  0  0  0  # atno 10765 bound_to 10752
  140.9449  133.7256  156.1131 H   0  0  0  0  0  0  0  0  0  0  0  0  # atno 11005 bound_to 11000
  145.9839  139.2962  143.1025 LP  0  0  0  0  0  0  0  0  0  0  0  0  # atno 17320 bound_to 7965
  145.8979  140.9262  143.0518 LP  0  0  0  0  0  0  0  0  0  0  0  0  # atno 17321 bound_to 7965
  139.9612  143.6161  152.3001 LP  0  0  0  0  0  0  0  0  0  0  0  0  # atno 17342 bound_to 10162
  139.6715  144.7660  151.1775 LP  0  0  0  0  0  0  0  0  0  0  0  0  # atno 17343 bound_to 10162
  157.1635  131.0351  151.2830 LP  0  0  0  0  0  0  0  0  0  0  0  0  # atno 17370 bound_to 10713
  157.4291  130.7480  149.6975 LP  0  0  0  0  0  0  0  0  0  0  0  0  # atno 17371 bound_to 10713
  140.7684  134.3861  157.5512 LP  0  0  0  0  0  0  0  0  0  0  0  0  # atno 17394 bound_to 11000
  139.8830  134.9006  156.2792 LP  0  0  0  0  0  0  0  0  0  0  0  0  # atno 17395 bound_to 11000

$$$$
