AV-unprocessed.smi:1377|AV-procd|sdf|5594|dock2
  -GOLD-   22720 5193D 1   1.00000     0.00000
 Structure written by MMmdl.
 29 30  0  0  0  0  0  0  0  0  1 V2000
  150.2205  136.0307  154.3980 N   0  0  0  0  0  0  0  0  0  0  0  0
  151.3207  136.6504  154.8342 C   0  0  0  0  0  0  0  0  0  0  0  0
  151.9769  136.2300  155.7848 O   0  0  0  0  0  0  0  0  0  0  0  0
  151.7448  137.9238  154.0994 C   0  0  0  0  0  0  0  0  0  0  0  0
  150.7901  139.0418  154.4035 C   0  0  0  0  0  0  0  0  0  0  0  0
  149.5195  139.2029  153.9041 C   0  0  0  0  0  0  0  0  0  0  0  0
  148.7503  140.6403  154.5213 S   0  0  0  0  0  0  0  0  0  0  0  0
  150.2087  140.9800  155.4397 C   0  0  0  0  0  0  0  0  0  0  0  0
  150.3221  142.1211  156.2761 N   0  0  0  0  0  0  0  0  0  0  0  0
  151.0948  142.2823  157.3665 C   0  0  0  0  0  0  0  0  0  0  0  0
  151.8613  141.4266  157.8110 O   0  0  0  0  0  0  0  0  0  0  0  0
  150.9739  143.6456  158.0617 C   0  0  0  0  0  0  0  0  0  0  0  0
  151.8387  144.7573  157.4418 C   0  0  0  0  0  0  0  0  0  0  0  0
  152.2462  145.1763  158.8573 C   0  0  0  0  0  0  0  0  0  0  0  0
  151.8140  143.7900  159.3435 C   0  0  0  0  0  0  0  0  0  0  0  0
  151.1730  140.0678  155.2738 N   0  0  0  0  0  0  0  0  0  0  0  0
  149.9077  135.1868  154.8560 H   0  0  0  0  0  0  0  0  0  0  0  0
  149.7062  136.4053  153.6142 H   0  0  0  0  0  0  0  0  0  0  0  0
  152.7593  138.1852  154.4038 H   0  0  0  0  0  0  0  0  0  0  0  0
  151.7870  137.7366  153.0255 H   0  0  0  0  0  0  0  0  0  0  0  0
  148.9894  138.5609  153.2163 H   0  0  0  0  0  0  0  0  0  0  0  0
  149.7484  142.9096  156.0151 H   0  0  0  0  0  0  0  0  0  0  0  0
  149.9420  143.9685  158.2132 H   0  0  0  0  0  0  0  0  0  0  0  0
  152.6818  144.3951  156.8505 H   0  0  0  0  0  0  0  0  0  0  0  0
  151.2734  145.5167  156.9012 H   0  0  0  0  0  0  0  0  0  0  0  0
  153.3083  145.3901  158.9807 H   0  0  0  0  0  0  0  0  0  0  0  0
  151.6217  145.9769  159.2564 H   0  0  0  0  0  0  0  0  0  0  0  0
  151.2295  143.8061  160.2638 H   0  0  0  0  0  0  0  0  0  0  0  0
  152.6497  143.0916  159.4175 H   0  0  0  0  0  0  0  0  0  0  0  0
  1  2  1  0  0  0  0
  1 17  1  0  0  0  0
  1 18  1  0  0  0  0
  2  3  2  0  0  0  0
  2  4  1  0  0  0  0
  4  5  1  0  0  0  0
  4 19  1  0  0  0  0
  4 20  1  0  0  0  0
  5 16  1  0  0  0  0
  5  6  2  0  0  0  0
  6  7  1  0  0  0  0
  6 21  1  0  0  0  0
  7  8  1  0  0  0  0
  8  9  1  0  0  0  0
  8 16  2  0  0  0  0
  9 10  1  0  0  0  0
  9 22  1  0  0  0  0
 10 11  2  0  0  0  0
 10 12  1  0  0  0  0
 12 15  1  0  0  0  0
 12 13  1  0  0  0  0
 12 23  1  0  0  0  0
 13 14  1  0  0  0  0
 13 24  1  0  0  0  0
 13 25  1  0  0  0  0
 14 15  1  0  0  0  0
 14 26  1  0  0  0  0
 14 27  1  0  0  0  0
 15 28  1  0  0  0  0
 15 29  1  0  0  0  0
M  END
> <s_m_source_file>
AV-unprocessed.smi

> <i_m_source_file_index>
1377

> <i_lp_mmshare_version>
43012

> <i_f3d_flags>
0

> <s_epik_input>
W05IMl1DKD1PKVtDSDJdYzFbY0hdc2MobjEpW05IXUMoPU8pW0NIXTJbQ0gyXVtDSDJdW0NIMl0y

> <s_epik_cmdline>
J2VwaWtfcHl0aG9uJywgJy1waCcsICc3LjAnLCAnLXRuJywgJzgnLCAnLW1hJywgJzIwMCcsICctbWV0YWxfYmluZGluZycsICctaW1hZScsICc8aW5maWxlLm1hZT4nLCAnLW9tYWUnLCAnPG91dGZpbGUubWFlPic=

> <r_lp_tautomer_probability>
1

> <r_epik_Ionization_Penalty>
0.000217978

> <r_epik_Ionization_Penalty_Charging>
0

> <r_epik_Ionization_Penalty_Neutral>
0.000217978

> <r_epik_State_Penalty>
-0

> <r_epik_Charging_Adjusted_Penalty>
0

> <i_epik_Tot_Q>
0

> <i_epik_Tot_abs_Q>
0

> <r_epik_Metal_State_Penalty>
0.13268

> <b_epik_Metal_Only>
0

> <s_lp_Force_Field>
OPLS_2005

> <r_lp_Energy>
11.3529

> <b_lp_Chiralities_Consistent>
1

> <s_lp_Variant>
AV-unprocessed.smi:1377-1

> <Gold.Version>
5.8.1

> <Gold.Id.Protein>
6NUR|6NUR_protein|mol2

> <Gold.PLP.Fitness>
45.7548

> <Gold.PLP.PLP>
-35.1067

> <Gold.PLP.part.hbond>
-4.5005

> <Gold.PLP.part.metal>
0.0000

> <Gold.PLP.part.buried>
-0.4811

> <Gold.PLP.part.nonpolar>
-30.9491

> <Gold.PLP.part.repulsive>
0.2030

> <Gold.PLP.ligand.clash>
0.0000

> <Gold.PLP.ligand.torsion>
0.7882

> <Gold.PLP.Chemscore.Hbond>
2.9760

> <Gold.PLP.Chemscore.CHOScore>
0.9616

> <Gold.PLP.Chemscore.Metal>
0.0000

> <Gold.Chemscore.Hbonds>
donor molecule, donor type, donor heavy atom, donor atom, acceptor molecule, acceptor atom, score
      L1  H     1    18       P1  7948  1.00
      L1  H     9    22       P1  8028  0.99
      P1  H 10752 10765       L1     3  0.98
      L1  C     6    21       P1  7948  0.66
      L1  C     6    21       P1  7957  0.23

> <Gold.PLP.Chemscore.Internal.Correction>
0.4118

> <Gold.Rescore>
     Score         DG    S(hbond)    S(metal)    S(lipo)     H(rot)  DE(clash)    DE(int)     intcor
     14.88     -18.35       2.42        0.00      82.93       1.92       1.52       1.95       ----

> <Gold.Chemscore.Fitness>
14.8837

> <Gold.Chemscore.DG>
-18.3524

> <Gold.Chemscore.ZeroCoef>
-5.4800

> <Gold.Chemscore.Hbond>
2.4237

> <Gold.Chemscore.Metal>
0.0000

> <Gold.Chemscore.Lipo>
82.9283

> <Gold.Chemscore.Internal_Hbond>
0.0000

> <Gold.Chemscore.DEClash>
1.5232

> <Gold.Chemscore.DEInternal>
1.9455

> <Gold.Chemscore.Rot>
1.9239

> <Gold.Chemscore.Internal.Correction>
   9.000000E+99

> <Gold.Chemscore.Hbonds>
donor molecule, donor type, donor heavy atom, donor atom, acceptor molecule, acceptor atom, score
      L1  H     1    18       P1  7948  0.42
      L1  H     9    22       P1  8028  0.92
      P1  H 10752 10765       L1     3  0.56

> <Gold.Chemscore.Hbond.Weighted>
-8.0951

> <Gold.Chemscore.Metal.Weighted>
-0.0000

> <Gold.Chemscore.Lipo.Weighted>
-9.7026

> <Gold.Chemscore.Internal_Hbond.Weighted>
0.0000

> <Gold.Chemscore.DEClash.Weighted>
1.5232

> <Gold.Chemscore.DEInternal.Weighted>
1.9455

> <Gold.Chemscore.Rot.Weighted>
4.9253

> <Gold.Chemscore.Internal.Correction.Weighted>
   9.000000E+99

> <Gold.Protein.RotatedTorsions>
[ 6907 6896 6895 6894 ] final  -80.55 input  -60.11 | X-H torsion
[ 7974 7965 7964 7962 ] final  151.54 input  175.53 | X-H torsion
[ 8008 7997 7996 7995 ] final  -33.53 input   59.86 | X-H torsion
[ 10167 10162 10161 10158 ] final -171.53 input  -65.29 | X-H torsion
[ 10718 10713 10712 10709 ] final   26.92 input   66.30 | X-H torsion
[ 10763 10752 10751 10750 ] final -138.09 input  -60.55 | X-H torsion
[ 11005 11000 10999 10996 ] final -117.92 input  -57.11 | X-H torsion

> <Gold.Protein.ActiveResidues>
 VAL166  LYS551  ARG553  GLY616  TRP617  ASP618  TYR619  PRO620  LYS621  CYS622 
 ASP623  PHE694  ASN695  SER759  ASP760  ASP761  ALA762  ILE779  LEU786  VAL792 
 PHE793  MET794  SER795  GLU796  ALA797  LYS798  CYS799  TRP800  GLU811  SER814 

> <Gold.Protein.RotatedAtoms>
  150.6927  134.3953  159.5094 H   0  0  0  0  0  0  0  0  0  0  0  0  # atno 6907 bound_to 6896
  152.1735  134.8812  160.0541 H   0  0  0  0  0  0  0  0  0  0  0  0  # atno 6908 bound_to 6896
  151.9829  133.3729  159.4151 H   0  0  0  0  0  0  0  0  0  0  0  0  # atno 6909 bound_to 6896
  144.8285  139.6551  143.6069 H   0  0  0  0  0  0  0  0  0  0  0  0  # atno 7974 bound_to 7965
  154.4146  140.1708  156.1903 H   0  0  0  0  0  0  0  0  0  0  0  0  # atno 8008 bound_to 7997
  155.9609  140.3393  155.6466 H   0  0  0  0  0  0  0  0  0  0  0  0  # atno 8009 bound_to 7997
  155.6750  140.0716  157.2496 H   0  0  0  0  0  0  0  0  0  0  0  0  # atno 8010 bound_to 7997
  139.5797  144.1452  152.1498 H   0  0  0  0  0  0  0  0  0  0  0  0  # atno 10167 bound_to 10162
  157.2133  130.6944  149.6238 H   0  0  0  0  0  0  0  0  0  0  0  0  # atno 10718 bound_to 10713
  154.8646  135.3623  154.5328 H   0  0  0  0  0  0  0  0  0  0  0  0  # atno 10763 bound_to 10752
  153.5953  135.7014  153.5411 H   0  0  0  0  0  0  0  0  0  0  0  0  # atno 10764 bound_to 10752
  153.3338  135.4117  155.1478 H   0  0  0  0  0  0  0  0  0  0  0  0  # atno 10765 bound_to 10752
  141.0322  133.9964  157.3126 H   0  0  0  0  0  0  0  0  0  0  0  0  # atno 11005 bound_to 11000
  146.2589  139.6366  142.9375 LP  0  0  0  0  0  0  0  0  0  0  0  0  # atno 17320 bound_to 7965
  145.4947  141.0438  143.2574 LP  0  0  0  0  0  0  0  0  0  0  0  0  # atno 17321 bound_to 7965
  140.1002  144.5545  150.6994 LP  0  0  0  0  0  0  0  0  0  0  0  0  # atno 17342 bound_to 10162
  140.7076  143.2480  151.4679 LP  0  0  0  0  0  0  0  0  0  0  0  0  # atno 17343 bound_to 10162
  155.9688  130.4544  150.5848 LP  0  0  0  0  0  0  0  0  0  0  0  0  # atno 17370 bound_to 10713
  157.3650  131.0756  151.1605 LP  0  0  0  0  0  0  0  0  0  0  0  0  # atno 17371 bound_to 10713
  139.9215  135.0200  156.8083 LP  0  0  0  0  0  0  0  0  0  0  0  0  # atno 17394 bound_to 11000
  140.6387  133.9839  155.7697 LP  0  0  0  0  0  0  0  0  0  0  0  0  # atno 17395 bound_to 11000

$$$$
