AV-unprocessed.smi:2124|AV-procd|sdf|8660|dock8
  -GOLD-   2272011413D 1   1.00000     0.00000
 Structure written by MMmdl.
 47 49  0  0  0  0  0  0  0  0  1 V2000
  148.4287  141.3474  153.7755 C   0  0  0  0  0  0  0  0  0  0  0  0
  149.2968  140.7070  154.8371 C   0  0  0  0  0  0  0  0  0  0  0  0
  148.5870  140.2533  155.9365 N   0  0  0  0  0  0  0  0  0  0  0  0
  149.2972  139.6667  156.9690 C   0  0  0  0  0  0  0  0  0  0  0  0
  148.4457  139.2087  158.1401 C   0  0  0  0  0  0  0  0  0  0  0  0
  150.6455  139.5268  156.9027 C   0  0  0  0  0  0  0  0  0  0  0  0
  151.4689  138.8842  158.0185 C   0  0  0  0  0  0  0  0  0  0  0  0
  152.7492  139.6170  158.4284 C   0  0  0  0  0  0  0  0  0  0  0  0
  153.8395  139.0457  158.3916 O   0  0  0  0  0  0  0  0  0  0  0  0
  152.5924  140.8943  158.8098 N   0  0  0  0  0  0  0  0  0  0  0  0
  153.6573  141.8072  159.2233 C   0  0  2  0  0  0  0  0  0  0  0  0
  154.2853  141.2624  160.5171 C   0  0  0  0  0  0  0  0  0  0  0  0
  153.0949  143.2399  159.3997 C   0  0  1  0  0  0  0  0  0  0  0  0
  152.5398  143.8514  158.0895 C   0  0  0  0  0  0  0  0  0  0  0  0
  151.1115  144.2774  158.4722 C   0  0  2  0  0  0  0  0  0  0  0  0
  151.1714  145.4712  159.4418 C   0  0  0  0  0  0  0  0  0  0  0  0
  151.6697  144.8211  160.7456 C   0  0  0  0  0  0  0  0  0  0  0  0
  151.8644  143.3480  160.3388 C   0  0  1  0  0  0  0  0  0  0  0  0
  150.6885  143.1390  159.3909 C   0  0  0  0  0  0  0  0  0  0  0  0
  151.3473  140.0108  155.6905 C   0  0  0  0  0  0  0  0  0  0  0  0
  152.5646  139.8879  155.5594 O   0  0  0  0  0  0  0  0  0  0  0  0
  150.5826  140.6158  154.6798 N   0  0  0  0  0  0  0  0  0  0  0  0
  147.5843  140.3345  156.0252 H   0  0  0  0  0  0  0  0  0  0  0  0
  149.0394  141.8269  153.0094 H   0  0  0  0  0  0  0  0  0  0  0  0
  147.7809  142.1057  154.2168 H   0  0  0  0  0  0  0  0  0  0  0  0
  147.8040  140.5946  153.2940 H   0  0  0  0  0  0  0  0  0  0  0  0
  148.7259  139.7435  159.0477 H   0  0  0  0  0  0  0  0  0  0  0  0
  148.5785  138.1403  158.3130 H   0  0  0  0  0  0  0  0  0  0  0  0
  147.3849  139.3889  157.9604 H   0  0  0  0  0  0  0  0  0  0  0  0
  151.7504  137.8776  157.7092 H   0  0  0  0  0  0  0  0  0  0  0  0
  150.8502  138.7384  158.9049 H   0  0  0  0  0  0  0  0  0  0  0  0
  151.6558  141.2718  158.8019 H   0  0  0  0  0  0  0  0  0  0  0  0
  154.4408  141.8334  158.4643 H   0  0  0  0  0  0  0  0  0  0  0  0
  155.1160  141.8821  160.8544 H   0  0  0  0  0  0  0  0  0  0  0  0
  154.6744  140.2545  160.3686 H   0  0  0  0  0  0  0  0  0  0  0  0
  153.5552  141.2199  161.3260 H   0  0  0  0  0  0  0  0  0  0  0  0
  153.8979  143.8692  159.7874 H   0  0  0  0  0  0  0  0  0  0  0  0
  153.1425  144.6879  157.7338 H   0  0  0  0  0  0  0  0  0  0  0  0
  152.4980  143.1129  157.2880 H   0  0  0  0  0  0  0  0  0  0  0  0
  150.4603  144.4433  157.6135 H   0  0  0  0  0  0  0  0  0  0  0  0
  151.8381  146.2577  159.0867 H   0  0  0  0  0  0  0  0  0  0  0  0
  150.1821  145.9079  159.5841 H   0  0  0  0  0  0  0  0  0  0  0  0
  152.5874  145.2786  161.1171 H   0  0  0  0  0  0  0  0  0  0  0  0
  150.9148  144.9083  161.5281 H   0  0  0  0  0  0  0  0  0  0  0  0
  151.8814  142.6764  161.1968 H   0  0  0  0  0  0  0  0  0  0  0  0
  149.7182  143.3018  159.8632 H   0  0  0  0  0  0  0  0  0  0  0  0
  150.6886  142.1628  158.9034 H   0  0  0  0  0  0  0  0  0  0  0  0
  1 24  1  0  0  0  0
  1 25  1  0  0  0  0
  1 26  1  0  0  0  0
  1  2  1  0  0  0  0
  2  3  1  0  0  0  0
  2 22  2  0  0  0  0
  3  4  1  0  0  0  0
  3 23  1  0  0  0  0
  4  6  2  0  0  0  0
  4  5  1  0  0  0  0
  5 27  1  0  0  0  0
  5 28  1  0  0  0  0
  5 29  1  0  0  0  0
  6 20  1  0  0  0  0
  6  7  1  0  0  0  0
  7  8  1  0  0  0  0
  7 30  1  0  0  0  0
  7 31  1  0  0  0  0
  8  9  2  0  0  0  0
  8 10  1  0  0  0  0
 10 11  1  0  0  0  0
 10 32  1  0  0  0  0
 11 12  1  0  0  0  0
 11 13  1  0  0  0  0
 11 33  1  0  0  0  0
 12 34  1  0  0  0  0
 12 35  1  0  0  0  0
 12 36  1  0  0  0  0
 13 18  1  0  0  0  0
 13 14  1  0  0  0  0
 13 37  1  0  0  0  0
 14 15  1  0  0  0  0
 14 38  1  0  0  0  0
 14 39  1  0  0  0  0
 15 19  1  0  0  0  0
 15 16  1  0  0  0  0
 15 40  1  0  0  0  0
 16 17  1  0  0  0  0
 16 41  1  0  0  0  0
 16 42  1  0  0  0  0
 17 18  1  0  0  0  0
 17 43  1  0  0  0  0
 17 44  1  0  0  0  0
 18 19  1  0  0  0  0
 18 45  1  0  0  0  0
 19 46  1  0  0  0  0
 19 47  1  0  0  0  0
 20 21  2  0  0  0  0
 20 22  1  0  0  0  0
M  END
> <s_m_source_file>
AV-unprocessed.smi

> <i_m_source_file_index>
2124

> <i_lp_mmshare_version>
43012

> <i_f3d_flags>
0

> <s_epik_input>
W0NIM11jMW5jKFtDSDNdKWMoYyg9TylbbkhdMSlbQ0gyXUMoPU8pW05IXVtDQEhdKFtDSDNdKVtDQEhdKFtDSDJdW0NASF0yMylbQ0BIXShbQ0gyXTMpW0NIMl1bQ0gyXTI=

> <s_epik_cmdline>
J2VwaWtfcHl0aG9uJywgJy1waCcsICc3LjAnLCAnLXRuJywgJzgnLCAnLW1hJywgJzIwMCcsICctbWV0YWxfYmluZGluZycsICctaW1hZScsICc8aW5maWxlLm1hZT4nLCAnLW9tYWUnLCAnPG91dGZpbGUubWFlPic=

> <r_lp_tautomer_probability>
0.156392

> <r_epik_Ionization_Penalty>
0.0139374

> <r_epik_Ionization_Penalty_Charging>
0.0138122

> <r_epik_Ionization_Penalty_Neutral>
0.000125146

> <r_epik_State_Penalty>
1.15342

> <r_epik_Charging_Adjusted_Penalty>
1.16723

> <i_epik_Tot_Q>
0

> <i_epik_Tot_abs_Q>
0

> <r_epik_Metal_State_Penalty>
1.3173

> <b_epik_Metal_Only>
0

> <s_lp_Force_Field>
OPLS_2005

> <r_lp_Energy>
56.0933

> <b_lp_Chiralities_Consistent>
1

> <s_lp_Variant>
AV-unprocessed.smi:2124-11

> <Gold.Version>
5.8.1

> <Gold.Id.Protein>
6NUR|6NUR_protein|mol2

> <Gold.PLP.Fitness>
44.8497

> <Gold.PLP.PLP>
-39.5633

> <Gold.PLP.part.hbond>
-3.5317

> <Gold.PLP.part.metal>
0.0000

> <Gold.PLP.part.buried>
0.8077

> <Gold.PLP.part.nonpolar>
-36.7776

> <Gold.PLP.part.repulsive>
0.2152

> <Gold.PLP.ligand.clash>
0.0000

> <Gold.PLP.ligand.torsion>
0.2564

> <Gold.PLP.Chemscore.Hbond>
1.9280

> <Gold.PLP.Chemscore.CHOScore>
0.0000

> <Gold.PLP.Chemscore.Metal>
0.0000

> <Gold.Chemscore.Hbonds>
donor molecule, donor type, donor heavy atom, donor atom, acceptor molecule, acceptor atom, score
      P1  H  7989  7998       L1    22  0.96
      P1  H  7997  8010       L1     9  0.90

> <Gold.PLP.Chemscore.Internal.Correction>
0.0152

> <Gold.Rescore>
     Score         DG    S(hbond)    S(metal)    S(lipo)     H(rot)  DE(clash)    DE(int)     intcor
     15.80     -20.54       1.57        0.00     120.09       1.65       1.61       3.13       ----

> <Gold.Chemscore.Fitness>
15.7983

> <Gold.Chemscore.DG>
-20.5394

> <Gold.Chemscore.ZeroCoef>
-5.4800

> <Gold.Chemscore.Hbond>
1.5694

> <Gold.Chemscore.Metal>
0.0000

> <Gold.Chemscore.Lipo>
120.0860

> <Gold.Chemscore.Internal_Hbond>
0.0000

> <Gold.Chemscore.DEClash>
1.6124

> <Gold.Chemscore.DEInternal>
3.1287

> <Gold.Chemscore.Rot>
1.6534

> <Gold.Chemscore.Internal.Correction>
   9.000000E+99

> <Gold.Chemscore.Hbonds>
donor molecule, donor type, donor heavy atom, donor atom, acceptor molecule, acceptor atom, score
      P1  H  7989  7998       L1    22  0.45
      P1  H  7997  8010       L1     9  0.18

> <Gold.Chemscore.Hbond.Weighted>
-5.2419

> <Gold.Chemscore.Metal.Weighted>
-0.0000

> <Gold.Chemscore.Lipo.Weighted>
-14.0501

> <Gold.Chemscore.Internal_Hbond.Weighted>
0.0000

> <Gold.Chemscore.DEClash.Weighted>
1.6124

> <Gold.Chemscore.DEInternal.Weighted>
3.1287

> <Gold.Chemscore.Rot.Weighted>
4.2326

> <Gold.Chemscore.Internal.Correction.Weighted>
   9.000000E+99

> <Gold.Protein.RotatedTorsions>
[ 6907 6896 6895 6894 ] final   82.51 input  -60.11 | X-H torsion
[ 7974 7965 7964 7962 ] final -120.69 input  175.53 | X-H torsion
[ 8008 7997 7996 7995 ] final   35.63 input   59.86 | X-H torsion
[ 10167 10162 10161 10158 ] final   -7.40 input  -65.29 | X-H torsion
[ 10718 10713 10712 10709 ] final  -27.29 input   66.30 | X-H torsion
[ 10763 10752 10751 10750 ] final  132.57 input  -60.55 | X-H torsion
[ 11005 11000 10999 10996 ] final  -46.77 input  -57.11 | X-H torsion

> <Gold.Protein.ActiveResidues>
 VAL166  LYS551  ARG553  GLY616  TRP617  ASP618  TYR619  PRO620  LYS621  CYS622 
 ASP623  PHE694  ASN695  SER759  ASP760  ASP761  ALA762  ILE779  LEU786  VAL792 
 PHE793  MET794  SER795  GLU796  ALA797  LYS798  CYS799  TRP800  GLU811  SER814 

> <Gold.Protein.RotatedAtoms>
  152.5301  134.3038  159.9088 H   0  0  0  0  0  0  0  0  0  0  0  0  # atno 6907 bound_to 6896
  151.2988  133.4125  159.2646 H   0  0  0  0  0  0  0  0  0  0  0  0  # atno 6908 bound_to 6896
  151.0136  134.9432  159.8078 H   0  0  0  0  0  0  0  0  0  0  0  0  # atno 6909 bound_to 6896
  145.0486  140.8201  143.4223 H   0  0  0  0  0  0  0  0  0  0  0  0  # atno 7974 bound_to 7965
  155.1742  140.3294  155.4387 H   0  0  0  0  0  0  0  0  0  0  0  0  # atno 8008 bound_to 7997
  156.2499  140.1938  156.6794 H   0  0  0  0  0  0  0  0  0  0  0  0  # atno 8009 bound_to 7997
  154.6316  140.0582  156.9725 H   0  0  0  0  0  0  0  0  0  0  0  0  # atno 8010 bound_to 7997
  140.7028  143.6085  150.8728 H   0  0  0  0  0  0  0  0  0  0  0  0  # atno 10167 bound_to 10162
  156.4400  130.4462  149.7059 H   0  0  0  0  0  0  0  0  0  0  0  0  # atno 10718 bound_to 10713
  153.7929  135.3152  155.3381 H   0  0  0  0  0  0  0  0  0  0  0  0  # atno 10763 bound_to 10752
  154.8119  135.4662  154.0541 H   0  0  0  0  0  0  0  0  0  0  0  0  # atno 10764 bound_to 10752
  153.1865  135.6902  153.8496 H   0  0  0  0  0  0  0  0  0  0  0  0  # atno 10765 bound_to 10752
  141.0600  133.6712  156.3203 H   0  0  0  0  0  0  0  0  0  0  0  0  # atno 11005 bound_to 11000
  145.1556  139.2488  143.5418 LP  0  0  0  0  0  0  0  0  0  0  0  0  # atno 17320 bound_to 7965
  146.3516  140.1270  142.8598 LP  0  0  0  0  0  0  0  0  0  0  0  0  # atno 17321 bound_to 7965
  139.9808  143.5953  152.2943 LP  0  0  0  0  0  0  0  0  0  0  0  0  # atno 17342 bound_to 10162
  139.6574  144.7662  151.2030 LP  0  0  0  0  0  0  0  0  0  0  0  0  # atno 17343 bound_to 10162
  156.3927  130.7635  151.2637 LP  0  0  0  0  0  0  0  0  0  0  0  0  # atno 17370 bound_to 10713
  157.7506  131.0263  150.3956 LP  0  0  0  0  0  0  0  0  0  0  0  0  # atno 17371 bound_to 10713
  140.5888  134.5671  157.5495 LP  0  0  0  0  0  0  0  0  0  0  0  0  # atno 17394 bound_to 11000
  139.9424  134.7763  156.0646 LP  0  0  0  0  0  0  0  0  0  0  0  0  # atno 17395 bound_to 11000

$$$$
