AV-unprocessed.smi:973|AV-procd|sdf|4299|dock8
  -GOLD-   22720 2203D 1   1.00000     0.00000
 Structure written by MMmdl.
 41 42  0  0  0  0  0  0  0  0  1 V2000
  146.1866  130.7002  151.8675 C   0  0  0  0  0  0  0  0  0  0  0  0
  145.6843  132.0014  151.4186 N   0  0  0  0  0  0  0  0  0  0  0  0
  144.6273  132.0059  150.4926 C   0  0  0  0  0  0  0  0  0  0  0  0
  144.1067  133.1490  150.0253 C   0  0  0  0  0  0  0  0  0  0  0  0
  144.6584  134.3971  150.4953 C   0  0  0  0  0  0  0  0  0  0  0  0
  145.6858  134.4155  151.3814 C   0  0  0  0  0  0  0  0  0  0  0  0
  146.2742  135.5846  151.8947 N   0  0  0  0  0  0  0  0  0  0  0  0
  145.6943  136.6230  152.5246 C   0  0  0  0  0  0  0  0  0  0  0  0
  144.4901  136.7511  152.7457 O   0  0  0  0  0  0  0  0  0  0  0  0
  146.6070  137.5408  152.8739 N   0  0  0  0  0  0  0  0  0  0  0  0
  146.3136  138.8057  153.5380 C   0  0  0  0  0  0  0  0  0  0  0  0
  147.2837  139.9171  153.1003 C   0  0  0  0  0  0  0  0  0  0  0  0
  148.4855  140.0409  154.0223 C   0  0  0  0  0  0  0  0  0  0  0  0
  148.7715  141.1868  154.6707 C   0  0  0  0  0  0  0  0  0  0  0  0
  149.9680  141.3731  155.5873 C   0  0  0  0  0  0  0  0  0  0  0  0
  151.0045  140.2473  155.4342 C   0  0  0  0  0  0  0  0  0  0  0  0
  150.3233  138.8753  155.3601 C   0  0  0  0  0  0  0  0  0  0  0  0
  149.3528  138.7952  154.1679 C   0  0  0  0  0  0  0  0  0  0  0  0
  146.2456  133.1512  151.8980 C   0  0  0  0  0  0  0  0  0  0  0  0
  147.1695  133.1178  152.7148 O   0  0  0  0  0  0  0  0  0  0  0  0
  145.6406  129.8636  151.4303 H   0  0  0  0  0  0  0  0  0  0  0  0
  146.1046  130.6091  152.9515 H   0  0  0  0  0  0  0  0  0  0  0  0
  147.2360  130.5816  151.5942 H   0  0  0  0  0  0  0  0  0  0  0  0
  144.2703  131.0327  150.1890 H   0  0  0  0  0  0  0  0  0  0  0  0
  143.2950  133.1369  149.3128 H   0  0  0  0  0  0  0  0  0  0  0  0
  144.2093  135.3049  150.1262 H   0  0  0  0  0  0  0  0  0  0  0  0
  147.2661  135.6628  151.7230 H   0  0  0  0  0  0  0  0  0  0  0  0
  147.5746  137.3589  152.6502 H   0  0  0  0  0  0  0  0  0  0  0  0
  145.2883  139.0788  153.2885 H   0  0  0  0  0  0  0  0  0  0  0  0
  146.3454  138.6750  154.6212 H   0  0  0  0  0  0  0  0  0  0  0  0
  147.6318  139.7221  152.0847 H   0  0  0  0  0  0  0  0  0  0  0  0
  146.7675  140.8772  153.0670 H   0  0  0  0  0  0  0  0  0  0  0  0
  148.1243  142.0445  154.5571 H   0  0  0  0  0  0  0  0  0  0  0  0
  150.4341  142.3366  155.3795 H   0  0  0  0  0  0  0  0  0  0  0  0
  149.6023  141.4116  156.6138 H   0  0  0  0  0  0  0  0  0  0  0  0
  151.5856  140.4073  154.5249 H   0  0  0  0  0  0  0  0  0  0  0  0
  151.7128  140.2770  156.2627 H   0  0  0  0  0  0  0  0  0  0  0  0
  151.0702  138.0844  155.2857 H   0  0  0  0  0  0  0  0  0  0  0  0
  149.7765  138.6971  156.2869 H   0  0  0  0  0  0  0  0  0  0  0  0
  148.7158  137.9167  154.2764 H   0  0  0  0  0  0  0  0  0  0  0  0
  149.9181  138.6631  153.2449 H   0  0  0  0  0  0  0  0  0  0  0  0
  1  2  1  0  0  0  0
  1 21  1  0  0  0  0
  1 22  1  0  0  0  0
  1 23  1  0  0  0  0
  2 19  1  0  0  0  0
  2  3  1  0  0  0  0
  3  4  2  0  0  0  0
  3 24  1  0  0  0  0
  4  5  1  0  0  0  0
  4 25  1  0  0  0  0
  5  6  2  0  0  0  0
  5 26  1  0  0  0  0
  6  7  1  0  0  0  0
  6 19  1  0  0  0  0
  7  8  1  0  0  0  0
  7 27  1  0  0  0  0
  8  9  2  0  0  0  0
  8 10  1  0  0  0  0
 10 11  1  0  0  0  0
 10 28  1  0  0  0  0
 11 12  1  0  0  0  0
 11 29  1  0  0  0  0
 11 30  1  0  0  0  0
 12 13  1  0  0  0  0
 12 31  1  0  0  0  0
 12 32  1  0  0  0  0
 13 18  1  0  0  0  0
 13 14  2  0  0  0  0
 14 15  1  0  0  0  0
 14 33  1  0  0  0  0
 15 16  1  0  0  0  0
 15 34  1  0  0  0  0
 15 35  1  0  0  0  0
 16 17  1  0  0  0  0
 16 36  1  0  0  0  0
 16 37  1  0  0  0  0
 17 18  1  0  0  0  0
 17 38  1  0  0  0  0
 17 39  1  0  0  0  0
 18 40  1  0  0  0  0
 18 41  1  0  0  0  0
 19 20  2  0  0  0  0
M  END
> <s_m_source_file>
AV-unprocessed.smi

> <i_m_source_file_index>
973

> <i_lp_mmshare_version>
43012

> <i_f3d_flags>
0

> <s_epik_input>
W0NIM11uMVtjSF1bY0hdW2NIXWMoYzE9TylbTkhdQyg9TylbTkhdW0NIMl1bQ0gyXUMyPVtDSF1bQ0gyXVtDSDJdW0NIMl1bQ0gyXTI=

> <s_epik_cmdline>
J2VwaWtfcHl0aG9uJywgJy1waCcsICc3LjAnLCAnLXRuJywgJzgnLCAnLW1hJywgJzIwMCcsICctbWV0YWxfYmluZGluZycsICctaW1hZScsICc8aW5maWxlLm1hZT4nLCAnLW9tYWUnLCAnPG91dGZpbGUubWFlPic=

> <r_lp_tautomer_probability>
1

> <r_epik_Ionization_Penalty>
2.5397e-05

> <r_epik_Ionization_Penalty_Charging>
4.7783e-06

> <r_epik_Ionization_Penalty_Neutral>
2.06187e-05

> <r_epik_State_Penalty>
-0

> <r_epik_Charging_Adjusted_Penalty>
4.7783e-06

> <i_epik_Tot_Q>
0

> <i_epik_Tot_abs_Q>
0

> <r_epik_Metal_State_Penalty>
-0

> <b_epik_Metal_Only>
0

> <s_lp_Force_Field>
OPLS_2005

> <r_lp_Energy>
20.1854

> <b_lp_Chiralities_Consistent>
1

> <s_lp_Variant>
AV-unprocessed.smi:973-1

> <Gold.Version>
5.8.1

> <Gold.Id.Protein>
6NUR|6NUR_protein|mol2

> <Gold.PLP.Fitness>
41.3563

> <Gold.PLP.PLP>
-37.1754

> <Gold.PLP.part.hbond>
-2.0000

> <Gold.PLP.part.metal>
0.0000

> <Gold.PLP.part.buried>
-1.6491

> <Gold.PLP.part.nonpolar>
-33.7684

> <Gold.PLP.part.repulsive>
0.3737

> <Gold.PLP.ligand.clash>
0.0000

> <Gold.PLP.ligand.torsion>
0.9111

> <Gold.PLP.Chemscore.Hbond>
2.0000

> <Gold.PLP.Chemscore.CHOScore>
0.0000

> <Gold.PLP.Chemscore.Metal>
0.0000

> <Gold.Chemscore.Hbonds>
donor molecule, donor type, donor heavy atom, donor atom, acceptor molecule, acceptor atom, score
      L1  H     7    27       P1  7948  1.00
      L1  H    10    28       P1  7948  1.00

> <Gold.PLP.Chemscore.Internal.Correction>
0.0030

> <Gold.Rescore>
     Score         DG    S(hbond)    S(metal)    S(lipo)     H(rot)  DE(clash)    DE(int)     intcor
     17.71     -18.90       1.96        0.00      89.29       1.40       0.30       0.89       ----

> <Gold.Chemscore.Fitness>
17.7058

> <Gold.Chemscore.DG>
-18.8955

> <Gold.Chemscore.ZeroCoef>
-5.4800

> <Gold.Chemscore.Hbond>
1.9585

> <Gold.Chemscore.Metal>
0.0000

> <Gold.Chemscore.Lipo>
89.2945

> <Gold.Chemscore.Internal_Hbond>
0.0000

> <Gold.Chemscore.DEClash>
0.3011

> <Gold.Chemscore.DEInternal>
0.8885

> <Gold.Chemscore.Rot>
1.3958

> <Gold.Chemscore.Internal.Correction>
   9.000000E+99

> <Gold.Chemscore.Hbonds>
donor molecule, donor type, donor heavy atom, donor atom, acceptor molecule, acceptor atom, score
      L1  H     7    27       P1  7948  1.00
      L1  H    10    28       P1  7948  0.95

> <Gold.Chemscore.Hbond.Weighted>
-6.5413

> <Gold.Chemscore.Metal.Weighted>
-0.0000

> <Gold.Chemscore.Lipo.Weighted>
-10.4475

> <Gold.Chemscore.Internal_Hbond.Weighted>
0.0000

> <Gold.Chemscore.DEClash.Weighted>
0.3011

> <Gold.Chemscore.DEInternal.Weighted>
0.8885

> <Gold.Chemscore.Rot.Weighted>
3.5733

> <Gold.Chemscore.Internal.Correction.Weighted>
   9.000000E+99

> <Gold.Protein.RotatedTorsions>
[ 6907 6896 6895 6894 ] final  -59.14 input  -60.11 | X-H torsion
[ 7974 7965 7964 7962 ] final  105.06 input  175.53 | X-H torsion
[ 8008 7997 7996 7995 ] final  -27.88 input   59.86 | X-H torsion
[ 10167 10162 10161 10158 ] final  -78.51 input  -65.29 | X-H torsion
[ 10718 10713 10712 10709 ] final  -71.51 input   66.30 | X-H torsion
[ 10763 10752 10751 10750 ] final   50.01 input  -60.55 | X-H torsion
[ 11005 11000 10999 10996 ] final  -89.28 input  -57.11 | X-H torsion

> <Gold.Protein.ActiveResidues>
 VAL166  LYS551  ARG553  GLY616  TRP617  ASP618  TYR619  PRO620  LYS621  CYS622 
 ASP623  PHE694  ASN695  SER759  ASP760  ASP761  ALA762  ILE779  LEU786  VAL792 
 PHE793  MET794  SER795  GLU796  ALA797  LYS798  CYS799  TRP800  GLU811  SER814 

> <Gold.Protein.RotatedAtoms>
  150.7952  134.7007  159.6547 H   0  0  0  0  0  0  0  0  0  0  0  0  # atno 6907 bound_to 6896
  152.4064  134.6197  160.0057 H   0  0  0  0  0  0  0  0  0  0  0  0  # atno 6908 bound_to 6896
  151.6453  133.3287  159.3175 H   0  0  0  0  0  0  0  0  0  0  0  0  # atno 6909 bound_to 6896
  145.3246  139.2503  143.3694 H   0  0  0  0  0  0  0  0  0  0  0  0  # atno 7974 bound_to 7965
  154.4357  140.1860  156.1002 H   0  0  0  0  0  0  0  0  0  0  0  0  # atno 8008 bound_to 7997
  156.0298  140.3332  155.7102 H   0  0  0  0  0  0  0  0  0  0  0  0  # atno 8009 bound_to 7997
  155.5855  140.0626  157.2763 H   0  0  0  0  0  0  0  0  0  0  0  0  # atno 8010 bound_to 7997
  140.4675  143.2436  151.8255 H   0  0  0  0  0  0  0  0  0  0  0  0  # atno 10167 bound_to 10162
  156.0360  130.4353  150.2454 H   0  0  0  0  0  0  0  0  0  0  0  0  # atno 10718 bound_to 10713
  152.9785  135.5893  154.4183 H   0  0  0  0  0  0  0  0  0  0  0  0  # atno 10763 bound_to 10752
  154.3810  135.2767  155.2213 H   0  0  0  0  0  0  0  0  0  0  0  0  # atno 10764 bound_to 10752
  154.4127  135.6077  153.6017 H   0  0  0  0  0  0  0  0  0  0  0  0  # atno 10765 bound_to 10752
  141.1587  133.7621  156.9573 H   0  0  0  0  0  0  0  0  0  0  0  0  # atno 11005 bound_to 11000
  146.3069  140.3810  142.8684 LP  0  0  0  0  0  0  0  0  0  0  0  0  # atno 17320 bound_to 7965
  144.8912  140.7526  143.5925 LP  0  0  0  0  0  0  0  0  0  0  0  0  # atno 17321 bound_to 7965
  139.4814  144.4932  151.9158 LP  0  0  0  0  0  0  0  0  0  0  0  0  # atno 17342 bound_to 10162
  140.4017  144.2484  150.5893 LP  0  0  0  0  0  0  0  0  0  0  0  0  # atno 17343 bound_to 10162
  157.0553  131.0074  151.3240 LP  0  0  0  0  0  0  0  0  0  0  0  0  # atno 17370 bound_to 10713
  157.5110  130.7939  149.7705 LP  0  0  0  0  0  0  0  0  0  0  0  0  # atno 17371 bound_to 10713
  140.1217  134.9413  157.2212 LP  0  0  0  0  0  0  0  0  0  0  0  0  # atno 17394 bound_to 11000
  140.3064  134.3074  155.7277 LP  0  0  0  0  0  0  0  0  0  0  0  0  # atno 17395 bound_to 11000

$$$$
