AV-unprocessed.smi:3336|AV-procd|sdf|12857|dock3
  -GOLD-   2272019253D 1   1.00000     0.00000
 Structure written by MMmdl.
 41 42  0  0  0  0  0  0  0  0  1 V2000
  142.7957  134.6770  152.7191 C   0  0  0  0  0  0  0  0  0  0  0  0
  144.2927  134.8656  153.0132 C   0  0  2  0  0  0  0  0  0  0  0  0
  145.1409  134.9972  151.7220 C   0  0  0  0  0  0  0  0  0  0  0  0
  145.0626  133.8442  150.8386 N   0  0  0  0  0  0  0  0  0  0  0  0
  143.9513  133.3127  150.2179 C   0  0  0  0  0  0  0  0  0  0  0  0
  144.3686  132.2399  149.4836 C   0  0  0  0  0  0  0  0  0  0  0  0
  145.7715  132.1962  149.7168 C   0  0  0  0  0  0  0  0  0  0  0  0
  146.1845  133.1602  150.5231 N   0  0  0  0  0  0  0  0  0  0  0  0
  144.7079  133.7457  153.8634 N   0  0  0  0  0  0  0  0  0  0  0  0
  145.5150  134.0741  155.0579 C   0  0  2  0  0  0  0  0  0  0  0  0
  144.8032  135.1750  155.8599 C   0  0  0  0  0  0  0  0  0  0  0  0
  146.9647  134.5078  154.7363 C   0  0  0  0  0  0  0  0  0  0  0  0
  147.1258  135.4960  154.0169 O   0  0  0  0  0  0  0  0  0  0  0  0
  148.0173  133.8166  155.2428 N   0  0  0  0  0  0  0  0  0  0  0  0
  149.4104  134.1572  154.9324 C   0  0  0  0  0  0  0  0  0  0  0  0
  150.1082  134.6117  156.2257 C   0  0  0  0  0  0  0  0  0  0  0  0
  150.0341  133.5711  157.1954 O   0  0  0  0  0  0  0  0  0  0  0  0
  148.6949  133.1978  157.5064 C   0  0  0  0  0  0  0  0  0  0  0  0
  147.9701  132.7309  156.2306 C   0  0  0  0  0  0  0  0  0  0  0  0
  142.4201  135.4758  152.0790 H   0  0  0  0  0  0  0  0  0  0  0  0
  142.2100  134.6945  153.6389 H   0  0  0  0  0  0  0  0  0  0  0  0
  142.5950  133.7286  152.2200 H   0  0  0  0  0  0  0  0  0  0  0  0
  144.3855  135.7977  153.5695 H   0  0  0  0  0  0  0  0  0  0  0  0
  144.7979  135.8661  151.1595 H   0  0  0  0  0  0  0  0  0  0  0  0
  146.1875  135.2010  151.9493 H   0  0  0  0  0  0  0  0  0  0  0  0
  142.9668  133.7366  150.3518 H   0  0  0  0  0  0  0  0  0  0  0  0
  143.7642  131.5863  148.8722 H   0  0  0  0  0  0  0  0  0  0  0  0
  146.4976  131.4991  149.3250 H   0  0  0  0  0  0  0  0  0  0  0  0
  143.8956  133.2010  154.1156 H   0  0  0  0  0  0  0  0  0  0  0  0
  145.5293  133.1785  155.6719 H   0  0  0  0  0  0  0  0  0  0  0  0
  145.3402  135.4155  156.7778 H   0  0  0  0  0  0  0  0  0  0  0  0
  143.7993  134.8598  156.1465 H   0  0  0  0  0  0  0  0  0  0  0  0
  144.7087  136.0944  155.2805 H   0  0  0  0  0  0  0  0  0  0  0  0
  149.9129  133.2789  154.5243 H   0  0  0  0  0  0  0  0  0  0  0  0
  149.5042  134.9344  154.1731 H   0  0  0  0  0  0  0  0  0  0  0  0
  151.1563  134.8378  156.0303 H   0  0  0  0  0  0  0  0  0  0  0  0
  149.6509  135.5223  156.6162 H   0  0  0  0  0  0  0  0  0  0  0  0
  148.7151  132.3952  158.2436 H   0  0  0  0  0  0  0  0  0  0  0  0
  148.1713  134.0387  157.9641 H   0  0  0  0  0  0  0  0  0  0  0  0
  146.9687  132.4121  156.5065 H   0  0  0  0  0  0  0  0  0  0  0  0
  148.4631  131.8492  155.8188 H   0  0  0  0  0  0  0  0  0  0  0  0
  1  2  1  0  0  0  0
  1 20  1  0  0  0  0
  1 21  1  0  0  0  0
  1 22  1  0  0  0  0
  2  3  1  0  0  0  0
  2  9  1  0  0  0  0
  2 23  1  0  0  0  0
  3  4  1  0  0  0  0
  3 24  1  0  0  0  0
  3 25  1  0  0  0  0
  4  8  1  0  0  0  0
  4  5  1  0  0  0  0
  5  6  2  0  0  0  0
  5 26  1  0  0  0  0
  6  7  1  0  0  0  0
  6 27  1  0  0  0  0
  7  8  2  0  0  0  0
  7 28  1  0  0  0  0
  9 10  1  0  0  0  0
  9 29  1  0  0  0  0
 10 11  1  0  0  0  0
 10 12  1  0  0  0  0
 10 30  1  0  0  0  0
 11 31  1  0  0  0  0
 11 32  1  0  0  0  0
 11 33  1  0  0  0  0
 12 13  2  0  0  0  0
 12 14  1  0  0  0  0
 14 19  1  0  0  0  0
 14 15  1  0  0  0  0
 15 16  1  0  0  0  0
 15 34  1  0  0  0  0
 15 35  1  0  0  0  0
 16 17  1  0  0  0  0
 16 36  1  0  0  0  0
 16 37  1  0  0  0  0
 17 18  1  0  0  0  0
 18 19  1  0  0  0  0
 18 38  1  0  0  0  0
 18 39  1  0  0  0  0
 19 40  1  0  0  0  0
 19 41  1  0  0  0  0
M  END
> <s_m_source_file>
AV-unprocessed.smi

> <i_m_source_file_index>
3336

> <i_lp_mmshare_version>
43012

> <i_f3d_flags>
0

> <s_epik_input>
bjFbY0hdW2NIXVtjSF1uMVtDSDJdW0NAQEhdKFtDSDNdKVtOSF1bQ0BIXShbQ0gzXSlDKD1PKU4yW0NIMl1bQ0gyXU9bQ0gyXVtDSDJdMg==

> <s_epik_cmdline>
J2VwaWtfcHl0aG9uJywgJy1waCcsICc3LjAnLCAnLXRuJywgJzgnLCAnLW1hJywgJzIwMCcsICctbWV0YWxfYmluZGluZycsICctaW1hZScsICc8aW5maWxlLm1hZT4nLCAnLW9tYWUnLCAnPG91dGZpbGUubWFlPic=

> <r_lp_tautomer_probability>
1

> <r_epik_Ionization_Penalty>
0.739958

> <r_epik_Ionization_Penalty_Charging>
0

> <r_epik_Ionization_Penalty_Neutral>
0.739958

> <r_epik_State_Penalty>
0.765967

> <r_epik_Charging_Adjusted_Penalty>
0.765967

> <i_epik_Tot_Q>
0

> <i_epik_Tot_abs_Q>
0

> <r_epik_Metal_State_Penalty>
0.765947

> <b_epik_Metal_Only>
0

> <s_lp_Force_Field>
OPLS_2005

> <r_lp_Energy>
28.3859

> <b_lp_Chiralities_Consistent>
1

> <s_lp_Variant>
AV-unprocessed.smi:3336-5

> <Gold.Version>
5.8.1

> <Gold.Id.Protein>
6NUR|6NUR_protein|mol2

> <Gold.PLP.Fitness>
34.9752

> <Gold.PLP.PLP>
-24.2781

> <Gold.PLP.part.hbond>
-2.0000

> <Gold.PLP.part.metal>
0.0000

> <Gold.PLP.part.buried>
-5.3402

> <Gold.PLP.part.nonpolar>
-18.7081

> <Gold.PLP.part.repulsive>
1.2963

> <Gold.PLP.ligand.clash>
0.0000

> <Gold.PLP.ligand.torsion>
0.7192

> <Gold.PLP.Chemscore.Hbond>
2.0000

> <Gold.PLP.Chemscore.CHOScore>
2.0000

> <Gold.PLP.Chemscore.Metal>
0.0000

> <Gold.Chemscore.Hbonds>
donor molecule, donor type, donor heavy atom, donor atom, acceptor molecule, acceptor atom, score
      L1  H     9    29       P1 10957  1.00
      P1  H  6896  6907       L1    17  0.54
      L1  C     5    26       P1 10186  1.00
      L1  C     7    28       P1 10747  0.56

> <Gold.PLP.Chemscore.Internal.Correction>
0.1355

> <Gold.Rescore>
     Score         DG    S(hbond)    S(metal)    S(lipo)     H(rot)  DE(clash)    DE(int)     intcor
     13.38     -14.22       1.93        0.00      58.80       1.79       0.03       0.80       ----

> <Gold.Chemscore.Fitness>
13.3840

> <Gold.Chemscore.DG>
-14.2189

> <Gold.Chemscore.ZeroCoef>
-5.4800

> <Gold.Chemscore.Hbond>
1.9312

> <Gold.Chemscore.Metal>
0.0000

> <Gold.Chemscore.Lipo>
58.8023

> <Gold.Chemscore.Internal_Hbond>
0.0000

> <Gold.Chemscore.DEClash>
0.0323

> <Gold.Chemscore.DEInternal>
0.8025

> <Gold.Chemscore.Rot>
1.7935

> <Gold.Chemscore.Internal.Correction>
   9.000000E+99

> <Gold.Chemscore.Hbonds>
donor molecule, donor type, donor heavy atom, donor atom, acceptor molecule, acceptor atom, score
      L1  H     9    29       P1 10957  0.96
      P1  H  6896  6907       L1    17  0.12

> <Gold.Chemscore.Hbond.Weighted>
-6.4502

> <Gold.Chemscore.Metal.Weighted>
-0.0000

> <Gold.Chemscore.Lipo.Weighted>
-6.8799

> <Gold.Chemscore.Internal_Hbond.Weighted>
0.0000

> <Gold.Chemscore.DEClash.Weighted>
0.0323

> <Gold.Chemscore.DEInternal.Weighted>
0.8025

> <Gold.Chemscore.Rot.Weighted>
4.5912

> <Gold.Chemscore.Internal.Correction.Weighted>
   9.000000E+99

> <Gold.Protein.RotatedTorsions>
[ 6907 6896 6895 6894 ] final -121.34 input  -60.11 | X-H torsion
[ 7974 7965 7964 7962 ] final  123.98 input  175.53 | X-H torsion
[ 8008 7997 7996 7995 ] final   19.82 input   59.86 | X-H torsion
[ 10167 10162 10161 10158 ] final -102.83 input  -65.29 | X-H torsion
[ 10718 10713 10712 10709 ] final -168.61 input   66.30 | X-H torsion
[ 10763 10752 10751 10750 ] final   24.54 input  -60.55 | X-H torsion
[ 11005 11000 10999 10996 ] final -168.70 input  -57.11 | X-H torsion

> <Gold.Protein.ActiveResidues>
 VAL166  LYS551  ARG553  GLY616  TRP617  ASP618  TYR619  PRO620  LYS621  CYS622 
 ASP623  PHE694  ASN695  SER759  ASP760  ASP761  ALA762  ILE779  LEU786  VAL792 
 PHE793  MET794  SER795  GLU796  ALA797  LYS798  CYS799  TRP800  GLU811  SER814 

> <Gold.Protein.RotatedAtoms>
  150.8474  133.7840  159.3037 H   0  0  0  0  0  0  0  0  0  0  0  0  # atno 6907 bound_to 6896
  151.5522  135.1065  159.9962 H   0  0  0  0  0  0  0  0  0  0  0  0  # atno 6908 bound_to 6896
  152.4525  133.7614  159.6805 H   0  0  0  0  0  0  0  0  0  0  0  0  # atno 6909 bound_to 6896
  145.0897  139.3596  143.4867 H   0  0  0  0  0  0  0  0  0  0  0  0  # atno 7974 bound_to 7965
  154.9264  140.3034  155.5190 H   0  0  0  0  0  0  0  0  0  0  0  0  # atno 8008 bound_to 7997
  156.3006  140.2362  156.4256 H   0  0  0  0  0  0  0  0  0  0  0  0  # atno 8009 bound_to 7997
  154.8280  140.0420  157.1446 H   0  0  0  0  0  0  0  0  0  0  0  0  # atno 8010 bound_to 7997
  140.2265  143.3637  152.0924 H   0  0  0  0  0  0  0  0  0  0  0  0  # atno 10167 bound_to 10162
  156.6995  130.9191  151.3078 H   0  0  0  0  0  0  0  0  0  0  0  0  # atno 10718 bound_to 10713
  153.0756  135.6603  154.0153 H   0  0  0  0  0  0  0  0  0  0  0  0  # atno 10763 bound_to 10752
  153.9787  135.2957  155.3423 H   0  0  0  0  0  0  0  0  0  0  0  0  # atno 10764 bound_to 10752
  154.7143  135.5192  153.8785 H   0  0  0  0  0  0  0  0  0  0  0  0  # atno 10765 bound_to 10752
  140.5391  134.5540  157.5095 H   0  0  0  0  0  0  0  0  0  0  0  0  # atno 11005 bound_to 11000
  146.3531  140.0726  142.8622 LP  0  0  0  0  0  0  0  0  0  0  0  0  # atno 17320 bound_to 7965
  145.1080  140.9387  143.4673 LP  0  0  0  0  0  0  0  0  0  0  0  0  # atno 17321 bound_to 7965
  139.5125  144.6918  151.5739 LP  0  0  0  0  0  0  0  0  0  0  0  0  # atno 17342 bound_to 10162
  140.6216  143.9247  150.6531 LP  0  0  0  0  0  0  0  0  0  0  0  0  # atno 17343 bound_to 10162
  157.6978  130.9301  150.0697 LP  0  0  0  0  0  0  0  0  0  0  0  0  # atno 17370 bound_to 10713
  156.1739  130.3647  149.9127 LP  0  0  0  0  0  0  0  0  0  0  0  0  # atno 17371 bound_to 10713
  139.9513  134.7611  156.0441 LP  0  0  0  0  0  0  0  0  0  0  0  0  # atno 17394 bound_to 11000
  141.1237  133.6605  156.3282 LP  0  0  0  0  0  0  0  0  0  0  0  0  # atno 17395 bound_to 11000

$$$$
