AV-unprocessed.smi:252|AV-procd|sdf|1939|dock5
  -GOLD-   2262021 63D 1   1.00000     0.00000
 Structure written by MMmdl.
 56 59  0  0  0  0  0  0  0  0  1 V2000
  152.6434  143.2472  159.3368 C   0  0  0  0  0  0  0  0  0  0  0  0
  152.2519  143.4766  157.8683 C   0  0  0  0  0  0  0  0  0  0  0  0
  151.3605  142.3730  157.2891 C   0  0  0  0  0  0  0  0  0  0  0  0
  151.7075  141.1919  157.3255 O   0  0  0  0  0  0  0  0  0  0  0  0
  150.2015  142.7819  156.7507 N   0  0  0  0  0  0  0  0  0  0  0  0
  149.1961  141.9094  156.1526 C   0  0  1  0  0  0  0  0  0  0  0  0
  149.7496  141.2955  154.8528 C   0  0  0  0  0  0  0  0  0  0  0  0
  148.7465  140.2958  154.2556 C   0  0  0  0  0  0  0  0  0  0  0  0
  148.3520  139.2318  155.2918 C   0  0  0  0  0  0  0  0  0  0  0  0
  147.8506  139.8657  156.5075 N   0  0  0  0  0  0  0  0  0  0  0  0
  147.2779  139.0026  157.3721 C   0  0  0  0  0  0  0  0  0  0  0  0
  145.9520  139.1011  157.6530 N   0  0  0  0  0  0  0  0  0  0  0  0
  145.3895  138.2435  158.5106 C   0  0  0  0  0  0  0  0  0  0  0  0
  145.9586  137.2400  159.1832 N   0  0  0  0  0  0  0  0  0  0  0  0
  147.2906  137.1455  158.9028 C   0  0  0  0  0  0  0  0  0  0  0  0
  148.0220  137.9774  158.0107 C   0  0  0  0  0  0  0  0  0  0  0  0
  149.3517  137.5795  157.9648 N   0  0  0  0  0  0  0  0  0  0  0  0
  149.4041  136.5659  158.7854 C   0  0  0  0  0  0  0  0  0  0  0  0
  148.2158  136.2467  159.4050 N   0  0  0  0  0  0  0  0  0  0  0  0
  147.9945  135.1744  160.3632 C   0  0  0  0  0  0  0  0  0  0  0  0
  147.5343  135.6539  161.7668 C   0  0  2  0  0  0  0  0  0  0  0  0
  148.4556  136.6238  162.2337 O   0  0  0  0  0  0  0  0  0  0  0  0
  147.4319  134.5383  162.8021 C   0  0  0  0  0  0  0  0  0  0  0  0
  146.0347  133.9947  162.5511 C   0  0  0  0  0  0  0  0  0  0  0  0
  145.2643  135.1620  162.3084 O   0  0  0  0  0  0  0  0  0  0  0  0
  146.0761  136.1811  161.7224 C   0  0  1  0  0  0  0  0  0  0  0  0
  145.8044  137.4727  162.5126 C   0  0  0  0  0  0  0  0  0  0  0  0
  148.7791  140.7988  157.1394 C   0  0  0  0  0  0  0  0  0  0  0  0
  153.2552  144.0707  159.7050 H   0  0  0  0  0  0  0  0  0  0  0  0
  153.2211  142.3297  159.4562 H   0  0  0  0  0  0  0  0  0  0  0  0
  151.7634  143.1785  159.9774 H   0  0  0  0  0  0  0  0  0  0  0  0
  151.7293  144.4297  157.7786 H   0  0  0  0  0  0  0  0  0  0  0  0
  153.1523  143.5535  157.2580 H   0  0  0  0  0  0  0  0  0  0  0  0
  149.9971  143.7705  156.7622 H   0  0  0  0  0  0  0  0  0  0  0  0
  148.3164  142.5050  155.8996 H   0  0  0  0  0  0  0  0  0  0  0  0
  149.9698  142.0794  154.1273 H   0  0  0  0  0  0  0  0  0  0  0  0
  150.6912  140.7828  155.0556 H   0  0  0  0  0  0  0  0  0  0  0  0
  147.8541  140.8282  153.9236 H   0  0  0  0  0  0  0  0  0  0  0  0
  149.1711  139.8188  153.3720 H   0  0  0  0  0  0  0  0  0  0  0  0
  147.5900  138.5715  154.8751 H   0  0  0  0  0  0  0  0  0  0  0  0
  149.2165  138.6116  155.5337 H   0  0  0  0  0  0  0  0  0  0  0  0
  144.3321  138.3801  158.6831 H   0  0  0  0  0  0  0  0  0  0  0  0
  150.3206  136.0245  158.9710 H   0  0  0  0  0  0  0  0  0  0  0  0
  147.2550  134.4916  159.9422 H   0  0  0  0  0  0  0  0  0  0  0  0
  148.9189  134.6008  160.4416 H   0  0  0  0  0  0  0  0  0  0  0  0
  148.6317  136.4548  163.1465 H   0  0  0  0  0  0  0  0  0  0  0  0
  148.2077  133.7772  162.7342 H   0  0  0  0  0  0  0  0  0  0  0  0
  147.4711  134.9510  163.8116 H   0  0  0  0  0  0  0  0  0  0  0  0
  146.0166  133.3529  161.6695 H   0  0  0  0  0  0  0  0  0  0  0  0
  145.6449  133.4271  163.3961 H   0  0  0  0  0  0  0  0  0  0  0  0
  145.7551  136.3310  160.6905 H   0  0  0  0  0  0  0  0  0  0  0  0
  146.3601  138.3154  162.1006 H   0  0  0  0  0  0  0  0  0  0  0  0
  146.0812  137.3635  163.5618 H   0  0  0  0  0  0  0  0  0  0  0  0
  144.7460  137.7319  162.4761 H   0  0  0  0  0  0  0  0  0  0  0  0
  149.6603  140.2543  157.4829 H   0  0  0  0  0  0  0  0  0  0  0  0
  148.3104  141.2366  158.0220 H   0  0  0  0  0  0  0  0  0  0  0  0
  1  2  1  0  0  0  0
  1 29  1  0  0  0  0
  1 30  1  0  0  0  0
  1 31  1  0  0  0  0
  2  3  1  0  0  0  0
  2 32  1  0  0  0  0
  2 33  1  0  0  0  0
  3  4  2  0  0  0  0
  3  5  1  0  0  0  0
  5  6  1  0  0  0  0
  5 34  1  0  0  0  0
  6 28  1  0  0  0  0
  6  7  1  0  0  0  0
  6 35  1  0  0  0  0
  7  8  1  0  0  0  0
  7 36  1  0  0  0  0
  7 37  1  0  0  0  0
  8  9  1  0  0  0  0
  8 38  1  0  0  0  0
  8 39  1  0  0  0  0
  9 10  1  0  0  0  0
  9 40  1  0  0  0  0
  9 41  1  0  0  0  0
 10 11  1  0  0  0  0
 10 28  1  0  0  0  0
 11 16  1  0  0  0  0
 11 12  2  0  0  0  0
 12 13  1  0  0  0  0
 13 14  2  0  0  0  0
 13 42  1  0  0  0  0
 14 15  1  0  0  0  0
 15 19  1  0  0  0  0
 15 16  2  0  0  0  0
 16 17  1  0  0  0  0
 17 18  2  0  0  0  0
 18 19  1  0  0  0  0
 18 43  1  0  0  0  0
 19 20  1  0  0  0  0
 20 21  1  0  0  0  0
 20 44  1  0  0  0  0
 20 45  1  0  0  0  0
 21 26  1  0  0  0  0
 21 22  1  0  0  0  0
 21 23  1  0  0  0  0
 22 46  1  0  0  0  0
 23 24  1  0  0  0  0
 23 47  1  0  0  0  0
 23 48  1  0  0  0  0
 24 25  1  0  0  0  0
 24 49  1  0  0  0  0
 24 50  1  0  0  0  0
 25 26  1  0  0  0  0
 26 27  1  0  0  0  0
 26 51  1  0  0  0  0
 27 52  1  0  0  0  0
 27 53  1  0  0  0  0
 27 54  1  0  0  0  0
 28 55  1  0  0  0  0
 28 56  1  0  0  0  0
M  END
> <s_m_source_file>
AV-unprocessed.smi

> <i_m_source_file_index>
252

> <i_lp_mmshare_version>
43012

> <i_f3d_flags>
0

> <s_epik_input>
W0NIM11bQ0gyXUMoPU8pW05IXVtDQEBIXTFbQ0gyXVtDSDJdW0NIMl1OKFtDSDJdMSljKG5bY0hdbjIpYyhjMjMpbltjSF1uM1tDSDJdW0NAQF00KFtPSF0pW0NIMl1bQ0gyXU9bQ0BIXTRbQ0gzXQ==

> <s_epik_cmdline>
J2VwaWtfcHl0aG9uJywgJy1waCcsICc3LjAnLCAnLXRuJywgJzgnLCAnLW1hJywgJzIwMCcsICctbWV0YWxfYmluZGluZycsICctaW1hZScsICc8aW5maWxlLm1hZT4nLCAnLW9tYWUnLCAnPG91dGZpbGUubWFlPic=

> <r_lp_tautomer_probability>
1

> <r_epik_Ionization_Penalty>
0.00182575

> <r_epik_Ionization_Penalty_Charging>
0

> <r_epik_Ionization_Penalty_Neutral>
0.00182575

> <r_epik_State_Penalty>
0.00104524

> <r_epik_Charging_Adjusted_Penalty>
0.00104524

> <i_epik_Tot_Q>
0

> <i_epik_Tot_abs_Q>
0

> <r_epik_Metal_State_Penalty>
-0

> <b_epik_Metal_Only>
0

> <s_lp_Force_Field>
OPLS_2005

> <r_lp_Energy>
37.9455

> <b_lp_Chiralities_Consistent>
1

> <s_lp_Variant>
AV-unprocessed.smi:252-4

> <Gold.Version>
5.8.1

> <Gold.Id.Protein>
6NUR|6NUR_protein|mol2

> <Gold.PLP.Fitness>
45.4477

> <Gold.PLP.PLP>
-40.6631

> <Gold.PLP.part.hbond>
-1.6469

> <Gold.PLP.part.metal>
0.0000

> <Gold.PLP.part.buried>
-2.6491

> <Gold.PLP.part.nonpolar>
-35.6607

> <Gold.PLP.part.repulsive>
0.0485

> <Gold.PLP.ligand.clash>
0.0000

> <Gold.PLP.ligand.torsion>
0.2319

> <Gold.PLP.Chemscore.Hbond>
1.6400

> <Gold.PLP.Chemscore.CHOScore>
0.0000

> <Gold.PLP.Chemscore.Metal>
0.0000

> <Gold.Chemscore.Hbonds>
donor molecule, donor type, donor heavy atom, donor atom, acceptor molecule, acceptor atom, score
      L1  H     5    34       P1  8028  0.59
      P1  H  6931  6943       L1    22  1.00

> <Gold.PLP.Chemscore.Internal.Correction>
0.3284

> <Gold.Rescore>
     Score         DG    S(hbond)    S(metal)    S(lipo)     H(rot)  DE(clash)    DE(int)     intcor
     13.20     -16.06       1.84        0.00      96.91       2.70       0.13       2.73       ----

> <Gold.Chemscore.Fitness>
13.1972

> <Gold.Chemscore.DG>
-16.0556

> <Gold.Chemscore.ZeroCoef>
-5.4800

> <Gold.Chemscore.Hbond>
1.8442

> <Gold.Chemscore.Metal>
0.0000

> <Gold.Chemscore.Lipo>
96.9093

> <Gold.Chemscore.Internal_Hbond>
0.0000

> <Gold.Chemscore.DEClash>
0.1298

> <Gold.Chemscore.DEInternal>
2.7286

> <Gold.Chemscore.Rot>
2.7041

> <Gold.Chemscore.Internal.Correction>
   9.000000E+99

> <Gold.Chemscore.Hbonds>
donor molecule, donor type, donor heavy atom, donor atom, acceptor molecule, acceptor atom, score
      L1  H     5    34       P1  8028  0.60
      P1  H  6931  6943       L1    22  0.50

> <Gold.Chemscore.Hbond.Weighted>
-6.1597

> <Gold.Chemscore.Metal.Weighted>
-0.0000

> <Gold.Chemscore.Lipo.Weighted>
-11.3384

> <Gold.Chemscore.Internal_Hbond.Weighted>
0.0000

> <Gold.Chemscore.DEClash.Weighted>
0.1298

> <Gold.Chemscore.DEInternal.Weighted>
2.7286

> <Gold.Chemscore.Rot.Weighted>
6.9225

> <Gold.Chemscore.Internal.Correction.Weighted>
   9.000000E+99

> <Gold.Protein.RotatedTorsions>
[ 6907 6896 6895 6894 ] final   48.45 input  -60.11 | X-H torsion
[ 7974 7965 7964 7962 ] final   24.62 input  175.53 | X-H torsion
[ 8008 7997 7996 7995 ] final   53.11 input   59.86 | X-H torsion
[ 10167 10162 10161 10158 ] final -118.14 input  -65.29 | X-H torsion
[ 10718 10713 10712 10709 ] final  -35.18 input   66.30 | X-H torsion
[ 10763 10752 10751 10750 ] final  -72.92 input  -60.55 | X-H torsion
[ 11005 11000 10999 10996 ] final   64.94 input  -57.11 | X-H torsion

> <Gold.Protein.ActiveResidues>
 VAL166  LYS551  ARG553  GLY616  TRP617  ASP618  TYR619  PRO620  LYS621  CYS622 
 ASP623  PHE694  ASN695  SER759  ASP760  ASP761  ALA762  ILE779  LEU786  VAL792 
 PHE793  MET794  SER795  GLU796  ALA797  LYS798  CYS799  TRP800  GLU811  SER814 

> <Gold.Protein.RotatedAtoms>
  152.2796  134.7843  160.0398 H   0  0  0  0  0  0  0  0  0  0  0  0  # atno 6907 bound_to 6896
  151.8427  133.3421  159.3656 H   0  0  0  0  0  0  0  0  0  0  0  0  # atno 6908 bound_to 6896
  150.7184  134.5304  159.5741 H   0  0  0  0  0  0  0  0  0  0  0  0  # atno 6909 bound_to 6896
  146.1929  139.7580  142.8819 H   0  0  0  0  0  0  0  0  0  0  0  0  # atno 7974 bound_to 7965
  155.4628  140.3462  155.4315 H   0  0  0  0  0  0  0  0  0  0  0  0  # atno 8008 bound_to 7997
  156.1150  140.1471  156.9315 H   0  0  0  0  0  0  0  0  0  0  0  0  # atno 8009 bound_to 7997
  154.4782  140.0878  156.7293 H   0  0  0  0  0  0  0  0  0  0  0  0  # atno 8010 bound_to 7997
  140.0607  143.4971  152.2033 H   0  0  0  0  0  0  0  0  0  0  0  0  # atno 10167 bound_to 10162
  156.3416  130.4294  149.7782 H   0  0  0  0  0  0  0  0  0  0  0  0  # atno 10718 bound_to 10713
  154.4523  135.5914  153.6200 H   0  0  0  0  0  0  0  0  0  0  0  0  # atno 10763 bound_to 10752
  152.9815  135.6024  154.3589 H   0  0  0  0  0  0  0  0  0  0  0  0  # atno 10764 bound_to 10752
  154.3452  135.2841  155.2380 H   0  0  0  0  0  0  0  0  0  0  0  0  # atno 10765 bound_to 10752
  139.9926  134.6567  156.0065 H   0  0  0  0  0  0  0  0  0  0  0  0  # atno 11005 bound_to 11000
  145.3737  141.0347  143.3217 LP  0  0  0  0  0  0  0  0  0  0  0  0  # atno 17320 bound_to 7965
  144.8521  139.5305  143.6851 LP  0  0  0  0  0  0  0  0  0  0  0  0  # atno 17321 bound_to 7965
  139.5895  144.7544  151.3435 LP  0  0  0  0  0  0  0  0  0  0  0  0  # atno 17342 bound_to 10162
  140.7173  143.7231  150.7680 LP  0  0  0  0  0  0  0  0  0  0  0  0  # atno 17343 bound_to 10162
  156.5016  130.8131  151.3134 LP  0  0  0  0  0  0  0  0  0  0  0  0  # atno 17370 bound_to 10713
  157.7448  130.9943  150.2702 LP  0  0  0  0  0  0  0  0  0  0  0  0  # atno 17371 bound_to 10713
  141.1578  133.6541  156.4219 LP  0  0  0  0  0  0  0  0  0  0  0  0  # atno 17394 bound_to 11000
  140.4879  134.6603  157.5198 LP  0  0  0  0  0  0  0  0  0  0  0  0  # atno 17395 bound_to 11000

$$$$
