AV-unprocessed.smi:1012|AV-procd|sdf|4423|dock10
  -GOLD-   22720 2373D 1   1.00000     0.00000
 Structure written by MMmdl.
 43 45  0  0  0  0  0  0  0  0  1 V2000
  143.5725  144.6285  157.7684 C   0  0  0  0  0  0  0  0  0  0  0  0
  144.2460  143.8326  156.8048 O   0  0  0  0  0  0  0  0  0  0  0  0
  144.4342  144.3532  155.5404 C   0  0  0  0  0  0  0  0  0  0  0  0
  143.9085  145.6017  155.1200 C   0  0  0  0  0  0  0  0  0  0  0  0
  144.1431  146.0755  153.8152 C   0  0  0  0  0  0  0  0  0  0  0  0
  144.9041  145.3112  152.9136 C   0  0  0  0  0  0  0  0  0  0  0  0
  145.4311  144.0715  153.3183 C   0  0  0  0  0  0  0  0  0  0  0  0
  145.1973  143.5901  154.6239 C   0  0  0  0  0  0  0  0  0  0  0  0
  145.7839  142.2545  155.0453 C   0  0  0  0  0  0  0  0  0  0  0  0
  147.1721  142.1825  154.7636 O   0  0  0  0  0  0  0  0  0  0  0  0
  147.5768  140.9019  154.3095 C   0  0  0  0  0  0  0  0  0  0  0  0
  149.0657  140.7061  154.6346 C   0  0  1  0  0  0  0  0  0  0  0  0
  149.8011  140.7888  153.4293 O   0  0  0  0  0  0  0  0  0  0  0  0
  149.5856  141.7739  155.6164 C   0  0  0  0  0  0  0  0  0  0  0  0
  150.3715  141.2018  156.6955 N   0  0  0  0  0  0  0  0  0  0  0  0
  150.6364  139.8972  156.8984 C   0  0  0  0  0  0  0  0  0  0  0  0
  151.3807  139.5832  157.9548 N   0  0  0  0  0  0  0  0  0  0  0  0
  151.6298  140.8304  158.5014 C   0  0  0  0  0  0  0  0  0  0  0  0
  152.3700  141.1975  159.6477 C   0  0  0  0  0  0  0  0  0  0  0  0
  152.4909  142.5534  160.0165 C   0  0  0  0  0  0  0  0  0  0  0  0
  153.2048  142.8881  161.1174 F   0  0  0  0  0  0  0  0  0  0  0  0
  151.8742  143.5613  159.2456 C   0  0  0  0  0  0  0  0  0  0  0  0
  151.9970  144.8608  159.6057 F   0  0  0  0  0  0  0  0  0  0  0  0
  151.1305  143.2194  158.0999 C   0  0  0  0  0  0  0  0  0  0  0  0
  151.0121  141.8654  157.7363 C   0  0  0  0  0  0  0  0  0  0  0  0
  143.4849  144.0675  158.6987 H   0  0  0  0  0  0  0  0  0  0  0  0
  142.5633  144.8820  157.4409 H   0  0  0  0  0  0  0  0  0  0  0  0
  144.1240  145.5440  157.9860 H   0  0  0  0  0  0  0  0  0  0  0  0
  143.3214  146.2196  155.7821 H   0  0  0  0  0  0  0  0  0  0  0  0
  143.7385  147.0283  153.5069 H   0  0  0  0  0  0  0  0  0  0  0  0
  145.0849  145.6755  151.9131 H   0  0  0  0  0  0  0  0  0  0  0  0
  146.0154  143.4907  152.6198 H   0  0  0  0  0  0  0  0  0  0  0  0
  145.6188  142.0919  156.1115 H   0  0  0  0  0  0  0  0  0  0  0  0
  145.2500  141.4645  154.5149 H   0  0  0  0  0  0  0  0  0  0  0  0
  146.9661  140.1099  154.7472 H   0  0  0  0  0  0  0  0  0  0  0  0
  147.4310  140.8621  153.2287 H   0  0  0  0  0  0  0  0  0  0  0  0
  149.2160  139.7188  155.0742 H   0  0  0  0  0  0  0  0  0  0  0  0
  149.4399  140.1656  152.8174 H   0  0  0  0  0  0  0  0  0  0  0  0
  150.1923  142.5143  155.0932 H   0  0  0  0  0  0  0  0  0  0  0  0
  148.7489  142.3156  156.0594 H   0  0  0  0  0  0  0  0  0  0  0  0
  150.2615  139.1347  156.2314 H   0  0  0  0  0  0  0  0  0  0  0  0
  152.8470  140.4348  160.2449 H   0  0  0  0  0  0  0  0  0  0  0  0
  150.6602  143.9885  157.5057 H   0  0  0  0  0  0  0  0  0  0  0  0
  1  2  1  0  0  0  0
  1 26  1  0  0  0  0
  1 27  1  0  0  0  0
  1 28  1  0  0  0  0
  2  3  1  0  0  0  0
  3  8  1  0  0  0  0
  3  4  2  0  0  0  0
  4  5  1  0  0  0  0
  4 29  1  0  0  0  0
  5  6  2  0  0  0  0
  5 30  1  0  0  0  0
  6  7  1  0  0  0  0
  6 31  1  0  0  0  0
  7  8  2  0  0  0  0
  7 32  1  0  0  0  0
  8  9  1  0  0  0  0
  9 10  1  0  0  0  0
  9 33  1  0  0  0  0
  9 34  1  0  0  0  0
 10 11  1  0  0  0  0
 11 12  1  0  0  0  0
 11 35  1  0  0  0  0
 11 36  1  0  0  0  0
 12 13  1  0  0  0  0
 12 14  1  0  0  0  0
 12 37  1  0  0  0  0
 13 38  1  0  0  0  0
 14 15  1  0  0  0  0
 14 39  1  0  0  0  0
 14 40  1  0  0  0  0
 15 25  1  0  0  0  0
 15 16  1  0  0  0  0
 16 17  2  0  0  0  0
 16 41  1  0  0  0  0
 17 18  1  0  0  0  0
 18 25  2  0  0  0  0
 18 19  1  0  0  0  0
 19 20  2  0  0  0  0
 19 42  1  0  0  0  0
 20 21  1  0  0  0  0
 20 22  1  0  0  0  0
 22 23  1  0  0  0  0
 22 24  2  0  0  0  0
 24 25  1  0  0  0  0
 24 43  1  0  0  0  0
M  END
> <s_m_source_file>
AV-unprocessed.smi

> <i_m_source_file_index>
1012

> <i_lp_mmshare_version>
43012

> <i_f3d_flags>
0

> <s_epik_input>
W0NIM11PYzFbY0hdW2NIXVtjSF1bY0hdYzFbQ0gyXU9bQ0gyXVtDQEhdKFtPSF0pW0NIMl1uKFtjSF1uMiljKGMyMylbY0hdYyhGKWMoRilbY0hdMw==

> <s_epik_cmdline>
J2VwaWtfcHl0aG9uJywgJy1waCcsICc3LjAnLCAnLXRuJywgJzgnLCAnLW1hJywgJzIwMCcsICctbWV0YWxfYmluZGluZycsICctaW1hZScsICc8aW5maWxlLm1hZT4nLCAnLW9tYWUnLCAnPG91dGZpbGUubWFlPic=

> <r_lp_tautomer_probability>
1

> <r_epik_Ionization_Penalty>
0.0160257

> <r_epik_Ionization_Penalty_Charging>
0

> <r_epik_Ionization_Penalty_Neutral>
0.0160257

> <r_epik_State_Penalty>
0.0126263

> <r_epik_Charging_Adjusted_Penalty>
0.0126263

> <i_epik_Tot_Q>
0

> <i_epik_Tot_abs_Q>
0

> <r_epik_Metal_State_Penalty>
1.27616e-05

> <b_epik_Metal_Only>
0

> <s_lp_Force_Field>
OPLS_2005

> <r_lp_Energy>
17.5925

> <b_lp_Chiralities_Consistent>
1

> <s_lp_Variant>
AV-unprocessed.smi:1012-2

> <Gold.Version>
5.8.1

> <Gold.Id.Protein>
6NUR|6NUR_protein|mol2

> <Gold.PLP.Fitness>
55.7046

> <Gold.PLP.PLP>
-53.3241

> <Gold.PLP.part.hbond>
-2.1872

> <Gold.PLP.part.metal>
0.0000

> <Gold.PLP.part.buried>
-4.3168

> <Gold.PLP.part.nonpolar>
-47.5929

> <Gold.PLP.part.repulsive>
0.1853

> <Gold.PLP.ligand.clash>
0.0000

> <Gold.PLP.ligand.torsion>
1.8369

> <Gold.PLP.Chemscore.Hbond>
1.9760

> <Gold.PLP.Chemscore.CHOScore>
0.0000

> <Gold.PLP.Chemscore.Metal>
0.0000

> <Gold.Chemscore.Hbonds>
donor molecule, donor type, donor heavy atom, donor atom, acceptor molecule, acceptor atom, score
      L1  H    13    38       P1  7957  0.61
      P1  H  7989  7998       L1    13  0.32
      P1  H  8011  8017       L1    13  1.00

> <Gold.PLP.Chemscore.Internal.Correction>
0.1263

> <Gold.Rescore>
     Score         DG    S(hbond)    S(metal)    S(lipo)     H(rot)  DE(clash)    DE(int)     intcor
     14.48     -16.44       1.30        0.00     120.62       2.93       0.23       1.73       ----

> <Gold.Chemscore.Fitness>
14.4779

> <Gold.Chemscore.DG>
-16.4405

> <Gold.Chemscore.ZeroCoef>
-5.4800

> <Gold.Chemscore.Hbond>
1.3048

> <Gold.Chemscore.Metal>
0.0000

> <Gold.Chemscore.Lipo>
120.6159

> <Gold.Chemscore.Internal_Hbond>
0.0000

> <Gold.Chemscore.DEClash>
0.2301

> <Gold.Chemscore.DEInternal>
1.7325

> <Gold.Chemscore.Rot>
2.9335

> <Gold.Chemscore.Internal.Correction>
   9.000000E+99

> <Gold.Chemscore.Hbonds>
donor molecule, donor type, donor heavy atom, donor atom, acceptor molecule, acceptor atom, score
      L1  H    13    38       P1  7957  0.60
      P1  H  7989  7998       L1    13  0.29
      P1  H  8011  8017       L1    13  0.25

> <Gold.Chemscore.Hbond.Weighted>
-4.3582

> <Gold.Chemscore.Metal.Weighted>
-0.0000

> <Gold.Chemscore.Lipo.Weighted>
-14.1121

> <Gold.Chemscore.Internal_Hbond.Weighted>
0.0000

> <Gold.Chemscore.DEClash.Weighted>
0.2301

> <Gold.Chemscore.DEInternal.Weighted>
1.7325

> <Gold.Chemscore.Rot.Weighted>
7.5097

> <Gold.Chemscore.Internal.Correction.Weighted>
   9.000000E+99

> <Gold.Protein.RotatedTorsions>
[ 6907 6896 6895 6894 ] final -129.55 input  -60.11 | X-H torsion
[ 7974 7965 7964 7962 ] final   12.04 input  175.53 | X-H torsion
[ 8008 7997 7996 7995 ] final -106.69 input   59.86 | X-H torsion
[ 10167 10162 10161 10158 ] final  -62.48 input  -65.29 | X-H torsion
[ 10718 10713 10712 10709 ] final  139.97 input   66.30 | X-H torsion
[ 10763 10752 10751 10750 ] final  144.23 input  -60.55 | X-H torsion
[ 11005 11000 10999 10996 ] final   55.43 input  -57.11 | X-H torsion

> <Gold.Protein.ActiveResidues>
 VAL166  LYS551  ARG553  GLY616  TRP617  ASP618  TYR619  PRO620  LYS621  CYS622 
 ASP623  PHE694  ASN695  SER759  ASP760  ASP761  ALA762  ILE779  LEU786  VAL792 
 PHE793  MET794  SER795  GLU796  ALA797  LYS798  CYS799  TRP800  GLU811  SER814 

> <Gold.Protein.RotatedAtoms>
  150.9300  133.6778  159.2812 H   0  0  0  0  0  0  0  0  0  0  0  0  # atno 6907 bound_to 6896
  151.4204  135.0996  159.9622 H   0  0  0  0  0  0  0  0  0  0  0  0  # atno 6908 bound_to 6896
  152.5021  133.8753  159.7374 H   0  0  0  0  0  0  0  0  0  0  0  0  # atno 6909 bound_to 6896
  146.2359  139.9395  142.8485 H   0  0  0  0  0  0  0  0  0  0  0  0  # atno 7974 bound_to 7965
  154.9182  140.0408  157.1983 H   0  0  0  0  0  0  0  0  0  0  0  0  # atno 8008 bound_to 7997
  154.8280  140.2894  155.5720 H   0  0  0  0  0  0  0  0  0  0  0  0  # atno 8009 bound_to 7997
  156.2985  140.2506  156.3200 H   0  0  0  0  0  0  0  0  0  0  0  0  # atno 8010 bound_to 7997
  140.5936  143.2346  151.6085 H   0  0  0  0  0  0  0  0  0  0  0  0  # atno 10167 bound_to 10162
  157.4085  131.1025  151.0478 H   0  0  0  0  0  0  0  0  0  0  0  0  # atno 10718 bound_to 10713
  153.9854  135.2937  155.3416 H   0  0  0  0  0  0  0  0  0  0  0  0  # atno 10763 bound_to 10752
  154.7245  135.5095  153.8867 H   0  0  0  0  0  0  0  0  0  0  0  0  # atno 10764 bound_to 10752
  153.0834  135.6686  154.0113 H   0  0  0  0  0  0  0  0  0  0  0  0  # atno 10765 bound_to 10752
  140.0607  134.5606  155.9155 H   0  0  0  0  0  0  0  0  0  0  0  0  # atno 11005 bound_to 11000
  145.1966  140.9836  143.4180 LP  0  0  0  0  0  0  0  0  0  0  0  0  # atno 17320 bound_to 7965
  144.9810  139.3783  143.6262 LP  0  0  0  0  0  0  0  0  0  0  0  0  # atno 17321 bound_to 7965
  139.5244  144.3106  152.0996 LP  0  0  0  0  0  0  0  0  0  0  0  0  # atno 17342 bound_to 10162
  140.2275  144.4403  150.6315 LP  0  0  0  0  0  0  0  0  0  0  0  0  # atno 17343 bound_to 10162
  157.1451  130.6160  149.5566 LP  0  0  0  0  0  0  0  0  0  0  0  0  # atno 17370 bound_to 10713
  155.9843  130.4868  150.6979 LP  0  0  0  0  0  0  0  0  0  0  0  0  # atno 17371 bound_to 10713
  141.1972  133.6595  156.5729 LP  0  0  0  0  0  0  0  0  0  0  0  0  # atno 17394 bound_to 11000
  140.3774  134.7553  157.4639 LP  0  0  0  0  0  0  0  0  0  0  0  0  # atno 17395 bound_to 11000

$$$$
