AV-unprocessed.smi:2560|AV-procd|sdf|10039|dock3
  -GOLD-   2272014 83D 1   1.00000     0.00000
 Structure written by MMmdl.
 31 32  0  0  0  0  0  0  0  0  1 V2000
  150.0231  134.0646  154.4155 C   0  0  0  0  0  0  0  0  0  0  0  0
  149.2297  135.3245  155.4509 S   0  0  0  0  0  0  0  0  0  0  0  0
  150.2565  136.7546  155.3451 C   0  0  0  0  0  0  0  0  0  0  0  0
  151.3583  136.7513  154.5731 N   0  0  0  0  0  0  0  0  0  0  0  0
  152.1056  138.2629  154.6948 S   0  0  0  0  0  0  0  0  0  0  0  0
  150.8736  138.8177  155.7896 C   0  0  0  0  0  0  0  0  0  0  0  0
  150.8733  140.1331  156.3381 N   0  0  0  0  0  0  0  0  0  0  0  0
  151.7535  140.7583  157.1495 C   0  0  0  0  0  0  0  0  0  0  0  0
  152.7684  140.1875  157.5446 O   0  0  0  0  0  0  0  0  0  0  0  0
  151.4519  142.0228  157.4882 N   0  0  0  0  0  0  0  0  0  0  0  0
  152.2517  142.8959  158.3392 C   0  0  1  0  0  0  0  0  0  0  0  0
  151.9420  144.3443  157.9943 C   0  0  0  0  0  0  0  0  0  0  0  0
  151.7407  145.3062  158.9110 C   0  0  0  0  0  0  0  0  0  0  0  0
  151.8160  145.0654  160.4070 C   0  0  0  0  0  0  0  0  0  0  0  0
  152.4970  143.7273  160.7430 C   0  0  0  0  0  0  0  0  0  0  0  0
  151.9985  142.5929  159.8349 C   0  0  0  0  0  0  0  0  0  0  0  0
  149.9617  137.8751  156.0274 N   0  0  0  0  0  0  0  0  0  0  0  0
  149.4424  133.1427  154.4346 H   0  0  0  0  0  0  0  0  0  0  0  0
  151.0282  133.8478  154.7774 H   0  0  0  0  0  0  0  0  0  0  0  0
  150.0911  134.4095  153.3835 H   0  0  0  0  0  0  0  0  0  0  0  0
  150.0639  140.6858  156.0951 H   0  0  0  0  0  0  0  0  0  0  0  0
  150.5959  142.4119  157.1193 H   0  0  0  0  0  0  0  0  0  0  0  0
  153.3079  142.7430  158.1112 H   0  0  0  0  0  0  0  0  0  0  0  0
  151.8803  144.5916  156.9444 H   0  0  0  0  0  0  0  0  0  0  0  0
  151.5009  146.3095  158.5913 H   0  0  0  0  0  0  0  0  0  0  0  0
  152.3581  145.8860  160.8777 H   0  0  0  0  0  0  0  0  0  0  0  0
  150.8011  145.0841  160.8050 H   0  0  0  0  0  0  0  0  0  0  0  0
  153.5760  143.8293  160.6214 H   0  0  0  0  0  0  0  0  0  0  0  0
  152.3282  143.4766  161.7905 H   0  0  0  0  0  0  0  0  0  0  0  0
  150.9300  142.4545  160.0079 H   0  0  0  0  0  0  0  0  0  0  0  0
  152.4778  141.6538  160.1138 H   0  0  0  0  0  0  0  0  0  0  0  0
  1  2  1  0  0  0  0
  1 18  1  0  0  0  0
  1 19  1  0  0  0  0
  1 20  1  0  0  0  0
  2  3  1  0  0  0  0
  3 17  1  0  0  0  0
  3  4  2  0  0  0  0
  4  5  1  0  0  0  0
  5  6  1  0  0  0  0
  6  7  1  0  0  0  0
  6 17  2  0  0  0  0
  7  8  1  0  0  0  0
  7 21  1  0  0  0  0
  8  9  2  0  0  0  0
  8 10  1  0  0  0  0
 10 11  1  0  0  0  0
 10 22  1  0  0  0  0
 11 16  1  0  0  0  0
 11 12  1  0  0  0  0
 11 23  1  0  0  0  0
 12 13  2  0  0  0  0
 12 24  1  0  0  0  0
 13 14  1  0  0  0  0
 13 25  1  0  0  0  0
 14 15  1  0  0  0  0
 14 26  1  0  0  0  0
 14 27  1  0  0  0  0
 15 16  1  0  0  0  0
 15 28  1  0  0  0  0
 15 29  1  0  0  0  0
 16 30  1  0  0  0  0
 16 31  1  0  0  0  0
M  END
> <s_m_source_file>
AV-unprocessed.smi

> <i_m_source_file_index>
2560

> <i_lp_mmshare_version>
43012

> <i_f3d_flags>
0

> <s_epik_input>
W0NIM11TYzFuc2MobjEpW05IXUMoPU8pW05IXVtDQEBIXTJbQ0hdPVtDSF1bQ0gyXVtDSDJdW0NIMl0y

> <s_epik_cmdline>
J2VwaWtfcHl0aG9uJywgJy1waCcsICc3LjAnLCAnLXRuJywgJzgnLCAnLW1hJywgJzIwMCcsICctbWV0YWxfYmluZGluZycsICctaW1hZScsICc8aW5maWxlLm1hZT4nLCAnLW9tYWUnLCAnPG91dGZpbGUubWFlPic=

> <r_lp_tautomer_probability>
1

> <r_epik_Ionization_Penalty>
2.65559e-05

> <r_epik_Ionization_Penalty_Charging>
0

> <r_epik_Ionization_Penalty_Neutral>
2.65559e-05

> <r_epik_State_Penalty>
-0

> <r_epik_Charging_Adjusted_Penalty>
0

> <i_epik_Tot_Q>
0

> <i_epik_Tot_abs_Q>
0

> <r_epik_Metal_State_Penalty>
-0

> <b_epik_Metal_Only>
0

> <s_lp_Force_Field>
OPLS_2005

> <r_lp_Energy>
8.24661

> <b_lp_Chiralities_Consistent>
1

> <s_lp_Variant>
AV-unprocessed.smi:2560-2

> <Gold.Version>
5.8.1

> <Gold.Id.Protein>
6NUR|6NUR_protein|mol2

> <Gold.PLP.Fitness>
39.3581

> <Gold.PLP.PLP>
-35.1882

> <Gold.PLP.part.hbond>
-2.0000

> <Gold.PLP.part.metal>
0.0000

> <Gold.PLP.part.buried>
-3.8346

> <Gold.PLP.part.nonpolar>
-28.2582

> <Gold.PLP.part.repulsive>
0.3352

> <Gold.PLP.ligand.clash>
0.0000

> <Gold.PLP.ligand.torsion>
0.9210

> <Gold.PLP.Chemscore.Hbond>
2.0000

> <Gold.PLP.Chemscore.CHOScore>
0.0000

> <Gold.PLP.Chemscore.Metal>
0.0000

> <Gold.Chemscore.Hbonds>
donor molecule, donor type, donor heavy atom, donor atom, acceptor molecule, acceptor atom, score
      P1  H  7997  8010       L1     9  1.00
      P1  H 10752 10764       L1     4  0.95

> <Gold.PLP.Chemscore.Internal.Correction>
0.0119

> <Gold.Rescore>
     Score         DG    S(hbond)    S(metal)    S(lipo)     H(rot)  DE(clash)    DE(int)     intcor
     15.94     -16.90       1.27        0.00      88.73       1.25       0.07       0.88       ----

> <Gold.Chemscore.Fitness>
15.9435

> <Gold.Chemscore.DG>
-16.8978

> <Gold.Chemscore.ZeroCoef>
-5.4800

> <Gold.Chemscore.Hbond>
1.2702

> <Gold.Chemscore.Metal>
0.0000

> <Gold.Chemscore.Lipo>
88.7299

> <Gold.Chemscore.Internal_Hbond>
0.0000

> <Gold.Chemscore.DEClash>
0.0698

> <Gold.Chemscore.DEInternal>
0.8845

> <Gold.Chemscore.Rot>
1.2524

> <Gold.Chemscore.Internal.Correction>
   9.000000E+99

> <Gold.Chemscore.Hbonds>
donor molecule, donor type, donor heavy atom, donor atom, acceptor molecule, acceptor atom, score
      P1  H  7997  8010       L1     9  0.94
      P1  H 10752 10764       L1     4  0.21

> <Gold.Chemscore.Hbond.Weighted>
-4.2426

> <Gold.Chemscore.Metal.Weighted>
-0.0000

> <Gold.Chemscore.Lipo.Weighted>
-10.3814

> <Gold.Chemscore.Internal_Hbond.Weighted>
0.0000

> <Gold.Chemscore.DEClash.Weighted>
0.0698

> <Gold.Chemscore.DEInternal.Weighted>
0.8845

> <Gold.Chemscore.Rot.Weighted>
3.2062

> <Gold.Chemscore.Internal.Correction.Weighted>
   9.000000E+99

> <Gold.Protein.RotatedTorsions>
[ 6907 6896 6895 6894 ] final    8.00 input  -60.11 | X-H torsion
[ 7974 7965 7964 7962 ] final  110.52 input  175.53 | X-H torsion
[ 8008 7997 7996 7995 ] final   55.69 input   59.86 | X-H torsion
[ 10167 10162 10161 10158 ] final -138.51 input  -65.29 | X-H torsion
[ 10718 10713 10712 10709 ] final  148.36 input   66.30 | X-H torsion
[ 10763 10752 10751 10750 ] final  -76.21 input  -60.55 | X-H torsion
[ 11005 11000 10999 10996 ] final  -11.13 input  -57.11 | X-H torsion

> <Gold.Protein.ActiveResidues>
 VAL166  LYS551  ARG553  GLY616  TRP617  ASP618  TYR619  PRO620  LYS621  CYS622 
 ASP623  PHE694  ASN695  SER759  ASP760  ASP761  ALA762  ILE779  LEU786  VAL792 
 PHE793  MET794  SER795  GLU796  ALA797  LYS798  CYS799  TRP800  GLU811  SER814 

> <Gold.Protein.RotatedAtoms>
  151.6989  135.0933  160.0247 H   0  0  0  0  0  0  0  0  0  0  0  0  # atno 6907 bound_to 6896
  152.3733  133.6443  159.6112 H   0  0  0  0  0  0  0  0  0  0  0  0  # atno 6908 bound_to 6896
  150.7689  133.9151  159.3422 H   0  0  0  0  0  0  0  0  0  0  0  0  # atno 6909 bound_to 6896
  145.2539  139.2728  143.4052 H   0  0  0  0  0  0  0  0  0  0  0  0  # atno 7974 bound_to 7965
  155.5053  140.3475  155.4378 H   0  0  0  0  0  0  0  0  0  0  0  0  # atno 8008 bound_to 7997
  156.0886  140.1405  156.9648 H   0  0  0  0  0  0  0  0  0  0  0  0  # atno 8009 bound_to 7997
  154.4621  140.0931  156.6899 H   0  0  0  0  0  0  0  0  0  0  0  0  # atno 8010 bound_to 7997
  139.8471  143.7247  152.2660 H   0  0  0  0  0  0  0  0  0  0  0  0  # atno 10167 bound_to 10162
  157.3095  131.0885  151.1327 H   0  0  0  0  0  0  0  0  0  0  0  0  # atno 10718 bound_to 10713
  154.4968  135.5805  153.6501 H   0  0  0  0  0  0  0  0  0  0  0  0  # atno 10763 bound_to 10752
  152.9871  135.6126  154.3054 H   0  0  0  0  0  0  0  0  0  0  0  0  # atno 10764 bound_to 10752
  154.2958  135.2847  155.2613 H   0  0  0  0  0  0  0  0  0  0  0  0  # atno 10765 bound_to 10752
  140.7520  133.8584  155.9053 H   0  0  0  0  0  0  0  0  0  0  0  0  # atno 11005 bound_to 11000
  146.3294  140.2938  142.8617 LP  0  0  0  0  0  0  0  0  0  0  0  0  # atno 17320 bound_to 7965
  144.9478  140.8146  143.5591 LP  0  0  0  0  0  0  0  0  0  0  0  0  # atno 17321 bound_to 7965
  139.7502  144.7536  151.0518 LP  0  0  0  0  0  0  0  0  0  0  0  0  # atno 17342 bound_to 10162
  140.7792  143.4869  150.9944 LP  0  0  0  0  0  0  0  0  0  0  0  0  # atno 17343 bound_to 10162
  157.2654  130.6679  149.5994 LP  0  0  0  0  0  0  0  0  0  0  0  0  # atno 17370 bound_to 10713
  155.9677  130.4495  150.5662 LP  0  0  0  0  0  0  0  0  0  0  0  0  # atno 17371 bound_to 10713
  140.9742  134.1491  157.4550 LP  0  0  0  0  0  0  0  0  0  0  0  0  # atno 17394 bound_to 11000
  139.8786  134.9989  156.5924 LP  0  0  0  0  0  0  0  0  0  0  0  0  # atno 17395 bound_to 11000

$$$$
