AV-unprocessed.smi:2247|AV-procd|sdf|9086|dock3
  -GOLD-   2272012293D 1   1.00000     0.00000
 Structure written by MMmdl.
 34 35  0  0  0  0  0  0  0  0  1 V2000
  146.8397  129.5828  151.5983 C   0  0  0  0  0  0  0  0  0  0  0  0
  146.4985  130.9790  152.1483 C   0  0  0  0  0  0  0  0  0  0  0  0
  146.1024  131.9568  151.0306 C   0  0  0  0  0  0  0  0  0  0  0  0
  147.5835  131.5458  152.9604 N   0  0  0  0  0  0  0  0  0  0  0  0
  148.8628  130.8757  153.1304 C   0  0  0  0  0  0  0  0  0  0  0  0
  149.7844  131.9494  153.7169 C   0  0  0  0  0  0  0  0  0  0  0  0
  148.8581  133.0106  154.3325 C   0  0  1  0  0  0  0  0  0  0  0  0
  149.3588  134.3514  154.0354 N   0  0  0  0  0  0  0  0  0  0  0  0
  150.2891  135.0030  154.7490 C   0  0  0  0  0  0  0  0  0  0  0  0
  150.8606  134.5170  155.7255 O   0  0  0  0  0  0  0  0  0  0  0  0
  150.5020  136.2370  154.2622 N   0  0  0  0  0  0  0  0  0  0  0  0
  151.3858  137.2234  154.7679 C   0  0  0  0  0  0  0  0  0  0  0  0
  152.5251  137.0074  155.4272 N   0  0  0  0  0  0  0  0  0  0  0  0
  153.0126  138.2756  155.7075 C   0  0  0  0  0  0  0  0  0  0  0  0
  152.1332  139.1949  155.1957 C   0  0  0  0  0  0  0  0  0  0  0  0
  151.0924  138.5393  154.5943 O   0  0  0  0  0  0  0  0  0  0  0  0
  147.5536  132.7313  153.5847 C   0  0  0  0  0  0  0  0  0  0  0  0
  146.6046  133.5155  153.5855 O   0  0  0  0  0  0  0  0  0  0  0  0
  145.9798  129.1484  151.0874 H   0  0  0  0  0  0  0  0  0  0  0  0
  147.1208  128.9004  152.4010 H   0  0  0  0  0  0  0  0  0  0  0  0
  147.6600  129.6169  150.8810 H   0  0  0  0  0  0  0  0  0  0  0  0
  145.6297  130.8513  152.7969 H   0  0  0  0  0  0  0  0  0  0  0  0
  145.2637  131.5710  150.4509 H   0  0  0  0  0  0  0  0  0  0  0  0
  146.9313  132.1277  150.3428 H   0  0  0  0  0  0  0  0  0  0  0  0
  145.8018  132.9230  151.4371 H   0  0  0  0  0  0  0  0  0  0  0  0
  148.7477  130.0443  153.8270 H   0  0  0  0  0  0  0  0  0  0  0  0
  149.2479  130.4870  152.1870 H   0  0  0  0  0  0  0  0  0  0  0  0
  150.4772  131.5354  154.4504 H   0  0  0  0  0  0  0  0  0  0  0  0
  150.3857  132.3785  152.9130 H   0  0  0  0  0  0  0  0  0  0  0  0
  148.7166  132.8397  155.4012 H   0  0  0  0  0  0  0  0  0  0  0  0
  148.9411  134.8275  153.2497 H   0  0  0  0  0  0  0  0  0  0  0  0
  149.9639  136.5068  153.4524 H   0  0  0  0  0  0  0  0  0  0  0  0
  153.9385  138.4236  156.2436 H   0  0  0  0  0  0  0  0  0  0  0  0
  152.1036  140.2742  155.1764 H   0  0  0  0  0  0  0  0  0  0  0  0
  1  2  1  0  0  0  0
  1 19  1  0  0  0  0
  1 20  1  0  0  0  0
  1 21  1  0  0  0  0
  2  3  1  0  0  0  0
  2  4  1  0  0  0  0
  2 22  1  0  0  0  0
  3 23  1  0  0  0  0
  3 24  1  0  0  0  0
  3 25  1  0  0  0  0
  4 17  1  0  0  0  0
  4  5  1  0  0  0  0
  5  6  1  0  0  0  0
  5 26  1  0  0  0  0
  5 27  1  0  0  0  0
  6  7  1  0  0  0  0
  6 28  1  0  0  0  0
  6 29  1  0  0  0  0
  7  8  1  0  0  0  0
  7 17  1  0  0  0  0
  7 30  1  0  0  0  0
  8  9  1  0  0  0  0
  8 31  1  0  0  0  0
  9 10  2  0  0  0  0
  9 11  1  0  0  0  0
 11 12  1  0  0  0  0
 11 32  1  0  0  0  0
 12 16  1  0  0  0  0
 12 13  2  0  0  0  0
 13 14  1  0  0  0  0
 14 15  2  0  0  0  0
 14 33  1  0  0  0  0
 15 16  1  0  0  0  0
 15 34  1  0  0  0  0
 17 18  2  0  0  0  0
M  END
> <s_m_source_file>
AV-unprocessed.smi

> <i_m_source_file_index>
2247

> <i_lp_mmshare_version>
43012

> <i_f3d_flags>
0

> <s_epik_input>
W0NIM11bQ0hdKFtDSDNdKU4xW0NIMl1bQ0gyXVtDQEhdKEMxPU8pW05IXUMoPU8pW05IXWMybltjSF1bY0hdbzI=

> <s_epik_cmdline>
J2VwaWtfcHl0aG9uJywgJy1waCcsICc3LjAnLCAnLXRuJywgJzgnLCAnLW1hJywgJzIwMCcsICctbWV0YWxfYmluZGluZycsICctaW1hZScsICc8aW5maWxlLm1hZT4nLCAnLW9tYWUnLCAnPG91dGZpbGUubWFlPic=

> <r_lp_tautomer_probability>
0.785861

> <r_epik_Ionization_Penalty>
5.15801e-05

> <r_epik_Ionization_Penalty_Charging>
0

> <r_epik_Ionization_Penalty_Neutral>
5.15801e-05

> <r_epik_State_Penalty>
0.0205761

> <r_epik_Charging_Adjusted_Penalty>
0.0205761

> <i_epik_Tot_Q>
0

> <i_epik_Tot_abs_Q>
0

> <r_epik_Metal_State_Penalty>
0.0168939

> <b_epik_Metal_Only>
0

> <s_lp_Force_Field>
OPLS_2005

> <r_lp_Energy>
20.5401

> <b_lp_Chiralities_Consistent>
1

> <s_lp_Variant>
AV-unprocessed.smi:2247-1

> <Gold.Version>
5.8.1

> <Gold.Id.Protein>
6NUR|6NUR_protein|mol2

> <Gold.PLP.Fitness>
38.4529

> <Gold.PLP.PLP>
-30.7864

> <Gold.PLP.part.hbond>
-4.0000

> <Gold.PLP.part.metal>
0.0000

> <Gold.PLP.part.buried>
-2.2668

> <Gold.PLP.part.nonpolar>
-25.0560

> <Gold.PLP.part.repulsive>
0.3892

> <Gold.PLP.ligand.clash>
0.0000

> <Gold.PLP.ligand.torsion>
0.4812

> <Gold.PLP.Chemscore.Hbond>
2.8480

> <Gold.PLP.Chemscore.CHOScore>
0.0000

> <Gold.PLP.Chemscore.Metal>
0.0000

> <Gold.Chemscore.Hbonds>
donor molecule, donor type, donor heavy atom, donor atom, acceptor molecule, acceptor atom, score
      L1  H     8    31       P1  7948  0.90
      L1  H    11    32       P1  7948  0.80
      P1  H 10752 10764       L1    13  0.72

> <Gold.PLP.Chemscore.Internal.Correction>
0.0848

> <Gold.Rescore>
     Score         DG    S(hbond)    S(metal)    S(lipo)     H(rot)  DE(clash)    DE(int)     intcor
     14.89     -15.60       2.03        0.00      57.72       1.33       0.09       0.61       ----

> <Gold.Chemscore.Fitness>
14.8922

> <Gold.Chemscore.DG>
-15.5959

> <Gold.Chemscore.ZeroCoef>
-5.4800

> <Gold.Chemscore.Hbond>
2.0289

> <Gold.Chemscore.Metal>
0.0000

> <Gold.Chemscore.Lipo>
57.7246

> <Gold.Chemscore.Internal_Hbond>
0.0000

> <Gold.Chemscore.DEClash>
0.0899

> <Gold.Chemscore.DEInternal>
0.6138

> <Gold.Chemscore.Rot>
1.3338

> <Gold.Chemscore.Internal.Correction>
   9.000000E+99

> <Gold.Chemscore.Hbonds>
donor molecule, donor type, donor heavy atom, donor atom, acceptor molecule, acceptor atom, score
      L1  H     8    31       P1  7948  0.17
      L1  H    11    32       P1  7948  0.12
      P1  H 10752 10764       L1    13  0.25

> <Gold.Chemscore.Hbond.Weighted>
-6.7766

> <Gold.Chemscore.Metal.Weighted>
-0.0000

> <Gold.Chemscore.Lipo.Weighted>
-6.7538

> <Gold.Chemscore.Internal_Hbond.Weighted>
0.0000

> <Gold.Chemscore.DEClash.Weighted>
0.0899

> <Gold.Chemscore.DEInternal.Weighted>
0.6138

> <Gold.Chemscore.Rot.Weighted>
3.4145

> <Gold.Chemscore.Internal.Correction.Weighted>
   9.000000E+99

> <Gold.Protein.RotatedTorsions>
[ 6907 6896 6895 6894 ] final  166.62 input  -60.11 | X-H torsion
[ 7974 7965 7964 7962 ] final   34.27 input  175.53 | X-H torsion
[ 8008 7997 7996 7995 ] final    5.25 input   59.86 | X-H torsion
[ 10167 10162 10161 10158 ] final  -56.72 input  -65.29 | X-H torsion
[ 10718 10713 10712 10709 ] final  140.32 input   66.30 | X-H torsion
[ 10763 10752 10751 10750 ] final  -47.16 input  -60.55 | X-H torsion
[ 11005 11000 10999 10996 ] final  -74.32 input  -57.11 | X-H torsion

> <Gold.Protein.ActiveResidues>
 VAL166  LYS551  ARG553  GLY616  TRP617  ASP618  TYR619  PRO620  LYS621  CYS622 
 ASP623  PHE694  ASN695  SER759  ASP760  ASP761  ALA762  ILE779  LEU786  VAL792 
 PHE793  MET794  SER795  GLU796  ALA797  LYS798  CYS799  TRP800  GLU811  SER814 

> <Gold.Protein.RotatedAtoms>
  151.8761  133.3485  159.3750 H   0  0  0  0  0  0  0  0  0  0  0  0  # atno 6907 bound_to 6896
  150.7140  134.5065  159.5596 H   0  0  0  0  0  0  0  0  0  0  0  0  # atno 6908 bound_to 6896
  152.2607  134.8037  160.0482 H   0  0  0  0  0  0  0  0  0  0  0  0  # atno 6909 bound_to 6896
  146.1364  139.6290  142.9192 H   0  0  0  0  0  0  0  0  0  0  0  0  # atno 7974 bound_to 7965
  154.7261  140.2721  155.6498 H   0  0  0  0  0  0  0  0  0  0  0  0  # atno 8008 bound_to 7997
  156.2837  140.2725  156.1872 H   0  0  0  0  0  0  0  0  0  0  0  0  # atno 8009 bound_to 7997
  155.0443  140.0371  157.2511 H   0  0  0  0  0  0  0  0  0  0  0  0  # atno 8010 bound_to 7997
  140.6300  143.2455  151.5264 H   0  0  0  0  0  0  0  0  0  0  0  0  # atno 10167 bound_to 10162
  157.4045  131.1021  151.0517 H   0  0  0  0  0  0  0  0  0  0  0  0  # atno 10718 bound_to 10713
  154.0569  135.6623  153.4807 H   0  0  0  0  0  0  0  0  0  0  0  0  # atno 10763 bound_to 10752
  153.0442  135.5125  154.7697 H   0  0  0  0  0  0  0  0  0  0  0  0  # atno 10764 bound_to 10752
  154.6721  135.3031  154.9694 H   0  0  0  0  0  0  0  0  0  0  0  0  # atno 10765 bound_to 10752
  141.1633  133.6907  156.7346 H   0  0  0  0  0  0  0  0  0  0  0  0  # atno 11005 bound_to 11000
  145.5146  141.0434  143.2469 LP  0  0  0  0  0  0  0  0  0  0  0  0  # atno 17320 bound_to 7965
  144.7745  139.6661  143.7181 LP  0  0  0  0  0  0  0  0  0  0  0  0  # atno 17321 bound_to 7965
  139.5516  144.2382  152.1539 LP  0  0  0  0  0  0  0  0  0  0  0  0  # atno 17342 bound_to 10162
  140.1623  144.5014  150.6625 LP  0  0  0  0  0  0  0  0  0  0  0  0  # atno 17343 bound_to 10162
  157.1504  130.6181  149.5580 LP  0  0  0  0  0  0  0  0  0  0  0  0  # atno 17370 bound_to 10713
  155.9833  130.4851  150.6924 LP  0  0  0  0  0  0  0  0  0  0  0  0  # atno 17371 bound_to 10713
  140.2719  134.8385  157.3855 LP  0  0  0  0  0  0  0  0  0  0  0  0  # atno 17394 bound_to 11000
  140.1513  134.4846  155.7959 LP  0  0  0  0  0  0  0  0  0  0  0  0  # atno 17395 bound_to 11000

$$$$
