AV-unprocessed.smi:2706|AV-procd|sdf|10446|dock6
  -GOLD-   2272014493D 1   1.00000     0.00000
 Structure written by MMmdl.
 43 46  0  0  0  0  0  0  0  0  1 V2000
  151.4743  139.3642  155.2205 C   0  0  0  0  0  0  0  0  0  0  0  0
  150.5252  140.4601  155.3905 N   0  0  0  0  0  0  0  0  0  0  0  0
  150.8754  141.6056  156.2208 C   0  0  0  0  0  0  0  0  0  0  0  0
  149.2668  140.4038  154.7494 C   0  0  0  0  0  0  0  0  0  0  0  0
  148.3938  141.5178  154.7277 C   0  0  0  0  0  0  0  0  0  0  0  0
  147.1569  141.4000  154.0688 C   0  0  0  0  0  0  0  0  0  0  0  0
  146.8253  140.1802  153.4524 C   0  0  0  0  0  0  0  0  0  0  0  0
  147.7388  139.1072  153.5147 C   0  0  0  0  0  0  0  0  0  0  0  0
  147.3220  137.9158  152.8633 N   0  0  0  0  0  0  0  0  0  0  0  0
  146.0666  137.4727  152.6711 C   0  0  0  0  0  0  0  0  0  0  0  0
  145.0427  138.0668  153.0111 O   0  0  0  0  0  0  0  0  0  0  0  0
  146.0621  136.2866  152.0474 N   0  0  0  0  0  0  0  0  0  0  0  0
  144.8974  135.5515  151.6696 C   0  0  2  0  0  0  0  0  0  0  0  0
  144.6428  134.1487  152.2080 C   0  0  2  0  0  0  0  0  0  0  0  0
  145.6539  133.1133  152.7056 C   0  0  1  0  0  0  0  0  0  0  0  0
  145.2558  131.7544  152.0902 C   0  0  0  0  0  0  0  0  0  0  0  0
  145.6354  131.9411  150.5987 C   0  0  0  0  0  0  0  0  0  0  0  0
  146.1957  133.3802  150.5771 C   0  0  2  0  0  0  0  0  0  0  0  0
  146.9354  133.3758  151.9149 C   0  0  0  0  0  0  0  0  0  0  0  0
  145.0104  134.3308  150.7633 C   0  0  2  0  0  0  0  0  0  0  0  0
  148.9274  139.2359  154.1523 N   0  0  0  0  0  0  0  0  0  0  0  0
  151.0571  138.4333  155.6058 H   0  0  0  0  0  0  0  0  0  0  0  0
  152.4067  139.5575  155.7508 H   0  0  0  0  0  0  0  0  0  0  0  0
  151.7141  139.2241  154.1656 H   0  0  0  0  0  0  0  0  0  0  0  0
  150.1638  141.7177  157.0392 H   0  0  0  0  0  0  0  0  0  0  0  0
  150.8763  142.5219  155.6297 H   0  0  0  0  0  0  0  0  0  0  0  0
  151.8677  141.4905  156.6572 H   0  0  0  0  0  0  0  0  0  0  0  0
  148.6475  142.4554  155.1987 H   0  0  0  0  0  0  0  0  0  0  0  0
  146.4723  142.2346  154.0359 H   0  0  0  0  0  0  0  0  0  0  0  0
  145.8793  140.0740  152.9415 H   0  0  0  0  0  0  0  0  0  0  0  0
  148.0646  137.3335  152.5059 H   0  0  0  0  0  0  0  0  0  0  0  0
  146.9516  135.8726  151.8099 H   0  0  0  0  0  0  0  0  0  0  0  0
  144.0006  136.1479  151.5080 H   0  0  0  0  0  0  0  0  0  0  0  0
  143.6048  133.9181  152.4413 H   0  0  0  0  0  0  0  0  0  0  0  0
  145.7607  133.1107  153.7903 H   0  0  0  0  0  0  0  0  0  0  0  0
  145.8276  130.9389  152.5351 H   0  0  0  0  0  0  0  0  0  0  0  0
  144.1965  131.5321  152.2251 H   0  0  0  0  0  0  0  0  0  0  0  0
  146.3962  131.2185  150.3007 H   0  0  0  0  0  0  0  0  0  0  0  0
  144.7800  131.8188  149.9331 H   0  0  0  0  0  0  0  0  0  0  0  0
  146.8018  133.6223  149.7039 H   0  0  0  0  0  0  0  0  0  0  0  0
  147.4532  134.2977  152.1635 H   0  0  0  0  0  0  0  0  0  0  0  0
  147.6673  132.5696  152.0006 H   0  0  0  0  0  0  0  0  0  0  0  0
  144.2205  134.2219  150.0222 H   0  0  0  0  0  0  0  0  0  0  0  0
  1  2  1  0  0  0  0
  1 22  1  0  0  0  0
  1 23  1  0  0  0  0
  1 24  1  0  0  0  0
  2  3  1  0  0  0  0
  2  4  1  0  0  0  0
  3 25  1  0  0  0  0
  3 26  1  0  0  0  0
  3 27  1  0  0  0  0
  4 21  1  0  0  0  0
  4  5  2  0  0  0  0
  5  6  1  0  0  0  0
  5 28  1  0  0  0  0
  6  7  2  0  0  0  0
  6 29  1  0  0  0  0
  7  8  1  0  0  0  0
  7 30  1  0  0  0  0
  8  9  1  0  0  0  0
  8 21  2  0  0  0  0
  9 10  1  0  0  0  0
  9 31  1  0  0  0  0
 10 11  2  0  0  0  0
 10 12  1  0  0  0  0
 12 13  1  0  0  0  0
 12 32  1  0  0  0  0
 13 20  1  0  0  0  0
 13 14  1  0  0  0  0
 13 33  1  0  0  0  0
 14 20  1  0  0  0  0
 14 15  1  0  0  0  0
 14 34  1  0  0  0  0
 15 19  1  0  0  0  0
 15 16  1  0  0  0  0
 15 35  1  0  0  0  0
 16 17  1  0  0  0  0
 16 36  1  0  0  0  0
 16 37  1  0  0  0  0
 17 18  1  0  0  0  0
 17 38  1  0  0  0  0
 17 39  1  0  0  0  0
 18 19  1  0  0  0  0
 18 20  1  0  0  0  0
 18 40  1  0  0  0  0
 19 41  1  0  0  0  0
 19 42  1  0  0  0  0
 20 43  1  0  0  0  0
M  END
> <s_m_source_file>
AV-unprocessed.smi

> <i_m_source_file_index>
2706

> <i_lp_mmshare_version>
43012

> <i_f3d_flags>
0

> <s_epik_input>
W0NIM11OKFtDSDNdKWMxW2NIXVtjSF1bY0hdYyhuMSlbTkhdQyg9TylbTkhdW0NASF0yW0NAQEhdM1tDQEBIXShbQ0gyXTQpW0NIMl1bQ0gyXVtDQEBIXTRbQ0BIXTIz

> <s_epik_cmdline>
J2VwaWtfcHl0aG9uJywgJy1waCcsICc3LjAnLCAnLXRuJywgJzgnLCAnLW1hJywgJzIwMCcsICctbWV0YWxfYmluZGluZycsICctaW1hZScsICc8aW5maWxlLm1hZT4nLCAnLW9tYWUnLCAnPG91dGZpbGUubWFlPic=

> <r_lp_tautomer_probability>
1

> <r_epik_Ionization_Penalty>
0.0296788

> <r_epik_Ionization_Penalty_Charging>
0

> <r_epik_Ionization_Penalty_Neutral>
0.0296788

> <r_epik_State_Penalty>
0.0248512

> <r_epik_Charging_Adjusted_Penalty>
0.0248512

> <i_epik_Tot_Q>
0

> <i_epik_Tot_abs_Q>
0

> <r_epik_Metal_State_Penalty>
0.0237882

> <b_epik_Metal_Only>
0

> <s_lp_Force_Field>
OPLS_2005

> <r_lp_Energy>
83.6561

> <b_lp_Chiralities_Consistent>
1

> <s_lp_Variant>
AV-unprocessed.smi:2706-3

> <Gold.Version>
5.8.1

> <Gold.Id.Protein>
6NUR|6NUR_protein|mol2

> <Gold.PLP.Fitness>
43.7198

> <Gold.PLP.PLP>
-38.6259

> <Gold.PLP.part.hbond>
-1.9596

> <Gold.PLP.part.metal>
0.0000

> <Gold.PLP.part.buried>
-3.4244

> <Gold.PLP.part.nonpolar>
-36.3303

> <Gold.PLP.part.repulsive>
2.6431

> <Gold.PLP.ligand.clash>
0.0000

> <Gold.PLP.ligand.torsion>
0.2613

> <Gold.PLP.Chemscore.Hbond>
1.8553

> <Gold.PLP.Chemscore.CHOScore>
0.0000

> <Gold.PLP.Chemscore.Metal>
0.0000

> <Gold.Chemscore.Hbonds>
donor molecule, donor type, donor heavy atom, donor atom, acceptor molecule, acceptor atom, score
      L1  H     9    31       P1  7948  1.00
      L1  H    12    32       P1  7948  0.86

> <Gold.PLP.Chemscore.Internal.Correction>
0.0508

> <Gold.Rescore>
     Score         DG    S(hbond)    S(metal)    S(lipo)     H(rot)  DE(clash)    DE(int)     intcor
     16.64     -19.18       1.91        0.00      84.32       1.00       0.91       1.63       ----

> <Gold.Chemscore.Fitness>
16.6357

> <Gold.Chemscore.DG>
-19.1795

> <Gold.Chemscore.ZeroCoef>
-5.4800

> <Gold.Chemscore.Hbond>
1.9142

> <Gold.Chemscore.Metal>
0.0000

> <Gold.Chemscore.Lipo>
84.3241

> <Gold.Chemscore.Internal_Hbond>
0.0000

> <Gold.Chemscore.DEClash>
0.9129

> <Gold.Chemscore.DEInternal>
1.6308

> <Gold.Chemscore.Rot>
1.0000

> <Gold.Chemscore.Internal.Correction>
   9.000000E+99

> <Gold.Chemscore.Hbonds>
donor molecule, donor type, donor heavy atom, donor atom, acceptor molecule, acceptor atom, score
      L1  H     9    31       P1  7948  0.94
      L1  H    12    32       P1  7948  0.82

> <Gold.Chemscore.Hbond.Weighted>
-6.3935

> <Gold.Chemscore.Metal.Weighted>
-0.0000

> <Gold.Chemscore.Lipo.Weighted>
-9.8659

> <Gold.Chemscore.Internal_Hbond.Weighted>
0.0000

> <Gold.Chemscore.DEClash.Weighted>
0.9129

> <Gold.Chemscore.DEInternal.Weighted>
1.6308

> <Gold.Chemscore.Rot.Weighted>
2.5600

> <Gold.Chemscore.Internal.Correction.Weighted>
   9.000000E+99

> <Gold.Protein.RotatedTorsions>
[ 6907 6896 6895 6894 ] final -159.26 input  -60.11 | X-H torsion
[ 7974 7965 7964 7962 ] final   58.57 input  175.53 | X-H torsion
[ 8008 7997 7996 7995 ] final    7.24 input   59.86 | X-H torsion
[ 10167 10162 10161 10158 ] final  112.89 input  -65.29 | X-H torsion
[ 10718 10713 10712 10709 ] final  -54.56 input   66.30 | X-H torsion
[ 10763 10752 10751 10750 ] final  151.99 input  -60.55 | X-H torsion
[ 11005 11000 10999 10996 ] final -150.32 input  -57.11 | X-H torsion

> <Gold.Protein.ActiveResidues>
 VAL166  LYS551  ARG553  GLY616  TRP617  ASP618  TYR619  PRO620  LYS621  CYS622 
 ASP623  PHE694  ASN695  SER759  ASP760  ASP761  ALA762  ILE779  LEU786  VAL792 
 PHE793  MET794  SER795  GLU796  ALA797  LYS798  CYS799  TRP800  GLU811  SER814 

> <Gold.Protein.RotatedAtoms>
  151.3308  133.4001  159.2662 H   0  0  0  0  0  0  0  0  0  0  0  0  # atno 6907 bound_to 6896
  150.9957  134.9282  159.7936 H   0  0  0  0  0  0  0  0  0  0  0  0  # atno 6908 bound_to 6896
  152.5260  134.3273  159.9222 H   0  0  0  0  0  0  0  0  0  0  0  0  # atno 6909 bound_to 6896
  145.9167  139.3697  143.0503 H   0  0  0  0  0  0  0  0  0  0  0  0  # atno 7974 bound_to 7965
  154.7513  140.2767  155.6290 H   0  0  0  0  0  0  0  0  0  0  0  0  # atno 8008 bound_to 7997
  156.2896  140.2678  156.2194 H   0  0  0  0  0  0  0  0  0  0  0  0  # atno 8009 bound_to 7997
  155.0133  140.0372  157.2398 H   0  0  0  0  0  0  0  0  0  0  0  0  # atno 8010 bound_to 7997
  139.6502  144.7128  151.2063 H   0  0  0  0  0  0  0  0  0  0  0  0  # atno 10167 bound_to 10162
  156.1440  130.4153  150.0055 H   0  0  0  0  0  0  0  0  0  0  0  0  # atno 10718 bound_to 10713
  154.1127  135.2838  155.3227 H   0  0  0  0  0  0  0  0  0  0  0  0  # atno 10763 bound_to 10752
  154.6478  135.5379  153.7869 H   0  0  0  0  0  0  0  0  0  0  0  0  # atno 10764 bound_to 10752
  153.0340  135.6502  154.1285 H   0  0  0  0  0  0  0  0  0  0  0  0  # atno 10765 bound_to 10752
  140.7415  134.3509  157.5146 H   0  0  0  0  0  0  0  0  0  0  0  0  # atno 11005 bound_to 11000
  145.8602  140.9479  143.0704 LP  0  0  0  0  0  0  0  0  0  0  0  0  # atno 17320 bound_to 7965
  144.6748  140.0521  143.7478 LP  0  0  0  0  0  0  0  0  0  0  0  0  # atno 17321 bound_to 7965
  140.7534  143.6163  150.8557 LP  0  0  0  0  0  0  0  0  0  0  0  0  # atno 17342 bound_to 10162
  139.9810  143.5951  152.2943 LP  0  0  0  0  0  0  0  0  0  0  0  0  # atno 17343 bound_to 10162
  156.7932  130.9263  151.3646 LP  0  0  0  0  0  0  0  0  0  0  0  0  # atno 17370 bound_to 10713
  157.6601  130.8958  149.9811 LP  0  0  0  0  0  0  0  0  0  0  0  0  # atno 17371 bound_to 10713
  139.8805  134.9083  156.2966 LP  0  0  0  0  0  0  0  0  0  0  0  0  # atno 17394 bound_to 11000
  140.9833  133.7254  156.0704 LP  0  0  0  0  0  0  0  0  0  0  0  0  # atno 17395 bound_to 11000

$$$$
