AV-unprocessed.smi:1288|AV-procd|sdf|5381|dock1
  -GOLD-   22720 4523D 1   1.00000     0.00000
 Structure written by MMmdl.
 42 44  0  0  0  0  0  0  0  0  1 V2000
  151.2500  137.9497  154.8440 C   0  0  0  0  0  0  0  0  0  0  0  0
  151.2057  139.1601  155.7218 C   0  0  0  0  0  0  0  0  0  0  0  0
  150.8691  140.3635  155.2574 N   0  0  0  0  0  0  0  0  0  0  0  0
  150.9687  141.1606  156.3814 C   0  0  0  0  0  0  0  0  0  0  0  0
  150.7390  142.5451  156.5486 C   0  0  0  0  0  0  0  0  0  0  0  0
  150.9068  143.1490  157.8118 C   0  0  0  0  0  0  0  0  0  0  0  0
  151.3067  142.3796  158.9236 C   0  0  0  0  0  0  0  0  0  0  0  0
  151.5403  140.9985  158.7792 C   0  0  0  0  0  0  0  0  0  0  0  0
  151.3710  140.4001  157.5162 C   0  0  0  0  0  0  0  0  0  0  0  0
  151.5111  139.0991  157.0414 N   0  0  0  0  0  0  0  0  0  0  0  0
  151.9088  137.9303  157.8152 C   0  0  0  0  0  0  0  0  0  0  0  0
  151.1059  137.7763  159.1230 C   0  0  2  0  0  0  0  0  0  0  0  0
  151.8844  137.0580  160.0604 O   0  0  0  0  0  0  0  0  0  0  0  0
  149.7887  137.0167  158.8995 C   0  0  0  0  0  0  0  0  0  0  0  0
  149.0187  137.0579  160.0902 O   0  0  0  0  0  0  0  0  0  0  0  0
  149.0267  135.8264  160.7923 C   0  0  0  0  0  0  0  0  0  0  0  0
  147.7563  135.6418  161.5989 C   0  0  0  0  0  0  0  0  0  0  0  0
  146.7110  136.5837  161.4949 C   0  0  0  0  0  0  0  0  0  0  0  0
  145.5294  136.4164  162.2432 C   0  0  0  0  0  0  0  0  0  0  0  0
  145.3878  135.3059  163.0974 C   0  0  0  0  0  0  0  0  0  0  0  0
  146.4278  134.3620  163.2017 C   0  0  0  0  0  0  0  0  0  0  0  0
  147.6102  134.5277  162.4539 C   0  0  0  0  0  0  0  0  0  0  0  0
  148.6034  133.6125  162.5603 F   0  0  0  0  0  0  0  0  0  0  0  0
  150.9520  138.2046  153.8264 H   0  0  0  0  0  0  0  0  0  0  0  0
  150.5708  137.1834  155.2166 H   0  0  0  0  0  0  0  0  0  0  0  0
  152.2607  137.5427  154.8123 H   0  0  0  0  0  0  0  0  0  0  0  0
  150.4325  143.1432  155.7031 H   0  0  0  0  0  0  0  0  0  0  0  0
  150.7277  144.2078  157.9284 H   0  0  0  0  0  0  0  0  0  0  0  0
  151.4334  142.8502  159.8877 H   0  0  0  0  0  0  0  0  0  0  0  0
  151.8435  140.4065  159.6298 H   0  0  0  0  0  0  0  0  0  0  0  0
  151.7921  137.0434  157.1917 H   0  0  0  0  0  0  0  0  0  0  0  0
  152.9750  138.0043  158.0332 H   0  0  0  0  0  0  0  0  0  0  0  0
  150.8896  138.7644  159.5302 H   0  0  0  0  0  0  0  0  0  0  0  0
  152.3578  137.6782  160.5938 H   0  0  0  0  0  0  0  0  0  0  0  0
  149.2152  137.5028  158.1084 H   0  0  0  0  0  0  0  0  0  0  0  0
  149.9748  135.9901  158.5785 H   0  0  0  0  0  0  0  0  0  0  0  0
  149.1273  134.9957  160.0920 H   0  0  0  0  0  0  0  0  0  0  0  0
  149.8894  135.7850  161.4594 H   0  0  0  0  0  0  0  0  0  0  0  0
  146.8112  137.4371  160.8401 H   0  0  0  0  0  0  0  0  0  0  0  0
  144.7319  137.1402  162.1613 H   0  0  0  0  0  0  0  0  0  0  0  0
  144.4817  135.1775  163.6710 H   0  0  0  0  0  0  0  0  0  0  0  0
  146.3188  133.5095  163.8555 H   0  0  0  0  0  0  0  0  0  0  0  0
  1  2  1  0  0  0  0
  1 24  1  0  0  0  0
  1 25  1  0  0  0  0
  1 26  1  0  0  0  0
  2 10  1  0  0  0  0
  2  3  2  0  0  0  0
  3  4  1  0  0  0  0
  4  9  2  0  0  0  0
  4  5  1  0  0  0  0
  5  6  2  0  0  0  0
  5 27  1  0  0  0  0
  6  7  1  0  0  0  0
  6 28  1  0  0  0  0
  7  8  2  0  0  0  0
  7 29  1  0  0  0  0
  8  9  1  0  0  0  0
  8 30  1  0  0  0  0
  9 10  1  0  0  0  0
 10 11  1  0  0  0  0
 11 12  1  0  0  0  0
 11 31  1  0  0  0  0
 11 32  1  0  0  0  0
 12 13  1  0  0  0  0
 12 14  1  0  0  0  0
 12 33  1  0  0  0  0
 13 34  1  0  0  0  0
 14 15  1  0  0  0  0
 14 35  1  0  0  0  0
 14 36  1  0  0  0  0
 15 16  1  0  0  0  0
 16 17  1  0  0  0  0
 16 37  1  0  0  0  0
 16 38  1  0  0  0  0
 17 22  1  0  0  0  0
 17 18  2  0  0  0  0
 18 19  1  0  0  0  0
 18 39  1  0  0  0  0
 19 20  2  0  0  0  0
 19 40  1  0  0  0  0
 20 21  1  0  0  0  0
 20 41  1  0  0  0  0
 21 22  2  0  0  0  0
 21 42  1  0  0  0  0
 22 23  1  0  0  0  0
M  END
> <s_m_source_file>
AV-unprocessed.smi

> <i_m_source_file_index>
1288

> <i_lp_mmshare_version>
43012

> <i_f3d_flags>
0

> <s_epik_input>
W2NIXTFbY0hdW2NIXVtjSF1jKGMxMiluKGMobjIpW0NIM10pW0NIMl1bQ0BIXShbT0hdKVtDSDJdT1tDSDJdYzNbY0hdW2NIXVtjSF1bY0hdYzNG

> <s_epik_cmdline>
J2VwaWtfcHl0aG9uJywgJy1waCcsICc3LjAnLCAnLXRuJywgJzgnLCAnLW1hJywgJzIwMCcsICctbWV0YWxfYmluZGluZycsICctaW1hZScsICc8aW5maWxlLm1hZT4nLCAnLW9tYWUnLCAnPG91dGZpbGUubWFlPic=

> <r_epik_Ionization_Penalty>
0.132603

> <r_epik_Ionization_Penalty_Charging>
0

> <r_epik_Ionization_Penalty_Neutral>
0.132603

> <r_epik_State_Penalty>
0.121982

> <r_epik_Charging_Adjusted_Penalty>
0.121982

> <i_epik_Tot_Q>
0

> <i_epik_Tot_abs_Q>
0

> <r_epik_Metal_State_Penalty>
0.000135431

> <b_epik_Metal_Only>
0

> <s_lp_Force_Field>
OPLS_2005

> <r_lp_Energy>
16.1737

> <b_lp_Chiralities_Consistent>
1

> <s_lp_Variant>
AV-unprocessed.smi:1288-1

> <Gold.Version>
5.8.1

> <Gold.Id.Protein>
6NUR|6NUR_protein|mol2

> <Gold.PLP.Fitness>
48.4580

> <Gold.PLP.PLP>
-43.7831

> <Gold.PLP.part.hbond>
-3.6907

> <Gold.PLP.part.metal>
0.0000

> <Gold.PLP.part.buried>
-5.3225

> <Gold.PLP.part.nonpolar>
-35.1311

> <Gold.PLP.part.repulsive>
0.0468

> <Gold.PLP.ligand.clash>
0.0000

> <Gold.PLP.ligand.torsion>
0.9417

> <Gold.PLP.Chemscore.Hbond>
2.0403

> <Gold.PLP.Chemscore.CHOScore>
0.0000

> <Gold.PLP.Chemscore.Metal>
0.0000

> <Gold.Chemscore.Hbonds>
donor molecule, donor type, donor heavy atom, donor atom, acceptor molecule, acceptor atom, score
      P1  H  6896  6909       L1    13  0.70
      P1  H  6931  6943       L1    15  0.27
      P1  H  7989  7998       L1     3  1.00

> <Gold.PLP.Chemscore.Internal.Correction>
0.4375

> <Gold.Rescore>
     Score         DG    S(hbond)    S(metal)    S(lipo)     H(rot)  DE(clash)    DE(int)     intcor
     18.20     -19.22       1.94        0.00     111.98       2.29       0.12       0.89       ----

> <Gold.Chemscore.Fitness>
18.2049

> <Gold.Chemscore.DG>
-19.2178

> <Gold.Chemscore.ZeroCoef>
-5.4800

> <Gold.Chemscore.Hbond>
1.9430

> <Gold.Chemscore.Metal>
0.0000

> <Gold.Chemscore.Lipo>
111.9751

> <Gold.Chemscore.Internal_Hbond>
0.0000

> <Gold.Chemscore.DEClash>
0.1232

> <Gold.Chemscore.DEInternal>
0.8897

> <Gold.Chemscore.Rot>
2.2863

> <Gold.Chemscore.Internal.Correction>
   9.000000E+99

> <Gold.Chemscore.Hbonds>
donor molecule, donor type, donor heavy atom, donor atom, acceptor molecule, acceptor atom, score
      P1  H  6896  6909       L1    13  0.30
      P1  H  6931  6943       L1    15  0.03
      P1  H  7989  7998       L1     3  0.89

> <Gold.Chemscore.Hbond.Weighted>
-6.4897

> <Gold.Chemscore.Metal.Weighted>
-0.0000

> <Gold.Chemscore.Lipo.Weighted>
-13.1011

> <Gold.Chemscore.Internal_Hbond.Weighted>
0.0000

> <Gold.Chemscore.DEClash.Weighted>
0.1232

> <Gold.Chemscore.DEInternal.Weighted>
0.8897

> <Gold.Chemscore.Rot.Weighted>
5.8530

> <Gold.Chemscore.Internal.Correction.Weighted>
   9.000000E+99

> <Gold.Protein.RotatedTorsions>
[ 6907 6896 6895 6894 ] final   95.24 input  -60.11 | X-H torsion
[ 7974 7965 7964 7962 ] final  -31.44 input  175.53 | X-H torsion
[ 8008 7997 7996 7995 ] final  172.28 input   59.86 | X-H torsion
[ 10167 10162 10161 10158 ] final   17.18 input  -65.29 | X-H torsion
[ 10718 10713 10712 10709 ] final  -67.80 input   66.30 | X-H torsion
[ 10763 10752 10751 10750 ] final  139.81 input  -60.55 | X-H torsion
[ 11005 11000 10999 10996 ] final  167.26 input  -57.11 | X-H torsion

> <Gold.Protein.ActiveResidues>
 VAL166  LYS551  ARG553  GLY616  TRP617  ASP618  TYR619  PRO620  LYS621  CYS622 
 ASP623  PHE694  ASN695  SER759  ASP760  ASP761  ALA762  ILE779  LEU786  VAL792 
 PHE793  MET794  SER795  GLU796  ALA797  LYS798  CYS799  TRP800  GLU811  SER814 

> <Gold.Protein.RotatedAtoms>
  152.5445  134.1071  159.8342 H   0  0  0  0  0  0  0  0  0  0  0  0  # atno 6907 bound_to 6896
  151.1141  133.5144  159.2612 H   0  0  0  0  0  0  0  0  0  0  0  0  # atno 6908 bound_to 6896
  151.1851  135.0387  159.8863 H   0  0  0  0  0  0  0  0  0  0  0  0  # atno 6909 bound_to 6896
  146.1067  140.5668  142.8796 H   0  0  0  0  0  0  0  0  0  0  0  0  # atno 7974 bound_to 7965
  156.1190  140.1490  156.9232 H   0  0  0  0  0  0  0  0  0  0  0  0  # atno 8008 bound_to 7997
  154.4821  140.0876  156.7445 H   0  0  0  0  0  0  0  0  0  0  0  0  # atno 8009 bound_to 7997
  155.4462  140.3433  155.4298 H   0  0  0  0  0  0  0  0  0  0  0  0  # atno 8010 bound_to 7997
  140.5744  143.9100  150.6738 H   0  0  0  0  0  0  0  0  0  0  0  0  # atno 10167 bound_to 10162
  156.0538  130.4284  150.1908 H   0  0  0  0  0  0  0  0  0  0  0  0  # atno 10718 bound_to 10713
  153.9122  135.3010  155.3448 H   0  0  0  0  0  0  0  0  0  0  0  0  # atno 10763 bound_to 10752
  154.7617  135.4930  153.9480 H   0  0  0  0  0  0  0  0  0  0  0  0  # atno 10764 bound_to 10752
  153.1186  135.6777  153.9476 H   0  0  0  0  0  0  0  0  0  0  0  0  # atno 10765 bound_to 10752
  140.2749  134.7797  157.3708 H   0  0  0  0  0  0  0  0  0  0  0  0  # atno 11005 bound_to 11000
  144.7477  140.5110  143.6824 LP  0  0  0  0  0  0  0  0  0  0  0  0  # atno 17320 bound_to 7965
  145.5747  139.1485  143.3269 LP  0  0  0  0  0  0  0  0  0  0  0  0  # atno 17321 bound_to 7965
  140.2584  143.3542  152.1345 LP  0  0  0  0  0  0  0  0  0  0  0  0  # atno 17342 bound_to 10162
  139.5135  144.6933  151.5700 LP  0  0  0  0  0  0  0  0  0  0  0  0  # atno 17343 bound_to 10162
  156.9987  130.9915  151.3396 LP  0  0  0  0  0  0  0  0  0  0  0  0  # atno 17370 bound_to 10713
  157.5490  130.8169  149.8121 LP  0  0  0  0  0  0  0  0  0  0  0  0  # atno 17371 bound_to 10713
  140.1338  134.5061  155.8085 LP  0  0  0  0  0  0  0  0  0  0  0  0  # atno 17394 bound_to 11000
  141.2172  133.6799  156.7087 LP  0  0  0  0  0  0  0  0  0  0  0  0  # atno 17395 bound_to 11000

$$$$
