AV-unprocessed.smi:2886|AV-procd|sdf|11094|dock8
  -GOLD-   2272015563D 1   1.00000     0.00000
 Structure written by MMmdl.
 28 30  0  0  0  0  0  0  0  0  3 V2000
  150.5609  138.9631  155.0401 O   0  0  0  0  0  0  0  0  0  0  0  0
  150.6321  140.0581  155.5945 C   0  0  0  0  0  0  0  0  0  0  0  0
  149.8873  141.1391  155.2156 N   0  5  0  0  0  0  0  0  0  0  0  0
  149.9840  142.2988  155.8268 N   0  3  0  0  0  0  0  0  0  0  0  0
  150.8000  142.5248  156.8516 C   0  0  0  0  0  0  0  0  0  0  0  0
  151.6363  141.4834  157.3420 C   0  0  0  0  0  0  0  0  0  0  0  0
  152.5024  141.6718  158.4119 N   0  0  0  0  0  0  0  0  0  0  0  0
  152.7259  142.8758  159.2005 C   0  0  1  0  0  0  0  0  0  0  0  0
  152.8665  144.1302  158.3345 C   0  0  0  0  0  0  0  0  0  0  0  0
  151.7756  145.0366  158.9189 C   0  0  2  0  0  0  0  0  0  0  0  0
  152.1112  145.5111  160.3400 C   0  0  0  0  0  0  0  0  0  0  0  0
  151.8791  144.2403  161.1576 C   0  0  0  0  0  0  0  0  0  0  0  0
  151.5056  143.2276  160.0671 C   0  0  1  0  0  0  0  0  0  0  0  0
  150.7745  144.0724  159.1928 O   0  0  0  0  0  0  0  0  0  0  0  0
  151.5511  140.2678  156.7286 C   0  0  0  0  0  0  0  0  0  0  0  0
  152.5251  138.9361  157.2582 Cl  0  0  0  0  0  0  0  0  0  0  0  0
  149.4068  143.1000  155.5267 H   0  0  0  0  0  0  0  0  0  0  0  0
  150.7865  143.5185  157.2809 H   0  0  0  0  0  0  0  0  0  0  0  0
  153.1707  140.9332  158.5831 H   0  0  0  0  0  0  0  0  0  0  0  0
  153.5946  142.7413  159.8448 H   0  0  0  0  0  0  0  0  0  0  0  0
  153.8592  144.5768  158.3987 H   0  0  0  0  0  0  0  0  0  0  0  0
  152.6582  143.9176  157.2848 H   0  0  0  0  0  0  0  0  0  0  0  0
  151.4586  145.8353  158.2477 H   0  0  0  0  0  0  0  0  0  0  0  0
  153.1322  145.8859  160.4201 H   0  0  0  0  0  0  0  0  0  0  0  0
  151.4301  146.3009  160.6594 H   0  0  0  0  0  0  0  0  0  0  0  0
  152.7561  143.9361  161.7298 H   0  0  0  0  0  0  0  0  0  0  0  0
  151.0503  144.3800  161.8525 H   0  0  0  0  0  0  0  0  0  0  0  0
  150.9505  142.3662  160.4408 H   0  0  0  0  0  0  0  0  0  0  0  0
  1  2  2  0  0  0  0
  2  3  1  0  0  0  0
  2 15  1  0  0  0  0
  3  4  1  0  0  0  0
  4  5  2  0  0  0  0
  4 17  1  0  0  0  0
  5  6  1  0  0  0  0
  5 18  1  0  0  0  0
  6 15  2  0  0  0  0
  6  7  1  0  0  0  0
  7  8  1  0  0  0  0
  7 19  1  0  0  0  0
  8 13  1  0  0  0  0
  8  9  1  0  0  0  0
  8 20  1  0  0  0  0
  9 10  1  0  0  0  0
  9 21  1  0  0  0  0
  9 22  1  0  0  0  0
 10 14  1  0  0  0  0
 10 11  1  0  0  0  0
 10 23  1  0  0  0  0
 11 12  1  0  0  0  0
 11 24  1  0  0  0  0
 11 25  1  0  0  0  0
 12 13  1  0  0  0  0
 12 26  1  0  0  0  0
 12 27  1  0  0  0  0
 13 14  1  0  0  0  0
 13 28  1  0  0  0  0
 15 16  1  0  0  0  0
M  CHG  1   3  -1
M  CHG  1   4   1
M  END
> <s_m_source_file>
AV-unprocessed.smi

> <i_m_source_file_index>
2886

> <i_lp_mmshare_version>
43012

> <i_f3d_flags>
0

> <s_epik_input>
Tz1jMVtuSF1uW2NIXWMoYzFDbClbTkhdW0NASF0oW0NIMl1bQ0BASF0yMylbQ0BASF0oTzMpW0NIMl1bQ0gyXTI=

> <s_epik_cmdline>
J2VwaWtfcHl0aG9uJywgJy1waCcsICc3LjAnLCAnLXRuJywgJzgnLCAnLW1hJywgJzIwMCcsICctbWV0YWxfYmluZGluZycsICctaW1hZScsICc8aW5maWxlLm1hZT4nLCAnLW9tYWUnLCAnPG91dGZpbGUubWFlPic=

> <r_lp_tautomer_probability>
0.0138196

> <r_epik_Ionization_Penalty>
2.43027

> <r_epik_Ionization_Penalty_Charging>
2.43027

> <r_epik_Ionization_Penalty_Neutral>
1.33267e-06

> <r_epik_State_Penalty>
2.7044

> <r_epik_Charging_Adjusted_Penalty>
5.13467

> <i_epik_Tot_Q>
0

> <i_epik_Tot_abs_Q>
2

> <r_epik_Metal_State_Penalty>
2.98589

> <b_epik_Metal_Only>
0

> <s_lp_Force_Field>
OPLS_2005

> <r_lp_Energy>
57.4962

> <b_lp_Chiralities_Consistent>
1

> <s_lp_Variant>
AV-unprocessed.smi:2886-8

> <Gold.Version>
5.8.1

> <Gold.Id.Protein>
6NUR|6NUR_protein|mol2

> <Gold.PLP.Fitness>
38.1204

> <Gold.PLP.PLP>
-32.3601

> <Gold.PLP.part.hbond>
-1.7239

> <Gold.PLP.part.metal>
0.0000

> <Gold.PLP.part.buried>
-3.2312

> <Gold.PLP.part.nonpolar>
-28.1511

> <Gold.PLP.part.repulsive>
0.5584

> <Gold.PLP.ligand.clash>
0.0000

> <Gold.PLP.ligand.torsion>
0.1292

> <Gold.PLP.Chemscore.Hbond>
2.0000

> <Gold.PLP.Chemscore.CHOScore>
0.0000

> <Gold.PLP.Chemscore.Metal>
0.0000

> <Gold.Chemscore.Hbonds>
donor molecule, donor type, donor heavy atom, donor atom, acceptor molecule, acceptor atom, score
      L1  H     4    17       P1  8028  2.00

> <Gold.PLP.Chemscore.Internal.Correction>
0.0188

> <Gold.Rescore>
     Score         DG    S(hbond)    S(metal)    S(lipo)     H(rot)  DE(clash)    DE(int)     intcor
     16.06     -17.72       0.95        0.00      99.26       1.00       0.11       1.55       ----

> <Gold.Chemscore.Fitness>
16.0641

> <Gold.Chemscore.DG>
-17.7187

> <Gold.Chemscore.ZeroCoef>
-5.4800

> <Gold.Chemscore.Hbond>
0.9537

> <Gold.Chemscore.Metal>
0.0000

> <Gold.Chemscore.Lipo>
99.2583

> <Gold.Chemscore.Internal_Hbond>
0.0000

> <Gold.Chemscore.DEClash>
0.1057

> <Gold.Chemscore.DEInternal>
1.5489

> <Gold.Chemscore.Rot>
1.0000

> <Gold.Chemscore.Internal.Correction>
   9.000000E+99

> <Gold.Chemscore.Hbonds>
donor molecule, donor type, donor heavy atom, donor atom, acceptor molecule, acceptor atom, score
      L1  H     4    17       P1  8028  0.97

> <Gold.Chemscore.Hbond.Weighted>
-3.1854

> <Gold.Chemscore.Metal.Weighted>
-0.0000

> <Gold.Chemscore.Lipo.Weighted>
-11.6132

> <Gold.Chemscore.Internal_Hbond.Weighted>
0.0000

> <Gold.Chemscore.DEClash.Weighted>
0.1057

> <Gold.Chemscore.DEInternal.Weighted>
1.5489

> <Gold.Chemscore.Rot.Weighted>
2.5600

> <Gold.Chemscore.Internal.Correction.Weighted>
   9.000000E+99

> <Gold.Protein.RotatedTorsions>
[ 6907 6896 6895 6894 ] final -173.70 input  -60.11 | X-H torsion
[ 7974 7965 7964 7962 ] final   92.20 input  175.53 | X-H torsion
[ 8008 7997 7996 7995 ] final -111.97 input   59.86 | X-H torsion
[ 10167 10162 10161 10158 ] final -117.74 input  -65.29 | X-H torsion
[ 10718 10713 10712 10709 ] final   98.37 input   66.30 | X-H torsion
[ 10763 10752 10751 10750 ] final -107.91 input  -60.55 | X-H torsion
[ 11005 11000 10999 10996 ] final   27.78 input  -57.11 | X-H torsion

> <Gold.Protein.ActiveResidues>
 VAL166  LYS551  ARG553  GLY616  TRP617  ASP618  TYR619  PRO620  LYS621  CYS622 
 ASP623  PHE694  ASN695  SER759  ASP760  ASP761  ALA762  ILE779  LEU786  VAL792 
 PHE793  MET794  SER795  GLU796  ALA797  LYS798  CYS799  TRP800  GLU811  SER814 

> <Gold.Protein.RotatedAtoms>
  151.5604  133.3404  159.2969 H   0  0  0  0  0  0  0  0  0  0  0  0  # atno 6907 bound_to 6896
  150.8426  134.7726  159.6956 H   0  0  0  0  0  0  0  0  0  0  0  0  # atno 6908 bound_to 6896
  152.4490  134.5440  159.9899 H   0  0  0  0  0  0  0  0  0  0  0  0  # atno 6909 bound_to 6896
  145.4954  139.2276  143.2807 H   0  0  0  0  0  0  0  0  0  0  0  0  # atno 7974 bound_to 7965
  154.9980  140.0394  157.2348 H   0  0  0  0  0  0  0  0  0  0  0  0  # atno 8008 bound_to 7997
  154.7569  140.2777  155.6223 H   0  0  0  0  0  0  0  0  0  0  0  0  # atno 8009 bound_to 7997
  156.2896  140.2636  156.2338 H   0  0  0  0  0  0  0  0  0  0  0  0  # atno 8010 bound_to 7997
  140.0651  143.4931  152.2010 H   0  0  0  0  0  0  0  0  0  0  0  0  # atno 10167 bound_to 10162
  157.6896  131.0638  150.4786 H   0  0  0  0  0  0  0  0  0  0  0  0  # atno 10718 bound_to 10713
  154.8104  135.4657  154.0502 H   0  0  0  0  0  0  0  0  0  0  0  0  # atno 10763 bound_to 10752
  153.1937  135.6859  153.8326 H   0  0  0  0  0  0  0  0  0  0  0  0  # atno 10764 bound_to 10752
  153.7835  135.3253  155.3346 H   0  0  0  0  0  0  0  0  0  0  0  0  # atno 10765 bound_to 10752
  140.3226  134.2526  155.7714 H   0  0  0  0  0  0  0  0  0  0  0  0  # atno 11005 bound_to 11000
  146.2258  140.5751  142.8997 LP  0  0  0  0  0  0  0  0  0  0  0  0  # atno 17320 bound_to 7965
  144.7810  140.5840  143.6605 LP  0  0  0  0  0  0  0  0  0  0  0  0  # atno 17321 bound_to 7965
  139.5870  144.7535  151.3496 LP  0  0  0  0  0  0  0  0  0  0  0  0  # atno 17342 bound_to 10162
  140.7153  143.7283  150.7643 LP  0  0  0  0  0  0  0  0  0  0  0  0  # atno 17343 bound_to 10162
  156.5120  130.4141  149.6296 LP  0  0  0  0  0  0  0  0  0  0  0  0  # atno 17370 bound_to 10713
  156.3232  130.7292  151.2208 LP  0  0  0  0  0  0  0  0  0  0  0  0  # atno 17371 bound_to 10713
  141.2083  133.7782  157.0069 LP  0  0  0  0  0  0  0  0  0  0  0  0  # atno 17394 bound_to 11000
  140.0928  134.9582  157.1803 LP  0  0  0  0  0  0  0  0  0  0  0  0  # atno 17395 bound_to 11000

$$$$
