AV-unprocessed.smi:1135|AV-procd|sdf|4859|dock1
  -GOLD-   22720 3433D 1   1.00000     0.00000
 Structure written by MMmdl.
 45 46  0  0  0  0  0  0  0  0  1 V2000
  149.1721  140.5084  154.2610 C   0  0  0  0  0  0  0  0  0  0  0  0
  149.8446  139.3810  155.0567 C   0  0  2  0  0  0  0  0  0  0  0  0
  150.7265  138.5010  154.1517 C   0  0  0  0  0  0  0  0  0  0  0  0
  151.3789  137.3476  154.9382 C   0  0  0  0  0  0  0  0  0  0  0  0
  150.3463  136.4608  155.6750 C   0  0  2  0  0  0  0  0  0  0  0  0
  151.0986  135.4183  156.5293 C   0  0  0  0  0  0  0  0  0  0  0  0
  149.5376  135.7779  154.6539 N   0  0  0  0  0  0  0  0  0  0  0  0
  148.7581  134.6930  154.7919 C   0  0  0  0  0  0  0  0  0  0  0  0
  148.6090  134.0650  155.8400 O   0  0  0  0  0  0  0  0  0  0  0  0
  148.1491  134.3772  153.6407 N   0  0  0  0  0  0  0  0  0  0  0  0
  147.2239  133.2636  153.4665 C   0  0  0  0  0  0  0  0  0  0  0  0
  145.8130  133.7537  153.1004 C   0  0  0  0  0  0  0  0  0  0  0  0
  145.3946  133.3110  151.7110 C   0  0  0  0  0  0  0  0  0  0  0  0
  146.3091  132.6549  150.8596 C   0  0  0  0  0  0  0  0  0  0  0  0
  145.8757  132.2739  149.5751 C   0  0  0  0  0  0  0  0  0  0  0  0
  144.5517  132.5631  149.1927 C   0  0  0  0  0  0  0  0  0  0  0  0
  143.7160  133.2219  150.1167 C   0  0  0  0  0  0  0  0  0  0  0  0
  144.1215  133.5914  151.3509 N   0  0  0  0  0  0  0  0  0  0  0  0
  149.4779  137.3749  156.5797 C   0  0  0  0  0  0  0  0  0  0  0  0
  148.8068  138.5204  155.8004 C   0  0  0  0  0  0  0  0  0  0  0  0
  148.5055  140.1107  153.4950 H   0  0  0  0  0  0  0  0  0  0  0  0
  149.9137  141.1349  153.7649 H   0  0  0  0  0  0  0  0  0  0  0  0
  148.5819  141.1515  154.9146 H   0  0  0  0  0  0  0  0  0  0  0  0
  150.4906  139.8458  155.8032 H   0  0  0  0  0  0  0  0  0  0  0  0
  150.1305  138.0999  153.3309 H   0  0  0  0  0  0  0  0  0  0  0  0
  151.5052  139.1096  153.6906 H   0  0  0  0  0  0  0  0  0  0  0  0
  151.9818  136.7411  154.2608 H   0  0  0  0  0  0  0  0  0  0  0  0
  152.0779  137.7712  155.6610 H   0  0  0  0  0  0  0  0  0  0  0  0
  151.7695  135.9010  157.2408 H   0  0  0  0  0  0  0  0  0  0  0  0
  151.7030  134.7569  155.9075 H   0  0  0  0  0  0  0  0  0  0  0  0
  150.4170  134.7945  157.1075 H   0  0  0  0  0  0  0  0  0  0  0  0
  149.5676  136.1948  153.7351 H   0  0  0  0  0  0  0  0  0  0  0  0
  148.3320  134.9500  152.8298 H   0  0  0  0  0  0  0  0  0  0  0  0
  147.6124  132.6207  152.6762 H   0  0  0  0  0  0  0  0  0  0  0  0
  147.1944  132.6570  154.3733 H   0  0  0  0  0  0  0  0  0  0  0  0
  145.0856  133.3825  153.8236 H   0  0  0  0  0  0  0  0  0  0  0  0
  145.7685  134.8426  153.1540 H   0  0  0  0  0  0  0  0  0  0  0  0
  147.3201  132.4508  151.1807 H   0  0  0  0  0  0  0  0  0  0  0  0
  146.5474  131.7709  148.8955 H   0  0  0  0  0  0  0  0  0  0  0  0
  144.1852  132.2872  148.2151 H   0  0  0  0  0  0  0  0  0  0  0  0
  142.6950  133.4597  149.8567 H   0  0  0  0  0  0  0  0  0  0  0  0
  148.7195  136.7987  157.1090 H   0  0  0  0  0  0  0  0  0  0  0  0
  150.1062  137.8078  157.3594 H   0  0  0  0  0  0  0  0  0  0  0  0
  148.2377  139.1426  156.4917 H   0  0  0  0  0  0  0  0  0  0  0  0
  148.0836  138.1129  155.0930 H   0  0  0  0  0  0  0  0  0  0  0  0
  1  2  1  0  0  0  0
  1 21  1  0  0  0  0
  1 22  1  0  0  0  0
  1 23  1  0  0  0  0
  2 20  1  0  0  0  0
  2  3  1  0  0  0  0
  2 24  1  0  0  0  0
  3  4  1  0  0  0  0
  3 25  1  0  0  0  0
  3 26  1  0  0  0  0
  4  5  1  0  0  0  0
  4 27  1  0  0  0  0
  4 28  1  0  0  0  0
  5  6  1  0  0  0  0
  5  7  1  0  0  0  0
  5 19  1  0  0  0  0
  6 29  1  0  0  0  0
  6 30  1  0  0  0  0
  6 31  1  0  0  0  0
  7  8  1  0  0  0  0
  7 32  1  0  0  0  0
  8  9  2  0  0  0  0
  8 10  1  0  0  0  0
 10 11  1  0  0  0  0
 10 33  1  0  0  0  0
 11 12  1  0  0  0  0
 11 34  1  0  0  0  0
 11 35  1  0  0  0  0
 12 13  1  0  0  0  0
 12 36  1  0  0  0  0
 12 37  1  0  0  0  0
 13 18  1  0  0  0  0
 13 14  2  0  0  0  0
 14 15  1  0  0  0  0
 14 38  1  0  0  0  0
 15 16  2  0  0  0  0
 15 39  1  0  0  0  0
 16 17  1  0  0  0  0
 16 40  1  0  0  0  0
 17 18  2  0  0  0  0
 17 41  1  0  0  0  0
 19 20  1  0  0  0  0
 19 42  1  0  0  0  0
 19 43  1  0  0  0  0
 20 44  1  0  0  0  0
 20 45  1  0  0  0  0
M  END
> <s_m_source_file>
AV-unprocessed.smi

> <i_m_source_file_index>
1135

> <i_lp_mmshare_version>
43012

> <i_f3d_flags>
0

> <s_epik_input>
W0NIMl0xW0NIMl1bQ0BIXShbQ0gzXSlbQ0gyXVtDSDJdW0NAQF0xKFtDSDNdKVtOSF1DKD1PKVtOSF1bQ0gyXVtDSDJdYzJbY0hdW2NIXVtjSF1bY0hdbjI=

> <s_epik_cmdline>
J2VwaWtfcHl0aG9uJywgJy1waCcsICc3LjAnLCAnLXRuJywgJzgnLCAnLW1hJywgJzIwMCcsICctbWV0YWxfYmluZGluZycsICctaW1hZScsICc8aW5maWxlLm1hZT4nLCAnLW9tYWUnLCAnPG91dGZpbGUubWFlPic=

> <r_epik_Ionization_Penalty>
0.0448679

> <r_epik_Ionization_Penalty_Charging>
0

> <r_epik_Ionization_Penalty_Neutral>
0.0448679

> <r_epik_State_Penalty>
0.0379931

> <r_epik_Charging_Adjusted_Penalty>
0.0379931

> <i_epik_Tot_Q>
0

> <i_epik_Tot_abs_Q>
0

> <r_epik_Metal_State_Penalty>
0.0353093

> <b_epik_Metal_Only>
0

> <s_lp_Force_Field>
OPLS_2005

> <r_lp_Energy>
6.34065

> <b_lp_Chiralities_Consistent>
1

> <s_lp_Variant>
AV-unprocessed.smi:1135-2

> <Gold.Version>
5.8.1

> <Gold.Id.Protein>
6NUR|6NUR_protein|mol2

> <Gold.PLP.Fitness>
40.1590

> <Gold.PLP.PLP>
-32.6650

> <Gold.PLP.part.hbond>
-2.0000

> <Gold.PLP.part.metal>
0.0000

> <Gold.PLP.part.buried>
-3.6932

> <Gold.PLP.part.nonpolar>
-28.2603

> <Gold.PLP.part.repulsive>
0.1985

> <Gold.PLP.ligand.clash>
0.0000

> <Gold.PLP.ligand.torsion>
0.7697

> <Gold.PLP.Chemscore.Hbond>
2.0000

> <Gold.PLP.Chemscore.CHOScore>
1.0000

> <Gold.PLP.Chemscore.Metal>
0.0000

> <Gold.Chemscore.Hbonds>
donor molecule, donor type, donor heavy atom, donor atom, acceptor molecule, acceptor atom, score
      L1  H     7    32       P1  7948  1.00
      L1  H    10    33       P1  7948  1.00
      L1  C    17    41       P1 10186  0.84

> <Gold.PLP.Chemscore.Internal.Correction>
0.0334

> <Gold.Rescore>
     Score         DG    S(hbond)    S(metal)    S(lipo)     H(rot)  DE(clash)    DE(int)     intcor
     17.33     -17.82       1.82        0.00      84.57       1.42       0.09       0.39       ----

> <Gold.Chemscore.Fitness>
17.3337

> <Gold.Chemscore.DG>
-17.8183

> <Gold.Chemscore.ZeroCoef>
-5.4800

> <Gold.Chemscore.Hbond>
1.8210

> <Gold.Chemscore.Metal>
0.0000

> <Gold.Chemscore.Lipo>
84.5691

> <Gold.Chemscore.Internal_Hbond>
0.0000

> <Gold.Chemscore.DEClash>
0.0929

> <Gold.Chemscore.DEInternal>
0.3917

> <Gold.Chemscore.Rot>
1.4213

> <Gold.Chemscore.Internal.Correction>
   9.000000E+99

> <Gold.Chemscore.Hbonds>
donor molecule, donor type, donor heavy atom, donor atom, acceptor molecule, acceptor atom, score
      L1  H     7    32       P1  7948  0.52
      L1  H    10    33       P1  7948  0.70

> <Gold.Chemscore.Hbond.Weighted>
-6.0822

> <Gold.Chemscore.Metal.Weighted>
-0.0000

> <Gold.Chemscore.Lipo.Weighted>
-9.8946

> <Gold.Chemscore.Internal_Hbond.Weighted>
0.0000

> <Gold.Chemscore.DEClash.Weighted>
0.0929

> <Gold.Chemscore.DEInternal.Weighted>
0.3917

> <Gold.Chemscore.Rot.Weighted>
3.6385

> <Gold.Chemscore.Internal.Correction.Weighted>
   9.000000E+99

> <Gold.Protein.RotatedTorsions>
[ 6907 6896 6895 6894 ] final   32.99 input  -60.11 | X-H torsion
[ 7974 7965 7964 7962 ] final   34.83 input  175.53 | X-H torsion
[ 8008 7997 7996 7995 ] final    0.30 input   59.86 | X-H torsion
[ 10167 10162 10161 10158 ] final  122.66 input  -65.29 | X-H torsion
[ 10718 10713 10712 10709 ] final   13.15 input   66.30 | X-H torsion
[ 10763 10752 10751 10750 ] final   31.48 input  -60.55 | X-H torsion
[ 11005 11000 10999 10996 ] final  -94.13 input  -57.11 | X-H torsion

> <Gold.Protein.ActiveResidues>
 VAL166  LYS551  ARG553  GLY616  TRP617  ASP618  TYR619  PRO620  LYS621  CYS622 
 ASP623  PHE694  ASN695  SER759  ASP760  ASP761  ALA762  ILE779  LEU786  VAL792 
 PHE793  MET794  SER795  GLU796  ALA797  LYS798  CYS799  TRP800  GLU811  SER814 

> <Gold.Protein.RotatedAtoms>
  152.0822  134.9463  160.0573 H   0  0  0  0  0  0  0  0  0  0  0  0  # atno 6907 bound_to 6896
  152.0747  133.4119  159.4483 H   0  0  0  0  0  0  0  0  0  0  0  0  # atno 6908 bound_to 6896
  150.6836  134.2970  159.4734 H   0  0  0  0  0  0  0  0  0  0  0  0  # atno 6909 bound_to 6896
  146.1326  139.6220  142.9217 H   0  0  0  0  0  0  0  0  0  0  0  0  # atno 7974 bound_to 7965
  154.6665  140.2602  155.7053 H   0  0  0  0  0  0  0  0  0  0  0  0  # atno 8008 bound_to 7997
  156.2641  140.2838  156.1079 H   0  0  0  0  0  0  0  0  0  0  0  0  # atno 8009 bound_to 7997
  155.1231  140.0377  157.2745 H   0  0  0  0  0  0  0  0  0  0  0  0  # atno 8010 bound_to 7997
  139.5845  144.7000  151.3443 H   0  0  0  0  0  0  0  0  0  0  0  0  # atno 10167 bound_to 10162
  157.0205  130.6153  149.5720 H   0  0  0  0  0  0  0  0  0  0  0  0  # atno 10718 bound_to 10713
  153.0314  135.6438  154.1205 H   0  0  0  0  0  0  0  0  0  0  0  0  # atno 10763 bound_to 10752
  154.0927  135.2865  155.3270 H   0  0  0  0  0  0  0  0  0  0  0  0  # atno 10764 bound_to 10752
  154.6454  135.5445  153.7901 H   0  0  0  0  0  0  0  0  0  0  0  0  # atno 10765 bound_to 10752
  141.1479  133.7935  157.0256 H   0  0  0  0  0  0  0  0  0  0  0  0  # atno 11005 bound_to 11000
  145.5227  141.0431  143.2426 LP  0  0  0  0  0  0  0  0  0  0  0  0  # atno 17320 bound_to 7965
  144.7706  139.6744  143.7196 LP  0  0  0  0  0  0  0  0  0  0  0  0  # atno 17321 bound_to 7965
  140.7119  143.7368  150.7583 LP  0  0  0  0  0  0  0  0  0  0  0  0  # atno 17342 bound_to 10162
  140.0909  143.4878  152.2479 LP  0  0  0  0  0  0  0  0  0  0  0  0  # atno 17343 bound_to 10162
  156.0104  130.5195  150.7969 LP  0  0  0  0  0  0  0  0  0  0  0  0  # atno 17370 bound_to 10713
  157.5253  131.0934  151.0025 LP  0  0  0  0  0  0  0  0  0  0  0  0  # atno 17371 bound_to 10713
  140.0787  134.9660  157.1589 LP  0  0  0  0  0  0  0  0  0  0  0  0  # atno 17394 bound_to 11000
  140.3607  134.2497  155.7187 LP  0  0  0  0  0  0  0  0  0  0  0  0  # atno 17395 bound_to 11000

$$$$
