AV-unprocessed.smi:528|AV-procd|sdf|2838|dock3
  -GOLD-   2262023323D 1   1.00000     0.00000
 Structure written by MMmdl.
 45 47  0  0  0  0  0  0  0  0  1 V2000
  144.5846  140.7285  157.1793 C   0  0  0  0  0  0  0  0  0  0  0  0
  145.1490  140.1245  155.8818 C   0  0  1  0  0  0  0  0  0  0  0  0
  144.0493  139.6558  155.0418 N   0  0  0  0  0  0  0  0  0  0  0  0
  143.1337  138.7403  155.3932 C   0  0  0  0  0  0  0  0  0  0  0  0
  143.1056  138.2030  156.5015 O   0  0  0  0  0  0  0  0  0  0  0  0
  142.0861  138.4010  154.3232 C   0  0  0  0  0  0  0  0  0  0  0  0
  142.2861  137.0813  153.7012 N   0  0  0  0  0  0  0  0  0  0  0  0
  143.4238  136.9227  152.8857 C   0  0  0  0  0  0  0  0  0  0  0  0
  143.7297  135.7642  152.2709 C   0  0  0  0  0  0  0  0  0  0  0  0
  144.9348  135.6425  151.3513 C   0  0  0  0  0  0  0  0  0  0  0  0
  145.6647  136.7581  151.3636 F   0  0  0  0  0  0  0  0  0  0  0  0
  145.7172  134.6260  151.7156 F   0  0  0  0  0  0  0  0  0  0  0  0
  144.5293  135.4255  150.1010 F   0  0  0  0  0  0  0  0  0  0  0  0
  142.7999  134.6680  152.4608 C   0  0  0  0  0  0  0  0  0  0  0  0
  141.7007  134.8063  153.2279 C   0  0  0  0  0  0  0  0  0  0  0  0
  141.3918  136.0677  153.9053 C   0  0  0  0  0  0  0  0  0  0  0  0
  140.3920  136.2056  154.6111 O   0  0  0  0  0  0  0  0  0  0  0  0
  146.0098  141.1406  155.0948 C   0  0  1  0  0  0  0  0  0  0  0  0
  147.2290  141.6953  155.8657 C   0  0  0  0  0  0  0  0  0  0  0  0
  148.3861  141.5071  154.8668 C   0  0  1  0  0  0  0  0  0  0  0  0
  148.7527  140.0135  154.7985 C   0  0  0  0  0  0  0  0  0  0  0  0
  147.5657  139.4099  154.0261 C   0  0  0  0  0  0  0  0  0  0  0  0
  146.6586  140.6335  153.7814 C   0  0  2  0  0  0  0  0  0  0  0  0
  147.6955  141.7226  153.5251 C   0  0  0  0  0  0  0  0  0  0  0  0
  145.3827  141.0654  157.8407 H   0  0  0  0  0  0  0  0  0  0  0  0
  143.9953  139.9959  157.7313 H   0  0  0  0  0  0  0  0  0  0  0  0
  143.9412  141.5845  156.9727 H   0  0  0  0  0  0  0  0  0  0  0  0
  145.7766  139.2757  156.1567 H   0  0  0  0  0  0  0  0  0  0  0  0
  143.9914  140.0473  154.1128 H   0  0  0  0  0  0  0  0  0  0  0  0
  141.0989  138.4611  154.7838 H   0  0  0  0  0  0  0  0  0  0  0  0
  142.0901  139.1786  153.5570 H   0  0  0  0  0  0  0  0  0  0  0  0
  144.0310  137.8106  152.7840 H   0  0  0  0  0  0  0  0  0  0  0  0
  142.9889  133.7181  151.9829 H   0  0  0  0  0  0  0  0  0  0  0  0
  141.0307  133.9676  153.3485 H   0  0  0  0  0  0  0  0  0  0  0  0
  145.3672  141.9827  154.8304 H   0  0  0  0  0  0  0  0  0  0  0  0
  147.0829  142.7498  156.1030 H   0  0  0  0  0  0  0  0  0  0  0  0
  147.4184  141.1699  156.8027 H   0  0  0  0  0  0  0  0  0  0  0  0
  149.2395  142.1582  155.0581 H   0  0  0  0  0  0  0  0  0  0  0  0
  149.6828  139.8649  154.2484 H   0  0  0  0  0  0  0  0  0  0  0  0
  148.8744  139.5708  155.7877 H   0  0  0  0  0  0  0  0  0  0  0  0
  147.9066  138.9945  153.0769 H   0  0  0  0  0  0  0  0  0  0  0  0
  147.0718  138.6052  154.5695 H   0  0  0  0  0  0  0  0  0  0  0  0
  145.9462  140.4905  152.9682 H   0  0  0  0  0  0  0  0  0  0  0  0
  147.2634  142.7189  153.4154 H   0  0  0  0  0  0  0  0  0  0  0  0
  148.3395  141.5159  152.6685 H   0  0  0  0  0  0  0  0  0  0  0  0
  1  2  1  0  0  0  0
  1 25  1  0  0  0  0
  1 26  1  0  0  0  0
  1 27  1  0  0  0  0
  2  3  1  0  0  0  0
  2 18  1  0  0  0  0
  2 28  1  0  0  0  0
  3  4  1  0  0  0  0
  3 29  1  0  0  0  0
  4  5  2  0  0  0  0
  4  6  1  0  0  0  0
  6  7  1  0  0  0  0
  6 30  1  0  0  0  0
  6 31  1  0  0  0  0
  7 16  1  0  0  0  0
  7  8  1  0  0  0  0
  8  9  2  0  0  0  0
  8 32  1  0  0  0  0
  9 10  1  0  0  0  0
  9 14  1  0  0  0  0
 10 11  1  0  0  0  0
 10 12  1  0  0  0  0
 10 13  1  0  0  0  0
 14 15  2  0  0  0  0
 14 33  1  0  0  0  0
 15 16  1  0  0  0  0
 15 34  1  0  0  0  0
 16 17  2  0  0  0  0
 18 23  1  0  0  0  0
 18 19  1  0  0  0  0
 18 35  1  0  0  0  0
 19 20  1  0  0  0  0
 19 36  1  0  0  0  0
 19 37  1  0  0  0  0
 20 24  1  0  0  0  0
 20 21  1  0  0  0  0
 20 38  1  0  0  0  0
 21 22  1  0  0  0  0
 21 39  1  0  0  0  0
 21 40  1  0  0  0  0
 22 23  1  0  0  0  0
 22 41  1  0  0  0  0
 22 42  1  0  0  0  0
 23 24  1  0  0  0  0
 23 43  1  0  0  0  0
 24 44  1  0  0  0  0
 24 45  1  0  0  0  0
M  END
> <s_m_source_file>
AV-unprocessed.smi

> <i_m_source_file_index>
528

> <i_lp_mmshare_version>
43012

> <i_f3d_flags>
0

> <s_epik_input>
W0NIMl0xW0NIMl1bQ0BASF0oW0NIMl0yKVtDQEBIXShbQ0gyXVtDQEhdMTIpW0NASF0oW0NIM10pW05IXUMoPU8pW0NIMl1uM1tjSF1jKEMoRikoRilGKVtjSF1bY0hdYzM9Tw==

> <s_epik_cmdline>
J2VwaWtfcHl0aG9uJywgJy1waCcsICc3LjAnLCAnLXRuJywgJzgnLCAnLW1hJywgJzIwMCcsICctbWV0YWxfYmluZGluZycsICctaW1hZScsICc8aW5maWxlLm1hZT4nLCAnLW9tYWUnLCAnPG91dGZpbGUubWFlPic=

> <r_lp_tautomer_probability>
1

> <r_epik_Ionization_Penalty>
4.09479e-08

> <r_epik_Ionization_Penalty_Charging>
1.9321e-08

> <r_epik_Ionization_Penalty_Neutral>
2.16269e-08

> <r_epik_State_Penalty>
-0

> <r_epik_Charging_Adjusted_Penalty>
1.9321e-08

> <i_epik_Tot_Q>
0

> <i_epik_Tot_abs_Q>
0

> <r_epik_Metal_State_Penalty>
-0

> <b_epik_Metal_Only>
0

> <s_lp_Force_Field>
OPLS_2005

> <r_lp_Energy>
62.533

> <b_lp_Chiralities_Consistent>
1

> <s_lp_Variant>
AV-unprocessed.smi:528-8

> <Gold.Version>
5.8.1

> <Gold.Id.Protein>
6NUR|6NUR_protein|mol2

> <Gold.PLP.Fitness>
42.0442

> <Gold.PLP.PLP>
-36.2336

> <Gold.PLP.part.hbond>
-2.0000

> <Gold.PLP.part.metal>
0.0000

> <Gold.PLP.part.buried>
-2.4405

> <Gold.PLP.part.nonpolar>
-31.9404

> <Gold.PLP.part.repulsive>
0.0731

> <Gold.PLP.ligand.clash>
1.3025

> <Gold.PLP.ligand.torsion>
0.2965

> <Gold.PLP.Chemscore.Hbond>
1.9516

> <Gold.PLP.Chemscore.CHOScore>
0.5961

> <Gold.PLP.Chemscore.Metal>
0.0000

> <Gold.Chemscore.Hbonds>
donor molecule, donor type, donor heavy atom, donor atom, acceptor molecule, acceptor atom, score
      L1  H     3    29       P1 10175  1.00
      P1  H 11000 11005       L1    17  0.90
      L1  C     8    32       P1 10175  0.64

> <Gold.PLP.Chemscore.Internal.Correction>
0.0630

> <Gold.Rescore>
     Score         DG    S(hbond)    S(metal)    S(lipo)     H(rot)  DE(clash)    DE(int)     intcor
     14.27     -14.57       1.85        0.00      62.24       1.71       0.02       0.28       ----

> <Gold.Chemscore.Fitness>
14.2696

> <Gold.Chemscore.DG>
-14.5713

> <Gold.Chemscore.ZeroCoef>
-5.4800

> <Gold.Chemscore.Hbond>
1.8543

> <Gold.Chemscore.Metal>
0.0000

> <Gold.Chemscore.Lipo>
62.2394

> <Gold.Chemscore.Internal_Hbond>
0.0000

> <Gold.Chemscore.DEClash>
0.0249

> <Gold.Chemscore.DEInternal>
0.2768

> <Gold.Chemscore.Rot>
1.7125

> <Gold.Chemscore.Internal.Correction>
   9.000000E+99

> <Gold.Chemscore.Hbonds>
donor molecule, donor type, donor heavy atom, donor atom, acceptor molecule, acceptor atom, score
      L1  H     3    29       P1 10175  1.00
      P1  H 11000 11005       L1    17  0.73

> <Gold.Chemscore.Hbond.Weighted>
-6.1932

> <Gold.Chemscore.Metal.Weighted>
-0.0000

> <Gold.Chemscore.Lipo.Weighted>
-7.2820

> <Gold.Chemscore.Internal_Hbond.Weighted>
0.0000

> <Gold.Chemscore.DEClash.Weighted>
0.0249

> <Gold.Chemscore.DEInternal.Weighted>
0.2768

> <Gold.Chemscore.Rot.Weighted>
4.3840

> <Gold.Chemscore.Internal.Correction.Weighted>
   9.000000E+99

> <Gold.Protein.RotatedTorsions>
[ 6907 6896 6895 6894 ] final  -87.29 input  -60.11 | X-H torsion
[ 7974 7965 7964 7962 ] final -170.18 input  175.53 | X-H torsion
[ 8008 7997 7996 7995 ] final -145.26 input   59.86 | X-H torsion
[ 10167 10162 10161 10158 ] final -109.10 input  -65.29 | X-H torsion
[ 10718 10713 10712 10709 ] final  126.44 input   66.30 | X-H torsion
[ 10763 10752 10751 10750 ] final  175.27 input  -60.55 | X-H torsion
[ 11005 11000 10999 10996 ] final   56.97 input  -57.11 | X-H torsion

> <Gold.Protein.ActiveResidues>
 VAL166  LYS551  ARG553  GLY616  TRP617  ASP618  TYR619  PRO620  LYS621  CYS622 
 ASP623  PHE694  ASN695  SER759  ASP760  ASP761  ALA762  ILE779  LEU786  VAL792 
 PHE793  MET794  SER795  GLU796  ALA797  LYS798  CYS799  TRP800  GLU811  SER814 

> <Gold.Protein.RotatedAtoms>
  150.6866  134.2920  159.4670 H   0  0  0  0  0  0  0  0  0  0  0  0  # atno 6907 bound_to 6896
  152.0824  134.9460  160.0582 H   0  0  0  0  0  0  0  0  0  0  0  0  # atno 6908 bound_to 6896
  152.0807  133.4117  159.4537 H   0  0  0  0  0  0  0  0  0  0  0  0  # atno 6909 bound_to 6896
  144.7174  140.2111  143.6327 H   0  0  0  0  0  0  0  0  0  0  0  0  # atno 7974 bound_to 7965
  155.5403  140.0607  157.2871 H   0  0  0  0  0  0  0  0  0  0  0  0  # atno 8008 bound_to 7997
  154.4454  140.1920  156.0628 H   0  0  0  0  0  0  0  0  0  0  0  0  # atno 8009 bound_to 7997
  156.0589  140.3275  155.7442 H   0  0  0  0  0  0  0  0  0  0  0  0  # atno 8010 bound_to 7997
  140.1590  143.4136  152.1439 H   0  0  0  0  0  0  0  0  0  0  0  0  # atno 10167 bound_to 10162
  157.5419  131.1096  150.8845 H   0  0  0  0  0  0  0  0  0  0  0  0  # atno 10718 bound_to 10713
  154.4653  135.2769  155.1683 H   0  0  0  0  0  0  0  0  0  0  0  0  # atno 10763 bound_to 10752
  154.3454  135.6161  153.5620 H   0  0  0  0  0  0  0  0  0  0  0  0  # atno 10764 bound_to 10752
  152.9859  135.5798  154.5023 H   0  0  0  0  0  0  0  0  0  0  0  0  # atno 10765 bound_to 10752
  140.0488  134.5767  155.9289 H   0  0  0  0  0  0  0  0  0  0  0  0  # atno 11005 bound_to 11000
  145.8590  139.2213  143.1728 LP  0  0  0  0  0  0  0  0  0  0  0  0  # atno 17320 bound_to 7965
  146.0191  140.8365  142.9932 LP  0  0  0  0  0  0  0  0  0  0  0  0  # atno 17321 bound_to 7965
  139.5390  144.7238  151.4797 LP  0  0  0  0  0  0  0  0  0  0  0  0  # atno 17342 bound_to 10162
  140.6655  143.8407  150.6937 LP  0  0  0  0  0  0  0  0  0  0  0  0  # atno 17343 bound_to 10162
  156.9396  130.5379  149.5280 LP  0  0  0  0  0  0  0  0  0  0  0  0  # atno 17370 bound_to 10713
  156.0503  130.5574  150.8975 LP  0  0  0  0  0  0  0  0  0  0  0  0  # atno 17371 bound_to 10713
  141.1920  133.6573  156.5482 LP  0  0  0  0  0  0  0  0  0  0  0  0  # atno 17394 bound_to 11000
  140.3951  134.7406  157.4745 LP  0  0  0  0  0  0  0  0  0  0  0  0  # atno 17395 bound_to 11000

$$$$
