AV-unprocessed.smi:835|AV-procd|sdf|3888|dock4
  -GOLD-   22720 1343D 1   1.00000     0.00000
 Structure written by MMmdl.
 41 43  0  0  0  0  0  0  0  0  2 V2000
  154.1845  141.7521  160.5238 C   0  0  0  0  0  0  0  0  0  0  0  0
  153.1770  142.4059  159.6247 C   0  0  0  0  0  0  0  0  0  0  0  0
  152.4137  141.8069  158.5805 C   0  0  0  0  0  0  0  0  0  0  0  0
  151.6741  142.8565  158.1082 C   0  0  0  0  0  0  0  0  0  0  0  0
  150.7607  142.8749  157.1010 N   0  0  0  0  0  0  0  0  0  0  0  0
  150.5303  141.9433  156.1594 C   0  0  0  0  0  0  0  0  0  0  0  0
  151.1348  140.8771  156.0438 O   0  0  0  0  0  0  0  0  0  0  0  0
  149.5406  142.3181  155.3366 N   0  0  0  0  0  0  0  0  0  0  0  0
  149.0536  141.5244  154.2132 C   0  0  2  0  0  0  0  0  0  0  0  0
  147.6372  141.8805  153.7534 C   0  0  0  0  0  0  0  0  0  0  0  0
  147.0705  140.5644  153.1936 C   0  0  0  0  0  0  0  0  0  0  0  0
  148.0489  139.5016  153.5228 N   0  3  2  0  0  0  0  0  0  0  0  0
  147.4420  138.1966  153.8592 C   0  0  0  0  0  0  0  0  0  0  0  0
  146.2939  137.8143  152.9560 C   0  0  0  0  0  0  0  0  0  0  0  0
  146.0223  138.3032  154.3624 C   0  0  0  0  0  0  0  0  0  0  0  0
  148.9262  140.0477  154.5727 C   0  0  0  0  0  0  0  0  0  0  0  0
  151.9897  143.9847  158.8324 N   0  0  0  0  0  0  0  0  0  0  0  0
  151.4749  145.3342  158.7063 C   0  0  0  0  0  0  0  0  0  0  0  0
  152.9211  143.7013  159.7684 N   0  0  0  0  0  0  0  0  0  0  0  0
  154.1828  140.6694  160.3955 H   0  0  0  0  0  0  0  0  0  0  0  0
  153.9717  141.9609  161.5726 H   0  0  0  0  0  0  0  0  0  0  0  0
  155.1915  142.1102  160.3090 H   0  0  0  0  0  0  0  0  0  0  0  0
  152.4242  140.7789  158.2515 H   0  0  0  0  0  0  0  0  0  0  0  0
  150.1813  143.7004  157.0633 H   0  0  0  0  0  0  0  0  0  0  0  0
  149.0948  143.2093  155.4995 H   0  0  0  0  0  0  0  0  0  0  0  0
  149.7418  141.6193  153.3704 H   0  0  0  0  0  0  0  0  0  0  0  0
  147.0317  142.2064  154.6005 H   0  0  0  0  0  0  0  0  0  0  0  0
  147.6331  142.6839  153.0159 H   0  0  0  0  0  0  0  0  0  0  0  0
  146.0957  140.3571  153.6378 H   0  0  0  0  0  0  0  0  0  0  0  0
  146.9387  140.6108  152.1123 H   0  0  0  0  0  0  0  0  0  0  0  0
  148.1126  137.4353  154.2547 H   0  0  0  0  0  0  0  0  0  0  0  0
  146.0398  138.4814  152.1340 H   0  0  0  0  0  0  0  0  0  0  0  0
  146.1413  136.7551  152.7588 H   0  0  0  0  0  0  0  0  0  0  0  0
  145.6908  137.5653  155.0905 H   0  0  0  0  0  0  0  0  0  0  0  0
  145.5885  139.2951  154.4756 H   0  0  0  0  0  0  0  0  0  0  0  0
  149.8890  139.5364  154.5970 H   0  0  0  0  0  0  0  0  0  0  0  0
  148.4510  139.9297  155.5486 H   0  0  0  0  0  0  0  0  0  0  0  0
  151.7936  145.7593  157.7546 H   0  0  0  0  0  0  0  0  0  0  0  0
  151.8437  145.9634  159.5174 H   0  0  0  0  0  0  0  0  0  0  0  0
  150.3856  145.3166  158.7426 H   0  0  0  0  0  0  0  0  0  0  0  0
  148.6249  139.3750  152.7027 H   0  0  0  0  0  0  0  0  0  0  0  0
  1  2  1  0  0  0  0
  1 20  1  0  0  0  0
  1 21  1  0  0  0  0
  1 22  1  0  0  0  0
  2 19  2  0  0  0  0
  2  3  1  0  0  0  0
  3  4  2  0  0  0  0
  3 23  1  0  0  0  0
  4  5  1  0  0  0  0
  4 17  1  0  0  0  0
  5  6  1  0  0  0  0
  5 24  1  0  0  0  0
  6  7  2  0  0  0  0
  6  8  1  0  0  0  0
  8  9  1  0  0  0  0
  8 25  1  0  0  0  0
  9 16  1  0  0  0  0
  9 10  1  0  0  0  0
  9 26  1  0  0  0  0
 10 11  1  0  0  0  0
 10 27  1  0  0  0  0
 10 28  1  0  0  0  0
 11 12  1  0  0  0  0
 11 29  1  0  0  0  0
 11 30  1  0  0  0  0
 12 13  1  0  0  0  0
 12 16  1  0  0  0  0
 12 41  1  0  0  0  0
 13 15  1  0  0  0  0
 13 14  1  0  0  0  0
 13 31  1  0  0  0  0
 14 15  1  0  0  0  0
 14 32  1  0  0  0  0
 14 33  1  0  0  0  0
 15 34  1  0  0  0  0
 15 35  1  0  0  0  0
 16 36  1  0  0  0  0
 16 37  1  0  0  0  0
 17 18  1  0  0  0  0
 17 19  1  0  0  0  0
 18 38  1  0  0  0  0
 18 39  1  0  0  0  0
 18 40  1  0  0  0  0
M  CHG  1  12   1
M  END
> <s_m_source_file>
AV-unprocessed.smi

> <i_m_source_file_index>
835

> <i_lp_mmshare_version>
43012

> <i_f3d_flags>
0

> <s_epik_input>
W0NIM11jMVtjSF1jKG4objEpW0NIM10pW05IXUMoPU8pW05IXVtDQEBIXTJbQ0gyXVtDSDJdTihbQ0gyXTIpW0NIXTNbQ0gyXVtDSDJdMw==

> <s_epik_cmdline>
J2VwaWtfcHl0aG9uJywgJy1waCcsICc3LjAnLCAnLXRuJywgJzgnLCAnLW1hJywgJzIwMCcsICctbWV0YWxfYmluZGluZycsICctaW1hZScsICc8aW5maWxlLm1hZT4nLCAnLW9tYWUnLCAnPG91dGZpbGUubWFlPic=

> <r_lp_tautomer_probability>
1

> <r_epik_Ionization_Penalty>
0.000700689

> <r_epik_Ionization_Penalty_Charging>
0.000627528

> <r_epik_Ionization_Penalty_Neutral>
7.31611e-05

> <r_epik_State_Penalty>
0.00039643

> <r_epik_Charging_Adjusted_Penalty>
0.00102396

> <i_epik_Tot_Q>
1

> <i_epik_Tot_abs_Q>
1

> <r_epik_Metal_State_Penalty>
-0

> <b_epik_Metal_Only>
0

> <s_lp_Force_Field>
OPLS_2005

> <r_lp_Energy>
38.0167

> <b_lp_Chiralities_Consistent>
1

> <s_lp_Variant>
AV-unprocessed.smi:835-3

> <Gold.Version>
5.8.1

> <Gold.Id.Protein>
6NUR|6NUR_protein|mol2

> <Gold.PLP.Fitness>
46.8410

> <Gold.PLP.PLP>
-39.8214

> <Gold.PLP.part.hbond>
-2.9265

> <Gold.PLP.part.metal>
0.0000

> <Gold.PLP.part.buried>
-4.1363

> <Gold.PLP.part.nonpolar>
-32.2823

> <Gold.PLP.part.repulsive>
0.2865

> <Gold.PLP.ligand.clash>
0.0000

> <Gold.PLP.ligand.torsion>
0.9607

> <Gold.PLP.Chemscore.Hbond>
2.5590

> <Gold.PLP.Chemscore.CHOScore>
0.0000

> <Gold.PLP.Chemscore.Metal>
0.0000

> <Gold.Chemscore.Hbonds>
donor molecule, donor type, donor heavy atom, donor atom, acceptor molecule, acceptor atom, score
      L1  H     5    24       P1  8028  0.56
      L1  H     8    25       P1  8028  0.99
      L1  H    12    41       P1  7957  1.00

> <Gold.PLP.Chemscore.Internal.Correction>
1.2641

> <Gold.Rescore>
     Score         DG    S(hbond)    S(metal)    S(lipo)     H(rot)  DE(clash)    DE(int)     intcor
     17.29     -21.12       2.76        0.00      81.75       1.22       0.30       3.53       ----

> <Gold.Chemscore.Fitness>
17.2941

> <Gold.Chemscore.DG>
-21.1245

> <Gold.Chemscore.ZeroCoef>
-5.4800

> <Gold.Chemscore.Hbond>
2.7552

> <Gold.Chemscore.Metal>
0.0000

> <Gold.Chemscore.Lipo>
81.7474

> <Gold.Chemscore.Internal_Hbond>
0.0000

> <Gold.Chemscore.DEClash>
0.2961

> <Gold.Chemscore.DEInternal>
3.5342

> <Gold.Chemscore.Rot>
1.2196

> <Gold.Chemscore.Internal.Correction>
   9.000000E+99

> <Gold.Chemscore.Hbonds>
donor molecule, donor type, donor heavy atom, donor atom, acceptor molecule, acceptor atom, score
      L1  H     5    24       P1  8028  0.54
      L1  H     8    25       P1  8028  0.92
      L1  H    12    41       P1  7957  0.96

> <Gold.Chemscore.Hbond.Weighted>
-9.2023

> <Gold.Chemscore.Metal.Weighted>
-0.0000

> <Gold.Chemscore.Lipo.Weighted>
-9.5644

> <Gold.Chemscore.Internal_Hbond.Weighted>
0.0000

> <Gold.Chemscore.DEClash.Weighted>
0.2961

> <Gold.Chemscore.DEInternal.Weighted>
3.5342

> <Gold.Chemscore.Rot.Weighted>
3.1223

> <Gold.Chemscore.Internal.Correction.Weighted>
   9.000000E+99

> <Gold.Protein.RotatedTorsions>
[ 6907 6896 6895 6894 ] final  124.52 input  -60.11 | X-H torsion
[ 7974 7965 7964 7962 ] final   -5.77 input  175.53 | X-H torsion
[ 8008 7997 7996 7995 ] final  139.80 input   59.86 | X-H torsion
[ 10167 10162 10161 10158 ] final   14.81 input  -65.29 | X-H torsion
[ 10718 10713 10712 10709 ] final  -39.62 input   66.30 | X-H torsion
[ 10763 10752 10751 10750 ] final  -53.06 input  -60.55 | X-H torsion
[ 11005 11000 10999 10996 ] final  -92.16 input  -57.11 | X-H torsion

> <Gold.Protein.ActiveResidues>
 VAL166  LYS551  ARG553  GLY616  TRP617  ASP618  TYR619  PRO620  LYS621  CYS622 
 ASP623  PHE694  ASN695  SER759  ASP760  ASP761  ALA762  ILE779  LEU786  VAL792 
 PHE793  MET794  SER795  GLU796  ALA797  LYS798  CYS799  TRP800  GLU811  SER814 

> <Gold.Protein.RotatedAtoms>
  152.4071  133.6906  159.6365 H   0  0  0  0  0  0  0  0  0  0  0  0  # atno 6907 bound_to 6896
  150.7955  133.8690  159.3262 H   0  0  0  0  0  0  0  0  0  0  0  0  # atno 6908 bound_to 6896
  151.6441  135.1011  160.0199 H   0  0  0  0  0  0  0  0  0  0  0  0  # atno 6909 bound_to 6896
  146.2346  140.2070  142.8334 H   0  0  0  0  0  0  0  0  0  0  0  0  # atno 7974 bound_to 7965
  156.2986  140.2358  156.4296 H   0  0  0  0  0  0  0  0  0  0  0  0  # atno 8008 bound_to 7997
  154.8282  140.0434  157.1479 H   0  0  0  0  0  0  0  0  0  0  0  0  # atno 8009 bound_to 7997
  154.9238  140.3007  155.5206 H   0  0  0  0  0  0  0  0  0  0  0  0  # atno 8010 bound_to 7997
  140.5910  143.8795  150.6873 H   0  0  0  0  0  0  0  0  0  0  0  0  # atno 10167 bound_to 10162
  156.2904  130.4227  149.8244 H   0  0  0  0  0  0  0  0  0  0  0  0  # atno 10718 bound_to 10713
  154.1528  135.6487  153.4967 H   0  0  0  0  0  0  0  0  0  0  0  0  # atno 10763 bound_to 10752
  153.0133  135.5342  154.6790 H   0  0  0  0  0  0  0  0  0  0  0  0  # atno 10764 bound_to 10752
  154.6083  135.2951  155.0432 H   0  0  0  0  0  0  0  0  0  0  0  0  # atno 10765 bound_to 10752
  141.1528  133.7803  156.9981 H   0  0  0  0  0  0  0  0  0  0  0  0  # atno 11005 bound_to 11000
  144.9736  140.8393  143.5440 LP  0  0  0  0  0  0  0  0  0  0  0  0  # atno 17320 bound_to 7965
  145.2055  139.2230  143.5170 LP  0  0  0  0  0  0  0  0  0  0  0  0  # atno 17321 bound_to 7965
  140.2318  143.3730  152.1559 LP  0  0  0  0  0  0  0  0  0  0  0  0  # atno 17342 bound_to 10162
  139.5227  144.7063  151.5345 LP  0  0  0  0  0  0  0  0  0  0  0  0  # atno 17343 bound_to 10162
  156.5659  130.8403  151.3342 LP  0  0  0  0  0  0  0  0  0  0  0  0  # atno 17370 bound_to 10713
  157.7341  130.9740  150.2010 LP  0  0  0  0  0  0  0  0  0  0  0  0  # atno 17371 bound_to 10713
  140.0958  134.9565  157.1847 LP  0  0  0  0  0  0  0  0  0  0  0  0  # atno 17394 bound_to 11000
  140.3384  134.2731  155.7216 LP  0  0  0  0  0  0  0  0  0  0  0  0  # atno 17395 bound_to 11000

$$$$
