AV-unprocessed.smi:1856|AV-procd|sdf|7533|dock2
  -GOLD-   22720 9243D 1   1.00000     0.00000
 Structure written by MMmdl.
 44 45  0  0  0  0  0  0  0  0  1 V2000
  149.5922  134.1922  154.2876 C   0  0  0  0  0  0  0  0  0  0  0  0
  150.3238  134.2120  155.6393 C   0  0  0  0  0  0  0  0  0  0  0  0
  150.3556  135.5977  156.3136 C   0  0  0  0  0  0  0  0  0  0  0  0
  151.0252  136.6673  155.4472 C   0  0  0  0  0  0  0  0  0  0  0  0
  151.3948  136.3949  154.3051 O   0  0  0  0  0  0  0  0  0  0  0  0
  151.1510  137.8863  155.9947 N   0  0  0  0  0  0  0  0  0  0  0  0
  151.6294  139.0765  155.2966 C   0  0  2  0  0  0  0  0  0  0  0  0
  152.9817  138.7936  154.6265 C   0  0  0  0  0  0  0  0  0  0  0  0
  151.7084  140.1990  156.3031 C   0  0  0  0  0  0  0  0  0  0  0  0
  152.5406  140.1366  157.3470 N   0  0  0  0  0  0  0  0  0  0  0  0
  152.2846  141.3136  158.0190 C   0  0  0  0  0  0  0  0  0  0  0  0
  152.8505  141.8358  159.2040 C   0  0  0  0  0  0  0  0  0  0  0  0
  152.4212  143.0795  159.7116 C   0  0  0  0  0  0  0  0  0  0  0  0
  151.4224  143.8163  159.0430 C   0  0  0  0  0  0  0  0  0  0  0  0
  150.8457  143.3127  157.8612 C   0  0  0  0  0  0  0  0  0  0  0  0
  151.2776  142.0704  157.3587 C   0  0  0  0  0  0  0  0  0  0  0  0
  150.9199  141.3069  156.2514 N   0  0  0  0  0  0  0  0  0  0  0  0
  149.8965  141.6717  155.2787 C   0  0  0  0  0  0  0  0  0  0  0  0
  148.4681  141.4171  155.7951 C   0  0  2  0  0  0  0  0  0  0  0  0
  147.4104  141.6837  154.7172 C   0  0  0  0  0  0  0  0  0  0  0  0
  148.1899  142.2410  156.9090 O   0  0  0  0  0  0  0  0  0  0  0  0
  149.5485  133.1794  153.8869 H   0  0  0  0  0  0  0  0  0  0  0  0
  150.0952  134.8152  153.5469 H   0  0  0  0  0  0  0  0  0  0  0  0
  148.5687  134.5536  154.3889 H   0  0  0  0  0  0  0  0  0  0  0  0
  149.8344  133.5079  156.3127 H   0  0  0  0  0  0  0  0  0  0  0  0
  151.3402  133.8384  155.5068 H   0  0  0  0  0  0  0  0  0  0  0  0
  149.3408  135.9048  156.5713 H   0  0  0  0  0  0  0  0  0  0  0  0
  150.9047  135.5328  157.2534 H   0  0  0  0  0  0  0  0  0  0  0  0
  150.8189  138.0181  156.9389 H   0  0  0  0  0  0  0  0  0  0  0  0
  150.9308  139.3203  154.4987 H   0  0  0  0  0  0  0  0  0  0  0  0
  153.3520  139.6771  154.1059 H   0  0  0  0  0  0  0  0  0  0  0  0
  152.8941  137.9912  153.8933 H   0  0  0  0  0  0  0  0  0  0  0  0
  153.7371  138.4966  155.3547 H   0  0  0  0  0  0  0  0  0  0  0  0
  153.6157  141.2781  159.7232 H   0  0  0  0  0  0  0  0  0  0  0  0
  152.8596  143.4695  160.6185 H   0  0  0  0  0  0  0  0  0  0  0  0
  151.0982  144.7677  159.4387 H   0  0  0  0  0  0  0  0  0  0  0  0
  150.0800  143.8747  157.3477 H   0  0  0  0  0  0  0  0  0  0  0  0
  150.0259  142.7061  154.9652 H   0  0  0  0  0  0  0  0  0  0  0  0
  150.0661  141.0797  154.3787 H   0  0  0  0  0  0  0  0  0  0  0  0
  148.3848  140.3797  156.1211 H   0  0  0  0  0  0  0  0  0  0  0  0
  147.5676  141.0426  153.8496 H   0  0  0  0  0  0  0  0  0  0  0  0
  147.4438  142.7192  154.3758 H   0  0  0  0  0  0  0  0  0  0  0  0
  146.4056  141.4880  155.0930 H   0  0  0  0  0  0  0  0  0  0  0  0
  148.3389  143.1406  156.6611 H   0  0  0  0  0  0  0  0  0  0  0  0
  1  2  1  0  0  0  0
  1 22  1  0  0  0  0
  1 23  1  0  0  0  0
  1 24  1  0  0  0  0
  2  3  1  0  0  0  0
  2 25  1  0  0  0  0
  2 26  1  0  0  0  0
  3  4  1  0  0  0  0
  3 27  1  0  0  0  0
  3 28  1  0  0  0  0
  4  5  2  0  0  0  0
  4  6  1  0  0  0  0
  6  7  1  0  0  0  0
  6 29  1  0  0  0  0
  7  8  1  0  0  0  0
  7  9  1  0  0  0  0
  7 30  1  0  0  0  0
  8 31  1  0  0  0  0
  8 32  1  0  0  0  0
  8 33  1  0  0  0  0
  9 17  1  0  0  0  0
  9 10  2  0  0  0  0
 10 11  1  0  0  0  0
 11 16  2  0  0  0  0
 11 12  1  0  0  0  0
 12 13  2  0  0  0  0
 12 34  1  0  0  0  0
 13 14  1  0  0  0  0
 13 35  1  0  0  0  0
 14 15  2  0  0  0  0
 14 36  1  0  0  0  0
 15 16  1  0  0  0  0
 15 37  1  0  0  0  0
 16 17  1  0  0  0  0
 17 18  1  0  0  0  0
 18 19  1  0  0  0  0
 18 38  1  0  0  0  0
 18 39  1  0  0  0  0
 19 20  1  0  0  0  0
 19 21  1  0  0  0  0
 19 40  1  0  0  0  0
 20 41  1  0  0  0  0
 20 42  1  0  0  0  0
 20 43  1  0  0  0  0
 21 44  1  0  0  0  0
M  END
> <s_m_source_file>
AV-unprocessed.smi

> <i_m_source_file_index>
1856

> <i_lp_mmshare_version>
43012

> <i_f3d_flags>
0

> <s_epik_input>
W0NIM11bQ0gyXVtDSDJdQyg9TylbTkhdW0NASF0oW0NIM10pYyhuMSluKFtDSDJdW0NASF0oW0NIM10pW09IXSljKGMxMilbY0hdW2NIXVtjSF1bY0hdMg==

> <s_epik_cmdline>
J2VwaWtfcHl0aG9uJywgJy1waCcsICc3LjAnLCAnLXRuJywgJzgnLCAnLW1hJywgJzIwMCcsICctbWV0YWxfYmluZGluZycsICctaW1hZScsICc8aW5maWxlLm1hZT4nLCAnLW9tYWUnLCAnPG91dGZpbGUubWFlPic=

> <r_epik_Ionization_Penalty>
0.134222

> <r_epik_Ionization_Penalty_Charging>
0

> <r_epik_Ionization_Penalty_Neutral>
0.134222

> <r_epik_State_Penalty>
0.123585

> <r_epik_Charging_Adjusted_Penalty>
0.123585

> <i_epik_Tot_Q>
0

> <i_epik_Tot_abs_Q>
0

> <r_epik_Metal_State_Penalty>
0.100548

> <b_epik_Metal_Only>
0

> <s_lp_Force_Field>
OPLS_2005

> <r_lp_Energy>
0.748352

> <b_lp_Chiralities_Consistent>
1

> <s_lp_Variant>
AV-unprocessed.smi:1856-1

> <Gold.Version>
5.8.1

> <Gold.Id.Protein>
6NUR|6NUR_protein|mol2

> <Gold.PLP.Fitness>
50.9947

> <Gold.PLP.PLP>
-42.5540

> <Gold.PLP.part.hbond>
-3.0000

> <Gold.PLP.part.metal>
0.0000

> <Gold.PLP.part.buried>
-4.5962

> <Gold.PLP.part.nonpolar>
-36.2789

> <Gold.PLP.part.repulsive>
1.4261

> <Gold.PLP.ligand.clash>
0.0000

> <Gold.PLP.ligand.torsion>
0.3427

> <Gold.PLP.Chemscore.Hbond>
3.0000

> <Gold.PLP.Chemscore.CHOScore>
0.0000

> <Gold.PLP.Chemscore.Metal>
0.0000

> <Gold.Chemscore.Hbonds>
donor molecule, donor type, donor heavy atom, donor atom, acceptor molecule, acceptor atom, score
      L1  H    21    44       P1  8028  1.00
      P1  H  7997  8010       L1    10  1.00
      P1  H 10752 10763       L1     5  1.00

> <Gold.PLP.Chemscore.Internal.Correction>
0.1260

> <Gold.Rescore>
     Score         DG    S(hbond)    S(metal)    S(lipo)     H(rot)  DE(clash)    DE(int)     intcor
     16.40     -19.43       2.27        0.00     107.94       2.45       0.31       2.71       ----

> <Gold.Chemscore.Fitness>
16.4016

> <Gold.Chemscore.DG>
-19.4281

> <Gold.Chemscore.ZeroCoef>
-5.4800

> <Gold.Chemscore.Hbond>
2.2696

> <Gold.Chemscore.Metal>
0.0000

> <Gold.Chemscore.Lipo>
107.9422

> <Gold.Chemscore.Internal_Hbond>
0.0000

> <Gold.Chemscore.DEClash>
0.3148

> <Gold.Chemscore.DEInternal>
2.7117

> <Gold.Chemscore.Rot>
2.4459

> <Gold.Chemscore.Internal.Correction>
   9.000000E+99

> <Gold.Chemscore.Hbonds>
donor molecule, donor type, donor heavy atom, donor atom, acceptor molecule, acceptor atom, score
      L1  H    21    44       P1  8028  0.44
      P1  H  7997  8010       L1    10  0.56
      P1  H 10752 10763       L1     5  0.93

> <Gold.Chemscore.Hbond.Weighted>
-7.5803

> <Gold.Chemscore.Metal.Weighted>
-0.0000

> <Gold.Chemscore.Lipo.Weighted>
-12.6292

> <Gold.Chemscore.Internal_Hbond.Weighted>
0.0000

> <Gold.Chemscore.DEClash.Weighted>
0.3148

> <Gold.Chemscore.DEInternal.Weighted>
2.7117

> <Gold.Chemscore.Rot.Weighted>
6.2614

> <Gold.Chemscore.Internal.Correction.Weighted>
   9.000000E+99

> <Gold.Protein.RotatedTorsions>
[ 6907 6896 6895 6894 ] final   53.09 input  -60.11 | X-H torsion
[ 7974 7965 7964 7962 ] final  135.07 input  175.53 | X-H torsion
[ 8008 7997 7996 7995 ] final   52.50 input   59.86 | X-H torsion
[ 10167 10162 10161 10158 ] final  165.48 input  -65.29 | X-H torsion
[ 10718 10713 10712 10709 ] final   65.48 input   66.30 | X-H torsion
[ 10763 10752 10751 10750 ] final   34.53 input  -60.55 | X-H torsion
[ 11005 11000 10999 10996 ] final    8.81 input  -57.11 | X-H torsion

> <Gold.Protein.ActiveResidues>
 VAL166  LYS551  ARG553  GLY616  TRP617  ASP618  TYR619  PRO620  LYS621  CYS622 
 ASP623  PHE694  ASN695  SER759  ASP760  ASP761  ALA762  ILE779  LEU786  VAL792 
 PHE793  MET794  SER795  GLU796  ALA797  LYS798  CYS799  TRP800  GLU811  SER814 

> <Gold.Protein.RotatedAtoms>
  152.3301  134.7271  160.0291 H   0  0  0  0  0  0  0  0  0  0  0  0  # atno 6907 bound_to 6896
  151.7690  133.3334  159.3447 H   0  0  0  0  0  0  0  0  0  0  0  0  # atno 6908 bound_to 6896
  150.7418  134.5967  159.6060 H   0  0  0  0  0  0  0  0  0  0  0  0  # atno 6909 bound_to 6896
  144.9700  139.4615  143.5437 H   0  0  0  0  0  0  0  0  0  0  0  0  # atno 7974 bound_to 7965
  155.4528  140.3459  155.4303 H   0  0  0  0  0  0  0  0  0  0  0  0  # atno 8008 bound_to 7997
  156.1209  140.1487  156.9235 H   0  0  0  0  0  0  0  0  0  0  0  0  # atno 8009 bound_to 7997
  154.4823  140.0866  156.7385 H   0  0  0  0  0  0  0  0  0  0  0  0  # atno 8010 bound_to 7997
  139.4907  144.4127  151.9280 H   0  0  0  0  0  0  0  0  0  0  0  0  # atno 10167 bound_to 10162
  157.6108  130.9216  149.9982 H   0  0  0  0  0  0  0  0  0  0  0  0  # atno 10718 bound_to 10713
  153.0160  135.6358  154.1684 H   0  0  0  0  0  0  0  0  0  0  0  0  # atno 10763 bound_to 10752
  154.1423  135.2834  155.3159 H   0  0  0  0  0  0  0  0  0  0  0  0  # atno 10764 bound_to 10752
  154.6115  135.5555  153.7540 H   0  0  0  0  0  0  0  0  0  0  0  0  # atno 10765 bound_to 10752
  140.5328  134.0449  155.7879 H   0  0  0  0  0  0  0  0  0  0  0  0  # atno 11005 bound_to 11000
  146.3379  139.8907  142.8809 LP  0  0  0  0  0  0  0  0  0  0  0  0  # atno 17320 bound_to 7965
  145.2572  141.0065  143.3847 LP  0  0  0  0  0  0  0  0  0  0  0  0  # atno 17321 bound_to 7965
  140.3569  144.3020  150.5940 LP  0  0  0  0  0  0  0  0  0  0  0  0  # atno 17342 bound_to 10162
  140.5437  143.2219  151.8043 LP  0  0  0  0  0  0  0  0  0  0  0  0  # atno 17343 bound_to 10162
  156.1210  130.3646  149.9887 LP  0  0  0  0  0  0  0  0  0  0  0  0  # atno 17370 bound_to 10713
  156.7967  130.9275  151.3646 LP  0  0  0  0  0  0  0  0  0  0  0  0  # atno 17371 bound_to 10713
  141.1271  133.9364  157.2612 LP  0  0  0  0  0  0  0  0  0  0  0  0  # atno 17394 bound_to 11000
  139.9545  135.0168  156.9088 LP  0  0  0  0  0  0  0  0  0  0  0  0  # atno 17395 bound_to 11000

$$$$
