AV-unprocessed.smi:25|AV-procd|sdf|180|dock4
  -GOLD-   2262015443D 1   1.00000     0.00000
 Structure written by MMmdl.
 47 50  0  0  0  0  0  0  0  0  1 V2000
  155.1296  141.1687  159.7400 C   0  0  0  0  0  0  0  0  0  0  0  0
  153.6403  141.2207  160.1352 C   0  0  1  0  0  0  0  0  0  0  0  0
  153.3807  142.2916  161.2185 C   0  0  0  0  0  0  0  0  0  0  0  0
  152.4964  143.2772  160.5195 C   0  0  0  0  0  0  0  0  0  0  0  0
  152.0425  144.4981  161.0480 C   0  0  0  0  0  0  0  0  0  0  0  0
  151.2330  145.3182  160.2373 C   0  0  0  0  0  0  0  0  0  0  0  0
  150.9035  144.9127  158.9253 C   0  0  0  0  0  0  0  0  0  0  0  0
  151.3701  143.6831  158.4107 C   0  0  0  0  0  0  0  0  0  0  0  0
  152.1690  142.8518  159.2327 C   0  0  0  0  0  0  0  0  0  0  0  0
  152.7742  141.5811  158.9884 N   0  0  0  0  0  0  0  0  0  0  0  0
  152.5397  140.6829  157.9918 C   0  0  0  0  0  0  0  0  0  0  0  0
  153.0455  139.5582  158.0207 O   0  0  0  0  0  0  0  0  0  0  0  0
  151.6136  141.0231  156.8080 C   0  0  0  0  0  0  0  0  0  0  0  0
  151.2218  139.8468  155.9967 N   0  0  0  0  0  0  0  0  0  0  0  0
  152.1893  139.2519  155.1478 C   0  0  0  0  0  0  0  0  0  0  0  0
  153.3342  139.7001  155.0706 O   0  0  0  0  0  0  0  0  0  0  0  0
  151.7385  138.0848  154.3981 C   0  0  0  0  0  0  0  0  0  0  0  0
  152.5910  137.4531  153.5735 F   0  0  0  0  0  0  0  0  0  0  0  0
  150.4773  137.6238  154.5229 C   0  0  0  0  0  0  0  0  0  0  0  0
  149.5430  138.2151  155.3531 N   0  0  0  0  0  0  0  0  0  0  0  0
  148.1427  137.6582  155.4814 C   0  0  2  0  0  0  0  0  0  0  0  0
  147.8745  137.2276  156.9280 C   0  0  0  0  0  0  0  0  0  0  0  0
  148.2116  135.7529  156.8827 C   0  0  0  0  0  0  0  0  0  0  0  0
  147.7542  135.3772  155.4779 C   0  0  0  0  0  0  0  0  0  0  0  0
  148.0277  136.5216  154.6738 O   0  0  0  0  0  0  0  0  0  0  0  0
  149.9061  139.3396  156.1254 C   0  0  0  0  0  0  0  0  0  0  0  0
  149.0995  139.8571  156.9013 O   0  0  0  0  0  0  0  0  0  0  0  0
  155.7542  140.9549  160.6078 H   0  0  0  0  0  0  0  0  0  0  0  0
  155.4592  142.1196  159.3202 H   0  0  0  0  0  0  0  0  0  0  0  0
  155.3306  140.3933  159.0012 H   0  0  0  0  0  0  0  0  0  0  0  0
  153.3432  140.2484  160.5328 H   0  0  0  0  0  0  0  0  0  0  0  0
  152.8578  141.8726  162.0789 H   0  0  0  0  0  0  0  0  0  0  0  0
  154.2939  142.7743  161.5690 H   0  0  0  0  0  0  0  0  0  0  0  0
  152.3110  144.8032  162.0487 H   0  0  0  0  0  0  0  0  0  0  0  0
  150.8707  146.2623  160.6167 H   0  0  0  0  0  0  0  0  0  0  0  0
  150.2915  145.5525  158.3067 H   0  0  0  0  0  0  0  0  0  0  0  0
  151.1005  143.4406  157.3991 H   0  0  0  0  0  0  0  0  0  0  0  0
  150.7223  141.5228  157.1883 H   0  0  0  0  0  0  0  0  0  0  0  0
  152.1187  141.7520  156.1745 H   0  0  0  0  0  0  0  0  0  0  0  0
  150.2017  136.7516  153.9495 H   0  0  0  0  0  0  0  0  0  0  0  0
  147.4684  138.4351  155.1174 H   0  0  0  0  0  0  0  0  0  0  0  0
  148.4621  137.7970  157.6493 H   0  0  0  0  0  0  0  0  0  0  0  0
  146.8148  137.3706  157.1428 H   0  0  0  0  0  0  0  0  0  0  0  0
  149.2878  135.6076  156.9833 H   0  0  0  0  0  0  0  0  0  0  0  0
  147.7142  135.1748  157.6619 H   0  0  0  0  0  0  0  0  0  0  0  0
  148.2570  134.4891  155.0951 H   0  0  0  0  0  0  0  0  0  0  0  0
  146.6795  135.1917  155.4666 H   0  0  0  0  0  0  0  0  0  0  0  0
  1  2  1  0  0  0  0
  1 28  1  0  0  0  0
  1 29  1  0  0  0  0
  1 30  1  0  0  0  0
  2 10  1  0  0  0  0
  2  3  1  0  0  0  0
  2 31  1  0  0  0  0
  3  4  1  0  0  0  0
  3 32  1  0  0  0  0
  3 33  1  0  0  0  0
  4  9  2  0  0  0  0
  4  5  1  0  0  0  0
  5  6  2  0  0  0  0
  5 34  1  0  0  0  0
  6  7  1  0  0  0  0
  6 35  1  0  0  0  0
  7  8  2  0  0  0  0
  7 36  1  0  0  0  0
  8  9  1  0  0  0  0
  8 37  1  0  0  0  0
  9 10  1  0  0  0  0
 10 11  1  0  0  0  0
 11 12  2  0  0  0  0
 11 13  1  0  0  0  0
 13 14  1  0  0  0  0
 13 38  1  0  0  0  0
 13 39  1  0  0  0  0
 14 26  1  0  0  0  0
 14 15  1  0  0  0  0
 15 16  2  0  0  0  0
 15 17  1  0  0  0  0
 17 18  1  0  0  0  0
 17 19  2  0  0  0  0
 19 20  1  0  0  0  0
 19 40  1  0  0  0  0
 20 21  1  0  0  0  0
 20 26  1  0  0  0  0
 21 25  1  0  0  0  0
 21 22  1  0  0  0  0
 21 41  1  0  0  0  0
 22 23  1  0  0  0  0
 22 42  1  0  0  0  0
 22 43  1  0  0  0  0
 23 24  1  0  0  0  0
 23 44  1  0  0  0  0
 23 45  1  0  0  0  0
 24 25  1  0  0  0  0
 24 46  1  0  0  0  0
 24 47  1  0  0  0  0
 26 27  2  0  0  0  0
M  END
> <s_m_source_file>
AV-unprocessed.smi

> <i_m_source_file_index>
25

> <i_lp_mmshare_version>
43012

> <i_f3d_flags>
0

> <s_epik_input>
W2NIXTFbY0hdW2NIXVtjSF1jKGMxMilOKFtDQEhdKFtDSDNdKVtDSDJdMilDKD1PKVtDSDJdbjNjKD1PKWMoRilbY0hdbihjMz1PKVtDQEBIXTRbQ0gyXVtDSDJdW0NIMl1PNA==

> <s_epik_cmdline>
J2VwaWtfcHl0aG9uJywgJy1waCcsICc3LjAnLCAnLXRuJywgJzgnLCAnLW1hJywgJzIwMCcsICctbWV0YWxfYmluZGluZycsICctaW1hZScsICc8aW5maWxlLm1hZT4nLCAnLW9tYWUnLCAnPG91dGZpbGUubWFlPic=

> <r_lp_tautomer_probability>
1

> <r_epik_Ionization_Penalty>
1.67943e-06

> <r_epik_Ionization_Penalty_Charging>
3.79603e-09

> <r_epik_Ionization_Penalty_Neutral>
1.67563e-06

> <r_epik_State_Penalty>
-0

> <r_epik_Charging_Adjusted_Penalty>
3.79603e-09

> <i_epik_Tot_Q>
0

> <i_epik_Tot_abs_Q>
0

> <r_epik_Metal_State_Penalty>
-0

> <b_epik_Metal_Only>
0

> <s_epik_Chemistry_Notes>
This compound contains an acetal/aminal-like group ( X-CH(R)-Y where X, Y are N, S, or O) that may be acid/base labile, releasing an aldehyde.

> <s_lp_Force_Field>
OPLS_2005

> <r_lp_Energy>
55.2786

> <b_lp_Chiralities_Consistent>
1

> <s_lp_Variant>
AV-unprocessed.smi:25-2

> <Gold.Version>
5.8.1

> <Gold.Id.Protein>
6NUR|6NUR_protein|mol2

> <Gold.PLP.Fitness>
52.1921

> <Gold.PLP.PLP>
-46.2021

> <Gold.PLP.part.hbond>
-2.2112

> <Gold.PLP.part.metal>
0.0000

> <Gold.PLP.part.buried>
0.8183

> <Gold.PLP.part.nonpolar>
-43.0953

> <Gold.PLP.part.repulsive>
0.1498

> <Gold.PLP.ligand.clash>
0.0000

> <Gold.PLP.ligand.torsion>
0.3266

> <Gold.PLP.Chemscore.Hbond>
1.1939

> <Gold.PLP.Chemscore.CHOScore>
1.0064

> <Gold.PLP.Chemscore.Metal>
0.0000

> <Gold.Chemscore.Hbonds>
donor molecule, donor type, donor heavy atom, donor atom, acceptor molecule, acceptor atom, score
      P1  H  7997  8008       L1    12  0.76
      P1  H  7997  8009       L1    16  0.78
      L1  C    19    40       P1  7948  0.93
      L1  C    19    40       P1  7949  0.10

> <Gold.PLP.Chemscore.Internal.Correction>
0.0426

> <Gold.Rescore>
     Score         DG    S(hbond)    S(metal)    S(lipo)     H(rot)  DE(clash)    DE(int)     intcor
     16.47     -19.55       1.00        0.00     125.53       1.55       1.38       1.70       ----

> <Gold.Chemscore.Fitness>
16.4704

> <Gold.Chemscore.DG>
-19.5468

> <Gold.Chemscore.ZeroCoef>
-5.4800

> <Gold.Chemscore.Hbond>
1.0016

> <Gold.Chemscore.Metal>
0.0000

> <Gold.Chemscore.Lipo>
125.5269

> <Gold.Chemscore.Internal_Hbond>
0.0000

> <Gold.Chemscore.DEClash>
1.3807

> <Gold.Chemscore.DEInternal>
1.6957

> <Gold.Chemscore.Rot>
1.5489

> <Gold.Chemscore.Internal.Correction>
   9.000000E+99

> <Gold.Chemscore.Hbonds>
donor molecule, donor type, donor heavy atom, donor atom, acceptor molecule, acceptor atom, score
      P1  H  7997  8008       L1    12  0.14
      P1  H  7997  8009       L1    16  0.77

> <Gold.Chemscore.Hbond.Weighted>
-3.3453

> <Gold.Chemscore.Metal.Weighted>
-0.0000

> <Gold.Chemscore.Lipo.Weighted>
-14.6867

> <Gold.Chemscore.Internal_Hbond.Weighted>
0.0000

> <Gold.Chemscore.DEClash.Weighted>
1.3807

> <Gold.Chemscore.DEInternal.Weighted>
1.6957

> <Gold.Chemscore.Rot.Weighted>
3.9651

> <Gold.Chemscore.Internal.Correction.Weighted>
   9.000000E+99

> <Gold.Protein.RotatedTorsions>
[ 6907 6896 6895 6894 ] final -129.62 input  -60.11 | X-H torsion
[ 7974 7965 7964 7962 ] final  111.92 input  175.53 | X-H torsion
[ 8008 7997 7996 7995 ] final -105.42 input   59.86 | X-H torsion
[ 10167 10162 10161 10158 ] final   42.86 input  -65.29 | X-H torsion
[ 10718 10713 10712 10709 ] final   51.33 input   66.30 | X-H torsion
[ 10763 10752 10751 10750 ] final -108.95 input  -60.55 | X-H torsion
[ 11005 11000 10999 10996 ] final  -24.11 input  -57.11 | X-H torsion

> <Gold.Protein.ActiveResidues>
 VAL166  LYS551  ARG553  GLY616  TRP617  ASP618  TYR619  PRO620  LYS621  CYS622 
 ASP623  PHE694  ASN695  SER759  ASP760  ASP761  ALA762  ILE779  LEU786  VAL792 
 PHE793  MET794  SER795  GLU796  ALA797  LYS798  CYS799  TRP800  GLU811  SER814 

> <Gold.Protein.RotatedAtoms>
  150.9307  133.6770  159.2811 H   0  0  0  0  0  0  0  0  0  0  0  0  # atno 6907 bound_to 6896
  151.4193  135.0994  159.9618 H   0  0  0  0  0  0  0  0  0  0  0  0  # atno 6908 bound_to 6896
  152.5024  133.8763  159.7378 H   0  0  0  0  0  0  0  0  0  0  0  0  # atno 6909 bound_to 6896
  145.2361  139.2798  143.4142 H   0  0  0  0  0  0  0  0  0  0  0  0  # atno 7974 bound_to 7965
  154.8995  140.0413  157.1885 H   0  0  0  0  0  0  0  0  0  0  0  0  # atno 8008 bound_to 7997
  154.8458  140.2921  155.5609 H   0  0  0  0  0  0  0  0  0  0  0  0  # atno 8009 bound_to 7997
  156.2994  140.2474  156.3408 H   0  0  0  0  0  0  0  0  0  0  0  0  # atno 8010 bound_to 7997
  140.3501  144.2361  150.6146 H   0  0  0  0  0  0  0  0  0  0  0  0  # atno 10167 bound_to 10162
  157.4971  130.8413  149.8271 H   0  0  0  0  0  0  0  0  0  0  0  0  # atno 10718 bound_to 10713
  154.8165  135.4619  154.0659 H   0  0  0  0  0  0  0  0  0  0  0  0  # atno 10763 bound_to 10752
  153.2047  135.6874  153.8194 H   0  0  0  0  0  0  0  0  0  0  0  0  # atno 10764 bound_to 10752
  153.7666  135.3276  155.3322 H   0  0  0  0  0  0  0  0  0  0  0  0  # atno 10765 bound_to 10752
  140.8815  133.7651  156.0308 H   0  0  0  0  0  0  0  0  0  0  0  0  # atno 11005 bound_to 11000
  146.3340  140.2710  142.8606 LP  0  0  0  0  0  0  0  0  0  0  0  0  # atno 17320 bound_to 7965
  144.9632  140.8295  143.5501 LP  0  0  0  0  0  0  0  0  0  0  0  0  # atno 17321 bound_to 7965
  140.5227  143.2262  151.8364 LP  0  0  0  0  0  0  0  0  0  0  0  0  # atno 17342 bound_to 10162
  139.4827  144.4817  151.9298 LP  0  0  0  0  0  0  0  0  0  0  0  0  # atno 17343 bound_to 10162
  156.0207  130.3797  150.1972 LP  0  0  0  0  0  0  0  0  0  0  0  0  # atno 17370 bound_to 10713
  157.0161  130.9965  151.3352 LP  0  0  0  0  0  0  0  0  0  0  0  0  # atno 17371 bound_to 10713
  140.8455  134.3015  157.5296 LP  0  0  0  0  0  0  0  0  0  0  0  0  # atno 17394 bound_to 11000
  139.8720  134.9440  156.3868 LP  0  0  0  0  0  0  0  0  0  0  0  0  # atno 17395 bound_to 11000

$$$$
