AV-unprocessed.smi:3002|AV-procd|sdf|11436|dock3
  -GOLD-   2272016363D 1   1.00000     0.00000
 Structure written by MMmdl.
 34 35  0  0  0  0  0  0  0  0  1 V2000
  149.7648  131.4649  155.6294 C   0  0  0  0  0  0  0  0  0  0  0  0
  149.3689  132.7529  156.3796 C   0  0  1  0  0  0  0  0  0  0  0  0
  149.4781  132.6022  157.9044 C   0  0  0  0  0  0  0  0  0  0  0  0
  150.5457  132.2846  158.4299 O   0  0  0  0  0  0  0  0  0  0  0  0
  148.3568  132.8308  158.6059 N   0  0  0  0  0  0  0  0  0  0  0  0
  148.2385  132.7239  160.0560 C   0  0  0  0  0  0  0  0  0  0  0  0
  147.4014  133.8709  160.6560 C   0  0  1  0  0  0  0  0  0  0  0  0
  147.2117  133.7287  162.1785 C   0  0  0  0  0  0  0  0  0  0  0  0
  146.6097  135.0300  162.7181 C   0  0  0  0  0  0  0  0  0  0  0  0
  147.3221  136.3665  161.6882 S   0  0  0  0  0  0  0  0  0  0  0  0
  146.2290  137.1801  161.1350 O   0  0  0  0  0  0  0  0  0  0  0  0
  148.4456  136.9915  162.4024 O   0  0  0  0  0  0  0  0  0  0  0  0
  147.9887  135.2664  160.3827 C   0  0  0  0  0  0  0  0  0  0  0  0
  150.1308  133.9125  155.9332 N   0  0  0  0  0  0  0  0  0  0  0  0
  151.1446  134.5503  156.5229 C   0  0  0  0  0  0  0  0  0  0  0  0
  151.6418  135.5498  155.8081 N   0  0  0  0  0  0  0  0  0  0  0  0
  150.8419  135.4602  154.7044 C   0  0  0  0  0  0  0  0  0  0  0  0
  149.9286  134.4898  154.7224 N   0  0  0  0  0  0  0  0  0  0  0  0
  149.1486  130.6224  155.9452 H   0  0  0  0  0  0  0  0  0  0  0  0
  150.8071  131.1927  155.8001 H   0  0  0  0  0  0  0  0  0  0  0  0
  149.6272  131.5842  154.5543 H   0  0  0  0  0  0  0  0  0  0  0  0
  148.3216  132.9505  156.1439 H   0  0  0  0  0  0  0  0  0  0  0  0
  147.5226  133.0871  158.0981 H   0  0  0  0  0  0  0  0  0  0  0  0
  147.8054  131.7580  160.3216 H   0  0  0  0  0  0  0  0  0  0  0  0
  149.2446  132.7352  160.4763 H   0  0  0  0  0  0  0  0  0  0  0  0
  146.4055  133.8450  160.2112 H   0  0  0  0  0  0  0  0  0  0  0  0
  146.5899  132.8689  162.4298 H   0  0  0  0  0  0  0  0  0  0  0  0
  148.1828  133.5682  162.6487 H   0  0  0  0  0  0  0  0  0  0  0  0
  145.5279  135.0404  162.5830 H   0  0  0  0  0  0  0  0  0  0  0  0
  146.8328  135.2024  163.7712 H   0  0  0  0  0  0  0  0  0  0  0  0
  149.0751  135.2617  160.4748 H   0  0  0  0  0  0  0  0  0  0  0  0
  147.7251  135.6526  159.3978 H   0  0  0  0  0  0  0  0  0  0  0  0
  151.5292  134.2755  157.4942 H   0  0  0  0  0  0  0  0  0  0  0  0
  150.9399  136.1257  153.8593 H   0  0  0  0  0  0  0  0  0  0  0  0
  1  2  1  0  0  0  0
  1 19  1  0  0  0  0
  1 20  1  0  0  0  0
  1 21  1  0  0  0  0
  2  3  1  0  0  0  0
  2 14  1  0  0  0  0
  2 22  1  0  0  0  0
  3  4  2  0  0  0  0
  3  5  1  0  0  0  0
  5  6  1  0  0  0  0
  5 23  1  0  0  0  0
  6  7  1  0  0  0  0
  6 24  1  0  0  0  0
  6 25  1  0  0  0  0
  7 13  1  0  0  0  0
  7  8  1  0  0  0  0
  7 26  1  0  0  0  0
  8  9  1  0  0  0  0
  8 27  1  0  0  0  0
  8 28  1  0  0  0  0
  9 10  1  0  0  0  0
  9 29  1  0  0  0  0
  9 30  1  0  0  0  0
 10 11  2  0  0  0  0
 10 12  2  0  0  0  0
 10 13  1  0  0  0  0
 13 31  1  0  0  0  0
 13 32  1  0  0  0  0
 14 18  1  0  0  0  0
 14 15  1  0  0  0  0
 15 16  2  0  0  0  0
 15 33  1  0  0  0  0
 16 17  1  0  0  0  0
 17 18  2  0  0  0  0
 17 34  1  0  0  0  0
M  END
> <s_m_source_file>
AV-unprocessed.smi

> <i_m_source_file_index>
3002

> <i_lp_mmshare_version>
43012

> <i_f3d_flags>
0

> <s_epik_input>
bjFbY0hdbltjSF1uMVtDQEhdKFtDSDNdKUMoPU8pW05IXVtDSDJdW0NAQEhdKFtDSDJdMilbQ0gyXVtDSDJdUzIoPU8pPU8=

> <s_epik_cmdline>
J2VwaWtfcHl0aG9uJywgJy1waCcsICc3LjAnLCAnLXRuJywgJzgnLCAnLW1hJywgJzIwMCcsICctbWV0YWxfYmluZGluZycsICctaW1hZScsICc8aW5maWxlLm1hZT4nLCAnLW9tYWUnLCAnPG91dGZpbGUubWFlPic=

> <r_lp_tautomer_probability>
1

> <r_epik_Ionization_Penalty>
1.1748e-05

> <r_epik_Ionization_Penalty_Charging>
0

> <r_epik_Ionization_Penalty_Neutral>
1.1748e-05

> <r_epik_State_Penalty>
-0

> <r_epik_Charging_Adjusted_Penalty>
0

> <i_epik_Tot_Q>
0

> <i_epik_Tot_abs_Q>
0

> <r_epik_Metal_State_Penalty>
-0

> <b_epik_Metal_Only>
0

> <s_lp_Force_Field>
OPLS_2005

> <r_lp_Energy>
7.1985

> <b_lp_Chiralities_Consistent>
1

> <s_lp_Variant>
AV-unprocessed.smi:3002-4

> <Gold.Version>
5.8.1

> <Gold.Id.Protein>
6NUR|6NUR_protein|mol2

> <Gold.PLP.Fitness>
39.5157

> <Gold.PLP.PLP>
-26.0752

> <Gold.PLP.part.hbond>
-3.8577

> <Gold.PLP.part.metal>
0.0000

> <Gold.PLP.part.buried>
-2.2554

> <Gold.PLP.part.nonpolar>
-20.8302

> <Gold.PLP.part.repulsive>
0.2660

> <Gold.PLP.ligand.clash>
0.0000

> <Gold.PLP.ligand.torsion>
0.6469

> <Gold.PLP.Chemscore.Hbond>
4.0000

> <Gold.PLP.Chemscore.CHOScore>
0.8768

> <Gold.PLP.Chemscore.Metal>
0.0000

> <Gold.Chemscore.Hbonds>
donor molecule, donor type, donor heavy atom, donor atom, acceptor molecule, acceptor atom, score
      P1  H  6896  6909       L1     4  1.00
      P1  H  6931  6943       L1    12  0.81
      P1  H  6934  6947       L1    11  0.89
      P1  H 10752 10765       L1    16  0.80
      L1  C    17    34       P1  7948  0.01
      L1  C    17    34       P1  7949  0.89

> <Gold.PLP.Chemscore.Internal.Correction>
0.1040

> <Gold.Rescore>
     Score         DG    S(hbond)    S(metal)    S(lipo)     H(rot)  DE(clash)    DE(int)     intcor
     13.98     -15.64       3.46        0.00      40.57       2.39       0.05       1.60       ----

> <Gold.Chemscore.Fitness>
13.9846

> <Gold.Chemscore.DG>
-15.6372

> <Gold.Chemscore.ZeroCoef>
-5.4800

> <Gold.Chemscore.Hbond>
3.4551

> <Gold.Chemscore.Metal>
0.0000

> <Gold.Chemscore.Lipo>
40.5746

> <Gold.Chemscore.Internal_Hbond>
0.0000

> <Gold.Chemscore.DEClash>
0.0491

> <Gold.Chemscore.DEInternal>
1.6035

> <Gold.Chemscore.Rot>
2.3946

> <Gold.Chemscore.Internal.Correction>
   9.000000E+99

> <Gold.Chemscore.Hbonds>
donor molecule, donor type, donor heavy atom, donor atom, acceptor molecule, acceptor atom, score
      P1  H  6896  6909       L1     4  0.91
      P1  H  6931  6943       L1    12  0.78
      P1  H  6934  6947       L1    11  0.26
      P1  H 10752 10765       L1    16  0.12

> <Gold.Chemscore.Hbond.Weighted>
-11.5401

> <Gold.Chemscore.Metal.Weighted>
-0.0000

> <Gold.Chemscore.Lipo.Weighted>
-4.7472

> <Gold.Chemscore.Internal_Hbond.Weighted>
0.0000

> <Gold.Chemscore.DEClash.Weighted>
0.0491

> <Gold.Chemscore.DEInternal.Weighted>
1.6035

> <Gold.Chemscore.Rot.Weighted>
6.1301

> <Gold.Chemscore.Internal.Correction.Weighted>
   9.000000E+99

> <Gold.Protein.RotatedTorsions>
[ 6907 6896 6895 6894 ] final  -42.08 input  -60.11 | X-H torsion
[ 7974 7965 7964 7962 ] final   -6.06 input  175.53 | X-H torsion
[ 8008 7997 7996 7995 ] final -141.99 input   59.86 | X-H torsion
[ 10167 10162 10161 10158 ] final  172.76 input  -65.29 | X-H torsion
[ 10718 10713 10712 10709 ] final   -7.68 input   66.30 | X-H torsion
[ 10763 10752 10751 10750 ] final -154.28 input  -60.55 | X-H torsion
[ 11005 11000 10999 10996 ] final    2.83 input  -57.11 | X-H torsion

> <Gold.Protein.ActiveResidues>
 VAL166  LYS551  ARG553  GLY616  TRP617  ASP618  TYR619  PRO620  LYS621  CYS622 
 ASP623  PHE694  ASN695  SER759  ASP760  ASP761  ALA762  ILE779  LEU786  VAL792 
 PHE793  MET794  SER795  GLU796  ALA797  LYS798  CYS799  TRP800  GLU811  SER814 

> <Gold.Protein.RotatedAtoms>
  150.9593  134.8983  159.7720 H   0  0  0  0  0  0  0  0  0  0  0  0  # atno 6907 bound_to 6896
  152.5150  134.3695  159.9323 H   0  0  0  0  0  0  0  0  0  0  0  0  # atno 6908 bound_to 6896
  151.3708  133.3815  159.2734 H   0  0  0  0  0  0  0  0  0  0  0  0  # atno 6909 bound_to 6896
  146.2339  140.2114  142.8335 H   0  0  0  0  0  0  0  0  0  0  0  0  # atno 7974 bound_to 7965
  155.4869  140.0564  157.2959 H   0  0  0  0  0  0  0  0  0  0  0  0  # atno 8008 bound_to 7997
  154.4638  140.2009  156.0124 H   0  0  0  0  0  0  0  0  0  0  0  0  # atno 8009 bound_to 7997
  156.0938  140.3229  155.7855 H   0  0  0  0  0  0  0  0  0  0  0  0  # atno 8010 bound_to 7997
  139.5087  144.3337  152.0086 H   0  0  0  0  0  0  0  0  0  0  0  0  # atno 10167 bound_to 10162
  156.7137  130.5130  149.5885 H   0  0  0  0  0  0  0  0  0  0  0  0  # atno 10718 bound_to 10713
  154.7869  135.3193  154.7865 H   0  0  0  0  0  0  0  0  0  0  0  0  # atno 10763 bound_to 10752
  153.8563  135.6857  153.4791 H   0  0  0  0  0  0  0  0  0  0  0  0  # atno 10764 bound_to 10752
  153.1524  135.4694  154.9596 H   0  0  0  0  0  0  0  0  0  0  0  0  # atno 10765 bound_to 10752
  140.5999  133.9845  155.8127 H   0  0  0  0  0  0  0  0  0  0  0  0  # atno 11005 bound_to 11000
  144.9703  140.8362  143.5459 LP  0  0  0  0  0  0  0  0  0  0  0  0  # atno 17320 bound_to 7965
  145.2095  139.2212  143.5150 LP  0  0  0  0  0  0  0  0  0  0  0  0  # atno 17321 bound_to 7965
  140.2776  144.3895  150.6130 LP  0  0  0  0  0  0  0  0  0  0  0  0  # atno 17342 bound_to 10162
  140.6042  143.2167  151.7013 LP  0  0  0  0  0  0  0  0  0  0  0  0  # atno 17343 bound_to 10162
  156.1643  130.6394  151.0758 LP  0  0  0  0  0  0  0  0  0  0  0  0  # atno 17370 bound_to 10713
  157.6926  131.0805  150.7064 LP  0  0  0  0  0  0  0  0  0  0  0  0  # atno 17371 bound_to 10713
  141.0879  133.9962  157.3284 LP  0  0  0  0  0  0  0  0  0  0  0  0  # atno 17394 bound_to 11000
  139.9237  135.0201  156.8156 LP  0  0  0  0  0  0  0  0  0  0  0  0  # atno 17395 bound_to 11000

$$$$
