AV-unprocessed.smi:218|AV-procd|sdf|1672|dock7
  -GOLD-   2262020 93D 1   1.00000     0.00000
 Structure written by MMmdl.
 54 57  0  0  0  0  0  0  0  0  1 V2000
  151.9382  140.5613  158.8083 C   0  0  0  0  0  0  0  0  0  0  0  0
  152.5297  141.7271  158.0069 C   0  0  0  0  0  0  0  0  0  0  0  0
  152.4523  143.0434  158.7993 C   0  0  0  0  0  0  0  0  0  0  0  0
  151.7686  141.8302  156.8019 O   0  0  0  0  0  0  0  0  0  0  0  0
  151.5466  140.7111  156.0229 C   0  0  0  0  0  0  0  0  0  0  0  0
  150.2138  140.3337  155.7613 C   0  0  0  0  0  0  0  0  0  0  0  0
  149.9715  139.1929  154.9698 C   0  0  0  0  0  0  0  0  0  0  0  0
  148.5549  138.7659  154.6509 C   0  0  0  0  0  0  0  0  0  0  0  0
  148.1331  137.6073  155.4250 N   0  0  0  0  0  0  0  0  0  0  0  0
  147.2804  136.7088  154.8894 C   0  0  0  0  0  0  0  0  0  0  0  0
  147.1380  135.4697  155.4291 N   0  0  0  0  0  0  0  0  0  0  0  0
  146.2881  134.5961  154.8804 C   0  0  0  0  0  0  0  0  0  0  0  0
  145.5031  134.7535  153.8119 N   0  0  0  0  0  0  0  0  0  0  0  0
  145.6456  135.9967  153.2671 C   0  0  0  0  0  0  0  0  0  0  0  0
  146.5043  137.0242  153.7445 C   0  0  0  0  0  0  0  0  0  0  0  0
  146.3806  138.1500  152.9412 N   0  0  0  0  0  0  0  0  0  0  0  0
  145.4999  137.8013  152.0416 C   0  0  0  0  0  0  0  0  0  0  0  0
  145.0041  136.5192  152.1649 N   0  0  0  0  0  0  0  0  0  0  0  0
  143.9980  135.7942  151.3172 C   0  0  2  0  0  0  0  0  0  0  0  0
  143.4948  134.7321  152.0649 O   0  0  0  0  0  0  0  0  0  0  0  0
  144.1091  133.4911  151.7053 C   0  0  1  0  0  0  0  0  0  0  0  0
  142.9638  132.5552  151.2653 C   0  0  0  0  0  0  0  0  0  0  0  0
  142.7460  132.6872  149.8766 O   0  0  0  0  0  0  0  0  0  0  0  0
  145.1401  133.8487  150.6098 C   0  0  1  0  0  0  0  0  0  0  0  0
  145.2390  132.8840  149.5790 O   0  0  0  0  0  0  0  0  0  0  0  0
  144.6417  135.1785  150.0680 C   0  0  2  0  0  0  0  0  0  0  0  0
  145.7018  135.9470  149.5295 O   0  0  0  0  0  0  0  0  0  0  0  0
  151.0727  138.4703  154.4699 C   0  0  0  0  0  0  0  0  0  0  0  0
  152.3683  138.9227  154.7867 C   0  0  0  0  0  0  0  0  0  0  0  0
  152.6074  140.0146  155.5439 N   0  0  0  0  0  0  0  0  0  0  0  0
  143.2264  136.5349  151.1047 H   0  0  0  0  0  0  0  0  0  0  0  0
  144.6273  133.0601  152.5631 H   0  0  0  0  0  0  0  0  0  0  0  0
  146.1207  133.9760  151.0715 H   0  0  0  0  0  0  0  0  0  0  0  0
  143.8580  135.0301  149.3236 H   0  0  0  0  0  0  0  0  0  0  0  0
  152.4769  140.4147  159.7449 H   0  0  0  0  0  0  0  0  0  0  0  0
  151.9979  139.6310  158.2430 H   0  0  0  0  0  0  0  0  0  0  0  0
  150.8895  140.7377  159.0492 H   0  0  0  0  0  0  0  0  0  0  0  0
  153.5710  141.4779  157.7972 H   0  0  0  0  0  0  0  0  0  0  0  0
  152.9937  142.9642  159.7423 H   0  0  0  0  0  0  0  0  0  0  0  0
  151.4186  143.3022  159.0300 H   0  0  0  0  0  0  0  0  0  0  0  0
  152.8849  143.8757  158.2447 H   0  0  0  0  0  0  0  0  0  0  0  0
  149.3931  140.9126  156.1593 H   0  0  0  0  0  0  0  0  0  0  0  0
  147.8748  139.5977  154.8395 H   0  0  0  0  0  0  0  0  0  0  0  0
  148.4935  138.5348  153.5866 H   0  0  0  0  0  0  0  0  0  0  0  0
  148.4857  137.5484  156.3696 H   0  0  0  0  0  0  0  0  0  0  0  0
  146.2293  133.6331  155.3662 H   0  0  0  0  0  0  0  0  0  0  0  0
  145.1932  138.4793  151.2594 H   0  0  0  0  0  0  0  0  0  0  0  0
  143.1757  131.5163  151.5202 H   0  0  0  0  0  0  0  0  0  0  0  0
  142.0248  132.8256  151.7478 H   0  0  0  0  0  0  0  0  0  0  0  0
  141.9915  133.2397  149.7411 H   0  0  0  0  0  0  0  0  0  0  0  0
  145.4213  133.3289  148.7656 H   0  0  0  0  0  0  0  0  0  0  0  0
  146.0647  135.4826  148.7908 H   0  0  0  0  0  0  0  0  0  0  0  0
  150.9318  137.5928  153.8561 H   0  0  0  0  0  0  0  0  0  0  0  0
  153.2361  138.3947  154.4204 H   0  0  0  0  0  0  0  0  0  0  0  0
  1  2  1  0  0  0  0
  1 35  1  0  0  0  0
  1 36  1  0  0  0  0
  1 37  1  0  0  0  0
  2  3  1  0  0  0  0
  2  4  1  0  0  0  0
  2 38  1  0  0  0  0
  3 39  1  0  0  0  0
  3 40  1  0  0  0  0
  3 41  1  0  0  0  0
  4  5  1  0  0  0  0
  5 30  1  0  0  0  0
  5  6  2  0  0  0  0
  6  7  1  0  0  0  0
  6 42  1  0  0  0  0
  7  8  1  0  0  0  0
  7 28  2  0  0  0  0
  8  9  1  0  0  0  0
  8 43  1  0  0  0  0
  8 44  1  0  0  0  0
  9 10  1  0  0  0  0
  9 45  1  0  0  0  0
 10 15  1  0  0  0  0
 10 11  2  0  0  0  0
 11 12  1  0  0  0  0
 12 13  2  0  0  0  0
 12 46  1  0  0  0  0
 13 14  1  0  0  0  0
 14 18  1  0  0  0  0
 14 15  2  0  0  0  0
 15 16  1  0  0  0  0
 16 17  2  0  0  0  0
 17 18  1  0  0  0  0
 17 47  1  0  0  0  0
 18 19  1  0  0  0  0
 19 31  1  0  0  0  0
 19 26  1  0  0  0  0
 19 20  1  0  0  0  0
 20 21  1  0  0  0  0
 21 32  1  0  0  0  0
 21 22  1  0  0  0  0
 21 24  1  0  0  0  0
 22 23  1  0  0  0  0
 22 48  1  0  0  0  0
 22 49  1  0  0  0  0
 23 50  1  0  0  0  0
 24 33  1  0  0  0  0
 24 25  1  0  0  0  0
 24 26  1  0  0  0  0
 25 51  1  0  0  0  0
 26 34  1  0  0  0  0
 26 27  1  0  0  0  0
 27 52  1  0  0  0  0
 28 29  1  0  0  0  0
 28 53  1  0  0  0  0
 29 30  2  0  0  0  0
 29 54  1  0  0  0  0
M  END
> <s_m_source_file>
AV-unprocessed.smi

> <i_m_source_file_index>
218

> <i_lp_mmshare_version>
43012

> <i_f3d_flags>
0

> <s_epik_input>
W0NIM11bQ0hdKFtDSDNdKU9jMVtjSF1jKFtjSF1bY0hdbjEpW0NIMl1bTkhdYyhuW2NIXW4yKWMoYzIzKW5bY0hdbjNbQ0BASF00T1tDQEhdKFtDSDJdW09IXSlbQ0BASF0oW09IXSlbQ0BIXTRbT0hd

> <s_epik_cmdline>
J2VwaWtfcHl0aG9uJywgJy1waCcsICc3LjAnLCAnLXRuJywgJzgnLCAnLW1hJywgJzIwMCcsICctbWV0YWxfYmluZGluZycsICctaW1hZScsICc8aW5maWxlLm1hZT4nLCAnLW9tYWUnLCAnPG91dGZpbGUubWFlPic=

> <r_lp_tautomer_probability>
1

> <r_epik_Ionization_Penalty>
0.00457014

> <r_epik_Ionization_Penalty_Charging>
0

> <r_epik_Ionization_Penalty_Neutral>
0.00457014

> <r_epik_State_Penalty>
-0

> <r_epik_Charging_Adjusted_Penalty>
0

> <i_epik_Tot_Q>
0

> <i_epik_Tot_abs_Q>
0

> <r_epik_Metal_State_Penalty>
-0

> <b_epik_Metal_Only>
0

> <s_epik_Chemistry_Notes>
This compound contains an acetal/aminal-like group ( X-CH(R)-Y where X, Y are N, S, or O) that may be acid/base labile, releasing an aldehyde.

> <s_lp_Force_Field>
OPLS_2005

> <r_lp_Energy>
43.2146

> <b_lp_Chiralities_Consistent>
1

> <s_lp_Variant>
AV-unprocessed.smi:218-11

> <Gold.Version>
5.8.1

> <Gold.Id.Protein>
6NUR|6NUR_protein|mol2

> <Gold.PLP.Fitness>
54.8390

> <Gold.PLP.PLP>
-39.6975

> <Gold.PLP.part.hbond>
-5.3435

> <Gold.PLP.part.metal>
0.0000

> <Gold.PLP.part.buried>
-2.3308

> <Gold.PLP.part.nonpolar>
-31.1257

> <Gold.PLP.part.repulsive>
0.5023

> <Gold.PLP.ligand.clash>
0.0000

> <Gold.PLP.ligand.torsion>
1.5194

> <Gold.PLP.Chemscore.Hbond>
4.0000

> <Gold.PLP.Chemscore.CHOScore>
2.0000

> <Gold.PLP.Chemscore.Metal>
0.0000

> <Gold.Chemscore.Hbonds>
donor molecule, donor type, donor heavy atom, donor atom, acceptor molecule, acceptor atom, score
      L1  H    23    50       P1 10186  1.00
      L1  H    25    51       P1  7921  0.95
      L1  H    27    52       P1  7921  0.47
      P1  H  7997  8008       L1    30  1.00
      L1  C    17    47       P1 10171  0.81
      L1  C    17    47       P1 10175  0.25

> <Gold.PLP.Chemscore.Internal.Correction>
0.1803

> <Gold.Rescore>
     Score         DG    S(hbond)    S(metal)    S(lipo)     H(rot)  DE(clash)    DE(int)     intcor
      8.20     -13.93       3.51        0.00      79.21       4.90       0.14       5.59       ----

> <Gold.Chemscore.Fitness>
8.2016

> <Gold.Chemscore.DG>
-13.9348

> <Gold.Chemscore.ZeroCoef>
-5.4800

> <Gold.Chemscore.Hbond>
3.5147

> <Gold.Chemscore.Metal>
0.0000

> <Gold.Chemscore.Lipo>
79.2076

> <Gold.Chemscore.Internal_Hbond>
0.0000

> <Gold.Chemscore.DEClash>
0.1384

> <Gold.Chemscore.DEInternal>
5.5948

> <Gold.Chemscore.Rot>
4.9029

> <Gold.Chemscore.Internal.Correction>
   9.000000E+99

> <Gold.Chemscore.Hbonds>
donor molecule, donor type, donor heavy atom, donor atom, acceptor molecule, acceptor atom, score
      L1  H    23    50       P1 10186  0.94
      L1  H    25    51       P1  7921  0.21
      L1  H    27    52       P1  7921  0.44
      P1  H  7997  8008       L1    30  0.90

> <Gold.Chemscore.Hbond.Weighted>
-11.7391

> <Gold.Chemscore.Metal.Weighted>
-0.0000

> <Gold.Chemscore.Lipo.Weighted>
-9.2673

> <Gold.Chemscore.Internal_Hbond.Weighted>
0.0000

> <Gold.Chemscore.DEClash.Weighted>
0.1384

> <Gold.Chemscore.DEInternal.Weighted>
5.5948

> <Gold.Chemscore.Rot.Weighted>
12.5515

> <Gold.Chemscore.Internal.Correction.Weighted>
   9.000000E+99

> <Gold.Protein.RotatedTorsions>
[ 6907 6896 6895 6894 ] final  -51.10 input  -60.11 | X-H torsion
[ 7974 7965 7964 7962 ] final -179.80 input  175.53 | X-H torsion
[ 8008 7997 7996 7995 ] final  -32.78 input   59.86 | X-H torsion
[ 10167 10162 10161 10158 ] final  119.98 input  -65.29 | X-H torsion
[ 10718 10713 10712 10709 ] final    0.60 input   66.30 | X-H torsion
[ 10763 10752 10751 10750 ] final  -88.42 input  -60.55 | X-H torsion
[ 11005 11000 10999 10996 ] final  164.74 input  -57.11 | X-H torsion

> <Gold.Protein.ActiveResidues>
 VAL166  LYS551  ARG553  GLY616  TRP617  ASP618  TYR619  PRO620  LYS621  CYS622 
 ASP623  PHE694  ASN695  SER759  ASP760  ASP761  ALA762  ILE779  LEU786  VAL792 
 PHE793  MET794  SER795  GLU796  ALA797  LYS798  CYS799  TRP800  GLU811  SER814 

> <Gold.Protein.RotatedAtoms>
  150.8643  134.8003  159.7106 H   0  0  0  0  0  0  0  0  0  0  0  0  # atno 6907 bound_to 6896
  152.4670  134.5048  159.9746 H   0  0  0  0  0  0  0  0  0  0  0  0  # atno 6908 bound_to 6896
  151.5147  133.3439  159.2926 H   0  0  0  0  0  0  0  0  0  0  0  0  # atno 6909 bound_to 6896
  144.7139  140.0663  143.6431 H   0  0  0  0  0  0  0  0  0  0  0  0  # atno 7974 bound_to 7965
  154.4169  140.1728  156.1782 H   0  0  0  0  0  0  0  0  0  0  0  0  # atno 8008 bound_to 7997
  155.9704  140.3386  155.6546 H   0  0  0  0  0  0  0  0  0  0  0  0  # atno 8009 bound_to 7997
  155.6633  140.0703  157.2537 H   0  0  0  0  0  0  0  0  0  0  0  0  # atno 8010 bound_to 7997
  139.6011  144.7057  151.3061 H   0  0  0  0  0  0  0  0  0  0  0  0  # atno 10167 bound_to 10162
  156.8358  130.5504  149.5682 H   0  0  0  0  0  0  0  0  0  0  0  0  # atno 10718 bound_to 10713
  154.6443  135.5378  153.7826 H   0  0  0  0  0  0  0  0  0  0  0  0  # atno 10763 bound_to 10752
  153.0351  135.6467  154.1113 H   0  0  0  0  0  0  0  0  0  0  0  0  # atno 10764 bound_to 10752
  154.1035  135.2931  155.3226 H   0  0  0  0  0  0  0  0  0  0  0  0  # atno 10765 bound_to 10752
  140.2490  134.7992  157.3483 H   0  0  0  0  0  0  0  0  0  0  0  0  # atno 11005 bound_to 11000
  145.9821  139.2949  143.1036 LP  0  0  0  0  0  0  0  0  0  0  0  0  # atno 17320 bound_to 7965
  145.8999  140.9250  143.0508 LP  0  0  0  0  0  0  0  0  0  0  0  0  # atno 17321 bound_to 7965
  140.7250  143.7029  150.7830 LP  0  0  0  0  0  0  0  0  0  0  0  0  # atno 17342 bound_to 10162
  140.0606  143.5159  152.2630 LP  0  0  0  0  0  0  0  0  0  0  0  0  # atno 17343 bound_to 10162
  156.0908  130.5894  150.9729 LP  0  0  0  0  0  0  0  0  0  0  0  0  # atno 17370 bound_to 10713
  157.6382  131.0913  150.8305 LP  0  0  0  0  0  0  0  0  0  0  0  0  # atno 17371 bound_to 10713
  140.1577  134.4768  155.7916 LP  0  0  0  0  0  0  0  0  0  0  0  0  # atno 17394 bound_to 11000
  141.2203  133.6888  156.7490 LP  0  0  0  0  0  0  0  0  0  0  0  0  # atno 17395 bound_to 11000

$$$$
