AV-unprocessed.smi:1056|AV-procd|sdf|4638|dock9
  -GOLD-   22720 3143D 1   1.00000     0.00000
 Structure written by MMmdl.
 44 46  0  0  0  0  0  0  0  0  1 V2000
  152.1427  143.0580  161.4656 C   0  0  0  0  0  0  0  0  0  0  0  0
  151.6990  142.6757  160.0646 C   0  0  0  0  0  0  0  0  0  0  0  0
  152.2542  141.5264  159.4581 C   0  0  0  0  0  0  0  0  0  0  0  0
  151.8684  141.1358  158.1571 C   0  0  0  0  0  0  0  0  0  0  0  0
  152.2774  140.0645  157.3814 N   0  0  0  0  0  0  0  0  0  0  0  0
  151.5588  140.2442  156.2766 C   0  0  0  0  0  0  0  0  0  0  0  0
  150.7312  141.3064  156.2456 N   0  0  0  0  0  0  0  0  0  0  0  0
  149.8545  141.7058  155.1589 C   0  0  0  0  0  0  0  0  0  0  0  0
  148.9475  140.5551  154.6770 C   0  0  2  0  0  0  0  0  0  0  0  0
  149.7267  139.6779  153.8847 O   0  0  0  0  0  0  0  0  0  0  0  0
  147.7505  141.0674  153.8436 C   0  0  0  0  0  0  0  0  0  0  0  0
  146.8289  141.9664  154.5469 N   0  0  0  0  0  0  0  0  0  0  0  0
  146.1903  141.3531  155.7122 C   0  0  0  0  0  0  0  0  0  0  0  0
  145.3325  142.3619  156.4921 C   0  0  0  0  0  0  0  0  0  0  0  0
  144.4782  143.1522  155.6121 N   0  0  0  0  0  0  0  0  0  0  0  0
  144.6774  143.3038  154.2928 C   0  0  0  0  0  0  0  0  0  0  0  0
  143.9546  144.0250  153.6091 O   0  0  0  0  0  0  0  0  0  0  0  0
  145.8255  142.5227  153.6253 C   0  0  0  0  0  0  0  0  0  0  0  0
  150.9030  141.9323  157.4749 C   0  0  0  0  0  0  0  0  0  0  0  0
  150.3423  143.0774  158.0677 C   0  0  0  0  0  0  0  0  0  0  0  0
  150.7395  143.4538  159.3679 C   0  0  0  0  0  0  0  0  0  0  0  0
  150.1281  144.6916  159.9998 C   0  0  0  0  0  0  0  0  0  0  0  0
  152.9188  142.3867  161.8346 H   0  0  0  0  0  0  0  0  0  0  0  0
  151.3013  143.0102  162.1574 H   0  0  0  0  0  0  0  0  0  0  0  0
  152.5448  144.0711  161.4784 H   0  0  0  0  0  0  0  0  0  0  0  0
  152.9837  140.9326  159.9889 H   0  0  0  0  0  0  0  0  0  0  0  0
  151.6357  139.5626  155.4420 H   0  0  0  0  0  0  0  0  0  0  0  0
  149.2492  142.5434  155.5079 H   0  0  0  0  0  0  0  0  0  0  0  0
  150.4641  142.0830  154.3362 H   0  0  0  0  0  0  0  0  0  0  0  0
  148.5829  140.0103  155.5493 H   0  0  0  0  0  0  0  0  0  0  0  0
  149.9345  140.1131  153.0723 H   0  0  0  0  0  0  0  0  0  0  0  0
  148.1599  141.6212  152.9970 H   0  0  0  0  0  0  0  0  0  0  0  0
  147.2080  140.2316  153.3972 H   0  0  0  0  0  0  0  0  0  0  0  0
  145.5720  140.5118  155.3936 H   0  0  0  0  0  0  0  0  0  0  0  0
  146.9360  140.9495  156.3959 H   0  0  0  0  0  0  0  0  0  0  0  0
  144.7158  141.8480  157.2298 H   0  0  0  0  0  0  0  0  0  0  0  0
  145.9767  143.0499  157.0411 H   0  0  0  0  0  0  0  0  0  0  0  0
  143.7104  143.6504  156.0385 H   0  0  0  0  0  0  0  0  0  0  0  0
  146.3139  143.1748  152.8997 H   0  0  0  0  0  0  0  0  0  0  0  0
  145.3624  141.7162  153.0542 H   0  0  0  0  0  0  0  0  0  0  0  0
  149.6119  143.6596  157.5256 H   0  0  0  0  0  0  0  0  0  0  0  0
  149.3951  145.1550  159.3388 H   0  0  0  0  0  0  0  0  0  0  0  0
  150.8997  145.4315  160.2143 H   0  0  0  0  0  0  0  0  0  0  0  0
  149.6232  144.4357  160.9315 H   0  0  0  0  0  0  0  0  0  0  0  0
  1  2  1  0  0  0  0
  1 23  1  0  0  0  0
  1 24  1  0  0  0  0
  1 25  1  0  0  0  0
  2 21  1  0  0  0  0
  2  3  2  0  0  0  0
  3  4  1  0  0  0  0
  3 26  1  0  0  0  0
  4 19  2  0  0  0  0
  4  5  1  0  0  0  0
  5  6  2  0  0  0  0
  6  7  1  0  0  0  0
  6 27  1  0  0  0  0
  7  8  1  0  0  0  0
  7 19  1  0  0  0  0
  8  9  1  0  0  0  0
  8 28  1  0  0  0  0
  8 29  1  0  0  0  0
  9 10  1  0  0  0  0
  9 11  1  0  0  0  0
  9 30  1  0  0  0  0
 10 31  1  0  0  0  0
 11 12  1  0  0  0  0
 11 32  1  0  0  0  0
 11 33  1  0  0  0  0
 12 18  1  0  0  0  0
 12 13  1  0  0  0  0
 13 14  1  0  0  0  0
 13 34  1  0  0  0  0
 13 35  1  0  0  0  0
 14 15  1  0  0  0  0
 14 36  1  0  0  0  0
 14 37  1  0  0  0  0
 15 16  1  0  0  0  0
 15 38  1  0  0  0  0
 16 17  2  0  0  0  0
 16 18  1  0  0  0  0
 18 39  1  0  0  0  0
 18 40  1  0  0  0  0
 19 20  1  0  0  0  0
 20 21  2  0  0  0  0
 20 41  1  0  0  0  0
 21 22  1  0  0  0  0
 22 42  1  0  0  0  0
 22 43  1  0  0  0  0
 22 44  1  0  0  0  0
M  END
> <s_m_source_file>
AV-unprocessed.smi

> <i_m_source_file_index>
1056

> <i_lp_mmshare_version>
43012

> <i_f3d_flags>
0

> <s_epik_input>
W0NIM11jKFtjSF0xKWMoW0NIM10pW2NIXWMoYzEyKW4oW2NIXW4yKVtDSDJdW0NASF0oW09IXSlbQ0gyXU4zW0NIMl1bQ0gyXVtOSF1DKD1PKVtDSDJdMw==

> <s_epik_cmdline>
J2VwaWtfcHl0aG9uJywgJy1waCcsICc3LjAnLCAnLXRuJywgJzgnLCAnLW1hJywgJzIwMCcsICctbWV0YWxfYmluZGluZycsICctaW1hZScsICc8aW5maWxlLm1hZT4nLCAnLW9tYWUnLCAnPG91dGZpbGUubWFlPic=

> <r_epik_Ionization_Penalty>
1.40166

> <r_epik_Ionization_Penalty_Charging>
0

> <r_epik_Ionization_Penalty_Neutral>
1.40166

> <r_epik_State_Penalty>
1.44226

> <r_epik_Charging_Adjusted_Penalty>
1.44226

> <i_epik_Tot_Q>
0

> <i_epik_Tot_abs_Q>
0

> <r_epik_Metal_State_Penalty>
1.50267

> <b_epik_Metal_Only>
0

> <s_lp_Force_Field>
OPLS_2005

> <r_lp_Energy>
30.6142

> <b_lp_Chiralities_Consistent>
1

> <s_lp_Variant>
AV-unprocessed.smi:1056-9

> <Gold.Version>
5.8.1

> <Gold.Id.Protein>
6NUR|6NUR_protein|mol2

> <Gold.PLP.Fitness>
51.3484

> <Gold.PLP.PLP>
-45.7182

> <Gold.PLP.part.hbond>
-2.3122

> <Gold.PLP.part.metal>
0.0000

> <Gold.PLP.part.buried>
-6.9668

> <Gold.PLP.part.nonpolar>
-36.8238

> <Gold.PLP.part.repulsive>
0.2959

> <Gold.PLP.ligand.clash>
0.0000

> <Gold.PLP.ligand.torsion>
0.2101

> <Gold.PLP.Chemscore.Hbond>
2.0000

> <Gold.PLP.Chemscore.CHOScore>
0.0000

> <Gold.PLP.Chemscore.Metal>
0.0000

> <Gold.Chemscore.Hbonds>
donor molecule, donor type, donor heavy atom, donor atom, acceptor molecule, acceptor atom, score
      L1  H    10    31       P1  7957  0.86
      P1  H  7997  8009       L1     5  0.49

> <Gold.PLP.Chemscore.Internal.Correction>
0.0504

> <Gold.Rescore>
     Score         DG    S(hbond)    S(metal)    S(lipo)     H(rot)  DE(clash)    DE(int)     intcor
     17.06     -17.59       1.77        0.00     103.55       2.31       0.25       0.29       ----

> <Gold.Chemscore.Fitness>
17.0617

> <Gold.Chemscore.DG>
-17.5923

> <Gold.Chemscore.ZeroCoef>
-5.4800

> <Gold.Chemscore.Hbond>
1.7733

> <Gold.Chemscore.Metal>
0.0000

> <Gold.Chemscore.Lipo>
103.5466

> <Gold.Chemscore.Internal_Hbond>
0.0000

> <Gold.Chemscore.DEClash>
0.2451

> <Gold.Chemscore.DEInternal>
0.2856

> <Gold.Chemscore.Rot>
2.3147

> <Gold.Chemscore.Internal.Correction>
   9.000000E+99

> <Gold.Chemscore.Hbonds>
donor molecule, donor type, donor heavy atom, donor atom, acceptor molecule, acceptor atom, score
      L1  H    10    31       P1  7957  0.84
      P1  H  7997  8009       L1     5  0.14

> <Gold.Chemscore.Hbond.Weighted>
-5.9229

> <Gold.Chemscore.Metal.Weighted>
-0.0000

> <Gold.Chemscore.Lipo.Weighted>
-12.1149

> <Gold.Chemscore.Internal_Hbond.Weighted>
0.0000

> <Gold.Chemscore.DEClash.Weighted>
0.2451

> <Gold.Chemscore.DEInternal.Weighted>
0.2856

> <Gold.Chemscore.Rot.Weighted>
5.9256

> <Gold.Chemscore.Internal.Correction.Weighted>
   9.000000E+99

> <Gold.Protein.RotatedTorsions>
[ 6907 6896 6895 6894 ] final   49.56 input  -60.11 | X-H torsion
[ 7974 7965 7964 7962 ] final -138.19 input  175.53 | X-H torsion
[ 8008 7997 7996 7995 ] final -173.62 input   59.86 | X-H torsion
[ 10167 10162 10161 10158 ] final -104.65 input  -65.29 | X-H torsion
[ 10718 10713 10712 10709 ] final  -84.53 input   66.30 | X-H torsion
[ 10763 10752 10751 10750 ] final  -11.00 input  -60.55 | X-H torsion
[ 11005 11000 10999 10996 ] final  -95.77 input  -57.11 | X-H torsion

> <Gold.Protein.ActiveResidues>
 VAL166  LYS551  ARG553  GLY616  TRP617  ASP618  TYR619  PRO620  LYS621  CYS622 
 ASP623  PHE694  ASN695  SER759  ASP760  ASP761  ALA762  ILE779  LEU786  VAL792 
 PHE793  MET794  SER795  GLU796  ALA797  LYS798  CYS799  TRP800  GLU811  SER814 

> <Gold.Protein.RotatedAtoms>
  152.2921  134.7709  160.0375 H   0  0  0  0  0  0  0  0  0  0  0  0  # atno 6907 bound_to 6896
  151.8251  133.3395  159.3604 H   0  0  0  0  0  0  0  0  0  0  0  0  # atno 6908 bound_to 6896
  150.7235  134.5465  159.5817 H   0  0  0  0  0  0  0  0  0  0  0  0  # atno 6909 bound_to 6896
  144.8779  140.6464  143.5225 H   0  0  0  0  0  0  0  0  0  0  0  0  # atno 7974 bound_to 7965
  155.9597  140.1142  157.0906 H   0  0  0  0  0  0  0  0  0  0  0  0  # atno 8008 bound_to 7997
  154.4129  140.1184  156.5229 H   0  0  0  0  0  0  0  0  0  0  0  0  # atno 8009 bound_to 7997
  155.6736  140.3473  155.4830 H   0  0  0  0  0  0  0  0  0  0  0  0  # atno 8010 bound_to 7997
  140.2070  143.3775  152.1082 H   0  0  0  0  0  0  0  0  0  0  0  0  # atno 10167 bound_to 10162
  156.0005  130.4701  150.4424 H   0  0  0  0  0  0  0  0  0  0  0  0  # atno 10718 bound_to 10713
  153.4773  135.7017  153.5958 H   0  0  0  0  0  0  0  0  0  0  0  0  # atno 10763 bound_to 10752
  153.4186  135.3831  155.2097 H   0  0  0  0  0  0  0  0  0  0  0  0  # atno 10764 bound_to 10752
  154.8723  135.3922  154.4219 H   0  0  0  0  0  0  0  0  0  0  0  0  # atno 10765 bound_to 10752
  141.1432  133.8049  157.0480 H   0  0  0  0  0  0  0  0  0  0  0  0  # atno 11005 bound_to 11000
  145.4009  139.1598  143.4178 LP  0  0  0  0  0  0  0  0  0  0  0  0  # atno 17320 bound_to 7965
  146.2975  140.4106  142.8716 LP  0  0  0  0  0  0  0  0  0  0  0  0  # atno 17321 bound_to 7965
  139.5194  144.7020  151.5466 LP  0  0  0  0  0  0  0  0  0  0  0  0  # atno 17342 bound_to 10162
  140.6350  143.9001  150.6639 LP  0  0  0  0  0  0  0  0  0  0  0  0  # atno 17343 bound_to 10162
  157.2464  131.0536  151.2406 LP  0  0  0  0  0  0  0  0  0  0  0  0  # atno 17370 bound_to 10713
  157.3571  130.7112  149.6478 LP  0  0  0  0  0  0  0  0  0  0  0  0  # atno 17371 bound_to 10713
  140.0650  134.9734  157.1370 LP  0  0  0  0  0  0  0  0  0  0  0  0  # atno 17394 bound_to 11000
  140.3793  134.2305  155.7172 LP  0  0  0  0  0  0  0  0  0  0  0  0  # atno 17395 bound_to 11000

$$$$
