AV-unprocessed.smi:1978|AV-procd|sdf|8002|dock7
  -GOLD-   2272010183D 1   1.00000     0.00000
 Structure written by MMmdl.
 44 45  0  0  0  0  0  0  0  0  3 V2000
  151.2758  140.9436  158.7431 C   0  0  0  0  0  0  0  0  0  0  0  0
  151.1625  140.1384  157.4941 C   0  0  0  0  0  0  0  0  0  0  0  0
  151.4431  138.8336  157.2031 C   0  0  0  0  0  0  0  0  0  0  0  0
  151.1090  138.7290  155.8251 C   0  0  0  0  0  0  0  0  0  0  0  0
  151.2025  137.6220  155.0723 N   0  5  0  0  0  0  0  0  0  0  0  0
  150.7836  136.4319  155.5583 C   0  0  0  0  0  0  0  0  0  0  0  0
  151.2629  135.8224  156.5173 O   0  0  0  0  0  0  0  0  0  0  0  0
  149.7462  135.9106  154.8879 N   0  0  0  0  0  0  0  0  0  0  0  0
  149.1071  134.6313  155.1766 C   0  0  0  0  0  0  0  0  0  0  0  0
  147.5727  134.6821  154.9642 C   0  0  2  0  0  0  0  0  0  0  0  0
  146.8146  133.7178  155.8999 C   0  0  0  0  0  0  0  0  0  0  0  0
  147.1733  134.4894  153.5330 N   0  3  2  0  0  0  0  0  0  0  0  0
  145.9265  135.2159  153.1520 C   0  0  0  0  0  0  0  0  0  0  0  0
  145.7179  135.2125  151.6307 C   0  0  0  0  0  0  0  0  0  0  0  0
  145.6723  133.7795  151.0957 C   0  0  0  0  0  0  0  0  0  0  0  0
  146.9404  133.0311  151.5189 C   0  0  0  0  0  0  0  0  0  0  0  0
  147.1468  133.0682  153.0489 C   0  0  1  0  0  0  0  0  0  0  0  0
  148.4152  132.2660  153.4046 C   0  0  0  0  0  0  0  0  0  0  0  0
  150.6499  139.8654  155.3284 N   0  0  0  0  0  0  0  0  0  0  0  0
  150.6868  140.7761  156.3909 O   0  0  0  0  0  0  0  0  0  0  0  0
  150.4717  140.6948  159.4356 H   0  0  0  0  0  0  0  0  0  0  0  0
  151.2204  142.0111  158.5290 H   0  0  0  0  0  0  0  0  0  0  0  0
  152.2250  140.7491  159.2424 H   0  0  0  0  0  0  0  0  0  0  0  0
  151.8287  138.0752  157.8678 H   0  0  0  0  0  0  0  0  0  0  0  0
  149.3817  136.4422  154.1108 H   0  0  0  0  0  0  0  0  0  0  0  0
  149.5684  133.8586  154.5606 H   0  0  0  0  0  0  0  0  0  0  0  0
  149.3425  134.3815  156.2108 H   0  0  0  0  0  0  0  0  0  0  0  0
  147.2196  135.6643  155.2708 H   0  0  0  0  0  0  0  0  0  0  0  0
  146.9135  134.0268  156.9410 H   0  0  0  0  0  0  0  0  0  0  0  0
  147.1910  132.6972  155.8366 H   0  0  0  0  0  0  0  0  0  0  0  0
  145.7487  133.7020  155.6713 H   0  0  0  0  0  0  0  0  0  0  0  0
  145.0650  134.7571  153.6388 H   0  0  0  0  0  0  0  0  0  0  0  0
  145.9595  136.2521  153.4832 H   0  0  0  0  0  0  0  0  0  0  0  0
  144.7928  135.7326  151.3798 H   0  0  0  0  0  0  0  0  0  0  0  0
  146.5253  135.7636  151.1465 H   0  0  0  0  0  0  0  0  0  0  0  0
  144.7917  133.2656  151.4835 H   0  0  0  0  0  0  0  0  0  0  0  0
  145.5807  133.7841  150.0092 H   0  0  0  0  0  0  0  0  0  0  0  0
  146.8788  131.9984  151.1732 H   0  0  0  0  0  0  0  0  0  0  0  0
  147.8053  133.4704  151.0193 H   0  0  0  0  0  0  0  0  0  0  0  0
  146.2959  132.5653  153.5101 H   0  0  0  0  0  0  0  0  0  0  0  0
  148.4110  131.2927  152.9132 H   0  0  0  0  0  0  0  0  0  0  0  0
  148.4874  132.0646  154.4732 H   0  0  0  0  0  0  0  0  0  0  0  0
  149.3199  132.7882  153.0914 H   0  0  0  0  0  0  0  0  0  0  0  0
  147.9135  134.9290  153.0051 H   0  0  0  0  0  0  0  0  0  0  0  0
  1  2  1  0  0  0  0
  1 21  1  0  0  0  0
  1 22  1  0  0  0  0
  1 23  1  0  0  0  0
  2 20  1  0  0  0  0
  2  3  2  0  0  0  0
  3  4  1  0  0  0  0
  3 24  1  0  0  0  0
  4  5  1  0  0  0  0
  4 19  2  0  0  0  0
  5  6  1  0  0  0  0
  6  7  2  0  0  0  0
  6  8  1  0  0  0  0
  8  9  1  0  0  0  0
  8 25  1  0  0  0  0
  9 10  1  0  0  0  0
  9 26  1  0  0  0  0
  9 27  1  0  0  0  0
 10 11  1  0  0  0  0
 10 12  1  0  0  0  0
 10 28  1  0  0  0  0
 11 29  1  0  0  0  0
 11 30  1  0  0  0  0
 11 31  1  0  0  0  0
 12 17  1  0  0  0  0
 12 13  1  0  0  0  0
 12 44  1  0  0  0  0
 13 14  1  0  0  0  0
 13 32  1  0  0  0  0
 13 33  1  0  0  0  0
 14 15  1  0  0  0  0
 14 34  1  0  0  0  0
 14 35  1  0  0  0  0
 15 16  1  0  0  0  0
 15 36  1  0  0  0  0
 15 37  1  0  0  0  0
 16 17  1  0  0  0  0
 16 38  1  0  0  0  0
 16 39  1  0  0  0  0
 17 18  1  0  0  0  0
 17 40  1  0  0  0  0
 18 41  1  0  0  0  0
 18 42  1  0  0  0  0
 18 43  1  0  0  0  0
 19 20  1  0  0  0  0
M  CHG  1   5  -1
M  CHG  1  12   1
M  END
> <s_m_source_file>
AV-unprocessed.smi

> <i_m_source_file_index>
1978

> <i_lp_mmshare_version>
43012

> <i_f3d_flags>
0

> <s_epik_input>
W0NIM11jMVtjSF1jKG5vMSlbTkhdQyg9TylbTkhdW0NIMl1bQ0BIXShbQ0gzXSlOMltDSDJdW0NIMl1bQ0gyXVtDSDJdW0NASF0yW0NIM10=

> <s_epik_cmdline>
J2VwaWtfcHl0aG9uJywgJy1waCcsICc3LjAnLCAnLXRuJywgJzgnLCAnLW1hJywgJzIwMCcsICctbWV0YWxfYmluZGluZycsICctaW1hZScsICc8aW5maWxlLm1hZT4nLCAnLW9tYWUnLCAnPG91dGZpbGUubWFlPic=

> <r_epik_Ionization_Penalty>
6.22372

> <r_epik_Ionization_Penalty_Charging>
6.22362

> <r_epik_Ionization_Penalty_Neutral>
9.65074e-05

> <r_epik_State_Penalty>
6.22363

> <r_epik_Charging_Adjusted_Penalty>
12.4472

> <i_epik_Tot_Q>
0

> <i_epik_Tot_abs_Q>
2

> <r_epik_Metal_State_Penalty>
2.16675

> <b_epik_Metal_Only>
1

> <s_lp_Force_Field>
OPLS_2005

> <r_lp_Energy>
9.77909

> <b_lp_Chiralities_Consistent>
1

> <s_lp_Variant>
AV-unprocessed.smi:1978-11

> <Gold.Version>
5.8.1

> <Gold.Id.Protein>
6NUR|6NUR_protein|mol2

> <Gold.PLP.Fitness>
41.9645

> <Gold.PLP.PLP>
-31.4971

> <Gold.PLP.part.hbond>
-5.5708

> <Gold.PLP.part.metal>
0.0000

> <Gold.PLP.part.buried>
-2.6817

> <Gold.PLP.part.nonpolar>
-23.8389

> <Gold.PLP.part.repulsive>
0.4191

> <Gold.PLP.ligand.clash>
0.0000

> <Gold.PLP.ligand.torsion>
1.9029

> <Gold.PLP.Chemscore.Hbond>
4.7040

> <Gold.PLP.Chemscore.CHOScore>
0.0000

> <Gold.PLP.Chemscore.Metal>
0.0000

> <Gold.Chemscore.Hbonds>
donor molecule, donor type, donor heavy atom, donor atom, acceptor molecule, acceptor atom, score
      L1  H     8    25       P1  7948  0.31
      L1  H    12    44       P1  7948  2.00
      P1  H  7989  7998       L1    19  0.31
      P1  H 10752 10763       L1     7  0.02

> <Gold.PLP.Chemscore.Internal.Correction>
0.1612

> <Gold.Rescore>
     Score         DG    S(hbond)    S(metal)    S(lipo)     H(rot)  DE(clash)    DE(int)     intcor
     16.26     -18.57       3.18        0.00      54.22       1.52       0.23       2.08       ----

> <Gold.Chemscore.Fitness>
16.2608

> <Gold.Chemscore.DG>
-18.5716

> <Gold.Chemscore.ZeroCoef>
-5.4800

> <Gold.Chemscore.Hbond>
3.1844

> <Gold.Chemscore.Metal>
0.0000

> <Gold.Chemscore.Lipo>
54.2239

> <Gold.Chemscore.Internal_Hbond>
0.0000

> <Gold.Chemscore.DEClash>
0.2330

> <Gold.Chemscore.DEInternal>
2.0778

> <Gold.Chemscore.Rot>
1.5190

> <Gold.Chemscore.Internal.Correction>
   9.000000E+99

> <Gold.Chemscore.Hbonds>
donor molecule, donor type, donor heavy atom, donor atom, acceptor molecule, acceptor atom, score
      L1  H     8    25       P1  7948  0.28
      L1  H    12    44       P1  7948  0.94
      P1  H  7989  7998       L1    19  0.20

> <Gold.Chemscore.Hbond.Weighted>
-10.6360

> <Gold.Chemscore.Metal.Weighted>
-0.0000

> <Gold.Chemscore.Lipo.Weighted>
-6.3442

> <Gold.Chemscore.Internal_Hbond.Weighted>
0.0000

> <Gold.Chemscore.DEClash.Weighted>
0.2330

> <Gold.Chemscore.DEInternal.Weighted>
2.0778

> <Gold.Chemscore.Rot.Weighted>
3.8886

> <Gold.Chemscore.Internal.Correction.Weighted>
   9.000000E+99

> <Gold.Protein.RotatedTorsions>
[ 6907 6896 6895 6894 ] final    7.62 input  -60.11 | X-H torsion
[ 7974 7965 7964 7962 ] final   34.54 input  175.53 | X-H torsion
[ 8008 7997 7996 7995 ] final  -44.45 input   59.86 | X-H torsion
[ 10167 10162 10161 10158 ] final   24.05 input  -65.29 | X-H torsion
[ 10718 10713 10712 10709 ] final  -65.38 input   66.30 | X-H torsion
[ 10763 10752 10751 10750 ] final   90.17 input  -60.55 | X-H torsion
[ 11005 11000 10999 10996 ] final  171.42 input  -57.11 | X-H torsion

> <Gold.Protein.ActiveResidues>
 VAL166  LYS551  ARG553  GLY616  TRP617  ASP618  TYR619  PRO620  LYS621  CYS622 
 ASP623  PHE694  ASN695  SER759  ASP760  ASP761  ALA762  ILE779  LEU786  VAL792 
 PHE793  MET794  SER795  GLU796  ALA797  LYS798  CYS799  TRP800  GLU811  SER814 

> <Gold.Protein.RotatedAtoms>
  151.6928  135.0943  160.0236 H   0  0  0  0  0  0  0  0  0  0  0  0  # atno 6907 bound_to 6896
  152.3768  133.6487  159.6138 H   0  0  0  0  0  0  0  0  0  0  0  0  # atno 6908 bound_to 6896
  150.7715  133.9097  159.3407 H   0  0  0  0  0  0  0  0  0  0  0  0  # atno 6909 bound_to 6896
  146.1346  139.6256  142.9204 H   0  0  0  0  0  0  0  0  0  0  0  0  # atno 7974 bound_to 7965
  154.3997  140.1422  156.3686 H   0  0  0  0  0  0  0  0  0  0  0  0  # atno 8008 bound_to 7997
  155.8114  140.3472  155.5439 H   0  0  0  0  0  0  0  0  0  0  0  0  # atno 8009 bound_to 7997
  155.8382  140.0922  157.1741 H   0  0  0  0  0  0  0  0  0  0  0  0  # atno 8010 bound_to 7997
  140.5219  143.9988  150.6421 H   0  0  0  0  0  0  0  0  0  0  0  0  # atno 10167 bound_to 10162
  156.0673  130.4246  150.1555 H   0  0  0  0  0  0  0  0  0  0  0  0  # atno 10718 bound_to 10713
  153.1947  135.4444  155.0193 H   0  0  0  0  0  0  0  0  0  0  0  0  # atno 10763 bound_to 10752
  154.8111  135.3295  154.7303 H   0  0  0  0  0  0  0  0  0  0  0  0  # atno 10764 bound_to 10752
  153.7754  135.6981  153.4954 H   0  0  0  0  0  0  0  0  0  0  0  0  # atno 10765 bound_to 10752
  140.3188  134.7455  157.4048 H   0  0  0  0  0  0  0  0  0  0  0  0  # atno 11005 bound_to 11000
  145.5185  141.0433  143.2448 LP  0  0  0  0  0  0  0  0  0  0  0  0  # atno 17320 bound_to 7965
  144.7726  139.6701  143.7188 LP  0  0  0  0  0  0  0  0  0  0  0  0  # atno 17321 bound_to 7965
  140.3339  143.3061  152.0659 LP  0  0  0  0  0  0  0  0  0  0  0  0  # atno 17342 bound_to 10162
  139.4926  144.6490  151.6717 LP  0  0  0  0  0  0  0  0  0  0  0  0  # atno 17343 bound_to 10162
  156.9613  130.9805  151.3478 LP  0  0  0  0  0  0  0  0  0  0  0  0  # atno 17370 bound_to 10713
  157.5723  130.8319  149.8408 LP  0  0  0  0  0  0  0  0  0  0  0  0  # atno 17371 bound_to 10713
  140.0960  134.5537  155.8398 LP  0  0  0  0  0  0  0  0  0  0  0  0  # atno 17394 bound_to 11000
  141.2091  133.6681  156.6418 LP  0  0  0  0  0  0  0  0  0  0  0  0  # atno 17395 bound_to 11000

$$$$
