AV-unprocessed.smi:1793|AV-procd|sdf|7224|dock1
  -GOLD-   22720 8463D 1   1.00000     0.00000
 Structure written by MMmdl.
 46 48  0  0  0  0  0  0  0  0  1 V2000
  143.8938  135.9514  151.8672 C   0  0  0  0  0  0  0  0  0  0  0  0
  145.1023  135.1727  152.4185 C   0  0  2  0  0  0  0  0  0  0  0  0
  146.2407  136.0740  152.5765 N   0  0  0  0  0  0  0  0  0  0  0  0
  146.1918  137.3035  153.1078 C   0  0  0  0  0  0  0  0  0  0  0  0
  145.1567  137.8280  153.5188 O   0  0  0  0  0  0  0  0  0  0  0  0
  147.4061  137.8773  153.1094 N   0  0  0  0  0  0  0  0  0  0  0  0
  147.7488  139.2053  153.4902 C   0  0  0  0  0  0  0  0  0  0  0  0
  146.8252  140.2720  153.3676 C   0  0  0  0  0  0  0  0  0  0  0  0
  147.1871  141.5531  153.8187 C   0  0  0  0  0  0  0  0  0  0  0  0
  148.4572  141.7203  154.3944 C   0  0  0  0  0  0  0  0  0  0  0  0
  149.3419  140.7129  154.5320 N   0  0  0  0  0  0  0  0  0  0  0  0
  149.0138  139.4743  154.0880 C   0  0  0  0  0  0  0  0  0  0  0  0
  149.9885  138.4619  154.2449 N   0  0  0  0  0  0  0  0  0  0  0  0
  149.6812  137.2471  154.9922 C   0  0  0  0  0  0  0  0  0  0  0  0
  151.0356  136.6001  155.2670 C   0  0  0  0  0  0  0  0  0  0  0  0
  151.9358  137.8128  155.4832 C   0  0  0  0  0  0  0  0  0  0  0  0
  151.3633  138.8648  154.5271 C   0  0  0  0  0  0  0  0  0  0  0  0
  145.5099  134.0044  151.5000 C   0  0  2  0  0  0  0  0  0  0  0  0
  144.3660  133.0672  151.1111 C   0  0  0  0  0  0  0  0  0  0  0  0
  145.1157  131.8075  150.7427 C   0  0  0  0  0  0  0  0  0  0  0  0
  146.2441  131.7955  151.7706 C   0  0  0  0  0  0  0  0  0  0  0  0
  146.4457  133.1529  152.1579 O   0  0  0  0  0  0  0  0  0  0  0  0
  143.0156  135.3120  151.7788 H   0  0  0  0  0  0  0  0  0  0  0  0
  144.1054  136.3647  150.8805 H   0  0  0  0  0  0  0  0  0  0  0  0
  143.6220  136.7793  152.5226 H   0  0  0  0  0  0  0  0  0  0  0  0
  144.8394  134.7636  153.3960 H   0  0  0  0  0  0  0  0  0  0  0  0
  147.1369  135.7258  152.2689 H   0  0  0  0  0  0  0  0  0  0  0  0
  148.1451  137.3520  152.6656 H   0  0  0  0  0  0  0  0  0  0  0  0
  145.8382  140.1242  152.9567 H   0  0  0  0  0  0  0  0  0  0  0  0
  146.5019  142.3839  153.7371 H   0  0  0  0  0  0  0  0  0  0  0  0
  148.7699  142.6872  154.7600 H   0  0  0  0  0  0  0  0  0  0  0  0
  149.1965  137.4881  155.9392 H   0  0  0  0  0  0  0  0  0  0  0  0
  149.0229  136.5874  154.4264 H   0  0  0  0  0  0  0  0  0  0  0  0
  151.0176  135.9210  156.1198 H   0  0  0  0  0  0  0  0  0  0  0  0
  151.3675  136.0400  154.3915 H   0  0  0  0  0  0  0  0  0  0  0  0
  151.8381  138.1608  156.5127 H   0  0  0  0  0  0  0  0  0  0  0  0
  152.9894  137.6015  155.2984 H   0  0  0  0  0  0  0  0  0  0  0  0
  151.9286  138.8635  153.5949 H   0  0  0  0  0  0  0  0  0  0  0  0
  151.4195  139.8664  154.9560 H   0  0  0  0  0  0  0  0  0  0  0  0
  145.9849  134.3837  150.5933 H   0  0  0  0  0  0  0  0  0  0  0  0
  143.7143  132.8783  151.9657 H   0  0  0  0  0  0  0  0  0  0  0  0
  143.7571  133.4522  150.2926 H   0  0  0  0  0  0  0  0  0  0  0  0
  144.4957  130.9113  150.7789 H   0  0  0  0  0  0  0  0  0  0  0  0
  145.5260  131.8996  149.7361 H   0  0  0  0  0  0  0  0  0  0  0  0
  145.9541  131.2238  152.6529 H   0  0  0  0  0  0  0  0  0  0  0  0
  147.1587  131.3579  151.3700 H   0  0  0  0  0  0  0  0  0  0  0  0
  1  2  1  0  0  0  0
  1 23  1  0  0  0  0
  1 24  1  0  0  0  0
  1 25  1  0  0  0  0
  2  3  1  0  0  0  0
  2 18  1  0  0  0  0
  2 26  1  0  0  0  0
  3  4  1  0  0  0  0
  3 27  1  0  0  0  0
  4  5  2  0  0  0  0
  4  6  1  0  0  0  0
  6  7  1  0  0  0  0
  6 28  1  0  0  0  0
  7 12  1  0  0  0  0
  7  8  2  0  0  0  0
  8  9  1  0  0  0  0
  8 29  1  0  0  0  0
  9 10  2  0  0  0  0
  9 30  1  0  0  0  0
 10 11  1  0  0  0  0
 10 31  1  0  0  0  0
 11 12  2  0  0  0  0
 12 13  1  0  0  0  0
 13 17  1  0  0  0  0
 13 14  1  0  0  0  0
 14 15  1  0  0  0  0
 14 32  1  0  0  0  0
 14 33  1  0  0  0  0
 15 16  1  0  0  0  0
 15 34  1  0  0  0  0
 15 35  1  0  0  0  0
 16 17  1  0  0  0  0
 16 36  1  0  0  0  0
 16 37  1  0  0  0  0
 17 38  1  0  0  0  0
 17 39  1  0  0  0  0
 18 22  1  0  0  0  0
 18 19  1  0  0  0  0
 18 40  1  0  0  0  0
 19 20  1  0  0  0  0
 19 41  1  0  0  0  0
 19 42  1  0  0  0  0
 20 21  1  0  0  0  0
 20 43  1  0  0  0  0
 20 44  1  0  0  0  0
 21 22  1  0  0  0  0
 21 45  1  0  0  0  0
 21 46  1  0  0  0  0
M  END
> <s_m_source_file>
AV-unprocessed.smi

> <i_m_source_file_index>
1793

> <i_lp_mmshare_version>
43012

> <i_f3d_flags>
0

> <s_epik_input>
TzFbQ0gyXVtDSDJdW0NIMl1bQ0BIXTFbQ0BIXShbQ0gzXSlbTkhdQyg9TylbTkhdYzJbY0hdW2NIXVtjSF1uYzJOM1tDSDJdW0NIMl1bQ0gyXVtDSDJdMw==

> <s_epik_cmdline>
J2VwaWtfcHl0aG9uJywgJy1waCcsICc3LjAnLCAnLXRuJywgJzgnLCAnLW1hJywgJzIwMCcsICctbWV0YWxfYmluZGluZycsICctaW1hZScsICc8aW5maWxlLm1hZT4nLCAnLW9tYWUnLCAnPG91dGZpbGUubWFlPic=

> <r_lp_tautomer_probability>
1

> <r_epik_Ionization_Penalty>
0.0992086

> <r_epik_Ionization_Penalty_Charging>
0

> <r_epik_Ionization_Penalty_Neutral>
0.0992086

> <r_epik_State_Penalty>
0.0887141

> <r_epik_Charging_Adjusted_Penalty>
0.0887141

> <i_epik_Tot_Q>
0

> <i_epik_Tot_abs_Q>
0

> <r_epik_Metal_State_Penalty>
0.075945

> <b_epik_Metal_Only>
0

> <s_lp_Force_Field>
OPLS_2005

> <r_lp_Energy>
46.4352

> <b_lp_Chiralities_Consistent>
1

> <s_lp_Variant>
AV-unprocessed.smi:1793-1

> <Gold.Version>
5.8.1

> <Gold.Id.Protein>
6NUR|6NUR_protein|mol2

> <Gold.PLP.Fitness>
42.8245

> <Gold.PLP.PLP>
-35.0629

> <Gold.PLP.part.hbond>
-2.1465

> <Gold.PLP.part.metal>
0.0000

> <Gold.PLP.part.buried>
-3.1344

> <Gold.PLP.part.nonpolar>
-29.6392

> <Gold.PLP.part.repulsive>
0.7119

> <Gold.PLP.ligand.clash>
0.0000

> <Gold.PLP.ligand.torsion>
0.6591

> <Gold.PLP.Chemscore.Hbond>
1.8960

> <Gold.PLP.Chemscore.CHOScore>
1.0000

> <Gold.PLP.Chemscore.Metal>
0.0000

> <Gold.Chemscore.Hbonds>
donor molecule, donor type, donor heavy atom, donor atom, acceptor molecule, acceptor atom, score
      L1  H     3    27       P1  7948  0.90
      L1  H     6    28       P1  7948  1.00
      L1  C    10    31       P1  8028  1.00

> <Gold.PLP.Chemscore.Internal.Correction>
0.3917

> <Gold.Rescore>
     Score         DG    S(hbond)    S(metal)    S(lipo)     H(rot)  DE(clash)    DE(int)     intcor
     15.46     -18.80       1.90        0.00      89.30       1.36       0.17       3.17       ----

> <Gold.Chemscore.Fitness>
15.4572

> <Gold.Chemscore.DG>
-18.8002

> <Gold.Chemscore.ZeroCoef>
-5.4800

> <Gold.Chemscore.Hbond>
1.9009

> <Gold.Chemscore.Metal>
0.0000

> <Gold.Chemscore.Lipo>
89.3008

> <Gold.Chemscore.Internal_Hbond>
0.0000

> <Gold.Chemscore.DEClash>
0.1723

> <Gold.Chemscore.DEInternal>
3.1707

> <Gold.Chemscore.Rot>
1.3582

> <Gold.Chemscore.Internal.Correction>
   9.000000E+99

> <Gold.Chemscore.Hbonds>
donor molecule, donor type, donor heavy atom, donor atom, acceptor molecule, acceptor atom, score
      L1  H     3    27       P1  7948  0.88
      L1  H     6    28       P1  7948  0.98

> <Gold.Chemscore.Hbond.Weighted>
-6.3491

> <Gold.Chemscore.Metal.Weighted>
-0.0000

> <Gold.Chemscore.Lipo.Weighted>
-10.4482

> <Gold.Chemscore.Internal_Hbond.Weighted>
0.0000

> <Gold.Chemscore.DEClash.Weighted>
0.1723

> <Gold.Chemscore.DEInternal.Weighted>
3.1707

> <Gold.Chemscore.Rot.Weighted>
3.4771

> <Gold.Chemscore.Internal.Correction.Weighted>
   9.000000E+99

> <Gold.Protein.RotatedTorsions>
[ 6907 6896 6895 6894 ] final   67.79 input  -60.11 | X-H torsion
[ 7974 7965 7964 7962 ] final -150.27 input  175.53 | X-H torsion
[ 8008 7997 7996 7995 ] final  107.57 input   59.86 | X-H torsion
[ 10167 10162 10161 10158 ] final  -60.07 input  -65.29 | X-H torsion
[ 10718 10713 10712 10709 ] final  -50.09 input   66.30 | X-H torsion
[ 10763 10752 10751 10750 ] final   92.59 input  -60.55 | X-H torsion
[ 11005 11000 10999 10996 ] final  167.15 input  -57.11 | X-H torsion

> <Gold.Protein.ActiveResidues>
 VAL166  LYS551  ARG553  GLY616  TRP617  ASP618  TYR619  PRO620  LYS621  CYS622 
 ASP623  PHE694  ASN695  SER759  ASP760  ASP761  ALA762  ILE779  LEU786  VAL792 
 PHE793  MET794  SER795  GLU796  ALA797  LYS798  CYS799  TRP800  GLU811  SER814 

> <Gold.Protein.RotatedAtoms>
  152.4576  134.5257  159.9795 H   0  0  0  0  0  0  0  0  0  0  0  0  # atno 6907 bound_to 6896
  151.5314  133.3442  159.2927 H   0  0  0  0  0  0  0  0  0  0  0  0  # atno 6908 bound_to 6896
  150.8526  134.7885  159.7083 H   0  0  0  0  0  0  0  0  0  0  0  0  # atno 6909 bound_to 6896
  144.7917  140.4954  143.5768 H   0  0  0  0  0  0  0  0  0  0  0  0  # atno 7974 bound_to 7965
  156.1834  140.3092  155.9192 H   0  0  0  0  0  0  0  0  0  0  0  0  # atno 8008 bound_to 7997
  155.3334  140.0462  157.3060 H   0  0  0  0  0  0  0  0  0  0  0  0  # atno 8009 bound_to 7997
  154.5368  140.2249  155.8718 H   0  0  0  0  0  0  0  0  0  0  0  0  # atno 8010 bound_to 7997
  140.6095  143.2383  151.5743 H   0  0  0  0  0  0  0  0  0  0  0  0  # atno 10167 bound_to 10162
  156.1832  130.4151  149.9476 H   0  0  0  0  0  0  0  0  0  0  0  0  # atno 10718 bound_to 10713
  153.2209  135.4356  155.0487 H   0  0  0  0  0  0  0  0  0  0  0  0  # atno 10763 bound_to 10752
  154.8249  135.3356  154.6929 H   0  0  0  0  0  0  0  0  0  0  0  0  # atno 10764 bound_to 10752
  153.7361  135.7008  153.5034 H   0  0  0  0  0  0  0  0  0  0  0  0  # atno 10765 bound_to 10752
  140.2738  134.7805  157.3699 H   0  0  0  0  0  0  0  0  0  0  0  0  # atno 11005 bound_to 11000
  145.5776  139.1487  143.3253 LP  0  0  0  0  0  0  0  0  0  0  0  0  # atno 17320 bound_to 7965
  146.2172  140.5907  142.9033 LP  0  0  0  0  0  0  0  0  0  0  0  0  # atno 17321 bound_to 7965
  139.5350  144.2806  152.1232 LP  0  0  0  0  0  0  0  0  0  0  0  0  # atno 17342 bound_to 10162
  140.2003  144.4665  150.6435 LP  0  0  0  0  0  0  0  0  0  0  0  0  # atno 17343 bound_to 10162
  156.7240  130.9018  151.3620 LP  0  0  0  0  0  0  0  0  0  0  0  0  # atno 17370 bound_to 10713
  157.6882  130.9206  150.0442 LP  0  0  0  0  0  0  0  0  0  0  0  0  # atno 17371 bound_to 10713
  140.1348  134.5049  155.8077 LP  0  0  0  0  0  0  0  0  0  0  0  0  # atno 17394 bound_to 11000
  141.2173  133.6803  156.7104 LP  0  0  0  0  0  0  0  0  0  0  0  0  # atno 17395 bound_to 11000

$$$$
