AV-unprocessed.smi:2566|AV-procd|sdf|10072|dock3
  -GOLD-   2272014103D 1   1.00000     0.00000
 Structure written by MMmdl.
 21 22  0  0  0  0  0  0  0  0  2 V2000
  152.7161  138.4707  157.5426 C   0  0  0  0  0  0  0  0  0  0  0  0
  152.7792  139.7882  157.3772 N   0  0  0  0  0  0  0  0  0  0  0  0
  151.9113  140.2107  158.3401 C   0  0  0  0  0  0  0  0  0  0  0  0
  151.5667  141.6506  158.5637 C   0  0  2  0  0  0  0  0  0  0  0  0
  150.9366  142.2996  157.3168 C   0  0  0  0  0  0  0  0  0  0  0  0
  150.7096  143.7377  157.5596 N   0  3  0  0  0  0  0  0  0  0  0  0
  151.9520  144.4177  157.9769 C   0  0  0  0  0  0  0  0  0  0  0  0
  152.5682  143.7013  159.1922 C   0  0  0  0  0  0  0  0  0  0  0  0
  152.7804  142.3267  158.8868 O   0  0  0  0  0  0  0  0  0  0  0  0
  151.3143  139.2526  159.0403 N   0  0  0  0  0  0  0  0  0  0  0  0
  151.8633  138.0736  158.5152 O   0  0  0  0  0  0  0  0  0  0  0  0
  153.2783  137.7553  156.9607 H   0  0  0  0  0  0  0  0  0  0  0  0
  150.8816  141.7195  159.4114 H   0  0  0  0  0  0  0  0  0  0  0  0
  151.5939  142.1840  156.4535 H   0  0  0  0  0  0  0  0  0  0  0  0
  149.9891  141.8208  157.0679 H   0  0  0  0  0  0  0  0  0  0  0  0
  150.3556  144.1696  156.7176 H   0  0  0  0  0  0  0  0  0  0  0  0
  152.6564  144.4188  157.1441 H   0  0  0  0  0  0  0  0  0  0  0  0
  151.7330  145.4589  158.2145 H   0  0  0  0  0  0  0  0  0  0  0  0
  153.5240  144.1569  159.4517 H   0  0  0  0  0  0  0  0  0  0  0  0
  151.9231  143.7946  160.0673 H   0  0  0  0  0  0  0  0  0  0  0  0
  150.0231  143.8379  158.2939 H   0  0  0  0  0  0  0  0  0  0  0  0
  1 11  1  0  0  0  0
  1  2  2  0  0  0  0
  1 12  1  0  0  0  0
  2  3  1  0  0  0  0
  3  4  1  0  0  0  0
  3 10  2  0  0  0  0
  4  9  1  0  0  0  0
  4  5  1  0  0  0  0
  4 13  1  0  0  0  0
  5  6  1  0  0  0  0
  5 14  1  0  0  0  0
  5 15  1  0  0  0  0
  6  7  1  0  0  0  0
  6 16  1  0  0  0  0
  6 21  1  0  0  0  0
  7  8  1  0  0  0  0
  7 17  1  0  0  0  0
  7 18  1  0  0  0  0
  8  9  1  0  0  0  0
  8 19  1  0  0  0  0
  8 20  1  0  0  0  0
 10 11  1  0  0  0  0
M  CHG  1   6   1
M  END
> <s_m_source_file>
AV-unprocessed.smi

> <i_m_source_file_index>
2566

> <i_lp_mmshare_version>
43012

> <i_f3d_flags>
0

> <s_epik_input>
bjFvW2NIXW5jMVtDQEBIXTJbQ0gyXVtOSF1bQ0gyXVtDSDJdTzI=

> <s_epik_cmdline>
J2VwaWtfcHl0aG9uJywgJy1waCcsICc3LjAnLCAnLXRuJywgJzgnLCAnLW1hJywgJzIwMCcsICctbWV0YWxfYmluZGluZycsICctaW1hZScsICc8aW5maWxlLm1hZT4nLCAnLW9tYWUnLCAnPG91dGZpbGUubWFlPic=

> <r_lp_tautomer_probability>
1

> <r_epik_Ionization_Penalty>
0.157575

> <r_epik_Ionization_Penalty_Charging>
0.157575

> <r_epik_Ionization_Penalty_Neutral>
8.82756e-14

> <r_epik_State_Penalty>
0.146877

> <r_epik_Charging_Adjusted_Penalty>
0.304452

> <i_epik_Tot_Q>
1

> <i_epik_Tot_abs_Q>
1

> <r_epik_Metal_State_Penalty>
0.146877

> <b_epik_Metal_Only>
0

> <s_lp_Force_Field>
OPLS_2005

> <r_lp_Energy>
9.76896

> <b_lp_Chiralities_Consistent>
1

> <s_lp_Variant>
AV-unprocessed.smi:2566-1

> <Gold.Version>
5.8.1

> <Gold.Id.Protein>
6NUR|6NUR_protein|mol2

> <Gold.PLP.Fitness>
29.4459

> <Gold.PLP.PLP>
-20.4580

> <Gold.PLP.part.hbond>
-2.0000

> <Gold.PLP.part.metal>
0.0000

> <Gold.PLP.part.buried>
-3.7146

> <Gold.PLP.part.nonpolar>
-14.9887

> <Gold.PLP.part.repulsive>
0.0031

> <Gold.PLP.ligand.clash>
0.0000

> <Gold.PLP.ligand.torsion>
0.0136

> <Gold.PLP.Chemscore.Hbond>
3.0000

> <Gold.PLP.Chemscore.CHOScore>
0.0000

> <Gold.PLP.Chemscore.Metal>
0.0000

> <Gold.Chemscore.Hbonds>
donor molecule, donor type, donor heavy atom, donor atom, acceptor molecule, acceptor atom, score
      L1  H     6    16       P1  8028  2.00
      P1  H  7997  8010       L1     2  1.00

> <Gold.PLP.Chemscore.Internal.Correction>
0.0151

> <Gold.Rescore>
     Score         DG    S(hbond)    S(metal)    S(lipo)     H(rot)  DE(clash)    DE(int)     intcor
     14.00     -14.03       1.83        0.00      42.69       1.00       0.02       0.02       ----

> <Gold.Chemscore.Fitness>
13.9963

> <Gold.Chemscore.DG>
-14.0276

> <Gold.Chemscore.ZeroCoef>
-5.4800

> <Gold.Chemscore.Hbond>
1.8303

> <Gold.Chemscore.Metal>
0.0000

> <Gold.Chemscore.Lipo>
42.6868

> <Gold.Chemscore.Internal_Hbond>
0.0000

> <Gold.Chemscore.DEClash>
0.0154

> <Gold.Chemscore.DEInternal>
0.0159

> <Gold.Chemscore.Rot>
1.0000

> <Gold.Chemscore.Internal.Correction>
   9.000000E+99

> <Gold.Chemscore.Hbonds>
donor molecule, donor type, donor heavy atom, donor atom, acceptor molecule, acceptor atom, score
      L1  H     6    16       P1  8028  0.94
      P1  H  7997  8010       L1     2  0.50

> <Gold.Chemscore.Hbond.Weighted>
-6.1133

> <Gold.Chemscore.Metal.Weighted>
-0.0000

> <Gold.Chemscore.Lipo.Weighted>
-4.9944

> <Gold.Chemscore.Internal_Hbond.Weighted>
0.0000

> <Gold.Chemscore.DEClash.Weighted>
0.0154

> <Gold.Chemscore.DEInternal.Weighted>
0.0159

> <Gold.Chemscore.Rot.Weighted>
2.5600

> <Gold.Chemscore.Internal.Correction.Weighted>
   9.000000E+99

> <Gold.Protein.RotatedTorsions>
[ 6907 6896 6895 6894 ] final   14.00 input  -60.11 | X-H torsion
[ 7974 7965 7964 7962 ] final  165.93 input  175.53 | X-H torsion
[ 8008 7997 7996 7995 ] final   62.59 input   59.86 | X-H torsion
[ 10167 10162 10161 10158 ] final -168.49 input  -65.29 | X-H torsion
[ 10718 10713 10712 10709 ] final    6.48 input   66.30 | X-H torsion
[ 10763 10752 10751 10750 ] final -162.01 input  -60.55 | X-H torsion
[ 11005 11000 10999 10996 ] final  -94.29 input  -57.11 | X-H torsion

> <Gold.Protein.ActiveResidues>
 VAL166  LYS551  ARG553  GLY616  TRP617  ASP618  TYR619  PRO620  LYS621  CYS622 
 ASP623  PHE694  ASN695  SER759  ASP760  ASP761  ALA762  ILE779  LEU786  VAL792 
 PHE793  MET794  SER795  GLU796  ALA797  LYS798  CYS799  TRP800  GLU811  SER814 

> <Gold.Protein.RotatedAtoms>
  151.7952  135.0724  160.0392 H   0  0  0  0  0  0  0  0  0  0  0  0  # atno 6907 bound_to 6896
  152.3128  133.5766  159.5700 H   0  0  0  0  0  0  0  0  0  0  0  0  # atno 6908 bound_to 6896
  150.7328  134.0043  159.3690 H   0  0  0  0  0  0  0  0  0  0  0  0  # atno 6909 bound_to 6896
  144.7482  139.8541  143.6375 H   0  0  0  0  0  0  0  0  0  0  0  0  # atno 7974 bound_to 7965
  155.6168  140.3495  155.4639 H   0  0  0  0  0  0  0  0  0  0  0  0  # atno 8008 bound_to 7997
  156.0111  140.1233  157.0477 H   0  0  0  0  0  0  0  0  0  0  0  0  # atno 8009 bound_to 7997
  154.4281  140.1081  156.5817 H   0  0  0  0  0  0  0  0  0  0  0  0  # atno 8010 bound_to 7997
  139.5982  144.1067  152.1713 H   0  0  0  0  0  0  0  0  0  0  0  0  # atno 10167 bound_to 10162
  156.9228  130.5797  149.5648 H   0  0  0  0  0  0  0  0  0  0  0  0  # atno 10718 bound_to 10713
  154.7253  135.3034  154.8981 H   0  0  0  0  0  0  0  0  0  0  0  0  # atno 10763 bound_to 10752
  153.9841  135.6727  153.4755 H   0  0  0  0  0  0  0  0  0  0  0  0  # atno 10764 bound_to 10752
  153.0869  135.4979  154.8534 H   0  0  0  0  0  0  0  0  0  0  0  0  # atno 10765 bound_to 10752
  141.1474  133.7946  157.0277 H   0  0  0  0  0  0  0  0  0  0  0  0  # atno 11005 bound_to 11000
  146.1395  139.4448  143.0118 LP  0  0  0  0  0  0  0  0  0  0  0  0  # atno 17320 bound_to 7965
  145.7041  141.0127  143.1489 LP  0  0  0  0  0  0  0  0  0  0  0  0  # atno 17321 bound_to 7965
  140.0657  144.5820  150.7229 LP  0  0  0  0  0  0  0  0  0  0  0  0  # atno 17342 bound_to 10162
  140.7229  143.2606  151.4219 LP  0  0  0  0  0  0  0  0  0  0  0  0  # atno 17343 bound_to 10162
  156.0483  130.5556  150.8931 LP  0  0  0  0  0  0  0  0  0  0  0  0  # atno 17370 bound_to 10713
  157.5897  131.0945  150.9139 LP  0  0  0  0  0  0  0  0  0  0  0  0  # atno 17371 bound_to 10713
  140.0774  134.9667  157.1568 LP  0  0  0  0  0  0  0  0  0  0  0  0  # atno 17394 bound_to 11000
  140.3624  134.2479  155.7186 LP  0  0  0  0  0  0  0  0  0  0  0  0  # atno 17395 bound_to 11000

$$$$
