AV-unprocessed.smi:906|AV-procd|sdf|4105|dock5
  -GOLD-   22720 2 03D 1   1.00000     0.00000
 Structure written by MMmdl.
 48 49  0  0  0  0  0  0  0  0  2 V2000
  152.0779  144.1643  161.7682 C   0  0  0  0  0  0  0  0  0  0  0  0
  151.7202  143.4332  160.4914 C   0  0  0  0  0  0  0  0  0  0  0  0
  152.1678  142.1151  160.2612 C   0  0  0  0  0  0  0  0  0  0  0  0
  151.8044  141.4851  159.0558 C   0  0  0  0  0  0  0  0  0  0  0  0
  151.0148  142.1955  158.1279 C   0  0  0  0  0  0  0  0  0  0  0  0
  150.6160  141.5753  156.8002 C   0  0  0  0  0  0  0  0  0  0  0  0
  149.7382  140.3180  156.9482 C   0  0  0  0  0  0  0  0  0  0  0  0
  148.5720  140.3560  156.0690 N   0  0  0  0  0  0  0  0  0  0  0  0
  148.5886  140.2104  154.7324 C   0  0  0  0  0  0  0  0  0  0  0  0
  149.6314  140.0429  154.0992 O   0  0  0  0  0  0  0  0  0  0  0  0
  147.3614  140.1742  154.1565 N   0  0  0  0  0  0  0  0  0  0  0  0
  147.0889  140.1413  152.7125 C   0  0  0  0  0  0  0  0  0  0  0  0
  146.6471  138.7199  152.3155 C   0  0  0  0  0  0  0  0  0  0  0  0
  145.4834  138.2647  153.1262 N   0  3  0  0  0  0  0  0  0  0  0  0
  144.9446  136.9400  152.6929 C   0  0  1  0  0  0  0  0  0  0  0  0
  145.8590  135.7532  153.0606 C   0  0  0  0  0  0  0  0  0  0  0  0
  143.4858  136.7313  153.1558 C   0  0  0  0  0  0  0  0  0  0  0  0
  142.7613  137.8116  152.8635 F   0  0  0  0  0  0  0  0  0  0  0  0
  142.9599  135.6898  152.5115 F   0  0  0  0  0  0  0  0  0  0  0  0
  143.4074  136.4998  154.4654 F   0  0  0  0  0  0  0  0  0  0  0  0
  145.7017  138.4285  154.5922 C   0  0  0  0  0  0  0  0  0  0  0  0
  146.1535  139.8612  154.9252 C   0  0  0  0  0  0  0  0  0  0  0  0
  150.6194  143.5094  158.4558 C   0  0  0  0  0  0  0  0  0  0  0  0
  150.9610  144.1205  159.6101 N   0  0  0  0  0  0  0  0  0  0  0  0
  152.6713  143.5350  162.4320 H   0  0  0  0  0  0  0  0  0  0  0  0
  151.1744  144.4628  162.3007 H   0  0  0  0  0  0  0  0  0  0  0  0
  152.6558  145.0608  161.5417 H   0  0  0  0  0  0  0  0  0  0  0  0
  152.7758  141.5980  160.9888 H   0  0  0  0  0  0  0  0  0  0  0  0
  152.1359  140.4788  158.8449 H   0  0  0  0  0  0  0  0  0  0  0  0
  150.0916  142.3207  156.2008 H   0  0  0  0  0  0  0  0  0  0  0  0
  151.5218  141.3260  156.2465 H   0  0  0  0  0  0  0  0  0  0  0  0
  150.3237  139.4340  156.6951 H   0  0  0  0  0  0  0  0  0  0  0  0
  149.4359  140.1919  157.9892 H   0  0  0  0  0  0  0  0  0  0  0  0
  147.6741  140.4622  156.5180 H   0  0  0  0  0  0  0  0  0  0  0  0
  146.2946  140.8544  152.4864 H   0  0  0  0  0  0  0  0  0  0  0  0
  147.9353  140.4437  152.0959 H   0  0  0  0  0  0  0  0  0  0  0  0
  146.3879  138.7089  151.2561 H   0  0  0  0  0  0  0  0  0  0  0  0
  147.4792  138.0267  152.4467 H   0  0  0  0  0  0  0  0  0  0  0  0
  144.8958  136.9710  151.6031 H   0  0  0  0  0  0  0  0  0  0  0  0
  145.4954  134.8316  152.6058 H   0  0  0  0  0  0  0  0  0  0  0  0
  145.8970  135.5851  154.1369 H   0  0  0  0  0  0  0  0  0  0  0  0
  146.8791  135.9057  152.7080 H   0  0  0  0  0  0  0  0  0  0  0  0
  144.7888  138.2082  155.1426 H   0  0  0  0  0  0  0  0  0  0  0  0
  146.4630  137.7291  154.9395 H   0  0  0  0  0  0  0  0  0  0  0  0
  146.3010  139.9688  156.0009 H   0  0  0  0  0  0  0  0  0  0  0  0
  145.3683  140.5724  154.6649 H   0  0  0  0  0  0  0  0  0  0  0  0
  150.0207  144.0896  157.7694 H   0  0  0  0  0  0  0  0  0  0  0  0
  144.7509  138.9216  152.8968 H   0  0  0  0  0  0  0  0  0  0  0  0
  1  2  1  0  0  0  0
  1 25  1  0  0  0  0
  1 26  1  0  0  0  0
  1 27  1  0  0  0  0
  2 24  1  0  0  0  0
  2  3  2  0  0  0  0
  3  4  1  0  0  0  0
  3 28  1  0  0  0  0
  4  5  2  0  0  0  0
  4 29  1  0  0  0  0
  5  6  1  0  0  0  0
  5 23  1  0  0  0  0
  6  7  1  0  0  0  0
  6 30  1  0  0  0  0
  6 31  1  0  0  0  0
  7  8  1  0  0  0  0
  7 32  1  0  0  0  0
  7 33  1  0  0  0  0
  8  9  1  0  0  0  0
  8 34  1  0  0  0  0
  9 10  2  0  0  0  0
  9 11  1  0  0  0  0
 11 22  1  0  0  0  0
 11 12  1  0  0  0  0
 12 13  1  0  0  0  0
 12 35  1  0  0  0  0
 12 36  1  0  0  0  0
 13 14  1  0  0  0  0
 13 37  1  0  0  0  0
 13 38  1  0  0  0  0
 14 15  1  0  0  0  0
 14 21  1  0  0  0  0
 14 48  1  0  0  0  0
 15 16  1  0  0  0  0
 15 17  1  0  0  0  0
 15 39  1  0  0  0  0
 16 40  1  0  0  0  0
 16 41  1  0  0  0  0
 16 42  1  0  0  0  0
 17 18  1  0  0  0  0
 17 19  1  0  0  0  0
 17 20  1  0  0  0  0
 21 22  1  0  0  0  0
 21 43  1  0  0  0  0
 21 44  1  0  0  0  0
 22 45  1  0  0  0  0
 22 46  1  0  0  0  0
 23 24  2  0  0  0  0
 23 47  1  0  0  0  0
M  CHG  1  14   1
M  END
> <s_m_source_file>
AV-unprocessed.smi

> <i_m_source_file_index>
906

> <i_lp_mmshare_version>
43012

> <i_f3d_flags>
0

> <s_epik_input>
W0NIM11jMVtjSF1bY0hdYyhbY0hdbjEpW0NIMl1bQ0gyXVtOSF1DKD1PKU4yW0NIMl1bQ0gyXU4oW0NASF0oW0NIM10pQyhGKShGKUYpW0NIMl1bQ0gyXTI=

> <s_epik_cmdline>
J2VwaWtfcHl0aG9uJywgJy1waCcsICc3LjAnLCAnLXRuJywgJzgnLCAnLW1hJywgJzIwMCcsICctbWV0YWxfYmluZGluZycsICctaW1hZScsICc8aW5maWxlLm1hZT4nLCAnLW9tYWUnLCAnPG91dGZpbGUubWFlPic=

> <r_epik_Ionization_Penalty>
2.02136

> <r_epik_Ionization_Penalty_Charging>
1.96814

> <r_epik_Ionization_Penalty_Neutral>
0.0532286

> <r_epik_State_Penalty>
2.14285

> <r_epik_Charging_Adjusted_Penalty>
4.11098

> <i_epik_Tot_Q>
1

> <i_epik_Tot_abs_Q>
1

> <r_epik_Metal_State_Penalty>
2.1406

> <b_epik_Metal_Only>
0

> <s_lp_Force_Field>
OPLS_2005

> <r_lp_Energy>
51.1917

> <b_lp_Chiralities_Consistent>
1

> <s_lp_Variant>
AV-unprocessed.smi:906-6

> <Gold.Version>
5.8.1

> <Gold.Id.Protein>
6NUR|6NUR_protein|mol2

> <Gold.PLP.Fitness>
46.1155

> <Gold.PLP.PLP>
-36.7194

> <Gold.PLP.part.hbond>
-2.0000

> <Gold.PLP.part.metal>
0.0000

> <Gold.PLP.part.buried>
-0.8873

> <Gold.PLP.part.nonpolar>
-35.4742

> <Gold.PLP.part.repulsive>
2.4708

> <Gold.PLP.ligand.clash>
1.0600

> <Gold.PLP.ligand.torsion>
0.8186

> <Gold.PLP.Chemscore.Hbond>
2.7771

> <Gold.PLP.Chemscore.CHOScore>
1.0000

> <Gold.PLP.Chemscore.Metal>
0.0000

> <Gold.Chemscore.Hbonds>
donor molecule, donor type, donor heavy atom, donor atom, acceptor molecule, acceptor atom, score
      L1  H    14    48       P1 10175  2.00
      P1  H  7989  7998       L1    10  0.41
      L1  C    23    47       P1  8028  1.00
      L1  C    23    47       P1  8029  0.04

> <Gold.PLP.Chemscore.Internal.Correction>
0.7619

> <Gold.Rescore>
     Score         DG    S(hbond)    S(metal)    S(lipo)     H(rot)  DE(clash)    DE(int)     intcor
     14.74     -19.92       1.74        0.00     109.16       1.62       4.08       1.09       ----

> <Gold.Chemscore.Fitness>
14.7444

> <Gold.Chemscore.DG>
-19.9150

> <Gold.Chemscore.ZeroCoef>
-5.4800

> <Gold.Chemscore.Hbond>
1.7374

> <Gold.Chemscore.Metal>
0.0000

> <Gold.Chemscore.Lipo>
109.1616

> <Gold.Chemscore.Internal_Hbond>
0.0000

> <Gold.Chemscore.DEClash>
4.0810

> <Gold.Chemscore.DEInternal>
1.0896

> <Gold.Chemscore.Rot>
1.6171

> <Gold.Chemscore.Internal.Correction>
   9.000000E+99

> <Gold.Chemscore.Hbonds>
donor molecule, donor type, donor heavy atom, donor atom, acceptor molecule, acceptor atom, score
      L1  H    14    48       P1 10175  1.00
      P1  H  7989  7998       L1    10  0.41

> <Gold.Chemscore.Hbond.Weighted>
-5.8029

> <Gold.Chemscore.Metal.Weighted>
-0.0000

> <Gold.Chemscore.Lipo.Weighted>
-12.7719

> <Gold.Chemscore.Internal_Hbond.Weighted>
0.0000

> <Gold.Chemscore.DEClash.Weighted>
4.0810

> <Gold.Chemscore.DEInternal.Weighted>
1.0896

> <Gold.Chemscore.Rot.Weighted>
4.1398

> <Gold.Chemscore.Internal.Correction.Weighted>
   9.000000E+99

> <Gold.Protein.RotatedTorsions>
[ 6907 6896 6895 6894 ] final -178.71 input  -60.11 | X-H torsion
[ 7974 7965 7964 7962 ] final   82.63 input  175.53 | X-H torsion
[ 8008 7997 7996 7995 ] final  114.03 input   59.86 | X-H torsion
[ 10167 10162 10161 10158 ] final  -26.12 input  -65.29 | X-H torsion
[ 10718 10713 10712 10709 ] final -149.02 input   66.30 | X-H torsion
[ 10763 10752 10751 10750 ] final   21.93 input  -60.55 | X-H torsion
[ 11005 11000 10999 10996 ] final  107.91 input  -57.11 | X-H torsion

> <Gold.Protein.ActiveResidues>
 VAL166  LYS551  ARG553  GLY616  TRP617  ASP618  TYR619  PRO620  LYS621  CYS622 
 ASP623  PHE694  ASN695  SER759  ASP760  ASP761  ALA762  ILE779  LEU786  VAL792 
 PHE793  MET794  SER795  GLU796  ALA797  LYS798  CYS799  TRP800  GLU811  SER814 

> <Gold.Protein.RotatedAtoms>
  151.6416  133.3325  159.3131 H   0  0  0  0  0  0  0  0  0  0  0  0  # atno 6907 bound_to 6896
  150.8005  134.7099  159.6607 H   0  0  0  0  0  0  0  0  0  0  0  0  # atno 6908 bound_to 6896
  152.4097  134.6150  160.0087 H   0  0  0  0  0  0  0  0  0  0  0  0  # atno 6909 bound_to 6896
  145.6225  139.2388  143.2130 H   0  0  0  0  0  0  0  0  0  0  0  0  # atno 7974 bound_to 7965
  156.2296  140.2967  156.0154 H   0  0  0  0  0  0  0  0  0  0  0  0  # atno 8008 bound_to 7997
  155.2262  140.0417  157.2973 H   0  0  0  0  0  0  0  0  0  0  0  0  # atno 8009 bound_to 7997
  154.5973  140.2417  155.7847 H   0  0  0  0  0  0  0  0  0  0  0  0  # atno 8010 bound_to 7997
  140.7284  143.4205  151.0958 H   0  0  0  0  0  0  0  0  0  0  0  0  # atno 10167 bound_to 10162
  156.4278  130.8060  151.2286 H   0  0  0  0  0  0  0  0  0  0  0  0  # atno 10718 bound_to 10713
  153.0955  135.6658  153.9771 H   0  0  0  0  0  0  0  0  0  0  0  0  # atno 10763 bound_to 10752
  153.9356  135.2999  155.3446 H   0  0  0  0  0  0  0  0  0  0  0  0  # atno 10764 bound_to 10752
  154.7374  135.5095  153.9138 H   0  0  0  0  0  0  0  0  0  0  0  0  # atno 10765 bound_to 10752
  139.8835  134.9415  156.5892 H   0  0  0  0  0  0  0  0  0  0  0  0  # atno 11005 bound_to 11000
  146.1420  140.7045  142.9362 LP  0  0  0  0  0  0  0  0  0  0  0  0  # atno 17320 bound_to 7965
  144.7225  140.4420  143.6997 LP  0  0  0  0  0  0  0  0  0  0  0  0  # atno 17321 bound_to 7965
  139.7850  143.8300  152.3143 LP  0  0  0  0  0  0  0  0  0  0  0  0  # atno 17342 bound_to 10162
  139.8264  144.7273  150.9506 LP  0  0  0  0  0  0  0  0  0  0  0  0  # atno 17343 bound_to 10162
  157.7508  131.0208  150.3723 LP  0  0  0  0  0  0  0  0  0  0  0  0  # atno 17370 bound_to 10713
  156.4054  130.3924  149.6930 LP  0  0  0  0  0  0  0  0  0  0  0  0  # atno 17371 bound_to 10713
  140.7968  133.8537  155.8692 LP  0  0  0  0  0  0  0  0  0  0  0  0  # atno 17394 bound_to 11000
  140.9628  134.1633  157.4640 LP  0  0  0  0  0  0  0  0  0  0  0  0  # atno 17395 bound_to 11000

$$$$
