AV-unprocessed.smi:285|AV-procd|sdf|2169|dock7
  -GOLD-   2262021533D 1   1.00000     0.00000
 Structure written by MMmdl.
 31 33  0  0  0  0  0  0  0  0  1 V2000
  149.7341  128.7816  154.1460 N   0  0  0  0  0  0  0  0  0  0  0  0
  148.6301  128.8929  153.3947 C   0  0  0  0  0  0  0  0  0  0  0  0
  148.1748  127.7915  152.7529 N   0  0  0  0  0  0  0  0  0  0  0  0
  147.0742  127.8757  151.9983 C   0  0  0  0  0  0  0  0  0  0  0  0
  146.3028  128.9400  151.7613 N   0  0  0  0  0  0  0  0  0  0  0  0
  146.7640  130.0515  152.4078 C   0  0  0  0  0  0  0  0  0  0  0  0
  147.9180  130.1093  153.2430 C   0  0  0  0  0  0  0  0  0  0  0  0
  148.0881  131.3959  153.7393 N   0  0  0  0  0  0  0  0  0  0  0  0
  147.0832  132.0407  153.2153 C   0  0  0  0  0  0  0  0  0  0  0  0
  146.8219  133.8892  153.5921 Br  0  0  0  0  0  0  0  0  0  0  0  0
  146.2329  131.3261  152.4022 N   0  0  0  0  0  0  0  0  0  0  0  0
  145.0158  131.7893  151.6705 C   0  0  2  0  0  0  0  0  0  0  0  0
  145.2025  131.6841  150.1658 C   0  0  0  0  0  0  0  0  0  0  0  0
  144.2092  132.7236  149.6779 C   0  0  1  0  0  0  0  0  0  0  0  0
  142.9605  132.1155  149.4086 O   0  0  0  0  0  0  0  0  0  0  0  0
  144.0816  133.7170  150.8560 C   0  0  2  0  0  0  0  0  0  0  0  0
  144.6899  135.0949  150.5468 C   0  0  0  0  0  0  0  0  0  0  0  0
  144.2136  135.5691  149.3054 O   0  0  0  0  0  0  0  0  0  0  0  0
  144.8249  133.1379  151.9290 O   0  0  0  0  0  0  0  0  0  0  0  0
  150.0932  129.5886  154.6356 H   0  0  0  0  0  0  0  0  0  0  0  0
  150.2052  127.8917  154.2207 H   0  0  0  0  0  0  0  0  0  0  0  0
  146.7674  126.9599  151.5153 H   0  0  0  0  0  0  0  0  0  0  0  0
  144.1786  131.2042  152.0511 H   0  0  0  0  0  0  0  0  0  0  0  0
  146.2176  131.9813  149.8996 H   0  0  0  0  0  0  0  0  0  0  0  0
  145.0209  130.6700  149.8073 H   0  0  0  0  0  0  0  0  0  0  0  0
  144.5609  133.1990  148.7618 H   0  0  0  0  0  0  0  0  0  0  0  0
  142.2880  132.7788  149.4397 H   0  0  0  0  0  0  0  0  0  0  0  0
  143.0355  133.8215  151.1511 H   0  0  0  0  0  0  0  0  0  0  0  0
  144.4712  135.8124  151.3387 H   0  0  0  0  0  0  0  0  0  0  0  0
  145.7749  135.0211  150.4669 H   0  0  0  0  0  0  0  0  0  0  0  0
  144.7739  135.2354  148.6216 H   0  0  0  0  0  0  0  0  0  0  0  0
  1  2  1  0  0  0  0
  1 20  1  0  0  0  0
  1 21  1  0  0  0  0
  2  7  1  0  0  0  0
  2  3  2  0  0  0  0
  3  4  1  0  0  0  0
  4  5  2  0  0  0  0
  4 22  1  0  0  0  0
  5  6  1  0  0  0  0
  6 11  1  0  0  0  0
  6  7  2  0  0  0  0
  7  8  1  0  0  0  0
  8  9  2  0  0  0  0
  9 10  1  0  0  0  0
  9 11  1  0  0  0  0
 11 12  1  0  0  0  0
 12 19  1  0  0  0  0
 12 13  1  0  0  0  0
 12 23  1  0  0  0  0
 13 14  1  0  0  0  0
 13 24  1  0  0  0  0
 13 25  1  0  0  0  0
 14 15  1  0  0  0  0
 14 16  1  0  0  0  0
 14 26  1  0  0  0  0
 15 27  1  0  0  0  0
 16 17  1  0  0  0  0
 16 19  1  0  0  0  0
 16 28  1  0  0  0  0
 17 18  1  0  0  0  0
 17 29  1  0  0  0  0
 17 30  1  0  0  0  0
 18 31  1  0  0  0  0
M  END
> <s_m_source_file>
AV-unprocessed.smi

> <i_m_source_file_index>
285

> <i_lp_mmshare_version>
43012

> <i_f3d_flags>
0

> <s_epik_input>
bjFbY0hdbmMoW05IMl0pYyhjMTIpbmMoQnIpbjJbQ0BASF0zW0NIMl1bQ0BASF0oW09IXSlbQ0BIXShPMylbQ0gyXVtPSF0=

> <s_epik_cmdline>
J2VwaWtfcHl0aG9uJywgJy1waCcsICc3LjAnLCAnLXRuJywgJzgnLCAnLW1hJywgJzIwMCcsICctbWV0YWxfYmluZGluZycsICctaW1hZScsICc8aW5maWxlLm1hZT4nLCAnLW9tYWUnLCAnPG91dGZpbGUubWFlPic=

> <r_lp_tautomer_probability>
1

> <r_epik_Ionization_Penalty>
0.000103242

> <r_epik_Ionization_Penalty_Charging>
0

> <r_epik_Ionization_Penalty_Neutral>
0.000103242

> <r_epik_State_Penalty>
-0

> <r_epik_Charging_Adjusted_Penalty>
0

> <i_epik_Tot_Q>
0

> <i_epik_Tot_abs_Q>
0

> <r_epik_Metal_State_Penalty>
-0

> <b_epik_Metal_Only>
0

> <s_epik_Chemistry_Notes>
This compound contains an acetal/aminal-like group ( X-CH(R)-Y where X, Y are N, S, or O) that may be acid/base labile, releasing an aldehyde.

> <s_lp_Force_Field>
OPLS_2005

> <r_lp_Energy>
31.1056

> <b_lp_Chiralities_Consistent>
1

> <s_lp_Variant>
AV-unprocessed.smi:285-5

> <Gold.Version>
5.8.1

> <Gold.Id.Protein>
6NUR|6NUR_protein|mol2

> <Gold.PLP.Fitness>
41.3565

> <Gold.PLP.PLP>
-33.2560

> <Gold.PLP.part.hbond>
-4.7838

> <Gold.PLP.part.metal>
0.0000

> <Gold.PLP.part.buried>
-4.7016

> <Gold.PLP.part.nonpolar>
-23.8337

> <Gold.PLP.part.repulsive>
0.4196

> <Gold.PLP.ligand.clash>
0.0000

> <Gold.PLP.ligand.torsion>
0.0923

> <Gold.PLP.Chemscore.Hbond>
2.7550

> <Gold.PLP.Chemscore.CHOScore>
0.0000

> <Gold.PLP.Chemscore.Metal>
0.0000

> <Gold.Chemscore.Hbonds>
donor molecule, donor type, donor heavy atom, donor atom, acceptor molecule, acceptor atom, score
      L1  H    15    27       P1 10186  0.88
      L1  H    18    31       P1  7921  1.00
      P1  H 10785 10796       L1    15  0.83

> <Gold.PLP.Chemscore.Internal.Correction>
0.0201

> <Gold.Rescore>
     Score         DG    S(hbond)    S(metal)    S(lipo)     H(rot)  DE(clash)    DE(int)     intcor
      9.66     -11.34       2.52        0.00      45.04       3.06       0.08       1.60       ----

> <Gold.Chemscore.Fitness>
9.6627

> <Gold.Chemscore.DG>
-11.3435

> <Gold.Chemscore.ZeroCoef>
-5.4800

> <Gold.Chemscore.Hbond>
2.5238

> <Gold.Chemscore.Metal>
0.0000

> <Gold.Chemscore.Lipo>
45.0366

> <Gold.Chemscore.Internal_Hbond>
0.0000

> <Gold.Chemscore.DEClash>
0.0809

> <Gold.Chemscore.DEInternal>
1.5998

> <Gold.Chemscore.Rot>
3.0607

> <Gold.Chemscore.Internal.Correction>
   9.000000E+99

> <Gold.Chemscore.Hbonds>
donor molecule, donor type, donor heavy atom, donor atom, acceptor molecule, acceptor atom, score
      L1  H    15    27       P1 10186  0.86
      L1  H    18    31       P1  7921  1.00
      P1  H 10785 10796       L1    15  0.67

> <Gold.Chemscore.Hbond.Weighted>
-8.4296

> <Gold.Chemscore.Metal.Weighted>
-0.0000

> <Gold.Chemscore.Lipo.Weighted>
-5.2693

> <Gold.Chemscore.Internal_Hbond.Weighted>
0.0000

> <Gold.Chemscore.DEClash.Weighted>
0.0809

> <Gold.Chemscore.DEInternal.Weighted>
1.5998

> <Gold.Chemscore.Rot.Weighted>
7.8354

> <Gold.Chemscore.Internal.Correction.Weighted>
   9.000000E+99

> <Gold.Protein.RotatedTorsions>
[ 6907 6896 6895 6894 ] final  128.08 input  -60.11 | X-H torsion
[ 7974 7965 7964 7962 ] final -154.97 input  175.53 | X-H torsion
[ 8008 7997 7996 7995 ] final  128.65 input   59.86 | X-H torsion
[ 10167 10162 10161 10158 ] final  -38.63 input  -65.29 | X-H torsion
[ 10718 10713 10712 10709 ] final  -81.44 input   66.30 | X-H torsion
[ 10763 10752 10751 10750 ] final   80.12 input  -60.55 | X-H torsion
[ 11005 11000 10999 10996 ] final  -86.58 input  -57.11 | X-H torsion

> <Gold.Protein.ActiveResidues>
 VAL166  LYS551  ARG553  GLY616  TRP617  ASP618  TYR619  PRO620  LYS621  CYS622 
 ASP623  PHE694  ASN695  SER759  ASP760  ASP761  ALA762  ILE779  LEU786  VAL792 
 PHE793  MET794  SER795  GLU796  ALA797  LYS798  CYS799  TRP800  GLU811  SER814 

> <Gold.Protein.RotatedAtoms>
  152.3753  133.6473  159.6118 H   0  0  0  0  0  0  0  0  0  0  0  0  # atno 6907 bound_to 6896
  150.7699  133.9203  159.3405 H   0  0  0  0  0  0  0  0  0  0  0  0  # atno 6908 bound_to 6896
  151.7019  135.0930  160.0303 H   0  0  0  0  0  0  0  0  0  0  0  0  # atno 6909 bound_to 6896
  144.7663  140.4314  143.5940 H   0  0  0  0  0  0  0  0  0  0  0  0  # atno 7974 bound_to 7965
  156.2919  140.2639  156.2470 H   0  0  0  0  0  0  0  0  0  0  0  0  # atno 8008 bound_to 7997
  154.9920  140.0388  157.2342 H   0  0  0  0  0  0  0  0  0  0  0  0  # atno 8009 bound_to 7997
  154.7677  140.2772  155.6167 H   0  0  0  0  0  0  0  0  0  0  0  0  # atno 8010 bound_to 7997
  140.7087  143.3265  151.2668 H   0  0  0  0  0  0  0  0  0  0  0  0  # atno 10167 bound_to 10162
  156.0050  130.4604  150.3954 H   0  0  0  0  0  0  0  0  0  0  0  0  # atno 10718 bound_to 10713
  153.1007  135.4814  154.8862 H   0  0  0  0  0  0  0  0  0  0  0  0  # atno 10763 bound_to 10752
  154.7375  135.3074  154.8787 H   0  0  0  0  0  0  0  0  0  0  0  0  # atno 10764 bound_to 10752
  153.9405  135.6834  153.4798 H   0  0  0  0  0  0  0  0  0  0  0  0  # atno 10765 bound_to 10752
  141.1628  133.7462  156.9182 H   0  0  0  0  0  0  0  0  0  0  0  0  # atno 11005 bound_to 11000
  145.6461  139.1557  143.2888 LP  0  0  0  0  0  0  0  0  0  0  0  0  # atno 17320 bound_to 7965
  146.1772  140.6554  142.9206 LP  0  0  0  0  0  0  0  0  0  0  0  0  # atno 17321 bound_to 7965
  139.6735  143.9979  152.2767 LP  0  0  0  0  0  0  0  0  0  0  0  0  # atno 17342 bound_to 10162
  139.9585  144.6573  150.8102 LP  0  0  0  0  0  0  0  0  0  0  0  0  # atno 17343 bound_to 10162
  157.2026  131.0441  151.2642 LP  0  0  0  0  0  0  0  0  0  0  0  0  # atno 17370 bound_to 10713
  157.3962  130.7308  149.6733 LP  0  0  0  0  0  0  0  0  0  0  0  0  # atno 17371 bound_to 10713
  140.1470  134.9256  157.2542 LP  0  0  0  0  0  0  0  0  0  0  0  0  # atno 17394 bound_to 11000
  140.2768  134.3396  155.7355 LP  0  0  0  0  0  0  0  0  0  0  0  0  # atno 17395 bound_to 11000

$$$$
