AV-unprocessed.smi:564|AV-procd|sdf|2950|dock1
  -GOLD-   2262023453D 1   1.00000     0.00000
 Structure written by MMmdl.
 50 51  0  0  0  0  0  0  0  0  2 V2000
  148.5228  137.2155  158.6940 C   0  0  0  0  0  0  0  0  0  0  0  0
  148.1154  136.5159  159.9595 C   0  0  0  0  0  0  0  0  0  0  0  0
  147.9912  137.2159  161.0743 N   0  0  0  0  0  0  0  0  0  0  0  0
  147.6223  136.3161  162.0077 N   0  0  0  0  0  0  0  0  0  0  0  0
  147.4005  136.7560  163.3714 C   0  0  0  0  0  0  0  0  0  0  0  0
  147.5031  135.0460  161.4793 C   0  0  0  0  0  0  0  0  0  0  0  0
  147.0993  133.8706  162.3097 C   0  0  0  0  0  0  0  0  0  0  0  0
  147.8100  135.1356  160.1476 C   0  0  0  0  0  0  0  0  0  0  0  0
  147.8123  134.0428  159.1078 C   0  0  0  0  0  0  0  0  0  0  0  0
  146.7620  134.3708  158.0487 C   0  0  0  0  0  0  0  0  0  0  0  0
  145.5663  134.3627  158.3389 O   0  0  0  0  0  0  0  0  0  0  0  0
  147.2275  134.7076  156.8361 N   0  0  0  0  0  0  0  0  0  0  0  0
  146.4178  135.2277  155.7393 C   0  0  0  0  0  0  0  0  0  0  0  0
  147.2738  135.8791  154.6288 C   0  0  0  0  0  0  0  0  0  0  0  0
  147.0503  135.2817  153.2787 N   0  3  1  0  0  0  0  0  0  0  0  0
  147.1219  133.7937  153.3349 C   0  0  0  0  0  0  0  0  0  0  0  0
  147.0191  133.1537  151.9445 C   0  0  0  0  0  0  0  0  0  0  0  0
  145.7242  133.5818  151.2562 C   0  0  0  0  0  0  0  0  0  0  0  0
  145.6705  135.1092  151.1911 C   0  0  0  0  0  0  0  0  0  0  0  0
  145.8121  135.7635  152.5839 C   0  0  2  0  0  0  0  0  0  0  0  0
  145.7826  137.2956  152.4017 C   0  0  0  0  0  0  0  0  0  0  0  0
  147.6887  137.2735  157.9950 H   0  0  0  0  0  0  0  0  0  0  0  0
  149.3362  136.6851  158.1986 H   0  0  0  0  0  0  0  0  0  0  0  0
  148.8635  138.2336  158.8866 H   0  0  0  0  0  0  0  0  0  0  0  0
  148.0564  136.2050  164.0458 H   0  0  0  0  0  0  0  0  0  0  0  0
  146.3635  136.5714  163.6520 H   0  0  0  0  0  0  0  0  0  0  0  0
  147.6074  137.8225  163.4714 H   0  0  0  0  0  0  0  0  0  0  0  0
  146.8386  133.0166  161.6845 H   0  0  0  0  0  0  0  0  0  0  0  0
  146.2313  134.1052  162.9262 H   0  0  0  0  0  0  0  0  0  0  0  0
  147.9119  133.5679  162.9702 H   0  0  0  0  0  0  0  0  0  0  0  0
  148.7872  133.9423  158.6295 H   0  0  0  0  0  0  0  0  0  0  0  0
  147.5894  133.0704  159.5487 H   0  0  0  0  0  0  0  0  0  0  0  0
  148.2254  134.6630  156.6857 H   0  0  0  0  0  0  0  0  0  0  0  0
  145.8384  134.3995  155.3319 H   0  0  0  0  0  0  0  0  0  0  0  0
  145.6880  135.9426  156.1220 H   0  0  0  0  0  0  0  0  0  0  0  0
  147.1031  136.9560  154.5960 H   0  0  0  0  0  0  0  0  0  0  0  0
  148.3080  135.7562  154.9380 H   0  0  0  0  0  0  0  0  0  0  0  0
  148.0614  133.4776  153.7865 H   0  0  0  0  0  0  0  0  0  0  0  0
  146.3230  133.4167  153.9756 H   0  0  0  0  0  0  0  0  0  0  0  0
  147.8759  133.4445  151.3365 H   0  0  0  0  0  0  0  0  0  0  0  0
  147.0538  132.0673  152.0298 H   0  0  0  0  0  0  0  0  0  0  0  0
  145.6724  133.1590  150.2522 H   0  0  0  0  0  0  0  0  0  0  0  0
  144.8629  133.1996  151.8055 H   0  0  0  0  0  0  0  0  0  0  0  0
  146.4648  135.4665  150.5362 H   0  0  0  0  0  0  0  0  0  0  0  0
  144.7326  135.4154  150.7265 H   0  0  0  0  0  0  0  0  0  0  0  0
  144.9513  135.4719  153.1879 H   0  0  0  0  0  0  0  0  0  0  0  0
  144.9786  137.5928  151.7278 H   0  0  0  0  0  0  0  0  0  0  0  0
  146.7172  137.6628  151.9775 H   0  0  0  0  0  0  0  0  0  0  0  0
  145.6000  137.8256  153.3356 H   0  0  0  0  0  0  0  0  0  0  0  0
  147.8225  135.5882  152.7038 H   0  0  0  0  0  0  0  0  0  0  0  0
  1  2  1  0  0  0  0
  1 22  1  0  0  0  0
  1 23  1  0  0  0  0
  1 24  1  0  0  0  0
  2  8  1  0  0  0  0
  2  3  2  0  0  0  0
  3  4  1  0  0  0  0
  4  5  1  0  0  0  0
  4  6  1  0  0  0  0
  5 25  1  0  0  0  0
  5 26  1  0  0  0  0
  5 27  1  0  0  0  0
  6  7  1  0  0  0  0
  6  8  2  0  0  0  0
  7 28  1  0  0  0  0
  7 29  1  0  0  0  0
  7 30  1  0  0  0  0
  8  9  1  0  0  0  0
  9 10  1  0  0  0  0
  9 31  1  0  0  0  0
  9 32  1  0  0  0  0
 10 11  2  0  0  0  0
 10 12  1  0  0  0  0
 12 13  1  0  0  0  0
 12 33  1  0  0  0  0
 13 14  1  0  0  0  0
 13 34  1  0  0  0  0
 13 35  1  0  0  0  0
 14 15  1  0  0  0  0
 14 36  1  0  0  0  0
 14 37  1  0  0  0  0
 15 20  1  0  0  0  0
 15 16  1  0  0  0  0
 15 50  1  0  0  0  0
 16 17  1  0  0  0  0
 16 38  1  0  0  0  0
 16 39  1  0  0  0  0
 17 18  1  0  0  0  0
 17 40  1  0  0  0  0
 17 41  1  0  0  0  0
 18 19  1  0  0  0  0
 18 42  1  0  0  0  0
 18 43  1  0  0  0  0
 19 20  1  0  0  0  0
 19 44  1  0  0  0  0
 19 45  1  0  0  0  0
 20 21  1  0  0  0  0
 20 46  1  0  0  0  0
 21 47  1  0  0  0  0
 21 48  1  0  0  0  0
 21 49  1  0  0  0  0
M  CHG  1  15   1
M  END
> <s_m_source_file>
AV-unprocessed.smi

> <i_m_source_file_index>
564

> <i_lp_mmshare_version>
43012

> <i_f3d_flags>
0

> <s_epik_input>
W0NIM11jMW5uKFtDSDNdKWMoW0NIM10pYzFbQ0gyXUMoPU8pW05IXVtDSDJdW0NIMl1OMltDSDJdW0NIMl1bQ0gyXVtDSDJdW0NASF0yW0NIM10=

> <s_epik_cmdline>
J2VwaWtfcHl0aG9uJywgJy1waCcsICc3LjAnLCAnLXRuJywgJzgnLCAnLW1hJywgJzIwMCcsICctbWV0YWxfYmluZGluZycsICctaW1hZScsICc8aW5maWxlLm1hZT4nLCAnLW9tYWUnLCAnPG91dGZpbGUubWFlPic=

> <r_lp_tautomer_probability>
1

> <r_epik_Ionization_Penalty>
0.00456826

> <r_epik_Ionization_Penalty_Charging>
0.00240401

> <r_epik_Ionization_Penalty_Neutral>
0.00216425

> <r_epik_State_Penalty>
-0

> <r_epik_Charging_Adjusted_Penalty>
0.00240401

> <i_epik_Tot_Q>
1

> <i_epik_Tot_abs_Q>
1

> <r_epik_Metal_State_Penalty>
-0

> <b_epik_Metal_Only>
0

> <s_lp_Force_Field>
OPLS_2005

> <r_lp_Energy>
16.3925

> <b_lp_Chiralities_Consistent>
1

> <s_lp_Variant>
AV-unprocessed.smi:564-4

> <Gold.Version>
5.8.1

> <Gold.Id.Protein>
6NUR|6NUR_protein|mol2

> <Gold.PLP.Fitness>
43.3179

> <Gold.PLP.PLP>
-33.4456

> <Gold.PLP.part.hbond>
-3.0000

> <Gold.PLP.part.metal>
0.0000

> <Gold.PLP.part.buried>
-3.9068

> <Gold.PLP.part.nonpolar>
-26.9716

> <Gold.PLP.part.repulsive>
0.0000

> <Gold.PLP.ligand.clash>
0.0000

> <Gold.PLP.ligand.torsion>
0.6655

> <Gold.PLP.Chemscore.Hbond>
3.7120

> <Gold.PLP.Chemscore.CHOScore>
0.0000

> <Gold.PLP.Chemscore.Metal>
0.0000

> <Gold.Chemscore.Hbonds>
donor molecule, donor type, donor heavy atom, donor atom, acceptor molecule, acceptor atom, score
      L1  H    15    50       P1  7948  2.00
      P1  H  6931  6943       L1     3  0.96
      P1  H  6934  6947       L1     3  0.72

> <Gold.PLP.Chemscore.Internal.Correction>
0.0672

> <Gold.Rescore>
     Score         DG    S(hbond)    S(metal)    S(lipo)     H(rot)  DE(clash)    DE(int)     intcor
     17.02     -17.96       2.36        0.00      74.76       1.61       0.19       0.75       ----

> <Gold.Chemscore.Fitness>
17.0218

> <Gold.Chemscore.DG>
-17.9613

> <Gold.Chemscore.ZeroCoef>
-5.4800

> <Gold.Chemscore.Hbond>
2.3555

> <Gold.Chemscore.Metal>
0.0000

> <Gold.Chemscore.Lipo>
74.7550

> <Gold.Chemscore.Internal_Hbond>
0.0000

> <Gold.Chemscore.DEClash>
0.1932

> <Gold.Chemscore.DEInternal>
0.7463

> <Gold.Chemscore.Rot>
1.6142

> <Gold.Chemscore.Internal.Correction>
   9.000000E+99

> <Gold.Chemscore.Hbonds>
donor molecule, donor type, donor heavy atom, donor atom, acceptor molecule, acceptor atom, score
      L1  H    15    50       P1  7948  0.93
      P1  H  6931  6943       L1     3  0.41
      P1  H  6934  6947       L1     3  0.67

> <Gold.Chemscore.Hbond.Weighted>
-7.8674

> <Gold.Chemscore.Metal.Weighted>
-0.0000

> <Gold.Chemscore.Lipo.Weighted>
-8.7463

> <Gold.Chemscore.Internal_Hbond.Weighted>
0.0000

> <Gold.Chemscore.DEClash.Weighted>
0.1932

> <Gold.Chemscore.DEInternal.Weighted>
0.7463

> <Gold.Chemscore.Rot.Weighted>
4.1324

> <Gold.Chemscore.Internal.Correction.Weighted>
   9.000000E+99

> <Gold.Protein.RotatedTorsions>
[ 6907 6896 6895 6894 ] final   -6.89 input  -60.11 | X-H torsion
[ 7974 7965 7964 7962 ] final  -76.21 input  175.53 | X-H torsion
[ 8008 7997 7996 7995 ] final -125.24 input   59.86 | X-H torsion
[ 10167 10162 10161 10158 ] final  -61.30 input  -65.29 | X-H torsion
[ 10718 10713 10712 10709 ] final -149.57 input   66.30 | X-H torsion
[ 10763 10752 10751 10750 ] final  -47.94 input  -60.55 | X-H torsion
[ 11005 11000 10999 10996 ] final -104.40 input  -57.11 | X-H torsion

> <Gold.Protein.ActiveResidues>
 VAL166  LYS551  ARG553  GLY616  TRP617  ASP618  TYR619  PRO620  LYS621  CYS622 
 ASP623  PHE694  ASN695  SER759  ASP760  ASP761  ALA762  ILE779  LEU786  VAL792 
 PHE793  MET794  SER795  GLU796  ALA797  LYS798  CYS799  TRP800  GLU811  SER814 

> <Gold.Protein.RotatedAtoms>
  151.4584  135.1036  159.9717 H   0  0  0  0  0  0  0  0  0  0  0  0  # atno 6907 bound_to 6896
  152.4862  133.8375  159.7146 H   0  0  0  0  0  0  0  0  0  0  0  0  # atno 6908 bound_to 6896
  150.8974  133.7103  159.2915 H   0  0  0  0  0  0  0  0  0  0  0  0  # atno 6909 bound_to 6896
  145.6159  140.9375  143.1164 H   0  0  0  0  0  0  0  0  0  0  0  0  # atno 7974 bound_to 7965
  155.2101  140.0418  157.2932 H   0  0  0  0  0  0  0  0  0  0  0  0  # atno 8008 bound_to 7997
  154.6017  140.2454  155.7755 H   0  0  0  0  0  0  0  0  0  0  0  0  # atno 8009 bound_to 7997
  156.2325  140.2933  156.0235 H   0  0  0  0  0  0  0  0  0  0  0  0  # atno 8010 bound_to 7997
  140.6015  143.2363  151.5918 H   0  0  0  0  0  0  0  0  0  0  0  0  # atno 10167 bound_to 10162
  156.4349  130.8093  151.2321 H   0  0  0  0  0  0  0  0  0  0  0  0  # atno 10718 bound_to 10713
  154.0696  135.6606  153.4822 H   0  0  0  0  0  0  0  0  0  0  0  0  # atno 10763 bound_to 10752
  153.0396  135.5154  154.7580 H   0  0  0  0  0  0  0  0  0  0  0  0  # atno 10764 bound_to 10752
  154.6642  135.3019  154.9795 H   0  0  0  0  0  0  0  0  0  0  0  0  # atno 10765 bound_to 10752
  141.1102  133.8720  157.1606 H   0  0  0  0  0  0  0  0  0  0  0  0  # atno 11005 bound_to 11000
  144.7251  139.7903  143.7368 LP  0  0  0  0  0  0  0  0  0  0  0  0  # atno 17320 bound_to 7965
  146.1469  139.4540  143.0073 LP  0  0  0  0  0  0  0  0  0  0  0  0  # atno 17321 bound_to 7965
  139.5294  144.2960  152.1113 LP  0  0  0  0  0  0  0  0  0  0  0  0  # atno 17342 bound_to 10162
  140.2142  144.4532  150.6372 LP  0  0  0  0  0  0  0  0  0  0  0  0  # atno 17343 bound_to 10162
  157.7507  131.0187  150.3635 LP  0  0  0  0  0  0  0  0  0  0  0  0  # atno 17370 bound_to 10713
  156.3980  130.3910  149.6980 LP  0  0  0  0  0  0  0  0  0  0  0  0  # atno 17371 bound_to 10713
  139.9992  135.0034  157.0152 LP  0  0  0  0  0  0  0  0  0  0  0  0  # atno 17394 bound_to 11000
  140.4795  134.1304  155.7215 LP  0  0  0  0  0  0  0  0  0  0  0  0  # atno 17395 bound_to 11000

$$$$
