AV-unprocessed.smi:1498|AV-procd|sdf|6059|dock4
  -GOLD-   22720 6173D 1   1.00000     0.00000
 Structure written by MMmdl.
 38 39  0  0  0  0  0  0  0  0  2 V2000
  146.7139  138.9846  152.3966 C   0  0  0  0  0  0  0  0  0  0  0  0
  146.5002  139.9358  153.5080 N   0  3  0  0  0  0  0  0  0  0  0  0
  147.5216  141.0153  153.5372 C   0  0  0  0  0  0  0  0  0  0  0  0
  147.2780  141.9879  154.7071 C   0  0  0  0  0  0  0  0  0  0  0  0
  147.2304  141.2238  155.9636 N   0  0  0  0  0  0  0  0  0  0  0  0
  148.2053  141.1764  156.9066 C   0  0  0  0  0  0  0  0  0  0  0  0
  148.1785  140.3830  157.8479 O   0  0  0  0  0  0  0  0  0  0  0  0
  149.1602  142.1149  156.7604 N   0  0  0  0  0  0  0  0  0  0  0  0
  150.3047  142.3240  157.5711 C   0  0  0  0  0  0  0  0  0  0  0  0
  150.7775  143.5955  157.9875 C   0  0  0  0  0  0  0  0  0  0  0  0
  151.8624  143.4818  158.7380 N   0  0  0  0  0  0  0  0  0  0  0  0
  152.0997  142.1481  158.8141 N   0  0  0  0  0  0  0  0  0  0  0  0
  153.2342  141.6615  159.5794 C   0  0  0  0  0  0  0  0  0  0  0  0
  153.4340  140.1578  159.3813 C   0  0  0  0  0  0  0  0  0  0  0  0
  153.7079  139.4301  160.4674 N   0  0  0  0  0  0  0  0  0  0  0  0
  153.3457  139.6599  158.2613 O   0  0  0  0  0  0  0  0  0  0  0  0
  151.1675  141.4114  158.1094 C   0  0  0  0  0  0  0  0  0  0  0  0
  146.1161  140.2701  155.9516 C   0  0  0  0  0  0  0  0  0  0  0  0
  146.3337  139.2524  154.8171 C   0  0  0  0  0  0  0  0  0  0  0  0
  147.6545  138.4456  152.5180 H   0  0  0  0  0  0  0  0  0  0  0  0
  146.7406  139.5093  151.4411 H   0  0  0  0  0  0  0  0  0  0  0  0
  145.9045  138.2552  152.3533 H   0  0  0  0  0  0  0  0  0  0  0  0
  148.5146  140.5716  153.6277 H   0  0  0  0  0  0  0  0  0  0  0  0
  147.5018  141.5605  152.5928 H   0  0  0  0  0  0  0  0  0  0  0  0
  148.0356  142.7712  154.6916 H   0  0  0  0  0  0  0  0  0  0  0  0
  146.3262  142.5034  154.5701 H   0  0  0  0  0  0  0  0  0  0  0  0
  149.0610  142.7408  155.9746 H   0  0  0  0  0  0  0  0  0  0  0  0
  150.3783  144.5765  157.7757 H   0  0  0  0  0  0  0  0  0  0  0  0
  154.1269  142.2009  159.2601 H   0  0  0  0  0  0  0  0  0  0  0  0
  153.0875  141.8827  160.6380 H   0  0  0  0  0  0  0  0  0  0  0  0
  153.8555  138.4347  160.3822 H   0  0  0  0  0  0  0  0  0  0  0  0
  153.7744  139.8802  161.3688 H   0  0  0  0  0  0  0  0  0  0  0  0
  151.2074  140.3332  158.0645 H   0  0  0  0  0  0  0  0  0  0  0  0
  145.9947  139.7504  156.9033 H   0  0  0  0  0  0  0  0  0  0  0  0
  145.1827  140.8125  155.7936 H   0  0  0  0  0  0  0  0  0  0  0  0
  145.4859  138.5682  154.7659 H   0  0  0  0  0  0  0  0  0  0  0  0
  147.2184  138.6487  155.0268 H   0  0  0  0  0  0  0  0  0  0  0  0
  145.6192  140.3942  153.3231 H   0  0  0  0  0  0  0  0  0  0  0  0
  1  2  1  0  0  0  0
  1 20  1  0  0  0  0
  1 21  1  0  0  0  0
  1 22  1  0  0  0  0
  2 19  1  0  0  0  0
  2  3  1  0  0  0  0
  2 38  1  0  0  0  0
  3  4  1  0  0  0  0
  3 23  1  0  0  0  0
  3 24  1  0  0  0  0
  4  5  1  0  0  0  0
  4 25  1  0  0  0  0
  4 26  1  0  0  0  0
  5  6  1  0  0  0  0
  5 18  1  0  0  0  0
  6  7  2  0  0  0  0
  6  8  1  0  0  0  0
  8  9  1  0  0  0  0
  8 27  1  0  0  0  0
  9 17  2  0  0  0  0
  9 10  1  0  0  0  0
 10 11  2  0  0  0  0
 10 28  1  0  0  0  0
 11 12  1  0  0  0  0
 12 13  1  0  0  0  0
 12 17  1  0  0  0  0
 13 14  1  0  0  0  0
 13 29  1  0  0  0  0
 13 30  1  0  0  0  0
 14 15  1  0  0  0  0
 14 16  2  0  0  0  0
 15 31  1  0  0  0  0
 15 32  1  0  0  0  0
 17 33  1  0  0  0  0
 18 19  1  0  0  0  0
 18 34  1  0  0  0  0
 18 35  1  0  0  0  0
 19 36  1  0  0  0  0
 19 37  1  0  0  0  0
M  CHG  1   2   1
M  END
> <s_m_source_file>
AV-unprocessed.smi

> <i_m_source_file_index>
1498

> <i_lp_mmshare_version>
43012

> <i_f3d_flags>
0

> <s_epik_input>
W0NIM11OMVtDSDJdW0NIMl1OKFtDSDJdW0NIMl0xKUMoPU8pW05IXWMyW2NIXW5uKFtjSF0yKVtDSDJdQyg9TylbTkgyXQ==

> <s_epik_cmdline>
J2VwaWtfcHl0aG9uJywgJy1waCcsICc3LjAnLCAnLXRuJywgJzgnLCAnLW1hJywgJzIwMCcsICctbWV0YWxfYmluZGluZycsICctaW1hZScsICc8aW5maWxlLm1hZT4nLCAnLW9tYWUnLCAnPG91dGZpbGUubWFlPic=

> <r_lp_tautomer_probability>
1

> <r_epik_Ionization_Penalty>
0.25453

> <r_epik_Ionization_Penalty_Charging>
0.254506

> <r_epik_Ionization_Penalty_Neutral>
2.46477e-05

> <r_epik_State_Penalty>
0.245983

> <r_epik_Charging_Adjusted_Penalty>
0.500488

> <i_epik_Tot_Q>
1

> <i_epik_Tot_abs_Q>
1

> <r_epik_Metal_State_Penalty>
0.245984

> <b_epik_Metal_Only>
0

> <s_lp_Force_Field>
OPLS_2005

> <r_lp_Energy>
51.0402

> <b_lp_Chiralities_Consistent>
1

> <s_lp_Variant>
AV-unprocessed.smi:1498-1

> <Gold.Version>
5.8.1

> <Gold.Id.Protein>
6NUR|6NUR_protein|mol2

> <Gold.PLP.Fitness>
40.3114

> <Gold.PLP.PLP>
-28.0603

> <Gold.PLP.part.hbond>
-3.2001

> <Gold.PLP.part.metal>
0.0000

> <Gold.PLP.part.buried>
-4.3366

> <Gold.PLP.part.nonpolar>
-21.7771

> <Gold.PLP.part.repulsive>
0.0982

> <Gold.PLP.ligand.clash>
0.0000

> <Gold.PLP.ligand.torsion>
0.6537

> <Gold.PLP.Chemscore.Hbond>
3.7180

> <Gold.PLP.Chemscore.CHOScore>
0.7846

> <Gold.PLP.Chemscore.Metal>
0.0000

> <Gold.Chemscore.Hbonds>
donor molecule, donor type, donor heavy atom, donor atom, acceptor molecule, acceptor atom, score
      L1  H     2    38       P1 10175  1.59
      L1  H     8    27       P1  8028  0.75
      P1  H  7997  8010       L1    16  0.99
      L1  C    10    28       P1  8028  0.68
      L1  C    10    28       P1  8029  0.05

> <Gold.PLP.Chemscore.Internal.Correction>
0.0509

> <Gold.Rescore>
     Score         DG    S(hbond)    S(metal)    S(lipo)     H(rot)  DE(clash)    DE(int)     intcor
     16.19     -16.64       2.55        0.00      56.59       1.55       0.03       0.42       ----

> <Gold.Chemscore.Fitness>
16.1907

> <Gold.Chemscore.DG>
-16.6415

> <Gold.Chemscore.ZeroCoef>
-5.4800

> <Gold.Chemscore.Hbond>
2.5469

> <Gold.Chemscore.Metal>
0.0000

> <Gold.Chemscore.Lipo>
56.5934

> <Gold.Chemscore.Internal_Hbond>
0.0000

> <Gold.Chemscore.DEClash>
0.0295

> <Gold.Chemscore.DEInternal>
0.4213

> <Gold.Chemscore.Rot>
1.5494

> <Gold.Chemscore.Internal.Correction>
   9.000000E+99

> <Gold.Chemscore.Hbonds>
donor molecule, donor type, donor heavy atom, donor atom, acceptor molecule, acceptor atom, score
      L1  H     2    38       P1 10175  0.74
      L1  H     8    27       P1  8028  0.72
      P1  H  7997  8010       L1    16  0.94

> <Gold.Chemscore.Hbond.Weighted>
-8.5066

> <Gold.Chemscore.Metal.Weighted>
-0.0000

> <Gold.Chemscore.Lipo.Weighted>
-6.6214

> <Gold.Chemscore.Internal_Hbond.Weighted>
0.0000

> <Gold.Chemscore.DEClash.Weighted>
0.0295

> <Gold.Chemscore.DEInternal.Weighted>
0.4213

> <Gold.Chemscore.Rot.Weighted>
3.9665

> <Gold.Chemscore.Internal.Correction.Weighted>
   9.000000E+99

> <Gold.Protein.RotatedTorsions>
[ 6907 6896 6895 6894 ] final -162.69 input  -60.11 | X-H torsion
[ 7974 7965 7964 7962 ] final -107.63 input  175.53 | X-H torsion
[ 8008 7997 7996 7995 ] final   50.17 input   59.86 | X-H torsion
[ 10167 10162 10161 10158 ] final -100.83 input  -65.29 | X-H torsion
[ 10718 10713 10712 10709 ] final -129.07 input   66.30 | X-H torsion
[ 10763 10752 10751 10750 ] final   87.00 input  -60.55 | X-H torsion
[ 11005 11000 10999 10996 ] final   38.11 input  -57.11 | X-H torsion

> <Gold.Protein.ActiveResidues>
 VAL166  LYS551  ARG553  GLY616  TRP617  ASP618  TYR619  PRO620  LYS621  CYS622 
 ASP623  PHE694  ASN695  SER759  ASP760  ASP761  ALA762  ILE779  LEU786  VAL792 
 PHE793  MET794  SER795  GLU796  ALA797  LYS798  CYS799  TRP800  GLU811  SER814 

> <Gold.Protein.RotatedAtoms>
  151.3843  133.3810  159.2713 H   0  0  0  0  0  0  0  0  0  0  0  0  # atno 6907 bound_to 6896
  150.9553  134.8949  159.7708 H   0  0  0  0  0  0  0  0  0  0  0  0  # atno 6908 bound_to 6896
  152.5128  134.3800  159.9400 H   0  0  0  0  0  0  0  0  0  0  0  0  # atno 6909 bound_to 6896
  145.2029  140.9064  143.3359 H   0  0  0  0  0  0  0  0  0  0  0  0  # atno 7974 bound_to 7965
  155.4144  140.3443  155.4266 H   0  0  0  0  0  0  0  0  0  0  0  0  # atno 8008 bound_to 7997
  156.1430  140.1548  156.8923 H   0  0  0  0  0  0  0  0  0  0  0  0  # atno 8009 bound_to 7997
  154.4987  140.0821  156.7732 H   0  0  0  0  0  0  0  0  0  0  0  0  # atno 8010 bound_to 7997
  140.2478  143.3494  152.0743 H   0  0  0  0  0  0  0  0  0  0  0  0  # atno 10167 bound_to 10162
  156.2011  130.6858  151.0541 H   0  0  0  0  0  0  0  0  0  0  0  0  # atno 10718 bound_to 10713
  153.1625  135.4560  154.9791 H   0  0  0  0  0  0  0  0  0  0  0  0  # atno 10763 bound_to 10752
  154.7908  135.3220  154.7784 H   0  0  0  0  0  0  0  0  0  0  0  0  # atno 10764 bound_to 10752
  153.8272  135.6941  153.4874 H   0  0  0  0  0  0  0  0  0  0  0  0  # atno 10765 bound_to 10752
  140.2159  134.3699  155.8027 H   0  0  0  0  0  0  0  0  0  0  0  0  # atno 11005 bound_to 11000
  144.9930  139.3671  143.6205 LP  0  0  0  0  0  0  0  0  0  0  0  0  # atno 17320 bound_to 7965
  146.3414  139.9121  142.8779 LP  0  0  0  0  0  0  0  0  0  0  0  0  # atno 17321 bound_to 7965
  139.5056  144.6798  151.6037 LP  0  0  0  0  0  0  0  0  0  0  0  0  # atno 17342 bound_to 10162
  140.6064  143.9516  150.6422 LP  0  0  0  0  0  0  0  0  0  0  0  0  # atno 17343 bound_to 10162
  157.6986  131.0784  150.6891 LP  0  0  0  0  0  0  0  0  0  0  0  0  # atno 17370 bound_to 10713
  156.6948  130.4606  149.5589 LP  0  0  0  0  0  0  0  0  0  0  0  0  # atno 17371 bound_to 10713
  141.2225  133.7167  156.8495 LP  0  0  0  0  0  0  0  0  0  0  0  0  # atno 17394 bound_to 11000
  140.1901  134.8971  157.3051 LP  0  0  0  0  0  0  0  0  0  0  0  0  # atno 17395 bound_to 11000

$$$$
