AV-unprocessed.smi:1470|AV-procd|sdf|5960|dock1
  -GOLD-   22720 6 43D 1   1.00000     0.00000
 Structure written by MMmdl.
 42 43  0  0  0  0  0  0  0  0  1 V2000
  144.7151  135.3971  150.7228 C   0  0  0  0  0  0  0  0  0  0  0  0
  145.8821  136.0073  151.2442 O   0  0  0  0  0  0  0  0  0  0  0  0
  145.5969  137.1614  152.0172 C   0  0  0  0  0  0  0  0  0  0  0  0
  146.4624  138.3367  151.5381 C   0  0  0  0  0  0  0  0  0  0  0  0
  147.6982  138.4467  152.3061 N   0  0  0  0  0  0  0  0  0  0  0  0
  147.9201  139.3309  153.2891 C   0  0  0  0  0  0  0  0  0  0  0  0
  147.0829  140.1479  153.6718 O   0  0  0  0  0  0  0  0  0  0  0  0
  149.1530  139.1862  153.8039 N   0  0  0  0  0  0  0  0  0  0  0  0
  149.7805  139.9696  154.8092 C   0  0  0  0  0  0  0  0  0  0  0  0
  150.9544  139.4726  155.4070 C   0  0  0  0  0  0  0  0  0  0  0  0
  151.6062  140.2435  156.3882 C   0  0  0  0  0  0  0  0  0  0  0  0
  151.0713  141.5042  156.7430 C   0  0  0  0  0  0  0  0  0  0  0  0
  151.7087  142.2949  157.7241 N   0  0  0  0  0  0  0  0  0  0  0  0
  151.4625  143.7395  157.6985 C   0  0  0  0  0  0  0  0  0  0  0  0
  152.4963  144.4959  158.5500 C   0  0  0  0  0  0  0  0  0  0  0  0
  152.5543  143.9320  159.9771 C   0  0  0  0  0  0  0  0  0  0  0  0
  152.8234  142.4206  159.9329 C   0  0  0  0  0  0  0  0  0  0  0  0
  151.7835  141.6982  159.0593 C   0  0  0  0  0  0  0  0  0  0  0  0
  149.9521  141.9905  156.1523 N   0  0  0  0  0  0  0  0  0  0  0  0
  149.3279  141.2472  155.2146 C   0  0  0  0  0  0  0  0  0  0  0  0
  144.9915  134.5181  150.1407 H   0  0  0  0  0  0  0  0  0  0  0  0
  144.1729  136.0790  150.0665 H   0  0  0  0  0  0  0  0  0  0  0  0
  144.0475  135.0749  151.5229 H   0  0  0  0  0  0  0  0  0  0  0  0
  144.5426  137.4184  151.9039 H   0  0  0  0  0  0  0  0  0  0  0  0
  145.7721  136.9672  153.0768 H   0  0  0  0  0  0  0  0  0  0  0  0
  146.6674  138.2556  150.4693 H   0  0  0  0  0  0  0  0  0  0  0  0
  145.9111  139.2672  151.6746 H   0  0  0  0  0  0  0  0  0  0  0  0
  148.4420  137.8089  152.0636 H   0  0  0  0  0  0  0  0  0  0  0  0
  149.6911  138.4033  153.4630 H   0  0  0  0  0  0  0  0  0  0  0  0
  151.3543  138.5109  155.1205 H   0  0  0  0  0  0  0  0  0  0  0  0
  152.5116  139.8697  156.8428 H   0  0  0  0  0  0  0  0  0  0  0  0
  151.5076  144.1110  156.6739 H   0  0  0  0  0  0  0  0  0  0  0  0
  150.4562  143.9376  158.0705 H   0  0  0  0  0  0  0  0  0  0  0  0
  153.4801  144.4147  158.0858 H   0  0  0  0  0  0  0  0  0  0  0  0
  152.2521  145.5581  158.5754 H   0  0  0  0  0  0  0  0  0  0  0  0
  153.3310  144.4373  160.5520 H   0  0  0  0  0  0  0  0  0  0  0  0
  151.6102  144.1237  160.4882 H   0  0  0  0  0  0  0  0  0  0  0  0
  153.8225  142.2394  159.5341 H   0  0  0  0  0  0  0  0  0  0  0  0
  152.8133  142.0090  160.9423 H   0  0  0  0  0  0  0  0  0  0  0  0
  150.7990  141.7649  159.5241 H   0  0  0  0  0  0  0  0  0  0  0  0
  152.0345  140.6393  159.0152 H   0  0  0  0  0  0  0  0  0  0  0  0
  148.4611  141.7126  154.7720 H   0  0  0  0  0  0  0  0  0  0  0  0
  1  2  1  0  0  0  0
  1 21  1  0  0  0  0
  1 22  1  0  0  0  0
  1 23  1  0  0  0  0
  2  3  1  0  0  0  0
  3  4  1  0  0  0  0
  3 24  1  0  0  0  0
  3 25  1  0  0  0  0
  4  5  1  0  0  0  0
  4 26  1  0  0  0  0
  4 27  1  0  0  0  0
  5  6  1  0  0  0  0
  5 28  1  0  0  0  0
  6  7  2  0  0  0  0
  6  8  1  0  0  0  0
  8  9  1  0  0  0  0
  8 29  1  0  0  0  0
  9 20  1  0  0  0  0
  9 10  2  0  0  0  0
 10 11  1  0  0  0  0
 10 30  1  0  0  0  0
 11 12  2  0  0  0  0
 11 31  1  0  0  0  0
 12 13  1  0  0  0  0
 12 19  1  0  0  0  0
 13 18  1  0  0  0  0
 13 14  1  0  0  0  0
 14 15  1  0  0  0  0
 14 32  1  0  0  0  0
 14 33  1  0  0  0  0
 15 16  1  0  0  0  0
 15 34  1  0  0  0  0
 15 35  1  0  0  0  0
 16 17  1  0  0  0  0
 16 36  1  0  0  0  0
 16 37  1  0  0  0  0
 17 18  1  0  0  0  0
 17 38  1  0  0  0  0
 17 39  1  0  0  0  0
 18 40  1  0  0  0  0
 18 41  1  0  0  0  0
 19 20  2  0  0  0  0
 20 42  1  0  0  0  0
M  END
> <s_m_source_file>
AV-unprocessed.smi

> <i_m_source_file_index>
1470

> <i_lp_mmshare_version>
43012

> <i_f3d_flags>
0

> <s_epik_input>
W0NIM11PW0NIMl1bQ0gyXVtOSF1DKD1PKVtOSF1jMVtjSF1bY0hdYyhuW2NIXTEpTjJbQ0gyXVtDSDJdW0NIMl1bQ0gyXVtDSDJdMg==

> <s_epik_cmdline>
J2VwaWtfcHl0aG9uJywgJy1waCcsICc3LjAnLCAnLXRuJywgJzgnLCAnLW1hJywgJzIwMCcsICctbWV0YWxfYmluZGluZycsICctaW1hZScsICc8aW5maWxlLm1hZT4nLCAnLW9tYWUnLCAnPG91dGZpbGUubWFlPic=

> <r_lp_tautomer_probability>
1

> <r_epik_Ionization_Penalty>
0.104129

> <r_epik_Ionization_Penalty_Charging>
0

> <r_epik_Ionization_Penalty_Neutral>
0.104129

> <r_epik_State_Penalty>
0.0879167

> <r_epik_Charging_Adjusted_Penalty>
0.0879167

> <i_epik_Tot_Q>
0

> <i_epik_Tot_abs_Q>
0

> <r_epik_Metal_State_Penalty>
0.0753231

> <b_epik_Metal_Only>
0

> <s_lp_Force_Field>
OPLS_2005

> <r_lp_Energy>
19.434

> <b_lp_Chiralities_Consistent>
1

> <s_lp_Variant>
AV-unprocessed.smi:1470-1

> <Gold.Version>
5.8.1

> <Gold.Id.Protein>
6NUR|6NUR_protein|mol2

> <Gold.PLP.Fitness>
44.2174

> <Gold.PLP.PLP>
-42.9524

> <Gold.PLP.part.hbond>
-3.0000

> <Gold.PLP.part.metal>
0.0000

> <Gold.PLP.part.buried>
-1.0323

> <Gold.PLP.part.nonpolar>
-41.6852

> <Gold.PLP.part.repulsive>
2.0954

> <Gold.PLP.ligand.clash>
0.0000

> <Gold.PLP.ligand.torsion>
1.0783

> <Gold.PLP.Chemscore.Hbond>
0.9920

> <Gold.PLP.Chemscore.CHOScore>
0.0000

> <Gold.PLP.Chemscore.Metal>
0.0000

> <Gold.Chemscore.Hbonds>
donor molecule, donor type, donor heavy atom, donor atom, acceptor molecule, acceptor atom, score
      L1  H     5    28       P1  7948  0.99

> <Gold.PLP.Chemscore.Internal.Correction>
0.4456

> <Gold.Rescore>
     Score         DG    S(hbond)    S(metal)    S(lipo)     H(rot)  DE(clash)    DE(int)     intcor
     13.52     -17.25       0.99        0.00     107.45       1.61       1.65       2.08       ----

> <Gold.Chemscore.Fitness>
13.5242

> <Gold.Chemscore.DG>
-17.2521

> <Gold.Chemscore.ZeroCoef>
-5.4800

> <Gold.Chemscore.Hbond>
0.9936

> <Gold.Chemscore.Metal>
0.0000

> <Gold.Chemscore.Lipo>
107.4486

> <Gold.Chemscore.Internal_Hbond>
0.0000

> <Gold.Chemscore.DEClash>
1.6465

> <Gold.Chemscore.DEInternal>
2.0814

> <Gold.Chemscore.Rot>
1.6086

> <Gold.Chemscore.Internal.Correction>
   9.000000E+99

> <Gold.Chemscore.Hbonds>
donor molecule, donor type, donor heavy atom, donor atom, acceptor molecule, acceptor atom, score
      L1  H     5    28       P1  7948  0.94

> <Gold.Chemscore.Hbond.Weighted>
-3.3185

> <Gold.Chemscore.Metal.Weighted>
-0.0000

> <Gold.Chemscore.Lipo.Weighted>
-12.5715

> <Gold.Chemscore.Internal_Hbond.Weighted>
0.0000

> <Gold.Chemscore.DEClash.Weighted>
1.6465

> <Gold.Chemscore.DEInternal.Weighted>
2.0814

> <Gold.Chemscore.Rot.Weighted>
4.1179

> <Gold.Chemscore.Internal.Correction.Weighted>
   9.000000E+99

> <Gold.Protein.RotatedTorsions>
[ 6907 6896 6895 6894 ] final -159.49 input  -60.11 | X-H torsion
[ 7974 7965 7964 7962 ] final  -46.84 input  175.53 | X-H torsion
[ 8008 7997 7996 7995 ] final  167.23 input   59.86 | X-H torsion
[ 10167 10162 10161 10158 ] final  168.32 input  -65.29 | X-H torsion
[ 10718 10713 10712 10709 ] final  164.17 input   66.30 | X-H torsion
[ 10763 10752 10751 10750 ] final -146.70 input  -60.55 | X-H torsion
[ 11005 11000 10999 10996 ] final  158.25 input  -57.11 | X-H torsion

> <Gold.Protein.ActiveResidues>
 VAL166  LYS551  ARG553  GLY616  TRP617  ASP618  TYR619  PRO620  LYS621  CYS622 
 ASP623  PHE694  ASN695  SER759  ASP760  ASP761  ALA762  ILE779  LEU786  VAL792 
 PHE793  MET794  SER795  GLU796  ALA797  LYS798  CYS799  TRP800  GLU811  SER814 

> <Gold.Protein.RotatedAtoms>
  151.3345  133.3987  159.2665 H   0  0  0  0  0  0  0  0  0  0  0  0  # atno 6907 bound_to 6896
  150.9929  134.9260  159.7920 H   0  0  0  0  0  0  0  0  0  0  0  0  # atno 6908 bound_to 6896
  152.5252  134.3310  159.9235 H   0  0  0  0  0  0  0  0  0  0  0  0  # atno 6909 bound_to 6896
  145.9678  140.7414  142.9425 H   0  0  0  0  0  0  0  0  0  0  0  0  # atno 7974 bound_to 7965
  156.1652  140.1622  156.8544 H   0  0  0  0  0  0  0  0  0  0  0  0  # atno 8008 bound_to 7997
  154.5200  140.0780  156.8189 H   0  0  0  0  0  0  0  0  0  0  0  0  # atno 8009 bound_to 7997
  155.3627  140.3396  155.4243 H   0  0  0  0  0  0  0  0  0  0  0  0  # atno 8010 bound_to 7997
  139.4965  144.3827  151.9605 H   0  0  0  0  0  0  0  0  0  0  0  0  # atno 10167 bound_to 10162
  157.0981  131.0435  151.2509 H   0  0  0  0  0  0  0  0  0  0  0  0  # atno 10718 bound_to 10713
  154.8323  135.3379  154.6703 H   0  0  0  0  0  0  0  0  0  0  0  0  # atno 10763 bound_to 10752
  153.7321  135.6951  153.4991 H   0  0  0  0  0  0  0  0  0  0  0  0  # atno 10764 bound_to 10752
  153.2304  135.4418  155.0541 H   0  0  0  0  0  0  0  0  0  0  0  0  # atno 10765 bound_to 10752
  140.1847  134.8450  157.2844 H   0  0  0  0  0  0  0  0  0  0  0  0  # atno 11005 bound_to 11000
  144.6829  140.2698  143.7307 LP  0  0  0  0  0  0  0  0  0  0  0  0  # atno 17320 bound_to 7965
  145.7949  139.1941  143.2081 LP  0  0  0  0  0  0  0  0  0  0  0  0  # atno 17321 bound_to 7965
  140.3263  144.3369  150.5997 LP  0  0  0  0  0  0  0  0  0  0  0  0  # atno 17342 bound_to 10162
  140.5681  143.2184  151.7647 LP  0  0  0  0  0  0  0  0  0  0  0  0  # atno 17343 bound_to 10162
  157.4664  130.7683  149.7283 LP  0  0  0  0  0  0  0  0  0  0  0  0  # atno 17370 bound_to 10713
  155.9880  130.3962  150.3136 LP  0  0  0  0  0  0  0  0  0  0  0  0  # atno 17371 bound_to 10713
  140.2227  134.4004  155.7558 LP  0  0  0  0  0  0  0  0  0  0  0  0  # atno 17394 bound_to 11000
  141.2224  133.7174  156.8516 LP  0  0  0  0  0  0  0  0  0  0  0  0  # atno 17395 bound_to 11000

$$$$
