AV-unprocessed.smi:126|AV-procd|sdf|1152|dock4
  -GOLD-   2262018283D 1   1.00000     0.00000
 Structure written by MMmdl.
 40 42  0  0  0  0  0  0  0  0  1 V2000
  151.9425  136.0850  156.6819 O   0  0  0  0  0  0  0  0  0  0  0  0
  151.6021  137.2231  157.0079 C   0  0  0  0  0  0  0  0  0  0  0  0
  152.4636  138.4340  156.6167 C   0  0  0  0  0  0  0  0  0  0  0  0
  151.7281  139.7170  156.6609 N   0  0  0  0  0  0  0  0  0  0  0  0
  150.9325  140.0777  155.5452 C   0  0  0  0  0  0  0  0  0  0  0  0
  150.8422  139.3415  154.5613 O   0  0  0  0  0  0  0  0  0  0  0  0
  150.2484  141.3619  155.6474 C   0  0  0  0  0  0  0  0  0  0  0  0
  149.4651  141.7807  154.6389 F   0  0  0  0  0  0  0  0  0  0  0  0
  150.3875  142.1384  156.7416 C   0  0  0  0  0  0  0  0  0  0  0  0
  151.1764  141.7783  157.8195 N   0  0  0  0  0  0  0  0  0  0  0  0
  151.3240  142.6630  159.0391 C   0  0  1  0  0  0  0  0  0  0  0  0
  152.7701  143.1771  159.1638 C   0  0  0  0  0  0  0  0  0  0  0  0
  152.5776  144.6690  159.3482 C   0  0  0  0  0  0  0  0  0  0  0  0
  151.2903  144.9162  158.5762 C   0  0  0  0  0  0  0  0  0  0  0  0
  150.4976  143.7858  158.9155 O   0  0  0  0  0  0  0  0  0  0  0  0
  151.8689  140.5482  157.7974 C   0  0  0  0  0  0  0  0  0  0  0  0
  152.5833  140.2142  158.7453 O   0  0  0  0  0  0  0  0  0  0  0  0
  150.5128  137.5101  157.7435 N   0  0  0  0  0  0  0  0  0  0  0  0
  149.5116  136.6248  158.2266 C   0  0  0  0  0  0  0  0  0  0  0  0
  148.9217  136.9312  159.4711 C   0  0  0  0  0  0  0  0  0  0  0  0
  147.9074  136.1113  160.0023 C   0  0  0  0  0  0  0  0  0  0  0  0
  147.4658  134.9834  159.2853 C   0  0  0  0  0  0  0  0  0  0  0  0
  148.0358  134.6796  158.0348 C   0  0  0  0  0  0  0  0  0  0  0  0
  149.0516  135.4976  157.5027 C   0  0  0  0  0  0  0  0  0  0  0  0
  153.3369  138.4757  157.2702 H   0  0  0  0  0  0  0  0  0  0  0  0
  152.8837  138.2469  155.6274 H   0  0  0  0  0  0  0  0  0  0  0  0
  149.8524  143.0754  156.7553 H   0  0  0  0  0  0  0  0  0  0  0  0
  150.9884  142.0613  159.8854 H   0  0  0  0  0  0  0  0  0  0  0  0
  153.2851  142.7008  159.9985 H   0  0  0  0  0  0  0  0  0  0  0  0
  153.3226  142.9759  158.2443 H   0  0  0  0  0  0  0  0  0  0  0  0
  152.4314  144.9017  160.4038 H   0  0  0  0  0  0  0  0  0  0  0  0
  153.4174  145.2578  158.9789 H   0  0  0  0  0  0  0  0  0  0  0  0
  150.8004  145.8486  158.8573 H   0  0  0  0  0  0  0  0  0  0  0  0
  151.4798  144.9357  157.5021 H   0  0  0  0  0  0  0  0  0  0  0  0
  150.4160  138.4727  158.0324 H   0  0  0  0  0  0  0  0  0  0  0  0
  149.2499  137.7966  160.0283 H   0  0  0  0  0  0  0  0  0  0  0  0
  147.4667  136.3492  160.9590 H   0  0  0  0  0  0  0  0  0  0  0  0
  146.6863  134.3556  159.6915 H   0  0  0  0  0  0  0  0  0  0  0  0
  147.6898  133.8207  157.4789 H   0  0  0  0  0  0  0  0  0  0  0  0
  149.4518  135.2506  156.5315 H   0  0  0  0  0  0  0  0  0  0  0  0
  1  2  2  0  0  0  0
  2  3  1  0  0  0  0
  2 18  1  0  0  0  0
  3  4  1  0  0  0  0
  3 25  1  0  0  0  0
  3 26  1  0  0  0  0
  4 16  1  0  0  0  0
  4  5  1  0  0  0  0
  5  6  2  0  0  0  0
  5  7  1  0  0  0  0
  7  8  1  0  0  0  0
  7  9  2  0  0  0  0
  9 10  1  0  0  0  0
  9 27  1  0  0  0  0
 10 11  1  0  0  0  0
 10 16  1  0  0  0  0
 11 15  1  0  0  0  0
 11 12  1  0  0  0  0
 11 28  1  0  0  0  0
 12 13  1  0  0  0  0
 12 29  1  0  0  0  0
 12 30  1  0  0  0  0
 13 14  1  0  0  0  0
 13 31  1  0  0  0  0
 13 32  1  0  0  0  0
 14 15  1  0  0  0  0
 14 33  1  0  0  0  0
 14 34  1  0  0  0  0
 16 17  2  0  0  0  0
 18 19  1  0  0  0  0
 18 35  1  0  0  0  0
 19 24  1  0  0  0  0
 19 20  2  0  0  0  0
 20 21  1  0  0  0  0
 20 36  1  0  0  0  0
 21 22  2  0  0  0  0
 21 37  1  0  0  0  0
 22 23  1  0  0  0  0
 22 38  1  0  0  0  0
 23 24  2  0  0  0  0
 23 39  1  0  0  0  0
 24 40  1  0  0  0  0
M  END
> <s_m_source_file>
AV-unprocessed.smi

> <i_m_source_file_index>
126

> <i_lp_mmshare_version>
43012

> <i_f3d_flags>
0

> <s_epik_input>
W2NIXTFbY0hdW2NIXVtjSF1bY0hdYzFbTkhdQyg9TylbQ0gyXW4yYyg9TyljKEYpW2NIXW4oYzI9TylbQ0BASF0zW0NIMl1bQ0gyXVtDSDJdTzM=

> <s_epik_cmdline>
J2VwaWtfcHl0aG9uJywgJy1waCcsICc3LjAnLCAnLXRuJywgJzgnLCAnLW1hJywgJzIwMCcsICctbWV0YWxfYmluZGluZycsICctaW1hZScsICc8aW5maWxlLm1hZT4nLCAnLW9tYWUnLCAnPG91dGZpbGUubWFlPic=

> <r_lp_tautomer_probability>
1

> <r_epik_Ionization_Penalty>
1.86934e-06

> <r_epik_Ionization_Penalty_Charging>
3.88729e-08

> <r_epik_Ionization_Penalty_Neutral>
1.83046e-06

> <r_epik_State_Penalty>
-0

> <r_epik_Charging_Adjusted_Penalty>
3.88729e-08

> <i_epik_Tot_Q>
0

> <i_epik_Tot_abs_Q>
0

> <r_epik_Metal_State_Penalty>
-0

> <b_epik_Metal_Only>
0

> <s_epik_Chemistry_Notes>
This compound contains an acetal/aminal-like group ( X-CH(R)-Y where X, Y are N, S, or O) that may be acid/base labile, releasing an aldehyde.

> <s_lp_Force_Field>
OPLS_2005

> <r_lp_Energy>
33.9476

> <b_lp_Chiralities_Consistent>
1

> <s_lp_Variant>
AV-unprocessed.smi:126-2

> <Gold.Version>
5.8.1

> <Gold.Id.Protein>
6NUR|6NUR_protein|mol2

> <Gold.PLP.Fitness>
45.8711

> <Gold.PLP.PLP>
-40.4302

> <Gold.PLP.part.hbond>
-2.0000

> <Gold.PLP.part.metal>
0.0000

> <Gold.PLP.part.buried>
-2.9118

> <Gold.PLP.part.nonpolar>
-35.4051

> <Gold.PLP.part.repulsive>
0.3047

> <Gold.PLP.ligand.clash>
0.0000

> <Gold.PLP.ligand.torsion>
0.8914

> <Gold.PLP.Chemscore.Hbond>
1.4000

> <Gold.PLP.Chemscore.CHOScore>
1.0000

> <Gold.PLP.Chemscore.Metal>
0.0000

> <Gold.Chemscore.Hbonds>
donor molecule, donor type, donor heavy atom, donor atom, acceptor molecule, acceptor atom, score
      P1  H  7989  7998       L1     6  0.35
      P1  H 10752 10765       L1     1  0.78
      L1  C     9    27       P1  8028  1.00

> <Gold.PLP.Chemscore.Internal.Correction>
0.0236

> <Gold.Rescore>
     Score         DG    S(hbond)    S(metal)    S(lipo)     H(rot)  DE(clash)    DE(int)     intcor
     12.91     -16.58       1.87        0.00      77.72       1.66       1.18       2.49       ----

> <Gold.Chemscore.Fitness>
12.9100

> <Gold.Chemscore.DG>
-16.5760

> <Gold.Chemscore.ZeroCoef>
-5.4800

> <Gold.Chemscore.Hbond>
1.8734

> <Gold.Chemscore.Metal>
0.0000

> <Gold.Chemscore.Lipo>
77.7248

> <Gold.Chemscore.Internal_Hbond>
0.0000

> <Gold.Chemscore.DEClash>
1.1762

> <Gold.Chemscore.DEInternal>
2.4897

> <Gold.Chemscore.Rot>
1.6621

> <Gold.Chemscore.Internal.Correction>
   9.000000E+99

> <Gold.Chemscore.Hbonds>
donor molecule, donor type, donor heavy atom, donor atom, acceptor molecule, acceptor atom, score
      P1  H  7989  7998       L1     6  0.01
      P1  H 10752 10765       L1     1  0.79

> <Gold.Chemscore.Hbond.Weighted>
-6.2572

> <Gold.Chemscore.Metal.Weighted>
-0.0000

> <Gold.Chemscore.Lipo.Weighted>
-9.0938

> <Gold.Chemscore.Internal_Hbond.Weighted>
0.0000

> <Gold.Chemscore.DEClash.Weighted>
1.1762

> <Gold.Chemscore.DEInternal.Weighted>
2.4897

> <Gold.Chemscore.Rot.Weighted>
4.2550

> <Gold.Chemscore.Internal.Correction.Weighted>
   9.000000E+99

> <Gold.Protein.RotatedTorsions>
[ 6907 6896 6895 6894 ] final  105.79 input  -60.11 | X-H torsion
[ 7974 7965 7964 7962 ] final  143.30 input  175.53 | X-H torsion
[ 8008 7997 7996 7995 ] final  -37.46 input   59.86 | X-H torsion
[ 10167 10162 10161 10158 ] final -126.23 input  -65.29 | X-H torsion
[ 10718 10713 10712 10709 ] final  177.17 input   66.30 | X-H torsion
[ 10763 10752 10751 10750 ] final -135.44 input  -60.55 | X-H torsion
[ 11005 11000 10999 10996 ] final -169.40 input  -57.11 | X-H torsion

> <Gold.Protein.ActiveResidues>
 VAL166  LYS551  ARG553  GLY616  TRP617  ASP618  TYR619  PRO620  LYS621  CYS622 
 ASP623  PHE694  ASN695  SER759  ASP760  ASP761  ALA762  ILE779  LEU786  VAL792 
 PHE793  MET794  SER795  GLU796  ALA797  LYS798  CYS799  TRP800  GLU811  SER814 

> <Gold.Protein.RotatedAtoms>
  152.5217  133.9476  159.7656 H   0  0  0  0  0  0  0  0  0  0  0  0  # atno 6907 bound_to 6896
  150.9793  133.6254  159.2732 H   0  0  0  0  0  0  0  0  0  0  0  0  # atno 6908 bound_to 6896
  151.3437  135.0875  159.9433 H   0  0  0  0  0  0  0  0  0  0  0  0  # atno 6909 bound_to 6896
  144.8933  139.5527  143.5788 H   0  0  0  0  0  0  0  0  0  0  0  0  # atno 7974 bound_to 7965
  154.4053  140.1604  156.2540 H   0  0  0  0  0  0  0  0  0  0  0  0  # atno 8008 bound_to 7997
  155.9095  140.3428  155.6065 H   0  0  0  0  0  0  0  0  0  0  0  0  # atno 8009 bound_to 7997
  155.7353  140.0785  157.2261 H   0  0  0  0  0  0  0  0  0  0  0  0  # atno 8010 bound_to 7997
  139.9736  143.5818  152.2404 H   0  0  0  0  0  0  0  0  0  0  0  0  # atno 10167 bound_to 10162
  156.9093  130.9904  151.3023 H   0  0  0  0  0  0  0  0  0  0  0  0  # atno 10718 bound_to 10713
  154.8703  135.3703  154.4899 H   0  0  0  0  0  0  0  0  0  0  0  0  # atno 10763 bound_to 10752
  153.5547  135.7024  153.5580 H   0  0  0  0  0  0  0  0  0  0  0  0  # atno 10764 bound_to 10752
  153.3683  135.4028  155.1733 H   0  0  0  0  0  0  0  0  0  0  0  0  # atno 10765 bound_to 10752
  140.5311  134.5615  157.5075 H   0  0  0  0  0  0  0  0  0  0  0  0  # atno 11005 bound_to 11000
  146.3066  139.7602  142.9051 LP  0  0  0  0  0  0  0  0  0  0  0  0  # atno 17320 bound_to 7965
  145.3745  141.0348  143.3212 LP  0  0  0  0  0  0  0  0  0  0  0  0  # atno 17321 bound_to 7965
  139.6462  144.7658  151.2238 LP  0  0  0  0  0  0  0  0  0  0  0  0  # atno 17342 bound_to 10162
  140.7513  143.6235  150.8491 LP  0  0  0  0  0  0  0  0  0  0  0  0  # atno 17343 bound_to 10162
  157.5978  130.8490  149.8755 LP  0  0  0  0  0  0  0  0  0  0  0  0  # atno 17370 bound_to 10713
  156.0544  130.3711  150.1126 LP  0  0  0  0  0  0  0  0  0  0  0  0  # atno 17371 bound_to 10713
  139.9553  134.7545  156.0355 LP  0  0  0  0  0  0  0  0  0  0  0  0  # atno 17394 bound_to 11000
  141.1281  133.6594  156.3389 LP  0  0  0  0  0  0  0  0  0  0  0  0  # atno 17395 bound_to 11000

$$$$
