AV-unprocessed.smi:767|AV-procd|sdf|3669|dock8
  -GOLD-   22720 1 83D 1   1.00000     0.00000
 Structure written by MMmdl.
 48 50  0  0  0  0  0  0  0  0  2 V2000
  143.7132  132.2867  148.1879 C   0  0  0  0  0  0  0  0  0  0  0  0
  144.2451  132.7705  149.5205 C   0  0  0  0  0  0  0  0  0  0  0  0
  145.5493  132.4674  149.9671 C   0  0  0  0  0  0  0  0  0  0  0  0
  145.9775  132.9508  151.2209 C   0  0  0  0  0  0  0  0  0  0  0  0
  145.0941  133.7269  152.0025 C   0  0  0  0  0  0  0  0  0  0  0  0
  145.5265  134.2658  153.3519 C   0  0  0  0  0  0  0  0  0  0  0  0
  145.3678  135.7922  153.4410 C   0  0  0  0  0  0  0  0  0  0  0  0
  146.6603  136.4650  153.4730 N   0  0  0  0  0  0  0  0  0  0  0  0
  147.0350  137.3587  154.3987 C   0  0  0  0  0  0  0  0  0  0  0  0
  146.3264  137.7136  155.3410 O   0  0  0  0  0  0  0  0  0  0  0  0
  148.2747  137.8144  154.1779 N   0  0  0  0  0  0  0  0  0  0  0  0
  148.9491  138.8041  155.0119 C   0  0  2  0  0  0  0  0  0  0  0  0
  149.6560  139.8872  154.1819 C   0  0  1  0  0  0  0  0  0  0  0  0
  149.1801  141.3127  154.2493 C   0  0  0  0  0  0  0  0  0  0  0  0
  150.1019  141.9306  155.3049 C   0  0  0  0  0  0  0  0  0  0  0  0
  150.5763  140.8209  156.0640 O   0  0  0  0  0  0  0  0  0  0  0  0
  150.8182  139.7508  155.1537 C   0  0  1  0  0  0  0  0  0  0  0  0
  150.3200  138.3527  155.5779 C   0  0  0  0  0  0  0  0  0  0  0  0
  150.3654  138.0516  157.0767 C   0  0  0  0  0  0  0  0  0  0  0  0
  151.0325  137.1908  154.8709 C   0  0  0  0  0  0  0  0  0  0  0  0
  143.8020  133.9995  151.5043 C   0  0  0  0  0  0  0  0  0  0  0  0
  143.4294  133.5174  150.2984 N   0  3  0  0  0  0  0  0  0  0  0  0
  144.4665  131.7102  147.6500 H   0  0  0  0  0  0  0  0  0  0  0  0
  143.4233  133.1328  147.5642 H   0  0  0  0  0  0  0  0  0  0  0  0
  142.8398  131.6512  148.3354 H   0  0  0  0  0  0  0  0  0  0  0  0
  146.2153  131.8723  149.3593 H   0  0  0  0  0  0  0  0  0  0  0  0
  146.9735  132.7287  151.5758 H   0  0  0  0  0  0  0  0  0  0  0  0
  144.9390  133.7770  154.1303 H   0  0  0  0  0  0  0  0  0  0  0  0
  146.5654  133.9858  153.5312 H   0  0  0  0  0  0  0  0  0  0  0  0
  144.8164  136.1606  152.5755 H   0  0  0  0  0  0  0  0  0  0  0  0
  144.7843  136.0661  154.3217 H   0  0  0  0  0  0  0  0  0  0  0  0
  147.3124  136.2388  152.7362 H   0  0  0  0  0  0  0  0  0  0  0  0
  148.7821  137.4646  153.3784 H   0  0  0  0  0  0  0  0  0  0  0  0
  148.3078  139.2393  155.7818 H   0  0  0  0  0  0  0  0  0  0  0  0
  149.9278  139.5431  153.1822 H   0  0  0  0  0  0  0  0  0  0  0  0
  149.2627  141.8287  153.2925 H   0  0  0  0  0  0  0  0  0  0  0  0
  148.1382  141.3603  154.5671 H   0  0  0  0  0  0  0  0  0  0  0  0
  150.9515  142.4240  154.8304 H   0  0  0  0  0  0  0  0  0  0  0  0
  149.5919  142.6591  155.9353 H   0  0  0  0  0  0  0  0  0  0  0  0
  151.8012  139.7911  154.6817 H   0  0  0  0  0  0  0  0  0  0  0  0
  151.3907  138.0076  157.4452 H   0  0  0  0  0  0  0  0  0  0  0  0
  149.8887  137.0986  157.3082 H   0  0  0  0  0  0  0  0  0  0  0  0
  149.8472  138.8159  157.6562 H   0  0  0  0  0  0  0  0  0  0  0  0
  152.0689  137.1025  155.1980 H   0  0  0  0  0  0  0  0  0  0  0  0
  151.0509  137.3252  153.7890 H   0  0  0  0  0  0  0  0  0  0  0  0
  150.5448  136.2363  155.0715 H   0  0  0  0  0  0  0  0  0  0  0  0
  143.0605  134.5846  152.0288 H   0  0  0  0  0  0  0  0  0  0  0  0
  142.4900  133.7269  149.9594 H   0  0  0  0  0  0  0  0  0  0  0  0
  1  2  1  0  0  0  0
  1 23  1  0  0  0  0
  1 24  1  0  0  0  0
  1 25  1  0  0  0  0
  2 22  1  0  0  0  0
  2  3  2  0  0  0  0
  3  4  1  0  0  0  0
  3 26  1  0  0  0  0
  4  5  2  0  0  0  0
  4 27  1  0  0  0  0
  5  6  1  0  0  0  0
  5 21  1  0  0  0  0
  6  7  1  0  0  0  0
  6 28  1  0  0  0  0
  6 29  1  0  0  0  0
  7  8  1  0  0  0  0
  7 30  1  0  0  0  0
  7 31  1  0  0  0  0
  8  9  1  0  0  0  0
  8 32  1  0  0  0  0
  9 10  2  0  0  0  0
  9 11  1  0  0  0  0
 11 12  1  0  0  0  0
 11 33  1  0  0  0  0
 12 18  1  0  0  0  0
 12 13  1  0  0  0  0
 12 34  1  0  0  0  0
 13 17  1  0  0  0  0
 13 14  1  0  0  0  0
 13 35  1  0  0  0  0
 14 15  1  0  0  0  0
 14 36  1  0  0  0  0
 14 37  1  0  0  0  0
 15 16  1  0  0  0  0
 15 38  1  0  0  0  0
 15 39  1  0  0  0  0
 16 17  1  0  0  0  0
 17 18  1  0  0  0  0
 17 40  1  0  0  0  0
 18 19  1  0  0  0  0
 18 20  1  0  0  0  0
 19 41  1  0  0  0  0
 19 42  1  0  0  0  0
 19 43  1  0  0  0  0
 20 44  1  0  0  0  0
 20 45  1  0  0  0  0
 20 46  1  0  0  0  0
 21 22  2  0  0  0  0
 21 47  1  0  0  0  0
 22 48  1  0  0  0  0
M  CHG  1  22   1
M  END
> <s_m_source_file>
AV-unprocessed.smi

> <i_m_source_file_index>
767

> <i_lp_mmshare_version>
43012

> <i_f3d_flags>
0

> <s_epik_input>
W0NIM11jMVtjSF1bY0hdYyhbY0hdbjEpW0NIMl1bQ0gyXVtOSF1DKD1PKVtOSF1bQ0BIXTJDKFtDSDNdKShbQ0gzXSlbQ0BIXShbQ0BASF0yMylPW0NIMl1bQ0gyXTM=

> <s_epik_cmdline>
J2VwaWtfcHl0aG9uJywgJy1waCcsICc3LjAnLCAnLXRuJywgJzgnLCAnLW1hJywgJzIwMCcsICctbWV0YWxfYmluZGluZycsICctaW1hZScsICc8aW5maWxlLm1hZT4nLCAnLW9tYWUnLCAnPG91dGZpbGUubWFlPic=

> <r_epik_Ionization_Penalty>
1.41853

> <r_epik_Ionization_Penalty_Charging>
1.41848

> <r_epik_Ionization_Penalty_Neutral>
5.17407e-05

> <r_epik_State_Penalty>
1.50205

> <r_epik_Charging_Adjusted_Penalty>
2.92053

> <i_epik_Tot_Q>
1

> <i_epik_Tot_abs_Q>
1

> <r_epik_Metal_State_Penalty>
1.5544

> <b_epik_Metal_Only>
0

> <s_lp_Force_Field>
OPLS_2005

> <r_lp_Energy>
38.5293

> <b_lp_Chiralities_Consistent>
1

> <s_lp_Variant>
AV-unprocessed.smi:767-13

> <Gold.Version>
5.8.1

> <Gold.Id.Protein>
6NUR|6NUR_protein|mol2

> <Gold.PLP.Fitness>
46.6797

> <Gold.PLP.PLP>
-35.4986

> <Gold.PLP.part.hbond>
-3.0000

> <Gold.PLP.part.metal>
0.0000

> <Gold.PLP.part.buried>
-4.3881

> <Gold.PLP.part.nonpolar>
-29.4006

> <Gold.PLP.part.repulsive>
0.0574

> <Gold.PLP.ligand.clash>
0.0000

> <Gold.PLP.ligand.torsion>
0.5016

> <Gold.PLP.Chemscore.Hbond>
4.0000

> <Gold.PLP.Chemscore.CHOScore>
0.0000

> <Gold.PLP.Chemscore.Metal>
0.0000

> <Gold.Chemscore.Hbonds>
donor molecule, donor type, donor heavy atom, donor atom, acceptor molecule, acceptor atom, score
      L1  H     8    32       P1  7948  1.00
      L1  H    11    33       P1  7948  1.00
      L1  H    22    48       P1 10186  2.00

> <Gold.PLP.Chemscore.Internal.Correction>
0.1843

> <Gold.Rescore>
     Score         DG    S(hbond)    S(metal)    S(lipo)     H(rot)  DE(clash)    DE(int)     intcor
     23.20     -23.95       2.93        0.00     107.62       1.52       0.23       0.52       ----

> <Gold.Chemscore.Fitness>
23.1992

> <Gold.Chemscore.DG>
-23.9503

> <Gold.Chemscore.ZeroCoef>
-5.4800

> <Gold.Chemscore.Hbond>
2.9277

> <Gold.Chemscore.Metal>
0.0000

> <Gold.Chemscore.Lipo>
107.6189

> <Gold.Chemscore.Internal_Hbond>
0.0000

> <Gold.Chemscore.DEClash>
0.2304

> <Gold.Chemscore.DEInternal>
0.5208

> <Gold.Chemscore.Rot>
1.5233

> <Gold.Chemscore.Internal.Correction>
   9.000000E+99

> <Gold.Chemscore.Hbonds>
donor molecule, donor type, donor heavy atom, donor atom, acceptor molecule, acceptor atom, score
      L1  H     8    32       P1  7948  0.99
      L1  H    11    33       P1  7948  0.95
      L1  H    22    48       P1 10186  1.00

> <Gold.Chemscore.Hbond.Weighted>
-9.7785

> <Gold.Chemscore.Metal.Weighted>
-0.0000

> <Gold.Chemscore.Lipo.Weighted>
-12.5914

> <Gold.Chemscore.Internal_Hbond.Weighted>
0.0000

> <Gold.Chemscore.DEClash.Weighted>
0.2304

> <Gold.Chemscore.DEInternal.Weighted>
0.5208

> <Gold.Chemscore.Rot.Weighted>
3.8995

> <Gold.Chemscore.Internal.Correction.Weighted>
   9.000000E+99

> <Gold.Protein.RotatedTorsions>
[ 6907 6896 6895 6894 ] final   83.03 input  -60.11 | X-H torsion
[ 7974 7965 7964 7962 ] final -104.74 input  175.53 | X-H torsion
[ 8008 7997 7996 7995 ] final  -28.68 input   59.86 | X-H torsion
[ 10167 10162 10161 10158 ] final -155.27 input  -65.29 | X-H torsion
[ 10718 10713 10712 10709 ] final  -64.70 input   66.30 | X-H torsion
[ 10763 10752 10751 10750 ] final  -18.42 input  -60.55 | X-H torsion
[ 11005 11000 10999 10996 ] final  -99.02 input  -57.11 | X-H torsion

> <Gold.Protein.ActiveResidues>
 VAL166  LYS551  ARG553  GLY616  TRP617  ASP618  TYR619  PRO620  LYS621  CYS622 
 ASP623  PHE694  ASN695  SER759  ASP760  ASP761  ALA762  ILE779  LEU786  VAL792 
 PHE793  MET794  SER795  GLU796  ALA797  LYS798  CYS799  TRP800  GLU811  SER814 

> <Gold.Protein.RotatedAtoms>
  152.5316  134.2958  159.9059 H   0  0  0  0  0  0  0  0  0  0  0  0  # atno 6907 bound_to 6896
  151.2909  133.4159  159.2640 H   0  0  0  0  0  0  0  0  0  0  0  0  # atno 6908 bound_to 6896
  151.0201  134.9478  159.8112 H   0  0  0  0  0  0  0  0  0  0  0  0  # atno 6909 bound_to 6896
  145.2393  140.9199  143.3159 H   0  0  0  0  0  0  0  0  0  0  0  0  # atno 7974 bound_to 7965
  154.4322  140.1838  156.1128 H   0  0  0  0  0  0  0  0  0  0  0  0  # atno 8008 bound_to 7997
  156.0204  140.3341  155.7007 H   0  0  0  0  0  0  0  0  0  0  0  0  # atno 8009 bound_to 7997
  155.5984  140.0638  157.2730 H   0  0  0  0  0  0  0  0  0  0  0  0  # atno 8010 bound_to 7997
  139.6945  143.9365  152.2400 H   0  0  0  0  0  0  0  0  0  0  0  0  # atno 10167 bound_to 10162
  156.0713  130.4237  150.1457 H   0  0  0  0  0  0  0  0  0  0  0  0  # atno 10718 bound_to 10713
  153.5890  135.7003  153.5431 H   0  0  0  0  0  0  0  0  0  0  0  0  # atno 10763 bound_to 10752
  153.3194  135.4078  155.1404 H   0  0  0  0  0  0  0  0  0  0  0  0  # atno 10764 bound_to 10752
  154.8604  135.3692  154.5421 H   0  0  0  0  0  0  0  0  0  0  0  0  # atno 10765 bound_to 10752
  141.1324  133.8289  157.0916 H   0  0  0  0  0  0  0  0  0  0  0  0  # atno 11005 bound_to 11000
  144.9604  139.3986  143.6358 LP  0  0  0  0  0  0  0  0  0  0  0  0  # atno 17320 bound_to 7965
  146.3333  139.8654  142.8849 LP  0  0  0  0  0  0  0  0  0  0  0  0  # atno 17321 bound_to 7965
  139.9191  144.6811  150.8481 LP  0  0  0  0  0  0  0  0  0  0  0  0  # atno 17342 bound_to 10162
  140.7692  143.3388  151.2252 LP  0  0  0  0  0  0  0  0  0  0  0  0  # atno 17343 bound_to 10162
  156.9508  130.9774  151.3498 LP  0  0  0  0  0  0  0  0  0  0  0  0  # atno 17370 bound_to 10713
  157.5786  130.8360  149.8490 LP  0  0  0  0  0  0  0  0  0  0  0  0  # atno 17371 bound_to 10713
  140.0388  134.9864  157.0923 LP  0  0  0  0  0  0  0  0  0  0  0  0  # atno 17394 bound_to 11000
  140.4167  134.1923  155.7163 LP  0  0  0  0  0  0  0  0  0  0  0  0  # atno 17395 bound_to 11000

$$$$
