AV-unprocessed.smi:260|AV-procd|sdf|1980|dock10
  -GOLD-   2262021153D 1   1.00000     0.00000
 Structure written by MMmdl.
 53 56  0  0  0  0  0  0  0  0  1 V2000
  148.2518  145.1467  160.7254 C   0  0  0  0  0  0  0  0  0  0  0  0
  149.2002  144.8281  159.6694 N   0  0  0  0  0  0  0  0  0  0  0  0
  150.4214  144.3095  159.8754 C   0  0  0  0  0  0  0  0  0  0  0  0
  150.8473  144.0720  161.0068 O   0  0  0  0  0  0  0  0  0  0  0  0
  151.3170  144.0113  158.6438 C   0  0  2  0  0  0  0  0  0  0  0  0
  151.5140  145.3127  157.8423 C   0  0  0  0  0  0  0  0  0  0  0  0
  150.8079  142.8527  157.7559 C   0  0  0  0  0  0  0  0  0  0  0  0
  151.2990  141.5774  158.4539 C   0  0  0  0  0  0  0  0  0  0  0  0
  152.4295  141.9948  159.2708 N   0  0  0  0  0  0  0  0  0  0  0  0
  153.4358  141.1339  159.5705 C   0  0  0  0  0  0  0  0  0  0  0  0
  154.6275  141.6383  159.9878 N   0  0  0  0  0  0  0  0  0  0  0  0
  155.6418  140.8229  160.2898 C   0  0  0  0  0  0  0  0  0  0  0  0
  155.6801  139.4901  160.2518 N   0  0  0  0  0  0  0  0  0  0  0  0
  154.4842  138.9746  159.8483 C   0  0  0  0  0  0  0  0  0  0  0  0
  153.3200  139.7146  159.4928 C   0  0  0  0  0  0  0  0  0  0  0  0
  152.2969  138.8368  159.1482 N   0  0  0  0  0  0  0  0  0  0  0  0
  152.8280  137.6525  159.2814 C   0  0  0  0  0  0  0  0  0  0  0  0
  154.1395  137.6438  159.6963 N   0  0  0  0  0  0  0  0  0  0  0  0
  154.9764  136.4788  159.9229 C   0  0  0  0  0  0  0  0  0  0  0  0
  154.4888  135.6308  161.1142 C   0  0  2  0  0  0  0  0  0  0  0  0
  154.7291  136.3389  162.3160 O   0  0  0  0  0  0  0  0  0  0  0  0
  155.1953  134.2643  161.1902 C   0  0  1  0  0  0  0  0  0  0  0  0
  154.8351  133.4358  162.4259 C   0  0  0  0  0  0  0  0  0  0  0  0
  155.1111  132.0300  161.9464 C   0  0  0  0  0  0  0  0  0  0  0  0
  154.6155  132.0965  160.5060 C   0  0  0  0  0  0  0  0  0  0  0  0
  154.8169  133.4435  160.0858 O   0  0  0  0  0  0  0  0  0  0  0  0
  152.6649  143.4238  159.1052 C   0  0  0  0  0  0  0  0  0  0  0  0
  147.3623  145.6089  160.2982 H   0  0  0  0  0  0  0  0  0  0  0  0
  148.6861  145.8431  161.4440 H   0  0  0  0  0  0  0  0  0  0  0  0
  147.9470  144.2434  161.2550 H   0  0  0  0  0  0  0  0  0  0  0  0
  148.9092  145.0036  158.7187 H   0  0  0  0  0  0  0  0  0  0  0  0
  152.1836  145.1603  156.9954 H   0  0  0  0  0  0  0  0  0  0  0  0
  151.9472  146.1037  158.4564 H   0  0  0  0  0  0  0  0  0  0  0  0
  150.5665  145.6803  157.4467 H   0  0  0  0  0  0  0  0  0  0  0  0
  149.7325  142.8492  157.5765 H   0  0  0  0  0  0  0  0  0  0  0  0
  151.2802  142.9156  156.7744 H   0  0  0  0  0  0  0  0  0  0  0  0
  150.5247  141.1697  159.1043 H   0  0  0  0  0  0  0  0  0  0  0  0
  151.5749  140.8139  157.7257 H   0  0  0  0  0  0  0  0  0  0  0  0
  156.5530  141.3085  160.6068 H   0  0  0  0  0  0  0  0  0  0  0  0
  152.2749  136.7477  159.0760 H   0  0  0  0  0  0  0  0  0  0  0  0
  154.9801  135.8838  159.0091 H   0  0  0  0  0  0  0  0  0  0  0  0
  156.0035  136.8104  160.0821 H   0  0  0  0  0  0  0  0  0  0  0  0
  153.4128  135.4733  161.0264 H   0  0  0  0  0  0  0  0  0  0  0  0
  155.0911  135.7393  162.9502 H   0  0  0  0  0  0  0  0  0  0  0  0
  156.2782  134.3936  161.1490 H   0  0  0  0  0  0  0  0  0  0  0  0
  155.4173  133.7089  163.3063 H   0  0  0  0  0  0  0  0  0  0  0  0
  153.7770  133.5446  162.6690 H   0  0  0  0  0  0  0  0  0  0  0  0
  156.1832  131.8300  161.9681 H   0  0  0  0  0  0  0  0  0  0  0  0
  154.6064  131.2656  162.5380 H   0  0  0  0  0  0  0  0  0  0  0  0
  155.1343  131.3926  159.8548 H   0  0  0  0  0  0  0  0  0  0  0  0
  153.5482  131.8773  160.4600 H   0  0  0  0  0  0  0  0  0  0  0  0
  153.4338  143.5790  158.3467 H   0  0  0  0  0  0  0  0  0  0  0  0
  153.0224  143.8701  160.0344 H   0  0  0  0  0  0  0  0  0  0  0  0
  1  2  1  0  0  0  0
  1 28  1  0  0  0  0
  1 29  1  0  0  0  0
  1 30  1  0  0  0  0
  2  3  1  0  0  0  0
  2 31  1  0  0  0  0
  3  4  2  0  0  0  0
  3  5  1  0  0  0  0
  5 27  1  0  0  0  0
  5  6  1  0  0  0  0
  5  7  1  0  0  0  0
  6 32  1  0  0  0  0
  6 33  1  0  0  0  0
  6 34  1  0  0  0  0
  7  8  1  0  0  0  0
  7 35  1  0  0  0  0
  7 36  1  0  0  0  0
  8  9  1  0  0  0  0
  8 37  1  0  0  0  0
  8 38  1  0  0  0  0
  9 10  1  0  0  0  0
  9 27  1  0  0  0  0
 10 15  1  0  0  0  0
 10 11  2  0  0  0  0
 11 12  1  0  0  0  0
 12 13  2  0  0  0  0
 12 39  1  0  0  0  0
 13 14  1  0  0  0  0
 14 18  1  0  0  0  0
 14 15  2  0  0  0  0
 15 16  1  0  0  0  0
 16 17  2  0  0  0  0
 17 18  1  0  0  0  0
 17 40  1  0  0  0  0
 18 19  1  0  0  0  0
 19 20  1  0  0  0  0
 19 41  1  0  0  0  0
 19 42  1  0  0  0  0
 20 21  1  0  0  0  0
 20 22  1  0  0  0  0
 20 43  1  0  0  0  0
 21 44  1  0  0  0  0
 22 26  1  0  0  0  0
 22 23  1  0  0  0  0
 22 45  1  0  0  0  0
 23 24  1  0  0  0  0
 23 46  1  0  0  0  0
 23 47  1  0  0  0  0
 24 25  1  0  0  0  0
 24 48  1  0  0  0  0
 24 49  1  0  0  0  0
 25 26  1  0  0  0  0
 25 50  1  0  0  0  0
 25 51  1  0  0  0  0
 27 52  1  0  0  0  0
 27 53  1  0  0  0  0
M  END
> <s_m_source_file>
AV-unprocessed.smi

> <i_m_source_file_index>
260

> <i_lp_mmshare_version>
43012

> <i_f3d_flags>
0

> <s_epik_input>
W0NIM11bTkhdQyg9TylbQ0BAXTEoW0NIM10pW0NIMl1bQ0gyXU4oW0NIMl0xKWMobltjSF1uMiljKGMyMyluW2NIXW4zW0NIMl1bQ0BIXShbT0hdKVtDQEBIXTRbQ0gyXVtDSDJdW0NIMl1PNA==

> <s_epik_cmdline>
J2VwaWtfcHl0aG9uJywgJy1waCcsICc3LjAnLCAnLXRuJywgJzgnLCAnLW1hJywgJzIwMCcsICctbWV0YWxfYmluZGluZycsICctaW1hZScsICc8aW5maWxlLm1hZT4nLCAnLW9tYWUnLCAnPG91dGZpbGUubWFlPic=

> <r_lp_tautomer_probability>
1

> <r_epik_Ionization_Penalty>
0.00115068

> <r_epik_Ionization_Penalty_Charging>
0

> <r_epik_Ionization_Penalty_Neutral>
0.00115068

> <r_epik_State_Penalty>
0.000668876

> <r_epik_Charging_Adjusted_Penalty>
0.000668876

> <i_epik_Tot_Q>
0

> <i_epik_Tot_abs_Q>
0

> <r_epik_Metal_State_Penalty>
-0

> <b_epik_Metal_Only>
0

> <s_lp_Force_Field>
OPLS_2005

> <r_lp_Energy>
49.109

> <b_lp_Chiralities_Consistent>
1

> <s_lp_Variant>
AV-unprocessed.smi:260-6

> <Gold.Version>
5.8.1

> <Gold.Id.Protein>
6NUR|6NUR_protein|mol2

> <Gold.PLP.Fitness>
45.1846

> <Gold.PLP.PLP>
-40.2008

> <Gold.PLP.part.hbond>
-2.3106

> <Gold.PLP.part.metal>
0.0000

> <Gold.PLP.part.buried>
-5.9923

> <Gold.PLP.part.nonpolar>
-31.7502

> <Gold.PLP.part.repulsive>
0.3892

> <Gold.PLP.ligand.clash>
0.0000

> <Gold.PLP.ligand.torsion>
0.3426

> <Gold.PLP.Chemscore.Hbond>
1.7800

> <Gold.PLP.Chemscore.CHOScore>
0.0000

> <Gold.PLP.Chemscore.Metal>
0.0000

> <Gold.Chemscore.Hbonds>
donor molecule, donor type, donor heavy atom, donor atom, acceptor molecule, acceptor atom, score
      L1  H     2    31       P1  8029  1.00
      P1  H  6896  6909       L1    26  0.29

> <Gold.PLP.Chemscore.Internal.Correction>
0.3290

> <Gold.Rescore>
     Score         DG    S(hbond)    S(metal)    S(lipo)     H(rot)  DE(clash)    DE(int)     intcor
     11.62     -14.56       1.59        0.00      87.43       2.53       1.57       1.37       ----

> <Gold.Chemscore.Fitness>
11.6172

> <Gold.Chemscore.DG>
-14.5571

> <Gold.Chemscore.ZeroCoef>
-5.4800

> <Gold.Chemscore.Hbond>
1.5909

> <Gold.Chemscore.Metal>
0.0000

> <Gold.Chemscore.Lipo>
87.4342

> <Gold.Chemscore.Internal_Hbond>
0.0000

> <Gold.Chemscore.DEClash>
1.5746

> <Gold.Chemscore.DEInternal>
1.3653

> <Gold.Chemscore.Rot>
2.5259

> <Gold.Chemscore.Internal.Correction>
   9.000000E+99

> <Gold.Chemscore.Hbonds>
donor molecule, donor type, donor heavy atom, donor atom, acceptor molecule, acceptor atom, score
      L1  H     2    31       P1  8029  0.91
      P1  H  6896  6909       L1    26  0.02

> <Gold.Chemscore.Hbond.Weighted>
-5.3136

> <Gold.Chemscore.Metal.Weighted>
-0.0000

> <Gold.Chemscore.Lipo.Weighted>
-10.2298

> <Gold.Chemscore.Internal_Hbond.Weighted>
0.0000

> <Gold.Chemscore.DEClash.Weighted>
1.5746

> <Gold.Chemscore.DEInternal.Weighted>
1.3653

> <Gold.Chemscore.Rot.Weighted>
6.4663

> <Gold.Chemscore.Internal.Correction.Weighted>
   9.000000E+99

> <Gold.Protein.RotatedTorsions>
[ 6907 6896 6895 6894 ] final -141.45 input  -60.11 | X-H torsion
[ 7974 7965 7964 7962 ] final   22.28 input  175.53 | X-H torsion
[ 8008 7997 7996 7995 ] final   17.07 input   59.86 | X-H torsion
[ 10167 10162 10161 10158 ] final   14.02 input  -65.29 | X-H torsion
[ 10718 10713 10712 10709 ] final -158.34 input   66.30 | X-H torsion
[ 10763 10752 10751 10750 ] final  122.36 input  -60.55 | X-H torsion
[ 11005 11000 10999 10996 ] final  134.59 input  -57.11 | X-H torsion

> <Gold.Protein.ActiveResidues>
 VAL166  LYS551  ARG553  GLY616  TRP617  ASP618  TYR619  PRO620  LYS621  CYS622 
 ASP623  PHE694  ASN695  SER759  ASP760  ASP761  ALA762  ILE779  LEU786  VAL792 
 PHE793  MET794  SER795  GLU796  ALA797  LYS798  CYS799  TRP800  GLU811  SER814 

> <Gold.Protein.RotatedAtoms>
  151.0740  133.5443  159.2624 H   0  0  0  0  0  0  0  0  0  0  0  0  # atno 6907 bound_to 6896
  151.2372  135.0575  159.9020 H   0  0  0  0  0  0  0  0  0  0  0  0  # atno 6908 bound_to 6896
  152.5415  134.0520  159.8168 H   0  0  0  0  0  0  0  0  0  0  0  0  # atno 6909 bound_to 6896
  146.2036  139.7908  142.8743 H   0  0  0  0  0  0  0  0  0  0  0  0  # atno 7974 bound_to 7965
  154.8860  140.2980  155.5398 H   0  0  0  0  0  0  0  0  0  0  0  0  # atno 8008 bound_to 7997
  156.3021  140.2433  156.3803 H   0  0  0  0  0  0  0  0  0  0  0  0  # atno 8009 bound_to 7997
  154.8667  140.0403  157.1688 H   0  0  0  0  0  0  0  0  0  0  0  0  # atno 8010 bound_to 7997
  140.5963  143.8694  150.6922 H   0  0  0  0  0  0  0  0  0  0  0  0  # atno 10167 bound_to 10162
  156.5528  130.8613  151.2785 H   0  0  0  0  0  0  0  0  0  0  0  0  # atno 10718 bound_to 10713
  153.6286  135.3400  155.3034 H   0  0  0  0  0  0  0  0  0  0  0  0  # atno 10763 bound_to 10752
  154.8585  135.4290  154.2130 H   0  0  0  0  0  0  0  0  0  0  0  0  # atno 10764 bound_to 10752
  153.3020  135.7025  153.7267 H   0  0  0  0  0  0  0  0  0  0  0  0  # atno 10765 bound_to 10752
  139.9925  134.9510  156.9889 H   0  0  0  0  0  0  0  0  0  0  0  0  # atno 11005 bound_to 11000
  145.3399  141.0285  143.3398 LP  0  0  0  0  0  0  0  0  0  0  0  0  # atno 17320 bound_to 7965
  144.8739  139.4999  143.6755 LP  0  0  0  0  0  0  0  0  0  0  0  0  # atno 17321 bound_to 7965
  140.2229  143.3795  152.1628 LP  0  0  0  0  0  0  0  0  0  0  0  0  # atno 17342 bound_to 10162
  139.5261  144.7103  151.5226 LP  0  0  0  0  0  0  0  0  0  0  0  0  # atno 17343 bound_to 10162
  157.7384  130.9813  150.2251 LP  0  0  0  0  0  0  0  0  0  0  0  0  # atno 17370 bound_to 10713
  156.2869  130.3740  149.7879 LP  0  0  0  0  0  0  0  0  0  0  0  0  # atno 17371 bound_to 10713
  140.4881  134.1221  155.7228 LP  0  0  0  0  0  0  0  0  0  0  0  0  # atno 17394 bound_to 11000
  141.1577  133.8851  157.1932 LP  0  0  0  0  0  0  0  0  0  0  0  0  # atno 17395 bound_to 11000

$$$$
