AV-unprocessed.smi:169|AV-procd|sdf|1403|dock1
  -GOLD-   2262019153D 1   1.00000     0.00000
 Structure written by MMmdl.
 56 60  0  0  0  0  0  0  0  0  2 V2000
  146.5404  129.7539  152.3012 C   0  0  0  0  0  0  0  0  0  0  0  0
  146.1839  131.2474  152.2548 C   0  0  0  0  0  0  0  0  0  0  0  0
  147.3777  132.1391  152.2498 N   0  3  1  0  0  0  0  0  0  0  0  0
  147.0676  133.5901  151.9684 C   0  0  0  0  0  0  0  0  0  0  0  0
  146.2434  134.3771  153.0606 C   0  0  0  0  0  0  0  0  0  0  0  0
  147.0121  134.7859  154.3702 C   0  0  1  0  0  0  0  0  0  0  0  0
  146.4609  134.1547  155.6973 C   0  0  0  0  0  0  0  0  0  0  0  0
  147.2906  132.8425  155.9127 C   0  0  0  0  0  0  0  0  0  0  0  0
  148.0889  132.8351  154.6067 C   0  0  3  0  0  0  0  0  0  0  0  0
  148.3044  131.8711  153.4173 C   0  0  0  0  0  0  0  0  0  0  0  0
  148.3514  134.2286  154.2961 N   0  0  0  0  0  0  0  0  0  0  0  0
  149.3972  134.8222  154.9369 C   0  0  0  0  0  0  0  0  0  0  0  0
  150.2349  134.0630  155.6920 N   0  0  0  0  0  0  0  0  0  0  0  0
  151.2716  134.6167  156.3264 C   0  0  0  0  0  0  0  0  0  0  0  0
  151.6491  135.8952  156.3471 N   0  0  0  0  0  0  0  0  0  0  0  0
  150.8091  136.6697  155.6036 C   0  0  0  0  0  0  0  0  0  0  0  0
  149.6680  136.2218  154.8778 C   0  0  0  0  0  0  0  0  0  0  0  0
  149.0548  137.3062  154.2600 N   0  0  0  0  0  0  0  0  0  0  0  0
  149.7918  138.3293  154.5942 C   0  0  0  0  0  0  0  0  0  0  0  0
  150.8775  138.0356  155.3872 N   0  0  0  0  0  0  0  0  0  0  0  0
  151.8641  138.9727  155.9062 C   0  0  0  0  0  0  0  0  0  0  0  0
  151.2818  140.1200  156.7669 C   0  0  0  0  0  0  0  0  0  0  0  0
  150.6822  141.1682  155.8200 C   0  0  0  0  0  0  0  0  0  0  0  0
  150.2501  142.3114  156.5296 O   0  0  0  0  0  0  0  0  0  0  0  0
  150.3896  139.7197  157.9560 C   0  0  0  0  0  0  0  0  0  0  0  0
  151.4673  139.9135  158.8962 O   0  0  0  0  0  0  0  0  0  0  0  0
  152.1801  140.6634  157.8900 C   0  0  0  0  0  0  0  0  0  0  0  0
  145.6443  129.1538  152.4605 H   0  0  0  0  0  0  0  0  0  0  0  0
  147.2310  129.5356  153.1165 H   0  0  0  0  0  0  0  0  0  0  0  0
  146.9908  129.4100  151.3703 H   0  0  0  0  0  0  0  0  0  0  0  0
  145.5390  131.4576  151.4015 H   0  0  0  0  0  0  0  0  0  0  0  0
  145.5898  131.4628  153.1437 H   0  0  0  0  0  0  0  0  0  0  0  0
  148.0026  134.1098  151.7554 H   0  0  0  0  0  0  0  0  0  0  0  0
  146.5244  133.6483  151.0266 H   0  0  0  0  0  0  0  0  0  0  0  0
  145.8945  135.3007  152.5977 H   0  0  0  0  0  0  0  0  0  0  0  0
  145.3294  133.8359  153.3038 H   0  0  0  0  0  0  0  0  0  0  0  0
  147.0077  135.8737  154.4414 H   0  0  0  0  0  0  0  0  0  0  0  0
  146.6253  134.8318  156.5364 H   0  0  0  0  0  0  0  0  0  0  0  0
  145.3889  133.9627  155.6427 H   0  0  0  0  0  0  0  0  0  0  0  0
  147.9639  132.9552  156.7635 H   0  0  0  0  0  0  0  0  0  0  0  0
  146.6750  131.9563  156.0949 H   0  0  0  0  0  0  0  0  0  0  0  0
  147.0777  132.5765  154.3195 H   0  0  0  0  0  0  0  0  0  0  0  0
  148.2508  130.8321  153.7457 H   0  0  0  0  0  0  0  0  0  0  0  0
  149.3205  132.0058  153.0466 H   0  0  0  0  0  0  0  0  0  0  0  0
  151.8875  133.9377  156.8975 H   0  0  0  0  0  0  0  0  0  0  0  0
  149.5602  139.3322  154.2675 H   0  0  0  0  0  0  0  0  0  0  0  0
  152.5895  138.3960  156.4815 H   0  0  0  0  0  0  0  0  0  0  0  0
  152.4161  139.3756  155.0561 H   0  0  0  0  0  0  0  0  0  0  0  0
  151.4043  141.4732  155.0621 H   0  0  0  0  0  0  0  0  0  0  0  0
  149.8237  140.7630  155.2834 H   0  0  0  0  0  0  0  0  0  0  0  0
  149.8246  142.8986  155.9232 H   0  0  0  0  0  0  0  0  0  0  0  0
  149.5673  140.4121  158.1440 H   0  0  0  0  0  0  0  0  0  0  0  0
  150.0212  138.6952  157.9361 H   0  0  0  0  0  0  0  0  0  0  0  0
  153.2288  140.3805  157.8081 H   0  0  0  0  0  0  0  0  0  0  0  0
  152.0855  141.7393  158.0482 H   0  0  0  0  0  0  0  0  0  0  0  0
  147.9049  131.8266  151.4469 H   0  0  0  0  0  0  0  0  0  0  0  0
  1  2  1  0  0  0  0
  1 28  1  0  0  0  0
  1 29  1  0  0  0  0
  1 30  1  0  0  0  0
  2  3  1  0  0  0  0
  2 31  1  0  0  0  0
  2 32  1  0  0  0  0
  3 10  1  0  0  0  0
  3  4  1  0  0  0  0
  3 56  1  0  0  0  0
  4  5  1  0  0  0  0
  4 33  1  0  0  0  0
  4 34  1  0  0  0  0
  5  6  1  0  0  0  0
  5 35  1  0  0  0  0
  5 36  1  0  0  0  0
  6 11  1  0  0  0  0
  6  7  1  0  0  0  0
  6 37  1  0  0  0  0
  7  8  1  0  0  0  0
  7 38  1  0  0  0  0
  7 39  1  0  0  0  0
  8  9  1  0  0  0  0
  8 40  1  0  0  0  0
  8 41  1  0  0  0  0
  9 10  1  0  0  0  0
  9 11  1  0  0  0  0
  9 42  1  0  0  0  0
 10 43  1  0  0  0  0
 10 44  1  0  0  0  0
 11 12  1  0  0  0  0
 12 17  1  0  0  0  0
 12 13  2  0  0  0  0
 13 14  1  0  0  0  0
 14 15  2  0  0  0  0
 14 45  1  0  0  0  0
 15 16  1  0  0  0  0
 16 20  1  0  0  0  0
 16 17  2  0  0  0  0
 17 18  1  0  0  0  0
 18 19  2  0  0  0  0
 19 20  1  0  0  0  0
 19 46  1  0  0  0  0
 20 21  1  0  0  0  0
 21 22  1  0  0  0  0
 21 47  1  0  0  0  0
 21 48  1  0  0  0  0
 22 27  1  0  0  0  0
 22 23  1  0  0  0  0
 22 25  1  0  0  0  0
 23 24  1  0  0  0  0
 23 49  1  0  0  0  0
 23 50  1  0  0  0  0
 24 51  1  0  0  0  0
 25 26  1  0  0  0  0
 25 52  1  0  0  0  0
 25 53  1  0  0  0  0
 26 27  1  0  0  0  0
 27 54  1  0  0  0  0
 27 55  1  0  0  0  0
M  CHG  1   3   1
M  END
> <s_m_source_file>
AV-unprocessed.smi

> <i_m_source_file_index>
169

> <i_lp_mmshare_version>
43012

> <i_f3d_flags>
0

> <s_epik_input>
W0NASF0xMltDSDJdW0NIMl1OKFtDSDJdW0NIM10pW0NIMl1bQ0BIXShbQ0gyXVtDSDJdMSlOMmMobltjSF1uMyljKGMzNCluW2NIXW40W0NIMl1DNShbQ0gyXVtPSF0pW0NIMl1PW0NIMl01

> <s_epik_cmdline>
J2VwaWtfcHl0aG9uJywgJy1waCcsICc3LjAnLCAnLXRuJywgJzgnLCAnLW1hJywgJzIwMCcsICctbWV0YWxfYmluZGluZycsICctaW1hZScsICc8aW5maWxlLm1hZT4nLCAnLW9tYWUnLCAnPG91dGZpbGUubWFlPic=

> <r_lp_tautomer_probability>
1

> <r_epik_Ionization_Penalty>
0.00274162

> <r_epik_Ionization_Penalty_Charging>
0.00243722

> <r_epik_Ionization_Penalty_Neutral>
0.000304399

> <r_epik_State_Penalty>
-0

> <r_epik_Charging_Adjusted_Penalty>
0.00243722

> <i_epik_Tot_Q>
1

> <i_epik_Tot_abs_Q>
1

> <r_epik_Metal_State_Penalty>
-0

> <b_epik_Metal_Only>
0

> <s_lp_Force_Field>
OPLS_2005

> <r_lp_Energy>
131.702

> <b_lp_Chiralities_Consistent>
1

> <s_lp_Variant>
AV-unprocessed.smi:169-6

> <Gold.Version>
5.8.1

> <Gold.Id.Protein>
6NUR|6NUR_protein|mol2

> <Gold.PLP.Fitness>
37.6564

> <Gold.PLP.PLP>
-31.6083

> <Gold.PLP.part.hbond>
-3.0000

> <Gold.PLP.part.metal>
0.0000

> <Gold.PLP.part.buried>
-5.0753

> <Gold.PLP.part.nonpolar>
-27.4168

> <Gold.PLP.part.repulsive>
3.3219

> <Gold.PLP.ligand.clash>
0.0000

> <Gold.PLP.ligand.torsion>
0.6374

> <Gold.PLP.Chemscore.Hbond>
2.2754

> <Gold.PLP.Chemscore.CHOScore>
0.0000

> <Gold.PLP.Chemscore.Metal>
0.0000

> <Gold.Chemscore.Hbonds>
donor molecule, donor type, donor heavy atom, donor atom, acceptor molecule, acceptor atom, score
      L1  H     3    56       P1 10747  1.00
      L1  H    24    51       P1  8028  0.84
      P1  H 10752 10764       L1    15  0.50

> <Gold.PLP.Chemscore.Internal.Correction>
0.4967

> <Gold.Rescore>
     Score         DG    S(hbond)    S(metal)    S(lipo)     H(rot)  DE(clash)    DE(int)     intcor
     11.48     -13.52       1.91        0.00      71.58       2.62       1.37       0.67       ----

> <Gold.Chemscore.Fitness>
11.4801

> <Gold.Chemscore.DG>
-13.5224

> <Gold.Chemscore.ZeroCoef>
-5.4800

> <Gold.Chemscore.Hbond>
1.9094

> <Gold.Chemscore.Metal>
0.0000

> <Gold.Chemscore.Lipo>
71.5846

> <Gold.Chemscore.Internal_Hbond>
0.0000

> <Gold.Chemscore.DEClash>
1.3740

> <Gold.Chemscore.DEInternal>
0.6684

> <Gold.Chemscore.Rot>
2.6212

> <Gold.Chemscore.Internal.Correction>
   9.000000E+99

> <Gold.Chemscore.Hbonds>
donor molecule, donor type, donor heavy atom, donor atom, acceptor molecule, acceptor atom, score
      L1  H     3    56       P1 10747  1.00
      L1  H    24    51       P1  8028  0.79
      P1  H 10752 10764       L1    15  0.01

> <Gold.Chemscore.Hbond.Weighted>
-6.3772

> <Gold.Chemscore.Metal.Weighted>
-0.0000

> <Gold.Chemscore.Lipo.Weighted>
-8.3754

> <Gold.Chemscore.Internal_Hbond.Weighted>
0.0000

> <Gold.Chemscore.DEClash.Weighted>
1.3740

> <Gold.Chemscore.DEInternal.Weighted>
0.6684

> <Gold.Chemscore.Rot.Weighted>
6.7102

> <Gold.Chemscore.Internal.Correction.Weighted>
   9.000000E+99

> <Gold.Protein.RotatedTorsions>
[ 6907 6896 6895 6894 ] final -119.29 input  -60.11 | X-H torsion
[ 7974 7965 7964 7962 ] final  171.54 input  175.53 | X-H torsion
[ 8008 7997 7996 7995 ] final   17.99 input   59.86 | X-H torsion
[ 10167 10162 10161 10158 ] final   33.92 input  -65.29 | X-H torsion
[ 10718 10713 10712 10709 ] final -172.08 input   66.30 | X-H torsion
[ 10763 10752 10751 10750 ] final  -27.72 input  -60.55 | X-H torsion
[ 11005 11000 10999 10996 ] final -128.09 input  -57.11 | X-H torsion

> <Gold.Protein.ActiveResidues>
 VAL166  LYS551  ARG553  GLY616  TRP617  ASP618  TYR619  PRO620  LYS621  CYS622 
 ASP623  PHE694  ASN695  SER759  ASP760  ASP761  ALA762  ILE779  LEU786  VAL792 
 PHE793  MET794  SER795  GLU796  ALA797  LYS798  CYS799  TRP800  GLU811  SER814 

> <Gold.Protein.RotatedAtoms>
  150.8293  133.8119  159.3105 H   0  0  0  0  0  0  0  0  0  0  0  0  # atno 6907 bound_to 6896
  151.5854  135.1054  160.0036 H   0  0  0  0  0  0  0  0  0  0  0  0  # atno 6908 bound_to 6896
  152.4374  133.7344  159.6662 H   0  0  0  0  0  0  0  0  0  0  0  0  # atno 6909 bound_to 6896
  144.7292  139.9365  143.6427 H   0  0  0  0  0  0  0  0  0  0  0  0  # atno 7974 bound_to 7965
  154.8995  140.2998  155.5326 H   0  0  0  0  0  0  0  0  0  0  0  0  # atno 8008 bound_to 7997
  156.3019  140.2409  156.3956 H   0  0  0  0  0  0  0  0  0  0  0  0  # atno 8009 bound_to 7997
  154.8536  140.0408  157.1609 H   0  0  0  0  0  0  0  0  0  0  0  0  # atno 8010 bound_to 7997
  140.4363  144.1253  150.6167 H   0  0  0  0  0  0  0  0  0  0  0  0  # atno 10167 bound_to 10162
  156.7504  130.9376  151.3114 H   0  0  0  0  0  0  0  0  0  0  0  0  # atno 10718 bound_to 10713
  153.7367  135.6935  153.4976 H   0  0  0  0  0  0  0  0  0  0  0  0  # atno 10763 bound_to 10752
  153.2097  135.4407  155.0364 H   0  0  0  0  0  0  0  0  0  0  0  0  # atno 10764 bound_to 10752
  154.8234  135.3434  154.6895 H   0  0  0  0  0  0  0  0  0  0  0  0  # atno 10765 bound_to 10752
  140.9545  134.1020  157.4029 H   0  0  0  0  0  0  0  0  0  0  0  0  # atno 11005 bound_to 11000
  146.0817  139.3805  143.0460 LP  0  0  0  0  0  0  0  0  0  0  0  0  # atno 17320 bound_to 7965
  145.7832  140.9847  143.1088 LP  0  0  0  0  0  0  0  0  0  0  0  0  # atno 17321 bound_to 7965
  140.4370  143.2543  151.9522 LP  0  0  0  0  0  0  0  0  0  0  0  0  # atno 17342 bound_to 10162
  139.4787  144.5690  151.8118 LP  0  0  0  0  0  0  0  0  0  0  0  0  # atno 17343 bound_to 10162
  157.6780  130.9112  150.0196 LP  0  0  0  0  0  0  0  0  0  0  0  0  # atno 17370 bound_to 10713
  156.1405  130.3642  149.9589 LP  0  0  0  0  0  0  0  0  0  0  0  0  # atno 17371 bound_to 10713
  139.8858  135.0075  156.6457 LP  0  0  0  0  0  0  0  0  0  0  0  0  # atno 17394 bound_to 11000
  140.7555  133.8861  155.8379 LP  0  0  0  0  0  0  0  0  0  0  0  0  # atno 17395 bound_to 11000

$$$$
