AV-unprocessed.smi:361|AV-procd|sdf|2420|dock1
  -GOLD-   2262022353D 1   1.00000     0.00000
 Structure written by MMmdl.
 34 35  0  0  0  0  0  0  0  0  1 V2000
  145.9256  137.9538  152.3657 C   0  0  0  0  0  0  0  0  0  0  0  0
  146.5519  139.3551  152.2831 C   0  0  0  0  0  0  0  0  0  0  0  0
  147.1538  139.8440  153.6055 C   0  0  0  0  0  0  0  0  0  0  0  0
  146.4694  139.8764  154.6291 O   0  0  0  0  0  0  0  0  0  0  0  0
  148.4462  140.2150  153.5404 N   0  0  0  0  0  0  0  0  0  0  0  0
  149.2753  140.7091  154.5828 C   0  0  0  0  0  0  0  0  0  0  0  0
  148.6038  141.4335  155.5899 C   0  0  0  0  0  0  0  0  0  0  0  0
  149.3359  141.9639  156.6692 C   0  0  0  0  0  0  0  0  0  0  0  0
  150.7351  141.7600  156.7307 C   0  0  0  0  0  0  0  0  0  0  0  0
  151.5354  142.2625  157.7796 N   0  0  0  0  0  0  0  0  0  0  0  0
  151.3543  143.6540  158.1827 C   0  0  0  0  0  0  0  0  0  0  0  0
  152.5059  144.1000  159.0997 C   0  0  0  0  0  0  0  0  0  0  0  0
  152.6036  143.2153  160.2106 O   0  0  0  0  0  0  0  0  0  0  0  0
  152.8931  141.8826  159.8010 C   0  0  0  0  0  0  0  0  0  0  0  0
  151.7619  141.3540  158.9014 C   0  0  0  0  0  0  0  0  0  0  0  0
  151.3144  141.0248  155.6708 C   0  0  0  0  0  0  0  0  0  0  0  0
  150.6147  140.5166  154.6352 N   0  0  0  0  0  0  0  0  0  0  0  0
  145.5117  137.6602  151.4011 H   0  0  0  0  0  0  0  0  0  0  0  0
  145.1147  137.9219  153.0942 H   0  0  0  0  0  0  0  0  0  0  0  0
  146.6642  137.2027  152.6482 H   0  0  0  0  0  0  0  0  0  0  0  0
  147.3341  139.3593  151.5234 H   0  0  0  0  0  0  0  0  0  0  0  0
  145.7952  140.0704  151.9588 H   0  0  0  0  0  0  0  0  0  0  0  0
  148.8877  140.1337  152.6363 H   0  0  0  0  0  0  0  0  0  0  0  0
  147.5350  141.5841  155.5423 H   0  0  0  0  0  0  0  0  0  0  0  0
  148.8058  142.5101  157.4345 H   0  0  0  0  0  0  0  0  0  0  0  0
  151.3231  144.3007  157.3051 H   0  0  0  0  0  0  0  0  0  0  0  0
  150.4021  143.7591  158.7045 H   0  0  0  0  0  0  0  0  0  0  0  0
  153.4508  144.1232  158.5543 H   0  0  0  0  0  0  0  0  0  0  0  0
  152.3248  145.1107  159.4654 H   0  0  0  0  0  0  0  0  0  0  0  0
  153.8511  141.8510  159.2796 H   0  0  0  0  0  0  0  0  0  0  0  0
  152.9926  141.2534  160.6856 H   0  0  0  0  0  0  0  0  0  0  0  0
  150.8387  141.2687  159.4760 H   0  0  0  0  0  0  0  0  0  0  0  0
  152.0187  140.3508  158.5646 H   0  0  0  0  0  0  0  0  0  0  0  0
  152.3787  140.8475  155.6316 H   0  0  0  0  0  0  0  0  0  0  0  0
  1  2  1  0  0  0  0
  1 18  1  0  0  0  0
  1 19  1  0  0  0  0
  1 20  1  0  0  0  0
  2  3  1  0  0  0  0
  2 21  1  0  0  0  0
  2 22  1  0  0  0  0
  3  4  2  0  0  0  0
  3  5  1  0  0  0  0
  5  6  1  0  0  0  0
  5 23  1  0  0  0  0
  6 17  1  0  0  0  0
  6  7  2  0  0  0  0
  7  8  1  0  0  0  0
  7 24  1  0  0  0  0
  8  9  2  0  0  0  0
  8 25  1  0  0  0  0
  9 10  1  0  0  0  0
  9 16  1  0  0  0  0
 10 15  1  0  0  0  0
 10 11  1  0  0  0  0
 11 12  1  0  0  0  0
 11 26  1  0  0  0  0
 11 27  1  0  0  0  0
 12 13  1  0  0  0  0
 12 28  1  0  0  0  0
 12 29  1  0  0  0  0
 13 14  1  0  0  0  0
 14 15  1  0  0  0  0
 14 30  1  0  0  0  0
 14 31  1  0  0  0  0
 15 32  1  0  0  0  0
 15 33  1  0  0  0  0
 16 17  2  0  0  0  0
 16 34  1  0  0  0  0
M  END
> <s_m_source_file>
AV-unprocessed.smi

> <i_m_source_file_index>
361

> <i_lp_mmshare_version>
43012

> <i_f3d_flags>
0

> <s_epik_input>
W0NIM11bQ0gyXUMoPU8pW05IXWMxW2NIXVtjSF1jKFtjSF1uMSlOMltDSDJdW0NIMl1PW0NIMl1bQ0gyXTI=

> <s_epik_cmdline>
J2VwaWtfcHl0aG9uJywgJy1waCcsICc3LjAnLCAnLXRuJywgJzgnLCAnLW1hJywgJzIwMCcsICctbWV0YWxfYmluZGluZycsICctaW1hZScsICc8aW5maWxlLm1hZT4nLCAnLW9tYWUnLCAnPG91dGZpbGUubWFlPic=

> <r_lp_tautomer_probability>
1

> <r_epik_Ionization_Penalty>
0.00304557

> <r_epik_Ionization_Penalty_Charging>
0

> <r_epik_Ionization_Penalty_Neutral>
0.00304557

> <r_epik_State_Penalty>
0.0028457

> <r_epik_Charging_Adjusted_Penalty>
0.0028457

> <i_epik_Tot_Q>
0

> <i_epik_Tot_abs_Q>
0

> <r_epik_Metal_State_Penalty>
-0

> <b_epik_Metal_Only>
0

> <s_lp_Force_Field>
OPLS_2005

> <r_lp_Energy>
24.065

> <b_lp_Chiralities_Consistent>
1

> <s_lp_Variant>
AV-unprocessed.smi:361-1

> <Gold.Version>
5.8.1

> <Gold.Id.Protein>
6NUR|6NUR_protein|mol2

> <Gold.PLP.Fitness>
39.7348

> <Gold.PLP.PLP>
-34.8005

> <Gold.PLP.part.hbond>
-2.0000

> <Gold.PLP.part.metal>
0.0000

> <Gold.PLP.part.buried>
-0.9699

> <Gold.PLP.part.nonpolar>
-31.4814

> <Gold.PLP.part.repulsive>
0.3473

> <Gold.PLP.ligand.clash>
0.0000

> <Gold.PLP.ligand.torsion>
0.7241

> <Gold.PLP.Chemscore.Hbond>
2.0000

> <Gold.PLP.Chemscore.CHOScore>
0.0000

> <Gold.PLP.Chemscore.Metal>
0.0000

> <Gold.Chemscore.Hbonds>
donor molecule, donor type, donor heavy atom, donor atom, acceptor molecule, acceptor atom, score
      L1  H     5    23       P1  7957  1.00
      P1  H  7989  7998       L1    17  0.90

> <Gold.PLP.Chemscore.Internal.Correction>
0.3825

> <Gold.Rescore>
     Score         DG    S(hbond)    S(metal)    S(lipo)     H(rot)  DE(clash)    DE(int)     intcor
     14.32     -17.19       1.48        0.00      83.81       1.18       0.72       2.15       ----

> <Gold.Chemscore.Fitness>
14.3157

> <Gold.Chemscore.DG>
-17.1874

> <Gold.Chemscore.ZeroCoef>
-5.4800

> <Gold.Chemscore.Hbond>
1.4775

> <Gold.Chemscore.Metal>
0.0000

> <Gold.Chemscore.Lipo>
83.8091

> <Gold.Chemscore.Internal_Hbond>
0.0000

> <Gold.Chemscore.DEClash>
0.7245

> <Gold.Chemscore.DEInternal>
2.1472

> <Gold.Chemscore.Rot>
1.1848

> <Gold.Chemscore.Internal.Correction>
   9.000000E+99

> <Gold.Chemscore.Hbonds>
donor molecule, donor type, donor heavy atom, donor atom, acceptor molecule, acceptor atom, score
      L1  H     5    23       P1  7957  1.00
      P1  H  7989  7998       L1    17  0.16

> <Gold.Chemscore.Hbond.Weighted>
-4.9348

> <Gold.Chemscore.Metal.Weighted>
-0.0000

> <Gold.Chemscore.Lipo.Weighted>
-9.8057

> <Gold.Chemscore.Internal_Hbond.Weighted>
0.0000

> <Gold.Chemscore.DEClash.Weighted>
0.7245

> <Gold.Chemscore.DEInternal.Weighted>
2.1472

> <Gold.Chemscore.Rot.Weighted>
3.0331

> <Gold.Chemscore.Internal.Correction.Weighted>
   9.000000E+99

> <Gold.Protein.RotatedTorsions>
[ 6907 6896 6895 6894 ] final   58.37 input  -60.11 | X-H torsion
[ 7974 7965 7964 7962 ] final    7.35 input  175.53 | X-H torsion
[ 8008 7997 7996 7995 ] final  156.47 input   59.86 | X-H torsion
[ 10167 10162 10161 10158 ] final   18.53 input  -65.29 | X-H torsion
[ 10718 10713 10712 10709 ] final  159.79 input   66.30 | X-H torsion
[ 10763 10752 10751 10750 ] final  174.48 input  -60.55 | X-H torsion
[ 11005 11000 10999 10996 ] final  -67.79 input  -57.11 | X-H torsion

> <Gold.Protein.ActiveResidues>
 VAL166  LYS551  ARG553  GLY616  TRP617  ASP618  TYR619  PRO620  LYS621  CYS622 
 ASP623  PHE694  ASN695  SER759  ASP760  ASP761  ALA762  ILE779  LEU786  VAL792 
 PHE793  MET794  SER795  GLU796  ALA797  LYS798  CYS799  TRP800  GLU811  SER814 

> <Gold.Protein.RotatedAtoms>
  152.3817  134.6579  160.0140 H   0  0  0  0  0  0  0  0  0  0  0  0  # atno 6907 bound_to 6896
  151.6840  133.3306  159.3234 H   0  0  0  0  0  0  0  0  0  0  0  0  # atno 6908 bound_to 6896
  150.7753  134.6692  159.6427 H   0  0  0  0  0  0  0  0  0  0  0  0  # atno 6909 bound_to 6896
  146.2427  140.0096  142.8408 H   0  0  0  0  0  0  0  0  0  0  0  0  # atno 7974 bound_to 7965
  156.2420  140.1911  156.6960 H   0  0  0  0  0  0  0  0  0  0  0  0  # atno 8008 bound_to 7997
  154.6216  140.0608  156.9649 H   0  0  0  0  0  0  0  0  0  0  0  0  # atno 8009 bound_to 7997
  155.1852  140.3280  155.4370 H   0  0  0  0  0  0  0  0  0  0  0  0  # atno 8010 bound_to 7997
  140.5646  143.9274  150.6667 H   0  0  0  0  0  0  0  0  0  0  0  0  # atno 10167 bound_to 10162
  157.1594  131.0583  151.2240 H   0  0  0  0  0  0  0  0  0  0  0  0  # atno 10718 bound_to 10713
  154.4544  135.2765  155.1758 H   0  0  0  0  0  0  0  0  0  0  0  0  # atno 10763 bound_to 10752
  154.3571  135.6137  153.5675 H   0  0  0  0  0  0  0  0  0  0  0  0  # atno 10764 bound_to 10752
  152.9849  135.5825  154.4895 H   0  0  0  0  0  0  0  0  0  0  0  0  # atno 10765 bound_to 10752
  141.1516  133.6726  156.6346 H   0  0  0  0  0  0  0  0  0  0  0  0  # atno 11005 bound_to 11000
  145.1340  140.9534  143.4527 LP  0  0  0  0  0  0  0  0  0  0  0  0  # atno 17320 bound_to 7965
  145.0360  139.3300  143.6001 LP  0  0  0  0  0  0  0  0  0  0  0  0  # atno 17321 bound_to 7965
  140.2734  143.3440  152.1218 LP  0  0  0  0  0  0  0  0  0  0  0  0  # atno 17342 bound_to 10162
  139.5087  144.6854  151.5901 LP  0  0  0  0  0  0  0  0  0  0  0  0  # atno 17343 bound_to 10162
  157.4147  130.7404  149.6866 LP  0  0  0  0  0  0  0  0  0  0  0  0  # atno 17370 bound_to 10713
  155.9756  130.4086  150.3835 LP  0  0  0  0  0  0  0  0  0  0  0  0  # atno 17371 bound_to 10713
  140.3440  134.7825  157.4419 LP  0  0  0  0  0  0  0  0  0  0  0  0  # atno 17394 bound_to 11000
  140.0914  134.5595  155.8440 LP  0  0  0  0  0  0  0  0  0  0  0  0  # atno 17395 bound_to 11000

$$$$
