AV-unprocessed.smi:677|AV-procd|sdf|3312|dock4
  -GOLD-   22720 0273D 1   1.00000     0.00000
 Structure written by MMmdl.
 44 45  0  0  0  0  0  0  0  0  2 V2000
  144.8603  132.3403  149.3819 C   0  0  0  0  0  0  0  0  0  0  0  0
  144.9424  133.5616  150.2730 C   0  0  0  0  0  0  0  0  0  0  0  0
  146.1108  133.8962  150.9909 C   0  0  0  0  0  0  0  0  0  0  0  0
  146.1140  135.0498  151.8023 C   0  0  0  0  0  0  0  0  0  0  0  0
  144.9495  135.8459  151.8801 C   0  0  0  0  0  0  0  0  0  0  0  0
  144.9177  137.0887  152.7513 C   0  0  0  0  0  0  0  0  0  0  0  0
  146.0864  138.0071  152.3945 C   0  0  0  0  0  0  0  0  0  0  0  0
  146.7745  137.7652  151.4031 O   0  0  0  0  0  0  0  0  0  0  0  0
  146.2826  139.0664  153.1949 N   0  0  0  0  0  0  0  0  0  0  0  0
  147.3118  140.0857  153.0131 C   0  0  0  0  0  0  0  0  0  0  0  0
  148.3670  140.0588  154.1383 C   0  0  0  0  0  0  0  0  0  0  0  0
  147.8068  139.5843  155.4936 C   0  0  0  0  0  0  0  0  0  0  0  0
  148.8750  139.6615  156.5989 C   0  0  0  0  0  0  0  0  0  0  0  0
  149.3772  141.0291  156.7322 N   0  0  0  0  0  0  0  0  0  0  0  0
  150.3366  141.0725  157.8308 C   0  0  0  0  0  0  0  0  0  0  0  0
  151.6167  140.4283  157.4912 C   0  0  0  0  0  0  0  0  0  0  0  0
  152.6226  139.9227  157.2238 N   0  0  0  0  0  0  0  0  0  0  0  0
  150.0217  141.4408  155.4832 C   0  0  0  0  0  0  0  0  0  0  0  0
  148.9984  141.4470  154.3345 C   0  0  0  0  0  0  0  0  0  0  0  0
  143.8108  135.4613  151.1394 C   0  0  0  0  0  0  0  0  0  0  0  0
  143.8481  134.3487  150.3743 N   0  3  0  0  0  0  0  0  0  0  0  0
  145.8015  131.7899  149.3808 H   0  0  0  0  0  0  0  0  0  0  0  0
  144.6358  132.6331  148.3559 H   0  0  0  0  0  0  0  0  0  0  0  0
  144.0739  131.6695  149.7294 H   0  0  0  0  0  0  0  0  0  0  0  0
  146.9944  133.2784  150.9234 H   0  0  0  0  0  0  0  0  0  0  0  0
  146.9997  135.3171  152.3602 H   0  0  0  0  0  0  0  0  0  0  0  0
  143.9658  137.6075  152.6257 H   0  0  0  0  0  0  0  0  0  0  0  0
  144.9879  136.8076  153.8027 H   0  0  0  0  0  0  0  0  0  0  0  0
  145.6683  139.1810  153.9882 H   0  0  0  0  0  0  0  0  0  0  0  0
  147.7953  139.8906  152.0555 H   0  0  0  0  0  0  0  0  0  0  0  0
  146.8703  141.0804  152.9290 H   0  0  0  0  0  0  0  0  0  0  0  0
  149.1598  139.3704  153.8410 H   0  0  0  0  0  0  0  0  0  0  0  0
  146.9450  140.1916  155.7739 H   0  0  0  0  0  0  0  0  0  0  0  0
  147.4496  138.5571  155.4193 H   0  0  0  0  0  0  0  0  0  0  0  0
  148.4380  139.3430  157.5459 H   0  0  0  0  0  0  0  0  0  0  0  0
  149.6983  138.9793  156.3812 H   0  0  0  0  0  0  0  0  0  0  0  0
  150.5639  142.1087  158.0840 H   0  0  0  0  0  0  0  0  0  0  0  0
  149.9309  140.5974  158.7252 H   0  0  0  0  0  0  0  0  0  0  0  0
  150.4388  142.4419  155.5931 H   0  0  0  0  0  0  0  0  0  0  0  0
  150.8523  140.7727  155.2499 H   0  0  0  0  0  0  0  0  0  0  0  0
  149.4864  141.7679  153.4137 H   0  0  0  0  0  0  0  0  0  0  0  0
  148.2215  142.1839  154.5445 H   0  0  0  0  0  0  0  0  0  0  0  0
  142.8757  136.0026  151.1405 H   0  0  0  0  0  0  0  0  0  0  0  0
  143.0115  134.0900  149.8507 H   0  0  0  0  0  0  0  0  0  0  0  0
  1  2  1  0  0  0  0
  1 22  1  0  0  0  0
  1 23  1  0  0  0  0
  1 24  1  0  0  0  0
  2 21  1  0  0  0  0
  2  3  2  0  0  0  0
  3  4  1  0  0  0  0
  3 25  1  0  0  0  0
  4  5  2  0  0  0  0
  4 26  1  0  0  0  0
  5  6  1  0  0  0  0
  5 20  1  0  0  0  0
  6  7  1  0  0  0  0
  6 27  1  0  0  0  0
  6 28  1  0  0  0  0
  7  8  2  0  0  0  0
  7  9  1  0  0  0  0
  9 10  1  0  0  0  0
  9 29  1  0  0  0  0
 10 11  1  0  0  0  0
 10 30  1  0  0  0  0
 10 31  1  0  0  0  0
 11 19  1  0  0  0  0
 11 12  1  0  0  0  0
 11 32  1  0  0  0  0
 12 13  1  0  0  0  0
 12 33  1  0  0  0  0
 12 34  1  0  0  0  0
 13 14  1  0  0  0  0
 13 35  1  0  0  0  0
 13 36  1  0  0  0  0
 14 15  1  0  0  0  0
 14 18  1  0  0  0  0
 15 16  1  0  0  0  0
 15 37  1  0  0  0  0
 15 38  1  0  0  0  0
 16 17  3  0  0  0  0
 18 19  1  0  0  0  0
 18 39  1  0  0  0  0
 18 40  1  0  0  0  0
 19 41  1  0  0  0  0
 19 42  1  0  0  0  0
 20 21  2  0  0  0  0
 20 43  1  0  0  0  0
 21 44  1  0  0  0  0
M  CHG  1  21   1
M  END
> <s_m_source_file>
AV-unprocessed.smi

> <i_m_source_file_index>
677

> <i_lp_mmshare_version>
43012

> <i_f3d_flags>
0

> <s_epik_input>
W0NIM11jMVtjSF1bY0hdYyhbY0hdbjEpW0NIMl1DKD1PKVtOSF1bQ0gyXVtDSF0yW0NIMl1bQ0gyXU4oW0NIMl1DI04pW0NIMl1bQ0gyXTI=

> <s_epik_cmdline>
J2VwaWtfcHl0aG9uJywgJy1waCcsICc3LjAnLCAnLXRuJywgJzgnLCAnLW1hJywgJzIwMCcsICctbWV0YWxfYmluZGluZycsICctaW1hZScsICc8aW5maWxlLm1hZT4nLCAnLW9tYWUnLCAnPG91dGZpbGUubWFlPic=

> <r_epik_Ionization_Penalty>
2.12868

> <r_epik_Ionization_Penalty_Charging>
2.12771

> <r_epik_Ionization_Penalty_Neutral>
0.000970756

> <r_epik_State_Penalty>
2.26584

> <r_epik_Charging_Adjusted_Penalty>
4.39355

> <i_epik_Tot_Q>
1

> <i_epik_Tot_abs_Q>
1

> <r_epik_Metal_State_Penalty>
2.28211

> <b_epik_Metal_Only>
0

> <s_lp_Force_Field>
OPLS_2005

> <r_lp_Energy>
22.0212

> <b_lp_Chiralities_Consistent>
1

> <s_lp_Variant>
AV-unprocessed.smi:677-2

> <Gold.Version>
5.8.1

> <Gold.Id.Protein>
6NUR|6NUR_protein|mol2

> <Gold.PLP.Fitness>
41.8125

> <Gold.PLP.PLP>
-31.2513

> <Gold.PLP.part.hbond>
-3.8905

> <Gold.PLP.part.metal>
0.0000

> <Gold.PLP.part.buried>
-0.0708

> <Gold.PLP.part.nonpolar>
-29.4347

> <Gold.PLP.part.repulsive>
3.0090

> <Gold.PLP.ligand.clash>
0.0000

> <Gold.PLP.ligand.torsion>
0.5574

> <Gold.PLP.Chemscore.Hbond>
3.8788

> <Gold.PLP.Chemscore.CHOScore>
0.0000

> <Gold.PLP.Chemscore.Metal>
0.0000

> <Gold.Chemscore.Hbonds>
donor molecule, donor type, donor heavy atom, donor atom, acceptor molecule, acceptor atom, score
      L1  H    21    44       P1 10186  1.75
      P1  H  7954  7966       L1     8  0.94
      P1  H  7997  8008       L1    17  1.00

> <Gold.PLP.Chemscore.Internal.Correction>
0.0397

> <Gold.Rescore>
     Score         DG    S(hbond)    S(metal)    S(lipo)     H(rot)  DE(clash)    DE(int)     intcor
     15.60     -19.32       2.73        0.00      81.16       1.86       1.96       1.76       ----

> <Gold.Chemscore.Fitness>
15.6002

> <Gold.Chemscore.DG>
-19.3245

> <Gold.Chemscore.ZeroCoef>
-5.4800

> <Gold.Chemscore.Hbond>
2.7273

> <Gold.Chemscore.Metal>
0.0000

> <Gold.Chemscore.Lipo>
81.1598

> <Gold.Chemscore.Internal_Hbond>
0.0000

> <Gold.Chemscore.DEClash>
1.9605

> <Gold.Chemscore.DEInternal>
1.7639

> <Gold.Chemscore.Rot>
1.8595

> <Gold.Chemscore.Internal.Correction>
   9.000000E+99

> <Gold.Chemscore.Hbonds>
donor molecule, donor type, donor heavy atom, donor atom, acceptor molecule, acceptor atom, score
      L1  H    21    44       P1 10186  0.80
      P1  H  7954  7966       L1     8  0.90
      P1  H  7997  8008       L1    17  1.00

> <Gold.Chemscore.Hbond.Weighted>
-9.1091

> <Gold.Chemscore.Metal.Weighted>
-0.0000

> <Gold.Chemscore.Lipo.Weighted>
-9.4957

> <Gold.Chemscore.Internal_Hbond.Weighted>
0.0000

> <Gold.Chemscore.DEClash.Weighted>
1.9605

> <Gold.Chemscore.DEInternal.Weighted>
1.7639

> <Gold.Chemscore.Rot.Weighted>
4.7603

> <Gold.Chemscore.Internal.Correction.Weighted>
   9.000000E+99

> <Gold.Protein.RotatedTorsions>
[ 6907 6896 6895 6894 ] final   80.59 input  -60.11 | X-H torsion
[ 7974 7965 7964 7962 ] final  -59.45 input  175.53 | X-H torsion
[ 8008 7997 7996 7995 ] final  -61.42 input   59.86 | X-H torsion
[ 10167 10162 10161 10158 ] final  157.40 input  -65.29 | X-H torsion
[ 10718 10713 10712 10709 ] final   10.94 input   66.30 | X-H torsion
[ 10763 10752 10751 10750 ] final  133.37 input  -60.55 | X-H torsion
[ 11005 11000 10999 10996 ] final  -63.82 input  -57.11 | X-H torsion

> <Gold.Protein.ActiveResidues>
 VAL166  LYS551  ARG553  GLY616  TRP617  ASP618  TYR619  PRO620  LYS621  CYS622 
 ASP623  PHE694  ASN695  SER759  ASP760  ASP761  ALA762  ILE779  LEU786  VAL792 
 PHE793  MET794  SER795  GLU796  ALA797  LYS798  CYS799  TRP800  GLU811  SER814 

> <Gold.Protein.RotatedAtoms>
  152.5240  134.3334  159.9190 H   0  0  0  0  0  0  0  0  0  0  0  0  # atno 6907 bound_to 6896
  151.3284  133.4004  159.2668 H   0  0  0  0  0  0  0  0  0  0  0  0  # atno 6908 bound_to 6896
  150.9901  134.9255  159.7952 H   0  0  0  0  0  0  0  0  0  0  0  0  # atno 6909 bound_to 6896
  145.8273  140.8502  143.0102 H   0  0  0  0  0  0  0  0  0  0  0  0  # atno 7974 bound_to 7965
  154.4447  140.1018  156.6427 H   0  0  0  0  0  0  0  0  0  0  0  0  # atno 8008 bound_to 7997
  155.5483  140.3485  155.4444 H   0  0  0  0  0  0  0  0  0  0  0  0  # atno 8009 bound_to 7997
  156.0547  140.1312  156.9999 H   0  0  0  0  0  0  0  0  0  0  0  0  # atno 8010 bound_to 7997
  139.4823  144.4921  151.8293 H   0  0  0  0  0  0  0  0  0  0  0  0  # atno 10167 bound_to 10162
  156.9883  130.6032  149.5683 H   0  0  0  0  0  0  0  0  0  0  0  0  # atno 10718 bound_to 10713
  153.8060  135.3135  155.3395 H   0  0  0  0  0  0  0  0  0  0  0  0  # atno 10763 bound_to 10752
  154.8070  135.4691  154.0421 H   0  0  0  0  0  0  0  0  0  0  0  0  # atno 10764 bound_to 10752
  153.1784  135.6889  153.8599 H   0  0  0  0  0  0  0  0  0  0  0  0  # atno 10765 bound_to 10752
  141.1405  133.6657  156.5739 H   0  0  0  0  0  0  0  0  0  0  0  0  # atno 11005 bound_to 11000
  144.6742  140.0621  143.7476 LP  0  0  0  0  0  0  0  0  0  0  0  0  # atno 17320 bound_to 7965
  145.9609  139.2800  143.1156 LP  0  0  0  0  0  0  0  0  0  0  0  0  # atno 17321 bound_to 7965
  140.4406  144.1992  150.5891 LP  0  0  0  0  0  0  0  0  0  0  0  0  # atno 17342 bound_to 10162
  140.4687  143.2421  151.9119 LP  0  0  0  0  0  0  0  0  0  0  0  0  # atno 17343 bound_to 10162
  156.0217  130.5312  150.8294 LP  0  0  0  0  0  0  0  0  0  0  0  0  # atno 17370 bound_to 10713
  157.5477  131.0943  150.9740 LP  0  0  0  0  0  0  0  0  0  0  0  0  # atno 17371 bound_to 10713
  140.3891  134.7456  157.4710 LP  0  0  0  0  0  0  0  0  0  0  0  0  # atno 17394 bound_to 11000
  140.0580  134.6036  155.8782 LP  0  0  0  0  0  0  0  0  0  0  0  0  # atno 17395 bound_to 11000

$$$$
