AV-unprocessed.smi:149|AV-procd|sdf|1239|dock5
  -GOLD-   2262018453D 1   1.00000     0.00000
 Structure written by MMmdl.
 59 63  0  0  0  0  0  0  0  0  1 V2000
  154.9004  133.2710  159.9938 C   0  0  0  0  0  0  0  0  0  0  0  0
  155.9000  134.3540  160.4502 C   0  0  1  0  0  0  0  0  0  0  0  0
  155.6425  135.6707  159.6999 C   0  0  0  0  0  0  0  0  0  0  0  0
  154.8630  136.5043  160.6035 N   0  0  0  0  0  0  0  0  0  0  0  0
  153.9800  137.4211  160.1301 C   0  0  0  0  0  0  0  0  0  0  0  0
  153.0088  137.0115  159.2709 N   0  0  0  0  0  0  0  0  0  0  0  0
  152.1174  137.8814  158.7882 C   0  0  0  0  0  0  0  0  0  0  0  0
  152.0121  139.1883  159.0317 N   0  0  0  0  0  0  0  0  0  0  0  0
  152.9770  139.6085  159.8988 C   0  0  0  0  0  0  0  0  0  0  0  0
  153.9869  138.7998  160.4959 C   0  0  0  0  0  0  0  0  0  0  0  0
  154.7644  139.5788  161.3465 N   0  0  0  0  0  0  0  0  0  0  0  0
  154.2477  140.7731  161.2547 C   0  0  0  0  0  0  0  0  0  0  0  0
  153.1875  140.8870  160.3849 N   0  0  0  0  0  0  0  0  0  0  0  0
  152.4106  142.0632  160.1249 C   0  0  0  0  0  0  0  0  0  0  0  0
  151.6614  142.2381  158.8018 C   0  0  0  0  0  0  0  0  0  0  0  0
  151.8836  143.7651  158.8863 C   0  0  0  0  0  0  0  0  0  0  0  0
  152.2309  144.4319  157.5437 C   0  0  0  0  0  0  0  0  0  0  0  0
  151.4145  143.9592  156.4922 O   0  0  0  0  0  0  0  0  0  0  0  0
  150.7170  144.5289  159.5484 C   0  0  0  0  0  0  0  0  0  0  0  0
  149.5197  144.4284  158.8049 O   0  0  0  0  0  0  0  0  0  0  0  0
  153.0770  143.4016  159.7997 C   0  0  0  0  0  0  0  0  0  0  0  0
  154.6374  135.8049  161.8586 C   0  0  0  0  0  0  0  0  0  0  0  0
  155.7607  134.7628  161.9342 C   0  0  1  0  0  0  0  0  0  0  0  0
  155.5552  133.6736  162.8985 N   0  0  0  0  0  0  0  0  0  0  0  0
  154.1734  133.1942  162.9035 C   0  0  0  0  0  0  0  0  0  0  0  0
  153.9571  132.0643  163.9256 C   0  0  0  0  0  0  0  0  0  0  0  0
  154.3347  132.5122  165.2226 O   0  0  0  0  0  0  0  0  0  0  0  0
  155.6878  132.9498  165.2765 C   0  0  0  0  0  0  0  0  0  0  0  0
  155.9017  134.0837  164.2596 C   0  0  0  0  0  0  0  0  0  0  0  0
  153.8690  133.5755  160.1724 H   0  0  0  0  0  0  0  0  0  0  0  0
  155.0597  132.3256  160.5113 H   0  0  0  0  0  0  0  0  0  0  0  0
  155.0042  133.0732  158.9267 H   0  0  0  0  0  0  0  0  0  0  0  0
  156.9103  134.0002  160.2424 H   0  0  0  0  0  0  0  0  0  0  0  0
  156.5838  136.1783  159.4869 H   0  0  0  0  0  0  0  0  0  0  0  0
  155.1303  135.4988  158.7524 H   0  0  0  0  0  0  0  0  0  0  0  0
  151.3833  137.4716  158.1102 H   0  0  0  0  0  0  0  0  0  0  0  0
  154.6323  141.6088  161.8211 H   0  0  0  0  0  0  0  0  0  0  0  0
  151.7301  142.1674  160.9717 H   0  0  0  0  0  0  0  0  0  0  0  0
  152.1854  141.7697  157.9662 H   0  0  0  0  0  0  0  0  0  0  0  0
  150.6178  141.9223  158.8295 H   0  0  0  0  0  0  0  0  0  0  0  0
  152.0919  145.5118  157.6007 H   0  0  0  0  0  0  0  0  0  0  0  0
  153.2766  144.2721  157.2796 H   0  0  0  0  0  0  0  0  0  0  0  0
  150.7268  144.5888  156.3386 H   0  0  0  0  0  0  0  0  0  0  0  0
  150.5320  144.1634  160.5590 H   0  0  0  0  0  0  0  0  0  0  0  0
  150.9486  145.5893  159.6509 H   0  0  0  0  0  0  0  0  0  0  0  0
  149.5282  145.0889  158.1296 H   0  0  0  0  0  0  0  0  0  0  0  0
  153.2175  144.0556  160.6607 H   0  0  0  0  0  0  0  0  0  0  0  0
  154.0101  143.2821  159.2456 H   0  0  0  0  0  0  0  0  0  0  0  0
  154.6730  136.4981  162.6998 H   0  0  0  0  0  0  0  0  0  0  0  0
  153.6577  135.3245  161.8477 H   0  0  0  0  0  0  0  0  0  0  0  0
  156.6718  135.2984  162.2081 H   0  0  0  0  0  0  0  0  0  0  0  0
  153.4957  134.0194  163.1276 H   0  0  0  0  0  0  0  0  0  0  0  0
  153.8982  132.8230  161.9164 H   0  0  0  0  0  0  0  0  0  0  0  0
  152.9093  131.7641  163.9431 H   0  0  0  0  0  0  0  0  0  0  0  0
  154.5391  131.1823  163.6541 H   0  0  0  0  0  0  0  0  0  0  0  0
  155.9099  133.2980  166.2852 H   0  0  0  0  0  0  0  0  0  0  0  0
  156.3579  132.1138  165.0700 H   0  0  0  0  0  0  0  0  0  0  0  0
  156.9409  134.4065  164.3091 H   0  0  0  0  0  0  0  0  0  0  0  0
  155.2979  134.9446  164.5511 H   0  0  0  0  0  0  0  0  0  0  0  0
  1  2  1  0  0  0  0
  1 30  1  0  0  0  0
  1 31  1  0  0  0  0
  1 32  1  0  0  0  0
  2 23  1  0  0  0  0
  2  3  1  0  0  0  0
  2 33  1  0  0  0  0
  3  4  1  0  0  0  0
  3 34  1  0  0  0  0
  3 35  1  0  0  0  0
  4  5  1  0  0  0  0
  4 22  1  0  0  0  0
  5 10  1  0  0  0  0
  5  6  2  0  0  0  0
  6  7  1  0  0  0  0
  7  8  2  0  0  0  0
  7 36  1  0  0  0  0
  8  9  1  0  0  0  0
  9 13  1  0  0  0  0
  9 10  2  0  0  0  0
 10 11  1  0  0  0  0
 11 12  2  0  0  0  0
 12 13  1  0  0  0  0
 12 37  1  0  0  0  0
 13 14  1  0  0  0  0
 14 21  1  0  0  0  0
 14 15  1  0  0  0  0
 14 38  1  0  0  0  0
 15 16  1  0  0  0  0
 15 39  1  0  0  0  0
 15 40  1  0  0  0  0
 16 17  1  0  0  0  0
 16 19  1  0  0  0  0
 16 21  1  0  0  0  0
 17 18  1  0  0  0  0
 17 41  1  0  0  0  0
 17 42  1  0  0  0  0
 18 43  1  0  0  0  0
 19 20  1  0  0  0  0
 19 44  1  0  0  0  0
 19 45  1  0  0  0  0
 20 46  1  0  0  0  0
 21 47  1  0  0  0  0
 21 48  1  0  0  0  0
 22 23  1  0  0  0  0
 22 49  1  0  0  0  0
 22 50  1  0  0  0  0
 23 24  1  0  0  0  0
 23 51  1  0  0  0  0
 24 29  1  0  0  0  0
 24 25  1  0  0  0  0
 25 26  1  0  0  0  0
 25 52  1  0  0  0  0
 25 53  1  0  0  0  0
 26 27  1  0  0  0  0
 26 54  1  0  0  0  0
 26 55  1  0  0  0  0
 27 28  1  0  0  0  0
 28 29  1  0  0  0  0
 28 56  1  0  0  0  0
 28 57  1  0  0  0  0
 29 58  1  0  0  0  0
 29 59  1  0  0  0  0
M  END
> <s_m_source_file>
AV-unprocessed.smi

> <i_m_source_file_index>
149

> <i_lp_mmshare_version>
43012

> <i_f3d_flags>
0

> <s_epik_input>
W0NIMl0xW0NIMl1PW0NIMl1bQ0gyXU4xW0NAQEhdMltDSDJdTihbQ0gyXVtDQEhdMltDSDNdKWMobltjSF1uMyljKGMzNCluW2NIXW40W0NIXShbQ0gyXTUpW0NIMl1DNShbQ0gyXVtPSF0pW0NIMl1bT0hd

> <s_epik_cmdline>
J2VwaWtfcHl0aG9uJywgJy1waCcsICc3LjAnLCAnLXRuJywgJzgnLCAnLW1hJywgJzIwMCcsICctbWV0YWxfYmluZGluZycsICctaW1hZScsICc8aW5maWxlLm1hZT4nLCAnLW9tYWUnLCAnPG91dGZpbGUubWFlPic=

> <r_lp_tautomer_probability>
1

> <r_epik_Ionization_Penalty>
0.41918

> <r_epik_Ionization_Penalty_Charging>
0

> <r_epik_Ionization_Penalty_Neutral>
0.41918

> <r_epik_State_Penalty>
0.654916

> <r_epik_Charging_Adjusted_Penalty>
0.654916

> <i_epik_Tot_Q>
0

> <i_epik_Tot_abs_Q>
0

> <r_epik_Metal_State_Penalty>
0.653217

> <b_epik_Metal_Only>
0

> <s_lp_Force_Field>
OPLS_2005

> <r_lp_Energy>
77.678

> <b_lp_Chiralities_Consistent>
1

> <s_lp_Variant>
AV-unprocessed.smi:149-6

> <Gold.Version>
5.8.1

> <Gold.Id.Protein>
6NUR|6NUR_protein|mol2

> <Gold.PLP.Fitness>
48.2628

> <Gold.PLP.PLP>
-44.8601

> <Gold.PLP.part.hbond>
-2.8366

> <Gold.PLP.part.metal>
0.0000

> <Gold.PLP.part.buried>
-7.1215

> <Gold.PLP.part.nonpolar>
-37.4174

> <Gold.PLP.part.repulsive>
0.0847

> <Gold.PLP.ligand.clash>
0.0000

> <Gold.PLP.ligand.torsion>
2.6977

> <Gold.PLP.Chemscore.Hbond>
2.6783

> <Gold.PLP.Chemscore.CHOScore>
0.0000

> <Gold.PLP.Chemscore.Metal>
0.0000

> <Gold.Chemscore.Hbonds>
donor molecule, donor type, donor heavy atom, donor atom, acceptor molecule, acceptor atom, score
      L1  H    18    43       P1  8028  0.86
      L1  H    20    46       P1  8029  0.54
      P1  H  6896  6908       L1     6  0.24

> <Gold.PLP.Chemscore.Internal.Correction>
0.7632

> <Gold.Rescore>
     Score         DG    S(hbond)    S(metal)    S(lipo)     H(rot)  DE(clash)    DE(int)     intcor
     13.41     -17.68       2.48        0.00     100.11       3.04       0.08       4.19       ----

> <Gold.Chemscore.Fitness>
13.4133

> <Gold.Chemscore.DG>
-17.6845

> <Gold.Chemscore.ZeroCoef>
-5.4800

> <Gold.Chemscore.Hbond>
2.4764

> <Gold.Chemscore.Metal>
0.0000

> <Gold.Chemscore.Lipo>
100.1117

> <Gold.Chemscore.Internal_Hbond>
0.0000

> <Gold.Chemscore.DEClash>
0.0829

> <Gold.Chemscore.DEInternal>
4.1882

> <Gold.Chemscore.Rot>
3.0390

> <Gold.Chemscore.Internal.Correction>
   9.000000E+99

> <Gold.Chemscore.Hbonds>
donor molecule, donor type, donor heavy atom, donor atom, acceptor molecule, acceptor atom, score
      L1  H    18    43       P1  8028  0.84
      L1  H    20    46       P1  8029  0.15
      P1  H  6896  6908       L1     6  0.14

> <Gold.Chemscore.Hbond.Weighted>
-8.2712

> <Gold.Chemscore.Metal.Weighted>
-0.0000

> <Gold.Chemscore.Lipo.Weighted>
-11.7131

> <Gold.Chemscore.Internal_Hbond.Weighted>
0.0000

> <Gold.Chemscore.DEClash.Weighted>
0.0829

> <Gold.Chemscore.DEInternal.Weighted>
4.1882

> <Gold.Chemscore.Rot.Weighted>
7.7798

> <Gold.Chemscore.Internal.Correction.Weighted>
   9.000000E+99

> <Gold.Protein.RotatedTorsions>
[ 6907 6896 6895 6894 ] final -103.12 input  -60.11 | X-H torsion
[ 7974 7965 7964 7962 ] final   -7.72 input  175.53 | X-H torsion
[ 8008 7997 7996 7995 ] final -131.40 input   59.86 | X-H torsion
[ 10167 10162 10161 10158 ] final   15.34 input  -65.29 | X-H torsion
[ 10718 10713 10712 10709 ] final  -54.04 input   66.30 | X-H torsion
[ 10763 10752 10751 10750 ] final    2.18 input  -60.55 | X-H torsion
[ 11005 11000 10999 10996 ] final   33.12 input  -57.11 | X-H torsion

> <Gold.Protein.ActiveResidues>
 VAL166  LYS551  ARG553  GLY616  TRP617  ASP618  TYR619  PRO620  LYS621  CYS622 
 ASP623  PHE694  ASN695  SER759  ASP760  ASP761  ALA762  ILE779  LEU786  VAL792 
 PHE793  MET794  SER795  GLU796  ALA797  LYS798  CYS799  TRP800  GLU811  SER814 

> <Gold.Protein.RotatedAtoms>
  150.7226  134.0478  159.3787 H   0  0  0  0  0  0  0  0  0  0  0  0  # atno 6907 bound_to 6896
  151.8454  135.0574  160.0462 H   0  0  0  0  0  0  0  0  0  0  0  0  # atno 6908 bound_to 6896
  152.2831  133.5453  159.5546 H   0  0  0  0  0  0  0  0  0  0  0  0  # atno 6909 bound_to 6896
  146.2299  140.2361  142.8342 H   0  0  0  0  0  0  0  0  0  0  0  0  # atno 7974 bound_to 7965
  155.3117  140.0457  157.3035 H   0  0  0  0  0  0  0  0  0  0  0  0  # atno 8008 bound_to 7997
  154.5429  140.2293  155.8577 H   0  0  0  0  0  0  0  0  0  0  0  0  # atno 8009 bound_to 7997
  156.1897  140.3053  155.9315 H   0  0  0  0  0  0  0  0  0  0  0  0  # atno 8010 bound_to 7997
  140.5874  143.8863  150.6842 H   0  0  0  0  0  0  0  0  0  0  0  0  # atno 10167 bound_to 10162
  156.1484  130.4152  149.9985 H   0  0  0  0  0  0  0  0  0  0  0  0  # atno 10718 bound_to 10713
  153.2987  135.6954  153.7223 H   0  0  0  0  0  0  0  0  0  0  0  0  # atno 10763 bound_to 10752
  153.6146  135.3438  155.2991 H   0  0  0  0  0  0  0  0  0  0  0  0  # atno 10764 bound_to 10752
  154.8545  135.4371  154.2092 H   0  0  0  0  0  0  0  0  0  0  0  0  # atno 10765 bound_to 10752
  140.2664  134.3133  155.7841 H   0  0  0  0  0  0  0  0  0  0  0  0  # atno 11005 bound_to 11000
  144.9520  140.8188  143.5566 LP  0  0  0  0  0  0  0  0  0  0  0  0  # atno 17320 bound_to 7965
  145.2323  139.2109  143.5036 LP  0  0  0  0  0  0  0  0  0  0  0  0  # atno 17321 bound_to 7965
  140.2377  143.3687  152.1512 LP  0  0  0  0  0  0  0  0  0  0  0  0  # atno 17342 bound_to 10162
  139.5206  144.7035  151.5424 LP  0  0  0  0  0  0  0  0  0  0  0  0  # atno 17343 bound_to 10162
  156.7850  130.9235  151.3646 LP  0  0  0  0  0  0  0  0  0  0  0  0  # atno 17370 bound_to 10713
  157.6636  130.8988  149.9884 LP  0  0  0  0  0  0  0  0  0  0  0  0  # atno 17371 bound_to 10713
  141.2183  133.7440  156.9266 LP  0  0  0  0  0  0  0  0  0  0  0  0  # atno 17394 bound_to 11000
  140.1415  134.9290  157.2473 LP  0  0  0  0  0  0  0  0  0  0  0  0  # atno 17395 bound_to 11000

$$$$
