AV-unprocessed.smi:683|AV-procd|sdf|3330|dock4
  -GOLD-   22720 0303D 1   1.00000     0.00000
 Structure written by MMmdl.
 30 31  0  0  0  0  0  0  0  0  1 V2000
  152.7563  136.9564  159.5067 N   0  0  0  0  0  0  0  0  0  0  0  0
  152.7841  138.1131  159.4965 C   0  0  0  0  0  0  0  0  0  0  0  0
  152.8187  139.5660  159.4832 C   0  0  0  0  0  0  0  0  0  0  0  0
  153.6457  140.2591  160.3893 C   0  0  0  0  0  0  0  0  0  0  0  0
  153.6764  141.6657  160.3749 C   0  0  0  0  0  0  0  0  0  0  0  0
  152.8822  142.3780  159.4564 C   0  0  0  0  0  0  0  0  0  0  0  0
  152.0494  141.6997  158.5428 C   0  0  0  0  0  0  0  0  0  0  0  0
  151.3061  142.4764  157.6800 O   0  0  0  0  0  0  0  0  0  0  0  0
  150.1714  141.8919  157.0562 C   0  0  0  0  0  0  0  0  0  0  0  0
  150.6575  140.9455  155.9477 C   0  0  0  0  0  0  0  0  0  0  0  0
  149.5979  140.5251  155.0651 N   0  0  0  0  0  0  0  0  0  0  0  0
  148.4305  141.2549  154.9024 C   0  0  0  0  0  0  0  0  0  0  0  0
  147.4190  140.8659  154.0889 C   0  0  0  0  0  0  0  0  0  0  0  0
  145.9935  141.8302  153.9395 Cl  0  0  0  0  0  0  0  0  0  0  0  0
  147.5271  139.6195  153.3312 C   0  0  0  0  0  0  0  0  0  0  0  0
  146.6741  139.1755  152.5652 O   0  0  0  0  0  0  0  0  0  0  0  0
  148.7167  138.9132  153.5330 N   0  0  0  0  0  0  0  0  0  0  0  0
  149.7617  139.3045  154.3705 C   0  0  0  0  0  0  0  0  0  0  0  0
  150.7619  138.5947  154.4771 O   0  0  0  0  0  0  0  0  0  0  0  0
  152.0238  140.2817  158.5637 C   0  0  0  0  0  0  0  0  0  0  0  0
  148.8281  138.0444  153.0305 H   0  0  0  0  0  0  0  0  0  0  0  0
  154.2583  139.7188  161.0972 H   0  0  0  0  0  0  0  0  0  0  0  0
  154.3096  142.1990  161.0685 H   0  0  0  0  0  0  0  0  0  0  0  0
  152.9132  143.4578  159.4522 H   0  0  0  0  0  0  0  0  0  0  0  0
  149.5839  141.3408  157.7920 H   0  0  0  0  0  0  0  0  0  0  0  0
  149.5372  142.6681  156.6245 H   0  0  0  0  0  0  0  0  0  0  0  0
  151.4013  141.4381  155.3195 H   0  0  0  0  0  0  0  0  0  0  0  0
  151.1370  140.0474  156.3431 H   0  0  0  0  0  0  0  0  0  0  0  0
  148.3153  142.1792  155.4508 H   0  0  0  0  0  0  0  0  0  0  0  0
  151.3991  139.7246  157.8812 H   0  0  0  0  0  0  0  0  0  0  0  0
  1  2  3  0  0  0  0
  2  3  1  0  0  0  0
  3 20  1  0  0  0  0
  3  4  2  0  0  0  0
  4  5  1  0  0  0  0
  4 22  1  0  0  0  0
  5  6  2  0  0  0  0
  5 23  1  0  0  0  0
  6  7  1  0  0  0  0
  6 24  1  0  0  0  0
  7  8  1  0  0  0  0
  7 20  2  0  0  0  0
  8  9  1  0  0  0  0
  9 10  1  0  0  0  0
  9 25  1  0  0  0  0
  9 26  1  0  0  0  0
 10 11  1  0  0  0  0
 10 27  1  0  0  0  0
 10 28  1  0  0  0  0
 11 18  1  0  0  0  0
 11 12  1  0  0  0  0
 12 13  2  0  0  0  0
 12 29  1  0  0  0  0
 13 14  1  0  0  0  0
 13 15  1  0  0  0  0
 15 16  2  0  0  0  0
 15 17  1  0  0  0  0
 17 21  1  0  0  0  0
 17 18  1  0  0  0  0
 18 19  2  0  0  0  0
 20 30  1  0  0  0  0
M  END
> <s_m_source_file>
AV-unprocessed.smi

> <i_m_source_file_index>
683

> <i_lp_mmshare_version>
43012

> <i_f3d_flags>
0

> <s_epik_input>
TiNDYzFbY0hdW2NIXVtjSF1jKFtjSF0xKU9bQ0gyXVtDSDJdbjJbY0hdYyhDbCljKD1PKVtuSF1jMj1P

> <s_epik_cmdline>
J2VwaWtfcHl0aG9uJywgJy1waCcsICc3LjAnLCAnLXRuJywgJzgnLCAnLW1hJywgJzIwMCcsICctbWV0YWxfYmluZGluZycsICctaW1hZScsICc8aW5maWxlLm1hZT4nLCAnLW9tYWUnLCAnPG91dGZpbGUubWFlPic=

> <r_lp_tautomer_probability>
0.999537

> <r_epik_Ionization_Penalty>
0.0498777

> <r_epik_Ionization_Penalty_Charging>
0.0498777

> <r_epik_Ionization_Penalty_Neutral>
0

> <r_epik_State_Penalty>
0.042632

> <r_epik_Charging_Adjusted_Penalty>
0.0925097

> <i_epik_Tot_Q>
0

> <i_epik_Tot_abs_Q>
0

> <r_epik_Metal_State_Penalty>
2.56282

> <b_epik_Metal_Only>
0

> <s_lp_Force_Field>
OPLS_2005

> <r_lp_Energy>
12.7666

> <b_lp_Chiralities_Consistent>
1

> <s_lp_Variant>
AV-unprocessed.smi:683-1

> <Gold.Version>
5.8.1

> <Gold.Id.Protein>
6NUR|6NUR_protein|mol2

> <Gold.PLP.Fitness>
47.0902

> <Gold.PLP.PLP>
-40.3324

> <Gold.PLP.part.hbond>
-2.5931

> <Gold.PLP.part.metal>
0.0000

> <Gold.PLP.part.buried>
-2.7432

> <Gold.PLP.part.nonpolar>
-35.9494

> <Gold.PLP.part.repulsive>
1.1245

> <Gold.PLP.ligand.clash>
0.0000

> <Gold.PLP.ligand.torsion>
0.7039

> <Gold.PLP.Chemscore.Hbond>
1.7150

> <Gold.PLP.Chemscore.CHOScore>
1.0000

> <Gold.PLP.Chemscore.Metal>
0.0000

> <Gold.Chemscore.Hbonds>
donor molecule, donor type, donor heavy atom, donor atom, acceptor molecule, acceptor atom, score
      L1  H    17    21       P1  7948  0.73
      P1  H  6896  6909       L1     1  0.78
      L1  C    12    29       P1  8028  0.83

> <Gold.PLP.Chemscore.Internal.Correction>
0.0207

> <Gold.Rescore>
     Score         DG    S(hbond)    S(metal)    S(lipo)     H(rot)  DE(clash)    DE(int)     intcor
     14.75     -16.29       1.91        0.00      82.07       2.03       0.21       1.33       ----

> <Gold.Chemscore.Fitness>
14.7472

> <Gold.Chemscore.DG>
-16.2892

> <Gold.Chemscore.ZeroCoef>
-5.4800

> <Gold.Chemscore.Hbond>
1.9142

> <Gold.Chemscore.Metal>
0.0000

> <Gold.Chemscore.Lipo>
82.0654

> <Gold.Chemscore.Internal_Hbond>
0.0000

> <Gold.Chemscore.DEClash>
0.2080

> <Gold.Chemscore.DEInternal>
1.3340

> <Gold.Chemscore.Rot>
2.0258

> <Gold.Chemscore.Internal.Correction>
   9.000000E+99

> <Gold.Chemscore.Hbonds>
donor molecule, donor type, donor heavy atom, donor atom, acceptor molecule, acceptor atom, score
      L1  H    17    21       P1  7948  0.73
      P1  H  6896  6909       L1     1  0.76

> <Gold.Chemscore.Hbond.Weighted>
-6.3936

> <Gold.Chemscore.Metal.Weighted>
-0.0000

> <Gold.Chemscore.Lipo.Weighted>
-9.6017

> <Gold.Chemscore.Internal_Hbond.Weighted>
0.0000

> <Gold.Chemscore.DEClash.Weighted>
0.2080

> <Gold.Chemscore.DEInternal.Weighted>
1.3340

> <Gold.Chemscore.Rot.Weighted>
5.1860

> <Gold.Chemscore.Internal.Correction.Weighted>
   9.000000E+99

> <Gold.Protein.RotatedTorsions>
[ 6907 6896 6895 6894 ] final  152.11 input  -60.11 | X-H torsion
[ 7974 7965 7964 7962 ] final -129.67 input  175.53 | X-H torsion
[ 8008 7997 7996 7995 ] final   89.25 input   59.86 | X-H torsion
[ 10167 10162 10161 10158 ] final  -43.33 input  -65.29 | X-H torsion
[ 10718 10713 10712 10709 ] final  -27.97 input   66.30 | X-H torsion
[ 10763 10752 10751 10750 ] final  139.76 input  -60.55 | X-H torsion
[ 11005 11000 10999 10996 ] final   64.38 input  -57.11 | X-H torsion

> <Gold.Protein.ActiveResidues>
 VAL166  LYS551  ARG553  GLY616  TRP617  ASP618  TYR619  PRO620  LYS621  CYS622 
 ASP623  PHE694  ASN695  SER759  ASP760  ASP761  ALA762  ILE779  LEU786  VAL792 
 PHE793  MET794  SER795  GLU796  ALA797  LYS798  CYS799  TRP800  GLU811  SER814 

> <Gold.Protein.RotatedAtoms>
  152.0913  133.4202  159.4544 H   0  0  0  0  0  0  0  0  0  0  0  0  # atno 6907 bound_to 6896
  150.6862  134.2868  159.4659 H   0  0  0  0  0  0  0  0  0  0  0  0  # atno 6908 bound_to 6896
  152.0720  134.9527  160.0625 H   0  0  0  0  0  0  0  0  0  0  0  0  # atno 6909 bound_to 6896
  144.9549  140.7385  143.4765 H   0  0  0  0  0  0  0  0  0  0  0  0  # atno 7974 bound_to 7965
  155.9977  140.3362  155.6815 H   0  0  0  0  0  0  0  0  0  0  0  0  # atno 8008 bound_to 7997
  155.6333  140.0687  157.2660 H   0  0  0  0  0  0  0  0  0  0  0  0  # atno 8009 bound_to 7997
  154.4239  140.1756  156.1483 H   0  0  0  0  0  0  0  0  0  0  0  0  # atno 8010 bound_to 7997
  140.6938  143.2989  151.3336 H   0  0  0  0  0  0  0  0  0  0  0  0  # atno 10167 bound_to 10162
  156.4312  130.4445  149.7116 H   0  0  0  0  0  0  0  0  0  0  0  0  # atno 10718 bound_to 10713
  153.9114  135.3011  155.3448 H   0  0  0  0  0  0  0  0  0  0  0  0  # atno 10763 bound_to 10752
  154.7621  135.4929  153.9487 H   0  0  0  0  0  0  0  0  0  0  0  0  # atno 10764 bound_to 10752
  153.1190  135.6778  153.9469 H   0  0  0  0  0  0  0  0  0  0  0  0  # atno 10765 bound_to 10752
  139.9962  134.6513  156.0006 H   0  0  0  0  0  0  0  0  0  0  0  0  # atno 11005 bound_to 11000
  145.2787  139.1926  143.4802 LP  0  0  0  0  0  0  0  0  0  0  0  0  # atno 17320 bound_to 7965
  146.3334  140.2746  142.8607 LP  0  0  0  0  0  0  0  0  0  0  0  0  # atno 17321 bound_to 7965
  139.6369  144.0613  152.2523 LP  0  0  0  0  0  0  0  0  0  0  0  0  # atno 17342 bound_to 10162
  140.0106  144.6226  150.7650 LP  0  0  0  0  0  0  0  0  0  0  0  0  # atno 17343 bound_to 10162
  156.4018  130.7678  151.2686 LP  0  0  0  0  0  0  0  0  0  0  0  0  # atno 17370 bound_to 10713
  157.7508  131.0237  150.3847 LP  0  0  0  0  0  0  0  0  0  0  0  0  # atno 17371 bound_to 10713
  141.1606  133.6539  156.4307 LP  0  0  0  0  0  0  0  0  0  0  0  0  # atno 17394 bound_to 11000
  140.4813  134.6661  157.5172 LP  0  0  0  0  0  0  0  0  0  0  0  0  # atno 17395 bound_to 11000

$$$$
