AV-unprocessed.smi:1496|AV-procd|sdf|6056|dock3
  -GOLD-   22720 6173D 1   1.00000     0.00000
 Structure written by MMmdl.
 43 44  0  0  0  0  0  0  0  0  2 V2000
  150.2207  138.4627  156.4663 C   0  0  0  0  0  0  0  0  0  0  0  0
  150.5381  138.9107  155.0232 C   0  0  0  0  0  0  0  0  0  0  0  0
  151.7020  138.0654  154.4807 C   0  0  0  0  0  0  0  0  0  0  0  0
  149.3121  138.7755  154.0893 C   0  0  0  0  0  0  0  0  0  0  0  0
  148.2649  139.7754  154.4105 N   0  3  2  0  0  0  0  0  0  0  0  0
  147.0513  139.6079  153.5725 C   0  0  0  0  0  0  0  0  0  0  0  0
  146.2476  138.3455  153.9398 C   0  0  0  0  0  0  0  0  0  0  0  0
  146.5746  137.2314  153.0573 N   0  0  0  0  0  0  0  0  0  0  0  0
  145.7024  136.3018  152.6421 C   0  0  0  0  0  0  0  0  0  0  0  0
  144.5151  136.3025  152.9651 O   0  0  0  0  0  0  0  0  0  0  0  0
  146.2975  135.4018  151.8402 N   0  0  0  0  0  0  0  0  0  0  0  0
  145.7465  134.2499  151.2128 C   0  0  0  0  0  0  0  0  0  0  0  0
  146.4940  133.2814  150.4982 C   0  0  0  0  0  0  0  0  0  0  0  0
  145.8164  132.1931  149.9153 C   0  0  0  0  0  0  0  0  0  0  0  0
  144.4184  132.1132  150.0620 C   0  0  0  0  0  0  0  0  0  0  0  0
  143.6919  133.0319  150.7322 N   0  0  0  0  0  0  0  0  0  0  0  0
  144.3483  134.0722  151.2886 C   0  0  0  0  0  0  0  0  0  0  0  0
  148.8335  141.1434  154.3679 C   0  0  0  0  0  0  0  0  0  0  0  0
  150.0339  141.2499  155.3190 C   0  0  0  0  0  0  0  0  0  0  0  0
  151.0065  140.2613  154.9941 O   0  0  0  0  0  0  0  0  0  0  0  0
  149.9806  137.3996  156.5005 H   0  0  0  0  0  0  0  0  0  0  0  0
  149.3690  138.9928  156.8912 H   0  0  0  0  0  0  0  0  0  0  0  0
  151.0742  138.6272  157.1246 H   0  0  0  0  0  0  0  0  0  0  0  0
  151.4397  137.0076  154.4400 H   0  0  0  0  0  0  0  0  0  0  0  0
  152.5879  138.1623  155.1093 H   0  0  0  0  0  0  0  0  0  0  0  0
  151.9816  138.3753  153.4732 H   0  0  0  0  0  0  0  0  0  0  0  0
  149.6153  138.9130  153.0498 H   0  0  0  0  0  0  0  0  0  0  0  0
  148.9013  137.7676  154.1644 H   0  0  0  0  0  0  0  0  0  0  0  0
  146.4257  140.4992  153.6436 H   0  0  0  0  0  0  0  0  0  0  0  0
  147.3575  139.5293  152.5283 H   0  0  0  0  0  0  0  0  0  0  0  0
  146.4280  138.0646  154.9790 H   0  0  0  0  0  0  0  0  0  0  0  0
  145.1772  138.5255  153.8477 H   0  0  0  0  0  0  0  0  0  0  0  0
  147.5318  137.1612  152.7432 H   0  0  0  0  0  0  0  0  0  0  0  0
  147.2701  135.5751  151.6320 H   0  0  0  0  0  0  0  0  0  0  0  0
  147.5627  133.3474  150.3732 H   0  0  0  0  0  0  0  0  0  0  0  0
  146.3573  131.4375  149.3651 H   0  0  0  0  0  0  0  0  0  0  0  0
  143.8691  131.2919  149.6261 H   0  0  0  0  0  0  0  0  0  0  0  0
  143.7333  134.7882  151.8143 H   0  0  0  0  0  0  0  0  0  0  0  0
  149.1415  141.3814  153.3485 H   0  0  0  0  0  0  0  0  0  0  0  0
  148.0865  141.8817  154.6563 H   0  0  0  0  0  0  0  0  0  0  0  0
  150.4959  142.2327  155.2245 H   0  0  0  0  0  0  0  0  0  0  0  0
  149.7188  141.1581  156.3584 H   0  0  0  0  0  0  0  0  0  0  0  0
  147.9849  139.5967  155.3645 H   0  0  0  0  0  0  0  0  0  0  0  0
  1  2  1  0  0  0  0
  1 21  1  0  0  0  0
  1 22  1  0  0  0  0
  1 23  1  0  0  0  0
  2 20  1  0  0  0  0
  2  3  1  0  0  0  0
  2  4  1  0  0  0  0
  3 24  1  0  0  0  0
  3 25  1  0  0  0  0
  3 26  1  0  0  0  0
  4  5  1  0  0  0  0
  4 27  1  0  0  0  0
  4 28  1  0  0  0  0
  5  6  1  0  0  0  0
  5 18  1  0  0  0  0
  5 43  1  0  0  0  0
  6  7  1  0  0  0  0
  6 29  1  0  0  0  0
  6 30  1  0  0  0  0
  7  8  1  0  0  0  0
  7 31  1  0  0  0  0
  7 32  1  0  0  0  0
  8  9  1  0  0  0  0
  8 33  1  0  0  0  0
  9 10  2  0  0  0  0
  9 11  1  0  0  0  0
 11 12  1  0  0  0  0
 11 34  1  0  0  0  0
 12 17  1  0  0  0  0
 12 13  2  0  0  0  0
 13 14  1  0  0  0  0
 13 35  1  0  0  0  0
 14 15  2  0  0  0  0
 14 36  1  0  0  0  0
 15 16  1  0  0  0  0
 15 37  1  0  0  0  0
 16 17  2  0  0  0  0
 17 38  1  0  0  0  0
 18 19  1  0  0  0  0
 18 39  1  0  0  0  0
 18 40  1  0  0  0  0
 19 20  1  0  0  0  0
 19 41  1  0  0  0  0
 19 42  1  0  0  0  0
M  CHG  1   5   1
M  END
> <s_m_source_file>
AV-unprocessed.smi

> <i_m_source_file_index>
1496

> <i_lp_mmshare_version>
43012

> <i_f3d_flags>
0

> <s_epik_input>
W0NIM11DMShbQ0gzXSlbQ0gyXU4oW0NIMl1bQ0gyXU8xKVtDSDJdW0NIMl1bTkhdQyg9TylbTkhdYzJbY0hdW2NIXVtjSF1uW2NIXTI=

> <s_epik_cmdline>
J2VwaWtfcHl0aG9uJywgJy1waCcsICc3LjAnLCAnLXRuJywgJzgnLCAnLW1hJywgJzIwMCcsICctbWV0YWxfYmluZGluZycsICctaW1hZScsICc8aW5maWxlLm1hZT4nLCAnLW9tYWUnLCAnPG91dGZpbGUubWFlPic=

> <r_epik_Ionization_Penalty>
0.606681

> <r_epik_Ionization_Penalty_Charging>
0.602531

> <r_epik_Ionization_Penalty_Neutral>
0.00415082

> <r_epik_State_Penalty>
0.607427

> <r_epik_Charging_Adjusted_Penalty>
1.20996

> <i_epik_Tot_Q>
1

> <i_epik_Tot_abs_Q>
1

> <r_epik_Metal_State_Penalty>
0.604583

> <b_epik_Metal_Only>
0

> <s_lp_Force_Field>
OPLS_2005

> <r_lp_Energy>
20.8776

> <b_lp_Chiralities_Consistent>
1

> <s_lp_Variant>
AV-unprocessed.smi:1496-2

> <Gold.Version>
5.8.1

> <Gold.Id.Protein>
6NUR|6NUR_protein|mol2

> <Gold.PLP.Fitness>
44.0628

> <Gold.PLP.PLP>
-36.1222

> <Gold.PLP.part.hbond>
-3.0000

> <Gold.PLP.part.metal>
0.0000

> <Gold.PLP.part.buried>
-5.9601

> <Gold.PLP.part.nonpolar>
-27.7508

> <Gold.PLP.part.repulsive>
0.4902

> <Gold.PLP.ligand.clash>
0.0000

> <Gold.PLP.ligand.torsion>
0.5431

> <Gold.PLP.Chemscore.Hbond>
3.0000

> <Gold.PLP.Chemscore.CHOScore>
0.0000

> <Gold.PLP.Chemscore.Metal>
0.0000

> <Gold.Chemscore.Hbonds>
donor molecule, donor type, donor heavy atom, donor atom, acceptor molecule, acceptor atom, score
      L1  H     8    33       P1  7948  1.00
      L1  H    11    34       P1  7948  1.00
      P1  H  7989  7998       L1    20  1.00

> <Gold.PLP.Chemscore.Internal.Correction>
0.0267

> <Gold.Rescore>
     Score         DG    S(hbond)    S(metal)    S(lipo)     H(rot)  DE(clash)    DE(int)     intcor
     19.93     -21.86       2.79        0.00      93.16       1.50       0.08       1.85       ----

> <Gold.Chemscore.Fitness>
19.9310

> <Gold.Chemscore.DG>
-21.8646

> <Gold.Chemscore.ZeroCoef>
-5.4800

> <Gold.Chemscore.Hbond>
2.7926

> <Gold.Chemscore.Metal>
0.0000

> <Gold.Chemscore.Lipo>
93.1616

> <Gold.Chemscore.Internal_Hbond>
0.0000

> <Gold.Chemscore.DEClash>
0.0789

> <Gold.Chemscore.DEInternal>
1.8547

> <Gold.Chemscore.Rot>
1.5010

> <Gold.Chemscore.Internal.Correction>
   9.000000E+99

> <Gold.Chemscore.Hbonds>
donor molecule, donor type, donor heavy atom, donor atom, acceptor molecule, acceptor atom, score
      L1  H     8    33       P1  7948  0.96
      L1  H    11    34       P1  7948  0.99
      P1  H  7989  7998       L1    20  0.28

> <Gold.Chemscore.Hbond.Weighted>
-9.3273

> <Gold.Chemscore.Metal.Weighted>
-0.0000

> <Gold.Chemscore.Lipo.Weighted>
-10.8999

> <Gold.Chemscore.Internal_Hbond.Weighted>
0.0000

> <Gold.Chemscore.DEClash.Weighted>
0.0789

> <Gold.Chemscore.DEInternal.Weighted>
1.8547

> <Gold.Chemscore.Rot.Weighted>
3.8426

> <Gold.Chemscore.Internal.Correction.Weighted>
   9.000000E+99

> <Gold.Protein.RotatedTorsions>
[ 6907 6896 6895 6894 ] final    0.43 input  -60.11 | X-H torsion
[ 7974 7965 7964 7962 ] final  -96.98 input  175.53 | X-H torsion
[ 8008 7997 7996 7995 ] final  121.86 input   59.86 | X-H torsion
[ 10167 10162 10161 10158 ] final -130.05 input  -65.29 | X-H torsion
[ 10718 10713 10712 10709 ] final  152.08 input   66.30 | X-H torsion
[ 10763 10752 10751 10750 ] final  176.93 input  -60.55 | X-H torsion
[ 11005 11000 10999 10996 ] final   13.49 input  -57.11 | X-H torsion

> <Gold.Protein.ActiveResidues>
 VAL166  LYS551  ARG553  GLY616  TRP617  ASP618  TYR619  PRO620  LYS621  CYS622 
 ASP623  PHE694  ASN695  SER759  ASP760  ASP761  ALA762  ILE779  LEU786  VAL792 
 PHE793  MET794  SER795  GLU796  ALA797  LYS798  CYS799  TRP800  GLU811  SER814 

> <Gold.Protein.RotatedAtoms>
  151.5764  135.1060  160.0006 H   0  0  0  0  0  0  0  0  0  0  0  0  # atno 6907 bound_to 6896
  152.4376  133.7384  159.6638 H   0  0  0  0  0  0  0  0  0  0  0  0  # atno 6908 bound_to 6896
  150.8276  133.8076  159.3135 H   0  0  0  0  0  0  0  0  0  0  0  0  # atno 6909 bound_to 6896
  145.3397  140.9457  143.2615 H   0  0  0  0  0  0  0  0  0  0  0  0  # atno 7974 bound_to 7965
  156.2704  140.2799  156.1376 H   0  0  0  0  0  0  0  0  0  0  0  0  # atno 8008 bound_to 7997
  155.0988  140.0389  157.2708 H   0  0  0  0  0  0  0  0  0  0  0  0  # atno 8009 bound_to 7997
  154.6831  140.2613  155.6893 H   0  0  0  0  0  0  0  0  0  0  0  0  # atno 8010 bound_to 7997
  139.9334  143.6246  152.2523 H   0  0  0  0  0  0  0  0  0  0  0  0  # atno 10167 bound_to 10162
  157.2625  131.0801  151.1656 H   0  0  0  0  0  0  0  0  0  0  0  0  # atno 10718 bound_to 10713
  154.4877  135.2777  155.1521 H   0  0  0  0  0  0  0  0  0  0  0  0  # atno 10763 bound_to 10752
  154.3205  135.6210  153.5509 H   0  0  0  0  0  0  0  0  0  0  0  0  # atno 10764 bound_to 10752
  152.9883  135.5741  154.5291 H   0  0  0  0  0  0  0  0  0  0  0  0  # atno 10765 bound_to 10752
  140.4802  134.0943  155.7749 H   0  0  0  0  0  0  0  0  0  0  0  0  # atno 11005 bound_to 11000
  144.8799  139.4918  143.6728 LP  0  0  0  0  0  0  0  0  0  0  0  0  # atno 17320 bound_to 7965
  146.3012  139.7433  142.9090 LP  0  0  0  0  0  0  0  0  0  0  0  0  # atno 17321 bound_to 7965
  139.6763  144.7658  151.1689 LP  0  0  0  0  0  0  0  0  0  0  0  0  # atno 17342 bound_to 10162
  140.7631  143.5789  150.8915 LP  0  0  0  0  0  0  0  0  0  0  0  0  # atno 17343 bound_to 10162
  157.3160  130.6913  149.6242 LP  0  0  0  0  0  0  0  0  0  0  0  0  # atno 17370 bound_to 10713
  155.9664  130.4349  150.5070 LP  0  0  0  0  0  0  0  0  0  0  0  0  # atno 17371 bound_to 10713
  141.1535  133.8926  157.2038 LP  0  0  0  0  0  0  0  0  0  0  0  0  # atno 17394 bound_to 11000
  139.9831  135.0091  156.9798 LP  0  0  0  0  0  0  0  0  0  0  0  0  # atno 17395 bound_to 11000

$$$$
