AV-unprocessed.smi:707|AV-procd|sdf|3456|dock6
  -GOLD-   22720 0443D 1   1.00000     0.00000
 Structure written by MMmdl.
 44 45  0  0  0  0  0  0  0  0  1 V2000
  143.7002  132.5207  150.2522 C   0  0  0  0  0  0  0  0  0  0  0  0
  144.9527  132.8541  150.9961 C   0  0  0  0  0  0  0  0  0  0  0  0
  145.7902  131.9362  151.4935 N   0  0  0  0  0  0  0  0  0  0  0  0
  146.8061  132.6502  152.0984 N   0  0  0  0  0  0  0  0  0  0  0  0
  146.4798  133.9276  151.9047 C   0  0  0  0  0  0  0  0  0  0  0  0
  145.3394  134.1253  151.2261 N   0  0  0  0  0  0  0  0  0  0  0  0
  144.7131  135.3813  150.8588 C   0  0  0  0  0  0  0  0  0  0  0  0
  144.4599  136.2657  152.0911 C   0  0  0  0  0  0  0  0  0  0  0  0
  145.2260  137.5045  152.0306 N   0  0  0  0  0  0  0  0  0  0  0  0
  146.1359  137.8930  152.9370 C   0  0  0  0  0  0  0  0  0  0  0  0
  146.4291  137.2308  153.9323 O   0  0  0  0  0  0  0  0  0  0  0  0
  146.8259  139.2288  152.6753 C   0  0  0  0  0  0  0  0  0  0  0  0
  146.4827  140.1240  153.7233 O   0  0  0  0  0  0  0  0  0  0  0  0
  147.0759  141.4149  153.6286 C   0  0  1  0  0  0  0  0  0  0  0  0
  146.3814  142.3216  154.6601 C   0  0  0  0  0  0  0  0  0  0  0  0
  146.7078  141.8990  156.1025 C   0  0  0  0  0  0  0  0  0  0  0  0
  148.2252  141.8502  156.3431 C   0  0  0  0  0  0  0  0  0  0  0  0
  148.9305  140.9324  155.3262 C   0  0  2  0  0  0  0  0  0  0  0  0
  150.4467  140.8910  155.5639 C   0  0  0  0  0  0  0  0  0  0  0  0
  148.5984  141.3724  153.8865 C   0  0  0  0  0  0  0  0  0  0  0  0
  143.5493  131.4412  150.2230 H   0  0  0  0  0  0  0  0  0  0  0  0
  143.7627  132.8882  149.2279 H   0  0  0  0  0  0  0  0  0  0  0  0
  142.8388  132.9772  150.7398 H   0  0  0  0  0  0  0  0  0  0  0  0
  147.0888  134.7420  152.2695 H   0  0  0  0  0  0  0  0  0  0  0  0
  145.3640  135.8901  150.1467 H   0  0  0  0  0  0  0  0  0  0  0  0
  143.7793  135.1731  150.3358 H   0  0  0  0  0  0  0  0  0  0  0  0
  143.4026  136.5257  152.1533 H   0  0  0  0  0  0  0  0  0  0  0  0
  144.6999  135.7247  153.0081 H   0  0  0  0  0  0  0  0  0  0  0  0
  145.0478  138.1163  151.2472 H   0  0  0  0  0  0  0  0  0  0  0  0
  147.9032  139.0723  152.6245 H   0  0  0  0  0  0  0  0  0  0  0  0
  146.4987  139.6199  151.7109 H   0  0  0  0  0  0  0  0  0  0  0  0
  146.8844  141.8222  152.6345 H   0  0  0  0  0  0  0  0  0  0  0  0
  146.7017  143.3530  154.5074 H   0  0  0  0  0  0  0  0  0  0  0  0
  145.3025  142.3094  154.5028 H   0  0  0  0  0  0  0  0  0  0  0  0
  146.2429  142.5907  156.8054 H   0  0  0  0  0  0  0  0  0  0  0  0
  146.2743  140.9188  156.3048 H   0  0  0  0  0  0  0  0  0  0  0  0
  148.6355  142.8588  156.2758 H   0  0  0  0  0  0  0  0  0  0  0  0
  148.4226  141.5043  157.3584 H   0  0  0  0  0  0  0  0  0  0  0  0
  148.5509  139.9192  155.4659 H   0  0  0  0  0  0  0  0  0  0  0  0
  150.8952  141.8770  155.4390 H   0  0  0  0  0  0  0  0  0  0  0  0
  150.9345  140.2119  154.8640 H   0  0  0  0  0  0  0  0  0  0  0  0
  150.6770  140.5452  156.5720 H   0  0  0  0  0  0  0  0  0  0  0  0
  149.0956  140.7207  153.1689 H   0  0  0  0  0  0  0  0  0  0  0  0
  149.0119  142.3669  153.7129 H   0  0  0  0  0  0  0  0  0  0  0  0
  1  2  1  0  0  0  0
  1 21  1  0  0  0  0
  1 22  1  0  0  0  0
  1 23  1  0  0  0  0
  2  6  1  0  0  0  0
  2  3  2  0  0  0  0
  3  4  1  0  0  0  0
  4  5  2  0  0  0  0
  5  6  1  0  0  0  0
  5 24  1  0  0  0  0
  6  7  1  0  0  0  0
  7  8  1  0  0  0  0
  7 25  1  0  0  0  0
  7 26  1  0  0  0  0
  8  9  1  0  0  0  0
  8 27  1  0  0  0  0
  8 28  1  0  0  0  0
  9 10  1  0  0  0  0
  9 29  1  0  0  0  0
 10 11  2  0  0  0  0
 10 12  1  0  0  0  0
 12 13  1  0  0  0  0
 12 30  1  0  0  0  0
 12 31  1  0  0  0  0
 13 14  1  0  0  0  0
 14 20  1  0  0  0  0
 14 15  1  0  0  0  0
 14 32  1  0  0  0  0
 15 16  1  0  0  0  0
 15 33  1  0  0  0  0
 15 34  1  0  0  0  0
 16 17  1  0  0  0  0
 16 35  1  0  0  0  0
 16 36  1  0  0  0  0
 17 18  1  0  0  0  0
 17 37  1  0  0  0  0
 17 38  1  0  0  0  0
 18 19  1  0  0  0  0
 18 20  1  0  0  0  0
 18 39  1  0  0  0  0
 19 40  1  0  0  0  0
 19 41  1  0  0  0  0
 19 42  1  0  0  0  0
 20 43  1  0  0  0  0
 20 44  1  0  0  0  0
M  END
> <s_m_source_file>
AV-unprocessed.smi

> <i_m_source_file_index>
707

> <i_lp_mmshare_version>
43012

> <i_f3d_flags>
0

> <s_epik_input>
W0NIM11jMW5uW2NIXW4xW0NIMl1bQ0gyXVtOSF1DKD1PKVtDSDJdT1tDQEBIXTJbQ0gyXVtDSDJdW0NIMl1bQ0BASF0oW0NIM10pW0NIMl0y

> <s_epik_cmdline>
J2VwaWtfcHl0aG9uJywgJy1waCcsICc3LjAnLCAnLXRuJywgJzgnLCAnLW1hJywgJzIwMCcsICctbWV0YWxfYmluZGluZycsICctaW1hZScsICc8aW5maWxlLm1hZT4nLCAnLW9tYWUnLCAnPG91dGZpbGUubWFlPic=

> <r_lp_tautomer_probability>
1

> <r_epik_Ionization_Penalty>
0.000271783

> <r_epik_Ionization_Penalty_Charging>
0

> <r_epik_Ionization_Penalty_Neutral>
0.000271783

> <r_epik_State_Penalty>
-0

> <r_epik_Charging_Adjusted_Penalty>
0

> <i_epik_Tot_Q>
0

> <i_epik_Tot_abs_Q>
0

> <r_epik_Metal_State_Penalty>
-0

> <b_epik_Metal_Only>
0

> <s_lp_Force_Field>
OPLS_2005

> <r_lp_Energy>
13.3948

> <b_lp_Chiralities_Consistent>
1

> <s_lp_Variant>
AV-unprocessed.smi:707-4

> <Gold.Version>
5.8.1

> <Gold.Id.Protein>
6NUR|6NUR_protein|mol2

> <Gold.PLP.Fitness>
40.5827

> <Gold.PLP.PLP>
-35.6781

> <Gold.PLP.part.hbond>
-1.0000

> <Gold.PLP.part.metal>
0.0000

> <Gold.PLP.part.buried>
-4.8570

> <Gold.PLP.part.nonpolar>
-30.7960

> <Gold.PLP.part.repulsive>
0.5615

> <Gold.PLP.ligand.clash>
0.0000

> <Gold.PLP.ligand.torsion>
0.4600

> <Gold.PLP.Chemscore.Hbond>
0.9280

> <Gold.PLP.Chemscore.CHOScore>
1.0000

> <Gold.PLP.Chemscore.Metal>
0.0000

> <Gold.Chemscore.Hbonds>
donor molecule, donor type, donor heavy atom, donor atom, acceptor molecule, acceptor atom, score
      L1  H     9    29       P1 10171  0.94
      L1  C     5    24       P1  7948  1.00

> <Gold.PLP.Chemscore.Internal.Correction>
0.0407

> <Gold.Rescore>
     Score         DG    S(hbond)    S(metal)    S(lipo)     H(rot)  DE(clash)    DE(int)     intcor
      9.59     -10.36       0.93        0.00      67.98       2.42       0.26       0.51       ----

> <Gold.Chemscore.Fitness>
9.5898

> <Gold.Chemscore.DG>
-10.3589

> <Gold.Chemscore.ZeroCoef>
-5.4800

> <Gold.Chemscore.Hbond>
0.9336

> <Gold.Chemscore.Metal>
0.0000

> <Gold.Chemscore.Lipo>
67.9794

> <Gold.Chemscore.Internal_Hbond>
0.0000

> <Gold.Chemscore.DEClash>
0.2555

> <Gold.Chemscore.DEInternal>
0.5135

> <Gold.Chemscore.Rot>
2.4191

> <Gold.Chemscore.Internal.Correction>
   9.000000E+99

> <Gold.Chemscore.Hbonds>
donor molecule, donor type, donor heavy atom, donor atom, acceptor molecule, acceptor atom, score
      L1  H     9    29       P1 10171  0.92

> <Gold.Chemscore.Hbond.Weighted>
-3.1182

> <Gold.Chemscore.Metal.Weighted>
-0.0000

> <Gold.Chemscore.Lipo.Weighted>
-7.9536

> <Gold.Chemscore.Internal_Hbond.Weighted>
0.0000

> <Gold.Chemscore.DEClash.Weighted>
0.2555

> <Gold.Chemscore.DEInternal.Weighted>
0.5135

> <Gold.Chemscore.Rot.Weighted>
6.1929

> <Gold.Chemscore.Internal.Correction.Weighted>
   9.000000E+99

> <Gold.Protein.RotatedTorsions>
[ 6907 6896 6895 6894 ] final -157.50 input  -60.11 | X-H torsion
[ 7974 7965 7964 7962 ] final  129.14 input  175.53 | X-H torsion
[ 8008 7997 7996 7995 ] final -147.28 input   59.86 | X-H torsion
[ 10167 10162 10161 10158 ] final   25.46 input  -65.29 | X-H torsion
[ 10718 10713 10712 10709 ] final  -11.58 input   66.30 | X-H torsion
[ 10763 10752 10751 10750 ] final   43.11 input  -60.55 | X-H torsion
[ 11005 11000 10999 10996 ] final  168.58 input  -57.11 | X-H torsion

> <Gold.Protein.ActiveResidues>
 VAL166  LYS551  ARG553  GLY616  TRP617  ASP618  TYR619  PRO620  LYS621  CYS622 
 ASP623  PHE694  ASN695  SER759  ASP760  ASP761  ALA762  ILE779  LEU786  VAL792 
 PHE793  MET794  SER795  GLU796  ALA797  LYS798  CYS799  TRP800  GLU811  SER814 

> <Gold.Protein.RotatedAtoms>
  151.3037  133.4111  159.2641 H   0  0  0  0  0  0  0  0  0  0  0  0  # atno 6907 bound_to 6896
  151.0173  134.9443  159.8050 H   0  0  0  0  0  0  0  0  0  0  0  0  # atno 6908 bound_to 6896
  152.5315  134.3001  159.9128 H   0  0  0  0  0  0  0  0  0  0  0  0  # atno 6909 bound_to 6896
  145.0319  139.4038  143.5145 H   0  0  0  0  0  0  0  0  0  0  0  0  # atno 7974 bound_to 7965
  155.5730  140.0636  157.2802 H   0  0  0  0  0  0  0  0  0  0  0  0  # atno 8008 bound_to 7997
  154.4355  140.1865  156.0945 H   0  0  0  0  0  0  0  0  0  0  0  0  # atno 8009 bound_to 7997
  156.0362  140.3301  155.7197 H   0  0  0  0  0  0  0  0  0  0  0  0  # atno 8010 bound_to 7997
  140.5104  144.0169  150.6370 H   0  0  0  0  0  0  0  0  0  0  0  0  # atno 10167 bound_to 10162
  156.6570  130.4971  149.6043 H   0  0  0  0  0  0  0  0  0  0  0  0  # atno 10718 bound_to 10713
  152.9868  135.6111  154.3058 H   0  0  0  0  0  0  0  0  0  0  0  0  # atno 10763 bound_to 10752
  154.2776  135.2778  155.2713 H   0  0  0  0  0  0  0  0  0  0  0  0  # atno 10764 bound_to 10752
  154.5066  135.5852  153.6629 H   0  0  0  0  0  0  0  0  0  0  0  0  # atno 10765 bound_to 10752
  140.2887  134.7691  157.3820 H   0  0  0  0  0  0  0  0  0  0  0  0  # atno 11005 bound_to 11000
  146.3499  139.9874  142.8689 LP  0  0  0  0  0  0  0  0  0  0  0  0  # atno 17320 bound_to 7965
  145.1759  140.9744  143.4294 LP  0  0  0  0  0  0  0  0  0  0  0  0  # atno 17321 bound_to 7965
  140.3490  143.2974  152.0507 LP  0  0  0  0  0  0  0  0  0  0  0  0  # atno 17342 bound_to 10162
  139.4895  144.6388  151.6921 LP  0  0  0  0  0  0  0  0  0  0  0  0  # atno 17343 bound_to 10162
  156.2040  130.6638  151.1199 LP  0  0  0  0  0  0  0  0  0  0  0  0  # atno 17370 bound_to 10713
  157.7122  131.0728  150.6458 LP  0  0  0  0  0  0  0  0  0  0  0  0  # atno 17371 bound_to 10713
  140.1215  134.5213  155.8179 LP  0  0  0  0  0  0  0  0  0  0  0  0  # atno 17394 bound_to 11000
  141.2150  133.6758  156.6875 LP  0  0  0  0  0  0  0  0  0  0  0  0  # atno 17395 bound_to 11000

$$$$
