AV-unprocessed.smi:3231|AV-procd|sdf|12338|dock9
  -GOLD-   2272018193D 1   1.00000     0.00000
 Structure written by MMmdl.
 40 41  0  0  0  0  0  0  0  0  1 V2000
  146.5348  139.5602  151.8513 O   0  0  0  0  0  0  0  0  0  0  0  0
  146.6923  138.9553  153.1199 C   0  0  1  0  0  0  0  0  0  0  0  0
  145.6898  137.7890  153.1900 C   0  0  0  0  0  0  0  0  0  0  0  0
  145.4814  137.1876  151.8753 N   0  0  0  0  0  0  0  0  0  0  0  0
  144.8002  135.8985  151.9308 C   0  0  0  0  0  0  0  0  0  0  0  0
  144.6399  135.2988  150.5271 C   0  0  0  0  0  0  0  0  0  0  0  0
  144.9582  133.8842  150.5123 N   0  0  0  0  0  0  0  0  0  0  0  0
  144.1581  132.8295  150.1264 C   0  0  0  0  0  0  0  0  0  0  0  0
  144.8894  131.6869  150.2822 C   0  0  0  0  0  0  0  0  0  0  0  0
  146.1411  132.1511  150.7748 C   0  0  0  0  0  0  0  0  0  0  0  0
  146.1792  133.4669  150.9115 N   0  0  0  0  0  0  0  0  0  0  0  0
  148.1528  138.4684  153.2480 C   0  0  0  0  0  0  0  0  0  0  0  0
  148.9131  139.0511  154.3549 N   0  0  0  0  0  0  0  0  0  0  0  0
  148.9366  140.5118  154.3156 C   0  0  0  0  0  0  0  0  0  0  0  0
  149.7664  141.1057  155.4675 C   0  0  0  0  0  0  0  0  0  0  0  0
  151.0866  140.5737  155.4329 O   0  0  0  0  0  0  0  0  0  0  0  0
  151.1068  139.1528  155.5195 C   0  0  0  0  0  0  0  0  0  0  0  0
  150.2858  138.5560  154.3634 C   0  0  0  0  0  0  0  0  0  0  0  0
  145.7171  140.0343  151.8490 H   0  0  0  0  0  0  0  0  0  0  0  0
  146.4725  139.6773  153.9082 H   0  0  0  0  0  0  0  0  0  0  0  0
  146.0206  137.0412  153.9122 H   0  0  0  0  0  0  0  0  0  0  0  0
  144.7324  138.1641  153.5534 H   0  0  0  0  0  0  0  0  0  0  0  0
  144.9550  137.8267  151.2878 H   0  0  0  0  0  0  0  0  0  0  0  0
  145.3599  135.2083  152.5632 H   0  0  0  0  0  0  0  0  0  0  0  0
  143.8175  136.0174  152.3892 H   0  0  0  0  0  0  0  0  0  0  0  0
  143.6186  135.4306  150.1664 H   0  0  0  0  0  0  0  0  0  0  0  0
  145.2948  135.8080  149.8185 H   0  0  0  0  0  0  0  0  0  0  0  0
  143.1469  132.9780  149.7766 H   0  0  0  0  0  0  0  0  0  0  0  0
  144.5783  130.6736  150.0759 H   0  0  0  0  0  0  0  0  0  0  0  0
  147.0170  131.5751  151.0349 H   0  0  0  0  0  0  0  0  0  0  0  0
  148.1248  137.3901  153.4089 H   0  0  0  0  0  0  0  0  0  0  0  0
  148.6851  138.6028  152.3046 H   0  0  0  0  0  0  0  0  0  0  0  0
  149.3466  140.8497  153.3628 H   0  0  0  0  0  0  0  0  0  0  0  0
  147.9231  140.9070  154.3786 H   0  0  0  0  0  0  0  0  0  0  0  0
  149.8167  142.1909  155.3783 H   0  0  0  0  0  0  0  0  0  0  0  0
  149.3035  140.8845  156.4305 H   0  0  0  0  0  0  0  0  0  0  0  0
  152.1394  138.8068  155.4695 H   0  0  0  0  0  0  0  0  0  0  0  0
  150.7072  138.8336  156.4832 H   0  0  0  0  0  0  0  0  0  0  0  0
  150.2871  137.4686  154.4467 H   0  0  0  0  0  0  0  0  0  0  0  0
  150.7716  138.7968  153.4164 H   0  0  0  0  0  0  0  0  0  0  0  0
  1  2  1  0  0  0  0
  1 19  1  0  0  0  0
  2  3  1  0  0  0  0
  2 12  1  0  0  0  0
  2 20  1  0  0  0  0
  3  4  1  0  0  0  0
  3 21  1  0  0  0  0
  3 22  1  0  0  0  0
  4  5  1  0  0  0  0
  4 23  1  0  0  0  0
  5  6  1  0  0  0  0
  5 24  1  0  0  0  0
  5 25  1  0  0  0  0
  6  7  1  0  0  0  0
  6 26  1  0  0  0  0
  6 27  1  0  0  0  0
  7 11  1  0  0  0  0
  7  8  1  0  0  0  0
  8  9  2  0  0  0  0
  8 28  1  0  0  0  0
  9 10  1  0  0  0  0
  9 29  1  0  0  0  0
 10 11  2  0  0  0  0
 10 30  1  0  0  0  0
 12 13  1  0  0  0  0
 12 31  1  0  0  0  0
 12 32  1  0  0  0  0
 13 18  1  0  0  0  0
 13 14  1  0  0  0  0
 14 15  1  0  0  0  0
 14 33  1  0  0  0  0
 14 34  1  0  0  0  0
 15 16  1  0  0  0  0
 15 35  1  0  0  0  0
 15 36  1  0  0  0  0
 16 17  1  0  0  0  0
 17 18  1  0  0  0  0
 17 37  1  0  0  0  0
 17 38  1  0  0  0  0
 18 39  1  0  0  0  0
 18 40  1  0  0  0  0
M  END
> <s_m_source_file>
AV-unprocessed.smi

> <i_m_source_file_index>
3231

> <i_lp_mmshare_version>
43012

> <i_f3d_flags>
0

> <s_epik_input>
W0NIMl0xW0NIMl1PW0NIMl1bQ0gyXU4xW0NIMl1bQ0BIXShbT0hdKVtDSDJdW05IXVtDSDJdW0NIMl1uMltjSF1bY0hdW2NIXW4y

> <s_epik_cmdline>
J2VwaWtfcHl0aG9uJywgJy1waCcsICc3LjAnLCAnLXRuJywgJzgnLCAnLW1hJywgJzIwMCcsICctbWV0YWxfYmluZGluZycsICctaW1hZScsICc8aW5maWxlLm1hZT4nLCAnLW9tYWUnLCAnPG91dGZpbGUubWFlPic=

> <r_lp_tautomer_probability>
1

> <r_epik_Ionization_Penalty>
2.37071

> <r_epik_Ionization_Penalty_Charging>
0

> <r_epik_Ionization_Penalty_Neutral>
2.37071

> <r_epik_State_Penalty>
1.72455

> <r_epik_Charging_Adjusted_Penalty>
1.72455

> <i_epik_Tot_Q>
0

> <i_epik_Tot_abs_Q>
0

> <r_epik_Metal_State_Penalty>
1.72366

> <b_epik_Metal_Only>
0

> <s_lp_Force_Field>
OPLS_2005

> <r_lp_Energy>
35.5688

> <b_lp_Chiralities_Consistent>
1

> <s_lp_Variant>
AV-unprocessed.smi:3231-8

> <Gold.Version>
5.8.1

> <Gold.Id.Protein>
6NUR|6NUR_protein|mol2

> <Gold.PLP.Fitness>
44.5341

> <Gold.PLP.PLP>
-32.5017

> <Gold.PLP.part.hbond>
-3.1345

> <Gold.PLP.part.metal>
0.0000

> <Gold.PLP.part.buried>
-1.4616

> <Gold.PLP.part.nonpolar>
-30.0875

> <Gold.PLP.part.repulsive>
0.3921

> <Gold.PLP.ligand.clash>
0.0000

> <Gold.PLP.ligand.torsion>
1.4340

> <Gold.PLP.Chemscore.Hbond>
2.9120

> <Gold.PLP.Chemscore.CHOScore>
2.0000

> <Gold.PLP.Chemscore.Metal>
0.0000

> <Gold.Chemscore.Hbonds>
donor molecule, donor type, donor heavy atom, donor atom, acceptor molecule, acceptor atom, score
      L1  H     1    19       P1 10175  0.68
      L1  H     4    23       P1 10171  1.00
      P1  H  7989  7998       L1    16  0.90
      L1  C     8    28       P1 10186  0.85
      L1  C    10    30       P1 10747  1.00

> <Gold.PLP.Chemscore.Internal.Correction>
0.1643

> <Gold.Rescore>
     Score         DG    S(hbond)    S(metal)    S(lipo)     H(rot)  DE(clash)    DE(int)     intcor
     11.86     -13.47       1.77        0.00      77.21       2.72       0.05       1.56       ----

> <Gold.Chemscore.Fitness>
11.8582

> <Gold.Chemscore.DG>
-13.4668

> <Gold.Chemscore.ZeroCoef>
-5.4800

> <Gold.Chemscore.Hbond>
1.7702

> <Gold.Chemscore.Metal>
0.0000

> <Gold.Chemscore.Lipo>
77.2067

> <Gold.Chemscore.Internal_Hbond>
0.0000

> <Gold.Chemscore.DEClash>
0.0519

> <Gold.Chemscore.DEInternal>
1.5566

> <Gold.Chemscore.Rot>
2.7183

> <Gold.Chemscore.Internal.Correction>
   9.000000E+99

> <Gold.Chemscore.Hbonds>
donor molecule, donor type, donor heavy atom, donor atom, acceptor molecule, acceptor atom, score
      L1  H     1    19       P1 10175  0.30
      L1  H     4    23       P1 10171  0.97
      P1  H  7989  7998       L1    16  0.11

> <Gold.Chemscore.Hbond.Weighted>
-5.9125

> <Gold.Chemscore.Metal.Weighted>
-0.0000

> <Gold.Chemscore.Lipo.Weighted>
-9.0332

> <Gold.Chemscore.Internal_Hbond.Weighted>
0.0000

> <Gold.Chemscore.DEClash.Weighted>
0.0519

> <Gold.Chemscore.DEInternal.Weighted>
1.5566

> <Gold.Chemscore.Rot.Weighted>
6.9589

> <Gold.Chemscore.Internal.Correction.Weighted>
   9.000000E+99

> <Gold.Protein.RotatedTorsions>
[ 6907 6896 6895 6894 ] final  -13.97 input  -60.11 | X-H torsion
[ 7974 7965 7964 7962 ] final  151.16 input  175.53 | X-H torsion
[ 8008 7997 7996 7995 ] final   38.95 input   59.86 | X-H torsion
[ 10167 10162 10161 10158 ] final   86.60 input  -65.29 | X-H torsion
[ 10718 10713 10712 10709 ] final   -1.44 input   66.30 | X-H torsion
[ 10763 10752 10751 10750 ] final   57.25 input  -60.55 | X-H torsion
[ 11005 11000 10999 10996 ] final  -11.95 input  -57.11 | X-H torsion

> <Gold.Protein.ActiveResidues>
 VAL166  LYS551  ARG553  GLY616  TRP617  ASP618  TYR619  PRO620  LYS621  CYS622 
 ASP623  PHE694  ASN695  SER759  ASP760  ASP761  ALA762  ILE779  LEU786  VAL792 
 PHE793  MET794  SER795  GLU796  ALA797  LYS798  CYS799  TRP800  GLU811  SER814 

> <Gold.Protein.RotatedAtoms>
  151.3467  135.0875  159.9388 H   0  0  0  0  0  0  0  0  0  0  0  0  # atno 6907 bound_to 6896
  152.5198  133.9393  159.7629 H   0  0  0  0  0  0  0  0  0  0  0  0  # atno 6908 bound_to 6896
  150.9761  133.6240  159.2759 H   0  0  0  0  0  0  0  0  0  0  0  0  # atno 6909 bound_to 6896
  144.8312  139.6502  143.6058 H   0  0  0  0  0  0  0  0  0  0  0  0  # atno 7974 bound_to 7965
  155.2287  140.3336  155.4306 H   0  0  0  0  0  0  0  0  0  0  0  0  # atno 8008 bound_to 7997
  156.2304  140.1848  156.7304 H   0  0  0  0  0  0  0  0  0  0  0  0  # atno 8009 bound_to 7997
  154.5968  140.0629  156.9299 H   0  0  0  0  0  0  0  0  0  0  0  0  # atno 8010 bound_to 7997
  139.8859  144.6413  150.8791 H   0  0  0  0  0  0  0  0  0  0  0  0  # atno 10167 bound_to 10162
  156.8055  130.5407  149.5716 H   0  0  0  0  0  0  0  0  0  0  0  0  # atno 10718 bound_to 10713
  152.9846  135.5648  154.5360 H   0  0  0  0  0  0  0  0  0  0  0  0  # atno 10763 bound_to 10752
  154.4823  135.2789  155.1563 H   0  0  0  0  0  0  0  0  0  0  0  0  # atno 10764 bound_to 10752
  154.3066  135.6296  153.5501 H   0  0  0  0  0  0  0  0  0  0  0  0  # atno 10765 bound_to 10752
  140.7606  133.8518  155.9122 H   0  0  0  0  0  0  0  0  0  0  0  0  # atno 11005 bound_to 11000
  146.2615  139.6421  142.9359 LP  0  0  0  0  0  0  0  0  0  0  0  0  # atno 17320 bound_to 7965
  145.4891  141.0438  143.2603 LP  0  0  0  0  0  0  0  0  0  0  0  0  # atno 17321 bound_to 7965
  140.7736  143.3548  151.1942 LP  0  0  0  0  0  0  0  0  0  0  0  0  # atno 17342 bound_to 10162
  139.7153  143.9310  152.2964 LP  0  0  0  0  0  0  0  0  0  0  0  0  # atno 17343 bound_to 10162
  156.1075  130.6015  150.9994 LP  0  0  0  0  0  0  0  0  0  0  0  0  # atno 17370 bound_to 10713
  157.6532  131.0893  150.8005 LP  0  0  0  0  0  0  0  0  0  0  0  0  # atno 17371 bound_to 10713
  140.9666  134.1586  157.4610 LP  0  0  0  0  0  0  0  0  0  0  0  0  # atno 17394 bound_to 11000
  139.8771  134.9964  156.5792 LP  0  0  0  0  0  0  0  0  0  0  0  0  # atno 17395 bound_to 11000

$$$$
