AV-unprocessed.smi:1116|AV-procd|sdf|4812|dock3
  -GOLD-   22720 3363D 1   1.00000     0.00000
 Structure written by MMmdl.
 35 36  0  0  0  0  0  0  0  0  2 V2000
  146.0531  137.5769  152.3020 C   0  0  0  0  0  0  0  0  0  0  0  0
  145.2909  136.3767  151.8555 C   0  0  0  0  0  0  0  0  0  0  0  0
  145.8364  135.3670  151.1723 N   0  0  0  0  0  0  0  0  0  0  0  0
  144.9125  134.3623  150.8671 C   0  0  0  0  0  0  0  0  0  0  0  0
  145.3472  133.1546  150.0937 C   0  0  0  0  0  0  0  0  0  0  0  0
  145.7197  131.9805  151.0144 C   0  0  0  0  0  0  0  0  0  0  0  0
  146.9926  132.2067  151.6897 N   0  0  0  0  0  0  0  0  0  0  0  0
  147.1403  132.8479  152.8591 C   0  0  0  0  0  0  0  0  0  0  0  0
  146.1971  133.3311  153.4862 O   0  0  0  0  0  0  0  0  0  0  0  0
  148.5704  132.9682  153.3935 C   0  0  0  0  0  0  0  0  0  0  0  0
  148.8050  132.1261  154.6623 C   0  0  0  0  0  0  0  0  0  0  0  0
  150.1573  132.4238  155.3396 C   0  0  1  0  0  0  0  0  0  0  0  0
  150.2632  133.8210  155.7015 N   0  0  0  0  0  0  0  0  0  0  0  0
  150.4651  133.9700  157.0091 C   0  0  0  0  0  0  0  0  0  0  0  0
  150.6003  135.0798  157.5195 O   0  0  0  0  0  0  0  0  0  0  0  0
  150.4867  132.7675  157.6159 N   0  5  0  0  0  0  0  0  0  0  0  0
  150.3055  131.7764  156.7166 C   0  0  0  0  0  0  0  0  0  0  0  0
  150.2625  130.5573  156.8741 O   0  0  0  0  0  0  0  0  0  0  0  0
  143.6503  134.6268  151.3377 C   0  0  0  0  0  0  0  0  0  0  0  0
  143.5765  136.1503  152.1796 S   0  0  0  0  0  0  0  0  0  0  0  0
  147.0334  137.6088  151.8254 H   0  0  0  0  0  0  0  0  0  0  0  0
  146.1893  137.5503  153.3831 H   0  0  0  0  0  0  0  0  0  0  0  0
  145.5085  138.4839  152.0388 H   0  0  0  0  0  0  0  0  0  0  0  0
  144.5533  132.8460  149.4122 H   0  0  0  0  0  0  0  0  0  0  0  0
  146.1992  133.4103  149.4624 H   0  0  0  0  0  0  0  0  0  0  0  0
  144.9316  131.8069  151.7493 H   0  0  0  0  0  0  0  0  0  0  0  0
  145.8055  131.0633  150.4310 H   0  0  0  0  0  0  0  0  0  0  0  0
  147.8200  131.8435  151.2392 H   0  0  0  0  0  0  0  0  0  0  0  0
  149.2762  132.6638  152.6189 H   0  0  0  0  0  0  0  0  0  0  0  0
  148.7669  134.0210  153.5987 H   0  0  0  0  0  0  0  0  0  0  0  0
  147.9939  132.2839  155.3758 H   0  0  0  0  0  0  0  0  0  0  0  0
  148.7696  131.0691  154.3928 H   0  0  0  0  0  0  0  0  0  0  0  0
  150.9955  132.1333  154.7047 H   0  0  0  0  0  0  0  0  0  0  0  0
  150.2081  134.5767  155.0350 H   0  0  0  0  0  0  0  0  0  0  0  0
  142.7619  134.0206  151.2386 H   0  0  0  0  0  0  0  0  0  0  0  0
  1  2  1  0  0  0  0
  1 21  1  0  0  0  0
  1 22  1  0  0  0  0
  1 23  1  0  0  0  0
  2 20  1  0  0  0  0
  2  3  2  0  0  0  0
  3  4  1  0  0  0  0
  4  5  1  0  0  0  0
  4 19  2  0  0  0  0
  5  6  1  0  0  0  0
  5 24  1  0  0  0  0
  5 25  1  0  0  0  0
  6  7  1  0  0  0  0
  6 26  1  0  0  0  0
  6 27  1  0  0  0  0
  7  8  1  0  0  0  0
  7 28  1  0  0  0  0
  8  9  2  0  0  0  0
  8 10  1  0  0  0  0
 10 11  1  0  0  0  0
 10 29  1  0  0  0  0
 10 30  1  0  0  0  0
 11 12  1  0  0  0  0
 11 31  1  0  0  0  0
 11 32  1  0  0  0  0
 12 17  1  0  0  0  0
 12 13  1  0  0  0  0
 12 33  1  0  0  0  0
 13 14  1  0  0  0  0
 13 34  1  0  0  0  0
 14 15  2  0  0  0  0
 14 16  1  0  0  0  0
 16 17  1  0  0  0  0
 17 18  2  0  0  0  0
 19 20  1  0  0  0  0
 19 35  1  0  0  0  0
M  CHG  1  16  -1
M  END
> <s_m_source_file>
AV-unprocessed.smi

> <i_m_source_file_index>
1116

> <i_lp_mmshare_version>
43012

> <i_f3d_flags>
0

> <s_epik_input>
W0NIM11jMW5jKFtjSF1zMSlbQ0gyXVtDSDJdW05IXUMoPU8pW0NIMl1bQ0gyXVtDQEBIXTJbTkhdQyg9TylbTkhdQzI9Tw==

> <s_epik_cmdline>
J2VwaWtfcHl0aG9uJywgJy1waCcsICc3LjAnLCAnLXRuJywgJzgnLCAnLW1hJywgJzIwMCcsICctbWV0YWxfYmluZGluZycsICctaW1hZScsICc8aW5maWxlLm1hZT4nLCAnLW9tYWUnLCAnPG91dGZpbGUubWFlPic=

> <r_lp_tautomer_probability>
1

> <r_epik_Ionization_Penalty>
2.5713

> <r_epik_Ionization_Penalty_Charging>
2.57023

> <r_epik_Ionization_Penalty_Neutral>
0.00106405

> <r_epik_State_Penalty>
2.56828

> <r_epik_Charging_Adjusted_Penalty>
5.13851

> <i_epik_Tot_Q>
-1

> <i_epik_Tot_abs_Q>
1

> <r_epik_Metal_State_Penalty>
0.44525

> <b_epik_Metal_Only>
1

> <s_lp_Force_Field>
OPLS_2005

> <r_lp_Energy>
2.19092

> <b_lp_Chiralities_Consistent>
1

> <s_lp_Variant>
AV-unprocessed.smi:1116-6

> <Gold.Version>
5.8.1

> <Gold.Id.Protein>
6NUR|6NUR_protein|mol2

> <Gold.PLP.Fitness>
40.7394

> <Gold.PLP.PLP>
-30.5403

> <Gold.PLP.part.hbond>
-2.7931

> <Gold.PLP.part.metal>
0.0000

> <Gold.PLP.part.buried>
-2.0234

> <Gold.PLP.part.nonpolar>
-26.1249

> <Gold.PLP.part.repulsive>
0.4318

> <Gold.PLP.ligand.clash>
0.0000

> <Gold.PLP.ligand.torsion>
0.7007

> <Gold.PLP.Chemscore.Hbond>
3.0000

> <Gold.PLP.Chemscore.CHOScore>
0.8412

> <Gold.PLP.Chemscore.Metal>
0.0000

> <Gold.Chemscore.Hbonds>
donor molecule, donor type, donor heavy atom, donor atom, acceptor molecule, acceptor atom, score
      L1  H     7    28       P1 10747  1.00
      P1  H  6896  6907       L1    16  1.40
      P1  H  6896  6908       L1    15  0.02
      L1  C    19    35       P1 10186  0.88

> <Gold.PLP.Chemscore.Internal.Correction>
0.0770

> <Gold.Rescore>
     Score         DG    S(hbond)    S(metal)    S(lipo)     H(rot)  DE(clash)    DE(int)     intcor
     11.23     -11.93       1.81        0.00      64.16       2.77       0.02       0.68       ----

> <Gold.Chemscore.Fitness>
11.2289

> <Gold.Chemscore.DG>
-11.9281

> <Gold.Chemscore.ZeroCoef>
-5.4800

> <Gold.Chemscore.Hbond>
1.8055

> <Gold.Chemscore.Metal>
0.0000

> <Gold.Chemscore.Lipo>
64.1582

> <Gold.Chemscore.Internal_Hbond>
0.0000

> <Gold.Chemscore.DEClash>
0.0203

> <Gold.Chemscore.DEInternal>
0.6789

> <Gold.Chemscore.Rot>
2.7691

> <Gold.Chemscore.Internal.Correction>
   9.000000E+99

> <Gold.Chemscore.Hbonds>
donor molecule, donor type, donor heavy atom, donor atom, acceptor molecule, acceptor atom, score
      L1  H     7    28       P1 10747  1.00
      P1  H  6896  6907       L1    16  0.07
      P1  H  6896  6908       L1    15  0.03

> <Gold.Chemscore.Hbond.Weighted>
-6.0305

> <Gold.Chemscore.Metal.Weighted>
-0.0000

> <Gold.Chemscore.Lipo.Weighted>
-7.5065

> <Gold.Chemscore.Internal_Hbond.Weighted>
0.0000

> <Gold.Chemscore.DEClash.Weighted>
0.0203

> <Gold.Chemscore.DEInternal.Weighted>
0.6789

> <Gold.Chemscore.Rot.Weighted>
7.0889

> <Gold.Chemscore.Internal.Correction.Weighted>
   9.000000E+99

> <Gold.Protein.RotatedTorsions>
[ 6907 6896 6895 6894 ] final -151.43 input  -60.11 | X-H torsion
[ 7974 7965 7964 7962 ] final -113.61 input  175.53 | X-H torsion
[ 8008 7997 7996 7995 ] final   13.27 input   59.86 | X-H torsion
[ 10167 10162 10161 10158 ] final   72.25 input  -65.29 | X-H torsion
[ 10718 10713 10712 10709 ] final -117.45 input   66.30 | X-H torsion
[ 10763 10752 10751 10750 ] final   49.82 input  -60.55 | X-H torsion
[ 11005 11000 10999 10996 ] final  -63.69 input  -57.11 | X-H torsion

> <Gold.Protein.ActiveResidues>
 VAL166  LYS551  ARG553  GLY616  TRP617  ASP618  TYR619  PRO620  LYS621  CYS622 
 ASP623  PHE694  ASN695  SER759  ASP760  ASP761  ALA762  ILE779  LEU786  VAL792 
 PHE793  MET794  SER795  GLU796  ALA797  LYS798  CYS799  TRP800  GLU811  SER814 

> <Gold.Protein.RotatedAtoms>
  151.2130  133.4545  159.2598 H   0  0  0  0  0  0  0  0  0  0  0  0  # atno 6907 bound_to 6896
  151.0958  134.9943  159.8435 H   0  0  0  0  0  0  0  0  0  0  0  0  # atno 6908 bound_to 6896
  152.5439  134.2060  159.8784 H   0  0  0  0  0  0  0  0  0  0  0  0  # atno 6909 bound_to 6896
  145.1300  140.8719  143.3763 H   0  0  0  0  0  0  0  0  0  0  0  0  # atno 7974 bound_to 7965
  154.8321  140.2901  155.5715 H   0  0  0  0  0  0  0  0  0  0  0  0  # atno 8008 bound_to 7997
  156.3006  140.2530  156.3179 H   0  0  0  0  0  0  0  0  0  0  0  0  # atno 8009 bound_to 7997
  154.9219  140.0385  157.1992 H   0  0  0  0  0  0  0  0  0  0  0  0  # atno 8010 bound_to 7997
  140.0373  144.5418  150.7461 H   0  0  0  0  0  0  0  0  0  0  0  0  # atno 10167 bound_to 10162
  156.1035  130.6191  150.9165 H   0  0  0  0  0  0  0  0  0  0  0  0  # atno 10718 bound_to 10713
  152.9786  135.5899  154.4151 H   0  0  0  0  0  0  0  0  0  0  0  0  # atno 10763 bound_to 10752
  154.3782  135.2767  155.2229 H   0  0  0  0  0  0  0  0  0  0  0  0  # atno 10764 bound_to 10752
  154.4154  135.6071  153.6032 H   0  0  0  0  0  0  0  0  0  0  0  0  # atno 10765 bound_to 10752
  141.1401  133.6655  156.5719 H   0  0  0  0  0  0  0  0  0  0  0  0  # atno 11005 bound_to 11000
  145.0646  139.3079  143.5863 LP  0  0  0  0  0  0  0  0  0  0  0  0  # atno 17320 bound_to 7965
  146.3514  140.0100  142.8668 LP  0  0  0  0  0  0  0  0  0  0  0  0  # atno 17321 bound_to 7965
  140.7276  143.2653  151.4067 LP  0  0  0  0  0  0  0  0  0  0  0  0  # atno 17342 bound_to 10162
  139.6037  144.1242  152.2225 LP  0  0  0  0  0  0  0  0  0  0  0  0  # atno 17343 bound_to 10162
  157.6208  131.0930  150.8625 LP  0  0  0  0  0  0  0  0  0  0  0  0  # atno 17370 bound_to 10713
  156.8749  130.5159  149.5294 LP  0  0  0  0  0  0  0  0  0  0  0  0  # atno 17371 bound_to 10713
  140.3906  134.7443  157.4719 LP  0  0  0  0  0  0  0  0  0  0  0  0  # atno 17394 bound_to 11000
  140.0569  134.6051  155.8795 LP  0  0  0  0  0  0  0  0  0  0  0  0  # atno 17395 bound_to 11000

$$$$
