AV-unprocessed.smi:2837|AV-procd|sdf|10927|dock8
  -GOLD-   2272015373D 1   1.00000     0.00000
 Structure written by MMmdl.
 33 35  0  0  0  0  0  0  0  0  2 V2000
  146.7445  138.5440  152.0046 F   0  0  0  0  0  0  0  0  0  0  0  0
  146.9825  139.2767  153.1200 C   0  0  0  0  0  0  0  0  0  0  0  0
  146.1586  138.8181  154.0925 F   0  0  0  0  0  0  0  0  0  0  0  0
  148.2769  139.1375  153.5123 O   0  0  0  0  0  0  0  0  0  0  0  0
  148.8427  140.0893  154.3305 C   0  0  0  0  0  0  0  0  0  0  0  0
  149.9589  139.7212  155.1104 C   0  0  0  0  0  0  0  0  0  0  0  0
  150.5764  140.6721  155.9487 C   0  0  0  0  0  0  0  0  0  0  0  0
  150.0706  141.9930  155.9917 C   0  0  0  0  0  0  0  0  0  0  0  0
  150.6018  143.0216  156.7820 N   0  0  0  0  0  0  0  0  0  0  0  0
  151.7534  142.7972  157.6468 C   0  0  1  0  0  0  0  0  0  0  0  0
  152.3028  144.0884  158.2689 C   0  0  0  0  0  0  0  0  0  0  0  0
  152.2423  143.7697  159.7679 C   0  0  2  0  0  0  0  0  0  0  0  0
  153.2590  142.6949  160.1762 C   0  0  0  0  0  0  0  0  0  0  0  0
  152.6291  141.4310  159.5919 C   0  0  0  0  0  0  0  0  0  0  0  0
  151.3779  141.9912  158.9018 C   0  0  1  0  0  0  0  0  0  0  0  0
  151.0387  143.0249  159.8121 O   0  0  0  0  0  0  0  0  0  0  0  0
  149.0051  142.3089  155.2234 N   0  3  0  0  0  0  0  0  0  0  0  0
  148.3860  141.4272  154.4082 C   0  0  0  0  0  0  0  0  0  0  0  0
  146.7282  140.3203  152.9329 H   0  0  0  0  0  0  0  0  0  0  0  0
  150.3398  138.7115  155.0672 H   0  0  0  0  0  0  0  0  0  0  0  0
  151.4275  140.3738  156.5420 H   0  0  0  0  0  0  0  0  0  0  0  0
  150.2659  143.9671  156.6665 H   0  0  0  0  0  0  0  0  0  0  0  0
  152.5203  142.2619  157.0855 H   0  0  0  0  0  0  0  0  0  0  0  0
  153.3147  144.3196  157.9344 H   0  0  0  0  0  0  0  0  0  0  0  0
  151.6684  144.9472  158.0441 H   0  0  0  0  0  0  0  0  0  0  0  0
  152.2480  144.6519  160.4085 H   0  0  0  0  0  0  0  0  0  0  0  0
  154.2551  142.8955  159.7801 H   0  0  0  0  0  0  0  0  0  0  0  0
  153.3311  142.6186  161.2618 H   0  0  0  0  0  0  0  0  0  0  0  0
  153.2901  140.9070  158.9008 H   0  0  0  0  0  0  0  0  0  0  0  0
  152.3529  140.7399  160.3891 H   0  0  0  0  0  0  0  0  0  0  0  0
  150.5961  141.2466  158.7468 H   0  0  0  0  0  0  0  0  0  0  0  0
  147.5549  141.8268  153.8455 H   0  0  0  0  0  0  0  0  0  0  0  0
  148.6499  143.2649  155.2562 H   0  0  0  0  0  0  0  0  0  0  0  0
  1  2  1  0  0  0  0
  2  3  1  0  0  0  0
  2  4  1  0  0  0  0
  2 19  1  0  0  0  0
  4  5  1  0  0  0  0
  5 18  1  0  0  0  0
  5  6  2  0  0  0  0
  6  7  1  0  0  0  0
  6 20  1  0  0  0  0
  7  8  2  0  0  0  0
  7 21  1  0  0  0  0
  8  9  1  0  0  0  0
  8 17  1  0  0  0  0
  9 10  1  0  0  0  0
  9 22  1  0  0  0  0
 10 15  1  0  0  0  0
 10 11  1  0  0  0  0
 10 23  1  0  0  0  0
 11 12  1  0  0  0  0
 11 24  1  0  0  0  0
 11 25  1  0  0  0  0
 12 16  1  0  0  0  0
 12 13  1  0  0  0  0
 12 26  1  0  0  0  0
 13 14  1  0  0  0  0
 13 27  1  0  0  0  0
 13 28  1  0  0  0  0
 14 15  1  0  0  0  0
 14 29  1  0  0  0  0
 14 30  1  0  0  0  0
 15 16  1  0  0  0  0
 15 31  1  0  0  0  0
 17 18  2  0  0  0  0
 17 33  1  0  0  0  0
 18 32  1  0  0  0  0
M  CHG  1  17   1
M  END
> <s_m_source_file>
AV-unprocessed.smi

> <i_m_source_file_index>
2837

> <i_lp_mmshare_version>
43012

> <i_f3d_flags>
0

> <s_epik_input>
RltDSF0oRilPYzFbY0hdW2NIXWMobltjSF0xKVtOSF1bQ0BIXShbQ0gyXVtDQEBIXTIzKVtDQEBIXShPMylbQ0gyXVtDSDJdMg==

> <s_epik_cmdline>
J2VwaWtfcHl0aG9uJywgJy1waCcsICc3LjAnLCAnLXRuJywgJzgnLCAnLW1hJywgJzIwMCcsICctbWV0YWxfYmluZGluZycsICctaW1hZScsICc8aW5maWxlLm1hZT4nLCAnLW9tYWUnLCAnPG91dGZpbGUubWFlPic=

> <r_lp_tautomer_probability>
0.999429

> <r_epik_Ionization_Penalty>
2.29716

> <r_epik_Ionization_Penalty_Charging>
2.29716

> <r_epik_Ionization_Penalty_Neutral>
1.42285e-06

> <r_epik_State_Penalty>
2.44762

> <r_epik_Charging_Adjusted_Penalty>
4.74478

> <i_epik_Tot_Q>
1

> <i_epik_Tot_abs_Q>
1

> <r_epik_Metal_State_Penalty>
6.53078

> <b_epik_Metal_Only>
0

> <s_lp_Force_Field>
OPLS_2005

> <r_lp_Energy>
46.2914

> <b_lp_Chiralities_Consistent>
1

> <s_lp_Variant>
AV-unprocessed.smi:2837-8

> <Gold.Version>
5.8.1

> <Gold.Id.Protein>
6NUR|6NUR_protein|mol2

> <Gold.PLP.Fitness>
48.0817

> <Gold.PLP.PLP>
-39.2233

> <Gold.PLP.part.hbond>
-2.7705

> <Gold.PLP.part.metal>
0.0000

> <Gold.PLP.part.buried>
-3.7251

> <Gold.PLP.part.nonpolar>
-35.4534

> <Gold.PLP.part.repulsive>
2.5206

> <Gold.PLP.ligand.clash>
0.0000

> <Gold.PLP.ligand.torsion>
0.6704

> <Gold.PLP.Chemscore.Hbond>
3.3920

> <Gold.PLP.Chemscore.CHOScore>
0.0000

> <Gold.PLP.Chemscore.Metal>
0.0000

> <Gold.Chemscore.Hbonds>
donor molecule, donor type, donor heavy atom, donor atom, acceptor molecule, acceptor atom, score
      L1  H     9    22       P1  8028  1.38
      L1  H    17    33       P1  8028  1.90

> <Gold.PLP.Chemscore.Internal.Correction>
0.0233

> <Gold.Rescore>
     Score         DG    S(hbond)    S(metal)    S(lipo)     H(rot)  DE(clash)    DE(int)     intcor
     18.24     -18.81       1.70        0.00      94.77       1.34       0.16       0.41       ----

> <Gold.Chemscore.Fitness>
18.2421

> <Gold.Chemscore.DG>
-18.8092

> <Gold.Chemscore.ZeroCoef>
-5.4800

> <Gold.Chemscore.Hbond>
1.6958

> <Gold.Chemscore.Metal>
0.0000

> <Gold.Chemscore.Lipo>
94.7657

> <Gold.Chemscore.Internal_Hbond>
0.0000

> <Gold.Chemscore.DEClash>
0.1588

> <Gold.Chemscore.DEInternal>
0.4083

> <Gold.Chemscore.Rot>
1.3368

> <Gold.Chemscore.Internal.Correction>
   9.000000E+99

> <Gold.Chemscore.Hbonds>
donor molecule, donor type, donor heavy atom, donor atom, acceptor molecule, acceptor atom, score
      L1  H     9    22       P1  8028  0.70
      L1  H    17    33       P1  8028  0.84

> <Gold.Chemscore.Hbond.Weighted>
-5.6639

> <Gold.Chemscore.Metal.Weighted>
-0.0000

> <Gold.Chemscore.Lipo.Weighted>
-11.0876

> <Gold.Chemscore.Internal_Hbond.Weighted>
0.0000

> <Gold.Chemscore.DEClash.Weighted>
0.1588

> <Gold.Chemscore.DEInternal.Weighted>
0.4083

> <Gold.Chemscore.Rot.Weighted>
3.4223

> <Gold.Chemscore.Internal.Correction.Weighted>
   9.000000E+99

> <Gold.Protein.RotatedTorsions>
[ 6907 6896 6895 6894 ] final -160.46 input  -60.11 | X-H torsion
[ 7974 7965 7964 7962 ] final -142.69 input  175.53 | X-H torsion
[ 8008 7997 7996 7995 ] final -153.90 input   59.86 | X-H torsion
[ 10167 10162 10161 10158 ] final -106.13 input  -65.29 | X-H torsion
[ 10718 10713 10712 10709 ] final -123.49 input   66.30 | X-H torsion
[ 10763 10752 10751 10750 ] final  126.80 input  -60.55 | X-H torsion
[ 11005 11000 10999 10996 ] final -117.88 input  -57.11 | X-H torsion

> <Gold.Protein.ActiveResidues>
 VAL166  LYS551  ARG553  GLY616  TRP617  ASP618  TYR619  PRO620  LYS621  CYS622 
 ASP623  PHE694  ASN695  SER759  ASP760  ASP761  ALA762  ILE779  LEU786  VAL792 
 PHE793  MET794  SER795  GLU796  ALA797  LYS798  CYS799  TRP800  GLU811  SER814 

> <Gold.Protein.RotatedAtoms>
  151.3494  133.3931  159.2678 H   0  0  0  0  0  0  0  0  0  0  0  0  # atno 6907 bound_to 6896
  150.9813  134.9168  159.7856 H   0  0  0  0  0  0  0  0  0  0  0  0  # atno 6908 bound_to 6896
  152.5218  134.3458  159.9286 H   0  0  0  0  0  0  0  0  0  0  0  0  # atno 6909 bound_to 6896
  144.8425  140.5927  143.5443 H   0  0  0  0  0  0  0  0  0  0  0  0  # atno 7974 bound_to 7965
  155.6781  140.0741  157.2495 H   0  0  0  0  0  0  0  0  0  0  0  0  # atno 8008 bound_to 7997
  154.4110  140.1687  156.2004 H   0  0  0  0  0  0  0  0  0  0  0  0  # atno 8009 bound_to 7997
  155.9559  140.3373  155.6451 H   0  0  0  0  0  0  0  0  0  0  0  0  # atno 8010 bound_to 7997
  140.1911  143.3891  152.1206 H   0  0  0  0  0  0  0  0  0  0  0  0  # atno 10167 bound_to 10162
  156.1507  130.6532  150.9909 H   0  0  0  0  0  0  0  0  0  0  0  0  # atno 10718 bound_to 10713
  153.6991  135.3286  155.3220 H   0  0  0  0  0  0  0  0  0  0  0  0  # atno 10763 bound_to 10752
  154.8418  135.4450  154.1430 H   0  0  0  0  0  0  0  0  0  0  0  0  # atno 10764 bound_to 10752
  153.2492  135.6979  153.7776 H   0  0  0  0  0  0  0  0  0  0  0  0  # atno 10765 bound_to 10752
  141.0325  133.9960  157.3122 H   0  0  0  0  0  0  0  0  0  0  0  0  # atno 11005 bound_to 11000
  145.4665  139.1507  143.3838 LP  0  0  0  0  0  0  0  0  0  0  0  0  # atno 17320 bound_to 7965
  146.2715  140.4797  142.8812 LP  0  0  0  0  0  0  0  0  0  0  0  0  # atno 17321 bound_to 7965
  139.5256  144.7097  151.5244 LP  0  0  0  0  0  0  0  0  0  0  0  0  # atno 17342 bound_to 10162
  140.6455  143.8802  150.6733 LP  0  0  0  0  0  0  0  0  0  0  0  0  # atno 17343 bound_to 10162
  157.6654  131.0872  150.7740 LP  0  0  0  0  0  0  0  0  0  0  0  0  # atno 17370 bound_to 10713
  156.7808  130.4859  149.5401 LP  0  0  0  0  0  0  0  0  0  0  0  0  # atno 17371 bound_to 10713
  139.9217  135.0200  156.8089 LP  0  0  0  0  0  0  0  0  0  0  0  0  # atno 17394 bound_to 11000
  140.6382  133.9843  155.7694 LP  0  0  0  0  0  0  0  0  0  0  0  0  # atno 17395 bound_to 11000

$$$$
