AV-unprocessed.smi:526|AV-procd|sdf|2812|dock1
  -GOLD-   2262023293D 1   1.00000     0.00000
 Structure written by MMmdl.
 30 30  0  0  0  0  0  0  0  0  2 V2000
  153.2665  142.2252  160.3343 C   0  0  0  0  0  0  0  0  0  0  0  0
  152.6564  143.4194  160.4136 C   0  0  0  0  0  0  0  0  0  0  0  0
  151.9223  143.8644  161.6645 C   0  0  0  0  0  0  0  0  0  0  0  0
  152.6607  144.4049  159.2593 C   0  0  0  0  0  0  0  0  0  0  0  0
  151.1627  144.2743  158.2329 S   0  0  0  0  0  0  0  0  0  0  0  0
  151.2603  142.6042  157.4962 C   0  0  0  0  0  0  0  0  0  0  0  0
  150.4007  142.4425  156.4183 N   0  0  0  0  0  0  0  0  0  0  0  0
  150.3534  141.2216  155.7716 C   0  0  0  0  0  0  0  0  0  0  0  0
  149.3686  141.1572  154.6173 C   0  0  0  0  0  0  0  0  0  0  0  0
  151.1401  140.1910  156.1643 C   0  0  0  0  0  0  0  0  0  0  0  0
  151.1195  138.8217  155.4819 C   0  0  0  0  0  0  0  0  0  0  0  0
  152.3916  138.4673  154.7019 C   0  0  0  0  0  0  0  0  0  0  0  0
  152.3873  137.3699  154.1030 O   0  0  0  0  0  0  0  0  0  0  0  0
  153.3421  139.2813  154.7077 O   0  5  0  0  0  0  0  0  0  0  0  0
  152.0561  140.4059  157.3049 C   0  0  0  0  0  0  0  0  0  0  0  0
  152.8108  139.5198  157.7032 O   0  0  0  0  0  0  0  0  0  0  0  0
  152.0451  141.6628  157.9297 N   0  0  0  0  0  0  0  0  0  0  0  0
  149.7987  143.1785  156.0798 H   0  0  0  0  0  0  0  0  0  0  0  0
  153.2556  141.5339  161.1643 H   0  0  0  0  0  0  0  0  0  0  0  0
  153.7875  141.9197  159.4387 H   0  0  0  0  0  0  0  0  0  0  0  0
  150.8792  144.0814  161.4336 H   0  0  0  0  0  0  0  0  0  0  0  0
  152.3768  144.7652  162.0769 H   0  0  0  0  0  0  0  0  0  0  0  0
  151.9449  143.0927  162.4346 H   0  0  0  0  0  0  0  0  0  0  0  0
  152.7331  145.4209  159.6497 H   0  0  0  0  0  0  0  0  0  0  0  0
  153.5457  144.2264  158.6474 H   0  0  0  0  0  0  0  0  0  0  0  0
  149.8820  140.8890  153.6938 H   0  0  0  0  0  0  0  0  0  0  0  0
  148.8728  142.1154  154.4577 H   0  0  0  0  0  0  0  0  0  0  0  0
  148.5995  140.4103  154.8144 H   0  0  0  0  0  0  0  0  0  0  0  0
  150.2798  138.7859  154.7879 H   0  0  0  0  0  0  0  0  0  0  0  0
  150.9216  138.0313  156.2066 H   0  0  0  0  0  0  0  0  0  0  0  0
  1  2  2  0  0  0  0
  1 19  1  0  0  0  0
  1 20  1  0  0  0  0
  2  3  1  0  0  0  0
  2  4  1  0  0  0  0
  3 21  1  0  0  0  0
  3 22  1  0  0  0  0
  3 23  1  0  0  0  0
  4 24  1  0  0  0  0
  4 25  1  0  0  0  0
  4  5  1  0  0  0  0
  5  6  1  0  0  0  0
  6 17  2  0  0  0  0
  6  7  1  0  0  0  0
  7  8  1  0  0  0  0
  7 18  1  0  0  0  0
  8 10  2  0  0  0  0
  8  9  1  0  0  0  0
  9 26  1  0  0  0  0
  9 27  1  0  0  0  0
  9 28  1  0  0  0  0
 10 15  1  0  0  0  0
 10 11  1  0  0  0  0
 11 12  1  0  0  0  0
 11 29  1  0  0  0  0
 11 30  1  0  0  0  0
 12 13  2  0  0  0  0
 12 14  1  0  0  0  0
 15 17  1  0  0  0  0
 15 16  2  0  0  0  0
M  CHG  1  14  -1
M  END
> <s_m_source_file>
AV-unprocessed.smi

> <i_m_source_file_index>
526

> <i_lp_mmshare_version>
43012

> <i_f3d_flags>
0

> <s_epik_input>
W0NIMl09QyhbQ0gzXSlbQ0gyXVNjMW5jKFtDSDNdKWMoYyg9TylbbkhdMSlbQ0gyXUMoPU8pW09IXQ==

> <s_epik_cmdline>
J2VwaWtfcHl0aG9uJywgJy1waCcsICc3LjAnLCAnLXRuJywgJzgnLCAnLW1hJywgJzIwMCcsICctbWV0YWxfYmluZGluZycsICctaW1hZScsICc8aW5maWxlLm1hZT4nLCAnLW9tYWUnLCAnPG91dGZpbGUubWFlPic=

> <r_lp_tautomer_probability>
0.273662

> <r_epik_Ionization_Penalty>
0.012426

> <r_epik_Ionization_Penalty_Charging>
0.012254

> <r_epik_Ionization_Penalty_Neutral>
0.000171952

> <r_epik_State_Penalty>
0.787696

> <r_epik_Charging_Adjusted_Penalty>
0.79995

> <i_epik_Tot_Q>
-1

> <i_epik_Tot_abs_Q>
1

> <r_epik_Metal_State_Penalty>
0.901144

> <b_epik_Metal_Only>
0

> <s_lp_Force_Field>
OPLS_2005

> <r_lp_Energy>
7.99396

> <b_lp_Chiralities_Consistent>
1

> <s_lp_Variant>
AV-unprocessed.smi:526-2

> <Gold.Version>
5.8.1

> <Gold.Id.Protein>
6NUR|6NUR_protein|mol2

> <Gold.PLP.Fitness>
56.0298

> <Gold.PLP.PLP>
-41.7350

> <Gold.PLP.part.hbond>
-4.6950

> <Gold.PLP.part.metal>
0.0000

> <Gold.PLP.part.buried>
-3.9893

> <Gold.PLP.part.nonpolar>
-33.3423

> <Gold.PLP.part.repulsive>
0.2507

> <Gold.PLP.ligand.clash>
0.0000

> <Gold.PLP.ligand.torsion>
0.6268

> <Gold.PLP.Chemscore.Hbond>
5.1600

> <Gold.PLP.Chemscore.CHOScore>
0.0000

> <Gold.PLP.Chemscore.Metal>
0.0000

> <Gold.Chemscore.Hbonds>
donor molecule, donor type, donor heavy atom, donor atom, acceptor molecule, acceptor atom, score
      L1  H     7    18       P1  8028  1.00
      P1  H  7997  8009       L1    16  0.60
      P1  H  7997  8010       L1    14  1.73
      P1  H 10752 10765       L1    13  1.54

> <Gold.PLP.Chemscore.Internal.Correction>
0.0685

> <Gold.Rescore>
     Score         DG    S(hbond)    S(metal)    S(lipo)     H(rot)  DE(clash)    DE(int)     intcor
     19.84     -20.69       3.24        0.00      88.61       2.34       0.28       0.57       ----

> <Gold.Chemscore.Fitness>
19.8410

> <Gold.Chemscore.DG>
-20.6882

> <Gold.Chemscore.ZeroCoef>
-5.4800

> <Gold.Chemscore.Hbond>
3.2443

> <Gold.Chemscore.Metal>
0.0000

> <Gold.Chemscore.Lipo>
88.6133

> <Gold.Chemscore.Internal_Hbond>
0.0000

> <Gold.Chemscore.DEClash>
0.2773

> <Gold.Chemscore.DEInternal>
0.5699

> <Gold.Chemscore.Rot>
2.3420

> <Gold.Chemscore.Internal.Correction>
   9.000000E+99

> <Gold.Chemscore.Hbonds>
donor molecule, donor type, donor heavy atom, donor atom, acceptor molecule, acceptor atom, score
      L1  H     7    18       P1  8028  1.00
      P1  H  7997  8009       L1    16  0.41
      P1  H  7997  8010       L1    14  0.84
      P1  H 10752 10765       L1    13  0.78

> <Gold.Chemscore.Hbond.Weighted>
-10.8359

> <Gold.Chemscore.Metal.Weighted>
-0.0000

> <Gold.Chemscore.Lipo.Weighted>
-10.3678

> <Gold.Chemscore.Internal_Hbond.Weighted>
0.0000

> <Gold.Chemscore.DEClash.Weighted>
0.2773

> <Gold.Chemscore.DEInternal.Weighted>
0.5699

> <Gold.Chemscore.Rot.Weighted>
5.9955

> <Gold.Chemscore.Internal.Correction.Weighted>
   9.000000E+99

> <Gold.Protein.RotatedTorsions>
[ 6907 6896 6895 6894 ] final   17.79 input  -60.11 | X-H torsion
[ 7974 7965 7964 7962 ] final   16.51 input  175.53 | X-H torsion
[ 8008 7997 7996 7995 ] final  137.53 input   59.86 | X-H torsion
[ 10167 10162 10161 10158 ] final -107.24 input  -65.29 | X-H torsion
[ 10718 10713 10712 10709 ] final   -2.09 input   66.30 | X-H torsion
[ 10763 10752 10751 10750 ] final  146.46 input  -60.55 | X-H torsion
[ 11005 11000 10999 10996 ] final  -80.51 input  -57.11 | X-H torsion

> <Gold.Protein.ActiveResidues>
 VAL166  LYS551  ARG553  GLY616  TRP617  ASP618  TYR619  PRO620  LYS621  CYS622 
 ASP623  PHE694  ASN695  SER759  ASP760  ASP761  ALA762  ILE779  LEU786  VAL792 
 PHE793  MET794  SER795  GLU796  ALA797  LYS798  CYS799  TRP800  GLU811  SER814 

> <Gold.Protein.RotatedAtoms>
  151.8551  135.0544  160.0462 H   0  0  0  0  0  0  0  0  0  0  0  0  # atno 6907 bound_to 6896
  152.2706  133.5375  159.5445 H   0  0  0  0  0  0  0  0  0  0  0  0  # atno 6908 bound_to 6896
  150.7150  134.0619  159.3876 H   0  0  0  0  0  0  0  0  0  0  0  0  # atno 6909 bound_to 6896
  146.2247  139.8737  142.8583 H   0  0  0  0  0  0  0  0  0  0  0  0  # atno 7974 bound_to 7965
  156.3002  140.2417  156.3925 H   0  0  0  0  0  0  0  0  0  0  0  0  # atno 8008 bound_to 7997
  154.8601  140.0420  157.1679 H   0  0  0  0  0  0  0  0  0  0  0  0  # atno 8009 bound_to 7997
  154.8905  140.2962  155.5377 H   0  0  0  0  0  0  0  0  0  0  0  0  # atno 8010 bound_to 7997
  140.1791  143.3981  152.1295 H   0  0  0  0  0  0  0  0  0  0  0  0  # atno 10167 bound_to 10162
  156.7960  130.5377  149.5728 H   0  0  0  0  0  0  0  0  0  0  0  0  # atno 10718 bound_to 10713
  154.0222  135.2905  155.3379 H   0  0  0  0  0  0  0  0  0  0  0  0  # atno 10763 bound_to 10752
  154.7039  135.5177  153.8570 H   0  0  0  0  0  0  0  0  0  0  0  0  # atno 10764 bound_to 10752
  153.0676  135.6636  154.0443 H   0  0  0  0  0  0  0  0  0  0  0  0  # atno 10765 bound_to 10752
  141.1668  133.7153  156.8284 H   0  0  0  0  0  0  0  0  0  0  0  0  # atno 11005 bound_to 11000
  145.2582  141.0068  143.3842 LP  0  0  0  0  0  0  0  0  0  0  0  0  # atno 17320 bound_to 7965
  144.9320  139.4288  143.6490 LP  0  0  0  0  0  0  0  0  0  0  0  0  # atno 17321 bound_to 7965
  139.5304  144.7152  151.5077 LP  0  0  0  0  0  0  0  0  0  0  0  0  # atno 17342 bound_to 10162
  140.6531  143.8655  150.6807 LP  0  0  0  0  0  0  0  0  0  0  0  0  # atno 17343 bound_to 10162
  156.1130  130.6054  151.0077 LP  0  0  0  0  0  0  0  0  0  0  0  0  # atno 17370 bound_to 10713
  157.6577  131.0886  150.7909 LP  0  0  0  0  0  0  0  0  0  0  0  0  # atno 17371 bound_to 10713
  140.2069  134.8856  157.3231 LP  0  0  0  0  0  0  0  0  0  0  0  0  # atno 17394 bound_to 11000
  140.2128  134.4118  155.7604 LP  0  0  0  0  0  0  0  0  0  0  0  0  # atno 17395 bound_to 11000

$$$$
