AV-unprocessed.smi:3198|AV-procd|sdf|12229|dock5
  -GOLD-   2272018 63D 1   1.00000     0.00000
 Structure written by MMmdl.
 37 38  0  0  0  0  0  0  0  0  1 V2000
  153.2940  141.6109  160.3447 C   0  0  0  0  0  0  0  0  0  0  0  0
  152.6736  142.7201  159.5215 C   0  0  0  0  0  0  0  0  0  0  0  0
  152.8275  144.0717  159.8920 C   0  0  0  0  0  0  0  0  0  0  0  0
  152.2264  145.0566  159.0859 C   0  0  0  0  0  0  0  0  0  0  0  0
  151.4973  144.6540  157.9501 C   0  0  0  0  0  0  0  0  0  0  0  0
  151.3942  143.2769  157.6605 C   0  0  0  0  0  0  0  0  0  0  0  0
  150.6658  142.8826  156.5285 N   0  0  0  0  0  0  0  0  0  0  0  0
  150.3277  141.4851  156.2847 C   0  0  0  0  0  0  0  0  0  0  0  0
  151.5488  140.6483  155.8771 C   0  0  0  0  0  0  0  0  0  0  0  0
  151.2486  139.9392  154.6863 O   0  0  0  0  0  0  0  0  0  0  0  0
  151.9433  138.7070  154.5927 C   0  0  0  0  0  0  0  0  0  0  0  0
  150.9233  137.5623  154.5602 C   0  0  2  0  0  0  0  0  0  0  0  0
  150.0081  137.5175  155.7821 C   0  0  0  0  0  0  0  0  0  0  0  0
  149.5797  136.0600  155.8507 C   0  0  0  0  0  0  0  0  0  0  0  0
  150.5913  135.3322  154.9601 C   0  0  0  0  0  0  0  0  0  0  0  0
  151.5760  136.3053  154.6398 O   0  0  0  0  0  0  0  0  0  0  0  0
  151.9758  142.3284  158.4331 N   0  0  0  0  0  0  0  0  0  0  0  0
  153.9242  142.0122  161.1389 H   0  0  0  0  0  0  0  0  0  0  0  0
  153.9102  140.9688  159.7146 H   0  0  0  0  0  0  0  0  0  0  0  0
  152.5156  140.9995  160.8022 H   0  0  0  0  0  0  0  0  0  0  0  0
  153.3917  144.3497  160.7701 H   0  0  0  0  0  0  0  0  0  0  0  0
  152.3224  146.1033  159.3343 H   0  0  0  0  0  0  0  0  0  0  0  0
  151.0266  145.3918  157.3169 H   0  0  0  0  0  0  0  0  0  0  0  0
  150.2124  143.5876  155.9656 H   0  0  0  0  0  0  0  0  0  0  0  0
  149.8834  141.0717  157.1904 H   0  0  0  0  0  0  0  0  0  0  0  0
  149.5577  141.4241  155.5148 H   0  0  0  0  0  0  0  0  0  0  0  0
  152.3954  141.3122  155.6963 H   0  0  0  0  0  0  0  0  0  0  0  0
  151.8395  139.9631  156.6749 H   0  0  0  0  0  0  0  0  0  0  0  0
  152.5773  138.6821  153.7049 H   0  0  0  0  0  0  0  0  0  0  0  0
  152.5908  138.5955  155.4639 H   0  0  0  0  0  0  0  0  0  0  0  0
  150.3230  137.6070  153.6493 H   0  0  0  0  0  0  0  0  0  0  0  0
  150.5691  137.7745  156.6819 H   0  0  0  0  0  0  0  0  0  0  0  0
  149.1657  138.2052  155.7036 H   0  0  0  0  0  0  0  0  0  0  0  0
  149.6030  135.6928  156.8773 H   0  0  0  0  0  0  0  0  0  0  0  0
  148.5675  135.9245  155.4681 H   0  0  0  0  0  0  0  0  0  0  0  0
  151.0402  134.4698  155.4533 H   0  0  0  0  0  0  0  0  0  0  0  0
  150.1141  134.9888  154.0410 H   0  0  0  0  0  0  0  0  0  0  0  0
  1  2  1  0  0  0  0
  1 18  1  0  0  0  0
  1 19  1  0  0  0  0
  1 20  1  0  0  0  0
  2 17  1  0  0  0  0
  2  3  2  0  0  0  0
  3  4  1  0  0  0  0
  3 21  1  0  0  0  0
  4  5  2  0  0  0  0
  4 22  1  0  0  0  0
  5  6  1  0  0  0  0
  5 23  1  0  0  0  0
  6  7  1  0  0  0  0
  6 17  2  0  0  0  0
  7  8  1  0  0  0  0
  7 24  1  0  0  0  0
  8  9  1  0  0  0  0
  8 25  1  0  0  0  0
  8 26  1  0  0  0  0
  9 10  1  0  0  0  0
  9 27  1  0  0  0  0
  9 28  1  0  0  0  0
 10 11  1  0  0  0  0
 11 12  1  0  0  0  0
 11 29  1  0  0  0  0
 11 30  1  0  0  0  0
 12 16  1  0  0  0  0
 12 13  1  0  0  0  0
 12 31  1  0  0  0  0
 13 14  1  0  0  0  0
 13 32  1  0  0  0  0
 13 33  1  0  0  0  0
 14 15  1  0  0  0  0
 14 34  1  0  0  0  0
 14 35  1  0  0  0  0
 15 16  1  0  0  0  0
 15 36  1  0  0  0  0
 15 37  1  0  0  0  0
M  END
> <s_m_source_file>
AV-unprocessed.smi

> <i_m_source_file_index>
3198

> <i_lp_mmshare_version>
43012

> <i_f3d_flags>
0

> <s_epik_input>
W0NIM11jMVtjSF1bY0hdW2NIXWMobjEpW05IXVtDSDJdW0NIMl1PW0NIMl1bQ0BASF0yW0NIMl1bQ0gyXVtDSDJdTzI=

> <s_epik_cmdline>
J2VwaWtfcHl0aG9uJywgJy1waCcsICc3LjAnLCAnLXRuJywgJzgnLCAnLW1hJywgJzIwMCcsICctbWV0YWxfYmluZGluZycsICctaW1hZScsICc8aW5maWxlLm1hZT4nLCAnLW9tYWUnLCAnPG91dGZpbGUubWFlPic=

> <r_lp_tautomer_probability>
1

> <r_epik_Ionization_Penalty>
1.29225

> <r_epik_Ionization_Penalty_Charging>
0

> <r_epik_Ionization_Penalty_Neutral>
1.29225

> <r_epik_State_Penalty>
1.3654

> <r_epik_Charging_Adjusted_Penalty>
1.3654

> <i_epik_Tot_Q>
0

> <i_epik_Tot_abs_Q>
0

> <r_epik_Metal_State_Penalty>
0.00531989

> <b_epik_Metal_Only>
0

> <s_lp_Force_Field>
OPLS_2005

> <r_lp_Energy>
18.1736

> <b_lp_Chiralities_Consistent>
1

> <s_lp_Variant>
AV-unprocessed.smi:3198-3

> <Gold.Version>
5.8.1

> <Gold.Id.Protein>
6NUR|6NUR_protein|mol2

> <Gold.PLP.Fitness>
49.0798

> <Gold.PLP.PLP>
-42.0404

> <Gold.PLP.part.hbond>
-3.0000

> <Gold.PLP.part.metal>
0.0000

> <Gold.PLP.part.buried>
-6.6096

> <Gold.PLP.part.nonpolar>
-32.9700

> <Gold.PLP.part.repulsive>
0.3062

> <Gold.PLP.ligand.clash>
0.0000

> <Gold.PLP.ligand.torsion>
1.0189

> <Gold.PLP.Chemscore.Hbond>
2.9920

> <Gold.PLP.Chemscore.CHOScore>
0.0000

> <Gold.PLP.Chemscore.Metal>
0.0000

> <Gold.Chemscore.Hbonds>
donor molecule, donor type, donor heavy atom, donor atom, acceptor molecule, acceptor atom, score
      L1  H     7    24       P1  8028  1.00
      P1  H  7989  7998       L1    10  1.00
      P1  H 10752 10763       L1    16  0.98

> <Gold.PLP.Chemscore.Internal.Correction>
0.1013

> <Gold.Rescore>
     Score         DG    S(hbond)    S(metal)    S(lipo)     H(rot)  DE(clash)    DE(int)     intcor
     21.01     -22.09       2.77        0.00      98.58       1.63       0.00       1.08       ----

> <Gold.Chemscore.Fitness>
21.0051

> <Gold.Chemscore.DG>
-22.0858

> <Gold.Chemscore.ZeroCoef>
-5.4800

> <Gold.Chemscore.Hbond>
2.7688

> <Gold.Chemscore.Metal>
0.0000

> <Gold.Chemscore.Lipo>
98.5780

> <Gold.Chemscore.Internal_Hbond>
0.0000

> <Gold.Chemscore.DEClash>
0.0000

> <Gold.Chemscore.DEInternal>
1.0808

> <Gold.Chemscore.Rot>
1.6311

> <Gold.Chemscore.Internal.Correction>
   9.000000E+99

> <Gold.Chemscore.Hbonds>
donor molecule, donor type, donor heavy atom, donor atom, acceptor molecule, acceptor atom, score
      L1  H     7    24       P1  8028  0.96
      P1  H  7989  7998       L1    10  0.43
      P1  H 10752 10763       L1    16  0.69

> <Gold.Chemscore.Hbond.Weighted>
-9.2479

> <Gold.Chemscore.Metal.Weighted>
-0.0000

> <Gold.Chemscore.Lipo.Weighted>
-11.5336

> <Gold.Chemscore.Internal_Hbond.Weighted>
0.0000

> <Gold.Chemscore.DEClash.Weighted>
0.0000

> <Gold.Chemscore.DEInternal.Weighted>
1.0808

> <Gold.Chemscore.Rot.Weighted>
4.1757

> <Gold.Chemscore.Internal.Correction.Weighted>
   9.000000E+99

> <Gold.Protein.RotatedTorsions>
[ 6907 6896 6895 6894 ] final  -18.10 input  -60.11 | X-H torsion
[ 7974 7965 7964 7962 ] final  -29.77 input  175.53 | X-H torsion
[ 8008 7997 7996 7995 ] final   48.28 input   59.86 | X-H torsion
[ 10167 10162 10161 10158 ] final  -66.88 input  -65.29 | X-H torsion
[ 10718 10713 10712 10709 ] final  126.53 input   66.30 | X-H torsion
[ 10763 10752 10751 10750 ] final   48.87 input  -60.55 | X-H torsion
[ 11005 11000 10999 10996 ] final   -3.52 input  -57.11 | X-H torsion

> <Gold.Protein.ActiveResidues>
 VAL166  LYS551  ARG553  GLY616  TRP617  ASP618  TYR619  PRO620  LYS621  CYS622 
 ASP623  PHE694  ASN695  SER759  ASP760  ASP761  ALA762  ILE779  LEU786  VAL792 
 PHE793  MET794  SER795  GLU796  ALA797  LYS798  CYS799  TRP800  GLU811  SER814 

> <Gold.Protein.RotatedAtoms>
  151.2832  135.0720  159.9176 H   0  0  0  0  0  0  0  0  0  0  0  0  # atno 6907 bound_to 6896
  152.5330  134.0009  159.7904 H   0  0  0  0  0  0  0  0  0  0  0  0  # atno 6908 bound_to 6896
  151.0266  133.5777  159.2696 H   0  0  0  0  0  0  0  0  0  0  0  0  # atno 6909 bound_to 6896
  146.1192  140.5455  142.8743 H   0  0  0  0  0  0  0  0  0  0  0  0  # atno 7974 bound_to 7965
  155.3830  140.3429  155.4247 H   0  0  0  0  0  0  0  0  0  0  0  0  # atno 8008 bound_to 7997
  156.1600  140.1598  156.8661 H   0  0  0  0  0  0  0  0  0  0  0  0  # atno 8009 bound_to 7997
  154.5131  140.0785  156.8009 H   0  0  0  0  0  0  0  0  0  0  0  0  # atno 8010 bound_to 7997
  140.5624  143.2313  151.6701 H   0  0  0  0  0  0  0  0  0  0  0  0  # atno 10167 bound_to 10162
  157.5411  131.1097  150.8858 H   0  0  0  0  0  0  0  0  0  0  0  0  # atno 10718 bound_to 10713
  152.9789  135.5930  154.3996 H   0  0  0  0  0  0  0  0  0  0  0  0  # atno 10763 bound_to 10752
  154.3643  135.2767  155.2304 H   0  0  0  0  0  0  0  0  0  0  0  0  # atno 10764 bound_to 10752
  154.4288  135.6041  153.6110 H   0  0  0  0  0  0  0  0  0  0  0  0  # atno 10765 bound_to 10752
  140.6702  133.9243  155.8490 H   0  0  0  0  0  0  0  0  0  0  0  0  # atno 11005 bound_to 11000
  144.7581  140.5356  143.6755 LP  0  0  0  0  0  0  0  0  0  0  0  0  # atno 17320 bound_to 7965
  145.5502  139.1476  143.3398 LP  0  0  0  0  0  0  0  0  0  0  0  0  # atno 17321 bound_to 7965
  139.5077  144.3638  152.0536 LP  0  0  0  0  0  0  0  0  0  0  0  0  # atno 17342 bound_to 10162
  140.2766  144.3905  150.6133 LP  0  0  0  0  0  0  0  0  0  0  0  0  # atno 17343 bound_to 10162
  156.9410  130.5384  149.5280 LP  0  0  0  0  0  0  0  0  0  0  0  0  # atno 17370 bound_to 10713
  156.0497  130.5568  150.8962 LP  0  0  0  0  0  0  0  0  0  0  0  0  # atno 17371 bound_to 10713
  141.0398  134.0638  157.3916 LP  0  0  0  0  0  0  0  0  0  0  0  0  # atno 17394 bound_to 11000
  139.8984  135.0154  156.7146 LP  0  0  0  0  0  0  0  0  0  0  0  0  # atno 17395 bound_to 11000

$$$$
