AV-unprocessed.smi:2146|AV-procd|sdf|8741|dock7
  -GOLD-   2272011513D 1   1.00000     0.00000
 Structure written by MMmdl.
 45 46  0  0  0  0  0  0  0  0  2 V2000
  147.6980  135.3979  154.9641 C   0  0  0  0  0  0  0  0  0  0  0  0
  149.1724  135.6357  155.3660 C   0  0  1  0  0  0  0  0  0  0  0  0
  150.0011  134.3328  155.1699 C   0  0  0  0  0  0  0  0  0  0  0  0
  149.5071  133.2109  155.9643 N   0  0  0  0  0  0  0  0  0  0  0  0
  149.4564  133.1798  157.3046 C   0  0  0  0  0  0  0  0  0  0  0  0
  149.8489  134.1087  158.0119 O   0  0  0  0  0  0  0  0  0  0  0  0
  148.8766  131.9011  157.9259 C   0  0  0  0  0  0  0  0  0  0  0  0
  148.9813  131.8701  159.3941 N   0  0  0  0  0  0  0  0  0  0  0  0
  148.3941  132.9426  160.0931 C   0  0  0  0  0  0  0  0  0  0  0  0
  148.4081  133.0389  161.4360 C   0  0  0  0  0  0  0  0  0  0  0  0
  147.8171  134.2432  162.1521 C   0  0  0  0  0  0  0  0  0  0  0  0
  148.7346  134.8637  162.8941 F   0  0  0  0  0  0  0  0  0  0  0  0
  147.3210  135.1206  161.2788 F   0  0  0  0  0  0  0  0  0  0  0  0
  146.8269  133.8530  162.9535 F   0  0  0  0  0  0  0  0  0  0  0  0
  149.0926  131.9796  162.1513 C   0  0  0  0  0  0  0  0  0  0  0  0
  149.6742  130.9550  161.4972 C   0  0  0  0  0  0  0  0  0  0  0  0
  149.6421  130.8603  160.0358 C   0  0  0  0  0  0  0  0  0  0  0  0
  150.1771  129.9333  159.4273 O   0  0  0  0  0  0  0  0  0  0  0  0
  149.7282  136.8200  154.6310 N   0  3  0  0  0  0  0  0  0  0  0  0
  149.0230  138.0871  154.9709 C   0  0  0  0  0  0  0  0  0  0  0  0
  149.5649  139.2662  154.1470 C   0  0  0  0  0  0  0  0  0  0  0  0
  150.9586  139.4024  154.3770 O   0  0  0  0  0  0  0  0  0  0  0  0
  151.6678  138.2470  153.9569 C   0  0  0  0  0  0  0  0  0  0  0  0
  151.1985  137.0208  154.7597 C   0  0  0  0  0  0  0  0  0  0  0  0
  147.2626  134.5519  155.4956 H   0  0  0  0  0  0  0  0  0  0  0  0
  147.6106  135.1940  153.8968 H   0  0  0  0  0  0  0  0  0  0  0  0
  147.0578  136.2477  155.1931 H   0  0  0  0  0  0  0  0  0  0  0  0
  149.1996  135.8779  156.4297 H   0  0  0  0  0  0  0  0  0  0  0  0
  149.9857  134.0331  154.1214 H   0  0  0  0  0  0  0  0  0  0  0  0
  151.0473  134.4783  155.4415 H   0  0  0  0  0  0  0  0  0  0  0  0
  149.1729  132.4033  155.4579 H   0  0  0  0  0  0  0  0  0  0  0  0
  147.8292  131.8060  157.6334 H   0  0  0  0  0  0  0  0  0  0  0  0
  149.3746  131.0403  157.4771 H   0  0  0  0  0  0  0  0  0  0  0  0
  147.9382  133.6924  159.4625 H   0  0  0  0  0  0  0  0  0  0  0  0
  149.1384  132.0045  163.2301 H   0  0  0  0  0  0  0  0  0  0  0  0
  150.1752  130.1828  162.0624 H   0  0  0  0  0  0  0  0  0  0  0  0
  147.9540  138.0060  154.7843 H   0  0  0  0  0  0  0  0  0  0  0  0
  149.1430  138.2971  156.0350 H   0  0  0  0  0  0  0  0  0  0  0  0
  149.3662  139.1254  153.0832 H   0  0  0  0  0  0  0  0  0  0  0  0
  149.0686  140.1901  154.4439 H   0  0  0  0  0  0  0  0  0  0  0  0
  151.5275  138.0883  152.8863 H   0  0  0  0  0  0  0  0  0  0  0  0
  152.7337  138.4121  154.1151 H   0  0  0  0  0  0  0  0  0  0  0  0
  151.4619  137.1374  155.8124 H   0  0  0  0  0  0  0  0  0  0  0  0
  151.7435  136.1589  154.3767 H   0  0  0  0  0  0  0  0  0  0  0  0
  149.5612  136.6467  153.6501 H   0  0  0  0  0  0  0  0  0  0  0  0
  1  2  1  0  0  0  0
  1 25  1  0  0  0  0
  1 26  1  0  0  0  0
  1 27  1  0  0  0  0
  2  3  1  0  0  0  0
  2 19  1  0  0  0  0
  2 28  1  0  0  0  0
  3  4  1  0  0  0  0
  3 29  1  0  0  0  0
  3 30  1  0  0  0  0
  4  5  1  0  0  0  0
  4 31  1  0  0  0  0
  5  6  2  0  0  0  0
  5  7  1  0  0  0  0
  7  8  1  0  0  0  0
  7 32  1  0  0  0  0
  7 33  1  0  0  0  0
  8 17  1  0  0  0  0
  8  9  1  0  0  0  0
  9 10  2  0  0  0  0
  9 34  1  0  0  0  0
 10 11  1  0  0  0  0
 10 15  1  0  0  0  0
 11 12  1  0  0  0  0
 11 13  1  0  0  0  0
 11 14  1  0  0  0  0
 15 16  2  0  0  0  0
 15 35  1  0  0  0  0
 16 17  1  0  0  0  0
 16 36  1  0  0  0  0
 17 18  2  0  0  0  0
 19 24  1  0  0  0  0
 19 20  1  0  0  0  0
 19 45  1  0  0  0  0
 20 21  1  0  0  0  0
 20 37  1  0  0  0  0
 20 38  1  0  0  0  0
 21 22  1  0  0  0  0
 21 39  1  0  0  0  0
 21 40  1  0  0  0  0
 22 23  1  0  0  0  0
 23 24  1  0  0  0  0
 23 41  1  0  0  0  0
 23 42  1  0  0  0  0
 24 43  1  0  0  0  0
 24 44  1  0  0  0  0
M  CHG  1  19   1
M  END
> <s_m_source_file>
AV-unprocessed.smi

> <i_m_source_file_index>
2146

> <i_lp_mmshare_version>
43012

> <i_f3d_flags>
0

> <s_epik_input>
W0NIMl0xW0NIMl1PW0NIMl1bQ0gyXU4xW0NASF0oW0NIM10pW0NIMl1bTkhdQyg9TylbQ0gyXW4yW2NIXWMoQyhGKShGKUYpW2NIXVtjSF1jMj1P

> <s_epik_cmdline>
J2VwaWtfcHl0aG9uJywgJy1waCcsICc3LjAnLCAnLXRuJywgJzgnLCAnLW1hJywgJzIwMCcsICctbWV0YWxfYmluZGluZycsICctaW1hZScsICc8aW5maWxlLm1hZT4nLCAnLW9tYWUnLCAnPG91dGZpbGUubWFlPic=

> <r_lp_tautomer_probability>
1

> <r_epik_Ionization_Penalty>
0.656654

> <r_epik_Ionization_Penalty_Charging>
0.656653

> <r_epik_Ionization_Penalty_Neutral>
9.12373e-08

> <r_epik_State_Penalty>
0.675641

> <r_epik_Charging_Adjusted_Penalty>
1.33229

> <i_epik_Tot_Q>
1

> <i_epik_Tot_abs_Q>
1

> <r_epik_Metal_State_Penalty>
0.675692

> <b_epik_Metal_Only>
0

> <s_lp_Force_Field>
OPLS_2005

> <r_lp_Energy>
32.7302

> <b_lp_Chiralities_Consistent>
1

> <s_lp_Variant>
AV-unprocessed.smi:2146-4

> <Gold.Version>
5.8.1

> <Gold.Id.Protein>
6NUR|6NUR_protein|mol2

> <Gold.PLP.Fitness>
45.7565

> <Gold.PLP.PLP>
-35.6674

> <Gold.PLP.part.hbond>
-3.0000

> <Gold.PLP.part.metal>
0.0000

> <Gold.PLP.part.buried>
-3.9701

> <Gold.PLP.part.nonpolar>
-28.9660

> <Gold.PLP.part.repulsive>
0.1678

> <Gold.PLP.ligand.clash>
1.7285

> <Gold.PLP.ligand.torsion>
0.1717

> <Gold.PLP.Chemscore.Hbond>
4.0000

> <Gold.PLP.Chemscore.CHOScore>
0.0000

> <Gold.PLP.Chemscore.Metal>
0.0000

> <Gold.Chemscore.Hbonds>
donor molecule, donor type, donor heavy atom, donor atom, acceptor molecule, acceptor atom, score
      L1  H    19    45       P1  7948  2.00
      P1  H  6896  6909       L1     6  1.00
      P1  H  7989  7998       L1    22  1.00

> <Gold.PLP.Chemscore.Internal.Correction>
0.1610

> <Gold.Rescore>
     Score         DG    S(hbond)    S(metal)    S(lipo)     H(rot)  DE(clash)    DE(int)     intcor
     14.05     -17.18       2.70        0.00      70.67       2.18       1.36       1.77       ----

> <Gold.Chemscore.Fitness>
14.0528

> <Gold.Chemscore.DG>
-17.1825

> <Gold.Chemscore.ZeroCoef>
-5.4800

> <Gold.Chemscore.Hbond>
2.6994

> <Gold.Chemscore.Metal>
0.0000

> <Gold.Chemscore.Lipo>
70.6726

> <Gold.Chemscore.Internal_Hbond>
0.0000

> <Gold.Chemscore.DEClash>
1.3555

> <Gold.Chemscore.DEInternal>
1.7742

> <Gold.Chemscore.Rot>
2.1805

> <Gold.Chemscore.Internal.Correction>
   9.000000E+99

> <Gold.Chemscore.Hbonds>
donor molecule, donor type, donor heavy atom, donor atom, acceptor molecule, acceptor atom, score
      L1  H    19    45       P1  7948  0.74
      P1  H  6896  6909       L1     6  0.94
      P1  H  7989  7998       L1    22  0.51

> <Gold.Chemscore.Hbond.Weighted>
-9.0160

> <Gold.Chemscore.Metal.Weighted>
-0.0000

> <Gold.Chemscore.Lipo.Weighted>
-8.2687

> <Gold.Chemscore.Internal_Hbond.Weighted>
0.0000

> <Gold.Chemscore.DEClash.Weighted>
1.3555

> <Gold.Chemscore.DEInternal.Weighted>
1.7742

> <Gold.Chemscore.Rot.Weighted>
5.5822

> <Gold.Chemscore.Internal.Correction.Weighted>
   9.000000E+99

> <Gold.Protein.RotatedTorsions>
[ 6907 6896 6895 6894 ] final   11.02 input  -60.11 | X-H torsion
[ 7974 7965 7964 7962 ] final  -34.94 input  175.53 | X-H torsion
[ 8008 7997 7996 7995 ] final   81.09 input   59.86 | X-H torsion
[ 10167 10162 10161 10158 ] final  -71.84 input  -65.29 | X-H torsion
[ 10718 10713 10712 10709 ] final  -12.87 input   66.30 | X-H torsion
[ 10763 10752 10751 10750 ] final  105.44 input  -60.55 | X-H torsion
[ 11005 11000 10999 10996 ] final  159.42 input  -57.11 | X-H torsion

> <Gold.Protein.ActiveResidues>
 VAL166  LYS551  ARG553  GLY616  TRP617  ASP618  TYR619  PRO620  LYS621  CYS622 
 ASP623  PHE694  ASN695  SER759  ASP760  ASP761  ALA762  ILE779  LEU786  VAL792 
 PHE793  MET794  SER795  GLU796  ALA797  LYS798  CYS799  TRP800  GLU811  SER814 

> <Gold.Protein.RotatedAtoms>
  151.7475  135.0840  160.0325 H   0  0  0  0  0  0  0  0  0  0  0  0  # atno 6907 bound_to 6896
  152.3438  133.6094  159.5904 H   0  0  0  0  0  0  0  0  0  0  0  0  # atno 6908 bound_to 6896
  150.7496  133.9596  159.3553 H   0  0  0  0  0  0  0  0  0  0  0  0  # atno 6909 bound_to 6896
  146.0788  140.6099  142.8918 H   0  0  0  0  0  0  0  0  0  0  0  0  # atno 7974 bound_to 7965
  155.8924  140.3438  155.5965 H   0  0  0  0  0  0  0  0  0  0  0  0  # atno 8008 bound_to 7997
  155.7596  140.0831  157.2181 H   0  0  0  0  0  0  0  0  0  0  0  0  # atno 8009 bound_to 7997
  154.4034  140.1538  156.2804 H   0  0  0  0  0  0  0  0  0  0  0  0  # atno 8010 bound_to 7997
  140.5241  143.2328  151.7379 H   0  0  0  0  0  0  0  0  0  0  0  0  # atno 10167 bound_to 10162
  156.6384  130.4921  149.6103 H   0  0  0  0  0  0  0  0  0  0  0  0  # atno 10718 bound_to 10713
  153.3794  135.3910  155.1846 H   0  0  0  0  0  0  0  0  0  0  0  0  # atno 10763 bound_to 10752
  154.8705  135.3722  154.4876 H   0  0  0  0  0  0  0  0  0  0  0  0  # atno 10764 bound_to 10752
  153.5352  135.7085  153.5725 H   0  0  0  0  0  0  0  0  0  0  0  0  # atno 10765 bound_to 10752
  140.1960  134.8373  157.2965 H   0  0  0  0  0  0  0  0  0  0  0  0  # atno 11005 bound_to 11000
  144.7279  140.4582  143.6959 LP  0  0  0  0  0  0  0  0  0  0  0  0  # atno 17320 bound_to 7965
  145.6257  139.1529  143.2997 LP  0  0  0  0  0  0  0  0  0  0  0  0  # atno 17321 bound_to 7965
  139.4932  144.4212  151.9975 LP  0  0  0  0  0  0  0  0  0  0  0  0  # atno 17342 bound_to 10162
  140.3310  144.3316  150.5987 LP  0  0  0  0  0  0  0  0  0  0  0  0  # atno 17343 bound_to 10162
  156.2178  130.6718  151.1337 LP  0  0  0  0  0  0  0  0  0  0  0  0  # atno 17370 bound_to 10713
  157.7178  131.0699  150.6257 LP  0  0  0  0  0  0  0  0  0  0  0  0  # atno 17371 bound_to 10713
  140.2107  134.4142  155.7614 LP  0  0  0  0  0  0  0  0  0  0  0  0  # atno 17394 bound_to 11000
  141.2227  133.7117  156.8333 LP  0  0  0  0  0  0  0  0  0  0  0  0  # atno 17395 bound_to 11000

$$$$
