AV-unprocessed.smi:1911|AV-procd|sdf|7747|dock3
  -GOLD-   22720 9483D 1   1.00000     0.00000
 Structure written by MMmdl.
 52 54  0  0  0  0  0  0  0  0  4 V2000
  143.2312  133.0435  150.4303 N   0  5  0  0  0  0  0  0  0  0  0  0
  144.4586  132.8881  150.9628 C   0  0  0  0  0  0  0  0  0  0  0  0
  145.3444  132.1133  150.6062 O   0  0  0  0  0  0  0  0  0  0  0  0
  144.6961  133.8061  152.1672 C   0  0  0  0  0  0  0  0  0  0  0  0
  144.7658  135.2224  151.7280 N   0  3  2  0  0  0  0  0  0  0  0  0
  145.9205  135.5019  150.8322 C   0  0  0  0  0  0  0  0  0  0  0  0
  145.8749  136.9443  150.2966 C   0  0  0  0  0  0  0  0  0  0  0  0
  145.8000  137.9811  151.4309 C   0  0  2  0  0  0  0  0  0  0  0  0
  147.0776  138.0616  152.1390 N   0  0  0  0  0  0  0  0  0  0  0  0
  147.4472  139.0566  152.9587 C   0  0  0  0  0  0  0  0  0  0  0  0
  146.7352  140.0290  153.2068 O   0  0  0  0  0  0  0  0  0  0  0  0
  148.6824  138.8506  153.4480 N   0  0  0  0  0  0  0  0  0  0  0  0
  149.4285  139.6551  154.3524 C   0  0  0  0  0  0  0  0  0  0  0  0
  150.5540  139.2019  155.0848 C   0  0  0  0  0  0  0  0  0  0  0  0
  151.2291  140.0923  155.9450 C   0  0  0  0  0  0  0  0  0  0  0  0
  150.7832  141.4296  156.0656 C   0  0  0  0  0  0  0  0  0  0  0  0
  151.4128  142.3736  156.8990 N   0  0  0  0  0  0  0  0  0  0  0  0
  151.2325  143.8074  156.7100 C   0  0  0  0  0  0  0  0  0  0  0  0
  151.4261  144.4320  158.0963 C   0  0  0  0  0  0  0  0  0  0  0  0
  152.2407  143.3900  158.8629 C   0  0  0  0  0  0  0  0  0  0  0  0
  151.7489  142.0660  158.2793 C   0  0  0  0  0  0  0  0  0  0  0  0
  149.7135  141.8208  155.3330 N   0  3  0  0  0  0  0  0  0  0  0  0
  149.0376  141.0018  154.4991 C   0  0  0  0  0  0  0  0  0  0  0  0
  144.6405  137.6271  152.3828 C   0  0  0  0  0  0  0  0  0  0  0  0
  144.7179  136.1693  152.8705 C   0  0  0  0  0  0  0  0  0  0  0  0
  142.7977  133.9744  150.4414 H   0  0  0  0  0  0  0  0  0  0  0  0
  143.8491  133.6659  152.8400 H   0  0  0  0  0  0  0  0  0  0  0  0
  145.5910  133.5399  152.7342 H   0  0  0  0  0  0  0  0  0  0  0  0
  146.8520  135.3274  151.3727 H   0  0  0  0  0  0  0  0  0  0  0  0
  145.9175  134.8128  149.9872 H   0  0  0  0  0  0  0  0  0  0  0  0
  146.7412  137.1370  149.6627 H   0  0  0  0  0  0  0  0  0  0  0  0
  145.0001  137.0549  149.6540 H   0  0  0  0  0  0  0  0  0  0  0  0
  145.6012  138.9560  150.9818 H   0  0  0  0  0  0  0  0  0  0  0  0
  147.7302  137.3066  151.9852 H   0  0  0  0  0  0  0  0  0  0  0  0
  149.1672  138.0393  153.0930 H   0  0  0  0  0  0  0  0  0  0  0  0
  150.9270  138.1937  154.9976 H   0  0  0  0  0  0  0  0  0  0  0  0
  152.0869  139.7367  156.4962 H   0  0  0  0  0  0  0  0  0  0  0  0
  151.9918  144.1673  156.0149 H   0  0  0  0  0  0  0  0  0  0  0  0
  150.2512  144.0560  156.3042 H   0  0  0  0  0  0  0  0  0  0  0  0
  151.9111  145.4076  158.0571 H   0  0  0  0  0  0  0  0  0  0  0  0
  150.4558  144.5601  158.5783 H   0  0  0  0  0  0  0  0  0  0  0  0
  153.3018  143.5195  158.6445 H   0  0  0  0  0  0  0  0  0  0  0  0
  152.1079  143.4531  159.9431 H   0  0  0  0  0  0  0  0  0  0  0  0
  150.8558  141.7224  158.8031 H   0  0  0  0  0  0  0  0  0  0  0  0
  152.5121  141.2903  158.3473 H   0  0  0  0  0  0  0  0  0  0  0  0
  148.2034  141.4503  153.9788 H   0  0  0  0  0  0  0  0  0  0  0  0
  144.6206  138.3070  153.2352 H   0  0  0  0  0  0  0  0  0  0  0  0
  143.6943  137.7747  151.8605 H   0  0  0  0  0  0  0  0  0  0  0  0
  143.8449  135.9554  153.4885 H   0  0  0  0  0  0  0  0  0  0  0  0
  145.5954  136.0246  153.5027 H   0  0  0  0  0  0  0  0  0  0  0  0
  143.9273  135.3825  151.1877 H   0  0  0  0  0  0  0  0  0  0  0  0
  149.3999  142.7880  155.4153 H   0  0  0  0  0  0  0  0  0  0  0  0
  1  2  1  0  0  0  0
  1 26  1  0  0  0  0
  2  3  2  0  0  0  0
  2  4  1  0  0  0  0
  4  5  1  0  0  0  0
  4 27  1  0  0  0  0
  4 28  1  0  0  0  0
  5 25  1  0  0  0  0
  5  6  1  0  0  0  0
  5 51  1  0  0  0  0
  6  7  1  0  0  0  0
  6 29  1  0  0  0  0
  6 30  1  0  0  0  0
  7  8  1  0  0  0  0
  7 31  1  0  0  0  0
  7 32  1  0  0  0  0
  8  9  1  0  0  0  0
  8 24  1  0  0  0  0
  8 33  1  0  0  0  0
  9 10  1  0  0  0  0
  9 34  1  0  0  0  0
 10 11  2  0  0  0  0
 10 12  1  0  0  0  0
 12 13  1  0  0  0  0
 12 35  1  0  0  0  0
 13 23  1  0  0  0  0
 13 14  2  0  0  0  0
 14 15  1  0  0  0  0
 14 36  1  0  0  0  0
 15 16  2  0  0  0  0
 15 37  1  0  0  0  0
 16 17  1  0  0  0  0
 16 22  1  0  0  0  0
 17 21  1  0  0  0  0
 17 18  1  0  0  0  0
 18 19  1  0  0  0  0
 18 38  1  0  0  0  0
 18 39  1  0  0  0  0
 19 20  1  0  0  0  0
 19 40  1  0  0  0  0
 19 41  1  0  0  0  0
 20 21  1  0  0  0  0
 20 42  1  0  0  0  0
 20 43  1  0  0  0  0
 21 44  1  0  0  0  0
 21 45  1  0  0  0  0
 22 23  2  0  0  0  0
 22 52  1  0  0  0  0
 23 46  1  0  0  0  0
 24 25  1  0  0  0  0
 24 47  1  0  0  0  0
 24 48  1  0  0  0  0
 25 49  1  0  0  0  0
 25 50  1  0  0  0  0
M  CHG  1   1  -1
M  CHG  1   5   1
M  CHG  1  22   1
M  END
> <s_m_source_file>
AV-unprocessed.smi

> <i_m_source_file_index>
1911

> <i_lp_mmshare_version>
43012

> <i_f3d_flags>
0

> <s_epik_input>
W05IMl1DKD1PKVtDSDJdTjFbQ0gyXVtDSDJdW0NIXShbQ0gyXVtDSDJdMSlbTkhdQyg9TylbTkhdYzJbY0hdW2NIXWMobltjSF0yKU4zW0NIMl1bQ0gyXVtDSDJdW0NIMl0z

> <s_epik_cmdline>
J2VwaWtfcHl0aG9uJywgJy1waCcsICc3LjAnLCAnLXRuJywgJzgnLCAnLW1hJywgJzIwMCcsICctbWV0YWxfYmluZGluZycsICctaW1hZScsICc8aW5maWxlLm1hZT4nLCAnLW9tYWUnLCAnPG91dGZpbGUubWFlPic=

> <r_lp_tautomer_probability>
0.999994

> <r_epik_Ionization_Penalty>
6.97817

> <r_epik_Ionization_Penalty_Charging>
6.97815

> <r_epik_Ionization_Penalty_Neutral>
1.89299e-05

> <r_epik_State_Penalty>
7.80985

> <r_epik_Charging_Adjusted_Penalty>
14.788

> <i_epik_Tot_Q>
1

> <i_epik_Tot_abs_Q>
3

> <r_epik_Metal_State_Penalty>
3.85727

> <b_epik_Metal_Only>
1

> <s_lp_Force_Field>
OPLS_2005

> <r_lp_Energy>
41.382

> <b_lp_Chiralities_Consistent>
1

> <s_lp_Variant>
AV-unprocessed.smi:1911-10

> <Gold.Version>
5.8.1

> <Gold.Id.Protein>
6NUR|6NUR_protein|mol2

> <Gold.PLP.Fitness>
51.2206

> <Gold.PLP.PLP>
-41.0499

> <Gold.PLP.part.hbond>
-4.8756

> <Gold.PLP.part.metal>
0.0000

> <Gold.PLP.part.buried>
5.4667

> <Gold.PLP.part.nonpolar>
-43.0319

> <Gold.PLP.part.repulsive>
0.6056

> <Gold.PLP.ligand.clash>
0.0000

> <Gold.PLP.ligand.torsion>
0.8570

> <Gold.PLP.Chemscore.Hbond>
3.8904

> <Gold.PLP.Chemscore.CHOScore>
0.0000

> <Gold.PLP.Chemscore.Metal>
0.0000

> <Gold.Chemscore.Hbonds>
donor molecule, donor type, donor heavy atom, donor atom, acceptor molecule, acceptor atom, score
      L1  H     1    26       P1 10186  0.48
      L1  H     9    34       P1  7948  1.00
      L1  H    12    35       P1  7948  0.60
      L1  H    22    52       P1  8028  2.00

> <Gold.PLP.Chemscore.Internal.Correction>
0.2133

> <Gold.Rescore>
     Score         DG    S(hbond)    S(metal)    S(lipo)     H(rot)  DE(clash)    DE(int)     intcor
     16.08     -22.33       2.72        0.00     107.85       1.90       3.70       2.55       ----

> <Gold.Chemscore.Fitness>
16.0787

> <Gold.Chemscore.DG>
-22.3266

> <Gold.Chemscore.ZeroCoef>
-5.4800

> <Gold.Chemscore.Hbond>
2.7205

> <Gold.Chemscore.Metal>
0.0000

> <Gold.Chemscore.Lipo>
107.8530

> <Gold.Chemscore.Internal_Hbond>
0.0000

> <Gold.Chemscore.DEClash>
3.6981

> <Gold.Chemscore.DEInternal>
2.5497

> <Gold.Chemscore.Rot>
1.8979

> <Gold.Chemscore.Internal.Correction>
   9.000000E+99

> <Gold.Chemscore.Hbonds>
donor molecule, donor type, donor heavy atom, donor atom, acceptor molecule, acceptor atom, score
      L1  H     1    26       P1 10186  0.42
      L1  H     9    34       P1  7948  0.99
      L1  H    12    35       P1  7948  0.58
      L1  H    22    52       P1  8028  0.95

> <Gold.Chemscore.Hbond.Weighted>
-9.0865

> <Gold.Chemscore.Metal.Weighted>
-0.0000

> <Gold.Chemscore.Lipo.Weighted>
-12.6188

> <Gold.Chemscore.Internal_Hbond.Weighted>
0.0000

> <Gold.Chemscore.DEClash.Weighted>
3.6981

> <Gold.Chemscore.DEInternal.Weighted>
2.5497

> <Gold.Chemscore.Rot.Weighted>
4.8587

> <Gold.Chemscore.Internal.Correction.Weighted>
   9.000000E+99

> <Gold.Protein.RotatedTorsions>
[ 6907 6896 6895 6894 ] final -109.33 input  -60.11 | X-H torsion
[ 7974 7965 7964 7962 ] final -134.55 input  175.53 | X-H torsion
[ 8008 7997 7996 7995 ] final -176.41 input   59.86 | X-H torsion
[ 10167 10162 10161 10158 ] final  -18.01 input  -65.29 | X-H torsion
[ 10718 10713 10712 10709 ] final  -20.89 input   66.30 | X-H torsion
[ 10763 10752 10751 10750 ] final  129.26 input  -60.55 | X-H torsion
[ 11005 11000 10999 10996 ] final -157.69 input  -57.11 | X-H torsion

> <Gold.Protein.ActiveResidues>
 VAL166  LYS551  ARG553  GLY616  TRP617  ASP618  TYR619  PRO620  LYS621  CYS622 
 ASP623  PHE694  ASN695  SER759  ASP760  ASP761  ALA762  ILE779  LEU786  VAL792 
 PHE793  MET794  SER795  GLU796  ALA797  LYS798  CYS799  TRP800  GLU811  SER814 

> <Gold.Protein.RotatedAtoms>
  150.7556  133.9545  159.3495 H   0  0  0  0  0  0  0  0  0  0  0  0  # atno 6907 bound_to 6896
  151.7465  135.0840  160.0333 H   0  0  0  0  0  0  0  0  0  0  0  0  # atno 6908 bound_to 6896
  152.3494  133.6124  159.5970 H   0  0  0  0  0  0  0  0  0  0  0  0  # atno 6909 bound_to 6896
  144.9092  140.6873  143.5035 H   0  0  0  0  0  0  0  0  0  0  0  0  # atno 7974 bound_to 7965
  155.9945  140.1208  157.0607 H   0  0  0  0  0  0  0  0  0  0  0  0  # atno 8008 bound_to 7997
  154.4222  140.1119  156.5680 H   0  0  0  0  0  0  0  0  0  0  0  0  # atno 8009 bound_to 7997
  155.6297  140.3473  155.4681 H   0  0  0  0  0  0  0  0  0  0  0  0  # atno 8010 bound_to 7997
  140.7254  143.4958  150.9932 H   0  0  0  0  0  0  0  0  0  0  0  0  # atno 10167 bound_to 10162
  156.5257  130.4643  149.6573 H   0  0  0  0  0  0  0  0  0  0  0  0  # atno 10718 bound_to 10713
  153.7389  135.3227  155.3300 H   0  0  0  0  0  0  0  0  0  0  0  0  # atno 10763 bound_to 10752
  154.8301  135.4540  154.1046 H   0  0  0  0  0  0  0  0  0  0  0  0  # atno 10764 bound_to 10752
  153.2215  135.6949  153.8076 H   0  0  0  0  0  0  0  0  0  0  0  0  # atno 10765 bound_to 10752
  140.6619  134.4340  157.5234 H   0  0  0  0  0  0  0  0  0  0  0  0  # atno 11005 bound_to 11000
  145.3482  139.1713  143.4449 LP  0  0  0  0  0  0  0  0  0  0  0  0  # atno 17320 bound_to 7965
  146.3150  140.3531  142.8658 LP  0  0  0  0  0  0  0  0  0  0  0  0  # atno 17321 bound_to 7965
  139.8665  143.7247  152.3170 LP  0  0  0  0  0  0  0  0  0  0  0  0  # atno 17342 bound_to 10162
  139.7481  144.7542  151.0549 LP  0  0  0  0  0  0  0  0  0  0  0  0  # atno 17343 bound_to 10162
  156.3107  130.7227  151.2119 LP  0  0  0  0  0  0  0  0  0  0  0  0  # atno 17370 bound_to 10713
  157.7430  131.0482  150.4982 LP  0  0  0  0  0  0  0  0  0  0  0  0  # atno 17371 bound_to 10713
  139.9010  134.8556  156.1896 LP  0  0  0  0  0  0  0  0  0  0  0  0  # atno 17394 bound_to 11000
  141.0459  133.6914  156.1682 LP  0  0  0  0  0  0  0  0  0  0  0  0  # atno 17395 bound_to 11000

$$$$
