AV-unprocessed.smi:3058|AV-procd|sdf|11671|dock5
  -GOLD-   2272017 73D 1   1.00000     0.00000
 Structure written by MMmdl.
 38 40  0  0  0  0  0  0  0  0  1 V2000
  149.1964  144.0592  161.1330 O   0  0  0  0  0  0  0  0  0  0  0  0
  149.0125  144.5892  160.0364 C   0  0  0  0  0  0  0  0  0  0  0  0
  147.8152  145.0449  159.6377 N   0  0  0  0  0  0  0  0  0  0  0  0
  146.5901  144.9876  160.4258 C   0  0  0  0  0  0  0  0  0  0  0  0
  145.9973  146.3879  160.6507 C   0  0  0  0  0  0  0  0  0  0  0  0
  145.5630  147.0394  159.3527 C   0  0  0  0  0  0  0  0  0  0  0  0
  145.9182  148.3717  159.0569 C   0  0  0  0  0  0  0  0  0  0  0  0
  145.4935  148.9313  157.8364 C   0  0  0  0  0  0  0  0  0  0  0  0
  144.7305  148.1321  156.9614 C   0  0  0  0  0  0  0  0  0  0  0  0
  144.3857  146.8552  157.2339 N   0  0  0  0  0  0  0  0  0  0  0  0
  144.7965  146.3261  158.4065 C   0  0  0  0  0  0  0  0  0  0  0  0
  150.1615  144.7351  159.0227 C   0  0  2  0  0  0  0  0  0  0  0  0
  150.5612  143.4227  158.3035 C   0  0  0  0  0  0  0  0  0  0  0  0
  152.0822  143.3494  158.5370 C   0  0  2  0  0  0  0  0  0  0  0  0
  152.3599  142.9790  160.0059 C   0  0  0  0  0  0  0  0  0  0  0  0
  152.0210  144.2814  160.7537 C   0  0  0  0  0  0  0  0  0  0  0  0
  151.5149  145.2024  159.6215 C   0  0  1  0  0  0  0  0  0  0  0  0
  152.4770  144.8215  158.4998 C   0  0  0  0  0  0  0  0  0  0  0  0
  147.7478  145.4592  158.7192 H   0  0  0  0  0  0  0  0  0  0  0  0
  145.8617  144.3353  159.9405 H   0  0  0  0  0  0  0  0  0  0  0  0
  146.8293  144.5274  161.3849 H   0  0  0  0  0  0  0  0  0  0  0  0
  145.1379  146.3274  161.3196 H   0  0  0  0  0  0  0  0  0  0  0  0
  146.7252  147.0335  161.1439 H   0  0  0  0  0  0  0  0  0  0  0  0
  146.5064  148.9547  159.7507 H   0  0  0  0  0  0  0  0  0  0  0  0
  145.7467  149.9484  157.5761 H   0  0  0  0  0  0  0  0  0  0  0  0
  144.3888  148.5294  156.0171 H   0  0  0  0  0  0  0  0  0  0  0  0
  144.5063  145.3026  158.5940 H   0  0  0  0  0  0  0  0  0  0  0  0
  149.8535  145.4571  158.2637 H   0  0  0  0  0  0  0  0  0  0  0  0
  150.0514  142.5322  158.6736 H   0  0  0  0  0  0  0  0  0  0  0  0
  150.3427  143.4976  157.2375 H   0  0  0  0  0  0  0  0  0  0  0  0
  152.6030  142.7135  157.8206 H   0  0  0  0  0  0  0  0  0  0  0  0
  151.7518  142.1378  160.3402 H   0  0  0  0  0  0  0  0  0  0  0  0
  153.4079  142.7144  160.1519 H   0  0  0  0  0  0  0  0  0  0  0  0
  151.3050  144.1358  161.5615 H   0  0  0  0  0  0  0  0  0  0  0  0
  152.9230  144.6997  161.2025 H   0  0  0  0  0  0  0  0  0  0  0  0
  151.5309  146.2613  159.8816 H   0  0  0  0  0  0  0  0  0  0  0  0
  153.5258  144.9950  158.7478 H   0  0  0  0  0  0  0  0  0  0  0  0
  152.2513  145.3067  157.5484 H   0  0  0  0  0  0  0  0  0  0  0  0
  1  2  2  0  0  0  0
  2  3  1  0  0  0  0
  2 12  1  0  0  0  0
  3  4  1  0  0  0  0
  3 19  1  0  0  0  0
  4  5  1  0  0  0  0
  4 20  1  0  0  0  0
  4 21  1  0  0  0  0
  5  6  1  0  0  0  0
  5 22  1  0  0  0  0
  5 23  1  0  0  0  0
  6 11  1  0  0  0  0
  6  7  2  0  0  0  0
  7  8  1  0  0  0  0
  7 24  1  0  0  0  0
  8  9  2  0  0  0  0
  8 25  1  0  0  0  0
  9 10  1  0  0  0  0
  9 26  1  0  0  0  0
 10 11  2  0  0  0  0
 11 27  1  0  0  0  0
 12 17  1  0  0  0  0
 12 13  1  0  0  0  0
 12 28  1  0  0  0  0
 13 14  1  0  0  0  0
 13 29  1  0  0  0  0
 13 30  1  0  0  0  0
 14 18  1  0  0  0  0
 14 15  1  0  0  0  0
 14 31  1  0  0  0  0
 15 16  1  0  0  0  0
 15 32  1  0  0  0  0
 15 33  1  0  0  0  0
 16 17  1  0  0  0  0
 16 34  1  0  0  0  0
 16 35  1  0  0  0  0
 17 18  1  0  0  0  0
 17 36  1  0  0  0  0
 18 37  1  0  0  0  0
 18 38  1  0  0  0  0
M  END
> <s_m_source_file>
AV-unprocessed.smi

> <i_m_source_file_index>
3058

> <i_lp_mmshare_version>
43012

> <i_f3d_flags>
0

> <s_epik_input>
W0NIMl0xW0NIMl1bQ0BIXShbQ0gyXTIpW0NAQEhdKFtDSDJdW0NAQEhdMTIpQyg9TylbTkhdW0NIMl1bQ0gyXWMzW2NIXVtjSF1bY0hdbltjSF0z

> <s_epik_cmdline>
J2VwaWtfcHl0aG9uJywgJy1waCcsICc3LjAnLCAnLXRuJywgJzgnLCAnLW1hJywgJzIwMCcsICctbWV0YWxfYmluZGluZycsICctaW1hZScsICc8aW5maWxlLm1hZT4nLCAnLW9tYWUnLCAnPG91dGZpbGUubWFlPic=

> <r_epik_Ionization_Penalty>
0.0135821

> <r_epik_Ionization_Penalty_Charging>
0

> <r_epik_Ionization_Penalty_Neutral>
0.0135821

> <r_epik_State_Penalty>
0.0105782

> <r_epik_Charging_Adjusted_Penalty>
0.0105782

> <i_epik_Tot_Q>
0

> <i_epik_Tot_abs_Q>
0

> <r_epik_Metal_State_Penalty>
0.0103407

> <b_epik_Metal_Only>
0

> <s_lp_Force_Field>
OPLS_2005

> <r_lp_Energy>
46.6846

> <b_lp_Chiralities_Consistent>
1

> <s_lp_Variant>
AV-unprocessed.smi:3058-3

> <Gold.Version>
5.8.1

> <Gold.Id.Protein>
6NUR|6NUR_protein|mol2

> <Gold.PLP.Fitness>
46.2490

> <Gold.PLP.PLP>
-42.9851

> <Gold.PLP.part.hbond>
-2.0000

> <Gold.PLP.part.metal>
0.0000

> <Gold.PLP.part.buried>
-3.4266

> <Gold.PLP.part.nonpolar>
-38.4721

> <Gold.PLP.part.repulsive>
0.4439

> <Gold.PLP.ligand.clash>
0.0000

> <Gold.PLP.ligand.torsion>
0.5788

> <Gold.PLP.Chemscore.Hbond>
1.4640

> <Gold.PLP.Chemscore.CHOScore>
0.0000

> <Gold.PLP.Chemscore.Metal>
0.0000

> <Gold.Chemscore.Hbonds>
donor molecule, donor type, donor heavy atom, donor atom, acceptor molecule, acceptor atom, score
      L1  H     3    19       P1  8029  0.98
      P1  H  6933  6944       L1     1  0.50

> <Gold.PLP.Chemscore.Internal.Correction>
0.0296

> <Gold.Rescore>
     Score         DG    S(hbond)    S(metal)    S(lipo)     H(rot)  DE(clash)    DE(int)     intcor
     18.07     -20.55       1.34        0.00     120.45       1.37       0.37       2.12       ----

> <Gold.Chemscore.Fitness>
18.0676

> <Gold.Chemscore.DG>
-20.5494

> <Gold.Chemscore.ZeroCoef>
-5.4800

> <Gold.Chemscore.Hbond>
1.3387

> <Gold.Chemscore.Metal>
0.0000

> <Gold.Chemscore.Lipo>
120.4549

> <Gold.Chemscore.Internal_Hbond>
0.0000

> <Gold.Chemscore.DEClash>
0.3665

> <Gold.Chemscore.DEInternal>
2.1153

> <Gold.Chemscore.Rot>
1.3653

> <Gold.Chemscore.Internal.Correction>
   9.000000E+99

> <Gold.Chemscore.Hbonds>
donor molecule, donor type, donor heavy atom, donor atom, acceptor molecule, acceptor atom, score
      L1  H     3    19       P1  8029  0.92
      P1  H  6933  6944       L1     1  0.47

> <Gold.Chemscore.Hbond.Weighted>
-4.4713

> <Gold.Chemscore.Metal.Weighted>
-0.0000

> <Gold.Chemscore.Lipo.Weighted>
-14.0932

> <Gold.Chemscore.Internal_Hbond.Weighted>
0.0000

> <Gold.Chemscore.DEClash.Weighted>
0.3665

> <Gold.Chemscore.DEInternal.Weighted>
2.1153

> <Gold.Chemscore.Rot.Weighted>
3.4951

> <Gold.Chemscore.Internal.Correction.Weighted>
   9.000000E+99

> <Gold.Protein.RotatedTorsions>
[ 6907 6896 6895 6894 ] final  -26.29 input  -60.11 | X-H torsion
[ 7974 7965 7964 7962 ] final  -79.41 input  175.53 | X-H torsion
[ 8008 7997 7996 7995 ] final  -68.66 input   59.86 | X-H torsion
[ 10167 10162 10161 10158 ] final -171.68 input  -65.29 | X-H torsion
[ 10718 10713 10712 10709 ] final  106.80 input   66.30 | X-H torsion
[ 10763 10752 10751 10750 ] final  173.46 input  -60.55 | X-H torsion
[ 11005 11000 10999 10996 ] final  126.30 input  -57.11 | X-H torsion

> <Gold.Protein.ActiveResidues>
 VAL166  LYS551  ARG553  GLY616  TRP617  ASP618  TYR619  PRO620  LYS621  CYS622 
 ASP623  PHE694  ASN695  SER759  ASP760  ASP761  ALA762  ILE779  LEU786  VAL792 
 PHE793  MET794  SER795  GLU796  ALA797  LYS798  CYS799  TRP800  GLU811  SER814 

> <Gold.Protein.RotatedAtoms>
  151.1630  135.0282  159.8718 H   0  0  0  0  0  0  0  0  0  0  0  0  # atno 6907 bound_to 6896
  152.5451  134.1257  159.8428 H   0  0  0  0  0  0  0  0  0  0  0  0  # atno 6908 bound_to 6896
  151.1354  133.4961  159.2630 H   0  0  0  0  0  0  0  0  0  0  0  0  # atno 6909 bound_to 6896
  145.5736  140.9461  143.1382 H   0  0  0  0  0  0  0  0  0  0  0  0  # atno 7974 bound_to 7965
  154.4884  140.0868  156.7538 H   0  0  0  0  0  0  0  0  0  0  0  0  # atno 8008 bound_to 7997
  155.4293  140.3449  155.4260 H   0  0  0  0  0  0  0  0  0  0  0  0  # atno 8009 bound_to 7997
  156.1294  140.1497  156.9076 H   0  0  0  0  0  0  0  0  0  0  0  0  # atno 8010 bound_to 7997
  139.5788  144.1470  152.1487 H   0  0  0  0  0  0  0  0  0  0  0  0  # atno 10167 bound_to 10162
  157.6654  131.0859  150.6061 H   0  0  0  0  0  0  0  0  0  0  0  0  # atno 10718 bound_to 10713
  154.4404  135.2762  155.1851 H   0  0  0  0  0  0  0  0  0  0  0  0  # atno 10763 bound_to 10752
  154.3720  135.6106  153.5749 H   0  0  0  0  0  0  0  0  0  0  0  0  # atno 10764 bound_to 10752
  152.9840  135.5859  154.4731 H   0  0  0  0  0  0  0  0  0  0  0  0  # atno 10765 bound_to 10752
  139.9449  134.9631  156.8686 H   0  0  0  0  0  0  0  0  0  0  0  0  # atno 11005 bound_to 11000
  144.7426  139.7406  143.7304 LP  0  0  0  0  0  0  0  0  0  0  0  0  # atno 17320 bound_to 7965
  146.1767  139.4940  142.9893 LP  0  0  0  0  0  0  0  0  0  0  0  0  # atno 17321 bound_to 7965
  140.1019  144.5532  150.6983 LP  0  0  0  0  0  0  0  0  0  0  0  0  # atno 17342 bound_to 10162
  140.7068  143.2474  151.4701 LP  0  0  0  0  0  0  0  0  0  0  0  0  # atno 17343 bound_to 10162
  156.6362  130.4445  149.5769 LP  0  0  0  0  0  0  0  0  0  0  0  0  # atno 17370 bound_to 10713
  156.2244  130.6757  151.1401 LP  0  0  0  0  0  0  0  0  0  0  0  0  # atno 17371 bound_to 10713
  140.5859  134.0307  155.7481 LP  0  0  0  0  0  0  0  0  0  0  0  0  # atno 17394 bound_to 11000
  141.1096  133.9638  157.2934 LP  0  0  0  0  0  0  0  0  0  0  0  0  # atno 17395 bound_to 11000

$$$$
