AV-unprocessed.smi:686|AV-procd|sdf|3341|dock6
  -GOLD-   22720 0313D 1   1.00000     0.00000
 Structure written by MMmdl.
 41 42  0  0  0  0  0  0  0  0  2 V2000
  150.0221  132.6684  154.8463 C   0  0  0  0  0  0  0  0  0  0  0  0
  148.6308  133.2341  154.5185 C   0  0  2  0  0  0  0  0  0  0  0  0
  148.2147  133.1193  153.0499 C   0  0  0  0  0  0  0  0  0  0  0  0
  147.1813  134.1618  152.8274 N   0  3  1  0  0  0  0  0  0  0  0  0
  145.8482  133.6955  152.3524 C   0  0  0  0  0  0  0  0  0  0  0  0
  145.9213  132.5825  151.2852 C   0  0  0  0  0  0  0  0  0  0  0  0
  144.9960  134.8814  151.8732 C   0  0  0  0  0  0  0  0  0  0  0  0
  147.1524  135.0549  154.0135 C   0  0  0  0  0  0  0  0  0  0  0  0
  148.3933  134.7134  154.8456 C   0  0  2  0  0  0  0  0  0  0  0  0
  149.5239  135.5581  154.4400 N   0  0  0  0  0  0  0  0  0  0  0  0
  150.2502  136.6704  155.5422 S   0  0  0  0  0  0  0  0  0  0  0  0
  149.1749  137.2085  156.3890 O   0  0  0  0  0  0  0  0  0  0  0  0
  151.4002  135.9811  156.1473 O   0  0  0  0  0  0  0  0  0  0  0  0
  150.8527  138.0177  154.4250 C   0  0  0  0  0  0  0  0  0  0  0  0
  150.4351  139.3632  154.9459 C   0  0  0  0  0  0  0  0  0  0  0  0
  149.5061  140.2801  154.3803 C   0  0  0  0  0  0  0  0  0  0  0  0
  149.5115  141.3221  155.2624 C   0  0  0  0  0  0  0  0  0  0  0  0
  150.3661  141.0736  156.2866 O   0  0  0  0  0  0  0  0  0  0  0  0
  150.9495  139.8191  156.0768 N   0  0  0  0  0  0  0  0  0  0  0  0
  150.8090  133.1679  154.2804 H   0  0  0  0  0  0  0  0  0  0  0  0
  150.0733  131.6054  154.6105 H   0  0  0  0  0  0  0  0  0  0  0  0
  150.2492  132.7812  155.9064 H   0  0  0  0  0  0  0  0  0  0  0  0
  147.9054  132.6633  155.1008 H   0  0  0  0  0  0  0  0  0  0  0  0
  149.0605  133.3576  152.4037 H   0  0  0  0  0  0  0  0  0  0  0  0
  147.8964  132.1097  152.7918 H   0  0  0  0  0  0  0  0  0  0  0  0
  145.3394  133.2805  153.2241 H   0  0  0  0  0  0  0  0  0  0  0  0
  144.9218  132.2160  151.0491 H   0  0  0  0  0  0  0  0  0  0  0  0
  146.5020  131.7242  151.6212 H   0  0  0  0  0  0  0  0  0  0  0  0
  146.3587  132.9321  150.3504 H   0  0  0  0  0  0  0  0  0  0  0  0
  143.9885  134.5570  151.6111 H   0  0  0  0  0  0  0  0  0  0  0  0
  145.4252  135.3590  150.9920 H   0  0  0  0  0  0  0  0  0  0  0  0
  144.9029  135.6396  152.6515 H   0  0  0  0  0  0  0  0  0  0  0  0
  147.1147  136.1033  153.7148 H   0  0  0  0  0  0  0  0  0  0  0  0
  146.2631  134.8661  154.6145 H   0  0  0  0  0  0  0  0  0  0  0  0
  148.2037  134.8572  155.9101 H   0  0  0  0  0  0  0  0  0  0  0  0
  149.5373  135.8552  153.4645 H   0  0  0  0  0  0  0  0  0  0  0  0
  151.9373  137.9556  154.3460 H   0  0  0  0  0  0  0  0  0  0  0  0
  150.4472  137.8385  153.4285 H   0  0  0  0  0  0  0  0  0  0  0  0
  148.9294  140.1901  153.4720 H   0  0  0  0  0  0  0  0  0  0  0  0
  148.9873  142.2656  155.3001 H   0  0  0  0  0  0  0  0  0  0  0  0
  147.5458  134.7319  152.0775 H   0  0  0  0  0  0  0  0  0  0  0  0
  1  2  1  0  0  0  0
  1 20  1  0  0  0  0
  1 21  1  0  0  0  0
  1 22  1  0  0  0  0
  2  9  1  0  0  0  0
  2  3  1  0  0  0  0
  2 23  1  0  0  0  0
  3  4  1  0  0  0  0
  3 24  1  0  0  0  0
  3 25  1  0  0  0  0
  4  5  1  0  0  0  0
  4  8  1  0  0  0  0
  4 41  1  0  0  0  0
  5  6  1  0  0  0  0
  5  7  1  0  0  0  0
  5 26  1  0  0  0  0
  6 27  1  0  0  0  0
  6 28  1  0  0  0  0
  6 29  1  0  0  0  0
  7 30  1  0  0  0  0
  7 31  1  0  0  0  0
  7 32  1  0  0  0  0
  8  9  1  0  0  0  0
  8 33  1  0  0  0  0
  8 34  1  0  0  0  0
  9 10  1  0  0  0  0
  9 35  1  0  0  0  0
 10 11  1  0  0  0  0
 10 36  1  0  0  0  0
 11 12  2  0  0  0  0
 11 13  2  0  0  0  0
 11 14  1  0  0  0  0
 14 15  1  0  0  0  0
 14 37  1  0  0  0  0
 14 38  1  0  0  0  0
 15 19  2  0  0  0  0
 15 16  1  0  0  0  0
 16 17  2  0  0  0  0
 16 39  1  0  0  0  0
 17 18  1  0  0  0  0
 17 40  1  0  0  0  0
 18 19  1  0  0  0  0
M  CHG  1   4   1
M  END
> <s_m_source_file>
AV-unprocessed.smi

> <i_m_source_file_index>
686

> <i_lp_mmshare_version>
43012

> <i_f3d_flags>
0

> <s_epik_input>
W0NIM11bQ0BASF0xW0NIMl1OKFtDSF0oW0NIM10pW0NIM10pW0NIMl1bQ0BIXTFbTkhdUyg9TykoPU8pW0NIMl1jMltjSF1bY0hdb24y

> <s_epik_cmdline>
J2VwaWtfcHl0aG9uJywgJy1waCcsICc3LjAnLCAnLXRuJywgJzgnLCAnLW1hJywgJzIwMCcsICctbWV0YWxfYmluZGluZycsICctaW1hZScsICc8aW5maWxlLm1hZT4nLCAnLW9tYWUnLCAnPG91dGZpbGUubWFlPic=

> <r_epik_Ionization_Penalty>
0.00200818

> <r_epik_Ionization_Penalty_Charging>
0.000701289

> <r_epik_Ionization_Penalty_Neutral>
0.00130689

> <r_epik_State_Penalty>
0.00131314

> <r_epik_Charging_Adjusted_Penalty>
0.00201443

> <i_epik_Tot_Q>
1

> <i_epik_Tot_abs_Q>
1

> <r_epik_Metal_State_Penalty>
0.310831

> <b_epik_Metal_Only>
0

> <s_lp_Force_Field>
OPLS_2005

> <r_lp_Energy>
24.0056

> <b_lp_Chiralities_Consistent>
1

> <s_lp_Variant>
AV-unprocessed.smi:686-5

> <Gold.Version>
5.8.1

> <Gold.Id.Protein>
6NUR|6NUR_protein|mol2

> <Gold.PLP.Fitness>
42.2635

> <Gold.PLP.PLP>
-29.6384

> <Gold.PLP.part.hbond>
-3.0000

> <Gold.PLP.part.metal>
0.0000

> <Gold.PLP.part.buried>
-1.9166

> <Gold.PLP.part.nonpolar>
-24.9405

> <Gold.PLP.part.repulsive>
0.1241

> <Gold.PLP.ligand.clash>
0.0000

> <Gold.PLP.ligand.torsion>
1.0364

> <Gold.PLP.Chemscore.Hbond>
3.5040

> <Gold.PLP.Chemscore.CHOScore>
1.0000

> <Gold.PLP.Chemscore.Metal>
0.0000

> <Gold.Chemscore.Hbonds>
donor molecule, donor type, donor heavy atom, donor atom, acceptor molecule, acceptor atom, score
      L1  H     4    41       P1  7948  1.54
      L1  H    10    36       P1  7948  1.00
      P1  H 10752 10764       L1    13  0.80
      L1  C    17    40       P1  8028  1.00

> <Gold.PLP.Chemscore.Internal.Correction>
1.1859

> <Gold.Rescore>
     Score         DG    S(hbond)    S(metal)    S(lipo)     H(rot)  DE(clash)    DE(int)     intcor
     15.43     -16.61       2.35        0.00      64.32       1.66       0.11       1.07       ----

> <Gold.Chemscore.Fitness>
15.4290

> <Gold.Chemscore.DG>
-16.6087

> <Gold.Chemscore.ZeroCoef>
-5.4800

> <Gold.Chemscore.Hbond>
2.3488

> <Gold.Chemscore.Metal>
0.0000

> <Gold.Chemscore.Lipo>
64.3163

> <Gold.Chemscore.Internal_Hbond>
0.0000

> <Gold.Chemscore.DEClash>
0.1069

> <Gold.Chemscore.DEInternal>
1.0728

> <Gold.Chemscore.Rot>
1.6567

> <Gold.Chemscore.Internal.Correction>
   9.000000E+99

> <Gold.Chemscore.Hbonds>
donor molecule, donor type, donor heavy atom, donor atom, acceptor molecule, acceptor atom, score
      L1  H     4    41       P1  7948  0.53
      L1  H    10    36       P1  7948  0.26
      P1  H 10752 10764       L1    13  0.78

> <Gold.Chemscore.Hbond.Weighted>
-7.8449

> <Gold.Chemscore.Metal.Weighted>
-0.0000

> <Gold.Chemscore.Lipo.Weighted>
-7.5250

> <Gold.Chemscore.Internal_Hbond.Weighted>
0.0000

> <Gold.Chemscore.DEClash.Weighted>
0.1069

> <Gold.Chemscore.DEInternal.Weighted>
1.0728

> <Gold.Chemscore.Rot.Weighted>
4.2413

> <Gold.Chemscore.Internal.Correction.Weighted>
   9.000000E+99

> <Gold.Protein.RotatedTorsions>
[ 6907 6896 6895 6894 ] final   25.71 input  -60.11 | X-H torsion
[ 7974 7965 7964 7962 ] final  -38.20 input  175.53 | X-H torsion
[ 8008 7997 7996 7995 ] final  113.81 input   59.86 | X-H torsion
[ 10167 10162 10161 10158 ] final -141.59 input  -65.29 | X-H torsion
[ 10718 10713 10712 10709 ] final -163.22 input   66.30 | X-H torsion
[ 10763 10752 10751 10750 ] final  -30.43 input  -60.55 | X-H torsion
[ 11005 11000 10999 10996 ] final   97.00 input  -57.11 | X-H torsion

> <Gold.Protein.ActiveResidues>
 VAL166  LYS551  ARG553  GLY616  TRP617  ASP618  TYR619  PRO620  LYS621  CYS622 
 ASP623  PHE694  ASN695  SER759  ASP760  ASP761  ALA762  ILE779  LEU786  VAL792 
 PHE793  MET794  SER795  GLU796  ALA797  LYS798  CYS799  TRP800  GLU811  SER814 

> <Gold.Protein.RotatedAtoms>
  151.9766  135.0050  160.0555 H   0  0  0  0  0  0  0  0  0  0  0  0  # atno 6907 bound_to 6896
  152.1734  133.4654  159.4929 H   0  0  0  0  0  0  0  0  0  0  0  0  # atno 6908 bound_to 6896
  150.6905  134.1842  159.4303 H   0  0  0  0  0  0  0  0  0  0  0  0  # atno 6909 bound_to 6896
  146.0507  140.6485  142.9043 H   0  0  0  0  0  0  0  0  0  0  0  0  # atno 7974 bound_to 7965
  156.2282  140.2972  156.0120 H   0  0  0  0  0  0  0  0  0  0  0  0  # atno 8008 bound_to 7997
  155.2299  140.0418  157.2978 H   0  0  0  0  0  0  0  0  0  0  0  0  # atno 8009 bound_to 7997
  154.5950  140.2412  155.7876 H   0  0  0  0  0  0  0  0  0  0  0  0  # atno 8010 bound_to 7997
  139.8170  143.7625  152.2665 H   0  0  0  0  0  0  0  0  0  0  0  0  # atno 10167 bound_to 10162
  156.6216  130.8893  151.2959 H   0  0  0  0  0  0  0  0  0  0  0  0  # atno 10718 bound_to 10713
  153.7809  135.6905  153.4888 H   0  0  0  0  0  0  0  0  0  0  0  0  # atno 10763 bound_to 10752
  153.1812  135.4505  155.0029 H   0  0  0  0  0  0  0  0  0  0  0  0  # atno 10764 bound_to 10752
  154.8082  135.3366  154.7312 H   0  0  0  0  0  0  0  0  0  0  0  0  # atno 10765 bound_to 10752
  139.8778  134.8979  156.4242 H   0  0  0  0  0  0  0  0  0  0  0  0  # atno 11005 bound_to 11000
  144.7121  140.4077  143.7072 LP  0  0  0  0  0  0  0  0  0  0  0  0  # atno 17320 bound_to 7965
  145.6729  139.1603  143.2744 LP  0  0  0  0  0  0  0  0  0  0  0  0  # atno 17321 bound_to 7965
  139.7792  144.7450  151.0113 LP  0  0  0  0  0  0  0  0  0  0  0  0  # atno 17342 bound_to 10162
  140.7815  143.4561  151.0344 LP  0  0  0  0  0  0  0  0  0  0  0  0  # atno 17343 bound_to 10162
  157.7226  130.9579  150.1500 LP  0  0  0  0  0  0  0  0  0  0  0  0  # atno 17370 bound_to 10713
  156.2307  130.3682  149.8448 LP  0  0  0  0  0  0  0  0  0  0  0  0  # atno 17371 bound_to 10713
  140.9112  133.7710  155.9794 LP  0  0  0  0  0  0  0  0  0  0  0  0  # atno 17394 bound_to 11000
  140.8544  134.2915  157.5261 LP  0  0  0  0  0  0  0  0  0  0  0  0  # atno 17395 bound_to 11000

$$$$
