AV-unprocessed.smi:1525|AV-procd|sdf|6143|dock7
  -GOLD-   22720 6293D 1   1.00000     0.00000
 Structure written by MMmdl.
 49 51  0  0  0  0  0  0  0  0  2 V2000
  150.3317  134.3263  155.6275 O   0  0  0  0  0  0  0  0  0  0  0  0
  149.7090  134.8613  154.7103 C   0  0  0  0  0  0  0  0  0  0  0  0
  149.7142  136.1818  154.4812 N   0  0  0  0  0  0  0  0  0  0  0  0
  150.4334  137.1651  155.2818 C   0  0  0  0  0  0  0  0  0  0  0  0
  151.1687  138.1787  154.3853 C   0  0  0  0  0  0  0  0  0  0  0  0
  150.8732  139.5814  154.6693 N   0  0  0  0  0  0  0  0  0  0  0  0
  149.4406  139.8417  154.5715 C   0  0  0  0  0  0  0  0  0  0  0  0
  149.0994  141.3120  154.8692 C   0  0  0  0  0  0  0  0  0  0  0  0
  149.5856  141.6606  156.1610 O   0  0  0  0  0  0  0  0  0  0  0  0
  150.9902  141.4658  156.2883 C   0  0  0  0  0  0  0  0  0  0  0  0
  151.3400  139.9968  155.9907 C   0  0  0  0  0  0  0  0  0  0  0  0
  148.9243  134.2165  153.8309 N   0  0  0  0  0  0  0  0  0  0  0  0
  148.6523  132.8204  153.7597 C   0  0  0  0  0  0  0  0  0  0  0  0
  149.5334  131.8556  154.3117 C   0  0  0  0  0  0  0  0  0  0  0  0
  149.2248  130.4855  154.2094 C   0  0  0  0  0  0  0  0  0  0  0  0
  148.0452  130.0993  153.5487 C   0  0  0  0  0  0  0  0  0  0  0  0
  147.2364  131.0406  153.0195 N   0  3  0  0  0  0  0  0  0  0  0  0
  147.4813  132.3727  153.0885 C   0  0  0  0  0  0  0  0  0  0  0  0
  146.5764  133.2651  152.4750 N   0  0  0  0  0  0  0  0  0  0  0  0
  146.4742  133.1063  151.0264 C   0  0  0  0  0  0  0  0  0  0  0  0
  145.0008  133.3138  150.6669 C   0  0  0  0  0  0  0  0  0  0  0  0
  144.2718  132.9363  151.9505 C   0  0  0  0  0  0  0  0  0  0  0  0
  145.2335  133.4276  153.0300 C   0  0  0  0  0  0  0  0  0  0  0  0
  149.1737  136.5366  153.7062 H   0  0  0  0  0  0  0  0  0  0  0  0
  149.7373  137.6612  155.9592 H   0  0  0  0  0  0  0  0  0  0  0  0
  151.1510  136.6332  155.9068 H   0  0  0  0  0  0  0  0  0  0  0  0
  152.2397  138.0151  154.5130 H   0  0  0  0  0  0  0  0  0  0  0  0
  150.9571  137.9654  153.3362 H   0  0  0  0  0  0  0  0  0  0  0  0
  149.0850  139.5859  153.5727 H   0  0  0  0  0  0  0  0  0  0  0  0
  148.8999  139.1995  155.2687 H   0  0  0  0  0  0  0  0  0  0  0  0
  149.5364  141.9708  154.1173 H   0  0  0  0  0  0  0  0  0  0  0  0
  148.0205  141.4646  154.8413 H   0  0  0  0  0  0  0  0  0  0  0  0
  151.5195  142.1339  155.6072 H   0  0  0  0  0  0  0  0  0  0  0  0
  151.2970  141.7312  157.2999 H   0  0  0  0  0  0  0  0  0  0  0  0
  150.8975  139.3584  156.7571 H   0  0  0  0  0  0  0  0  0  0  0  0
  152.4199  139.8758  156.0675 H   0  0  0  0  0  0  0  0  0  0  0  0
  148.3927  134.7980  153.2001 H   0  0  0  0  0  0  0  0  0  0  0  0
  150.4503  132.1443  154.8026 H   0  0  0  0  0  0  0  0  0  0  0  0
  149.8872  129.7418  154.6281 H   0  0  0  0  0  0  0  0  0  0  0  0
  147.7302  129.0739  153.4198 H   0  0  0  0  0  0  0  0  0  0  0  0
  147.1108  133.8227  150.5068 H   0  0  0  0  0  0  0  0  0  0  0  0
  146.7904  132.1036  150.7335 H   0  0  0  0  0  0  0  0  0  0  0  0
  144.8198  134.3648  150.4371 H   0  0  0  0  0  0  0  0  0  0  0  0
  144.6869  132.7219  149.8067 H   0  0  0  0  0  0  0  0  0  0  0  0
  143.2805  133.3841  152.0283 H   0  0  0  0  0  0  0  0  0  0  0  0
  144.1621  131.8528  152.0121 H   0  0  0  0  0  0  0  0  0  0  0  0
  145.0688  132.9204  153.9806 H   0  0  0  0  0  0  0  0  0  0  0  0
  145.0762  134.4914  153.2102 H   0  0  0  0  0  0  0  0  0  0  0  0
  146.3939  130.7306  152.5351 H   0  0  0  0  0  0  0  0  0  0  0  0
  1  2  2  0  0  0  0
  2  3  1  0  0  0  0
  2 12  1  0  0  0  0
  3  4  1  0  0  0  0
  3 24  1  0  0  0  0
  4  5  1  0  0  0  0
  4 25  1  0  0  0  0
  4 26  1  0  0  0  0
  5  6  1  0  0  0  0
  5 27  1  0  0  0  0
  5 28  1  0  0  0  0
  6 11  1  0  0  0  0
  6  7  1  0  0  0  0
  7  8  1  0  0  0  0
  7 29  1  0  0  0  0
  7 30  1  0  0  0  0
  8  9  1  0  0  0  0
  8 31  1  0  0  0  0
  8 32  1  0  0  0  0
  9 10  1  0  0  0  0
 10 11  1  0  0  0  0
 10 33  1  0  0  0  0
 10 34  1  0  0  0  0
 11 35  1  0  0  0  0
 11 36  1  0  0  0  0
 12 13  1  0  0  0  0
 12 37  1  0  0  0  0
 13 18  1  0  0  0  0
 13 14  2  0  0  0  0
 14 15  1  0  0  0  0
 14 38  1  0  0  0  0
 15 16  2  0  0  0  0
 15 39  1  0  0  0  0
 16 17  1  0  0  0  0
 16 40  1  0  0  0  0
 17 18  2  0  0  0  0
 17 49  1  0  0  0  0
 18 19  1  0  0  0  0
 19 23  1  0  0  0  0
 19 20  1  0  0  0  0
 20 21  1  0  0  0  0
 20 41  1  0  0  0  0
 20 42  1  0  0  0  0
 21 22  1  0  0  0  0
 21 43  1  0  0  0  0
 21 44  1  0  0  0  0
 22 23  1  0  0  0  0
 22 45  1  0  0  0  0
 22 46  1  0  0  0  0
 23 47  1  0  0  0  0
 23 48  1  0  0  0  0
M  CHG  1  17   1
M  END
> <s_m_source_file>
AV-unprocessed.smi

> <i_m_source_file_index>
1525

> <i_lp_mmshare_version>
43012

> <i_f3d_flags>
0

> <s_epik_input>
W0NIMl0xW0NIMl1PW0NIMl1bQ0gyXU4xW0NIMl1bQ0gyXVtOSF1DKD1PKVtOSF1jMltjSF1bY0hdW2NIXW5jMk4zW0NIMl1bQ0gyXVtDSDJdW0NIMl0z

> <s_epik_cmdline>
J2VwaWtfcHl0aG9uJywgJy1waCcsICc3LjAnLCAnLXRuJywgJzgnLCAnLW1hJywgJzIwMCcsICctbWV0YWxfYmluZGluZycsICctaW1hZScsICc8aW5maWxlLm1hZT4nLCAnLW9tYWUnLCAnPG91dGZpbGUubWFlPic=

> <r_epik_Ionization_Penalty>
1.38385

> <r_epik_Ionization_Penalty_Charging>
1.11784

> <r_epik_Ionization_Penalty_Neutral>
0.26601

> <r_epik_State_Penalty>
1.46794

> <r_epik_Charging_Adjusted_Penalty>
2.58578

> <i_epik_Tot_Q>
1

> <i_epik_Tot_abs_Q>
1

> <r_epik_Metal_State_Penalty>
1.54909

> <b_epik_Metal_Only>
0

> <s_lp_Force_Field>
OPLS_2005

> <r_lp_Energy>
56.1891

> <b_lp_Chiralities_Consistent>
1

> <s_lp_Variant>
AV-unprocessed.smi:1525-3

> <Gold.Version>
5.8.1

> <Gold.Id.Protein>
6NUR|6NUR_protein|mol2

> <Gold.PLP.Fitness>
48.9066

> <Gold.PLP.PLP>
-42.3962

> <Gold.PLP.part.hbond>
-3.7747

> <Gold.PLP.part.metal>
0.0000

> <Gold.PLP.part.buried>
-5.1246

> <Gold.PLP.part.nonpolar>
-34.0776

> <Gold.PLP.part.repulsive>
0.5168

> <Gold.PLP.ligand.clash>
0.0000

> <Gold.PLP.ligand.torsion>
0.6538

> <Gold.PLP.Chemscore.Hbond>
2.5520

> <Gold.PLP.Chemscore.CHOScore>
0.0000

> <Gold.PLP.Chemscore.Metal>
0.0000

> <Gold.Chemscore.Hbonds>
donor molecule, donor type, donor heavy atom, donor atom, acceptor molecule, acceptor atom, score
      L1  H     3    24       P1  7948  0.77
      L1  H    12    37       P1  7948  0.62
      P1  H  7989  7998       L1     6  1.00

> <Gold.PLP.Chemscore.Internal.Correction>
0.1620

> <Gold.Rescore>
     Score         DG    S(hbond)    S(metal)    S(lipo)     H(rot)  DE(clash)    DE(int)     intcor
     14.45     -16.41       1.59        0.00      83.81       1.63       0.01       1.96       ----

> <Gold.Chemscore.Fitness>
14.4475

> <Gold.Chemscore.DG>
-16.4112

> <Gold.Chemscore.ZeroCoef>
-5.4800

> <Gold.Chemscore.Hbond>
1.5880

> <Gold.Chemscore.Metal>
0.0000

> <Gold.Chemscore.Lipo>
83.8107

> <Gold.Chemscore.Internal_Hbond>
0.0000

> <Gold.Chemscore.DEClash>
0.0074

> <Gold.Chemscore.DEInternal>
1.9563

> <Gold.Chemscore.Rot>
1.6323

> <Gold.Chemscore.Internal.Correction>
   9.000000E+99

> <Gold.Chemscore.Hbonds>
donor molecule, donor type, donor heavy atom, donor atom, acceptor molecule, acceptor atom, score
      L1  H     3    24       P1  7948  0.74
      L1  H    12    37       P1  7948  0.41
      P1  H  7989  7998       L1     6  0.16

> <Gold.Chemscore.Hbond.Weighted>
-5.3039

> <Gold.Chemscore.Metal.Weighted>
-0.0000

> <Gold.Chemscore.Lipo.Weighted>
-9.8058

> <Gold.Chemscore.Internal_Hbond.Weighted>
0.0000

> <Gold.Chemscore.DEClash.Weighted>
0.0074

> <Gold.Chemscore.DEInternal.Weighted>
1.9563

> <Gold.Chemscore.Rot.Weighted>
4.1786

> <Gold.Chemscore.Internal.Correction.Weighted>
   9.000000E+99

> <Gold.Protein.RotatedTorsions>
[ 6907 6896 6895 6894 ] final -155.67 input  -60.11 | X-H torsion
[ 7974 7965 7964 7962 ] final   55.22 input  175.53 | X-H torsion
[ 8008 7997 7996 7995 ] final  -29.81 input   59.86 | X-H torsion
[ 10167 10162 10161 10158 ] final   70.71 input  -65.29 | X-H torsion
[ 10718 10713 10712 10709 ] final  176.05 input   66.30 | X-H torsion
[ 10763 10752 10751 10750 ] final  172.22 input  -60.55 | X-H torsion
[ 11005 11000 10999 10996 ] final   82.27 input  -57.11 | X-H torsion

> <Gold.Protein.ActiveResidues>
 VAL166  LYS551  ARG553  GLY616  TRP617  ASP618  TYR619  PRO620  LYS621  CYS622 
 ASP623  PHE694  ASN695  SER759  ASP760  ASP761  ALA762  ILE779  LEU786  VAL792 
 PHE793  MET794  SER795  GLU796  ALA797  LYS798  CYS799  TRP800  GLU811  SER814 

> <Gold.Protein.RotatedAtoms>
  151.2761  133.4232  159.2623 H   0  0  0  0  0  0  0  0  0  0  0  0  # atno 6907 bound_to 6896
  151.0402  134.9602  159.8168 H   0  0  0  0  0  0  0  0  0  0  0  0  # atno 6908 bound_to 6896
  152.5363  134.2719  159.9027 H   0  0  0  0  0  0  0  0  0  0  0  0  # atno 6909 bound_to 6896
  145.9526  139.3986  143.0296 H   0  0  0  0  0  0  0  0  0  0  0  0  # atno 7974 bound_to 7965
  154.4275  140.1808  156.1308 H   0  0  0  0  0  0  0  0  0  0  0  0  # atno 8008 bound_to 7997
  156.0069  140.3354  155.6876 H   0  0  0  0  0  0  0  0  0  0  0  0  # atno 8009 bound_to 7997
  155.6165  140.0655  157.2681 H   0  0  0  0  0  0  0  0  0  0  0  0  # atno 8010 bound_to 7997
  140.0540  144.5288  150.7342 H   0  0  0  0  0  0  0  0  0  0  0  0  # atno 10167 bound_to 10162
  156.9259  130.9955  151.2996 H   0  0  0  0  0  0  0  0  0  0  0  0  # atno 10718 bound_to 10713
  154.4230  135.2758  155.1963 H   0  0  0  0  0  0  0  0  0  0  0  0  # atno 10763 bound_to 10752
  154.3901  135.6068  153.5842 H   0  0  0  0  0  0  0  0  0  0  0  0  # atno 10764 bound_to 10752
  152.9833  135.5901  154.4529 H   0  0  0  0  0  0  0  0  0  0  0  0  # atno 10765 bound_to 10752
  139.9069  134.8059  156.2152 H   0  0  0  0  0  0  0  0  0  0  0  0  # atno 11005 bound_to 11000
  145.8150  140.9707  143.0929 LP  0  0  0  0  0  0  0  0  0  0  0  0  # atno 17320 bound_to 7965
  144.6799  139.9969  143.7484 LP  0  0  0  0  0  0  0  0  0  0  0  0  # atno 17321 bound_to 7965
  140.7203  143.2583  151.4300 LP  0  0  0  0  0  0  0  0  0  0  0  0  # atno 17342 bound_to 10162
  139.5935  144.1448  152.2116 LP  0  0  0  0  0  0  0  0  0  0  0  0  # atno 17343 bound_to 10162
  157.5878  130.8422  149.8615 LP  0  0  0  0  0  0  0  0  0  0  0  0  # atno 17370 bound_to 10713
  156.0469  130.3726  150.1295 LP  0  0  0  0  0  0  0  0  0  0  0  0  # atno 17371 bound_to 10713
  141.0440  133.6923  156.1650 LP  0  0  0  0  0  0  0  0  0  0  0  0  # atno 17394 bound_to 11000
  140.6912  134.4664  157.5588 LP  0  0  0  0  0  0  0  0  0  0  0  0  # atno 17395 bound_to 11000

$$$$
