AV-unprocessed.smi:377|AV-procd|sdf|2456|dock3
  -GOLD-   2262022393D 1   1.00000     0.00000
 Structure written by MMmdl.
 33 34  0  0  0  0  0  0  0  0  1 V2000
  157.9139  140.8753  158.8866 C   0  0  0  0  0  0  0  0  0  0  0  0
  157.4897  140.1660  160.1793 C   0  0  0  0  0  0  0  0  0  0  0  0
  156.0920  140.4289  160.5006 N   0  0  0  0  0  0  0  0  0  0  0  0
  155.0410  139.9947  159.7890 C   0  0  0  0  0  0  0  0  0  0  0  0
  155.1537  139.3168  158.7661 O   0  0  0  0  0  0  0  0  0  0  0  0
  153.6589  140.3935  160.3298 C   0  0  0  0  0  0  0  0  0  0  0  0
  152.8468  141.1695  159.3668 N   0  0  0  0  0  0  0  0  0  0  0  0
  152.3575  140.5152  158.2073 C   0  0  0  0  0  0  0  0  0  0  0  0
  152.5769  139.3182  158.0134 O   0  0  0  0  0  0  0  0  0  0  0  0
  151.6069  141.3577  157.2791 C   0  0  0  0  0  0  0  0  0  0  0  0
  151.1258  140.7438  156.0862 C   0  0  0  0  0  0  0  0  0  0  0  0
  150.7590  140.2412  155.1102 N   0  0  0  0  0  0  0  0  0  0  0  0
  151.3886  142.6619  157.5455 C   0  0  0  0  0  0  0  0  0  0  0  0
  151.8389  143.2687  158.6977 N   0  0  0  0  0  0  0  0  0  0  0  0
  151.7351  144.6879  158.8887 C   0  0  0  0  0  0  0  0  0  0  0  0
  151.4466  145.2506  160.2669 C   0  0  0  0  0  0  0  0  0  0  0  0
  150.3824  145.2922  159.1978 C   0  0  0  0  0  0  0  0  0  0  0  0
  152.6289  142.5460  159.6180 C   0  0  0  0  0  0  0  0  0  0  0  0
  153.1237  143.0972  160.6047 O   0  0  0  0  0  0  0  0  0  0  0  0
  158.9489  140.6397  158.6382 H   0  0  0  0  0  0  0  0  0  0  0  0
  157.8352  141.9588  158.9829 H   0  0  0  0  0  0  0  0  0  0  0  0
  157.2918  140.5671  158.0458 H   0  0  0  0  0  0  0  0  0  0  0  0
  157.6146  139.0891  160.0650 H   0  0  0  0  0  0  0  0  0  0  0  0
  158.1329  140.4665  161.0077 H   0  0  0  0  0  0  0  0  0  0  0  0
  155.9102  140.9808  161.3263 H   0  0  0  0  0  0  0  0  0  0  0  0
  153.1355  139.4878  160.6401 H   0  0  0  0  0  0  0  0  0  0  0  0
  153.7978  140.9486  161.2590 H   0  0  0  0  0  0  0  0  0  0  0  0
  150.8348  143.2552  156.8320 H   0  0  0  0  0  0  0  0  0  0  0  0
  152.3903  145.2893  158.2608 H   0  0  0  0  0  0  0  0  0  0  0  0
  151.2979  144.5519  161.0880 H   0  0  0  0  0  0  0  0  0  0  0  0
  151.9285  146.1884  160.5352 H   0  0  0  0  0  0  0  0  0  0  0  0
  150.1522  146.2595  158.7560 H   0  0  0  0  0  0  0  0  0  0  0  0
  149.5342  144.6202  159.3139 H   0  0  0  0  0  0  0  0  0  0  0  0
  1  2  1  0  0  0  0
  1 20  1  0  0  0  0
  1 21  1  0  0  0  0
  1 22  1  0  0  0  0
  2  3  1  0  0  0  0
  2 23  1  0  0  0  0
  2 24  1  0  0  0  0
  3  4  1  0  0  0  0
  3 25  1  0  0  0  0
  4  5  2  0  0  0  0
  4  6  1  0  0  0  0
  6  7  1  0  0  0  0
  6 26  1  0  0  0  0
  6 27  1  0  0  0  0
  7 18  1  0  0  0  0
  7  8  1  0  0  0  0
  8  9  2  0  0  0  0
  8 10  1  0  0  0  0
 10 11  1  0  0  0  0
 10 13  2  0  0  0  0
 11 12  3  0  0  0  0
 13 14  1  0  0  0  0
 13 28  1  0  0  0  0
 14 15  1  0  0  0  0
 14 18  1  0  0  0  0
 15 17  1  0  0  0  0
 15 16  1  0  0  0  0
 15 29  1  0  0  0  0
 16 17  1  0  0  0  0
 16 30  1  0  0  0  0
 16 31  1  0  0  0  0
 17 32  1  0  0  0  0
 17 33  1  0  0  0  0
 18 19  2  0  0  0  0
M  END
> <s_m_source_file>
AV-unprocessed.smi

> <i_m_source_file_index>
377

> <i_lp_mmshare_version>
43012

> <i_f3d_flags>
0

> <s_epik_input>
W0NIM11bQ0gyXVtOSF1DKD1PKVtDSDJdbjFjKD1PKWMoQyNOKVtjSF1uKGMxPU8pW0NIXTJbQ0gyXVtDSDJdMg==

> <s_epik_cmdline>
J2VwaWtfcHl0aG9uJywgJy1waCcsICc3LjAnLCAnLXRuJywgJzgnLCAnLW1hJywgJzIwMCcsICctbWV0YWxfYmluZGluZycsICctaW1hZScsICc8aW5maWxlLm1hZT4nLCAnLW9tYWUnLCAnPG91dGZpbGUubWFlPic=

> <r_lp_tautomer_probability>
1

> <r_epik_Ionization_Penalty>
1.81858e-08

> <r_epik_Ionization_Penalty_Charging>
8.22213e-11

> <r_epik_Ionization_Penalty_Neutral>
1.81036e-08

> <r_epik_State_Penalty>
-0

> <r_epik_Charging_Adjusted_Penalty>
8.22213e-11

> <i_epik_Tot_Q>
0

> <i_epik_Tot_abs_Q>
0

> <r_epik_Metal_State_Penalty>
-0

> <b_epik_Metal_Only>
0

> <s_lp_Force_Field>
OPLS_2005

> <r_lp_Energy>
28.0616

> <b_lp_Chiralities_Consistent>
1

> <s_lp_Variant>
AV-unprocessed.smi:377-1

> <Gold.Version>
5.8.1

> <Gold.Id.Protein>
6NUR|6NUR_protein|mol2

> <Gold.PLP.Fitness>
47.7526

> <Gold.PLP.PLP>
-40.5494

> <Gold.PLP.part.hbond>
-2.7488

> <Gold.PLP.part.metal>
0.0000

> <Gold.PLP.part.buried>
-5.5567

> <Gold.PLP.part.nonpolar>
-33.2975

> <Gold.PLP.part.repulsive>
0.1007

> <Gold.PLP.ligand.clash>
0.0000

> <Gold.PLP.ligand.torsion>
0.4648

> <Gold.PLP.Chemscore.Hbond>
2.0000

> <Gold.PLP.Chemscore.CHOScore>
0.6407

> <Gold.PLP.Chemscore.Metal>
0.0000

> <Gold.Chemscore.Hbonds>
donor molecule, donor type, donor heavy atom, donor atom, acceptor molecule, acceptor atom, score
      P1  H  7989  7998       L1    12  1.00
      P1  H  7997  8010       L1     5  1.00
      L1  C    13    28       P1  8028  0.59

> <Gold.PLP.Chemscore.Internal.Correction>
0.2107

> <Gold.Rescore>
     Score         DG    S(hbond)    S(metal)    S(lipo)     H(rot)  DE(clash)    DE(int)     intcor
     12.66     -15.70       1.93        0.00      73.67       1.89       0.07       2.96       ----

> <Gold.Chemscore.Fitness>
12.6613

> <Gold.Chemscore.DG>
-15.6984

> <Gold.Chemscore.ZeroCoef>
-5.4800

> <Gold.Chemscore.Hbond>
1.9279

> <Gold.Chemscore.Metal>
0.0000

> <Gold.Chemscore.Lipo>
73.6728

> <Gold.Chemscore.Internal_Hbond>
0.0000

> <Gold.Chemscore.DEClash>
0.0739

> <Gold.Chemscore.DEInternal>
2.9632

> <Gold.Chemscore.Rot>
1.8908

> <Gold.Chemscore.Internal.Correction>
   9.000000E+99

> <Gold.Chemscore.Hbonds>
donor molecule, donor type, donor heavy atom, donor atom, acceptor molecule, acceptor atom, score
      P1  H  7989  7998       L1    12  0.87
      P1  H  7997  8010       L1     5  0.95

> <Gold.Chemscore.Hbond.Weighted>
-6.4392

> <Gold.Chemscore.Metal.Weighted>
-0.0000

> <Gold.Chemscore.Lipo.Weighted>
-8.6197

> <Gold.Chemscore.Internal_Hbond.Weighted>
0.0000

> <Gold.Chemscore.DEClash.Weighted>
0.0739

> <Gold.Chemscore.DEInternal.Weighted>
2.9632

> <Gold.Chemscore.Rot.Weighted>
4.8406

> <Gold.Chemscore.Internal.Correction.Weighted>
   9.000000E+99

> <Gold.Protein.RotatedTorsions>
[ 6907 6896 6895 6894 ] final   36.83 input  -60.11 | X-H torsion
[ 7974 7965 7964 7962 ] final   63.59 input  175.53 | X-H torsion
[ 8008 7997 7996 7995 ] final  -13.22 input   59.86 | X-H torsion
[ 10167 10162 10161 10158 ] final -133.36 input  -65.29 | X-H torsion
[ 10718 10713 10712 10709 ] final  -81.67 input   66.30 | X-H torsion
[ 10763 10752 10751 10750 ] final  168.50 input  -60.55 | X-H torsion
[ 11005 11000 10999 10996 ] final   46.22 input  -57.11 | X-H torsion

> <Gold.Protein.ActiveResidues>
 VAL166  LYS551  ARG553  GLY616  TRP617  ASP618  TYR619  PRO620  LYS621  CYS622 
 ASP623  PHE694  ASN695  SER759  ASP760  ASP761  ALA762  ILE779  LEU786  VAL792 
 PHE793  MET794  SER795  GLU796  ALA797  LYS798  CYS799  TRP800  GLU811  SER814 

> <Gold.Protein.RotatedAtoms>
  152.1350  134.9106  160.0556 H   0  0  0  0  0  0  0  0  0  0  0  0  # atno 6907 bound_to 6896
  152.0196  133.3888  159.4261 H   0  0  0  0  0  0  0  0  0  0  0  0  # atno 6908 bound_to 6896
  150.6859  134.3562  159.4974 H   0  0  0  0  0  0  0  0  0  0  0  0  # atno 6909 bound_to 6896
  145.8600  139.3309  143.0824 H   0  0  0  0  0  0  0  0  0  0  0  0  # atno 7974 bound_to 7965
  154.5311  140.2255  155.8804 H   0  0  0  0  0  0  0  0  0  0  0  0  # atno 8008 bound_to 7997
  156.1764  140.3110  155.9030 H   0  0  0  0  0  0  0  0  0  0  0  0  # atno 8009 bound_to 7997
  155.3450  140.0452  157.3036 H   0  0  0  0  0  0  0  0  0  0  0  0  # atno 8010 bound_to 7997
  139.8990  143.6630  152.2598 H   0  0  0  0  0  0  0  0  0  0  0  0  # atno 10167 bound_to 10162
  156.0046  130.4611  150.3988 H   0  0  0  0  0  0  0  0  0  0  0  0  # atno 10718 bound_to 10713
  154.3694  135.2753  155.2275 H   0  0  0  0  0  0  0  0  0  0  0  0  # atno 10763 bound_to 10752
  154.4428  135.5950  153.6144 H   0  0  0  0  0  0  0  0  0  0  0  0  # atno 10764 bound_to 10752
  152.9839  135.6023  154.3924 H   0  0  0  0  0  0  0  0  0  0  0  0  # atno 10765 bound_to 10752
  140.1388  134.4609  155.8465 H   0  0  0  0  0  0  0  0  0  0  0  0  # atno 11005 bound_to 11000
  145.9259  140.9083  143.0381 LP  0  0  0  0  0  0  0  0  0  0  0  0  # atno 17320 bound_to 7965
  144.6727  140.1352  143.7441 LP  0  0  0  0  0  0  0  0  0  0  0  0  # atno 17321 bound_to 7965
  139.7042  144.7630  151.1222 LP  0  0  0  0  0  0  0  0  0  0  0  0  # atno 17342 bound_to 10162
  140.7711  143.5417  150.9305 LP  0  0  0  0  0  0  0  0  0  0  0  0  # atno 17343 bound_to 10162
  157.2058  131.0449  151.2626 LP  0  0  0  0  0  0  0  0  0  0  0  0  # atno 17370 bound_to 10713
  157.3934  130.7294  149.6714 LP  0  0  0  0  0  0  0  0  0  0  0  0  # atno 17371 bound_to 10713
  141.2182  133.6825  156.7209 LP  0  0  0  0  0  0  0  0  0  0  0  0  # atno 17394 bound_to 11000
  140.2748  134.8364  157.3880 LP  0  0  0  0  0  0  0  0  0  0  0  0  # atno 17395 bound_to 11000

$$$$
