AV-unprocessed.smi:1699|AV-procd|sdf|6816|dock2
  -GOLD-   22720 7593D 1   1.00000     0.00000
 Structure written by MMmdl.
 37 38  0  0  0  0  0  0  0  0  1 V2000
  150.9853  137.6997  154.3501 C   0  0  0  0  0  0  0  0  0  0  0  0
  150.2847  139.0133  154.6576 C   0  0  0  0  0  0  0  0  0  0  0  0
  150.9975  140.0376  155.3168 C   0  0  0  0  0  0  0  0  0  0  0  0
  150.3494  141.2523  155.5986 C   0  0  0  0  0  0  0  0  0  0  0  0
  149.0072  141.3923  155.2061 C   0  0  0  0  0  0  0  0  0  0  0  0
  148.3188  140.4190  154.5759 N   0  0  0  0  0  0  0  0  0  0  0  0
  148.9296  139.2402  154.2959 C   0  0  0  0  0  0  0  0  0  0  0  0
  148.2629  138.1670  153.6397 N   0  0  0  0  0  0  0  0  0  0  0  0
  146.9684  137.8117  153.7209 C   0  0  0  0  0  0  0  0  0  0  0  0
  146.1081  138.3973  154.3793 O   0  0  0  0  0  0  0  0  0  0  0  0
  146.7179  136.7272  152.9731 N   0  0  0  0  0  0  0  0  0  0  0  0
  145.4154  136.0828  152.8239 C   0  0  1  0  0  0  0  0  0  0  0  0
  144.3321  137.1610  152.6524 C   0  0  0  0  0  0  0  0  0  0  0  0
  145.4675  135.1082  151.6320 C   0  0  2  0  0  0  0  0  0  0  0  0
  144.1476  134.3982  151.3258 C   0  0  0  0  0  0  0  0  0  0  0  0
  144.5797  133.1085  150.6448 C   0  0  0  0  0  0  0  0  0  0  0  0
  146.0761  133.0064  150.9516 C   0  0  0  0  0  0  0  0  0  0  0  0
  146.3262  134.0148  151.9199 O   0  0  0  0  0  0  0  0  0  0  0  0
  152.0238  137.7157  154.6827 H   0  0  0  0  0  0  0  0  0  0  0  0
  150.9808  137.5066  153.2770 H   0  0  0  0  0  0  0  0  0  0  0  0
  150.4841  136.8729  154.8540 H   0  0  0  0  0  0  0  0  0  0  0  0
  152.0291  139.8974  155.6047 H   0  0  0  0  0  0  0  0  0  0  0  0
  150.8671  142.0555  156.1018 H   0  0  0  0  0  0  0  0  0  0  0  0
  148.4713  142.3091  155.4033 H   0  0  0  0  0  0  0  0  0  0  0  0
  148.8424  137.6049  153.0347 H   0  0  0  0  0  0  0  0  0  0  0  0
  147.4869  136.3099  152.4698 H   0  0  0  0  0  0  0  0  0  0  0  0
  145.1897  135.5057  153.7227 H   0  0  0  0  0  0  0  0  0  0  0  0
  143.3381  136.7190  152.5839 H   0  0  0  0  0  0  0  0  0  0  0  0
  144.4977  137.7497  151.7494 H   0  0  0  0  0  0  0  0  0  0  0  0
  144.3224  137.8473  153.5000 H   0  0  0  0  0  0  0  0  0  0  0  0
  145.8320  135.6159  150.7364 H   0  0  0  0  0  0  0  0  0  0  0  0
  143.6227  134.1613  152.2524 H   0  0  0  0  0  0  0  0  0  0  0  0
  143.4808  134.9990  150.7068 H   0  0  0  0  0  0  0  0  0  0  0  0
  144.0273  132.2562  151.0417 H   0  0  0  0  0  0  0  0  0  0  0  0
  144.4095  133.1474  149.5683 H   0  0  0  0  0  0  0  0  0  0  0  0
  146.3612  132.0233  151.3269 H   0  0  0  0  0  0  0  0  0  0  0  0
  146.6657  133.2140  150.0575 H   0  0  0  0  0  0  0  0  0  0  0  0
  1  2  1  0  0  0  0
  1 19  1  0  0  0  0
  1 20  1  0  0  0  0
  1 21  1  0  0  0  0
  2  7  1  0  0  0  0
  2  3  2  0  0  0  0
  3  4  1  0  0  0  0
  3 22  1  0  0  0  0
  4  5  2  0  0  0  0
  4 23  1  0  0  0  0
  5  6  1  0  0  0  0
  5 24  1  0  0  0  0
  6  7  2  0  0  0  0
  7  8  1  0  0  0  0
  8  9  1  0  0  0  0
  8 25  1  0  0  0  0
  9 10  2  0  0  0  0
  9 11  1  0  0  0  0
 11 12  1  0  0  0  0
 11 26  1  0  0  0  0
 12 13  1  0  0  0  0
 12 14  1  0  0  0  0
 12 27  1  0  0  0  0
 13 28  1  0  0  0  0
 13 29  1  0  0  0  0
 13 30  1  0  0  0  0
 14 18  1  0  0  0  0
 14 15  1  0  0  0  0
 14 31  1  0  0  0  0
 15 16  1  0  0  0  0
 15 32  1  0  0  0  0
 15 33  1  0  0  0  0
 16 17  1  0  0  0  0
 16 34  1  0  0  0  0
 16 35  1  0  0  0  0
 17 18  1  0  0  0  0
 17 36  1  0  0  0  0
 17 37  1  0  0  0  0
M  END
> <s_m_source_file>
AV-unprocessed.smi

> <i_m_source_file_index>
1699

> <i_lp_mmshare_version>
43012

> <i_f3d_flags>
0

> <s_epik_input>
W0NIM11jMVtjSF1bY0hdW2NIXW5jMVtOSF1DKD1PKVtOSF1bQ0BIXShbQ0gzXSlbQ0BASF0yW0NIMl1bQ0gyXVtDSDJdTzI=

> <s_epik_cmdline>
J2VwaWtfcHl0aG9uJywgJy1waCcsICc3LjAnLCAnLXRuJywgJzgnLCAnLW1hJywgJzIwMCcsICctbWV0YWxfYmluZGluZycsICctaW1hZScsICc8aW5maWxlLm1hZT4nLCAnLW9tYWUnLCAnPG91dGZpbGUubWFlPic=

> <r_lp_tautomer_probability>
1

> <r_epik_Ionization_Penalty>
5.52788e-05

> <r_epik_Ionization_Penalty_Charging>
0

> <r_epik_Ionization_Penalty_Neutral>
5.52788e-05

> <r_epik_State_Penalty>
-0

> <r_epik_Charging_Adjusted_Penalty>
0

> <i_epik_Tot_Q>
0

> <i_epik_Tot_abs_Q>
0

> <r_epik_Metal_State_Penalty>
-0

> <b_epik_Metal_Only>
0

> <s_lp_Force_Field>
OPLS_2005

> <r_lp_Energy>
21.1958

> <b_lp_Chiralities_Consistent>
1

> <s_lp_Variant>
AV-unprocessed.smi:1699-2

> <Gold.Version>
5.8.1

> <Gold.Id.Protein>
6NUR|6NUR_protein|mol2

> <Gold.PLP.Fitness>
38.1200

> <Gold.PLP.PLP>
-30.0546

> <Gold.PLP.part.hbond>
-2.0000

> <Gold.PLP.part.metal>
0.0000

> <Gold.PLP.part.buried>
-2.2087

> <Gold.PLP.part.nonpolar>
-25.9119

> <Gold.PLP.part.repulsive>
0.3830

> <Gold.PLP.ligand.clash>
0.0000

> <Gold.PLP.ligand.torsion>
0.4668

> <Gold.PLP.Chemscore.Hbond>
1.9920

> <Gold.PLP.Chemscore.CHOScore>
1.0000

> <Gold.PLP.Chemscore.Metal>
0.0000

> <Gold.Chemscore.Hbonds>
donor molecule, donor type, donor heavy atom, donor atom, acceptor molecule, acceptor atom, score
      L1  H     8    25       P1  7948  0.99
      L1  H    11    26       P1  7948  1.00
      L1  C     5    24       P1  8028  1.00

> <Gold.PLP.Chemscore.Internal.Correction>
0.0230

> <Gold.Rescore>
     Score         DG    S(hbond)    S(metal)    S(lipo)     H(rot)  DE(clash)    DE(int)     intcor
     13.84     -16.80       1.93        0.00      68.32       1.22       0.11       2.85       ----

> <Gold.Chemscore.Fitness>
13.8354

> <Gold.Chemscore.DG>
-16.7951

> <Gold.Chemscore.ZeroCoef>
-5.4800

> <Gold.Chemscore.Hbond>
1.9296

> <Gold.Chemscore.Metal>
0.0000

> <Gold.Chemscore.Lipo>
68.3207

> <Gold.Chemscore.Internal_Hbond>
0.0000

> <Gold.Chemscore.DEClash>
0.1118

> <Gold.Chemscore.DEInternal>
2.8479

> <Gold.Chemscore.Rot>
1.2200

> <Gold.Chemscore.Internal.Correction>
   9.000000E+99

> <Gold.Chemscore.Hbonds>
donor molecule, donor type, donor heavy atom, donor atom, acceptor molecule, acceptor atom, score
      L1  H     8    25       P1  7948  0.93
      L1  H    11    26       P1  7948  0.96

> <Gold.Chemscore.Hbond.Weighted>
-6.4447

> <Gold.Chemscore.Metal.Weighted>
-0.0000

> <Gold.Chemscore.Lipo.Weighted>
-7.9935

> <Gold.Chemscore.Internal_Hbond.Weighted>
0.0000

> <Gold.Chemscore.DEClash.Weighted>
0.1118

> <Gold.Chemscore.DEInternal.Weighted>
2.8479

> <Gold.Chemscore.Rot.Weighted>
3.1232

> <Gold.Chemscore.Internal.Correction.Weighted>
   9.000000E+99

> <Gold.Protein.RotatedTorsions>
[ 6907 6896 6895 6894 ] final  102.37 input  -60.11 | X-H torsion
[ 7974 7965 7964 7962 ] final  101.96 input  175.53 | X-H torsion
[ 8008 7997 7996 7995 ] final -174.29 input   59.86 | X-H torsion
[ 10167 10162 10161 10158 ] final  -97.67 input  -65.29 | X-H torsion
[ 10718 10713 10712 10709 ] final -159.45 input   66.30 | X-H torsion
[ 10763 10752 10751 10750 ] final -132.67 input  -60.55 | X-H torsion
[ 11005 11000 10999 10996 ] final  118.26 input  -57.11 | X-H torsion

> <Gold.Protein.ActiveResidues>
 VAL166  LYS551  ARG553  GLY616  TRP617  ASP618  TYR619  PRO620  LYS621  CYS622 
 ASP623  PHE694  ASN695  SER759  ASP760  ASP761  ALA762  ILE779  LEU786  VAL792 
 PHE793  MET794  SER795  GLU796  ALA797  LYS798  CYS799  TRP800  GLU811  SER814 

> <Gold.Protein.RotatedAtoms>
  152.5325  133.9986  159.7883 H   0  0  0  0  0  0  0  0  0  0  0  0  # atno 6907 bound_to 6896
  151.0209  133.5870  159.2678 H   0  0  0  0  0  0  0  0  0  0  0  0  # atno 6908 bound_to 6896
  151.2910  135.0748  159.9257 H   0  0  0  0  0  0  0  0  0  0  0  0  # atno 6909 bound_to 6896
  145.3654  139.2409  143.3484 H   0  0  0  0  0  0  0  0  0  0  0  0  # atno 7974 bound_to 7965
  155.9682  140.1157  157.0836 H   0  0  0  0  0  0  0  0  0  0  0  0  # atno 8008 bound_to 7997
  154.4149  140.1168  156.5338 H   0  0  0  0  0  0  0  0  0  0  0  0  # atno 8009 bound_to 7997
  155.6631  140.3473  155.4792 H   0  0  0  0  0  0  0  0  0  0  0  0  # atno 8010 bound_to 7997
  140.2810  143.3282  152.0441 H   0  0  0  0  0  0  0  0  0  0  0  0  # atno 10167 bound_to 10162
  156.5682  130.8677  151.2830 H   0  0  0  0  0  0  0  0  0  0  0  0  # atno 10718 bound_to 10713
  154.8741  135.3790  154.4447 H   0  0  0  0  0  0  0  0  0  0  0  0  # atno 10763 bound_to 10752
  153.5128  135.7029  153.5777 H   0  0  0  0  0  0  0  0  0  0  0  0  # atno 10764 bound_to 10752
  153.4058  135.3937  155.1984 H   0  0  0  0  0  0  0  0  0  0  0  0  # atno 10765 bound_to 10752
  139.9103  134.9618  156.7475 H   0  0  0  0  0  0  0  0  0  0  0  0  # atno 11005 bound_to 11000
  146.2909  140.4296  142.8740 LP  0  0  0  0  0  0  0  0  0  0  0  0  # atno 17320 bound_to 7965
  144.8615  140.7146  143.6104 LP  0  0  0  0  0  0  0  0  0  0  0  0  # atno 17321 bound_to 7965
  139.4963  144.6592  151.6504 LP  0  0  0  0  0  0  0  0  0  0  0  0  # atno 17342 bound_to 10162
  140.5812  143.9943  150.6269 LP  0  0  0  0  0  0  0  0  0  0  0  0  # atno 17343 bound_to 10162
  157.7354  130.9761  150.2079 LP  0  0  0  0  0  0  0  0  0  0  0  0  # atno 17370 bound_to 10713
  156.2738  130.3725  149.8005 LP  0  0  0  0  0  0  0  0  0  0  0  0  # atno 17371 bound_to 10713
  140.6800  133.9483  155.7905 LP  0  0  0  0  0  0  0  0  0  0  0  0  # atno 17394 bound_to 11000
  141.0517  134.0475  157.3775 LP  0  0  0  0  0  0  0  0  0  0  0  0  # atno 17395 bound_to 11000

$$$$
