AV-unprocessed.smi:2574|AV-procd|sdf|10114|dock9
  -GOLD-   2272014133D 1   1.00000     0.00000
 Structure written by MMmdl.
 38 40  0  0  0  0  0  0  0  0  1 V2000
  152.8073  139.1828  158.6862 O   0  0  0  0  0  0  0  0  0  0  0  0
  152.6628  140.3475  159.0588 C   0  0  0  0  0  0  0  0  0  0  0  0
  153.5240  140.9890  160.0640 C   0  0  0  0  0  0  0  0  0  0  0  0
  154.6518  140.1607  160.6739 C   0  0  0  0  0  0  0  0  0  0  0  0
  155.7936  140.3099  160.0006 F   0  0  0  0  0  0  0  0  0  0  0  0
  154.8739  140.5256  161.9372 F   0  0  0  0  0  0  0  0  0  0  0  0
  154.3377  138.8649  160.6631 F   0  0  0  0  0  0  0  0  0  0  0  0
  153.3015  142.2754  160.4286 C   0  0  0  0  0  0  0  0  0  0  0  0
  152.2160  143.0277  159.8323 C   0  0  0  0  0  0  0  0  0  0  0  0
  151.9065  144.4518  160.1959 C   0  0  0  0  0  0  0  0  0  0  0  0
  150.6837  145.1702  159.6725 C   0  0  0  0  0  0  0  0  0  0  0  0
  152.0599  145.5758  159.1979 C   0  0  0  0  0  0  0  0  0  0  0  0
  151.4658  142.4649  158.9462 N   0  0  0  0  0  0  0  0  0  0  0  0
  151.6780  141.1541  158.5644 N   0  0  0  0  0  0  0  0  0  0  0  0
  150.7191  140.6639  157.5659 C   0  0  0  0  0  0  0  0  0  0  0  0
  150.8197  141.4417  156.2356 C   0  0  2  0  0  0  0  0  0  0  0  0
  150.7921  142.8293  156.5079 O   0  0  0  0  0  0  0  0  0  0  0  0
  149.6982  141.0429  155.2877 C   0  0  0  0  0  0  0  0  0  0  0  0
  149.5736  139.6997  154.8719 C   0  0  0  0  0  0  0  0  0  0  0  0
  148.5320  139.3184  154.0040 C   0  0  0  0  0  0  0  0  0  0  0  0
  147.6077  140.2776  153.5477 C   0  0  0  0  0  0  0  0  0  0  0  0
  147.7243  141.6183  153.9618 C   0  0  0  0  0  0  0  0  0  0  0  0
  148.7652  142.0001  154.8305 C   0  0  0  0  0  0  0  0  0  0  0  0
  153.9229  142.7631  161.1646 H   0  0  0  0  0  0  0  0  0  0  0  0
  152.1966  144.6586  161.2243 H   0  0  0  0  0  0  0  0  0  0  0  0
  150.0448  144.6534  158.9587 H   0  0  0  0  0  0  0  0  0  0  0  0
  150.1690  145.8440  160.3544 H   0  0  0  0  0  0  0  0  0  0  0  0
  152.4593  146.5199  159.5623 H   0  0  0  0  0  0  0  0  0  0  0  0
  152.3325  145.3179  158.1760 H   0  0  0  0  0  0  0  0  0  0  0  0
  150.9588  139.6149  157.3801 H   0  0  0  0  0  0  0  0  0  0  0  0
  149.6929  140.6507  157.9375 H   0  0  0  0  0  0  0  0  0  0  0  0
  151.7708  141.2212  155.7489 H   0  0  0  0  0  0  0  0  0  0  0  0
  149.9913  143.1878  156.1570 H   0  0  0  0  0  0  0  0  0  0  0  0
  150.2750  138.9550  155.2190 H   0  0  0  0  0  0  0  0  0  0  0  0
  148.4413  138.2892  153.6895 H   0  0  0  0  0  0  0  0  0  0  0  0
  146.8084  139.9848  152.8832 H   0  0  0  0  0  0  0  0  0  0  0  0
  147.0138  142.3538  153.6146 H   0  0  0  0  0  0  0  0  0  0  0  0
  148.8434  143.0302  155.1471 H   0  0  0  0  0  0  0  0  0  0  0  0
  1  2  2  0  0  0  0
  2 14  1  0  0  0  0
  2  3  1  0  0  0  0
  3  4  1  0  0  0  0
  3  8  2  0  0  0  0
  4  5  1  0  0  0  0
  4  6  1  0  0  0  0
  4  7  1  0  0  0  0
  8  9  1  0  0  0  0
  8 24  1  0  0  0  0
  9 10  1  0  0  0  0
  9 13  2  0  0  0  0
 10 12  1  0  0  0  0
 10 11  1  0  0  0  0
 10 25  1  0  0  0  0
 11 12  1  0  0  0  0
 11 26  1  0  0  0  0
 11 27  1  0  0  0  0
 12 28  1  0  0  0  0
 12 29  1  0  0  0  0
 13 14  1  0  0  0  0
 14 15  1  0  0  0  0
 15 16  1  0  0  0  0
 15 30  1  0  0  0  0
 15 31  1  0  0  0  0
 16 17  1  0  0  0  0
 16 18  1  0  0  0  0
 16 32  1  0  0  0  0
 17 33  1  0  0  0  0
 18 23  1  0  0  0  0
 18 19  2  0  0  0  0
 19 20  1  0  0  0  0
 19 34  1  0  0  0  0
 20 21  2  0  0  0  0
 20 35  1  0  0  0  0
 21 22  1  0  0  0  0
 21 36  1  0  0  0  0
 22 23  2  0  0  0  0
 22 37  1  0  0  0  0
 23 38  1  0  0  0  0
M  END
> <s_m_source_file>
AV-unprocessed.smi

> <i_m_source_file_index>
2574

> <i_lp_mmshare_version>
43012

> <i_f3d_flags>
0

> <s_epik_input>
Tz1jMWMoQyhGKShGKUYpW2NIXWMoW0NIXTJbQ0gyXVtDSDJdMilubjFbQ0gyXVtDQEhdKFtPSF0pYzNbY0hdW2NIXVtjSF1bY0hdW2NIXTM=

> <s_epik_cmdline>
J2VwaWtfcHl0aG9uJywgJy1waCcsICc3LjAnLCAnLXRuJywgJzgnLCAnLW1hJywgJzIwMCcsICctbWV0YWxfYmluZGluZycsICctaW1hZScsICc8aW5maWxlLm1hZT4nLCAnLW9tYWUnLCAnPG91dGZpbGUubWFlPic=

> <r_lp_tautomer_probability>
1

> <r_epik_Ionization_Penalty>
7.26807e-08

> <r_epik_Ionization_Penalty_Charging>
9.677e-10

> <r_epik_Ionization_Penalty_Neutral>
7.1713e-08

> <r_epik_State_Penalty>
-0

> <r_epik_Charging_Adjusted_Penalty>
9.677e-10

> <i_epik_Tot_Q>
0

> <i_epik_Tot_abs_Q>
0

> <r_epik_Metal_State_Penalty>
-0

> <b_epik_Metal_Only>
0

> <s_lp_Force_Field>
OPLS_2005

> <r_lp_Energy>
33.7887

> <b_lp_Chiralities_Consistent>
1

> <s_lp_Variant>
AV-unprocessed.smi:2574-1

> <Gold.Version>
5.8.1

> <Gold.Id.Protein>
6NUR|6NUR_protein|mol2

> <Gold.PLP.Fitness>
53.9227

> <Gold.PLP.PLP>
-52.7682

> <Gold.PLP.part.hbond>
-1.0000

> <Gold.PLP.part.metal>
0.0000

> <Gold.PLP.part.buried>
-1.0028

> <Gold.PLP.part.nonpolar>
-50.0453

> <Gold.PLP.part.repulsive>
0.0111

> <Gold.PLP.ligand.clash>
0.0000

> <Gold.PLP.ligand.torsion>
1.2412

> <Gold.PLP.Chemscore.Hbond>
1.0000

> <Gold.PLP.Chemscore.CHOScore>
0.0000

> <Gold.PLP.Chemscore.Metal>
0.0000

> <Gold.Chemscore.Hbonds>
donor molecule, donor type, donor heavy atom, donor atom, acceptor molecule, acceptor atom, score
      L1  H    17    33       P1  8028  1.00

> <Gold.PLP.Chemscore.Internal.Correction>
0.6368

> <Gold.Rescore>
     Score         DG    S(hbond)    S(metal)    S(lipo)     H(rot)  DE(clash)    DE(int)     intcor
     14.58     -18.36       0.97        0.00     128.22       2.09       1.32       2.46       ----

> <Gold.Chemscore.Fitness>
14.5790

> <Gold.Chemscore.DG>
-18.3591

> <Gold.Chemscore.ZeroCoef>
-5.4800

> <Gold.Chemscore.Hbond>
0.9669

> <Gold.Chemscore.Metal>
0.0000

> <Gold.Chemscore.Lipo>
128.2200

> <Gold.Chemscore.Internal_Hbond>
0.0000

> <Gold.Chemscore.DEClash>
1.3215

> <Gold.Chemscore.DEInternal>
2.4586

> <Gold.Chemscore.Rot>
2.0906

> <Gold.Chemscore.Internal.Correction>
   9.000000E+99

> <Gold.Chemscore.Hbonds>
donor molecule, donor type, donor heavy atom, donor atom, acceptor molecule, acceptor atom, score
      L1  H    17    33       P1  8028  0.93

> <Gold.Chemscore.Hbond.Weighted>
-3.2294

> <Gold.Chemscore.Metal.Weighted>
-0.0000

> <Gold.Chemscore.Lipo.Weighted>
-15.0017

> <Gold.Chemscore.Internal_Hbond.Weighted>
0.0000

> <Gold.Chemscore.DEClash.Weighted>
1.3215

> <Gold.Chemscore.DEInternal.Weighted>
2.4586

> <Gold.Chemscore.Rot.Weighted>
5.3520

> <Gold.Chemscore.Internal.Correction.Weighted>
   9.000000E+99

> <Gold.Protein.RotatedTorsions>
[ 6907 6896 6895 6894 ] final -121.41 input  -60.11 | X-H torsion
[ 7974 7965 7964 7962 ] final -120.17 input  175.53 | X-H torsion
[ 8008 7997 7996 7995 ] final -147.42 input   59.86 | X-H torsion
[ 10167 10162 10161 10158 ] final   -6.36 input  -65.29 | X-H torsion
[ 10718 10713 10712 10709 ] final   54.04 input   66.30 | X-H torsion
[ 10763 10752 10751 10750 ] final -103.22 input  -60.55 | X-H torsion
[ 11005 11000 10999 10996 ] final  140.50 input  -57.11 | X-H torsion

> <Gold.Protein.ActiveResidues>
 VAL166  LYS551  ARG553  GLY616  TRP617  ASP618  TYR619  PRO620  LYS621  CYS622 
 ASP623  PHE694  ASN695  SER759  ASP760  ASP761  ALA762  ILE779  LEU786  VAL792 
 PHE793  MET794  SER795  GLU796  ALA797  LYS798  CYS799  TRP800  GLU811  SER814 

> <Gold.Protein.RotatedAtoms>
  150.8481  133.7830  159.3035 H   0  0  0  0  0  0  0  0  0  0  0  0  # atno 6907 bound_to 6896
  151.5510  135.1066  159.9959 H   0  0  0  0  0  0  0  0  0  0  0  0  # atno 6908 bound_to 6896
  152.4530  133.7624  159.6810 H   0  0  0  0  0  0  0  0  0  0  0  0  # atno 6909 bound_to 6896
  145.0543  140.8242  143.4190 H   0  0  0  0  0  0  0  0  0  0  0  0  # atno 7974 bound_to 7965
  155.5752  140.0638  157.2797 H   0  0  0  0  0  0  0  0  0  0  0  0  # atno 8008 bound_to 7997
  154.4349  140.1862  156.0966 H   0  0  0  0  0  0  0  0  0  0  0  0  # atno 8009 bound_to 7997
  156.0347  140.3302  155.7181 H   0  0  0  0  0  0  0  0  0  0  0  0  # atno 8010 bound_to 7997
  140.6994  143.6202  150.8619 H   0  0  0  0  0  0  0  0  0  0  0  0  # atno 10167 bound_to 10162
  157.5221  130.8572  149.8573 H   0  0  0  0  0  0  0  0  0  0  0  0  # atno 10718 bound_to 10713
  154.7791  135.4831  153.9807 H   0  0  0  0  0  0  0  0  0  0  0  0  # atno 10763 bound_to 10752
  153.1470  135.6784  153.8947 H   0  0  0  0  0  0  0  0  0  0  0  0  # atno 10764 bound_to 10752
  153.8604  135.3156  155.3416 H   0  0  0  0  0  0  0  0  0  0  0  0  # atno 10765 bound_to 10752
  140.0332  134.9342  157.0702 H   0  0  0  0  0  0  0  0  0  0  0  0  # atno 11005 bound_to 11000
  145.1488  139.2527  143.5452 LP  0  0  0  0  0  0  0  0  0  0  0  0  # atno 17320 bound_to 7965
  146.3520  140.1185  142.8601 LP  0  0  0  0  0  0  0  0  0  0  0  0  # atno 17321 bound_to 7965
  139.9923  143.5833  152.2905 LP  0  0  0  0  0  0  0  0  0  0  0  0  # atno 17342 bound_to 10162
  139.6493  144.7660  151.2180 LP  0  0  0  0  0  0  0  0  0  0  0  0  # atno 17343 bound_to 10162
  156.0361  130.3751  150.1557 LP  0  0  0  0  0  0  0  0  0  0  0  0  # atno 17370 bound_to 10713
  156.9744  130.9845  151.3451 LP  0  0  0  0  0  0  0  0  0  0  0  0  # atno 17371 bound_to 10713
  140.4191  134.1900  155.7164 LP  0  0  0  0  0  0  0  0  0  0  0  0  # atno 17394 bound_to 11000
  141.1843  133.8347  157.1146 LP  0  0  0  0  0  0  0  0  0  0  0  0  # atno 17395 bound_to 11000

$$$$
