AV-unprocessed.smi:538|AV-procd|sdf|2866|dock3
  -GOLD-   2262023353D 1   1.00000     0.00000
 Structure written by MMmdl.
 43 44  0  0  0  0  0  0  0  0  1 V2000
  150.3973  134.9333  155.0495 C   0  0  0  0  0  0  0  0  0  0  0  0
  151.4218  135.8382  155.4212 O   0  0  0  0  0  0  0  0  0  0  0  0
  151.1002  137.1820  155.1010 C   0  0  0  0  0  0  0  0  0  0  0  0
  152.2321  138.0993  155.5805 C   0  0  0  0  0  0  0  0  0  0  0  0
  151.7259  139.2809  156.2544 N   0  0  0  0  0  0  0  0  0  0  0  0
  152.1225  139.9338  157.4149 C   0  0  0  0  0  0  0  0  0  0  0  0
  153.1387  139.5489  158.1901 N   0  0  0  0  0  0  0  0  0  0  0  0
  153.1251  140.4965  159.2042 C   0  0  0  0  0  0  0  0  0  0  0  0
  152.1303  141.3957  159.0166 C   0  0  0  0  0  0  0  0  0  0  0  0
  151.8749  142.5031  159.9434 C   0  0  0  0  0  0  0  0  0  0  0  0
  150.9567  143.3027  159.7545 O   0  0  0  0  0  0  0  0  0  0  0  0
  152.7354  142.5510  161.0076 N   0  0  0  0  0  0  0  0  0  0  0  0
  152.5122  143.6540  161.9609 C   0  0  0  0  0  0  0  0  0  0  0  0
  153.7741  141.6631  161.2336 C   0  0  0  0  0  0  0  0  0  0  0  0
  154.5219  141.7785  162.2082 O   0  0  0  0  0  0  0  0  0  0  0  0
  153.9625  140.6374  160.3410 N   0  0  0  0  0  0  0  0  0  0  0  0
  155.0486  139.6754  160.5493 C   0  0  0  0  0  0  0  0  0  0  0  0
  151.4687  141.0433  157.8396 N   0  0  0  0  0  0  0  0  0  0  0  0
  150.3314  141.7090  157.2107 C   0  0  0  0  0  0  0  0  0  0  0  0
  150.5839  142.0043  155.7257 C   0  0  0  0  0  0  0  0  0  0  0  0
  150.1616  140.9005  154.9416 O   0  0  0  0  0  0  0  0  0  0  0  0
  148.8287  141.0376  154.4830 C   0  0  0  0  0  0  0  0  0  0  0  0
  150.6930  133.9175  155.3115 H   0  0  0  0  0  0  0  0  0  0  0  0
  150.2132  134.9643  153.9749 H   0  0  0  0  0  0  0  0  0  0  0  0
  149.4660  135.1574  155.5714 H   0  0  0  0  0  0  0  0  0  0  0  0
  150.9893  137.2770  154.0199 H   0  0  0  0  0  0  0  0  0  0  0  0
  150.1495  137.4728  155.5512 H   0  0  0  0  0  0  0  0  0  0  0  0
  152.9027  137.5605  156.2502 H   0  0  0  0  0  0  0  0  0  0  0  0
  152.8291  138.4245  154.7282 H   0  0  0  0  0  0  0  0  0  0  0  0
  150.9510  139.7159  155.7746 H   0  0  0  0  0  0  0  0  0  0  0  0
  153.1456  143.6328  162.8479 H   0  0  0  0  0  0  0  0  0  0  0  0
  151.4832  143.6466  162.3245 H   0  0  0  0  0  0  0  0  0  0  0  0
  152.6868  144.6143  161.4728 H   0  0  0  0  0  0  0  0  0  0  0  0
  154.9501  139.1883  161.5204 H   0  0  0  0  0  0  0  0  0  0  0  0
  156.0156  140.1796  160.5169 H   0  0  0  0  0  0  0  0  0  0  0  0
  155.0670  138.8884  159.7951 H   0  0  0  0  0  0  0  0  0  0  0  0
  149.4442  141.0885  157.3319 H   0  0  0  0  0  0  0  0  0  0  0  0
  150.1130  142.6351  157.7427 H   0  0  0  0  0  0  0  0  0  0  0  0
  150.0453  142.9042  155.4251 H   0  0  0  0  0  0  0  0  0  0  0  0
  151.6463  142.1915  155.5630 H   0  0  0  0  0  0  0  0  0  0  0  0
  148.5589  140.1714  153.8790 H   0  0  0  0  0  0  0  0  0  0  0  0
  148.7131  141.9288  153.8648 H   0  0  0  0  0  0  0  0  0  0  0  0
  148.1294  141.0967  155.3180 H   0  0  0  0  0  0  0  0  0  0  0  0
  1  2  1  0  0  0  0
  1 23  1  0  0  0  0
  1 24  1  0  0  0  0
  1 25  1  0  0  0  0
  2  3  1  0  0  0  0
  3  4  1  0  0  0  0
  3 26  1  0  0  0  0
  3 27  1  0  0  0  0
  4  5  1  0  0  0  0
  4 28  1  0  0  0  0
  4 29  1  0  0  0  0
  5  6  1  0  0  0  0
  5 30  1  0  0  0  0
  6 18  1  0  0  0  0
  6  7  2  0  0  0  0
  7  8  1  0  0  0  0
  8 16  1  0  0  0  0
  8  9  2  0  0  0  0
  9 10  1  0  0  0  0
  9 18  1  0  0  0  0
 10 11  2  0  0  0  0
 10 12  1  0  0  0  0
 12 13  1  0  0  0  0
 12 14  1  0  0  0  0
 13 31  1  0  0  0  0
 13 32  1  0  0  0  0
 13 33  1  0  0  0  0
 14 15  2  0  0  0  0
 14 16  1  0  0  0  0
 16 17  1  0  0  0  0
 17 34  1  0  0  0  0
 17 35  1  0  0  0  0
 17 36  1  0  0  0  0
 18 19  1  0  0  0  0
 19 20  1  0  0  0  0
 19 37  1  0  0  0  0
 19 38  1  0  0  0  0
 20 21  1  0  0  0  0
 20 39  1  0  0  0  0
 20 40  1  0  0  0  0
 21 22  1  0  0  0  0
 22 41  1  0  0  0  0
 22 42  1  0  0  0  0
 22 43  1  0  0  0  0
M  END
> <s_m_source_file>
AV-unprocessed.smi

> <i_m_source_file_index>
538

> <i_lp_mmshare_version>
43012

> <i_f3d_flags>
0

> <s_epik_input>
W0NIM11PW0NIMl1bQ0gyXVtOSF1jKG4xKW4oW0NIMl1bQ0gyXU9bQ0gzXSljKGMxMiljKD1PKW4oW0NIM10pYyg9TyluMltDSDNd

> <s_epik_cmdline>
J2VwaWtfcHl0aG9uJywgJy1waCcsICc3LjAnLCAnLXRuJywgJzgnLCAnLW1hJywgJzIwMCcsICctbWV0YWxfYmluZGluZycsICctaW1hZScsICc8aW5maWxlLm1hZT4nLCAnLW9tYWUnLCAnPG91dGZpbGUubWFlPic=

> <r_lp_tautomer_probability>
1

> <r_epik_Ionization_Penalty>
5.57243e-05

> <r_epik_Ionization_Penalty_Charging>
2.44156e-09

> <r_epik_Ionization_Penalty_Neutral>
5.57218e-05

> <r_epik_State_Penalty>
-0

> <r_epik_Charging_Adjusted_Penalty>
2.44156e-09

> <i_epik_Tot_Q>
0

> <i_epik_Tot_abs_Q>
0

> <r_epik_Metal_State_Penalty>
-0

> <b_epik_Metal_Only>
0

> <s_lp_Force_Field>
OPLS_2005

> <r_lp_Energy>
28.2468

> <b_lp_Chiralities_Consistent>
1

> <s_lp_Variant>
AV-unprocessed.smi:538-1

> <Gold.Version>
5.8.1

> <Gold.Id.Protein>
6NUR|6NUR_protein|mol2

> <Gold.PLP.Fitness>
49.7713

> <Gold.PLP.PLP>
-43.5096

> <Gold.PLP.part.hbond>
-4.3574

> <Gold.PLP.part.metal>
0.0000

> <Gold.PLP.part.buried>
-3.4886

> <Gold.PLP.part.nonpolar>
-34.7478

> <Gold.PLP.part.repulsive>
0.3865

> <Gold.PLP.ligand.clash>
0.0000

> <Gold.PLP.ligand.torsion>
0.9003

> <Gold.PLP.Chemscore.Hbond>
2.6720

> <Gold.PLP.Chemscore.CHOScore>
0.0000

> <Gold.PLP.Chemscore.Metal>
0.0000

> <Gold.Chemscore.Hbonds>
donor molecule, donor type, donor heavy atom, donor atom, acceptor molecule, acceptor atom, score
      P1  H  7989  7998       L1    21  0.72
      P1  H  7997  8010       L1     7  0.85
      P1  H 10752 10763       L1     2  1.00

> <Gold.PLP.Chemscore.Internal.Correction>
0.0463

> <Gold.Rescore>
     Score         DG    S(hbond)    S(metal)    S(lipo)     H(rot)  DE(clash)    DE(int)     intcor
      6.76     -12.87       1.47        0.00      71.07       2.28       2.79       3.31       ----

> <Gold.Chemscore.Fitness>
6.7590

> <Gold.Chemscore.DG>
-12.8672

> <Gold.Chemscore.ZeroCoef>
-5.4800

> <Gold.Chemscore.Hbond>
1.4695

> <Gold.Chemscore.Metal>
0.0000

> <Gold.Chemscore.Lipo>
71.0701

> <Gold.Chemscore.Internal_Hbond>
0.0000

> <Gold.Chemscore.DEClash>
2.7947

> <Gold.Chemscore.DEInternal>
3.3136

> <Gold.Chemscore.Rot>
2.2797

> <Gold.Chemscore.Internal.Correction>
   9.000000E+99

> <Gold.Chemscore.Hbonds>
donor molecule, donor type, donor heavy atom, donor atom, acceptor molecule, acceptor atom, score
      P1  H  7989  7998       L1    21  0.16
      P1  H  7997  8010       L1     7  0.09
      P1  H 10752 10763       L1     2  0.45

> <Gold.Chemscore.Hbond.Weighted>
-4.9082

> <Gold.Chemscore.Metal.Weighted>
-0.0000

> <Gold.Chemscore.Lipo.Weighted>
-8.3152

> <Gold.Chemscore.Internal_Hbond.Weighted>
0.0000

> <Gold.Chemscore.DEClash.Weighted>
2.7947

> <Gold.Chemscore.DEInternal.Weighted>
3.3136

> <Gold.Chemscore.Rot.Weighted>
5.8361

> <Gold.Chemscore.Internal.Correction.Weighted>
   9.000000E+99

> <Gold.Protein.RotatedTorsions>
[ 6907 6896 6895 6894 ] final   44.73 input  -60.11 | X-H torsion
[ 7974 7965 7964 7962 ] final   91.83 input  175.53 | X-H torsion
[ 8008 7997 7996 7995 ] final   37.64 input   59.86 | X-H torsion
[ 10167 10162 10161 10158 ] final   79.24 input  -65.29 | X-H torsion
[ 10718 10713 10712 10709 ] final  -95.99 input   66.30 | X-H torsion
[ 10763 10752 10751 10750 ] final   65.12 input  -60.55 | X-H torsion
[ 11005 11000 10999 10996 ] final  146.98 input  -57.11 | X-H torsion

> <Gold.Protein.ActiveResidues>
 VAL166  LYS551  ARG553  GLY616  TRP617  ASP618  TYR619  PRO620  LYS621  CYS622 
 ASP623  PHE694  ASN695  SER759  ASP760  ASP761  ALA762  ILE779  LEU786  VAL792 
 PHE793  MET794  SER795  GLU796  ALA797  LYS798  CYS799  TRP800  GLU811  SER814 

> <Gold.Protein.RotatedAtoms>
  152.2360  134.8275  160.0466 H   0  0  0  0  0  0  0  0  0  0  0  0  # atno 6907 bound_to 6896
  151.9007  133.3532  159.3838 H   0  0  0  0  0  0  0  0  0  0  0  0  # atno 6908 bound_to 6896
  150.7039  134.4757  159.5491 H   0  0  0  0  0  0  0  0  0  0  0  0  # atno 6909 bound_to 6896
  145.5004  139.2276  143.2780 H   0  0  0  0  0  0  0  0  0  0  0  0  # atno 7974 bound_to 7965
  155.2071  140.3320  155.4334 H   0  0  0  0  0  0  0  0  0  0  0  0  # atno 8008 bound_to 7997
  156.2385  140.1883  156.7103 H   0  0  0  0  0  0  0  0  0  0  0  0  # atno 8009 bound_to 7997
  154.6103  140.0610  156.9470 H   0  0  0  0  0  0  0  0  0  0  0  0  # atno 8010 bound_to 7997
  139.9624  144.5951  150.8060 H   0  0  0  0  0  0  0  0  0  0  0  0  # atno 10167 bound_to 10162
  156.0053  130.5132  150.6159 H   0  0  0  0  0  0  0  0  0  0  0  0  # atno 10718 bound_to 10713
  153.0083  135.5368  154.6617 H   0  0  0  0  0  0  0  0  0  0  0  0  # atno 10763 bound_to 10752
  154.5824  135.2851  155.0721 H   0  0  0  0  0  0  0  0  0  0  0  0  # atno 10764 bound_to 10752
  154.1845  135.6510  153.5095 H   0  0  0  0  0  0  0  0  0  0  0  0  # atno 10765 bound_to 10752
  140.0838  134.9081  157.1543 H   0  0  0  0  0  0  0  0  0  0  0  0  # atno 11005 bound_to 11000
  146.2229  140.5804  142.9009 LP  0  0  0  0  0  0  0  0  0  0  0  0  # atno 17320 bound_to 7965
  144.7783  140.5787  143.6623 LP  0  0  0  0  0  0  0  0  0  0  0  0  # atno 17321 bound_to 7965
  140.7549  143.3035  151.3020 LP  0  0  0  0  0  0  0  0  0  0  0  0  # atno 17342 bound_to 10162
  139.6544  144.0304  152.2649 LP  0  0  0  0  0  0  0  0  0  0  0  0  # atno 17343 bound_to 10162
  157.3984  131.0806  151.1331 LP  0  0  0  0  0  0  0  0  0  0  0  0  # atno 17370 bound_to 10713
  157.2001  130.6390  149.5735 LP  0  0  0  0  0  0  0  0  0  0  0  0  # atno 17371 bound_to 10713
  140.3450  134.2662  155.7206 LP  0  0  0  0  0  0  0  0  0  0  0  0  # atno 17394 bound_to 11000
  141.2055  133.7857  157.0226 LP  0  0  0  0  0  0  0  0  0  0  0  0  # atno 17395 bound_to 11000

$$$$
