AV-unprocessed.smi:460|AV-procd|sdf|2626|dock1
  -GOLD-   2262023 23D 1   1.00000     0.00000
 Structure written by MMmdl.
 46 48  0  0  0  0  0  0  0  0  1 V2000
  146.5946  142.0181  154.5726 C   0  0  0  0  0  0  0  0  0  0  0  0
  147.2357  140.6397  154.3619 C   0  0  0  0  0  0  0  0  0  0  0  0
  148.7477  140.6152  154.6570 C   0  0  2  0  0  0  0  0  0  0  0  0
  149.4117  141.4550  153.7332 O   0  0  0  0  0  0  0  0  0  0  0  0
  149.2959  139.2130  154.6319 C   0  0  0  0  0  0  0  0  0  0  0  0
  148.5272  138.1692  154.3120 N   0  0  0  0  0  0  0  0  0  0  0  0
  149.3927  137.1009  154.4294 C   0  0  0  0  0  0  0  0  0  0  0  0
  149.1771  135.7193  154.2237 C   0  0  0  0  0  0  0  0  0  0  0  0
  150.2278  134.7975  154.4096 C   0  0  0  0  0  0  0  0  0  0  0  0
  151.5058  135.2431  154.8043 C   0  0  0  0  0  0  0  0  0  0  0  0
  151.7415  136.6156  155.0144 C   0  0  0  0  0  0  0  0  0  0  0  0
  150.6896  137.5328  154.8253 C   0  0  0  0  0  0  0  0  0  0  0  0
  150.5863  138.9166  154.9419 N   0  0  0  0  0  0  0  0  0  0  0  0
  151.6641  139.8203  155.3192 C   0  0  0  0  0  0  0  0  0  0  0  0
  152.0829  139.6366  156.7831 C   0  0  0  0  0  0  0  0  0  0  0  0
  152.2059  140.9184  157.3817 O   0  0  0  0  0  0  0  0  0  0  0  0
  153.0193  141.0524  158.4884 C   0  0  0  0  0  0  0  0  0  0  0  0
  153.8406  140.0107  158.9905 C   0  0  0  0  0  0  0  0  0  0  0  0
  154.6456  140.2191  160.1249 C   0  0  0  0  0  0  0  0  0  0  0  0
  154.6400  141.4671  160.7699 C   0  0  0  0  0  0  0  0  0  0  0  0
  153.8292  142.5074  160.2811 C   0  0  0  0  0  0  0  0  0  0  0  0
  153.0137  142.3091  159.1379 C   0  0  0  0  0  0  0  0  0  0  0  0
  152.1966  143.2852  158.6045 O   0  0  0  0  0  0  0  0  0  0  0  0
  152.1627  144.5557  159.2381 C   0  0  0  0  0  0  0  0  0  0  0  0
  145.5210  141.9769  154.3873 H   0  0  0  0  0  0  0  0  0  0  0  0
  147.0179  142.7621  153.8975 H   0  0  0  0  0  0  0  0  0  0  0  0
  146.7415  142.3683  155.5948 H   0  0  0  0  0  0  0  0  0  0  0  0
  146.7311  139.9329  155.0216 H   0  0  0  0  0  0  0  0  0  0  0  0
  147.0448  140.2900  153.3463 H   0  0  0  0  0  0  0  0  0  0  0  0
  148.9139  141.0545  155.6385 H   0  0  0  0  0  0  0  0  0  0  0  0
  149.8486  140.9118  153.0957 H   0  0  0  0  0  0  0  0  0  0  0  0
  148.2011  135.3688  153.9221 H   0  0  0  0  0  0  0  0  0  0  0  0
  150.0525  133.7439  154.2489 H   0  0  0  0  0  0  0  0  0  0  0  0
  152.3056  134.5306  154.9447 H   0  0  0  0  0  0  0  0  0  0  0  0
  152.7204  136.9566  155.3169 H   0  0  0  0  0  0  0  0  0  0  0  0
  152.5191  139.6359  154.6683 H   0  0  0  0  0  0  0  0  0  0  0  0
  151.3606  140.8484  155.1230 H   0  0  0  0  0  0  0  0  0  0  0  0
  151.3346  139.0485  157.3145 H   0  0  0  0  0  0  0  0  0  0  0  0
  153.0350  139.1052  156.8306 H   0  0  0  0  0  0  0  0  0  0  0  0
  153.8727  139.0387  158.5226 H   0  0  0  0  0  0  0  0  0  0  0  0
  155.2684  139.4202  160.4999 H   0  0  0  0  0  0  0  0  0  0  0  0
  155.2584  141.6277  161.6409 H   0  0  0  0  0  0  0  0  0  0  0  0
  153.8517  143.4516  160.8033 H   0  0  0  0  0  0  0  0  0  0  0  0
  151.4803  145.2099  158.6957 H   0  0  0  0  0  0  0  0  0  0  0  0
  153.1447  145.0302  159.2354 H   0  0  0  0  0  0  0  0  0  0  0  0
  151.7998  144.4795  160.2640 H   0  0  0  0  0  0  0  0  0  0  0  0
  1  2  1  0  0  0  0
  1 25  1  0  0  0  0
  1 26  1  0  0  0  0
  1 27  1  0  0  0  0
  2  3  1  0  0  0  0
  2 28  1  0  0  0  0
  2 29  1  0  0  0  0
  3  4  1  0  0  0  0
  3  5  1  0  0  0  0
  3 30  1  0  0  0  0
  4 31  1  0  0  0  0
  5 13  1  0  0  0  0
  5  6  2  0  0  0  0
  6  7  1  0  0  0  0
  7 12  2  0  0  0  0
  7  8  1  0  0  0  0
  8  9  2  0  0  0  0
  8 32  1  0  0  0  0
  9 10  1  0  0  0  0
  9 33  1  0  0  0  0
 10 11  2  0  0  0  0
 10 34  1  0  0  0  0
 11 12  1  0  0  0  0
 11 35  1  0  0  0  0
 12 13  1  0  0  0  0
 13 14  1  0  0  0  0
 14 15  1  0  0  0  0
 14 36  1  0  0  0  0
 14 37  1  0  0  0  0
 15 16  1  0  0  0  0
 15 38  1  0  0  0  0
 15 39  1  0  0  0  0
 16 17  1  0  0  0  0
 17 22  1  0  0  0  0
 17 18  2  0  0  0  0
 18 19  1  0  0  0  0
 18 40  1  0  0  0  0
 19 20  2  0  0  0  0
 19 41  1  0  0  0  0
 20 21  1  0  0  0  0
 20 42  1  0  0  0  0
 21 22  2  0  0  0  0
 21 43  1  0  0  0  0
 22 23  1  0  0  0  0
 23 24  1  0  0  0  0
 24 44  1  0  0  0  0
 24 45  1  0  0  0  0
 24 46  1  0  0  0  0
M  END
> <s_m_source_file>
AV-unprocessed.smi

> <i_m_source_file_index>
460

> <i_lp_mmshare_version>
43012

> <i_f3d_flags>
0

> <s_epik_input>
W2NIXTFbY0hdW2NIXVtjSF1jKGMxMiluKGMobjIpW0NAQEhdKFtPSF0pW0NIMl1bQ0gzXSlbQ0gyXVtDSDJdT2MzW2NIXVtjSF1bY0hdW2NIXWMzT1tDSDNd

> <s_epik_cmdline>
J2VwaWtfcHl0aG9uJywgJy1waCcsICc3LjAnLCAnLXRuJywgJzgnLCAnLW1hJywgJzIwMCcsICctbWV0YWxfYmluZGluZycsICctaW1hZScsICc8aW5maWxlLm1hZT4nLCAnLW9tYWUnLCAnPG91dGZpbGUubWFlPic=

> <r_lp_tautomer_probability>
1

> <r_epik_Ionization_Penalty>
0.0507825

> <r_epik_Ionization_Penalty_Charging>
0

> <r_epik_Ionization_Penalty_Neutral>
0.0507825

> <r_epik_State_Penalty>
0.0434615

> <r_epik_Charging_Adjusted_Penalty>
0.0434615

> <i_epik_Tot_Q>
0

> <i_epik_Tot_abs_Q>
0

> <r_epik_Metal_State_Penalty>
4.50935e-05

> <b_epik_Metal_Only>
0

> <s_lp_Force_Field>
OPLS_2005

> <r_lp_Energy>
20.8142

> <b_lp_Chiralities_Consistent>
1

> <s_lp_Variant>
AV-unprocessed.smi:460-1

> <Gold.Version>
5.8.1

> <Gold.Id.Protein>
6NUR|6NUR_protein|mol2

> <Gold.PLP.Fitness>
49.8419

> <Gold.PLP.PLP>
-46.8699

> <Gold.PLP.part.hbond>
-3.0000

> <Gold.PLP.part.metal>
0.0000

> <Gold.PLP.part.buried>
-6.4369

> <Gold.PLP.part.nonpolar>
-37.7929

> <Gold.PLP.part.repulsive>
0.2019

> <Gold.PLP.ligand.clash>
0.0000

> <Gold.PLP.ligand.torsion>
0.5934

> <Gold.PLP.Chemscore.Hbond>
1.3320

> <Gold.PLP.Chemscore.CHOScore>
0.0000

> <Gold.PLP.Chemscore.Metal>
0.0000

> <Gold.Chemscore.Hbonds>
donor molecule, donor type, donor heavy atom, donor atom, acceptor molecule, acceptor atom, score
      L1  H     4    31       P1  7957  0.65

> <Gold.PLP.Chemscore.Internal.Correction>
0.1629

> <Gold.Rescore>
     Score         DG    S(hbond)    S(metal)    S(lipo)     H(rot)  DE(clash)    DE(int)     intcor
     15.72     -17.12       0.97        0.00     123.33       2.36       0.15       1.26       ----

> <Gold.Chemscore.Fitness>
15.7174

> <Gold.Chemscore.DG>
-17.1218

> <Gold.Chemscore.ZeroCoef>
-5.4800

> <Gold.Chemscore.Hbond>
0.9734

> <Gold.Chemscore.Metal>
0.0000

> <Gold.Chemscore.Lipo>
123.3261

> <Gold.Chemscore.Internal_Hbond>
0.0000

> <Gold.Chemscore.DEClash>
0.1451

> <Gold.Chemscore.DEInternal>
1.2593

> <Gold.Chemscore.Rot>
2.3587

> <Gold.Chemscore.Internal.Correction>
   9.000000E+99

> <Gold.Chemscore.Hbonds>
donor molecule, donor type, donor heavy atom, donor atom, acceptor molecule, acceptor atom, score
      L1  H     4    31       P1  7957  0.63

> <Gold.Chemscore.Hbond.Weighted>
-3.2510

> <Gold.Chemscore.Metal.Weighted>
-0.0000

> <Gold.Chemscore.Lipo.Weighted>
-14.4292

> <Gold.Chemscore.Internal_Hbond.Weighted>
0.0000

> <Gold.Chemscore.DEClash.Weighted>
0.1451

> <Gold.Chemscore.DEInternal.Weighted>
1.2593

> <Gold.Chemscore.Rot.Weighted>
6.0384

> <Gold.Chemscore.Internal.Correction.Weighted>
   9.000000E+99

> <Gold.Protein.RotatedTorsions>
[ 6907 6896 6895 6894 ] final   94.26 input  -60.11 | X-H torsion
[ 7974 7965 7964 7962 ] final -120.51 input  175.53 | X-H torsion
[ 8008 7997 7996 7995 ] final  -91.55 input   59.86 | X-H torsion
[ 10167 10162 10161 10158 ] final -137.98 input  -65.29 | X-H torsion
[ 10718 10713 10712 10709 ] final   -8.60 input   66.30 | X-H torsion
[ 10763 10752 10751 10750 ] final  -94.47 input  -60.55 | X-H torsion
[ 11005 11000 10999 10996 ] final    2.40 input  -57.11 | X-H torsion

> <Gold.Protein.ActiveResidues>
 VAL166  LYS551  ARG553  GLY616  TRP617  ASP618  TYR619  PRO620  LYS621  CYS622 
 ASP623  PHE694  ASN695  SER759  ASP760  ASP761  ALA762  ILE779  LEU786  VAL792 
 PHE793  MET794  SER795  GLU796  ALA797  LYS798  CYS799  TRP800  GLU811  SER814 

> <Gold.Protein.RotatedAtoms>
  152.5450  134.1220  159.8402 H   0  0  0  0  0  0  0  0  0  0  0  0  # atno 6907 bound_to 6896
  151.1275  133.5053  159.2607 H   0  0  0  0  0  0  0  0  0  0  0  0  # atno 6908 bound_to 6896
  151.1711  135.0328  159.8807 H   0  0  0  0  0  0  0  0  0  0  0  0  # atno 6909 bound_to 6896
  145.0505  140.8215  143.4212 H   0  0  0  0  0  0  0  0  0  0  0  0  # atno 7974 bound_to 7965
  154.7121  140.0518  157.0559 H   0  0  0  0  0  0  0  0  0  0  0  0  # atno 8008 bound_to 7997
  155.0541  140.3182  155.4663 H   0  0  0  0  0  0  0  0  0  0  0  0  # atno 8009 bound_to 7997
  156.2792  140.2110  156.5667 H   0  0  0  0  0  0  0  0  0  0  0  0  # atno 8010 bound_to 7997
  139.8524  143.7182  152.2657 H   0  0  0  0  0  0  0  0  0  0  0  0  # atno 10167 bound_to 10162
  156.7002  130.5091  149.5919 H   0  0  0  0  0  0  0  0  0  0  0  0  # atno 10718 bound_to 10713
  154.7058  135.5156  153.8593 H   0  0  0  0  0  0  0  0  0  0  0  0  # atno 10763 bound_to 10752
  153.0740  135.6610  154.0195 H   0  0  0  0  0  0  0  0  0  0  0  0  # atno 10764 bound_to 10752
  154.0046  135.3008  155.3378 H   0  0  0  0  0  0  0  0  0  0  0  0  # atno 10765 bound_to 10752
  140.6047  133.9803  155.8149 H   0  0  0  0  0  0  0  0  0  0  0  0  # atno 11005 bound_to 11000
  145.1533  139.2501  143.5429 LP  0  0  0  0  0  0  0  0  0  0  0  0  # atno 17320 bound_to 7965
  146.3517  140.1241  142.8599 LP  0  0  0  0  0  0  0  0  0  0  0  0  # atno 17321 bound_to 7965
  139.7453  144.7549  151.0590 LP  0  0  0  0  0  0  0  0  0  0  0  0  # atno 17342 bound_to 10162
  140.7786  143.4924  150.9876 LP  0  0  0  0  0  0  0  0  0  0  0  0  # atno 17343 bound_to 10162
  156.1734  130.6452  151.0865 LP  0  0  0  0  0  0  0  0  0  0  0  0  # atno 17370 bound_to 10713
  157.6976  131.0788  150.6922 LP  0  0  0  0  0  0  0  0  0  0  0  0  # atno 17371 bound_to 10713
  141.0848  134.0007  157.3330 LP  0  0  0  0  0  0  0  0  0  0  0  0  # atno 17394 bound_to 11000
  139.9217  135.0200  156.8089 LP  0  0  0  0  0  0  0  0  0  0  0  0  # atno 17395 bound_to 11000

$$$$
