AV-unprocessed.smi:3102|AV-procd|sdf|11813|dock1
  -GOLD-   2272017183D 1   1.00000     0.00000
 Structure written by MMmdl.
 31 32  0  0  0  0  0  0  0  0  1 V2000
  153.9082  141.6748  160.7977 C   0  0  0  0  0  0  0  0  0  0  0  0
  153.2460  140.6473  160.0684 O   0  0  0  0  0  0  0  0  0  0  0  0
  152.4074  141.0139  159.0360 C   0  0  0  0  0  0  0  0  0  0  0  0
  151.6984  140.0079  158.3527 C   0  0  0  0  0  0  0  0  0  0  0  0
  150.8399  140.3776  157.3008 C   0  0  0  0  0  0  0  0  0  0  0  0
  150.7103  141.7447  156.9595 C   0  0  0  0  0  0  0  0  0  0  0  0
  149.8728  142.1929  155.9241 N   0  0  0  0  0  0  0  0  0  0  0  0
  148.7718  141.3784  155.4254 C   0  0  1  0  0  0  0  0  0  0  0  0
  148.0077  142.0198  154.2830 C   0  0  0  0  0  0  0  0  0  0  0  0
  147.3237  140.8099  153.6540 C   0  0  0  0  0  0  0  0  0  0  0  0
  148.2043  139.7099  153.8695 O   0  0  0  0  0  0  0  0  0  0  0  0
  149.2480  140.0874  154.7630 C   0  0  0  0  0  0  0  0  0  0  0  0
  151.4715  142.6789  157.7047 C   0  0  0  0  0  0  0  0  0  0  0  0
  151.4068  144.1678  157.4115 C   0  0  0  0  0  0  0  0  0  0  0  0
  152.2959  142.3258  158.7156 N   0  0  0  0  0  0  0  0  0  0  0  0
  154.5258  141.2248  161.5748 H   0  0  0  0  0  0  0  0  0  0  0  0
  153.1949  142.3400  161.2865 H   0  0  0  0  0  0  0  0  0  0  0  0
  154.5635  142.2629  160.1536 H   0  0  0  0  0  0  0  0  0  0  0  0
  151.8107  138.9703  158.6302 H   0  0  0  0  0  0  0  0  0  0  0  0
  150.2982  139.6064  156.7749 H   0  0  0  0  0  0  0  0  0  0  0  0
  149.8559  143.1807  155.7136 H   0  0  0  0  0  0  0  0  0  0  0  0
  148.0901  141.1200  156.2365 H   0  0  0  0  0  0  0  0  0  0  0  0
  147.3017  142.7853  154.6048 H   0  0  0  0  0  0  0  0  0  0  0  0
  148.6965  142.4704  153.5664 H   0  0  0  0  0  0  0  0  0  0  0  0
  146.3795  140.6018  154.1583 H   0  0  0  0  0  0  0  0  0  0  0  0
  147.1170  140.9541  152.5933 H   0  0  0  0  0  0  0  0  0  0  0  0
  150.1504  140.2613  154.1743 H   0  0  0  0  0  0  0  0  0  0  0  0
  149.4622  139.2995  155.4857 H   0  0  0  0  0  0  0  0  0  0  0  0
  150.3885  144.5361  157.5392 H   0  0  0  0  0  0  0  0  0  0  0  0
  151.7201  144.3667  156.3862 H   0  0  0  0  0  0  0  0  0  0  0  0
  152.0570  144.7366  158.0774 H   0  0  0  0  0  0  0  0  0  0  0  0
  1  2  1  0  0  0  0
  1 16  1  0  0  0  0
  1 17  1  0  0  0  0
  1 18  1  0  0  0  0
  2  3  1  0  0  0  0
  3 15  1  0  0  0  0
  3  4  2  0  0  0  0
  4  5  1  0  0  0  0
  4 19  1  0  0  0  0
  5  6  2  0  0  0  0
  5 20  1  0  0  0  0
  6  7  1  0  0  0  0
  6 13  1  0  0  0  0
  7  8  1  0  0  0  0
  7 21  1  0  0  0  0
  8 12  1  0  0  0  0
  8  9  1  0  0  0  0
  8 22  1  0  0  0  0
  9 10  1  0  0  0  0
  9 23  1  0  0  0  0
  9 24  1  0  0  0  0
 10 11  1  0  0  0  0
 10 25  1  0  0  0  0
 10 26  1  0  0  0  0
 11 12  1  0  0  0  0
 12 27  1  0  0  0  0
 12 28  1  0  0  0  0
 13 14  1  0  0  0  0
 13 15  2  0  0  0  0
 14 29  1  0  0  0  0
 14 30  1  0  0  0  0
 14 31  1  0  0  0  0
M  END
> <s_m_source_file>
AV-unprocessed.smi

> <i_m_source_file_index>
3102

> <i_lp_mmshare_version>
43012

> <i_f3d_flags>
0

> <s_epik_input>
W0NIM11PYzFbY0hdW2NIXWMoYyhuMSlbQ0gzXSlbTkhdW0NAQEhdMltDSDJdW0NIMl1PW0NIMl0y

> <s_epik_cmdline>
J2VwaWtfcHl0aG9uJywgJy1waCcsICc3LjAnLCAnLXRuJywgJzgnLCAnLW1hJywgJzIwMCcsICctbWV0YWxfYmluZGluZycsICctaW1hZScsICc8aW5maWxlLm1hZT4nLCAnLW9tYWUnLCAnPG91dGZpbGUubWFlPic=

> <r_lp_tautomer_probability>
1

> <r_epik_Ionization_Penalty>
0.00117248

> <r_epik_Ionization_Penalty_Charging>
0

> <r_epik_Ionization_Penalty_Neutral>
0.00117248

> <r_epik_State_Penalty>
0.000742146

> <r_epik_Charging_Adjusted_Penalty>
0.000742146

> <i_epik_Tot_Q>
0

> <i_epik_Tot_abs_Q>
0

> <r_epik_Metal_State_Penalty>
-0

> <b_epik_Metal_Only>
0

> <s_lp_Force_Field>
OPLS_2005

> <r_lp_Energy>
20.62

> <b_lp_Chiralities_Consistent>
1

> <s_lp_Variant>
AV-unprocessed.smi:3102-2

> <Gold.Version>
5.8.1

> <Gold.Id.Protein>
6NUR|6NUR_protein|mol2

> <Gold.PLP.Fitness>
31.6061

> <Gold.PLP.PLP>
-28.9080

> <Gold.PLP.part.hbond>
-1.0000

> <Gold.PLP.part.metal>
0.0000

> <Gold.PLP.part.buried>
-3.0484

> <Gold.PLP.part.nonpolar>
-25.8756

> <Gold.PLP.part.repulsive>
1.3026

> <Gold.PLP.ligand.clash>
0.0000

> <Gold.PLP.ligand.torsion>
0.1118

> <Gold.PLP.Chemscore.Hbond>
0.9600

> <Gold.PLP.Chemscore.CHOScore>
0.0000

> <Gold.PLP.Chemscore.Metal>
0.0000

> <Gold.Chemscore.Hbonds>
donor molecule, donor type, donor heavy atom, donor atom, acceptor molecule, acceptor atom, score
      L1  H     7    21       P1  8028  0.96

> <Gold.PLP.Chemscore.Internal.Correction>
0.0418

> <Gold.Rescore>
     Score         DG    S(hbond)    S(metal)    S(lipo)     H(rot)  DE(clash)    DE(int)     intcor
     13.06     -14.35       0.99        0.00      73.58       1.18       0.03       1.26       ----

> <Gold.Chemscore.Fitness>
13.0601

> <Gold.Chemscore.DG>
-14.3467

> <Gold.Chemscore.ZeroCoef>
-5.4800

> <Gold.Chemscore.Hbond>
0.9850

> <Gold.Chemscore.Metal>
0.0000

> <Gold.Chemscore.Lipo>
73.5848

> <Gold.Chemscore.Internal_Hbond>
0.0000

> <Gold.Chemscore.DEClash>
0.0270

> <Gold.Chemscore.DEInternal>
1.2595

> <Gold.Chemscore.Rot>
1.1847

> <Gold.Chemscore.Internal.Correction>
   9.000000E+99

> <Gold.Chemscore.Hbonds>
donor molecule, donor type, donor heavy atom, donor atom, acceptor molecule, acceptor atom, score
      L1  H     7    21       P1  8028  0.92

> <Gold.Chemscore.Hbond.Weighted>
-3.2901

> <Gold.Chemscore.Metal.Weighted>
-0.0000

> <Gold.Chemscore.Lipo.Weighted>
-8.6094

> <Gold.Chemscore.Internal_Hbond.Weighted>
0.0000

> <Gold.Chemscore.DEClash.Weighted>
0.0270

> <Gold.Chemscore.DEInternal.Weighted>
1.2595

> <Gold.Chemscore.Rot.Weighted>
3.0328

> <Gold.Chemscore.Internal.Correction.Weighted>
   9.000000E+99

> <Gold.Protein.RotatedTorsions>
[ 6907 6896 6895 6894 ] final  175.02 input  -60.11 | X-H torsion
[ 7974 7965 7964 7962 ] final  176.29 input  175.53 | X-H torsion
[ 8008 7997 7996 7995 ] final -117.15 input   59.86 | X-H torsion
[ 10167 10162 10161 10158 ] final  -68.33 input  -65.29 | X-H torsion
[ 10718 10713 10712 10709 ] final  161.38 input   66.30 | X-H torsion
[ 10763 10752 10751 10750 ] final   84.30 input  -60.55 | X-H torsion
[ 11005 11000 10999 10996 ] final  -53.76 input  -57.11 | X-H torsion

> <Gold.Protein.ActiveResidues>
 VAL166  LYS551  ARG553  GLY616  TRP617  ASP618  TYR619  PRO620  LYS621  CYS622 
 ASP623  PHE694  ASN695  SER759  ASP760  ASP761  ALA762  ILE779  LEU786  VAL792 
 PHE793  MET794  SER795  GLU796  ALA797  LYS798  CYS799  TRP800  GLU811  SER814 

> <Gold.Protein.RotatedAtoms>
  151.7430  133.3323  159.3370 H   0  0  0  0  0  0  0  0  0  0  0  0  # atno 6907 bound_to 6896
  150.7566  134.6261  159.6171 H   0  0  0  0  0  0  0  0  0  0  0  0  # atno 6908 bound_to 6896
  152.3518  134.6997  160.0285 H   0  0  0  0  0  0  0  0  0  0  0  0  # atno 6909 bound_to 6896
  144.7187  140.0074  143.6440 H   0  0  0  0  0  0  0  0  0  0  0  0  # atno 7974 bound_to 7965
  155.0792  140.0394  157.2633 H   0  0  0  0  0  0  0  0  0  0  0  0  # atno 8008 bound_to 7997
  154.6920  140.2655  155.6778 H   0  0  0  0  0  0  0  0  0  0  0  0  # atno 8009 bound_to 7997
  156.2732  140.2757  156.1502 H   0  0  0  0  0  0  0  0  0  0  0  0  # atno 8010 bound_to 7997
  140.5515  143.2312  151.6902 H   0  0  0  0  0  0  0  0  0  0  0  0  # atno 10167 bound_to 10162
  157.1374  131.0532  151.2343 H   0  0  0  0  0  0  0  0  0  0  0  0  # atno 10718 bound_to 10713
  153.1369  135.4659  154.9436 H   0  0  0  0  0  0  0  0  0  0  0  0  # atno 10763 bound_to 10752
  154.7713  135.3160  154.8185 H   0  0  0  0  0  0  0  0  0  0  0  0  # atno 10764 bound_to 10752
  153.8716  135.6903  153.4828 H   0  0  0  0  0  0  0  0  0  0  0  0  # atno 10765 bound_to 10752
  141.0992  133.6620  156.4220 H   0  0  0  0  0  0  0  0  0  0  0  0  # atno 11005 bound_to 11000
  146.0286  139.3314  143.0769 LP  0  0  0  0  0  0  0  0  0  0  0  0  # atno 17320 bound_to 7965
  145.8481  140.9544  143.0764 LP  0  0  0  0  0  0  0  0  0  0  0  0  # atno 17321 bound_to 7965
  139.5029  144.3810  152.0376 LP  0  0  0  0  0  0  0  0  0  0  0  0  # atno 17342 bound_to 10162
  140.2927  144.3735  150.6083 LP  0  0  0  0  0  0  0  0  0  0  0  0  # atno 17343 bound_to 10162
  157.4338  130.7505  149.7012 LP  0  0  0  0  0  0  0  0  0  0  0  0  # atno 17370 bound_to 10713
  155.9795  130.4039  150.3581 LP  0  0  0  0  0  0  0  0  0  0  0  0  # atno 17371 bound_to 10713
  140.5064  134.6436  157.5268 LP  0  0  0  0  0  0  0  0  0  0  0  0  # atno 17394 bound_to 11000
  139.9838  134.7094  155.9811 LP  0  0  0  0  0  0  0  0  0  0  0  0  # atno 17395 bound_to 11000

$$$$
