AV-unprocessed.smi:2525|AV-procd|sdf|9929|dock9
  -GOLD-   2272013573D 1   1.00000     0.00000
 Structure written by MMmdl.
 44 45  0  0  0  0  0  0  0  0  1 V2000
  150.9346  142.0073  156.6542 C   0  0  0  0  0  0  0  0  0  0  0  0
  151.4126  140.5678  156.3991 C   0  0  0  0  0  0  0  0  0  0  0  0
  150.2962  139.4939  156.4153 C   0  0  0  0  0  0  0  0  0  0  0  0
  150.8962  138.1313  155.9914 C   0  0  0  0  0  0  0  0  0  0  0  0
  151.4790  138.0915  154.5698 C   0  0  0  0  0  0  0  0  0  0  0  0
  149.4244  139.5367  157.7061 C   0  0  2  0  0  0  0  0  0  0  0  0
  148.8413  138.2485  158.0803 N   0  0  0  0  0  0  0  0  0  0  0  0
  149.3474  137.4128  158.9995 C   0  0  0  0  0  0  0  0  0  0  0  0
  150.3988  137.6257  159.6023 O   0  0  0  0  0  0  0  0  0  0  0  0
  148.5517  136.1341  159.2728 C   0  0  0  0  0  0  0  0  0  0  0  0
  148.0971  136.0708  160.6517 N   0  0  0  0  0  0  0  0  0  0  0  0
  147.6749  134.9695  161.3689 C   0  0  0  0  0  0  0  0  0  0  0  0
  147.3516  135.4902  162.5890 C   0  0  0  0  0  0  0  0  0  0  0  0
  147.5882  136.8634  162.5657 N   0  0  0  0  0  0  0  0  0  0  0  0
  148.0361  137.2005  161.3972 N   0  0  0  0  0  0  0  0  0  0  0  0
  148.4042  140.4290  156.9759 C   0  0  2  0  0  0  0  0  0  0  0  0
  146.9097  140.2894  157.2588 C   0  0  0  0  0  0  0  0  0  0  0  0
  148.9946  139.8811  155.6684 C   0  0  1  0  0  0  0  0  0  0  0  0
  149.2091  140.8493  154.6518 O   0  0  0  0  0  0  0  0  0  0  0  0
  148.0064  141.3919  154.1359 C   0  0  0  0  0  0  0  0  0  0  0  0
  151.7540  142.7119  156.5122 H   0  0  0  0  0  0  0  0  0  0  0  0
  150.5718  142.1400  157.6729 H   0  0  0  0  0  0  0  0  0  0  0  0
  150.1343  142.2931  155.9717 H   0  0  0  0  0  0  0  0  0  0  0  0
  151.9133  140.5628  155.4309 H   0  0  0  0  0  0  0  0  0  0  0  0
  152.2009  140.3218  157.1100 H   0  0  0  0  0  0  0  0  0  0  0  0
  151.6499  137.7989  156.7049 H   0  0  0  0  0  0  0  0  0  0  0  0
  150.1251  137.3617  156.0253 H   0  0  0  0  0  0  0  0  0  0  0  0
  151.7563  137.0724  154.2996 H   0  0  0  0  0  0  0  0  0  0  0  0
  152.3780  138.7006  154.4807 H   0  0  0  0  0  0  0  0  0  0  0  0
  150.7558  138.4430  153.8337 H   0  0  0  0  0  0  0  0  0  0  0  0
  149.8911  140.0600  158.5421 H   0  0  0  0  0  0  0  0  0  0  0  0
  147.9746  137.9913  157.6307 H   0  0  0  0  0  0  0  0  0  0  0  0
  147.6853  136.0965  158.6116 H   0  0  0  0  0  0  0  0  0  0  0  0
  149.1615  135.2554  159.0561 H   0  0  0  0  0  0  0  0  0  0  0  0
  147.6400  133.9674  160.9677 H   0  0  0  0  0  0  0  0  0  0  0  0
  146.9715  134.9975  163.4719 H   0  0  0  0  0  0  0  0  0  0  0  0
  148.7103  141.4691  157.0999 H   0  0  0  0  0  0  0  0  0  0  0  0
  146.5332  139.3071  156.9723 H   0  0  0  0  0  0  0  0  0  0  0  0
  146.3314  141.0323  156.7103 H   0  0  0  0  0  0  0  0  0  0  0  0
  146.6963  140.4285  158.3189 H   0  0  0  0  0  0  0  0  0  0  0  0
  148.4581  139.0013  155.3060 H   0  0  0  0  0  0  0  0  0  0  0  0
  148.2381  142.0974  153.3380 H   0  0  0  0  0  0  0  0  0  0  0  0
  147.4504  141.9294  154.9037 H   0  0  0  0  0  0  0  0  0  0  0  0
  147.3675  140.6121  153.7197 H   0  0  0  0  0  0  0  0  0  0  0  0
  1  2  1  0  0  0  0
  1 21  1  0  0  0  0
  1 22  1  0  0  0  0
  1 23  1  0  0  0  0
  2  3  1  0  0  0  0
  2 24  1  0  0  0  0
  2 25  1  0  0  0  0
  3 18  1  0  0  0  0
  3  4  1  0  0  0  0
  3  6  1  0  0  0  0
  4  5  1  0  0  0  0
  4 26  1  0  0  0  0
  4 27  1  0  0  0  0
  5 28  1  0  0  0  0
  5 29  1  0  0  0  0
  5 30  1  0  0  0  0
  6  7  1  0  0  0  0
  6 16  1  0  0  0  0
  6 31  1  0  0  0  0
  7  8  1  0  0  0  0
  7 32  1  0  0  0  0
  8  9  2  0  0  0  0
  8 10  1  0  0  0  0
 10 11  1  0  0  0  0
 10 33  1  0  0  0  0
 10 34  1  0  0  0  0
 11 15  1  0  0  0  0
 11 12  1  0  0  0  0
 12 13  2  0  0  0  0
 12 35  1  0  0  0  0
 13 14  1  0  0  0  0
 13 36  1  0  0  0  0
 14 15  2  0  0  0  0
 16 17  1  0  0  0  0
 16 18  1  0  0  0  0
 16 37  1  0  0  0  0
 17 38  1  0  0  0  0
 17 39  1  0  0  0  0
 17 40  1  0  0  0  0
 18 19  1  0  0  0  0
 18 41  1  0  0  0  0
 19 20  1  0  0  0  0
 20 42  1  0  0  0  0
 20 43  1  0  0  0  0
 20 44  1  0  0  0  0
M  END
> <s_m_source_file>
AV-unprocessed.smi

> <i_m_source_file_index>
2525

> <i_lp_mmshare_version>
43012

> <i_f3d_flags>
0

> <s_epik_input>
W0NIM11PW0NAQEhdMVtDQEhdKFtDSDNdKVtDQEBIXShDMShbQ0gyXVtDSDNdKVtDSDJdW0NIM10pW05IXUMoPU8pW0NIMl1uMltjSF1bY0hdbm4y

> <s_epik_cmdline>
J2VwaWtfcHl0aG9uJywgJy1waCcsICc3LjAnLCAnLXRuJywgJzgnLCAnLW1hJywgJzIwMCcsICctbWV0YWxfYmluZGluZycsICctaW1hZScsICc8aW5maWxlLm1hZT4nLCAnLW9tYWUnLCAnPG91dGZpbGUubWFlPic=

> <r_lp_tautomer_probability>
1

> <r_epik_Ionization_Penalty>
1.18045e-06

> <r_epik_Ionization_Penalty_Charging>
0

> <r_epik_Ionization_Penalty_Neutral>
1.18045e-06

> <r_epik_State_Penalty>
-0

> <r_epik_Charging_Adjusted_Penalty>
0

> <i_epik_Tot_Q>
0

> <i_epik_Tot_abs_Q>
0

> <r_epik_Metal_State_Penalty>
-0

> <b_epik_Metal_Only>
0

> <s_lp_Force_Field>
OPLS_2005

> <r_lp_Energy>
27.9477

> <b_lp_Chiralities_Consistent>
1

> <s_lp_Variant>
AV-unprocessed.smi:2525-4

> <Gold.Version>
5.8.1

> <Gold.Id.Protein>
6NUR|6NUR_protein|mol2

> <Gold.PLP.Fitness>
35.7940

> <Gold.PLP.PLP>
-32.4893

> <Gold.PLP.part.hbond>
-3.8297

> <Gold.PLP.part.metal>
0.0000

> <Gold.PLP.part.buried>
-6.2917

> <Gold.PLP.part.nonpolar>
-23.4799

> <Gold.PLP.part.repulsive>
0.2426

> <Gold.PLP.ligand.clash>
0.0158

> <Gold.PLP.ligand.torsion>
0.7405

> <Gold.PLP.Chemscore.Hbond>
1.4161

> <Gold.PLP.Chemscore.CHOScore>
0.0000

> <Gold.PLP.Chemscore.Metal>
0.0000

> <Gold.Chemscore.Hbonds>
donor molecule, donor type, donor heavy atom, donor atom, acceptor molecule, acceptor atom, score
      P1  H  6931  6943       L1    15  0.80
      P1  H  6934  6947       L1    15  0.60

> <Gold.PLP.Chemscore.Internal.Correction>
0.5532

> <Gold.Rescore>
     Score         DG    S(hbond)    S(metal)    S(lipo)     H(rot)  DE(clash)    DE(int)     intcor
      9.96     -13.06       1.55        0.00      63.81       1.98       0.05       3.05       ----

> <Gold.Chemscore.Fitness>
9.9634

> <Gold.Chemscore.DG>
-13.0605

> <Gold.Chemscore.ZeroCoef>
-5.4800

> <Gold.Chemscore.Hbond>
1.5531

> <Gold.Chemscore.Metal>
0.0000

> <Gold.Chemscore.Lipo>
63.8140

> <Gold.Chemscore.Internal_Hbond>
0.0000

> <Gold.Chemscore.DEClash>
0.0456

> <Gold.Chemscore.DEInternal>
3.0515

> <Gold.Chemscore.Rot>
1.9817

> <Gold.Chemscore.Internal.Correction>
   9.000000E+99

> <Gold.Chemscore.Hbonds>
donor molecule, donor type, donor heavy atom, donor atom, acceptor molecule, acceptor atom, score
      P1  H  6931  6943       L1    15  0.11
      P1  H  6934  6947       L1    15  0.35

> <Gold.Chemscore.Hbond.Weighted>
-5.1874

> <Gold.Chemscore.Metal.Weighted>
-0.0000

> <Gold.Chemscore.Lipo.Weighted>
-7.4662

> <Gold.Chemscore.Internal_Hbond.Weighted>
0.0000

> <Gold.Chemscore.DEClash.Weighted>
0.0456

> <Gold.Chemscore.DEInternal.Weighted>
3.0515

> <Gold.Chemscore.Rot.Weighted>
5.0731

> <Gold.Chemscore.Internal.Correction.Weighted>
   9.000000E+99

> <Gold.Protein.RotatedTorsions>
[ 6907 6896 6895 6894 ] final   17.01 input  -60.11 | X-H torsion
[ 7974 7965 7964 7962 ] final   -7.18 input  175.53 | X-H torsion
[ 8008 7997 7996 7995 ] final   62.64 input   59.86 | X-H torsion
[ 10167 10162 10161 10158 ] final  127.80 input  -65.29 | X-H torsion
[ 10718 10713 10712 10709 ] final  135.06 input   66.30 | X-H torsion
[ 10763 10752 10751 10750 ] final -112.01 input  -60.55 | X-H torsion
[ 11005 11000 10999 10996 ] final -149.08 input  -57.11 | X-H torsion

> <Gold.Protein.ActiveResidues>
 VAL166  LYS551  ARG553  GLY616  TRP617  ASP618  TYR619  PRO620  LYS621  CYS622 
 ASP623  PHE694  ASN695  SER759  ASP760  ASP761  ALA762  ILE779  LEU786  VAL792 
 PHE793  MET794  SER795  GLU796  ALA797  LYS798  CYS799  TRP800  GLU811  SER814 

> <Gold.Protein.RotatedAtoms>
  151.8429  135.0584  160.0449 H   0  0  0  0  0  0  0  0  0  0  0  0  # atno 6907 bound_to 6896
  152.2795  133.5452  159.5497 H   0  0  0  0  0  0  0  0  0  0  0  0  # atno 6908 bound_to 6896
  150.7183  134.0500  159.3837 H   0  0  0  0  0  0  0  0  0  0  0  0  # atno 6909 bound_to 6896
  146.2313  140.2282  142.8339 H   0  0  0  0  0  0  0  0  0  0  0  0  # atno 7974 bound_to 7965
  155.6175  140.3495  155.4641 H   0  0  0  0  0  0  0  0  0  0  0  0  # atno 8008 bound_to 7997
  156.0105  140.1232  157.0482 H   0  0  0  0  0  0  0  0  0  0  0  0  # atno 8009 bound_to 7997
  154.4279  140.1082  156.5809 H   0  0  0  0  0  0  0  0  0  0  0  0  # atno 8010 bound_to 7997
  139.5560  144.6848  151.4183 H   0  0  0  0  0  0  0  0  0  0  0  0  # atno 10167 bound_to 10162
  157.4610  131.1073  150.9920 H   0  0  0  0  0  0  0  0  0  0  0  0  # atno 10718 bound_to 10713
  154.8329  135.4506  154.1127 H   0  0  0  0  0  0  0  0  0  0  0  0  # atno 10763 bound_to 10752
  153.2385  135.6913  153.7816 H   0  0  0  0  0  0  0  0  0  0  0  0  # atno 10764 bound_to 10752
  153.7172  135.3347  155.3235 H   0  0  0  0  0  0  0  0  0  0  0  0  # atno 10765 bound_to 10752
  140.7545  134.3369  157.5117 H   0  0  0  0  0  0  0  0  0  0  0  0  # atno 11005 bound_to 11000
  144.9579  140.8245  143.5532 LP  0  0  0  0  0  0  0  0  0  0  0  0  # atno 17320 bound_to 7965
  145.2249  139.2142  143.5073 LP  0  0  0  0  0  0  0  0  0  0  0  0  # atno 17321 bound_to 7965
  140.6832  143.8034  150.7150 LP  0  0  0  0  0  0  0  0  0  0  0  0  # atno 17342 bound_to 10162
  140.1493  143.4371  152.2141 LP  0  0  0  0  0  0  0  0  0  0  0  0  # atno 17343 bound_to 10162
  157.0718  130.5867  149.5404 LP  0  0  0  0  0  0  0  0  0  0  0  0  # atno 17370 bound_to 10713
  156.0028  130.5110  150.7726 LP  0  0  0  0  0  0  0  0  0  0  0  0  # atno 17371 bound_to 10713
  139.8781  134.9163  156.3151 LP  0  0  0  0  0  0  0  0  0  0  0  0  # atno 17394 bound_to 11000
  140.9721  133.7321  156.0549 LP  0  0  0  0  0  0  0  0  0  0  0  0  # atno 17395 bound_to 11000

$$$$
