AV-unprocessed.smi:837|AV-procd|sdf|3895|dock6
  -GOLD-   22720 1353D 1   1.00000     0.00000
 Structure written by MMmdl.
 49 51  0  0  0  0  0  0  0  0  1 V2000
  148.1723  132.6738  153.7564 C   0  0  0  0  0  0  0  0  0  0  0  0
  148.9588  131.8843  154.8249 C   0  0  1  0  0  0  0  0  0  0  0  0
  149.9129  130.8773  154.1462 C   0  0  0  0  0  0  0  0  0  0  0  0
  150.6694  130.0195  155.1726 C   0  0  0  0  0  0  0  0  0  0  0  0
  151.4427  130.8942  156.1691 C   0  0  0  0  0  0  0  0  0  0  0  0
  150.5035  131.8913  156.8663 C   0  0  0  0  0  0  0  0  0  0  0  0
  149.7328  132.7693  155.8510 C   0  0  1  0  0  0  0  0  0  0  0  0
  150.6236  133.7174  155.2021 N   0  0  0  0  0  0  0  0  0  0  0  0
  150.3359  134.9915  155.4983 C   0  0  0  0  0  0  0  0  0  0  0  0
  150.9541  135.9713  155.0855 O   0  0  0  0  0  0  0  0  0  0  0  0
  149.2670  135.0045  156.3153 N   0  0  0  0  0  0  0  0  0  0  0  0
  148.6691  136.2172  156.8871 C   0  0  0  0  0  0  0  0  0  0  0  0
  149.6806  137.0512  157.6843 C   0  0  0  0  0  0  0  0  0  0  0  0
  150.2589  136.5728  158.6609 O   0  0  0  0  0  0  0  0  0  0  0  0
  149.8885  138.3018  157.2477 N   0  0  0  0  0  0  0  0  0  0  0  0
  150.7781  139.2752  157.8743 C   0  0  0  0  0  0  0  0  0  0  0  0
  150.6191  140.6971  157.2974 C   0  0  0  0  0  0  0  0  0  0  0  0
  151.3414  141.7643  158.1023 C   0  0  0  0  0  0  0  0  0  0  0  0
  152.1151  141.4215  159.2307 C   0  0  0  0  0  0  0  0  0  0  0  0
  152.7541  142.4478  159.9522 C   0  0  0  0  0  0  0  0  0  0  0  0
  152.5926  143.7767  159.5127 C   0  0  0  0  0  0  0  0  0  0  0  0
  151.8567  144.1169  158.4323 N   0  0  0  0  0  0  0  0  0  0  0  0
  151.2473  143.1262  157.7460 C   0  0  0  0  0  0  0  0  0  0  0  0
  148.8388  133.7628  156.5815 C   0  0  0  0  0  0  0  0  0  0  0  0
  147.8875  133.4411  157.2940 O   0  0  0  0  0  0  0  0  0  0  0  0
  148.8319  133.2847  153.1398 H   0  0  0  0  0  0  0  0  0  0  0  0
  147.4277  133.3328  154.2033 H   0  0  0  0  0  0  0  0  0  0  0  0
  147.6377  131.9969  153.0897 H   0  0  0  0  0  0  0  0  0  0  0  0
  148.2265  131.2998  155.3850 H   0  0  0  0  0  0  0  0  0  0  0  0
  149.3500  130.2239  153.4789 H   0  0  0  0  0  0  0  0  0  0  0  0
  150.6292  131.4094  153.5188 H   0  0  0  0  0  0  0  0  0  0  0  0
  149.9630  129.3880  155.7126 H   0  0  0  0  0  0  0  0  0  0  0  0
  151.3561  129.3458  154.6594 H   0  0  0  0  0  0  0  0  0  0  0  0
  151.9326  130.2648  156.9124 H   0  0  0  0  0  0  0  0  0  0  0  0
  152.2364  131.4318  155.6491 H   0  0  0  0  0  0  0  0  0  0  0  0
  149.7954  131.3348  157.4825 H   0  0  0  0  0  0  0  0  0  0  0  0
  151.0778  132.5138  157.5547 H   0  0  0  0  0  0  0  0  0  0  0  0
  151.3854  133.4304  154.6047 H   0  0  0  0  0  0  0  0  0  0  0  0
  148.2486  136.8440  156.0994 H   0  0  0  0  0  0  0  0  0  0  0  0
  147.8290  135.9431  157.5285 H   0  0  0  0  0  0  0  0  0  0  0  0
  149.3740  138.6121  156.4361 H   0  0  0  0  0  0  0  0  0  0  0  0
  150.6293  139.2824  158.9550 H   0  0  0  0  0  0  0  0  0  0  0  0
  151.7988  138.9309  157.7066 H   0  0  0  0  0  0  0  0  0  0  0  0
  150.9863  140.7208  156.2705 H   0  0  0  0  0  0  0  0  0  0  0  0
  149.5608  140.9542  157.2418 H   0  0  0  0  0  0  0  0  0  0  0  0
  152.2109  140.3926  159.5461 H   0  0  0  0  0  0  0  0  0  0  0  0
  153.3486  142.2216  160.8248 H   0  0  0  0  0  0  0  0  0  0  0  0
  153.0664  144.5888  160.0443 H   0  0  0  0  0  0  0  0  0  0  0  0
  150.6624  143.4301  156.8903 H   0  0  0  0  0  0  0  0  0  0  0  0
  1  2  1  0  0  0  0
  1 26  1  0  0  0  0
  1 27  1  0  0  0  0
  1 28  1  0  0  0  0
  2  7  1  0  0  0  0
  2  3  1  0  0  0  0
  2 29  1  0  0  0  0
  3  4  1  0  0  0  0
  3 30  1  0  0  0  0
  3 31  1  0  0  0  0
  4  5  1  0  0  0  0
  4 32  1  0  0  0  0
  4 33  1  0  0  0  0
  5  6  1  0  0  0  0
  5 34  1  0  0  0  0
  5 35  1  0  0  0  0
  6  7  1  0  0  0  0
  6 36  1  0  0  0  0
  6 37  1  0  0  0  0
  7 24  1  0  0  0  0
  7  8  1  0  0  0  0
  8  9  1  0  0  0  0
  8 38  1  0  0  0  0
  9 10  2  0  0  0  0
  9 11  1  0  0  0  0
 11 12  1  0  0  0  0
 11 24  1  0  0  0  0
 12 13  1  0  0  0  0
 12 39  1  0  0  0  0
 12 40  1  0  0  0  0
 13 14  2  0  0  0  0
 13 15  1  0  0  0  0
 15 16  1  0  0  0  0
 15 41  1  0  0  0  0
 16 17  1  0  0  0  0
 16 42  1  0  0  0  0
 16 43  1  0  0  0  0
 17 18  1  0  0  0  0
 17 44  1  0  0  0  0
 17 45  1  0  0  0  0
 18 23  1  0  0  0  0
 18 19  2  0  0  0  0
 19 20  1  0  0  0  0
 19 46  1  0  0  0  0
 20 21  2  0  0  0  0
 20 47  1  0  0  0  0
 21 22  1  0  0  0  0
 21 48  1  0  0  0  0
 22 23  2  0  0  0  0
 23 49  1  0  0  0  0
 24 25  2  0  0  0  0
M  END
> <s_m_source_file>
AV-unprocessed.smi

> <i_m_source_file_index>
837

> <i_lp_mmshare_version>
43012

> <i_f3d_flags>
0

> <s_epik_input>
W0NIMl0xW0NIMl1bQ0gyXVtDSDJdW0NAQEhdKFtDSDNdKVtDQEBdMTJbTkhdQyg9TylOKEMyPU8pW0NIMl1DKD1PKVtOSF1bQ0gyXVtDSDJdYzNbY0hdW2NIXVtjSF1uW2NIXTM=

> <s_epik_cmdline>
J2VwaWtfcHl0aG9uJywgJy1waCcsICc3LjAnLCAnLXRuJywgJzgnLCAnLW1hJywgJzIwMCcsICctbWV0YWxfYmluZGluZycsICctaW1hZScsICc8aW5maWxlLm1hZT4nLCAnLW9tYWUnLCAnPG91dGZpbGUubWFlPic=

> <r_lp_tautomer_probability>
1

> <r_epik_Ionization_Penalty>
0.0127837

> <r_epik_Ionization_Penalty_Charging>
0

> <r_epik_Ionization_Penalty_Neutral>
0.0127837

> <r_epik_State_Penalty>
0.00987657

> <r_epik_Charging_Adjusted_Penalty>
0.00987657

> <i_epik_Tot_Q>
0

> <i_epik_Tot_abs_Q>
0

> <r_epik_Metal_State_Penalty>
0.0309865

> <b_epik_Metal_Only>
0

> <s_lp_Force_Field>
OPLS_2005

> <r_lp_Energy>
22.8196

> <b_lp_Chiralities_Consistent>
1

> <s_lp_Variant>
AV-unprocessed.smi:837-4

> <Gold.Version>
5.8.1

> <Gold.Id.Protein>
6NUR|6NUR_protein|mol2

> <Gold.PLP.Fitness>
44.7432

> <Gold.PLP.PLP>
-35.9000

> <Gold.PLP.part.hbond>
-2.0000

> <Gold.PLP.part.metal>
0.0000

> <Gold.PLP.part.buried>
-4.0641

> <Gold.PLP.part.nonpolar>
-29.8621

> <Gold.PLP.part.repulsive>
0.3205

> <Gold.PLP.ligand.clash>
0.0000

> <Gold.PLP.ligand.torsion>
0.0916

> <Gold.PLP.Chemscore.Hbond>
2.0000

> <Gold.PLP.Chemscore.CHOScore>
1.0000

> <Gold.PLP.Chemscore.Metal>
0.0000

> <Gold.Chemscore.Hbonds>
donor molecule, donor type, donor heavy atom, donor atom, acceptor molecule, acceptor atom, score
      P1  H  6896  6907       L1    14  0.93
      P1  H 10752 10763       L1    10  0.86
      L1  C    23    49       P1  8028  1.00

> <Gold.PLP.Chemscore.Internal.Correction>
0.0264

> <Gold.Rescore>
     Score         DG    S(hbond)    S(metal)    S(lipo)     H(rot)  DE(clash)    DE(int)     intcor
     18.42     -18.52       1.94        0.00      96.63       1.86       0.00       0.09       ----

> <Gold.Chemscore.Fitness>
18.4241

> <Gold.Chemscore.DG>
-18.5173

> <Gold.Chemscore.ZeroCoef>
-5.4800

> <Gold.Chemscore.Hbond>
1.9405

> <Gold.Chemscore.Metal>
0.0000

> <Gold.Chemscore.Lipo>
96.6299

> <Gold.Chemscore.Internal_Hbond>
0.0000

> <Gold.Chemscore.DEClash>
0.0000

> <Gold.Chemscore.DEInternal>
0.0931

> <Gold.Chemscore.Rot>
1.8553

> <Gold.Chemscore.Internal.Correction>
   9.000000E+99

> <Gold.Chemscore.Hbonds>
donor molecule, donor type, donor heavy atom, donor atom, acceptor molecule, acceptor atom, score
      P1  H  6896  6907       L1    14  0.87
      P1  H 10752 10763       L1    10  0.76

> <Gold.Chemscore.Hbond.Weighted>
-6.4813

> <Gold.Chemscore.Metal.Weighted>
-0.0000

> <Gold.Chemscore.Lipo.Weighted>
-11.3057

> <Gold.Chemscore.Internal_Hbond.Weighted>
0.0000

> <Gold.Chemscore.DEClash.Weighted>
0.0000

> <Gold.Chemscore.DEInternal.Weighted>
0.0931

> <Gold.Chemscore.Rot.Weighted>
4.7497

> <Gold.Chemscore.Internal.Correction.Weighted>
   9.000000E+99

> <Gold.Protein.RotatedTorsions>
[ 6907 6896 6895 6894 ] final  -36.70 input  -60.11 | X-H torsion
[ 7974 7965 7964 7962 ] final -170.33 input  175.53 | X-H torsion
[ 8008 7997 7996 7995 ] final   28.67 input   59.86 | X-H torsion
[ 10167 10162 10161 10158 ] final   -9.15 input  -65.29 | X-H torsion
[ 10718 10713 10712 10709 ] final -105.77 input   66.30 | X-H torsion
[ 10763 10752 10751 10750 ] final   53.34 input  -60.55 | X-H torsion
[ 11005 11000 10999 10996 ] final   22.92 input  -57.11 | X-H torsion

> <Gold.Protein.ActiveResidues>
 VAL166  LYS551  ARG553  GLY616  TRP617  ASP618  TYR619  PRO620  LYS621  CYS622 
 ASP623  PHE694  ASN695  SER759  ASP760  ASP761  ALA762  ILE779  LEU786  VAL792 
 PHE793  MET794  SER795  GLU796  ALA797  LYS798  CYS799  TRP800  GLU811  SER814 

> <Gold.Protein.RotatedAtoms>
  151.0239  134.9489  159.8074 H   0  0  0  0  0  0  0  0  0  0  0  0  # atno 6907 bound_to 6896
  152.5331  134.2868  159.9038 H   0  0  0  0  0  0  0  0  0  0  0  0  # atno 6908 bound_to 6896
  151.2876  133.4138  159.2665 H   0  0  0  0  0  0  0  0  0  0  0  0  # atno 6909 bound_to 6896
  144.7172  140.2088  143.6330 H   0  0  0  0  0  0  0  0  0  0  0  0  # atno 7974 bound_to 7965
  155.0624  140.3191  155.4656 H   0  0  0  0  0  0  0  0  0  0  0  0  # atno 8008 bound_to 7997
  156.2810  140.2126  156.5695 H   0  0  0  0  0  0  0  0  0  0  0  0  # atno 8009 bound_to 7997
  154.7121  140.0497  157.0548 H   0  0  0  0  0  0  0  0  0  0  0  0  # atno 8010 bound_to 7997
  140.7079  143.5889  150.8914 H   0  0  0  0  0  0  0  0  0  0  0  0  # atno 10167 bound_to 10162
  156.0360  130.5580  150.7585 H   0  0  0  0  0  0  0  0  0  0  0  0  # atno 10718 bound_to 10713
  152.9794  135.5782  154.4725 H   0  0  0  0  0  0  0  0  0  0  0  0  # atno 10763 bound_to 10752
  154.4285  135.2773  155.1930 H   0  0  0  0  0  0  0  0  0  0  0  0  # atno 10764 bound_to 10752
  154.3648  135.6181  153.5763 H   0  0  0  0  0  0  0  0  0  0  0  0  # atno 10765 bound_to 10752
  140.3753  134.1979  155.7665 H   0  0  0  0  0  0  0  0  0  0  0  0  # atno 11005 bound_to 11000
  145.8611  139.2223  143.1716 LP  0  0  0  0  0  0  0  0  0  0  0  0  # atno 17320 bound_to 7965
  146.0173  140.8381  142.9941 LP  0  0  0  0  0  0  0  0  0  0  0  0  # atno 17321 bound_to 7965
  139.9615  143.6159  152.3001 LP  0  0  0  0  0  0  0  0  0  0  0  0  # atno 17342 bound_to 10162
  139.6713  144.7660  151.1778 LP  0  0  0  0  0  0  0  0  0  0  0  0  # atno 17343 bound_to 10162
  157.5111  131.0925  151.0197 LP  0  0  0  0  0  0  0  0  0  0  0  0  # atno 17370 bound_to 10713
  157.0552  130.5803  149.5377 LP  0  0  0  0  0  0  0  0  0  0  0  0  # atno 17371 bound_to 10713
  141.1941  133.8135  157.0770 LP  0  0  0  0  0  0  0  0  0  0  0  0  # atno 17394 bound_to 11000
  140.0520  134.9800  157.1153 LP  0  0  0  0  0  0  0  0  0  0  0  0  # atno 17395 bound_to 11000

$$$$
