AV-unprocessed.smi:1745|AV-procd|sdf|7031|dock1
  -GOLD-   22720 8253D 1   1.00000     0.00000
 Structure written by MMmdl.
 47 49  0  0  0  0  0  0  0  0  1 V2000
  144.2688  136.9878  152.7515 C   0  0  0  0  0  0  0  0  0  0  0  0
  145.3040  135.8643  152.9105 C   0  0  2  0  0  0  0  0  0  0  0  0
  146.6102  136.4665  153.1736 N   0  0  0  0  0  0  0  0  0  0  0  0
  146.9136  137.2699  154.2035 C   0  0  0  0  0  0  0  0  0  0  0  0
  146.1114  137.5853  155.0819 O   0  0  0  0  0  0  0  0  0  0  0  0
  148.1900  137.6838  154.1319 N   0  0  0  0  0  0  0  0  0  0  0  0
  148.8787  138.5749  154.9980 C   0  0  0  0  0  0  0  0  0  0  0  0
  148.4897  138.8557  156.3280 C   0  0  0  0  0  0  0  0  0  0  0  0
  149.2637  139.7519  157.0897 C   0  0  0  0  0  0  0  0  0  0  0  0
  150.4125  140.3410  156.5111 C   0  0  0  0  0  0  0  0  0  0  0  0
  151.1959  141.2500  157.2549 N   0  0  0  0  0  0  0  0  0  0  0  0
  150.6883  142.6177  157.3293 C   0  0  0  0  0  0  0  0  0  0  0  0
  151.7718  143.5613  157.8800 C   0  0  0  0  0  0  0  0  0  0  0  0
  152.2451  143.0754  159.1320 O   0  0  0  0  0  0  0  0  0  0  0  0
  152.8378  141.7867  159.0104 C   0  0  0  0  0  0  0  0  0  0  0  0
  151.7896  140.7810  158.5053 C   0  0  0  0  0  0  0  0  0  0  0  0
  150.7879  140.0599  155.2392 N   0  0  0  0  0  0  0  0  0  0  0  0
  150.0454  139.1982  154.5138 C   0  0  0  0  0  0  0  0  0  0  0  0
  145.3647  134.9576  151.6635 C   0  0  1  0  0  0  0  0  0  0  0  0
  146.3627  133.8005  151.7502 C   0  0  0  0  0  0  0  0  0  0  0  0
  145.7862  132.8227  150.7530 C   0  0  0  0  0  0  0  0  0  0  0  0
  144.2879  132.9879  150.9871 C   0  0  0  0  0  0  0  0  0  0  0  0
  144.1050  134.3256  151.4448 O   0  0  0  0  0  0  0  0  0  0  0  0
  143.2697  136.5836  152.5875 H   0  0  0  0  0  0  0  0  0  0  0  0
  144.5092  137.6338  151.9062 H   0  0  0  0  0  0  0  0  0  0  0  0
  144.2258  137.6110  153.6455 H   0  0  0  0  0  0  0  0  0  0  0  0
  144.9980  135.2557  153.7635 H   0  0  0  0  0  0  0  0  0  0  0  0
  147.3382  136.2661  152.5037 H   0  0  0  0  0  0  0  0  0  0  0  0
  148.7049  137.3919  153.3143 H   0  0  0  0  0  0  0  0  0  0  0  0
  147.6237  138.3993  156.7814 H   0  0  0  0  0  0  0  0  0  0  0  0
  148.9600  139.9854  158.0991 H   0  0  0  0  0  0  0  0  0  0  0  0
  150.3627  142.9822  156.3562 H   0  0  0  0  0  0  0  0  0  0  0  0
  149.8142  142.6324  157.9816 H   0  0  0  0  0  0  0  0  0  0  0  0
  152.6013  143.6528  157.1767 H   0  0  0  0  0  0  0  0  0  0  0  0
  151.3622  144.5618  158.0201 H   0  0  0  0  0  0  0  0  0  0  0  0
  153.6929  141.8302  158.3339 H   0  0  0  0  0  0  0  0  0  0  0  0
  153.2172  141.4756  159.9838 H   0  0  0  0  0  0  0  0  0  0  0  0
  151.0047  140.6522  159.2518 H   0  0  0  0  0  0  0  0  0  0  0  0
  152.2636  139.8097  158.3571 H   0  0  0  0  0  0  0  0  0  0  0  0
  150.3921  139.0082  153.5084 H   0  0  0  0  0  0  0  0  0  0  0  0
  145.5925  135.5530  150.7775 H   0  0  0  0  0  0  0  0  0  0  0  0
  147.3844  134.0987  151.5132 H   0  0  0  0  0  0  0  0  0  0  0  0
  146.3565  133.3595  152.7482 H   0  0  0  0  0  0  0  0  0  0  0  0
  146.0454  133.1271  149.7381 H   0  0  0  0  0  0  0  0  0  0  0  0
  146.1314  131.7996  150.9033 H   0  0  0  0  0  0  0  0  0  0  0  0
  143.7040  132.7918  150.0877 H   0  0  0  0  0  0  0  0  0  0  0  0
  143.9464  132.3068  151.7674 H   0  0  0  0  0  0  0  0  0  0  0  0
  1  2  1  0  0  0  0
  1 24  1  0  0  0  0
  1 25  1  0  0  0  0
  1 26  1  0  0  0  0
  2  3  1  0  0  0  0
  2 19  1  0  0  0  0
  2 27  1  0  0  0  0
  3  4  1  0  0  0  0
  3 28  1  0  0  0  0
  4  5  2  0  0  0  0
  4  6  1  0  0  0  0
  6  7  1  0  0  0  0
  6 29  1  0  0  0  0
  7 18  1  0  0  0  0
  7  8  2  0  0  0  0
  8  9  1  0  0  0  0
  8 30  1  0  0  0  0
  9 10  2  0  0  0  0
  9 31  1  0  0  0  0
 10 11  1  0  0  0  0
 10 17  1  0  0  0  0
 11 16  1  0  0  0  0
 11 12  1  0  0  0  0
 12 13  1  0  0  0  0
 12 32  1  0  0  0  0
 12 33  1  0  0  0  0
 13 14  1  0  0  0  0
 13 34  1  0  0  0  0
 13 35  1  0  0  0  0
 14 15  1  0  0  0  0
 15 16  1  0  0  0  0
 15 36  1  0  0  0  0
 15 37  1  0  0  0  0
 16 38  1  0  0  0  0
 16 39  1  0  0  0  0
 17 18  2  0  0  0  0
 18 40  1  0  0  0  0
 19 23  1  0  0  0  0
 19 20  1  0  0  0  0
 19 41  1  0  0  0  0
 20 21  1  0  0  0  0
 20 42  1  0  0  0  0
 20 43  1  0  0  0  0
 21 22  1  0  0  0  0
 21 44  1  0  0  0  0
 21 45  1  0  0  0  0
 22 23  1  0  0  0  0
 22 46  1  0  0  0  0
 22 47  1  0  0  0  0
M  END
> <s_m_source_file>
AV-unprocessed.smi

> <i_m_source_file_index>
1745

> <i_lp_mmshare_version>
43012

> <i_f3d_flags>
0

> <s_epik_input>
TzFbQ0gyXVtDSDJdW0NIMl1bQ0BIXTFbQ0BIXShbQ0gzXSlbTkhdQyg9TylbTkhdYzJbY0hdW2NIXWMobltjSF0yKU4zW0NIMl1bQ0gyXU9bQ0gyXVtDSDJdMw==

> <s_epik_cmdline>
J2VwaWtfcHl0aG9uJywgJy1waCcsICc3LjAnLCAnLXRuJywgJzgnLCAnLW1hJywgJzIwMCcsICctbWV0YWxfYmluZGluZycsICctaW1hZScsICc8aW5maWxlLm1hZT4nLCAnLW9tYWUnLCAnPG91dGZpbGUubWFlPic=

> <r_lp_tautomer_probability>
1

> <r_epik_Ionization_Penalty>
0.00206005

> <r_epik_Ionization_Penalty_Charging>
0

> <r_epik_Ionization_Penalty_Neutral>
0.00206005

> <r_epik_State_Penalty>
0.00138459

> <r_epik_Charging_Adjusted_Penalty>
0.00138459

> <i_epik_Tot_Q>
0

> <i_epik_Tot_abs_Q>
0

> <r_epik_Metal_State_Penalty>
-0

> <b_epik_Metal_Only>
0

> <s_lp_Force_Field>
OPLS_2005

> <r_lp_Energy>
34.4703

> <b_lp_Chiralities_Consistent>
1

> <s_lp_Variant>
AV-unprocessed.smi:1745-3

> <Gold.Version>
5.8.1

> <Gold.Id.Protein>
6NUR|6NUR_protein|mol2

> <Gold.PLP.Fitness>
42.8811

> <Gold.PLP.PLP>
-32.8101

> <Gold.PLP.part.hbond>
-3.0000

> <Gold.PLP.part.metal>
0.0000

> <Gold.PLP.part.buried>
-6.1859

> <Gold.PLP.part.nonpolar>
-24.7034

> <Gold.PLP.part.repulsive>
0.3052

> <Gold.PLP.ligand.clash>
0.0000

> <Gold.PLP.ligand.torsion>
0.3883

> <Gold.PLP.Chemscore.Hbond>
2.4940

> <Gold.PLP.Chemscore.CHOScore>
1.0000

> <Gold.PLP.Chemscore.Metal>
0.0000

> <Gold.Chemscore.Hbonds>
donor molecule, donor type, donor heavy atom, donor atom, acceptor molecule, acceptor atom, score
      L1  H     3    28       P1  7948  1.00
      L1  H     6    29       P1  7948  1.00
      P1  H  7989  7998       L1    17  0.50
      L1  C    18    40       P1  7957  0.65

> <Gold.PLP.Chemscore.Internal.Correction>
0.3656

> <Gold.Rescore>
     Score         DG    S(hbond)    S(metal)    S(lipo)     H(rot)  DE(clash)    DE(int)     intcor
     16.88     -18.52       2.20        0.00      79.06       1.40       0.02       1.61       ----

> <Gold.Chemscore.Fitness>
16.8849

> <Gold.Chemscore.DG>
-18.5170

> <Gold.Chemscore.ZeroCoef>
-5.4800

> <Gold.Chemscore.Hbond>
2.2032

> <Gold.Chemscore.Metal>
0.0000

> <Gold.Chemscore.Lipo>
79.0568

> <Gold.Chemscore.Internal_Hbond>
0.0000

> <Gold.Chemscore.DEClash>
0.0235

> <Gold.Chemscore.DEInternal>
1.6087

> <Gold.Chemscore.Rot>
1.3950

> <Gold.Chemscore.Internal.Correction>
   9.000000E+99

> <Gold.Chemscore.Hbonds>
donor molecule, donor type, donor heavy atom, donor atom, acceptor molecule, acceptor atom, score
      L1  H     3    28       P1  7948  0.99
      L1  H     6    29       P1  7948  0.96
      P1  H  7989  7998       L1    17  0.03

> <Gold.Chemscore.Hbond.Weighted>
-7.3586

> <Gold.Chemscore.Metal.Weighted>
-0.0000

> <Gold.Chemscore.Lipo.Weighted>
-9.2496

> <Gold.Chemscore.Internal_Hbond.Weighted>
0.0000

> <Gold.Chemscore.DEClash.Weighted>
0.0235

> <Gold.Chemscore.DEInternal.Weighted>
1.6087

> <Gold.Chemscore.Rot.Weighted>
3.5712

> <Gold.Chemscore.Internal.Correction.Weighted>
   9.000000E+99

> <Gold.Protein.RotatedTorsions>
[ 6907 6896 6895 6894 ] final   87.72 input  -60.11 | X-H torsion
[ 7974 7965 7964 7962 ] final  156.91 input  175.53 | X-H torsion
[ 8008 7997 7996 7995 ] final -111.33 input   59.86 | X-H torsion
[ 10167 10162 10161 10158 ] final  -20.83 input  -65.29 | X-H torsion
[ 10718 10713 10712 10709 ] final  -70.93 input   66.30 | X-H torsion
[ 10763 10752 10751 10750 ] final  119.14 input  -60.55 | X-H torsion
[ 11005 11000 10999 10996 ] final   73.65 input  -57.11 | X-H torsion

> <Gold.Protein.ActiveResidues>
 VAL166  LYS551  ARG553  GLY616  TRP617  ASP618  TYR619  PRO620  LYS621  CYS622 
 ASP623  PHE694  ASN695  SER759  ASP760  ASP761  ALA762  ILE779  LEU786  VAL792 
 PHE793  MET794  SER795  GLU796  ALA797  LYS798  CYS799  TRP800  GLU811  SER814 

> <Gold.Protein.RotatedAtoms>
  152.5415  134.2233  159.8795 H   0  0  0  0  0  0  0  0  0  0  0  0  # atno 6907 bound_to 6896
  151.2209  133.4496  159.2608 H   0  0  0  0  0  0  0  0  0  0  0  0  # atno 6908 bound_to 6896
  151.0806  134.9869  159.8410 H   0  0  0  0  0  0  0  0  0  0  0  0  # atno 6909 bound_to 6896
  144.7934  139.7268  143.6212 H   0  0  0  0  0  0  0  0  0  0  0  0  # atno 7974 bound_to 7965
  154.9882  140.0395  157.2308 H   0  0  0  0  0  0  0  0  0  0  0  0  # atno 8008 bound_to 7997
  154.7652  140.2792  155.6159 H   0  0  0  0  0  0  0  0  0  0  0  0  # atno 8009 bound_to 7997
  156.2911  140.2620  156.2441 H   0  0  0  0  0  0  0  0  0  0  0  0  # atno 8010 bound_to 7997
  140.7278  143.4685  151.0280 H   0  0  0  0  0  0  0  0  0  0  0  0  # atno 10167 bound_to 10162
  156.0386  130.4341  150.2368 H   0  0  0  0  0  0  0  0  0  0  0  0  # atno 10718 bound_to 10713
  153.5784  135.3488  155.2865 H   0  0  0  0  0  0  0  0  0  0  0  0  # atno 10763 bound_to 10752
  154.8671  135.4176  154.2647 H   0  0  0  0  0  0  0  0  0  0  0  0  # atno 10764 bound_to 10752
  153.3428  135.7051  153.6923 H   0  0  0  0  0  0  0  0  0  0  0  0  # atno 10765 bound_to 10752
  139.9430  134.7365  156.1052 H   0  0  0  0  0  0  0  0  0  0  0  0  # atno 11005 bound_to 11000
  146.2195  139.5609  142.9628 LP  0  0  0  0  0  0  0  0  0  0  0  0  # atno 17320 bound_to 7965
  145.5734  141.0391  143.2161 LP  0  0  0  0  0  0  0  0  0  0  0  0  # atno 17321 bound_to 7965
  139.8375  143.7608  152.3180 LP  0  0  0  0  0  0  0  0  0  0  0  0  # atno 17342 bound_to 10162
  139.7745  144.7465  151.0176 LP  0  0  0  0  0  0  0  0  0  0  0  0  # atno 17343 bound_to 10162
  157.0465  131.0050  151.3267 LP  0  0  0  0  0  0  0  0  0  0  0  0  # atno 17370 bound_to 10713
  157.5171  130.7975  149.7768 LP  0  0  0  0  0  0  0  0  0  0  0  0  # atno 17371 bound_to 10713
  141.1071  133.6656  156.2889 LP  0  0  0  0  0  0  0  0  0  0  0  0  # atno 17394 bound_to 11000
  140.5905  134.5655  157.5498 LP  0  0  0  0  0  0  0  0  0  0  0  0  # atno 17395 bound_to 11000

$$$$
